# generated using pymatgen
data_Na4Al2Si2SO12
_symmetry_space_group_name_H-M   'P 1'
_cell_length_a   8.75741379
_cell_length_b   8.75741351
_cell_length_c   21.61229966
_cell_angle_alpha   89.79247487
_cell_angle_beta   90.20752512
_cell_angle_gamma   119.42550380
_symmetry_Int_Tables_number   1
_chemical_formula_structural   Na4Al2Si2SO12
_chemical_formula_sum   'Na24 Al12 Si12 S6 O72'
_cell_volume   1443.65910683
_cell_formula_units_Z   6
loop_
 _symmetry_equiv_pos_site_id
 _symmetry_equiv_pos_as_xyz
  1  'x, y, z'
loop_
 _atom_site_type_symbol
 _atom_site_label
 _atom_site_symmetry_multiplicity
 _atom_site_fract_x
 _atom_site_fract_y
 _atom_site_fract_z
 _atom_site_occupancy
  Na  Na0  1  0.64307297  0.99854945  0.25443821  1
  Na  Na1  1  0.36656045  0.37362379  0.24227604  1
  Na  Na2  1  0.99293205  0.62367026  0.25442877  1
  Na  Na3  1  0.62637621  0.63343955  0.74227604  1
  Na  Na4  1  0.00145055  0.35692703  0.75443821  1
  Na  Na5  1  0.37632974  0.00706795  0.75442877  1
  Na  Na6  1  0.30973997  0.33188245  0.58777121  1
  Na  Na7  1  0.03322745  0.70695679  0.57560904  1
  Na  Na8  1  0.65959905  0.95700326  0.58776177  1
  Na  Na9  1  0.29304321  0.96677255  0.07560904  1
  Na  Na10  1  0.66811755  0.69026003  0.08777121  1
  Na  Na11  1  0.04299674  0.34040095  0.08776177  1
  Na  Na12  1  0.97640597  0.66521645  0.92110521  1
  Na  Na13  1  0.69989345  0.04029079  0.90894304  1
  Na  Na14  1  0.32626505  0.29033726  0.92109577  1
  Na  Na15  1  0.95970921  0.30010655  0.40894304  1
  Na  Na16  1  0.33478355  0.02359403  0.42110521  1
  Na  Na17  1  0.70966274  0.67373495  0.42109577  1
  Na  Na18  1  0.99243519  0.98412879  0.50015400  1
  Na  Na19  1  0.01587121  0.00756481  0.00015400  1
  Na  Na20  1  0.65910219  0.31746179  0.83348700  1
  Na  Na21  1  0.68253821  0.34089781  0.33348700  1
  Na  Na22  1  0.32576819  0.65079579  0.16682100  1
  Na  Na23  1  0.34920421  0.67423181  0.66682100  1
  Al  Al0  1  0.97284480  0.98148051  0.35290816  1
  Al  Al1  1  0.01851949  0.02715520  0.85290816  1
  Al  Al2  1  0.99813176  0.00104362  0.64719868  1
  Al  Al3  1  -0.00104362  0.00186824  0.14719868  1
  Al  Al4  1  0.63951180  0.31481351  0.68624116  1
  Al  Al5  1  0.68518649  0.36048820  0.18624116  1
  Al  Al6  1  0.66479876  0.33437662  0.98053168  1
  Al  Al7  1  0.66562338  0.33520124  0.48053168  1
  Al  Al8  1  0.30617780  0.64814751  0.01957516  1
  Al  Al9  1  0.35185249  0.69382220  0.51957516  1
  Al  Al10  1  0.33146476  0.66771062  0.31386568  1
  Al  Al11  1  0.33228938  0.66853524  0.81386568  1
  Si  Si0  1  0.70617113  0.71009992  0.24925269  1
  Si  Si1  1  0.99912164  0.28716771  0.24979225  1
  Si  Si2  1  0.28990008  0.29382887  0.74925269  1
  Si  Si3  1  0.71283229  0.00087836  0.74979225  1
  Si  Si4  1  0.37283813  0.04343292  0.58258569  1
  Si  Si5  1  0.66578864  0.62050071  0.58312525  1
  Si  Si6  1  0.95656708  0.62716187  0.08258569  1
  Si  Si7  1  0.37949929  0.33421136  0.08312525  1
  Si  Si8  1  0.03950413  0.37676692  0.91591969  1
  Si  Si9  1  0.33245464  0.95383471  0.91645925  1
  Si  Si10  1  0.62323308  0.96049587  0.41591969  1
  Si  Si11  1  0.04616529  0.66754536  0.41645925  1
  S  S0  1  0.28624677  -0.00086200  0.25018344  1
  S  S1  1  0.00086200  0.71375323  0.75018344  1
  S  S2  1  0.95291377  0.33247100  0.58351644  1
  S  S3  1  0.66752900  0.04708623  0.08351644  1
  S  S4  1  0.61957977  0.66580500  0.91685044  1
  S  S5  1  0.33419500  0.38042023  0.41685044  1
  O  O0  1  0.20681781  0.02756456  0.30597221  1
  O  O1  1  0.82971650  0.78984152  0.31008957  1
  O  O2  1  0.97205139  0.16408225  0.31054417  1
  O  O3  1  0.21015848  0.17028350  0.81008957  1
  O  O4  1  0.97243544  0.79318219  0.80597221  1
  O  O5  1  0.83591775  0.02794861  0.81054417  1
  O  O6  1  0.80091548  0.96525793  0.68911031  1
  O  O7  1  0.16298875  0.20136272  0.68940392  1
  O  O8  1  0.02592880  0.82053045  0.69387154  1
  O  O9  1  0.79863728  0.83701125  0.18940392  1
  O  O10  1  0.03474207  0.19908452  0.18911031  1
  O  O11  1  0.17946955  0.97407120  0.19387154  1
  O  O12  1  0.87348481  0.36089756  0.63930521  1
  O  O13  1  0.49638350  0.12317452  0.64342257  1
  O  O14  1  0.63871839  0.49741525  0.64387717  1
  O  O15  1  0.87682548  0.50361650  0.14342257  1
  O  O16  1  0.63910244  0.12651519  0.13930521  1
  O  O17  1  0.50258475  0.36128161  0.14387717  1
  O  O18  1  0.46758248  0.29859093  0.02244331  1
  O  O19  1  0.82965575  0.53469572  0.02273692  1
  O  O20  1  0.69259580  0.15386345  0.02720454  1
  O  O21  1  0.46530428  0.17034425  0.52273692  1
  O  O22  1  0.70140907  0.53241752  0.52244331  1
  O  O23  1  0.84613655  0.30740420  0.52720454  1
  O  O24  1  0.54015081  0.69423156  0.97263921  1
  O  O25  1  0.16304950  0.45650852  0.97675657  1
  O  O26  1  0.30538439  0.83074925  0.97721117  1
  O  O27  1  0.54349148  0.83695050  0.47675657  1
  O  O28  1  0.30576844  0.45984919  0.47263921  1
  O  O29  1  0.16925075  0.69461561  0.47721117  1
  O  O30  1  0.13424848  0.63192493  0.35577731  1
  O  O31  1  0.49632175  0.86802972  0.35607092  1
  O  O32  1  0.35926180  0.48719745  0.36053854  1
  O  O33  1  0.13197028  0.50367825  0.85607092  1
  O  O34  1  0.36807507  0.86575152  0.85577731  1
  O  O35  1  0.51280255  0.64073820  0.86053854  1
  O  O36  1  0.03332793  0.85013430  0.41003650  1
  O  O37  1  0.82181723  0.98370136  0.41189606  1
  O  O38  1  0.18157405  0.20200875  0.41155800  1
  O  O39  1  0.01629864  0.17818277  0.91189606  1
  O  O40  1  0.14986570  0.96667207  0.91003650  1
  O  O41  1  0.79799125  0.81842595  0.91155800  1
  O  O42  1  0.96813220  0.17028838  0.58669753  1
  O  O43  1  0.17560688  0.02290369  0.59057700  1
  O  O44  1  0.83843314  0.81824895  0.58961098  1
  O  O45  1  0.97709631  0.82439312  0.09057700  1
  O  O46  1  0.82971162  0.03186780  0.08669753  1
  O  O47  1  0.18175105  0.16156686  0.08961098  1
  O  O48  1  0.69999493  0.18346730  0.74336950  1
  O  O49  1  0.48848423  0.31703436  0.74522906  1
  O  O50  1  0.84824105  0.53534175  0.74489100  1
  O  O51  1  0.68296564  0.51151577  0.24522906  1
  O  O52  1  0.81653270  0.30000507  0.24336950  1
  O  O53  1  0.46465825  0.15175895  0.24489100  1
  O  O54  1  0.63479920  0.50362138  0.92003053  1
  O  O55  1  0.84227388  0.35623669  0.92391000  1
  O  O56  1  0.50510014  0.15158195  0.92294398  1
  O  O57  1  0.64376331  0.15772612  0.42391000  1
  O  O58  1  0.49637862  0.36520080  0.42003053  1
  O  O59  1  0.84841805  0.49489986  0.42294398  1
  O  O60  1  0.36666093  0.51680130  0.07670350  1
  O  O61  1  0.15515023  0.65036836  0.07856306  1
  O  O62  1  0.51490705  0.86867575  0.07822500  1
  O  O63  1  0.34963164  0.84484977  0.57856306  1
  O  O64  1  0.48319870  0.63333907  0.57670350  1
  O  O65  1  0.13132425  0.48509295  0.57822500  1
  O  O66  1  0.30146520  0.83695538  0.25336453  1
  O  O67  1  0.50893988  0.68957069  0.25724400  1
  O  O68  1  0.17176614  0.48491595  0.25627798  1
  O  O69  1  0.31042931  0.49106012  0.75724400  1
  O  O70  1  0.16304462  0.69853480  0.75336453  1
  O  O71  1  0.51508405  0.82823386  0.75627798  1
loop_
_geom_bond_atom_site_label_1
_geom_bond_atom_site_label_2
_geom_bond_distance
_geom_bond_site_symmetry_2
Na0 O52 2.322035 1_565
Na0 O67 2.362495 1_555
Na0 O53 2.517848 1_565
Na0 O31 2.518272 1_555
Na0 O66 2.606294 1_555
Na0 O16 2.732418 1_565
Na0 O9 2.784731 1_555
Na0 O2 2.784909 1_565
Na1 O68 2.364549 1_555
Na1 O51 2.419017 1_555
Na1 O67 2.434883 1_555
Na1 O17 2.469768 1_555
Na1 O53 2.480981 1_555
Na1 O32 2.758288 1_555
Na1 O10 2.779379 1_555
Na2 O51 2.398030 1_555
Na2 O68 2.408313 1_655
Na2 O66 2.414769 1_655
Na2 O52 2.485470 1_555
Na2 O30 2.495625 1_655
Na2 O15 2.616316 1_555
Na2 O1 2.770699 1_555
Na3 O71 2.364549 1_555
Na3 O49 2.419017 1_555
Na3 O69 2.434883 1_555
Na3 O14 2.469768 1_555
Na3 O50 2.480981 1_555
Na3 O35 2.758288 1_555
Na3 O6 2.779379 1_555
Na4 O48 2.322035 1_455
Na4 O69 2.362495 1_555
Na4 O50 2.517848 1_455
Na4 O33 2.518272 1_555
Na4 O70 2.606294 1_555
Na4 O12 2.732418 1_455
Na4 O7 2.784731 1_555
Na4 O5 2.784909 1_455
Na5 O49 2.398030 1_555
Na5 O71 2.408313 1_545
Na5 O70 2.414769 1_545
Na5 O48 2.485471 1_555
Na5 O34 2.495625 1_545
Na5 O13 2.616316 1_555
Na5 O3 2.770699 1_555
Na6 O64 2.322039 1_555
Na6 O43 2.362495 1_555
Na6 O65 2.517861 1_555
Na6 O7 2.518272 1_555
Na6 O42 2.606294 1_455
Na6 O28 2.732403 1_555
Na6 O21 2.784731 1_555
Na6 O14 2.784909 1_555
Na7 O44 2.364549 1_455
Na7 O63 2.419009 1_555
Na7 O43 2.434883 1_565
Na7 O29 2.469743 1_555
Na7 O65 2.480967 1_555
Na7 O8 2.758288 1_555
Na7 O22 2.779379 1_455
Na8 O63 2.398038 1_555
Na8 O44 2.408313 1_555
Na8 O42 2.414769 1_565
Na8 O64 2.485462 1_555
Na8 O6 2.495625 1_555
Na8 O27 2.616296 1_555
Na8 O13 2.770699 1_565
Na9 O47 2.364549 1_565
Na9 O61 2.419009 1_555
Na9 O45 2.434883 1_455
Na9 O26 2.469743 1_554
Na9 O62 2.480967 1_555
Na9 O11 2.758288 1_555
Na9 O18 2.779379 1_565
Na10 O60 2.322039 1_555
Na10 O45 2.362495 1_555
Na10 O62 2.517861 1_555
Na10 O9 2.518272 1_555
Na10 O46 2.606294 1_565
Na10 O24 2.732403 1_554
Na10 O19 2.784731 1_555
Na10 O17 2.784909 1_555
Na11 O61 2.398038 1_555
Na11 O47 2.408313 1_555
Na11 O46 2.414769 1_455
Na11 O60 2.485462 1_555
Na11 O10 2.495625 1_555
Na11 O25 2.616296 1_554
Na11 O15 2.770699 1_455
Na12 O40 2.322035 1_655
Na12 O55 2.362503 1_555
Na12 O41 2.517848 1_555
Na12 O19 2.518253 1_556
Na12 O54 2.606287 1_555
Na12 O4 2.732418 1_555
Na12 O33 2.784731 1_655
Na12 O26 2.784909 1_655
Na13 O56 2.364532 1_555
Na13 O39 2.419017 1_655
Na13 O55 2.434872 1_555
Na13 O5 2.469768 1_555
Na13 O41 2.480981 1_545
Na13 O20 2.758263 1_556
Na13 O34 2.779379 1_545
Na14 O39 2.398030 1_555
Na14 O56 2.408328 1_555
Na14 O54 2.414774 1_555
Na14 O40 2.485470 1_545
Na14 O18 2.495612 1_556
Na14 O3 2.616316 1_555
Na14 O25 2.770699 1_555
Na15 O59 2.364532 1_555
Na15 O37 2.419017 1_545
Na15 O57 2.434872 1_555
Na15 O2 2.469768 1_555
Na15 O38 2.480981 1_655
Na15 O23 2.758263 1_555
Na15 O30 2.779379 1_655
Na16 O36 2.322035 1_545
Na16 O57 2.362503 1_555
Na16 O38 2.517848 1_555
Na16 O21 2.518253 1_555
Na16 O58 2.606286 1_555
Na16 O0 2.732418 1_555
Na16 O31 2.784731 1_545
Na16 O29 2.784909 1_545
Na17 O37 2.398030 1_555
Na17 O59 2.408328 1_555
Na17 O58 2.414774 1_555
Na17 O36 2.485471 1_655
Na17 O22 2.495612 1_555
Na17 O1 2.616316 1_555
Na17 O27 2.770699 1_555
Na18 O36 2.394382 1_655
Na18 O44 2.395950 1_555
Na18 O37 2.417616 1_555
Na18 O43 2.440173 1_665
Na18 O42 2.562697 1_565
Na18 O38 2.634707 1_665
Na19 O40 2.394382 1_544
Na19 O47 2.395950 1_555
Na19 O39 2.417616 1_554
Na19 O45 2.440173 1_445
Na19 O46 2.562697 1_455
Na19 O41 2.634707 1_444
Na20 O48 2.394382 1_555
Na20 O56 2.395950 1_555
Na20 O49 2.417616 1_555
Na20 O55 2.440173 1_555
Na20 O54 2.562697 1_555
Na20 O50 2.634707 1_555
Na21 O52 2.394382 1_555
Na21 O59 2.395950 1_555
Na21 O51 2.417616 1_555
Na21 O57 2.440173 1_555
Na21 O58 2.562697 1_555
Na21 O53 2.634707 1_555
Na22 O60 2.394382 1_555
Na22 O68 2.395950 1_555
Na22 O61 2.417616 1_555
Na22 O67 2.440173 1_555
Na22 O66 2.562697 1_555
Na22 O62 2.634707 1_555
Na23 O64 2.394382 1_555
Na23 O71 2.395950 1_555
Na23 O63 2.417616 1_555
Na23 O69 2.440173 1_555
Na23 O70 2.562697 1_555
Na23 O65 2.634707 1_555
Al0 O1 1.783237 1_555
Al0 O2 1.842766 1_565
Al0 O37 1.847329 1_555
Al0 O36 1.926573 1_655
Al0 O0 2.142389 1_665
Al0 O38 2.282545 1_665
Al1 O3 1.783237 1_555
Al1 O5 1.842766 1_455
Al1 O39 1.847329 1_555
Al1 O40 1.926573 1_545
Al1 O4 2.142388 1_445
Al1 O41 2.282545 1_445
Al2 O6 1.838215 1_545
Al2 O7 1.872783 1_655
Al2 O43 1.915590 1_655
Al2 O44 1.967122 1_545
Al2 O8 1.985084 1_645
Al2 O42 2.083649 1_555
Al3 O10 1.838215 1_555
Al3 O9 1.872783 1_445
Al3 O45 1.915590 1_445
Al3 O47 1.967122 1_555
Al3 O11 1.985084 1_545
Al3 O46 2.083649 1_455
Al4 O13 1.783237 1_555
Al4 O14 1.842766 1_555
Al4 O49 1.847329 1_555
Al4 O48 1.926573 1_555
Al4 O12 2.142389 1_555
Al4 O50 2.282545 1_555
Al5 O15 1.783237 1_555
Al5 O17 1.842766 1_555
Al5 O51 1.847329 1_555
Al5 O52 1.926573 1_555
Al5 O16 2.142388 1_555
Al5 O53 2.282545 1_555
Al6 O18 1.838215 1_556
Al6 O19 1.872783 1_556
Al6 O55 1.915590 1_555
Al6 O56 1.967122 1_555
Al6 O20 1.985084 1_556
Al6 O54 2.083649 1_555
Al7 O22 1.838215 1_555
Al7 O21 1.872783 1_555
Al7 O57 1.915590 1_555
Al7 O59 1.967122 1_555
Al7 O23 1.985084 1_555
Al7 O58 2.083649 1_555
Al8 O25 1.783237 1_554
Al8 O26 1.842766 1_554
Al8 O61 1.847329 1_555
Al8 O60 1.926573 1_555
Al8 O24 2.142389 1_554
Al8 O62 2.282545 1_555
Al9 O27 1.783237 1_555
Al9 O29 1.842766 1_555
Al9 O63 1.847329 1_555
Al9 O64 1.926573 1_555
Al9 O28 2.142388 1_555
Al9 O65 2.282545 1_555
Al10 O30 1.838215 1_555
Al10 O31 1.872783 1_555
Al10 O67 1.915590 1_555
Al10 O68 1.967122 1_555
Al10 O32 1.985084 1_555
Al10 O66 2.083649 1_555
Al11 O34 1.838215 1_555
Al11 O33 1.872783 1_555
Al11 O69 1.915590 1_555
Al11 O71 1.967122 1_555
Al11 O35 1.985084 1_555
Al11 O70 2.083649 1_555
O0 S0 1.475801 1_555
O1 Si0 1.625108 1_555
O2 Si1 1.637971 1_555
O3 Si2 1.625108 1_555
O4 S1 1.475801 1_655
O5 Si3 1.637971 1_555
O6 Si3 1.630655 1_565
O7 Si2 1.636120 1_555
O8 S1 1.481804 1_555
O9 Si0 1.636120 1_555
O10 Si1 1.630655 1_455
O11 S0 1.481804 1_565
O12 S2 1.475801 1_555
O13 Si4 1.625108 1_555
O14 Si5 1.637971 1_555
O15 Si6 1.625108 1_555
O16 S3 1.475801 1_555
O17 Si7 1.637971 1_555
O18 Si7 1.630655 1_555
O19 Si6 1.636120 1_555
O20 S3 1.481804 1_555
O21 Si4 1.636120 1_555
O22 Si5 1.630655 1_555
O23 S2 1.481804 1_555
O24 S4 1.475801 1_555
O25 Si8 1.625108 1_555
O26 Si9 1.637971 1_555
O27 Si10 1.625108 1_555
O28 S5 1.475801 1_555
O29 Si11 1.637971 1_555
O30 Si11 1.630655 1_555
O31 Si10 1.636120 1_555
O32 S5 1.481804 1_555
O33 Si8 1.636120 1_555
O34 Si9 1.630655 1_555
O35 S4 1.481804 1_555
O36 Si11 1.662420 1_555
O37 Si10 1.651357 1_555
O38 S5 1.479505 1_555
O39 Si8 1.651356 1_555
O40 Si9 1.662421 1_555
O41 S4 1.479505 1_555
O42 S2 1.491630 1_555
O43 Si4 1.655992 1_555
O44 Si5 1.652904 1_555
O45 Si6 1.655992 1_555
O46 S3 1.491630 1_555
O47 Si7 1.652904 1_555
O48 Si3 1.662420 1_555
O49 Si2 1.651357 1_555
O50 S1 1.479505 1_655
O51 Si0 1.651356 1_555
O52 Si1 1.662421 1_555
O53 S0 1.479505 1_555
O54 S4 1.491643 1_555
O55 Si8 1.655978 1_655
O56 Si9 1.652900 1_545
O57 Si10 1.655978 1_545
O58 S5 1.491643 1_555
O59 Si11 1.652900 1_655
O60 Si7 1.662432 1_555
O61 Si6 1.651343 1_455
O62 S3 1.479501 1_565
O63 Si4 1.651343 1_565
O64 Si5 1.662432 1_555
O65 S2 1.479501 1_455
O66 S0 1.491630 1_565
O67 Si0 1.655992 1_555
O68 Si1 1.652904 1_455
O69 Si2 1.655992 1_555
O70 S1 1.491630 1_555
O71 Si3 1.652904 1_565
