# generated using pymatgen
data_EuIn2Rh
_symmetry_space_group_name_H-M   'P 1'
_cell_length_a   5.66920227
_cell_length_b   5.66920227
_cell_length_c   8.00608635
_cell_angle_alpha   89.99999334
_cell_angle_beta   90.00000666
_cell_angle_gamma   134.27427667
_symmetry_Int_Tables_number   1
_chemical_formula_structural   EuIn2Rh
_chemical_formula_sum   'Eu2 In4 Rh2'
_cell_volume   184.23874636
_cell_formula_units_Z   2
loop_
 _symmetry_equiv_pos_site_id
 _symmetry_equiv_pos_as_xyz
  1  'x, y, z'
loop_
 _atom_site_type_symbol
 _atom_site_label
 _atom_site_symmetry_multiplicity
 _atom_site_fract_x
 _atom_site_fract_y
 _atom_site_fract_z
 _atom_site_occupancy
  Eu  Eu0  1  0.06234754  0.93765246  0.25000000  1
  Eu  Eu1  1  0.93765246  0.06234754  0.75000000  1
  In  In0  1  0.65107500  0.34892500  0.55225449  1
  In  In1  1  0.34892500  0.65107500  0.44774551  1
  In  In2  1  0.65107500  0.34892500  0.94774551  1
  In  In3  1  0.34892500  0.65107500  0.05225449  1
  Rh  Rh0  1  0.21470730  0.78529270  0.75000000  1
  Rh  Rh1  1  0.78529270  0.21470730  0.25000000  1
loop_
_geom_bond_atom_site_label_1
_geom_bond_atom_site_label_2
_geom_bond_distance
_geom_bond_site_symmetry_2
Eu0 Rh1 2.894567 1_465
Eu0 Rh1 3.205777 1_565
Eu0 Rh1 3.205777 1_455
Eu0 In1 3.386855 1_555
Eu0 In3 3.386855 1_555
Eu0 In0 3.400988 1_565
Eu0 In0 3.400988 1_455
Eu0 In2 3.400988 1_564
Eu0 In2 3.400988 1_454
Eu0 In3 3.511390 1_565
Eu0 In3 3.511390 1_455
Eu0 In1 3.511390 1_565
Eu0 In1 3.511390 1_455
Eu1 Rh0 2.894567 1_645
Eu1 Rh0 3.205777 1_655
Eu1 Rh0 3.205777 1_545
Eu1 In0 3.386855 1_555
Eu1 In2 3.386855 1_555
Eu1 In1 3.400988 1_655
Eu1 In1 3.400988 1_545
Eu1 In3 3.400988 1_656
Eu1 In3 3.400988 1_546
Eu1 In2 3.511390 1_545
Eu1 In2 3.511390 1_655
Eu1 In0 3.511390 1_545
Eu1 In0 3.511390 1_655
In0 Rh0 2.792847 1_655
In0 Rh0 2.792847 1_545
In0 Rh1 2.796806 1_555
In0 In1 3.134397 1_655
In0 In1 3.134397 1_545
In0 In2 3.166335 1_555
In0 In1 3.265756 1_555
In1 Rh1 2.792847 1_565
In1 Rh1 2.792847 1_455
In1 Rh0 2.796806 1_555
In1 In3 3.166335 1_555
In2 Rh0 2.792847 1_655
In2 Rh0 2.792847 1_545
In2 Rh1 2.796806 1_556
In2 In3 3.134396 1_656
In2 In3 3.134396 1_546
In2 In3 3.265756 1_556
In3 Rh1 2.792847 1_565
In3 Rh1 2.792847 1_455
In3 Rh0 2.796806 1_554
