# generated using pymatgen
data_Na21Ta8Zn4Si15(PO24)3
_symmetry_space_group_name_H-M   'P 1'
_cell_length_a   9.09858620
_cell_length_b   9.11823124
_cell_length_c   22.36412330
_cell_angle_alpha   89.88839262
_cell_angle_beta   89.90880534
_cell_angle_gamma   120.04505381
_symmetry_Int_Tables_number   1
_chemical_formula_structural   Na21Ta8Zn4Si15(PO24)3
_chemical_formula_sum   'Na21 Ta8 Zn4 Si15 P3 O72'
_cell_volume   1606.07915939
_cell_formula_units_Z   1
loop_
 _symmetry_equiv_pos_site_id
 _symmetry_equiv_pos_as_xyz
  1  'x, y, z'
loop_
 _atom_site_type_symbol
 _atom_site_label
 _atom_site_symmetry_multiplicity
 _atom_site_fract_x
 _atom_site_fract_y
 _atom_site_fract_z
 _atom_site_occupancy
  Na  Na0  1  0.63983060  0.02130183  0.24135486  1
  Na  Na1  1  0.37878568  0.35520539  0.24344581  1
  Na  Na2  1  0.98285214  0.62448696  0.24082036  1
  Na  Na3  1  0.63901039  0.62068721  0.74392859  1
  Na  Na4  1  0.97858246  0.35555528  0.74591035  1
  Na  Na5  1  0.38234778  0.02525080  0.74690564  1
  Na  Na6  1  0.31285609  0.33767076  0.58829810  1
  Na  Na7  1  0.66408240  0.97486408  0.58817774  1
  Na  Na8  1  0.31342222  0.97389597  0.08528696  1
  Na  Na9  1  0.96747160  0.68523913  0.91252190  1
  Na  Na10  1  0.71906467  0.03342935  0.91003220  1
  Na  Na11  1  0.31408178  0.27835401  0.91010211  1
  Na  Na12  1  0.96562137  0.28074211  0.41185434  1
  Na  Na13  1  0.31471799  0.03550754  0.40948324  1
  Na  Na14  1  0.71703886  0.68452908  0.41187881  1
  Na  Na15  1  0.00086742  0.99256776  0.49490105  1
  Na  Na16  1  0.99244408  0.00050799  0.99306307  1
  Na  Na17  1  0.66169191  0.32792767  0.82527482  1
  Na  Na18  1  0.66180062  0.32922818  0.32479688  1
  Na  Na19  1  0.33431231  0.65707647  0.16091066  1
  Na  Na20  1  0.32344886  0.66739993  0.66672758  1
  Ta  Ta0  1  0.99851565  0.99970915  0.64684074  1
  Ta  Ta1  1  0.00064101  0.99784708  0.14316279  1
  Ta  Ta2  1  0.66740458  0.33277570  0.98162024  1
  Ta  Ta3  1  0.66638809  0.33379775  0.48092769  1
  Ta  Ta4  1  0.33282879  0.66393413  0.02136258  1
  Ta  Ta5  1  0.33096012  0.66597109  0.52069908  1
  Ta  Ta6  1  0.33277287  0.66914900  0.31265866  1
  Ta  Ta7  1  0.33654364  0.66599888  0.81312631  1
  Zn  Zn0  1  0.00491164  0.00208641  0.35114703  1
  Zn  Zn1  1  0.00190102  0.00589261  0.85102134  1
  Zn  Zn2  1  0.66147645  0.32801718  0.68060194  1
  Zn  Zn3  1  0.66128246  0.32824233  0.17504992  1
  Si  Si0  1  0.29382946  0.00233911  0.25265918  1
  Si  Si1  1  0.29337892  0.29283512  0.75284717  1
  Si  Si2  1  0.70698633  0.00129439  0.75322995  1
  Si  Si3  1  0.95873852  0.33591626  0.58631140  1
  Si  Si4  1  0.37143819  0.03771344  0.58496685  1
  Si  Si5  1  0.67037109  0.62663862  0.58487720  1
  Si  Si6  1  0.95625056  0.62104374  0.08659462  1
  Si  Si7  1  0.66773072  0.04015301  0.08537341  1
  Si  Si8  1  0.37631147  0.33801194  0.08638612  1
  Si  Si9  1  0.62354427  0.66323238  0.91767612  1
  Si  Si10  1  0.04024548  0.37837446  0.91708617  1
  Si  Si11  1  0.33571614  0.95871909  0.91757969  1
  Si  Si12  1  0.62393762  0.95952445  0.41701942  1
  Si  Si13  1  0.33667290  0.37732665  0.41672722  1
  Si  Si14  1  0.03949642  0.66237592  0.41668581  1
  P  P0  1  0.70983475  0.71264958  0.25308713  1
  P  P1  1  0.00312446  0.28994871  0.25268370  1
  P  P2  1  0.00268477  0.71224141  0.75283616  1
  O  O0  1  0.21155311  0.02770128  0.31247838  1
  O  O1  1  0.80756126  0.79059295  0.31061298  1
  O  O2  1  0.97603901  0.18980581  0.31042450  1
  O  O3  1  0.21404946  0.17996256  0.81161413  1
  O  O4  1  0.97774285  0.78763955  0.80961114  1
  O  O5  1  0.81582278  0.02459877  0.81203089  1
  O  O6  1  0.80207293  0.96854903  0.69290700  1
  O  O7  1  0.16660789  0.19460480  0.69273882  1
  O  O8  1  0.02813014  0.83292793  0.69711850  1
  O  O9  1  0.80154000  0.83257870  0.19814368  1
  O  O10  1  0.02812564  0.19581263  0.19815033  1
  O  O11  1  0.16572302  0.96997381  0.19397381  1
  O  O12  1  0.88509414  0.36727277  0.64622234  1
  O  O13  1  0.48738973  0.10495038  0.64322693  1
  O  O14  1  0.61877869  0.50834902  0.64272385  1
  O  O15  1  0.88382134  0.51755667  0.14713747  1
  O  O16  1  0.61877053  0.10606416  0.14426850  1
  O  O17  1  0.47705548  0.36736863  0.14733660  1
  O  O18  1  0.46857800  0.30068376  0.02802959  1
  O  O19  1  0.83489436  0.52749098  0.02702986  1
  O  O20  1  0.69428366  0.16375920  0.02626308  1
  O  O21  1  0.46769145  0.16568061  0.52599211  1
  O  O22  1  0.69356483  0.52963349  0.52498176  1
  O  O23  1  0.83294125  0.30269139  0.52687330  1
  O  O24  1  0.51831677  0.68570962  0.97235406  1
  O  O25  1  0.16474560  0.48610683  0.97212185  1
  O  O26  1  0.31724176  0.84027761  0.97509973  1
  O  O27  1  0.52470434  0.83869809  0.47449810  1
  O  O28  1  0.32049632  0.47983964  0.47422955  1
  O  O29  1  0.16620868  0.68227868  0.47178411  1
  O  O30  1  0.13389602  0.63142458  0.35736980  1
  O  O31  1  0.49598259  0.86242212  0.35854164  1
  O  O32  1  0.36693645  0.50259978  0.35789658  1
  O  O33  1  0.13240112  0.50154051  0.85698154  1
  O  O34  1  0.36613742  0.86318276  0.85833801  1
  O  O35  1  0.49788297  0.63159439  0.85766955  1
  O  O36  1  0.01831848  0.82565267  0.41582343  1
  O  O37  1  0.80832599  0.97919416  0.41415869  1
  O  O38  1  0.17008163  0.19398451  0.41698282  1
  O  O39  1  0.02168757  0.19479674  0.91754068  1
  O  O40  1  0.16952491  0.97628828  0.91639139  1
  O  O41  1  0.80840491  0.82650593  0.91533935  1
  O  O42  1  0.97443398  0.16016928  0.58922134  1
  O  O43  1  0.18646327  0.02903385  0.58926157  1
  O  O44  1  0.83704938  0.81896928  0.58883193  1
  O  O45  1  0.97865228  0.81588560  0.09116563  1
  O  O46  1  0.83881477  0.02295553  0.09213315  1
  O  O47  1  0.18710370  0.15837267  0.09123132  1
  O  O48  1  0.68087026  0.16261978  0.74709437  1
  O  O49  1  0.48417795  0.32674433  0.74593129  1
  O  O50  1  0.85226749  0.53489025  0.74498275  1
  O  O51  1  0.68393498  0.53458640  0.24740468  1
  O  O52  1  0.85457941  0.32219240  0.24647777  1
  O  O53  1  0.48506023  0.16147017  0.24762827  1
  O  O54  1  0.62877544  0.48527479  0.92340267  1
  O  O55  1  0.85466663  0.37008711  0.92256675  1
  O  O56  1  0.51308042  0.14472097  0.92254902  1
  O  O57  1  0.63076093  0.14374031  0.42231361  1
  O  O58  1  0.51377216  0.36825225  0.42176187  1
  O  O59  1  0.85584413  0.48432962  0.42221935  1
  O  O60  1  0.34468690  0.49654311  0.07452426  1
  O  O61  1  0.15277985  0.66187415  0.07577807  1
  O  O62  1  0.50008201  0.85237624  0.07376908  1
  O  O63  1  0.35035488  0.85023255  0.57302392  1
  O  O64  1  0.50518807  0.65539170  0.57381869  1
  O  O65  1  0.15482757  0.49144928  0.57500680  1
  O  O66  1  0.30179684  0.81871804  0.25485178  1
  O  O67  1  0.52800943  0.70040269  0.25476788  1
  O  O68  1  0.17612978  0.46893641  0.25484072  1
  O  O69  1  0.29509492  0.47937288  0.75431191  1
  O  O70  1  0.17423528  0.70610198  0.75353163  1
  O  O71  1  0.51653131  0.82017449  0.75406777  1
loop_
_geom_bond_atom_site_label_1
_geom_bond_atom_site_label_2
_geom_bond_distance
_geom_bond_site_symmetry_2
Na0 O53 2.332061 1_555
Na0 O16 2.343391 1_555
Na0 O52 2.447874 1_555
Na0 O67 2.588696 1_545
Na0 O66 2.696033 1_545
Na0 O9 2.932100 1_545
Na0 O31 2.959027 1_545
Na1 O17 2.307664 1_555
Na1 O53 2.403008 1_555
Na1 O51 2.417774 1_555
Na1 O68 2.540582 1_555
Na1 O67 2.745845 1_555
Na2 O15 2.299210 1_555
Na2 O52 2.398464 1_555
Na2 O51 2.419982 1_555
Na2 O66 2.552440 1_655
Na2 O68 2.774921 1_655
Na2 O11 2.919405 1_655
Na2 O30 2.934558 1_655
Na3 O49 2.321351 1_555
Na3 O50 2.428495 1_555
Na3 O14 2.455086 1_555
Na3 O71 2.575370 1_555
Na3 O69 2.732180 1_555
Na3 O35 2.871875 1_555
Na4 O48 2.379231 1_555
Na4 O12 2.408620 1_555
Na4 O50 2.424266 1_555
Na4 O69 2.519940 1_655
Na4 O70 2.778502 1_655
Na4 O33 2.838900 1_655
Na5 O48 2.353637 1_555
Na5 O49 2.421891 1_555
Na5 O13 2.471584 1_555
Na5 O70 2.560381 1_545
Na5 O71 2.701552 1_545
Na5 O34 2.860471 1_545
Na5 O3 2.931403 1_555
Na5 O8 3.010238 1_545
Na6 O43 2.449844 1_555
Na6 O65 2.477995 1_555
Na6 O64 2.545199 1_555
Na6 O42 2.666546 1_455
Na6 O7 2.677315 1_555
Na6 O14 2.707699 1_555
Na6 O28 2.844193 1_555
Na6 O21 2.932622 1_555
Na7 O42 2.460038 1_565
Na7 O63 2.512095 1_555
Na7 O64 2.543011 1_555
Na7 O44 2.595697 1_555
Na7 O6 2.673326 1_555
Na7 O13 2.723253 1_565
Na7 O27 2.838866 1_555
Na7 O23 2.924727 1_565
Na8 O62 2.462233 1_555
Na8 O47 2.470701 1_565
Na8 O61 2.472918 1_555
Na8 O45 2.640896 1_455
Na8 O16 2.752462 1_565
Na8 O26 2.758971 1_554
Na8 O11 2.767055 1_555
Na8 O18 2.877247 1_565
Na9 O40 2.355006 1_655
Na9 O41 2.371628 1_555
Na9 O4 2.465980 1_555
Na9 O55 2.530805 1_555
Na9 O54 2.692527 1_555
Na9 O19 2.884521 1_556
Na10 O5 2.377111 1_555
Na10 O39 2.391684 1_655
Na10 O41 2.402081 1_545
Na10 O56 2.554317 1_555
Na10 O55 2.689968 1_555
Na10 O20 2.915210 1_556
Na11 O39 2.377848 1_555
Na11 O3 2.383510 1_555
Na11 O40 2.388772 1_545
Na11 O54 2.538086 1_555
Na11 O56 2.655188 1_555
Na11 O18 2.949631 1_556
Na11 O35 3.021809 1_555
Na12 O38 2.360855 1_655
Na12 O37 2.381144 1_545
Na12 O2 2.434637 1_555
Na12 O59 2.520925 1_555
Na12 O57 2.661454 1_555
Na12 O23 2.889319 1_555
Na13 O0 2.352178 1_555
Na13 O38 2.398444 1_555
Na13 O36 2.405151 1_545
Na13 O57 2.546970 1_555
Na13 O58 2.657688 1_555
Na13 O21 2.916268 1_555
Na14 O36 2.376326 1_655
Na14 O37 2.382749 1_555
Na14 O1 2.435270 1_555
Na14 O58 2.538002 1_555
Na14 O59 2.699752 1_555
Na14 O22 2.849705 1_555
Na15 O36 2.391816 1_555
Na15 O38 2.434641 1_565
Na15 O37 2.478214 1_455
Na15 O44 2.598964 1_455
Na15 O43 2.620550 1_565
Na15 O42 2.687350 1_465
Na16 O39 2.361536 1_655
Na16 O41 2.387944 1_545
Na16 O40 2.435949 1_645
Na16 O46 2.680135 1_556
Na16 O45 2.726980 1_546
Na16 O47 2.738733 1_656
Na17 O48 2.373216 1_555
Na17 O49 2.397741 1_555
Na17 O50 2.548042 1_555
Na17 O56 2.658224 1_555
Na17 O55 2.702676 1_555
Na17 O54 2.721141 1_555
Na18 O53 2.336698 1_555
Na18 O51 2.480156 1_555
Na18 O52 2.500381 1_555
Na18 O58 2.667730 1_555
Na18 O57 2.683637 1_555
Na18 O59 2.718117 1_555
Na19 O60 2.456179 1_555
Na19 O61 2.537109 1_555
Na19 O62 2.555707 1_555
Na19 O68 2.632699 1_555
Na19 O67 2.643063 1_555
Na19 O66 2.668409 1_555
Na20 O70 2.492060 1_555
Na20 O69 2.526869 1_555
Na20 O71 2.532406 1_555
Na20 O65 2.587177 1_555
Na20 O63 2.608986 1_555
Na20 O64 2.689776 1_555
O0 Si0 1.604672 1_555
O0 Zn0 1.972731 1_555
O1 P0 1.524879 1_555
O1 Zn0 2.075913 1_665
O2 P1 1.526795 1_655
O2 Zn0 2.067171 1_655
O3 Si1 1.598553 1_555
O3 Zn1 1.985713 1_555
O4 P2 1.514946 1_655
O4 Zn1 2.106231 1_665
O5 Si2 1.596745 1_555
O5 Zn1 1.987250 1_655
O6 Si2 1.707089 1_565
O6 Ta0 1.954790 1_555
O7 Si1 1.707289 1_555
O7 Ta0 1.959925 1_445
O8 P2 1.598722 1_555
O8 Ta0 2.013511 1_455
O9 P0 1.574711 1_555
O9 Ta1 2.077634 1_655
O10 P1 1.573097 1_555
O10 Ta1 2.095423 1_545
O11 Si0 1.682300 1_565
O11 Ta1 1.999622 1_555
O12 Si3 1.586322 1_555
O12 Zn2 2.030662 1_555
O13 Si4 1.595724 1_555
O13 Zn2 2.032078 1_555
O14 Si5 1.594672 1_555
O14 Zn2 2.051232 1_555
O15 Si6 1.589803 1_555
O15 Zn3 1.990240 1_555
O16 Si7 1.601184 1_555
O16 Zn3 1.987278 1_555
O17 Si8 1.590476 1_555
O17 Zn3 1.980490 1_555
O18 Si8 1.675779 1_555
O18 Ta2 1.974400 1_554
O19 Si6 1.669526 1_555
O19 Ta2 1.951546 1_554
O20 Si7 1.672340 1_555
O20 Ta2 1.950357 1_554
O21 Si4 1.683769 1_555
O21 Ta3 1.961384 1_555
O22 Si5 1.676847 1_555
O22 Ta3 1.945750 1_555
O23 Si3 1.681670 1_555
O23 Ta3 1.966452 1_555
O24 Si9 1.627176 1_555
O24 Ta4 1.935635 1_556
O25 Si10 1.630323 1_555
O25 Ta4 1.926104 1_556
O26 Si11 1.631413 1_555
O26 Ta4 1.974430 1_556
O27 Si12 1.635881 1_555
O27 Ta5 1.965529 1_555
O28 Si13 1.640430 1_555
O28 Ta5 1.953188 1_555
O29 Si14 1.635964 1_555
O29 Ta5 1.921879 1_555
O30 Si14 1.678589 1_555
O30 Ta6 1.939608 1_555
O31 Si12 1.681319 1_555
O31 Ta6 1.937829 1_555
O32 Si13 1.670236 1_555
O32 Ta6 1.973356 1_555
O33 Si10 1.678909 1_555
O33 Ta7 1.964682 1_555
O34 Si11 1.683916 1_555
O34 Ta7 1.962326 1_555
O35 Si9 1.693372 1_555
O35 Ta7 1.926201 1_555
O36 Si14 1.594107 1_555
O36 Zn0 2.209789 1_565
O37 Si12 1.596608 1_555
O37 Zn0 2.201285 1_665
O38 Si13 1.598378 1_555
O38 Zn0 2.207241 1_555
O39 Si10 1.596080 1_555
O39 Zn1 2.216468 1_555
O40 Si11 1.598597 1_555
O40 Zn1 2.225762 1_565
O41 Si9 1.593778 1_555
O41 Zn1 2.223326 1_665
O42 Si3 1.679709 1_555
O42 Ta0 2.040536 1_545
O43 Si4 1.647449 1_555
O43 Ta0 2.046402 1_445
O44 Si5 1.649564 1_555
O44 Ta0 2.036487 1_555
O45 Si6 1.687161 1_555
O45 Ta1 1.954736 1_655
O46 Si7 1.647909 1_555
O46 Ta1 1.965871 1_645
O47 Si8 1.683281 1_555
O47 Ta1 1.967242 1_545
O48 Si2 1.608873 1_555
O48 Zn2 2.185287 1_555
O49 Si1 1.610805 1_555
O49 Zn2 2.170424 1_555
O50 P2 1.518110 1_655
O50 Zn2 2.320407 1_555
O51 P0 1.524991 1_555
O51 Zn3 2.413610 1_555
O52 P1 1.526673 1_655
O52 Zn3 2.398682 1_555
O53 Si0 1.617428 1_555
O53 Zn3 2.249097 1_555
O54 Si9 1.651737 1_555
O54 Ta2 2.058165 1_555
O55 Si10 1.656297 1_655
O55 Ta2 2.042933 1_555
O56 Si11 1.659413 1_545
O56 Ta2 2.064186 1_555
O57 Si12 1.654000 1_545
O57 Ta3 2.067447 1_555
O58 Si13 1.658322 1_555
O58 Ta3 2.053968 1_555
O59 Si14 1.650822 1_655
O59 Ta3 2.048364 1_555
O60 Si8 1.630324 1_555
O60 Ta4 1.978135 1_555
O61 Si6 1.651122 1_455
O61 Ta4 2.031687 1_555
O62 Si7 1.647243 1_565
O62 Ta4 2.009230 1_555
O63 Si4 1.644407 1_565
O63 Ta5 1.983633 1_555
O64 Si5 1.668594 1_555
O64 Ta5 2.022921 1_555
O65 Si3 1.649784 1_455
O65 Ta5 2.002060 1_555
O66 Si0 1.712357 1_565
O66 Ta6 1.997477 1_555
O67 P0 1.601737 1_555
O67 Ta6 2.096959 1_555
O68 P1 1.603669 1_555
O68 Ta6 2.108472 1_555
O69 Si1 1.693513 1_555
O69 Ta7 2.033660 1_555
O70 P2 1.589734 1_555
O70 Ta7 2.153139 1_555
O71 Si2 1.692536 1_565
O71 Ta7 2.020688 1_555
