# generated using pymatgen
data_Fe3S4
_symmetry_space_group_name_H-M   'P 1'
_cell_length_a   6.70552896
_cell_length_b   6.70552896
_cell_length_c   6.70552896
_cell_angle_alpha   60.00000000
_cell_angle_beta   60.00000000
_cell_angle_gamma   60.00000000
_symmetry_Int_Tables_number   1
_chemical_formula_structural   Fe3S4
_chemical_formula_sum   'Fe6 S8'
_cell_volume   213.19849269
_cell_formula_units_Z   2
loop_
 _symmetry_equiv_pos_site_id
 _symmetry_equiv_pos_as_xyz
  1  'x, y, z'
loop_
 _atom_site_type_symbol
 _atom_site_label
 _atom_site_symmetry_multiplicity
 _atom_site_fract_x
 _atom_site_fract_y
 _atom_site_fract_z
 _atom_site_occupancy
  Fe  Fe0  1  0.12500000  0.12500000  0.62500000  1
  Fe  Fe1  1  0.12500000  0.62500000  0.12500000  1
  Fe  Fe2  1  0.62500000  0.12500000  0.12500000  1
  Fe  Fe3  1  0.12500000  0.12500000  0.12500000  1
  Fe  Fe4  1  0.50000000  0.50000000  0.50000000  1
  Fe  Fe5  1  0.75000000  0.75000000  0.75000000  1
  S  S0  1  0.36993500  0.36993500  0.36993500  1
  S  S1  1  0.35980500  0.88006500  0.88006500  1
  S  S2  1  0.88006500  0.88006500  0.35980500  1
  S  S3  1  0.88006500  0.35980500  0.88006500  1
  S  S4  1  0.36993500  0.36993500  0.89019500  1
  S  S5  1  0.36993500  0.89019500  0.36993500  1
  S  S6  1  0.88006500  0.88006500  0.88006500  1
  S  S7  1  0.89019500  0.36993500  0.36993500  1
loop_
_geom_bond_atom_site_label_1
_geom_bond_atom_site_label_2
_geom_bond_distance
_geom_bond_site_symmetry_2
Fe0 S1 2.323724 1_545
Fe0 S6 2.323724 1_445
Fe0 S0 2.323724 1_555
Fe0 S7 2.323724 1_455
Fe0 S5 2.323724 1_545
Fe0 S3 2.323724 1_455
Fe1 S2 2.323724 1_455
Fe1 S1 2.323724 1_554
Fe1 S6 2.323724 1_454
Fe1 S0 2.323724 1_555
Fe1 S7 2.323724 1_455
Fe1 S4 2.323724 1_554
Fe2 S3 2.323724 1_554
Fe2 S2 2.323724 1_545
Fe2 S4 2.323724 1_554
Fe2 S5 2.323724 1_545
Fe2 S0 2.323724 1_555
Fe2 S6 2.323724 1_544
Fe3 S4 2.323724 1_554
Fe3 S2 2.323724 1_445
Fe3 S5 2.323724 1_545
Fe3 S3 2.323724 1_454
Fe3 S7 2.323724 1_455
Fe3 S1 2.323724 1_544
Fe4 S7 2.136334 1_555
Fe4 S5 2.136334 1_555
Fe4 S4 2.136334 1_555
Fe4 S0 2.136334 1_555
Fe5 S6 2.136334 1_555
Fe5 S2 2.136334 1_555
Fe5 S3 2.136334 1_555
Fe5 S1 2.136334 1_555
