# generated using pymatgen
data_YMgMo3O8
_symmetry_space_group_name_H-M   'P 1'
_cell_length_a   6.09389420
_cell_length_b   6.40865155
_cell_length_c   5.14041664
_cell_angle_alpha   90.01297621
_cell_angle_beta   88.15702764
_cell_angle_gamma   121.70683886
_symmetry_Int_Tables_number   1
_chemical_formula_structural   YMgMo3O8
_chemical_formula_sum   'Y1 Mg1 Mo3 O8'
_cell_volume   170.66826589
_cell_formula_units_Z   1
loop_
 _symmetry_equiv_pos_site_id
 _symmetry_equiv_pos_as_xyz
  1  'x, y, z'
loop_
 _atom_site_type_symbol
 _atom_site_label
 _atom_site_symmetry_multiplicity
 _atom_site_fract_x
 _atom_site_fract_y
 _atom_site_fract_z
 _atom_site_occupancy
  Y  Y0  1  0.33366300  0.66690800  0.75302100  1
  Mg  Mg0  1  0.33309700  0.16662500  0.75296000  1
  Mo  Mo0  1  0.83352400  0.66681000  0.25298400  1
  Mo  Mo1  1  0.83352500  0.16687700  0.25297700  1
  Mo  Mo2  1  0.33352800  0.16684300  0.25294800  1
  O  O0  1  0.50394200  0.02502600  0.50532800  1
  O  O1  1  0.67784500  0.33927100  0.02639400  1
  O  O2  1  0.66825300  0.83433600  0.06760200  1
  O  O3  1  0.16309600  0.85485200  0.00072800  1
  O  O4  1  0.99874600  0.49932600  0.43852600  1
  O  O5  1  0.98929400  0.99447400  0.47962600  1
  O  O6  1  0.16300700  0.30863400  0.00069800  1
  O  O7  1  0.50389300  0.47876600  0.50531800  1
loop_
_geom_bond_atom_site_label_1
_geom_bond_atom_site_label_2
_geom_bond_distance
_geom_bond_site_symmetry_2
Mg0 O3 2.104294 1_546
Mg0 O6 2.104872 1_556
Mg0 O7 2.105419 1_555
Mg0 O0 2.105961 1_555
Mg0 O5 2.310794 1_445
Mg0 O1 2.315014 1_556
Mo0 O4 2.067286 1_555
Mo0 O2 2.067334 1_555
Mo0 O3 2.111017 1_655
Mo0 O7 2.111479 1_555
Mo0 O1 2.153969 1_555
Mo0 O5 2.154682 1_555
Mo1 O4 2.066086 1_555
Mo1 O2 2.066104 1_545
Mo1 O6 2.110484 1_655
Mo1 O0 2.111092 1_555
Mo1 O1 2.156533 1_555
Mo1 O5 2.157158 1_545
Mo2 O5 2.094286 1_445
Mo2 O1 2.094309 1_555
Mo2 O3 2.158707 1_545
Mo2 O7 2.158883 1_555
Mo2 O6 2.160237 1_555
Mo2 O0 2.160290 1_555
O0 Y0 2.319098 1_545
O2 Y0 2.415616 1_554
O3 Y0 2.320047 1_554
O4 Y0 2.416569 1_655
O6 Y0 2.319602 1_554
O7 Y0 2.319550 1_555
