# generated using pymatgen
data_Na3HfZrSi2PO12
_symmetry_space_group_name_H-M   'P 1'
_cell_length_a   9.16555228
_cell_length_b   9.16576331
_cell_length_c   22.50693104
_cell_angle_alpha   89.77014791
_cell_angle_beta   90.22354458
_cell_angle_gamma   119.84330073
_symmetry_Int_Tables_number   1
_chemical_formula_structural   Na3HfZrSi2PO12
_chemical_formula_sum   'Na18 Hf6 Zr6 Si12 P6 O72'
_cell_volume   1640.03545571
_cell_formula_units_Z   6
loop_
 _symmetry_equiv_pos_site_id
 _symmetry_equiv_pos_as_xyz
  1  'x, y, z'
loop_
 _atom_site_type_symbol
 _atom_site_label
 _atom_site_symmetry_multiplicity
 _atom_site_fract_x
 _atom_site_fract_y
 _atom_site_fract_z
 _atom_site_occupancy
  Na  Na0  1  0.99758913  0.98392119  0.50129155  1
  Na  Na1  1  0.01708104  0.00296162  0.00117715  1
  Na  Na2  1  0.66431455  0.31569735  0.83505237  1
  Na  Na3  1  0.68148411  0.33593471  0.33348914  1
  Na  Na4  1  0.33054588  0.64946501  0.16742544  1
  Na  Na5  1  0.35111041  0.66906783  0.66860258  1
  Na  Na6  1  0.64301974  0.00087082  0.25102403  1
  Na  Na7  1  0.99482536  0.63312588  0.25413132  1
  Na  Na8  1  0.99888009  0.35852492  0.75236562  1
  Na  Na9  1  0.36915110  0.00407099  0.75557901  1
  Na  Na10  1  0.30635164  0.33423668  0.58482568  1
  Na  Na11  1  0.66239914  0.96490616  0.58788410  1
  Na  Na12  1  0.66626326  0.69418794  0.08441531  1
  Na  Na13  1  0.03555865  0.33736771  0.08672538  1
  Na  Na14  1  0.97507640  0.66745910  0.91852455  1
  Na  Na15  1  0.32859881  0.29774141  0.92126411  1
  Na  Na16  1  0.33168408  0.02723836  0.41757720  1
  Na  Na17  1  0.70263211  0.67167892  0.42072502  1
  Hf  Hf0  1  0.99700059  0.00512351  0.85448578  1
  Hf  Hf1  1  0.66373873  0.33804684  0.18554068  1
  Hf  Hf2  1  0.66183436  0.32601527  0.97951914  1
  Hf  Hf3  1  0.32787248  0.66917538  0.01998232  1
  Hf  Hf4  1  0.32862792  0.65881764  0.31287938  1
  Hf  Hf5  1  0.34064341  0.67108785  0.81436433  1
  Zr  Zr0  1  0.99420936  0.00300126  0.35246859  1
  Zr  Zr1  1  0.99534498  0.99139485  0.64783927  1
  Zr  Zr2  1  0.00841572  0.00454373  0.14634450  1
  Zr  Zr3  1  0.66123149  0.33703098  0.68775268  1
  Zr  Zr4  1  0.67551103  0.33802682  0.47966837  1
  Zr  Zr5  1  0.32956156  0.67222413  0.52011838  1
  Si  Si0  1  0.70212044  0.70390172  0.24863902  1
  Si  Si1  1  0.00090427  0.29924428  0.24513837  1
  Si  Si2  1  0.29243314  0.29615831  0.75081989  1
  Si  Si3  1  0.70210224  0.99641000  0.74751012  1
  Si  Si4  1  0.37040102  0.03996522  0.58299362  1
  Si  Si5  1  0.66855039  0.63147018  0.57931669  1
  Si  Si6  1  0.95945307  0.62710096  0.08196500  1
  Si  Si7  1  0.37118711  0.33368259  0.07894774  1
  Si  Si8  1  0.03805697  0.37351324  0.91658441  1
  Si  Si9  1  0.33457061  0.96332358  0.91345397  1
  Si  Si10  1  0.62600347  0.96182187  0.41543428  1
  Si  Si11  1  0.03628873  0.66582496  0.41185369  1
  P  P0  1  0.29767712  0.00132172  0.25310840  1
  P  P1  1  0.00071983  0.70545103  0.75524752  1
  P  P2  1  0.96214097  0.33419168  0.58758908  1
  P  P3  1  0.66379124  0.03943309  0.08567229  1
  P  P4  1  0.62755205  0.66808405  0.92019047  1
  P  P5  1  0.33193525  0.37247095  0.41943524  1
  O  O0  1  0.22111567  0.01984961  0.31123753  1
  O  O1  1  0.82386450  0.79502249  0.30671087  1
  O  O2  1  0.98519216  0.17466265  0.30012688  1
  O  O3  1  0.19843487  0.17449925  0.80849357  1
  O  O4  1  0.98497346  0.78640992  0.81289337  1
  O  O5  1  0.82590785  0.00921902  0.80223728  1
  O  O6  1  0.78636518  0.98162272  0.68539742  1
  O  O7  1  0.17767037  0.20210339  0.69190143  1
  O  O8  1  0.01517157  0.81973664  0.70193975  1
  O  O9  1  0.79735754  0.82278230  0.19057179  1
  O  O10  1  0.01835879  0.21400414  0.18377992  1
  O  O11  1  0.17940327  0.98359228  0.20050857  1
  O  O12  1  0.88308159  0.34895985  0.64582211  1
  O  O13  1  0.48912414  0.13299007  0.64141353  1
  O  O14  1  0.65886441  0.51068995  0.63479330  1
  O  O15  1  0.86736999  0.50725716  0.14020704  1
  O  O16  1  0.64836590  0.11889268  0.14365433  1
  O  O17  1  0.49238170  0.34531292  0.13430999  1
  O  O18  1  0.45785430  0.31867299  0.01769163  1
  O  O19  1  0.84257091  0.53158002  0.02375851  1
  O  O20  1  0.67701818  0.15490555  0.03297784  1
  O  O21  1  0.46690071  0.15457466  0.52427996  1
  O  O22  1  0.68240839  0.54548990  0.51754050  1
  O  O23  1  0.84763150  0.32236050  0.53452454  1
  O  O24  1  0.54839421  0.68528613  0.97815967  1
  O  O25  1  0.15933012  0.46503935  0.97469398  1
  O  O26  1  0.31976355  0.83964831  0.96854352  1
  O  O27  1  0.53543950  0.84531272  0.47447388  1
  O  O28  1  0.31711528  0.45031437  0.47783453  1
  O  O29  1  0.15574543  0.67624855  0.46775452  1
  O  O30  1  0.12503711  0.65321992  0.35071684  1
  O  O31  1  0.50991915  0.86268984  0.35747946  1
  O  O32  1  0.34206540  0.48738222  0.36676349  1
  O  O33  1  0.13394534  0.49160737  0.85862540  1
  O  O34  1  0.35057453  0.87683754  0.85228696  1
  O  O35  1  0.51127724  0.65278584  0.86753163  1
  O  O36  1  0.02743007  0.84094541  0.41413289  1
  O  O37  1  0.81128996  0.97636706  0.41241419  1
  O  O38  1  0.18164393  0.19223856  0.41337239  1
  O  O39  1  0.02302047  0.18790074  0.91268096  1
  O  O40  1  0.15945081  0.97344851  0.91448478  1
  O  O41  1  0.80740976  0.81937514  0.91357172  1
  O  O42  1  0.97258504  0.16975912  0.58542099  1
  O  O43  1  0.18793003  0.03014716  0.58644029  1
  O  O44  1  0.82872739  0.82240081  0.58343493  1
  O  O45  1  0.97051598  0.81049250  0.08615322  1
  O  O46  1  0.82721214  0.02665054  0.08440910  1
  O  O47  1  0.17964678  0.17322915  0.08303086  1
  O  O48  1  0.69337590  0.17197158  0.74903288  1
  O  O49  1  0.47743656  0.30991328  0.74783979  1
  O  O50  1  0.84955349  0.52585748  0.74940228  1
  O  O51  1  0.68839331  0.51934694  0.24434938  1
  O  O52  1  0.82552331  0.30773092  0.24618902  1
  O  O53  1  0.47678308  0.15265592  0.24538765  1
  O  O54  1  0.64097688  0.50491386  0.91937096  1
  O  O55  1  0.85443033  0.36156113  0.92100802  1
  O  O56  1  0.49480487  0.15473646  0.91796289  1
  O  O57  1  0.63634319  0.14475591  0.41840092  1
  O  O58  1  0.49656520  0.36203371  0.41706142  1
  O  O59  1  0.84520343  0.50537508  0.41559796  1
  O  O60  1  0.36217084  0.50932208  0.08044433  1
  O  O61  1  0.14507849  0.64175381  0.07855743  1
  O  O62  1  0.51210474  0.85932908  0.07944076  1
  O  O63  1  0.35668952  0.85517630  0.58060771  1
  O  O64  1  0.49269246  0.63871203  0.58174478  1
  O  O65  1  0.14173423  0.48465657  0.58179944  1
  O  O66  1  0.31135880  0.83838110  0.25226339  1
  O  O67  1  0.51911765  0.69265963  0.25351087  1
  O  O68  1  0.16125725  0.48984119  0.25050544  1
  O  O69  1  0.30408362  0.47941948  0.75527171  1
  O  O70  1  0.16416485  0.69277420  0.75406729  1
  O  O71  1  0.51085675  0.83629054  0.75205902  1
loop_
_geom_bond_atom_site_label_1
_geom_bond_atom_site_label_2
_geom_bond_distance
_geom_bond_site_symmetry_2
Na0 O44 2.392722 1_555
Na0 O36 2.453951 1_655
Na0 O43 2.478016 1_665
Na0 O37 2.603591 1_555
Na0 O42 2.637616 1_565
Na0 O38 2.682752 1_665
Na1 O47 2.395201 1_555
Na1 O40 2.440994 1_544
Na1 O45 2.486382 1_445
Na1 O39 2.593347 1_554
Na1 O46 2.643791 1_455
Na1 O41 2.681603 1_444
Na2 O56 2.406629 1_555
Na2 O48 2.434816 1_555
Na2 O55 2.491371 1_555
Na2 O49 2.583366 1_555
Na2 O50 2.655187 1_555
Na2 O54 2.655909 1_555
Na3 O59 2.400173 1_555
Na3 O52 2.456502 1_555
Na3 O57 2.480281 1_555
Na3 O51 2.592917 1_555
Na3 O58 2.626758 1_555
Na3 O53 2.671114 1_555
Na4 O68 2.405383 1_555
Na4 O60 2.441654 1_555
Na4 O67 2.489369 1_555
Na4 O61 2.598134 1_555
Na4 O66 2.647152 1_555
Na4 O62 2.683297 1_555
Na5 O71 2.406102 1_555
Na5 O64 2.442648 1_555
Na5 O69 2.499220 1_555
Na5 O63 2.592621 1_555
Na5 O70 2.661356 1_555
Na5 O65 2.669364 1_555
Na6 O52 2.457066 1_555
Na6 O67 2.465695 1_545
Na6 O53 2.525843 1_555
Na6 O16 2.634307 1_555
Na6 O66 2.637053 1_545
Na6 O31 2.700703 1_545
Na6 O2 2.934204 1_555
Na6 O9 2.974508 1_545
Na7 O30 2.438867 1_655
Na7 O68 2.460515 1_655
Na7 O51 2.471086 1_555
Na7 O66 2.554646 1_655
Na7 O52 2.594440 1_555
Na7 O15 2.815889 1_555
Na7 O1 2.898362 1_555
Na8 O69 2.443661 1_655
Na8 O48 2.450347 1_555
Na8 O50 2.513500 1_555
Na8 O12 2.602620 1_555
Na8 O70 2.657763 1_655
Na8 O33 2.690261 1_655
Na9 O34 2.431354 1_545
Na9 O71 2.459226 1_545
Na9 O49 2.470250 1_555
Na9 O70 2.517377 1_545
Na9 O48 2.582838 1_555
Na9 O13 2.812887 1_555
Na10 O43 2.436507 1_555
Na10 O64 2.442472 1_555
Na10 O65 2.500159 1_555
Na10 O28 2.610978 1_555
Na10 O42 2.653584 1_455
Na10 O7 2.691244 1_555
Na11 O6 2.437470 1_555
Na11 O44 2.454429 1_555
Na11 O63 2.466278 1_555
Na11 O42 2.509764 1_565
Na11 O64 2.598211 1_555
Na11 O27 2.792986 1_555
Na12 O60 2.438528 1_555
Na12 O45 2.440347 1_555
Na12 O62 2.534965 1_555
Na12 O24 2.605125 1_554
Na12 O46 2.643495 1_565
Na12 O9 2.670619 1_555
Na13 O10 2.424963 1_555
Na13 O47 2.448204 1_555
Na13 O61 2.456662 1_555
Na13 O46 2.519506 1_455
Na13 O60 2.602172 1_555
Na13 O25 2.773377 1_554
Na13 O15 2.944250 1_455
Na14 O55 2.449622 1_555
Na14 O40 2.451946 1_655
Na14 O41 2.537715 1_555
Na14 O4 2.594528 1_555
Na14 O54 2.656455 1_555
Na14 O19 2.670062 1_556
Na14 O26 2.960261 1_655
Na14 O33 2.984018 1_655
Na15 O18 2.430541 1_556
Na15 O56 2.456257 1_555
Na15 O39 2.467043 1_555
Na15 O54 2.528710 1_555
Na15 O40 2.584061 1_545
Na15 O3 2.792755 1_555
Na15 O25 2.932833 1_555
Na16 O36 2.441003 1_545
Na16 O57 2.442160 1_555
Na16 O38 2.501022 1_555
Na16 O0 2.583397 1_555
Na16 O58 2.661764 1_555
Na16 O21 2.687984 1_555
Na17 O22 2.426892 1_555
Na17 O59 2.455486 1_555
Na17 O37 2.460725 1_555
Na17 O58 2.508924 1_555
Na17 O36 2.587694 1_655
Na17 O1 2.801148 1_555
Na17 O27 2.966767 1_555
Hf0 O5 1.971609 1_555
Hf0 O3 2.009896 1_655
Hf0 O39 2.048554 1_655
Hf0 O40 2.129837 1_645
Hf0 O4 2.168297 1_545
Hf0 O41 2.177636 1_545
Hf1 O17 1.972317 1_555
Hf1 O15 2.012739 1_555
Hf1 O51 2.050853 1_555
Hf1 O52 2.128505 1_555
Hf1 O16 2.162407 1_555
Hf1 O53 2.177094 1_555
Hf2 O18 2.030979 1_556
Hf2 O20 2.031636 1_556
Hf2 O19 2.044845 1_556
Hf2 O56 2.082463 1_555
Hf2 O55 2.097329 1_555
Hf2 O54 2.202293 1_555
Hf3 O26 1.971727 1_554
Hf3 O25 2.013092 1_554
Hf3 O61 2.050287 1_555
Hf3 O60 2.129898 1_555
Hf3 O24 2.170206 1_554
Hf3 O62 2.179882 1_555
Hf4 O30 2.031420 1_555
Hf4 O32 2.032541 1_555
Hf4 O31 2.042608 1_555
Hf4 O68 2.087781 1_555
Hf4 O67 2.099012 1_555
Hf4 O66 2.198786 1_555
Hf5 O34 2.033394 1_555
Hf5 O35 2.037380 1_555
Hf5 O33 2.046348 1_555
Hf5 O71 2.083772 1_555
Hf5 O69 2.096866 1_555
Hf5 O70 2.190506 1_555
O0 P0 1.536386 1_555
O0 Zr0 2.214613 1_455
O1 Si0 1.649489 1_555
O1 Zr0 2.042851 1_565
O2 Si1 1.637907 1_655
O2 Zr0 1.996005 1_555
O3 Si2 1.646699 1_555
O4 P1 1.539665 1_655
O5 Si3 1.635934 1_545
O6 Si3 1.638072 1_555
O6 Zr1 2.057348 1_555
O7 Si2 1.644345 1_555
O7 Zr1 2.072761 1_445
O8 P1 1.551580 1_555
O8 Zr1 2.063648 1_455
O9 Si0 1.645638 1_555
O9 Zr2 2.074302 1_665
O10 Si1 1.636436 1_555
O10 Zr2 2.059692 1_555
O11 P0 1.555407 1_565
O11 Zr2 2.064424 1_565
O12 P2 1.538717 1_555
O12 Zr3 2.197745 1_555
O13 Si4 1.647529 1_555
O13 Zr3 2.034794 1_555
O14 Si5 1.638416 1_555
O14 Zr3 1.993422 1_555
O15 Si6 1.646708 1_555
O16 P3 1.537851 1_555
O17 Si7 1.634102 1_555
O18 Si7 1.633871 1_555
O19 Si6 1.641703 1_555
O20 P3 1.550746 1_555
O21 Si4 1.644791 1_555
O21 Zr4 2.071961 1_555
O22 Si5 1.637125 1_555
O22 Zr4 2.058985 1_555
O23 P2 1.554890 1_555
O23 Zr4 2.059747 1_555
O24 P4 1.541558 1_555
O25 Si8 1.649000 1_555
O26 Si9 1.636363 1_555
O27 Si10 1.646245 1_555
O27 Zr5 2.038530 1_555
O28 P5 1.536397 1_555
O28 Zr5 2.199888 1_555
O29 Si11 1.636144 1_555
O29 Zr5 1.992953 1_555
O30 Si11 1.634607 1_555
O31 Si10 1.641819 1_555
O32 P5 1.554615 1_555
O33 Si8 1.642113 1_555
O34 Si9 1.634386 1_555
O35 P4 1.550113 1_555
O36 Si11 1.648033 1_555
O36 Zr0 2.157663 1_465
O37 Si10 1.637666 1_555
O37 Zr0 2.073263 1_565
O38 P5 1.542942 1_555
O38 Zr0 2.207681 1_455
O39 Si8 1.639761 1_555
O40 Si9 1.653468 1_555
O41 P4 1.545248 1_555
O42 P2 1.557967 1_555
O42 Zr1 2.237975 1_545
O43 Si4 1.631675 1_555
O43 Zr1 2.131353 1_445
O44 Si5 1.633927 1_555
O44 Zr1 2.116386 1_555
O45 Si6 1.635920 1_555
O45 Zr2 2.126075 1_665
O46 P3 1.559835 1_555
O46 Zr2 2.248819 1_655
O47 Si7 1.638264 1_555
O47 Zr2 2.113994 1_555
O48 Si3 1.650912 1_545
O48 Zr3 2.168325 1_555
O49 Si2 1.638202 1_555
O49 Zr3 2.080114 1_555
O50 P1 1.541774 1_655
O50 Zr3 2.219780 1_555
O51 Si0 1.635851 1_555
O52 Si1 1.647819 1_655
O53 P0 1.543735 1_555
O54 P4 1.560650 1_555
O55 Si8 1.634703 1_655
O56 Si9 1.637409 1_545
O57 Si10 1.633268 1_545
O57 Zr4 2.133374 1_555
O58 P5 1.559871 1_555
O58 Zr4 2.250038 1_555
O59 Si11 1.635233 1_655
O59 Zr4 2.115808 1_555
O60 Si7 1.653030 1_555
O61 Si6 1.640751 1_455
O62 P3 1.547200 1_565
O63 Si4 1.635920 1_565
O63 Zr5 2.080384 1_555
O64 Si5 1.646998 1_555
O64 Zr5 2.165928 1_555
O65 P2 1.539277 1_455
O65 Zr5 2.213696 1_555
O66 P0 1.559870 1_565
O67 Si0 1.632598 1_555
O68 Si1 1.634470 1_555
O69 Si2 1.632691 1_555
O70 P1 1.559479 1_555
O71 Si3 1.636088 1_555
