# generated using pymatgen
data_Na2YZnP(SO6)2
_symmetry_space_group_name_H-M   'P 1'
_cell_length_a   9.13410912
_cell_length_b   9.10425276
_cell_length_c   23.34406402
_cell_angle_alpha   89.32848658
_cell_angle_beta   90.00000000
_cell_angle_gamma   120.10854065
_symmetry_Int_Tables_number   1
_chemical_formula_structural   Na2YZnP(SO6)2
_chemical_formula_sum   'Na12 Y6 Zn6 P6 S12 O72'
_cell_volume   1679.19719633
_cell_formula_units_Z   6
loop_
 _symmetry_equiv_pos_site_id
 _symmetry_equiv_pos_as_xyz
  1  'x, y, z'
loop_
 _atom_site_type_symbol
 _atom_site_label
 _atom_site_symmetry_multiplicity
 _atom_site_fract_x
 _atom_site_fract_y
 _atom_site_fract_z
 _atom_site_occupancy
  Na  Na0  1  0.00124117  0.63922467  0.24172409  1
  Na  Na1  1  0.63798350  0.63922467  0.74172409  1
  Na  Na2  1  0.65823516  0.95750578  0.57887761  1
  Na  Na3  1  0.29927162  0.95750578  0.07887761  1
  Na  Na4  1  0.69201214  0.02700877  0.90918143  1
  Na  Na5  1  0.33499563  0.02700877  0.40918143  1
  Na  Na6  1  0.97950388  0.98715001  0.49189031  1
  Na  Na7  1  0.00764613  0.98715001  0.99189031  1
  Na  Na8  1  0.65686047  0.31282819  0.82520839  1
  Na  Na9  1  0.65596872  0.31282819  0.32520839  1
  Na  Na10  1  0.33496368  0.65665877  0.15906599  1
  Na  Na11  1  0.32169409  0.65665877  0.65906599  1
  Y  Y0  1  0.00266220  0.00054106  0.64892312  1
  Y  Y1  1  0.99787886  0.00054106  0.14892312  1
  Y  Y2  1  0.67174980  0.34666625  0.98250632  1
  Y  Y3  1  0.67491745  0.34666625  0.48250632  1
  Y  Y4  1  0.34605412  0.67704846  0.31563070  1
  Y  Y5  1  0.33099334  0.67704846  0.81563070  1
  Zn  Zn0  1  0.99185010  0.00398908  0.34782985  1
  Zn  Zn1  1  0.01213898  0.00398908  0.84782985  1
  Zn  Zn2  1  0.66729213  0.32678464  0.68105883  1
  Zn  Zn3  1  0.65949351  0.32678464  0.18105883  1
  Zn  Zn4  1  0.30003756  0.66065592  0.01385164  1
  Zn  Zn5  1  0.36061736  0.66065592  0.51385164  1
  P  P0  1  0.30139979  0.01217948  0.25177926  1
  P  P1  1  0.71077969  0.01217948  0.75177926  1
  P  P2  1  0.65742058  0.62557133  0.58801099  1
  P  P3  1  0.96815175  0.62557133  0.08801099  1
  P  P4  1  0.32459948  0.96495186  0.91968301  1
  P  P5  1  0.64035138  0.96495186  0.41968301  1
  S  S0  1  0.70809570  0.69808357  0.25181356  1
  S  S1  1  0.99242981  0.29544555  0.25155636  1
  S  S2  1  0.30301575  0.29544555  0.75155636  1
  S  S3  1  0.98998787  0.69808357  0.75181356  1
  S  S4  1  0.96950569  0.34490126  0.58456381  1
  S  S5  1  0.37470547  0.03349273  0.58306949  1
  S  S6  1  0.65878826  0.03349273  0.08306949  1
  S  S7  1  0.37539656  0.34490126  0.08456381  1
  S  S8  1  0.62917994  0.67507399  0.91663920  1
  S  S9  1  0.03934070  0.36232945  0.91828377  1
  S  S10  1  0.32298775  0.36232945  0.41828377  1
  S  S11  1  0.04589304  0.67507399  0.41663920  1
  O  O0  1  0.21502483  0.02775054  0.30709371  1
  O  O1  1  0.81145129  0.78429150  0.30236169  1
  O  O2  1  0.97506612  0.19387091  0.30325222  1
  O  O3  1  0.21880479  0.19387091  0.80325222  1
  O  O4  1  0.97284020  0.78429150  0.80236169  1
  O  O5  1  0.81272571  0.02775054  0.80709371  1
  O  O6  1  0.79483029  0.98334346  0.69811756  1
  O  O7  1  0.20441407  0.21719013  0.69922856  1
  O  O8  1  0.01801309  0.80161640  0.69895425  1
  O  O9  1  0.78360330  0.80161640  0.19895425  1
  O  O10  1  0.01277605  0.21719013  0.19922856  1
  O  O11  1  0.18851317  0.98334346  0.19811756  1
  O  O12  1  0.88705138  0.36179307  0.63629256  1
  O  O13  1  0.48380498  0.12051054  0.63251844  1
  O  O14  1  0.64392415  0.52655317  0.64406848  1
  O  O15  1  0.88263002  0.52655317  0.14406848  1
  O  O16  1  0.63670656  0.12051054  0.13251844  1
  O  O17  1  0.47474269  0.36179307  0.13629256  1
  O  O18  1  0.45256762  0.31231942  0.03329669  1
  O  O19  1  0.86117780  0.54004125  0.03486028  1
  O  O20  1  0.68046315  0.13081675  0.02876216  1
  O  O21  1  0.45035460  0.13081675  0.52876216  1
  O  O22  1  0.67886445  0.54004125  0.53486028  1
  O  O23  1  0.85975280  0.31231942  0.53329669  1
  O  O24  1  0.53775278  0.68951267  0.96631487  1
  O  O25  1  0.13896252  0.44450002  0.96973419  1
  O  O26  1  0.30378712  0.86459952  0.97665775  1
  O  O27  1  0.56081140  0.86459952  0.47665775  1
  O  O28  1  0.30553649  0.44450002  0.46973419  1
  O  O29  1  0.15175889  0.68951267  0.46631487  1
  O  O30  1  0.11840038  0.65206000  0.36242808  1
  O  O31  1  0.51881176  0.87585036  0.36888166  1
  O  O32  1  0.34452348  0.46352159  0.36586012  1
  O  O33  1  0.11899710  0.46352159  0.86586012  1
  O  O34  1  0.35703760  0.87585036  0.86888166  1
  O  O35  1  0.53365862  0.65206000  0.86242808  1
  O  O36  1  0.03622399  0.83398320  0.41266141  1
  O  O37  1  0.81620415  0.98328035  0.41061782  1
  O  O38  1  0.17405572  0.18811428  0.41452671  1
  O  O39  1  0.01405856  0.18811428  0.91452671  1
  O  O40  1  0.16707619  0.98328035  0.91061782  1
  O  O41  1  0.79775922  0.83398320  0.91266141  1
  O  O42  1  0.98167753  0.18550784  0.58855475  1
  O  O43  1  0.20451412  0.01660580  0.58809625  1
  O  O44  1  0.81480960  0.81185456  0.58874394  1
  O  O45  1  0.99704496  0.81185456  0.08874394  1
  O  O46  1  0.81209168  0.01660580  0.08809625  1
  O  O47  1  0.20383031  0.18550784  0.08855475  1
  O  O48  1  0.68666769  0.16759571  0.74396216  1
  O  O49  1  0.47640354  0.31895680  0.74736151  1
  O  O50  1  0.83147608  0.53160939  0.74720824  1
  O  O51  1  0.70013431  0.53160939  0.24720824  1
  O  O52  1  0.84255427  0.31895680  0.24736151  1
  O  O53  1  0.48092902  0.16759571  0.24396216  1
  O  O54  1  0.65402046  0.52560188  0.92048204  1
  O  O55  1  0.86473012  0.34190152  0.92148800  1
  O  O56  1  0.49388356  0.14058798  0.92235827  1
  O  O57  1  0.64670542  0.14058798  0.42235827  1
  O  O58  1  0.47717240  0.34190152  0.42148800  1
  O  O59  1  0.87158242  0.52560188  0.42048204  1
  O  O60  1  0.35703375  0.49507133  0.07676829  1
  O  O61  1  0.14985759  0.64831799  0.08271236  1
  O  O62  1  0.50430709  0.86288558  0.07966603  1
  O  O63  1  0.35857749  0.86288558  0.57966603  1
  O  O64  1  0.49845940  0.64831799  0.58271236  1
  O  O65  1  0.13803658  0.49507133  0.57676829  1
  O  O66  1  0.30736242  0.84170994  0.25499786  1
  O  O67  1  0.53388414  0.67232103  0.25526056  1
  O  O68  1  0.14663213  0.47056275  0.25470281  1
  O  O69  1  0.32392962  0.47056275  0.75470281  1
  O  O70  1  0.13843589  0.67232103  0.75526056  1
  O  O71  1  0.53434652  0.84170994  0.75499786  1
loop_
_geom_bond_atom_site_label_1
_geom_bond_atom_site_label_2
_geom_bond_distance
_geom_bond_site_symmetry_2
Na0 O51 2.415420 1_455
Na0 O66 2.480868 1_555
Na0 O68 2.499663 1_555
Na0 O15 2.522454 1_455
Na0 O52 2.524074 1_455
Na1 O50 2.415429 1_555
Na1 O71 2.480875 1_555
Na1 O69 2.499671 1_555
Na1 O14 2.522456 1_555
Na1 O49 2.524074 1_555
Na2 O44 2.398406 1_555
Na2 O63 2.422437 1_555
Na2 O64 2.436017 1_555
Na2 O27 2.548246 1_555
Na2 O42 2.635606 1_565
Na3 O45 2.398414 1_455
Na3 O62 2.422420 1_555
Na3 O61 2.436017 1_555
Na3 O26 2.548243 1_554
Na3 O47 2.635613 1_565
Na4 O41 2.393224 1_545
Na4 O55 2.504391 1_555
Na4 O56 2.514747 1_555
Na4 O39 2.548630 1_655
Na4 O5 2.624370 1_555
Na4 O34 2.818949 1_545
Na4 O24 2.960686 1_545
Na4 O20 2.976352 1_556
Na5 O36 2.393217 1_545
Na5 O58 2.504390 1_555
Na5 O57 2.514763 1_555
Na5 O38 2.548622 1_555
Na5 O0 2.624366 1_555
Na5 O31 2.818949 1_545
Na5 O29 2.960686 1_545
Na5 O21 2.976355 1_555
Na6 O37 2.403005 1_555
Na6 O36 2.533571 1_655
Na6 O38 2.535266 1_665
Na6 O44 2.725562 1_555
Na6 O42 2.900550 1_565
Na6 O43 2.966643 1_665
Na7 O40 2.403005 1_555
Na7 O41 2.533571 1_455
Na7 O39 2.535266 1_565
Na7 O45 2.725562 1_456
Na7 O47 2.900550 1_566
Na7 O46 2.966643 1_466
Na8 O48 2.416514 1_555
Na8 O49 2.472324 1_555
Na8 O50 2.560165 1_555
Na8 O56 2.718994 1_555
Na8 O55 2.869909 1_555
Na8 O54 2.975082 1_555
Na9 O53 2.416514 1_555
Na9 O52 2.472324 1_555
Na9 O51 2.560165 1_555
Na9 O57 2.718994 1_555
Na9 O58 2.869909 1_555
Na9 O59 2.975082 1_555
Na10 O61 2.432247 1_555
Na10 O60 2.501904 1_555
Na10 O62 2.521508 1_555
Na10 O68 2.793079 1_555
Na10 O67 2.848130 1_555
Na10 O66 2.903725 1_555
Na11 O64 2.432247 1_555
Na11 O65 2.501904 1_555
Na11 O63 2.521508 1_555
Na11 O69 2.793079 1_555
Na11 O70 2.848130 1_555
Na11 O71 2.903725 1_555
O0 P0 1.557696 1_555
O0 Zn0 2.158549 1_455
O1 S0 1.475797 1_555
O1 Zn0 2.141401 1_565
O2 S1 1.470842 1_555
O2 Zn0 2.078134 1_555
O3 S2 1.470842 1_555
O3 Zn1 2.078134 1_555
O4 S3 1.475797 1_555
O4 Zn1 2.141401 1_665
O5 P1 1.557696 1_555
O5 Zn1 2.158549 1_655
O6 P1 1.561237 1_565
O6 Y0 2.155153 1_665
O7 S2 1.479034 1_555
O7 Y0 2.252347 1_555
O8 S3 1.485697 1_455
O8 Y0 2.206548 1_565
O9 S0 1.485697 1_555
O9 Y1 2.206548 1_565
O10 S1 1.479034 1_455
O10 Y1 2.252347 1_455
O11 P0 1.561237 1_565
O11 Y1 2.155153 1_465
O12 S4 1.472969 1_555
O12 Zn2 2.138517 1_555
O13 S5 1.477350 1_555
O13 Zn2 2.124100 1_555
O14 P2 1.549576 1_555
O14 Zn2 2.109903 1_555
O15 P3 1.549576 1_555
O15 Zn3 2.109903 1_555
O16 S6 1.477350 1_555
O16 Zn3 2.124100 1_555
O17 S7 1.472969 1_555
O17 Zn3 2.138517 1_555
O18 S7 1.495075 1_555
O18 Y2 2.207921 1_554
O19 P3 1.536183 1_555
O19 Y2 2.140373 1_554
O20 S6 1.493042 1_555
O20 Y2 2.267441 1_554
O21 S5 1.493042 1_555
O21 Y3 2.267441 1_555
O22 P2 1.536183 1_555
O22 Y3 2.140373 1_555
O23 S4 1.495075 1_555
O23 Y3 2.207921 1_555
O24 S8 1.474157 1_555
O24 Zn4 2.331507 1_556
O25 S9 1.472520 1_555
O25 Zn4 2.059301 1_556
O26 P4 1.561117 1_555
O26 Zn4 2.025090 1_556
O27 P5 1.561117 1_555
O27 Zn5 2.025090 1_555
O28 S10 1.472520 1_555
O28 Zn5 2.059301 1_555
O29 S11 1.474157 1_555
O29 Zn5 2.331507 1_555
O30 S11 1.493143 1_555
O30 Y4 2.255815 1_555
O31 P5 1.554321 1_555
O31 Y4 2.120972 1_555
O32 S10 1.475413 1_555
O32 Y4 2.252451 1_555
O33 S9 1.475413 1_555
O33 Y5 2.252452 1_555
O34 P4 1.554321 1_555
O34 Y5 2.120972 1_555
O35 S8 1.493143 1_555
O35 Y5 2.255815 1_555
O36 S11 1.494842 1_555
O36 Zn0 2.329133 1_465
O37 P5 1.543682 1_555
O37 Zn0 2.109016 1_565
O38 S10 1.487448 1_555
O38 Zn0 2.294826 1_455
O39 S9 1.487452 1_555
O39 Zn1 2.294826 1_555
O40 P4 1.543673 1_555
O40 Zn1 2.109016 1_565
O41 S8 1.494847 1_555
O41 Zn1 2.329133 1_665
O42 S4 1.511820 1_555
O42 Y0 2.264226 1_655
O43 S5 1.487889 1_555
O43 Y0 2.271914 1_555
O44 P2 1.580465 1_555
O44 Y0 2.228911 1_665
O45 P3 1.580468 1_555
O45 Y1 2.228911 1_565
O46 S6 1.487880 1_555
O46 Y1 2.271914 1_555
O47 S7 1.511825 1_555
O47 Y1 2.264226 1_455
O48 P1 1.546120 1_555
O48 Zn2 2.120257 1_555
O49 S2 1.490987 1_555
O49 Zn2 2.305116 1_555
O50 S3 1.485661 1_555
O50 Zn2 2.317914 1_555
O51 S0 1.485665 1_555
O51 Zn3 2.317914 1_555
O52 S1 1.490978 1_555
O52 Zn3 2.305116 1_555
O53 P0 1.546125 1_555
O53 Zn3 2.120257 1_555
O54 S8 1.489400 1_555
O54 Y2 2.232916 1_555
O55 S9 1.511954 1_655
O55 Y2 2.283884 1_555
O56 P4 1.572718 1_545
O56 Y2 2.265981 1_555
O57 P5 1.572709 1_545
O57 Y3 2.265981 1_555
O58 S10 1.511973 1_555
O58 Y3 2.283884 1_555
O59 S11 1.489388 1_655
O59 Y3 2.232916 1_555
O60 S7 1.467884 1_555
O60 Zn4 2.331595 1_555
O61 P3 1.570802 1_455
O61 Zn4 2.078350 1_555
O62 S6 1.487935 1_565
O62 Zn4 2.418957 1_555
O63 S5 1.487927 1_565
O63 Zn5 2.418957 1_555
O64 P2 1.570820 1_555
O64 Zn5 2.078350 1_555
O65 S4 1.467873 1_455
O65 Zn5 2.331595 1_555
O66 P0 1.580943 1_565
O66 Y4 2.203969 1_555
O67 S0 1.489538 1_555
O67 Y4 2.237617 1_555
O68 S1 1.510262 1_455
O68 Y4 2.345658 1_555
O69 S2 1.510265 1_555
O69 Y5 2.345658 1_555
O70 S3 1.489529 1_455
O70 Y5 2.237617 1_555
O71 P1 1.580947 1_565
O71 Y5 2.203969 1_555
