# generated using pymatgen
data_Na3TaZnSi(PO6)2
_symmetry_space_group_name_H-M   'P 1'
_cell_length_a   9.01147900
_cell_length_b   9.05976963
_cell_length_c   22.13303933
_cell_angle_alpha   89.63233148
_cell_angle_beta   90.00000000
_cell_angle_gamma   119.82383360
_symmetry_Int_Tables_number   1
_chemical_formula_structural   Na3TaZnSi(PO6)2
_chemical_formula_sum   'Na18 Ta6 Zn6 Si6 P12 O72'
_cell_volume   1567.62163594
_cell_formula_units_Z   6
loop_
 _symmetry_equiv_pos_site_id
 _symmetry_equiv_pos_as_xyz
  1  'x, y, z'
loop_
 _atom_site_type_symbol
 _atom_site_label
 _atom_site_symmetry_multiplicity
 _atom_site_fract_x
 _atom_site_fract_y
 _atom_site_fract_z
 _atom_site_occupancy
  Na  Na0  1  0.99694170  0.00617592  0.48883747  1
  Na  Na1  1  0.00923422  0.00617592  0.98883747  1
  Na  Na2  1  0.67181639  0.32864718  0.82249303  1
  Na  Na3  1  0.65683179  0.32864718  0.32249303  1
  Na  Na4  1  0.34967513  0.65573060  0.15519770  1
  Na  Na5  1  0.30605447  0.65573060  0.65519770  1
  Na  Na6  1  0.65459856  0.02228635  0.24431669  1
  Na  Na7  1  0.98551239  0.62392202  0.23981407  1
  Na  Na8  1  0.63840963  0.62392202  0.73981407  1
  Na  Na9  1  0.36768779  0.02228635  0.74431669  1
  Na  Na10  1  0.31873328  0.35586648  0.58062787  1
  Na  Na11  1  0.64497914  0.95282116  0.57519136  1
  Na  Na12  1  0.30784301  0.95282116  0.07519136  1
  Na  Na13  1  0.03713420  0.35586648  0.08062787  1
  Na  Na14  1  0.97967090  0.68762353  0.91363936  1
  Na  Na15  1  0.70057433  0.01807794  0.90861685  1
  Na  Na16  1  0.31750261  0.01807794  0.40861685  1
  Na  Na17  1  0.70795163  0.68762353  0.41363936  1
  Ta  Ta0  1  0.99543759  0.99687812  0.64678064  1
  Ta  Ta1  1  0.00144053  0.99687812  0.14678064  1
  Ta  Ta2  1  0.66170537  0.33540198  0.97993973  1
  Ta  Ta3  1  0.67369761  0.33540198  0.47993973  1
  Ta  Ta4  1  0.33265401  0.66767457  0.31336981  1
  Ta  Ta5  1  0.33501956  0.66767457  0.81336981  1
  Zn  Zn0  1  0.00331556  0.00943631  0.34931798  1
  Zn  Zn1  1  0.00612075  0.00943631  0.84931798  1
  Zn  Zn2  1  0.67544229  0.33129140  0.68264618  1
  Zn  Zn3  1  0.65585012  0.33129140  0.18264618  1
  Zn  Zn4  1  0.32675381  0.66936170  0.01521470  1
  Zn  Zn5  1  0.34260689  0.66936170  0.51521470  1
  Si  Si0  1  0.29672138  0.00355993  0.25504105  1
  Si  Si1  1  0.70683855  0.00355993  0.75504105  1
  Si  Si2  1  0.66935189  0.62541391  0.58724559  1
  Si  Si3  1  0.95606302  0.62541391  0.08724559  1
  Si  Si4  1  0.33135509  0.96633145  0.91883410  1
  Si  Si5  1  0.63497536  0.96633145  0.41883410  1
  P  P0  1  0.70562964  0.70840157  0.25397942  1
  P  P1  1  0.00778677  0.29496096  0.25041250  1
  P  P2  1  0.28717419  0.29496096  0.75041250  1
  P  P3  1  0.00277193  0.70840157  0.75397942  1
  P  P4  1  0.95939309  0.33113365  0.58599708  1
  P  P5  1  0.36970210  0.04163105  0.58547256  1
  P  P6  1  0.67192995  0.04163105  0.08547256  1
  P  P7  1  0.37174157  0.33113365  0.08599708  1
  P  P8  1  0.61576726  0.65786548  0.91912558  1
  P  P9  1  0.03783659  0.37521476  0.92143918  1
  P  P10  1  0.33737717  0.37521476  0.42143918  1
  P  P11  1  0.04209722  0.65786548  0.41912558  1
  O  O0  1  0.20655450  0.01097169  0.31560473  1
  O  O1  1  0.80261135  0.78526233  0.31160577  1
  O  O2  1  0.97404907  0.17912835  0.30357218  1
  O  O3  1  0.20507927  0.17912835  0.80357218  1
  O  O4  1  0.98265098  0.78526233  0.81160577  1
  O  O5  1  0.80441719  0.01097169  0.81560473  1
  O  O6  1  0.81235499  0.97740563  0.69569981  1
  O  O7  1  0.18196979  0.20797250  0.69043257  1
  O  O8  1  0.03390976  0.83776123  0.69876991  1
  O  O9  1  0.80385148  0.83776123  0.19876991  1
  O  O10  1  0.02600271  0.20797250  0.19043257  1
  O  O11  1  0.16505064  0.97740563  0.19569981  1
  O  O12  1  0.87841718  0.34549247  0.64275117  1
  O  O13  1  0.47120886  0.11824922  0.64279172  1
  O  O14  1  0.64355041  0.51277401  0.64591662  1
  O  O15  1  0.86922460  0.51277401  0.14591662  1
  O  O16  1  0.64704136  0.11824922  0.14279172  1
  O  O17  1  0.46707629  0.34549247  0.14275117  1
  O  O18  1  0.46574443  0.30319228  0.02930297  1
  O  O19  1  0.83358928  0.52515824  0.02631985  1
  O  O20  1  0.69230409  0.16342577  0.02921411  1
  O  O21  1  0.47112268  0.16342577  0.52921411  1
  O  O22  1  0.69156996  0.52515824  0.52631985  1
  O  O23  1  0.83744885  0.30319228  0.52930297  1
  O  O24  1  0.52518976  0.67930672  0.97231805  1
  O  O25  1  0.12757792  0.45175895  0.98044174  1
  O  O26  1  0.30533234  0.85795344  0.97916065  1
  O  O27  1  0.55262010  0.85795344  0.47916065  1
  O  O28  1  0.32418004  0.45175895  0.48044174  1
  O  O29  1  0.15411596  0.67930672  0.47231805  1
  O  O30  1  0.12702180  0.63634145  0.35886911  1
  O  O31  1  0.49574168  0.85668009  0.36075115  1
  O  O32  1  0.35522854  0.49668378  0.36645678  1
  O  O33  1  0.14145424  0.49668378  0.86645678  1
  O  O34  1  0.36093740  0.85668009  0.86075115  1
  O  O35  1  0.50931864  0.63634145  0.85886911  1
  O  O36  1  0.00842170  0.80660397  0.41445706  1
  O  O37  1  0.82046104  0.98763296  0.40913718  1
  O  O38  1  0.19530948  0.19267734  0.41497595  1
  O  O39  1  0.99736786  0.19267734  0.91497595  1
  O  O40  1  0.16717192  0.98763296  0.90913718  1
  O  O41  1  0.79818226  0.80660397  0.91445706  1
  O  O42  1  0.96354635  0.15583133  0.58690072  1
  O  O43  1  0.19699673  0.04678129  0.58700857  1
  O  O44  1  0.84841568  0.81851088  0.59108417  1
  O  O45  1  0.97009520  0.81851088  0.09108417  1
  O  O46  1  0.84978456  0.04678129  0.08700857  1
  O  O47  1  0.19228498  0.15583133  0.08690072  1
  O  O48  1  0.66103992  0.15198108  0.74619132  1
  O  O49  1  0.47154211  0.32997574  0.74558697  1
  O  O50  1  0.85003992  0.53312893  0.74458673  1
  O  O51  1  0.68309001  0.53312893  0.24458673  1
  O  O52  1  0.85843463  0.32997574  0.24558697  1
  O  O53  1  0.49094216  0.15198108  0.24619132  1
  O  O54  1  0.62891426  0.48980799  0.92260291  1
  O  O55  1  0.85987643  0.37634687  0.92035483  1
  O  O56  1  0.51946394  0.14852011  0.92169394  1
  O  O57  1  0.62905717  0.14852011  0.42169394  1
  O  O58  1  0.51647144  0.37634687  0.42035483  1
  O  O59  1  0.86089473  0.48980799  0.42260291  1
  O  O60  1  0.33494157  0.47573014  0.07679914  1
  O  O61  1  0.14977497  0.65830150  0.08214262  1
  O  O62  1  0.52421575  0.86268846  0.07708977  1
  O  O63  1  0.33847170  0.86268846  0.57708977  1
  O  O64  1  0.50852553  0.65830150  0.58214262  1
  O  O65  1  0.14078758  0.47573014  0.57679914  1
  O  O66  1  0.29653885  0.81368893  0.25534256  1
  O  O67  1  0.52713454  0.70322413  0.25494323  1
  O  O68  1  0.17857460  0.47204215  0.25557298  1
  O  O69  1  0.29346655  0.47204215  0.75557298  1
  O  O70  1  0.17608859  0.70322413  0.75494323  1
  O  O71  1  0.51714908  0.81368893  0.75534256  1
loop_
_geom_bond_atom_site_label_1
_geom_bond_atom_site_label_2
_geom_bond_distance
_geom_bond_site_symmetry_2
Na0 O37 2.325345 1_545
Na0 O38 2.383938 1_655
Na0 O36 2.492846 1_645
Na0 O42 2.661447 1_555
Na0 O43 2.730778 1_655
Na0 O44 2.736886 1_545
Na1 O40 2.325345 1_545
Na1 O39 2.383938 1_455
Na1 O41 2.492846 1_445
Na1 O47 2.661447 1_556
Na1 O46 2.730778 1_456
Na1 O45 2.736886 1_446
Na2 O48 2.302889 1_555
Na2 O50 2.446254 1_555
Na2 O49 2.485164 1_555
Na2 O55 2.652127 1_555
Na2 O56 2.663504 1_555
Na2 O54 2.791735 1_555
Na3 O53 2.302889 1_555
Na3 O51 2.446254 1_555
Na3 O52 2.485164 1_555
Na3 O58 2.652127 1_555
Na3 O57 2.663504 1_555
Na3 O59 2.791735 1_555
Na4 O60 2.347100 1_555
Na4 O61 2.429256 1_555
Na4 O62 2.450131 1_555
Na4 O67 2.635161 1_555
Na4 O68 2.735448 1_555
Na4 O66 2.812909 1_555
Na5 O65 2.347100 1_555
Na5 O64 2.429256 1_555
Na5 O63 2.450131 1_555
Na5 O70 2.635161 1_555
Na5 O69 2.735448 1_555
Na5 O71 2.812909 1_555
Na6 O53 2.298178 1_555
Na6 O16 2.417349 1_555
Na6 O52 2.460368 1_555
Na6 O67 2.533597 1_545
Na6 O9 2.806803 1_545
Na6 O66 2.823303 1_545
Na6 O2 2.825134 1_555
Na6 O31 2.958978 1_545
Na7 O52 2.319908 1_555
Na7 O15 2.325609 1_555
Na7 O51 2.425697 1_555
Na7 O66 2.478753 1_655
Na7 O68 2.723389 1_655
Na7 O30 2.905752 1_655
Na7 O11 2.938196 1_655
Na8 O49 2.319907 1_555
Na8 O14 2.325611 1_555
Na8 O50 2.425705 1_555
Na8 O71 2.478760 1_555
Na8 O69 2.723397 1_555
Na8 O35 2.905756 1_555
Na8 O6 2.938196 1_555
Na9 O48 2.298186 1_555
Na9 O13 2.417351 1_555
Na9 O49 2.460367 1_555
Na9 O70 2.533598 1_545
Na9 O8 2.806803 1_545
Na9 O71 2.823296 1_545
Na9 O3 2.825134 1_555
Na9 O34 2.958976 1_545
Na10 O65 2.342802 1_555
Na10 O28 2.367908 1_555
Na10 O64 2.402865 1_555
Na10 O43 2.450331 1_555
Na10 O7 2.745232 1_555
Na10 O42 2.788460 1_455
Na10 O14 2.926483 1_555
Na10 O21 2.937235 1_555
Na11 O27 2.293661 1_555
Na11 O64 2.320905 1_555
Na11 O63 2.460447 1_555
Na11 O42 2.538793 1_565
Na11 O44 2.679293 1_555
Na12 O26 2.293657 1_554
Na12 O61 2.320905 1_555
Na12 O62 2.460430 1_555
Na12 O47 2.538800 1_565
Na12 O45 2.679301 1_455
Na13 O60 2.342786 1_555
Na13 O25 2.367905 1_554
Na13 O61 2.402868 1_555
Na13 O46 2.450332 1_455
Na13 O10 2.745230 1_555
Na13 O47 2.788453 1_555
Na13 O15 2.926483 1_455
Na13 O20 2.937235 1_455
Na14 O41 2.364501 1_555
Na14 O40 2.383479 1_655
Na14 O4 2.415352 1_555
Na14 O55 2.471211 1_555
Na14 O54 2.757352 1_555
Na14 O19 2.853920 1_556
Na14 O26 2.936146 1_655
Na14 O33 2.956387 1_655
Na15 O5 2.275841 1_555
Na15 O39 2.338789 1_555
Na15 O56 2.463104 1_555
Na15 O41 2.476719 1_545
Na15 O55 2.835461 1_555
Na16 O0 2.275837 1_555
Na16 O38 2.338781 1_555
Na16 O57 2.463120 1_555
Na16 O36 2.476713 1_545
Na16 O58 2.835462 1_555
Na17 O36 2.364510 1_655
Na17 O37 2.383478 1_555
Na17 O1 2.415353 1_555
Na17 O58 2.471209 1_555
Na17 O59 2.757367 1_555
Na17 O22 2.853924 1_555
Na17 O27 2.936146 1_555
Na17 O32 2.956387 1_555
O0 Si0 1.586499 1_555
O0 Zn0 1.971251 1_555
O1 P0 1.510469 1_555
O1 Zn0 2.112049 1_665
O2 P1 1.498287 1_655
O2 Zn0 1.959981 1_655
O3 P2 1.498287 1_555
O3 Zn1 1.959981 1_555
O4 P3 1.510469 1_655
O4 Zn1 2.112049 1_665
O5 Si1 1.586499 1_555
O5 Zn1 1.971251 1_655
O6 Si1 1.706870 1_565
O6 Ta0 1.906163 1_555
O7 P2 1.597656 1_555
O7 Ta0 2.059764 1_445
O8 P3 1.612433 1_555
O8 Ta0 1.999547 1_455
O9 P0 1.612433 1_555
O9 Ta1 1.999547 1_655
O10 P1 1.597656 1_555
O10 Ta1 2.059764 1_545
O11 Si0 1.706870 1_565
O11 Ta1 1.906163 1_555
O12 P4 1.491245 1_555
O12 Zn2 1.976443 1_555
O13 P5 1.519131 1_555
O13 Zn2 2.092652 1_555
O14 Si2 1.590197 1_555
O14 Zn2 1.974761 1_555
O15 Si3 1.590197 1_555
O15 Zn3 1.974761 1_555
O16 P6 1.519131 1_555
O16 Zn3 2.092652 1_555
O17 P7 1.491244 1_555
O17 Zn3 1.976443 1_555
O18 P7 1.604243 1_555
O18 Ta2 1.969918 1_554
O19 Si3 1.697076 1_555
O19 Ta2 1.944846 1_554
O20 P6 1.607040 1_555
O20 Ta2 2.024478 1_554
O21 P5 1.607040 1_555
O21 Ta3 2.024478 1_555
O22 Si2 1.697076 1_555
O22 Ta3 1.944846 1_555
O23 P4 1.604243 1_555
O23 Ta3 1.969918 1_555
O24 P8 1.500228 1_555
O24 Zn4 1.986416 1_556
O25 P9 1.514626 1_555
O25 Zn4 2.049463 1_556
O26 Si4 1.598754 1_555
O26 Zn4 1.975834 1_556
O27 Si5 1.598754 1_555
O27 Zn5 1.975834 1_555
O28 P10 1.514626 1_555
O28 Zn5 2.049463 1_555
O29 P11 1.500228 1_555
O29 Zn5 1.986416 1_555
O30 P11 1.598164 1_555
O30 Ta4 2.000403 1_555
O31 Si5 1.729274 1_555
O31 Ta4 1.926573 1_555
O32 P10 1.588891 1_555
O32 Ta4 2.027777 1_555
O33 P9 1.588891 1_555
O33 Ta5 2.027777 1_555
O34 Si4 1.729274 1_555
O34 Ta5 1.926573 1_555
O35 P8 1.598164 1_555
O35 Ta5 2.000403 1_555
O36 P11 1.524332 1_555
O36 Zn0 2.346832 1_565
O37 Si5 1.598696 1_555
O37 Zn0 2.044515 1_665
O38 P10 1.513765 1_555
O38 Zn0 2.243937 1_555
O39 P9 1.513768 1_655
O39 Zn1 2.243937 1_655
O40 Si4 1.598688 1_555
O40 Zn1 2.044515 1_565
O41 P8 1.524338 1_555
O41 Zn1 2.346832 1_665
O42 P4 1.607138 1_555
O42 Ta0 2.073660 1_545
O43 P5 1.580427 1_555
O43 Ta0 2.104564 1_445
O44 Si2 1.692784 1_555
O44 Ta0 1.944815 1_555
O45 Si3 1.692787 1_555
O45 Ta1 1.944815 1_655
O46 P6 1.580418 1_555
O46 Ta1 2.104564 1_645
O47 P7 1.607143 1_555
O47 Ta1 2.073660 1_545
O48 Si1 1.601697 1_555
O48 Zn2 2.096409 1_555
O49 P2 1.532223 1_555
O49 Zn2 2.301083 1_555
O50 P3 1.513079 1_655
O50 Zn2 2.206625 1_555
O51 P0 1.513082 1_555
O51 Zn3 2.206625 1_555
O52 P1 1.532214 1_655
O52 Zn3 2.301083 1_555
O53 Si0 1.601703 1_555
O53 Zn3 2.096409 1_555
O54 P8 1.586214 1_555
O54 Ta2 2.010728 1_555
O55 P9 1.608988 1_655
O55 Ta2 2.097799 1_555
O56 Si4 1.679351 1_545
O56 Ta2 2.010201 1_555
O57 Si5 1.679342 1_545
O57 Ta3 2.010201 1_555
O58 P10 1.609006 1_555
O58 Ta3 2.097799 1_555
O59 P11 1.586204 1_655
O59 Ta3 2.010728 1_555
O60 P7 1.515334 1_555
O60 Zn4 2.244733 1_555
O61 Si3 1.622031 1_455
O61 Zn4 2.141729 1_555
O62 P6 1.513905 1_565
O62 Zn4 2.245065 1_555
O63 P5 1.513898 1_565
O63 Zn5 2.245065 1_555
O64 Si2 1.622049 1_555
O64 Zn5 2.141729 1_555
O65 P4 1.515322 1_455
O65 Zn5 2.244733 1_555
O66 Si0 1.719340 1_565
O66 Ta4 1.977819 1_555
O67 P0 1.585838 1_555
O67 Ta4 2.068975 1_555
O68 P1 1.581752 1_555
O68 Ta4 2.070489 1_555
O69 P2 1.581756 1_555
O69 Ta5 2.070489 1_555
O70 P3 1.585829 1_555
O70 Ta5 2.068975 1_555
O71 Si1 1.719345 1_565
O71 Ta5 1.977819 1_555
