# generated using pymatgen
data_MgTlCu2(SeO5)2
_symmetry_space_group_name_H-M   'P 1'
_cell_length_a   6.07396476
_cell_length_b   6.07386621
_cell_length_c   8.71901331
_cell_angle_alpha   60.47686017
_cell_angle_beta   119.52218617
_cell_angle_gamma   116.30320040
_symmetry_Int_Tables_number   1
_chemical_formula_structural   MgTlCu2(SeO5)2
_chemical_formula_sum   'Mg1 Tl1 Cu2 Se2 O10'
_cell_volume   234.88227709
_cell_formula_units_Z   1
loop_
 _symmetry_equiv_pos_site_id
 _symmetry_equiv_pos_as_xyz
  1  'x, y, z'
loop_
 _atom_site_type_symbol
 _atom_site_label
 _atom_site_symmetry_multiplicity
 _atom_site_fract_x
 _atom_site_fract_y
 _atom_site_fract_z
 _atom_site_occupancy
  Mg  Mg0  1  0.56259900  0.43737200  0.16156600  1
  Tl  Tl0  1  0.50623200  0.49394400  0.53622500  1
  Cu  Cu0  1  0.99966000  0.49999700  0.00699800  1
  Cu  Cu1  1  0.50002300  0.00036400  0.00698400  1
  Se  Se0  1  0.91790000  0.08219000  0.71246000  1
  Se  Se1  1  0.09529100  0.90458000  0.29566200  1
  O  O0  1  0.82427000  0.17593800  0.81589200  1
  O  O1  1  0.19345200  0.80635300  0.19714900  1
  O  O2  1  0.79332200  0.20669600  0.47788900  1
  O  O3  1  0.20571700  0.79417500  0.52569600  1
  O  O4  1  0.25278500  0.18356500  0.77979400  1
  O  O5  1  0.81638900  0.74724400  0.77987800  1
  O  O6  1  0.75575500  0.79470100  0.21570800  1
  O  O7  1  0.20526100  0.24419300  0.21569700  1
  O  O8  1  0.32080800  0.67918400  0.97501400  1
  O  O9  1  0.69636900  0.30367100  0.06881500  1
loop_
_geom_bond_atom_site_label_1
_geom_bond_atom_site_label_2
_geom_bond_distance
_geom_bond_site_symmetry_2
Mg0 O9 1.962962 1_555
Mg0 O8 2.040271 1_554
Mg0 O6 2.125339 1_555
Mg0 O7 2.125363 1_555
Mg0 O2 2.378293 1_555
Cu0 O8 1.850075 1_654
Cu0 O9 1.871992 1_555
Cu0 O5 1.947831 1_554
Cu0 O7 1.994596 1_655
Cu1 O8 1.850185 1_544
Cu1 O9 1.872126 1_555
Cu1 O4 1.947855 1_554
Cu1 O6 1.994583 1_545
O0 Se0 1.661166 1_555
O0 Tl0 2.726002 1_555
O1 Se1 1.665599 1_555
O1 Tl0 2.842713 1_555
O2 Se0 1.668846 1_555
O3 Se1 1.633881 1_555
O4 Se0 1.711922 1_455
O4 Tl0 2.671714 1_555
O5 Se0 1.712154 1_565
O5 Tl0 2.671611 1_555
O6 Se1 1.733908 1_655
O7 Se1 1.734281 1_545
