# generated using pymatgen
data_Ga9Ni13
_symmetry_space_group_name_H-M   'P 1'
_cell_length_a   6.27792287
_cell_length_b   6.27792204
_cell_length_c   7.87742477
_cell_angle_alpha   107.60625029
_cell_angle_beta   108.29222716
_cell_angle_gamma   103.09878497
_symmetry_Int_Tables_number   1
_chemical_formula_structural   Ga9Ni13
_chemical_formula_sum   'Ga9 Ni13'
_cell_volume   262.63552991
_cell_formula_units_Z   1
loop_
 _symmetry_equiv_pos_site_id
 _symmetry_equiv_pos_as_xyz
  1  'x, y, z'
loop_
 _atom_site_type_symbol
 _atom_site_label
 _atom_site_symmetry_multiplicity
 _atom_site_fract_x
 _atom_site_fract_y
 _atom_site_fract_z
 _atom_site_occupancy
  Ga  Ga0  1  0.48179819  0.25280609  0.31030260  1
  Ga  Ga1  1  0.94250249  0.17149559  0.68969740  1
  Ga  Ga2  1  0.51820181  0.74719391  0.68969740  1
  Ga  Ga3  1  0.05749751  0.82850441  0.31030260  1
  Ga  Ga4  1  0.94544880  0.16980693  0.11525673  1
  Ga  Ga5  1  0.05455120  0.83019307  0.88474327  1
  Ga  Ga6  1  0.45900957  0.70754179  0.16655236  1
  Ga  Ga7  1  0.54099043  0.29245821  0.83344764  1
  Ga  Ga8  1  -0.00000000  0.50000000  0.50000000  1
  Ni  Ni0  1  0.72715858  0.45633011  0.66130893  1
  Ni  Ni1  1  0.79502019  0.06584965  0.33869107  1
  Ni  Ni2  1  0.27284142  0.54366989  0.33869107  1
  Ni  Ni3  1  0.20497981  0.93415035  0.66130893  1
  Ni  Ni4  1  0.73183045  0.44700690  0.17883735  1
  Ni  Ni5  1  0.26816955  0.55299310  0.82116265  1
  Ni  Ni6  1  0.25481629  0.25853506  0.51335135  1
  Ni  Ni7  1  0.74518371  0.74146494  0.48664865  1
  Ni  Ni8  1  0.26069392  0.26069392  -0.00000000  1
  Ni  Ni9  1  0.50000000  -0.00000000  0.50000000  1
  Ni  Ni10  1  -0.00000000  0.50000000  -0.00000000  1
  Ni  Ni11  1  0.50000000  -0.00000000  -0.00000000  1
  Ni  Ni12  1  0.73930608  0.73930608  0.00000000  1
loop_
_geom_bond_atom_site_label_1
_geom_bond_atom_site_label_2
_geom_bond_distance
_geom_bond_site_symmetry_2
Ga0 Ni8 2.424610 1_555
Ga0 Ni4 2.437126 1_555
Ga0 Ni0 2.438799 1_555
Ga0 Ni6 2.451413 1_555
Ga0 Ni2 2.475495 1_555
Ga0 Ni9 2.484890 1_555
Ga0 Ni1 2.494612 1_555
Ga0 Ni11 2.533301 1_555
Ga0 Ni7 2.784940 1_555
Ga1 Ni8 2.424613 1_656
Ga1 Ni5 2.437129 1_655
Ga1 Ni1 2.438799 1_555
Ga1 Ni7 2.451413 1_545
Ga1 Ni3 2.475506 1_645
Ga1 Ni9 2.484886 1_555
Ga1 Ni0 2.494613 1_555
Ga1 Ni10 2.533298 1_656
Ga1 Ni6 2.784946 1_655
Ga2 Ni12 2.424610 1_556
Ga2 Ni5 2.437126 1_555
Ga2 Ni2 2.438799 1_555
Ga2 Ni7 2.451413 1_555
Ga2 Ni0 2.475495 1_555
Ga2 Ni9 2.484890 1_565
Ga2 Ni3 2.494612 1_555
Ga2 Ni11 2.533301 1_566
Ga2 Ni6 2.784940 1_555
Ga3 Ni12 2.424613 1_455
Ga3 Ni4 2.437129 1_455
Ga3 Ni3 2.438799 1_555
Ga3 Ni6 2.451413 1_565
Ga3 Ni1 2.475506 1_465
Ga3 Ni9 2.484886 1_565
Ga3 Ni2 2.494613 1_555
Ga3 Ni10 2.533298 1_555
Ga3 Ni7 2.784946 1_455
Ga4 Ni1 2.423764 1_555
Ga4 Ni2 2.423767 1_655
Ga4 Ni12 2.448700 1_545
Ga4 Ni8 2.448707 1_655
Ga4 Ni4 2.455598 1_555
Ga4 Ni11 2.500113 1_555
Ga4 Ni10 2.500119 1_655
Ga4 Ni6 2.923400 1_655
Ga5 Ni3 2.423764 1_555
Ga5 Ni0 2.423767 1_455
Ga5 Ni8 2.448700 1_566
Ga5 Ni12 2.448707 1_456
Ga5 Ni5 2.455598 1_555
Ga5 Ni11 2.500113 1_566
Ga5 Ni10 2.500119 1_556
Ga5 Ni7 2.923400 1_455
Ga6 Ni2 2.357305 1_555
Ga6 Ni1 2.357309 1_565
Ga6 Ni5 2.368411 1_554
Ga6 Ni7 2.507831 1_555
Ga6 Ni8 2.511180 1_555
Ga6 Ni12 2.511186 1_555
Ga6 Ni10 2.571688 1_555
Ga6 Ni11 2.571693 1_565
Ga6 Ni9 2.604011 1_565
Ga6 Ni4 2.622898 1_555
Ga7 Ni0 2.357305 1_555
Ga7 Ni3 2.357309 1_545
Ga7 Ni4 2.368411 1_556
Ga7 Ni6 2.507831 1_555
Ga7 Ni12 2.511180 1_556
Ga7 Ni8 2.511186 1_556
Ga7 Ni10 2.571688 1_656
Ga7 Ni11 2.571693 1_556
Ga7 Ni9 2.604011 1_555
Ga7 Ni5 2.622898 1_555
Ga8 Ni4 2.430820 1_455
Ga8 Ni5 2.430820 1_555
Ga8 Ni7 2.440922 1_455
Ga8 Ni6 2.440922 1_555
Ga8 Ni0 2.447032 1_455
Ga8 Ni2 2.447032 1_555
Ga8 Ni3 2.447032 1_555
Ga8 Ni1 2.447032 1_455
Ni0 Ni10 2.569701 1_656
Ni0 Ni7 2.570207 1_555
Ni0 Ni9 2.581474 1_555
Ni0 Ni6 2.641874 1_555
Ni0 Ni12 2.687685 1_556
Ni1 Ni11 2.569699 1_555
Ni1 Ni6 2.570213 1_655
Ni1 Ni9 2.581469 1_555
Ni1 Ni7 2.641873 1_545
Ni1 Ni12 2.687687 1_545
Ni2 Ni6 2.570207 1_555
Ni2 Ni9 2.581474 1_565
Ni2 Ni7 2.641874 1_555
Ni2 Ni8 2.687685 1_555
Ni3 Ni7 2.570213 1_455
Ni3 Ni9 2.581469 1_565
Ni3 Ni6 2.641873 1_565
Ni3 Ni8 2.687687 1_566
Ni4 Ni7 2.528698 1_555
Ni4 Ni8 2.630694 1_555
Ni5 Ni6 2.528698 1_555
Ni5 Ni8 2.630693 1_556
Ni6 Ni9 2.478992 1_555
Ni7 Ni9 2.478992 1_565
Ni10 Ni8 2.459678 1_555
Ni10 Ni12 2.459678 1_455
Ni10 Ni4 2.539318 1_455
Ni10 Ni5 2.539318 1_554
Ni10 Ni2 2.569701 1_555
Ni11 Ni8 2.459678 1_555
Ni11 Ni12 2.459678 1_545
Ni11 Ni4 2.539318 1_555
Ni11 Ni5 2.539318 1_544
Ni11 Ni3 2.569699 1_544
Ni12 Ni4 2.630693 1_555
Ni12 Ni5 2.630694 1_554
