# generated using pymatgen
data_BaGe2S5
_symmetry_space_group_name_H-M   'P 1'
_cell_length_a   10.67158253
_cell_length_b   10.67158754
_cell_length_c   10.67155413
_cell_angle_alpha   60.00088419
_cell_angle_beta   60.00104270
_cell_angle_gamma   60.00078447
_symmetry_Int_Tables_number   1
_chemical_formula_structural   BaGe2S5
_chemical_formula_sum   'Ba4 Ge8 S20'
_cell_volume   859.36850186
_cell_formula_units_Z   4
loop_
 _symmetry_equiv_pos_site_id
 _symmetry_equiv_pos_as_xyz
  1  'x, y, z'
loop_
 _atom_site_type_symbol
 _atom_site_label
 _atom_site_symmetry_multiplicity
 _atom_site_fract_x
 _atom_site_fract_y
 _atom_site_fract_z
 _atom_site_occupancy
  Ba  Ba0  1  0.12499499  0.12499505  0.62501079  1
  Ba  Ba1  1  0.12499483  0.62501247  0.12499305  1
  Ba  Ba2  1  0.62501052  0.12499702  0.12499525  1
  Ba  Ba3  1  0.12499329  0.12499826  0.12499431  1
  Ge  Ge0  1  0.41686901  0.41687067  0.41686874  1
  Ge  Ge1  1  0.50071211  0.83309699  0.83309645  1
  Ge  Ge2  1  0.83309744  0.83309789  0.50071035  1
  Ge  Ge3  1  0.83309703  0.50071355  0.83309581  1
  Ge  Ge4  1  0.41687219  0.41687319  0.74938049  1
  Ge  Ge5  1  0.41687240  0.74938205  0.41687137  1
  Ge  Ge6  1  0.74938065  0.41687365  0.41687139  1
  Ge  Ge7  1  0.83309755  0.83309737  0.83309792  1
  S  S0  1  0.92296623  0.57704878  0.57704500  1
  S  S1  1  0.67301289  0.32698575  0.32698348  1
  S  S2  1  0.57704787  0.92297036  0.57704636  1
  S  S3  1  0.57704754  0.57704690  0.92296783  1
  S  S4  1  0.92296867  0.92294026  0.57705268  1
  S  S5  1  0.92294928  0.57705075  0.92296323  1
  S  S6  1  0.32698738  0.67301147  0.67300929  1
  S  S7  1  0.67301021  0.67301164  0.32698612  1
  S  S8  1  0.32698456  0.32698556  0.67301213  1
  S  S9  1  0.32698435  0.67301388  0.32698297  1
  S  S10  1  0.67301001  0.32698791  0.67300970  1
  S  S11  1  0.57705283  0.92294051  0.92296778  1
  S  S12  1  0.91542351  0.91542612  0.91542406  1
  S  S13  1  -0.00362270  0.33454087  0.33453890  1
  S  S14  1  0.33453937  -0.00362133  0.33453835  1
  S  S15  1  0.33453929  0.33454047  -0.00362307  1
  S  S16  1  0.91542098  0.25373272  0.91542063  1
  S  S17  1  0.91542129  0.91542260  0.25373059  1
  S  S18  1  0.25373211  0.91542230  0.91542062  1
  S  S19  1  0.33453531  0.33453733  0.33453543  1
loop_
_geom_bond_atom_site_label_1
_geom_bond_atom_site_label_2
_geom_bond_distance
_geom_bond_site_symmetry_2
Ba0 S19 3.278241 1_555
Ba0 S13 3.278242 1_555
Ba0 S14 3.278248 1_555
Ba0 S18 3.278405 1_545
Ba0 S12 3.278406 1_445
Ba0 S16 3.278417 1_455
Ba1 S19 3.278226 1_555
Ba1 S15 3.278244 1_555
Ba1 S13 3.278255 1_555
Ba1 S12 3.278391 1_454
Ba1 S17 3.278420 1_455
Ba1 S18 3.278423 1_554
Ba2 S19 3.278221 1_555
Ba2 S15 3.278243 1_555
Ba2 S14 3.278258 1_555
Ba2 S17 3.278406 1_545
Ba2 S12 3.278408 1_544
Ba2 S16 3.278421 1_554
Ba3 S13 3.278216 1_555
Ba3 S14 3.278224 1_555
Ba3 S15 3.278230 1_555
Ba3 S16 3.278387 1_454
Ba3 S17 3.278412 1_445
Ba3 S18 3.278413 1_544
Ge0 S19 2.152175 1_555
Ge0 S9 2.233432 1_555
Ge0 S8 2.233432 1_555
Ge0 S1 2.233440 1_555
Ge1 S18 2.152038 1_555
Ge1 S2 2.232620 1_555
Ge1 S3 2.232622 1_555
Ge1 S11 2.232629 1_555
Ge2 S17 2.152033 1_555
Ge2 S0 2.232613 1_555
Ge2 S2 2.232619 1_555
Ge2 S4 2.232632 1_555
Ge3 S16 2.152043 1_555
Ge3 S3 2.232620 1_555
Ge3 S0 2.232627 1_555
Ge3 S5 2.232641 1_555
Ge4 S15 2.152178 1_556
Ge4 S10 2.233386 1_555
Ge4 S6 2.233388 1_555
Ge4 S8 2.233396 1_555
Ge5 S14 2.152181 1_565
Ge5 S6 2.233383 1_555
Ge5 S7 2.233386 1_555
Ge5 S9 2.233404 1_555
Ge6 S13 2.152183 1_655
Ge6 S7 2.233385 1_555
Ge6 S10 2.233386 1_555
Ge6 S1 2.233396 1_555
Ge7 S12 2.152005 1_555
Ge7 S11 2.232580 1_555
Ge7 S4 2.232581 1_555
Ge7 S5 2.232594 1_555
