# generated using pymatgen
data_Na3ScSiGe(PO6)2
_symmetry_space_group_name_H-M   'P 1'
_cell_length_a   15.35080669
_cell_length_b   8.92542990
_cell_length_c   8.96443612
_cell_angle_alpha   90.00000000
_cell_angle_beta   125.57317331
_cell_angle_gamma   90.00000000
_symmetry_Int_Tables_number   1
_chemical_formula_structural   Na3ScSiGe(PO6)2
_chemical_formula_sum   'Na12 Sc4 Si4 Ge4 P8 O48'
_cell_volume   999.01773420
_cell_formula_units_Z   4
loop_
 _symmetry_equiv_pos_site_id
 _symmetry_equiv_pos_as_xyz
  1  'x, y, z'
loop_
 _atom_site_type_symbol
 _atom_site_label
 _atom_site_symmetry_multiplicity
 _atom_site_fract_x
 _atom_site_fract_y
 _atom_site_fract_z
 _atom_site_occupancy
  Na  Na0  1  0.25244156  0.73122258  0.99889368  1
  Na  Na1  1  0.75244156  0.76877742  0.49889368  1
  Na  Na2  1  0.75244156  0.23122258  0.99889368  1
  Na  Na3  1  0.25244156  0.26877742  0.49889368  1
  Na  Na4  1  0.50483906  0.10130691  0.75538353  1
  Na  Na5  1  0.50483906  0.89869309  0.25538353  1
  Na  Na6  1  0.00483906  0.60130691  0.75538353  1
  Na  Na7  1  0.00483906  0.39869309  0.25538353  1
  Na  Na8  1  0.18507177  0.93196990  0.29081774  1
  Na  Na9  1  0.18507177  0.06803010  0.79081774  1
  Na  Na10  1  0.68507177  0.43196990  0.29081774  1
  Na  Na11  1  0.68507177  0.56803010  0.79081774  1
  Sc  Sc0  1  0.10645145  0.74470862  0.56678778  1
  Sc  Sc1  1  0.10645145  0.25529138  0.06678778  1
  Sc  Sc2  1  0.60645145  0.24470862  0.56678778  1
  Sc  Sc3  1  0.60645145  0.75529138  0.06678778  1
  Si  Si0  1  0.64934110  0.88715431  0.74851489  1
  Si  Si1  1  0.64934110  0.11284569  0.24851489  1
  Si  Si2  1  0.14934110  0.38715431  0.74851489  1
  Si  Si3  1  0.14934110  0.61284569  0.24851489  1
  Ge  Ge0  1  0.89810786  0.76091646  0.93868275  1
  Ge  Ge1  1  0.89810786  0.23908354  0.43868275  1
  Ge  Ge2  1  0.39810786  0.26091646  0.93868275  1
  Ge  Ge3  1  0.39810786  0.73908354  0.43868275  1
  P  P0  1  0.99243167  0.96014120  0.75125518  1
  P  P1  1  0.99243167  0.03985880  0.25125518  1
  P  P2  1  0.49243167  0.46014120  0.75125518  1
  P  P3  1  0.49243167  0.53985880  0.25125518  1
  P  P4  1  0.35510508  0.90498690  0.75349789  1
  P  P5  1  0.35510508  0.09501310  0.25349789  1
  P  P6  1  0.85510508  0.40498690  0.75349789  1
  P  P7  1  0.85510508  0.59501310  0.25349789  1
  O  O0  1  0.15363401  0.56786753  0.74406397  1
  O  O1  1  0.85302093  0.58186114  0.75699728  1
  O  O2  1  0.85302093  0.41813886  0.25699728  1
  O  O3  1  0.15363401  0.43213247  0.24406397  1
  O  O4  1  0.65363401  0.06786753  0.74406397  1
  O  O5  1  0.35302093  0.08186114  0.75699728  1
  O  O6  1  0.35302093  0.91813886  0.25699728  1
  O  O7  1  0.65363401  0.93213247  0.24406397  1
  O  O8  1  0.42472966  0.56109823  0.57590633  1
  O  O9  1  0.56047444  0.55255622  0.92608703  1
  O  O10  1  0.56047444  0.44744378  0.42608703  1
  O  O11  1  0.42472966  0.43890177  0.07590633  1
  O  O12  1  0.92472966  0.06109823  0.57590633  1
  O  O13  1  0.06047444  0.05255622  0.92608703  1
  O  O14  1  0.06047444  0.94744378  0.42608703  1
  O  O15  1  0.92472966  0.93890177  0.07590633  1
  O  O16  1  0.25705912  0.84985956  0.74378778  1
  O  O17  1  0.75123736  0.80188274  0.76644064  1
  O  O18  1  0.75123736  0.19811726  0.26644064  1
  O  O19  1  0.25705912  0.15014044  0.24378778  1
  O  O20  1  0.75705912  0.34985956  0.74378778  1
  O  O21  1  0.25123736  0.30188274  0.76644064  1
  O  O22  1  0.25123736  0.69811726  0.26644064  1
  O  O23  1  0.75705912  0.65014044  0.24378778  1
  O  O24  1  0.35476489  0.86855016  0.58129705  1
  O  O25  1  0.64539789  0.84101971  0.91691431  1
  O  O26  1  0.64539789  0.15898029  0.41691431  1
  O  O27  1  0.35476489  0.13144984  0.08129705  1
  O  O28  1  0.85476489  0.36855016  0.58129705  1
  O  O29  1  0.14539789  0.34101971  0.91691431  1
  O  O30  1  0.14539789  0.65898029  0.41691431  1
  O  O31  1  0.85476489  0.63144984  0.08129705  1
  O  O32  1  0.45522772  0.84577187  0.93032471  1
  O  O33  1  0.53900116  0.81100290  0.55814349  1
  O  O34  1  0.53900116  0.18899710  0.05814349  1
  O  O35  1  0.45522772  0.15422813  0.43032471  1
  O  O36  1  0.95522772  0.34577187  0.93032471  1
  O  O37  1  0.03900116  0.31100290  0.55814349  1
  O  O38  1  0.03900116  0.68899710  0.05814349  1
  O  O39  1  0.95522772  0.65422813  0.43032471  1
  O  O40  1  0.07031077  0.85798838  0.74129686  1
  O  O41  1  0.91135250  0.85729518  0.75490712  1
  O  O42  1  0.91135250  0.14270482  0.25490712  1
  O  O43  1  0.07031077  0.14201162  0.24129686  1
  O  O44  1  0.57031077  0.35798838  0.74129686  1
  O  O45  1  0.41135250  0.35729518  0.75490712  1
  O  O46  1  0.41135250  0.64270482  0.25490712  1
  O  O47  1  0.57031077  0.64201162  0.24129686  1
loop_
_geom_bond_atom_site_label_1
_geom_bond_atom_site_label_2
_geom_bond_distance
_geom_bond_site_symmetry_2
Na0 O46 2.308304 1_556
Na0 O0 2.369288 1_555
Na0 O22 2.427260 1_556
Na0 O6 2.522729 1_556
Na0 O16 2.558259 1_555
Na0 O40 2.630153 1_555
Na1 O41 2.308304 1_555
Na1 O7 2.369288 1_555
Na1 O17 2.427260 1_555
Na1 O1 2.522729 1_555
Na1 O23 2.558259 1_555
Na1 O47 2.630153 1_555
Na2 O42 2.308304 1_556
Na2 O4 2.369288 1_555
Na2 O18 2.427260 1_556
Na2 O2 2.522729 1_556
Na2 O20 2.558259 1_555
Na2 O44 2.630153 1_555
Na3 O45 2.308304 1_555
Na3 O3 2.369288 1_555
Na3 O21 2.427260 1_555
Na3 O5 2.522729 1_555
Na3 O19 2.558259 1_555
Na3 O43 2.630153 1_555
Na4 O5 2.345407 1_555
Na4 O4 2.363527 1_555
Na4 O44 2.534240 1_555
Na4 O34 2.568616 1_556
Na4 O35 2.590813 1_555
Na4 O45 2.696798 1_555
Na4 O24 2.806346 1_545
Na4 O25 2.917940 1_545
Na5 O6 2.345407 1_555
Na5 O7 2.363527 1_555
Na5 O47 2.534240 1_555
Na5 O33 2.568616 1_555
Na5 O32 2.590813 1_554
Na5 O46 2.696798 1_555
Na5 O27 2.806346 1_565
Na5 O26 2.917940 1_565
Na6 O1 2.345407 1_455
Na6 O0 2.363527 1_555
Na6 O40 2.534240 1_555
Na6 O38 2.568616 1_556
Na6 O39 2.590813 1_455
Na6 O41 2.696798 1_455
Na6 O28 2.806346 1_455
Na6 O29 2.917940 1_555
Na7 O2 2.345407 1_455
Na7 O3 2.363527 1_555
Na7 O43 2.534240 1_555
Na7 O37 2.568616 1_555
Na7 O36 2.590813 1_454
Na7 O42 2.696798 1_455
Na7 O31 2.806346 1_455
Na7 O30 2.917940 1_555
Na8 O22 2.386249 1_555
Na8 O19 2.394329 1_565
Na8 O43 2.430063 1_565
Na8 O24 2.448398 1_555
Na8 O6 2.768299 1_555
Na8 O14 2.801127 1_555
Na8 O13 2.868965 1_564
Na8 O30 2.895935 1_555
Na8 O38 2.939361 1_555
Na9 O21 2.386249 1_555
Na9 O16 2.394329 1_545
Na9 O40 2.430063 1_545
Na9 O27 2.448398 1_556
Na9 O5 2.768299 1_555
Na9 O13 2.801127 1_555
Na9 O14 2.868965 1_545
Na9 O29 2.895935 1_555
Na9 O37 2.939361 1_555
Na10 O18 2.386249 1_555
Na10 O23 2.394329 1_555
Na10 O47 2.430063 1_555
Na10 O28 2.448398 1_555
Na10 O2 2.768299 1_555
Na10 O10 2.801127 1_555
Na10 O9 2.868965 1_554
Na10 O26 2.895935 1_555
Na10 O34 2.939361 1_555
Na11 O17 2.386249 1_555
Na11 O20 2.394329 1_555
Na11 O44 2.430063 1_555
Na11 O31 2.448398 1_556
Na11 O1 2.768299 1_555
Na11 O9 2.801127 1_555
Na11 O10 2.868965 1_555
Na11 O25 2.895935 1_555
Na11 O33 2.939361 1_555
Ge0 O38 1.881984 1_656
Ge0 O17 1.884308 1_555
Ge0 O15 1.902359 1_556
Ge0 O41 1.971067 1_555
Ge0 O1 2.091468 1_555
Ge0 O31 2.098121 1_556
Ge1 O37 1.881984 1_655
Ge1 O18 1.884308 1_555
Ge1 O12 1.902359 1_555
Ge1 O42 1.971067 1_555
Ge1 O2 2.091468 1_555
Ge1 O28 2.098121 1_555
Ge2 O34 1.881984 1_556
Ge2 O21 1.884308 1_555
Ge2 O11 1.902359 1_556
Ge2 O45 1.971067 1_555
Ge2 O5 2.091468 1_555
Ge2 O27 2.098121 1_556
Ge3 O33 1.881984 1_555
Ge3 O22 1.884308 1_555
Ge3 O8 1.902359 1_555
Ge3 O46 1.971067 1_555
Ge3 O6 2.091468 1_555
Ge3 O24 2.098121 1_555
O0 Si2 1.615729 1_555
O0 Sc0 2.049922 1_555
O1 P6 1.579684 1_555
O2 P7 1.579684 1_555
O3 Si3 1.615729 1_555
O3 Sc1 2.049922 1_555
O4 Si0 1.615729 1_545
O4 Sc2 2.049922 1_555
O5 P4 1.579684 1_545
O6 P5 1.579684 1_565
O7 Si1 1.615729 1_565
O7 Sc3 2.049922 1_555
O8 P2 1.569144 1_555
O9 P2 1.524154 1_555
O9 Sc3 2.080278 1_556
O10 P3 1.524154 1_555
O10 Sc2 2.080278 1_555
O11 P3 1.569144 1_555
O12 P0 1.569144 1_545
O13 P0 1.524154 1_445
O13 Sc1 2.080278 1_556
O14 P1 1.524154 1_465
O14 Sc0 2.080278 1_555
O15 P1 1.569144 1_565
O16 P4 1.537051 1_555
O16 Sc0 2.115526 1_555
O17 Si0 1.661118 1_555
O18 Si1 1.661118 1_555
O19 P5 1.537051 1_555
O19 Sc1 2.115526 1_555
O20 P6 1.537051 1_555
O20 Sc2 2.115526 1_555
O21 Si2 1.661118 1_555
O22 Si3 1.661118 1_555
O23 P7 1.537051 1_555
O23 Sc3 2.115526 1_555
O24 P4 1.574602 1_555
O25 Si0 1.599515 1_555
O25 Sc3 1.918996 1_556
O26 Si1 1.599515 1_555
O26 Sc2 1.918996 1_555
O27 P5 1.574602 1_555
O28 P6 1.574602 1_555
O29 Si2 1.599515 1_555
O29 Sc1 1.918996 1_556
O30 Si3 1.599515 1_555
O30 Sc0 1.918996 1_555
O31 P7 1.574602 1_555
O32 P4 1.523048 1_555
O32 Sc3 2.057555 1_556
O33 Si0 1.697106 1_555
O34 Si1 1.697106 1_555
O35 P5 1.523048 1_555
O35 Sc2 2.057555 1_555
O36 P6 1.523048 1_555
O36 Sc1 2.057555 1_656
O37 Si2 1.697106 1_555
O38 Si3 1.697106 1_555
O39 P7 1.523048 1_555
O39 Sc0 2.057555 1_655
O40 P0 1.546829 1_455
O40 Sc0 2.187947 1_555
O41 P0 1.562116 1_555
O42 P1 1.562116 1_555
O43 P1 1.546829 1_455
O43 Sc1 2.187947 1_555
O44 P2 1.546829 1_555
O44 Sc2 2.187947 1_555
O45 P2 1.562116 1_555
O46 P3 1.562116 1_555
O47 P3 1.546829 1_555
O47 Sc3 2.187947 1_555
