# generated using pymatgen
data_Na3TiZn(PO4)3
_symmetry_space_group_name_H-M   'P 1'
_cell_length_a   8.92004924
_cell_length_b   8.93043999
_cell_length_c   21.83322702
_cell_angle_alpha   89.99999999
_cell_angle_beta   90.06069475
_cell_angle_gamma   120.03854345
_symmetry_Int_Tables_number   1
_chemical_formula_structural   Na3TiZn(PO4)3
_chemical_formula_sum   'Na18 Ti6 Zn6 P18 O72'
_cell_volume   1505.63443388
_cell_formula_units_Z   6
loop_
 _symmetry_equiv_pos_site_id
 _symmetry_equiv_pos_as_xyz
  1  'x, y, z'
loop_
 _atom_site_type_symbol
 _atom_site_label
 _atom_site_symmetry_multiplicity
 _atom_site_fract_x
 _atom_site_fract_y
 _atom_site_fract_z
 _atom_site_occupancy
  Na  Na0  1  0.98680758  0.97151704  0.49449564  1
  Na  Na1  1  0.98680758  0.01529054  0.99449564  1
  Na  Na2  1  0.66654845  0.33667913  0.82772196  1
  Na  Na3  1  0.66654845  0.32986833  0.32772196  1
  Na  Na4  1  0.32873222  0.66236302  0.16103537  1
  Na  Na5  1  0.32873222  0.66637020  0.66103537  1
  Na  Na6  1  0.37157216  0.36123388  0.24694069  1
  Na  Na7  1  0.98643021  0.63089288  0.24655631  1
  Na  Na8  1  0.98643021  0.35553733  0.74655631  1
  Na  Na9  1  0.37157216  0.01033828  0.74694069  1
  Na  Na10  1  0.30876794  0.34546848  0.58019119  1
  Na  Na11  1  0.65692932  0.96418321  0.57987436  1
  Na  Na12  1  0.30876794  0.96329847  0.08019119  1
  Na  Na13  1  0.65692932  0.69274511  0.07987436  1
  Na  Na14  1  0.97675631  0.68088260  0.91314049  1
  Na  Na15  1  0.32275384  0.29537400  0.91430495  1
  Na  Na16  1  0.97675631  0.29587471  0.41314049  1
  Na  Na17  1  0.32275384  0.02738085  0.41430495  1
  Ti  Ti0  1  0.99807958  0.99317059  0.64891379  1
  Ti  Ti1  1  0.99807958  0.00490899  0.14891379  1
  Ti  Ti2  1  0.67062188  0.32584554  0.98194898  1
  Ti  Ti3  1  0.67062188  0.34477534  0.48194898  1
  Ti  Ti4  1  0.34190727  0.67332298  0.31547549  1
  Ti  Ti5  1  0.34190727  0.66858529  0.81547549  1
  Zn  Zn0  1  0.99202319  0.99443421  0.34840881  1
  Zn  Zn1  1  0.99202319  0.99758898  0.84840881  1
  Zn  Zn2  1  0.66913871  0.34071316  0.68169929  1
  Zn  Zn3  1  0.66913871  0.32842455  0.18169929  1
  Zn  Zn4  1  0.32794688  0.66002074  0.01536698  1
  Zn  Zn5  1  0.32794688  0.66792714  0.51536698  1
  P  P0  1  0.29341786  0.99742678  0.25191368  1
  P  P1  1  0.70384957  0.71002596  0.24993032  1
  P  P2  1  0.00261201  0.29657438  0.25372928  1
  P  P3  1  0.29341786  0.29599108  0.75191368  1
  P  P4  1  0.00261201  0.70603763  0.75372928  1
  P  P5  1  0.70384957  0.99382361  0.74993032  1
  P  P6  1  0.96025269  0.33040212  0.58548671  1
  P  P7  1  0.37064114  0.04079682  0.58514748  1
  P  P8  1  0.67164346  0.62977107  0.58520946  1
  P  P9  1  0.96025269  0.62984957  0.08548671  1
  P  P10  1  0.67164346  0.04187139  0.08520946  1
  P  P11  1  0.37064114  0.32984331  0.08514748  1
  P  P12  1  0.62829777  0.66514411  0.92061440  1
  P  P13  1  0.03827307  0.37405416  0.91630105  1
  P  P14  1  0.34069032  0.96372395  0.91841405  1
  P  P15  1  0.62829777  0.96315465  0.42061440  1
  P  P16  1  0.34069032  0.37696737  0.41841405  1
  P  P17  1  0.03827307  0.66421991  0.41630105  1
  O  O0  1  0.21500899  0.02490223  0.30990105  1
  O  O1  1  0.81949789  0.78943023  0.30505913  1
  O  O2  1  0.98485656  0.20183456  0.31314270  1
  O  O3  1  0.21500899  0.19010676  0.80990105  1
  O  O4  1  0.98485656  0.78302200  0.81314270  1
  O  O5  1  0.81949789  0.03006766  0.80505913  1
  O  O6  1  0.79389047  0.97129864  0.69075276  1
  O  O7  1  0.16903673  0.19948175  0.69494835  1
  O  O8  1  0.02200205  0.83254541  0.69869484  1
  O  O9  1  0.79389047  0.82259184  0.19075276  1
  O  O10  1  0.02200205  0.18945664  0.19869484  1
  O  O11  1  0.16903673  0.96955498  0.19494835  1
  O  O12  1  0.88086197  0.34845703  0.64449707  1
  O  O13  1  0.47565269  0.11891589  0.64339116  1
  O  O14  1  0.63524080  0.51615280  0.64057765  1
  O  O15  1  0.88086197  0.53240394  0.14449707  1
  O  O16  1  0.63524080  0.11908700  0.14057765  1
  O  O17  1  0.47565269  0.35673580  0.14339116  1
  O  O18  1  0.46688521  0.30194315  0.02842755  1
  O  O19  1  0.83967854  0.53017269  0.02856356  1
  O  O20  1  0.69410813  0.16093156  0.02737397  1
  O  O21  1  0.46688521  0.16494105  0.52842755  1
  O  O22  1  0.69410813  0.53317557  0.52737397  1
  O  O23  1  0.83967854  0.30950484  0.52856356  1
  O  O24  1  0.55217953  0.68595499  0.97975115  1
  O  O25  1  0.15089849  0.45560829  0.97212895  1
  O  O26  1  0.31286805  0.85802992  0.97640202  1
  O  O27  1  0.55217953  0.86622554  0.47975115  1
  O  O28  1  0.31286805  0.45483913  0.47640202  1
  O  O29  1  0.15089849  0.69529121  0.47212895  1
  O  O30  1  0.12870679  0.63491526  0.35800821  1
  O  O31  1  0.50024425  0.85733915  0.36536070  1
  O  O32  1  0.35913314  0.49259568  0.36075542  1
  O  O33  1  0.12870679  0.49379253  0.85800821  1
  O  O34  1  0.35913314  0.86653846  0.86075542  1
  O  O35  1  0.50024425  0.64290610  0.86536070  1
  O  O36  1  0.01400284  0.82052508  0.40929882  1
  O  O37  1  0.81274828  0.99737248  0.41249635  1
  O  O38  1  0.18459928  0.19292753  0.41218010  1
  O  O39  1  0.01400284  0.19347775  0.90929882  1
  O  O40  1  0.18459928  0.99167176  0.91218010  1
  O  O41  1  0.81274828  0.81537580  0.91249635  1
  O  O42  1  0.96566914  0.15529773  0.58591447  1
  O  O43  1  0.19149476  0.03539228  0.58867681  1
  O  O44  1  0.84193688  0.81003327  0.58828398  1
  O  O45  1  0.96566914  0.81037141  0.08591447  1
  O  O46  1  0.84193688  0.03190361  0.08828398  1
  O  O47  1  0.19149476  0.15610248  0.08867681  1
  O  O48  1  0.67230739  0.14758709  0.74385409  1
  O  O49  1  0.47258479  0.31661272  0.74402490  1
  O  O50  1  0.85241357  0.52089482  0.74611730  1
  O  O51  1  0.67230739  0.52471930  0.24385409  1
  O  O52  1  0.85241357  0.33151775  0.24611730  1
  O  O53  1  0.47258479  0.15597108  0.24402490  1
  O  O54  1  0.63143541  0.48973697  0.91988728  1
  O  O55  1  0.86013063  0.37117230  0.92117242  1
  O  O56  1  0.50901857  0.14684751  0.92109772  1
  O  O57  1  0.63143541  0.14169744  0.41988728  1
  O  O58  1  0.50901857  0.36217006  0.42109772  1
  O  O59  1  0.86013063  0.48895733  0.42117242  1
  O  O60  1  0.34903685  0.48778247  0.07753086  1
  O  O61  1  0.14628035  0.66579043  0.07920161  1
  O  O62  1  0.51734768  0.85790303  0.07729080  1
  O  O63  1  0.34903685  0.86125537  0.57753086  1
  O  O64  1  0.51734768  0.65944565  0.57729080  1
  O  O65  1  0.14628035  0.48049093  0.57920161  1
  O  O66  1  0.29784703  0.82353175  0.25504620  1
  O  O67  1  0.52170712  0.69714727  0.25516966  1
  O  O68  1  0.17869573  0.47521527  0.25219964  1
  O  O69  1  0.29784703  0.47431628  0.75504620  1
  O  O70  1  0.17869573  0.70348146  0.75219964  1
  O  O71  1  0.52170712  0.82456085  0.75516966  1
loop_
_geom_bond_atom_site_label_1
_geom_bond_atom_site_label_2
_geom_bond_distance
_geom_bond_site_symmetry_2
Na0 O36 2.380250 1_655
Na0 O37 2.454011 1_555
Na0 O44 2.466286 1_555
Na0 O38 2.601260 1_665
Na0 O43 2.614693 1_665
Na0 O42 2.650234 1_565
Na1 O39 2.380250 1_655
Na1 O41 2.454011 1_545
Na1 O46 2.466286 1_556
Na1 O40 2.601260 1_645
Na1 O47 2.614693 1_656
Na1 O45 2.650234 1_546
Na2 O50 2.430056 1_555
Na2 O49 2.459224 1_555
Na2 O48 2.508836 1_555
Na2 O54 2.538821 1_555
Na2 O56 2.574081 1_555
Na2 O55 2.588345 1_555
Na3 O52 2.430056 1_555
Na3 O53 2.459224 1_555
Na3 O51 2.508836 1_555
Na3 O57 2.538821 1_555
Na3 O58 2.574081 1_555
Na3 O59 2.588345 1_555
Na4 O61 2.426029 1_555
Na4 O60 2.463920 1_555
Na4 O62 2.507643 1_555
Na4 O68 2.512452 1_555
Na4 O67 2.596299 1_555
Na4 O66 2.599749 1_555
Na5 O65 2.426029 1_555
Na5 O63 2.463920 1_555
Na5 O64 2.507643 1_555
Na5 O70 2.512452 1_555
Na5 O71 2.596299 1_555
Na5 O69 2.599749 1_555
Na6 O51 2.326285 1_555
Na6 O68 2.400635 1_555
Na6 O53 2.414509 1_555
Na6 O17 2.452884 1_555
Na6 O67 2.608115 1_555
Na6 O32 2.773871 1_555
Na6 O10 2.896544 1_555
Na6 O0 2.943811 1_555
Na7 O52 2.318886 1_555
Na7 O15 2.406645 1_555
Na7 O66 2.434111 1_655
Na7 O51 2.468491 1_555
Na7 O68 2.697403 1_655
Na7 O30 2.735136 1_655
Na7 O1 2.822758 1_555
Na7 O11 2.853352 1_655
Na8 O50 2.318878 1_555
Na8 O12 2.406644 1_555
Na8 O69 2.434109 1_655
Na8 O48 2.468492 1_555
Na8 O70 2.697411 1_655
Na8 O33 2.735138 1_655
Na8 O5 2.822758 1_555
Na8 O7 2.853352 1_655
Na9 O48 2.326286 1_555
Na9 O70 2.400628 1_545
Na9 O49 2.414501 1_555
Na9 O13 2.452882 1_555
Na9 O71 2.608107 1_545
Na9 O34 2.773867 1_545
Na9 O8 2.896544 1_545
Na9 O3 2.943811 1_555
Na10 O65 2.303229 1_555
Na10 O43 2.428360 1_555
Na10 O28 2.460638 1_555
Na10 O64 2.470847 1_555
Na10 O42 2.657710 1_455
Na10 O7 2.812581 1_555
Na10 O14 2.844308 1_555
Na10 O21 2.854046 1_555
Na11 O64 2.359478 1_555
Na11 O27 2.365230 1_555
Na11 O42 2.410013 1_565
Na11 O63 2.421283 1_555
Na11 O44 2.631738 1_555
Na11 O6 2.696856 1_555
Na11 O23 2.897159 1_565
Na11 O13 2.947720 1_565
Na12 O61 2.303214 1_555
Na12 O47 2.428368 1_565
Na12 O26 2.460631 1_554
Na12 O62 2.470833 1_555
Na12 O45 2.657711 1_455
Na12 O11 2.812583 1_555
Na12 O16 2.844308 1_565
Na12 O18 2.854046 1_565
Na13 O62 2.359494 1_555
Na13 O24 2.365234 1_554
Na13 O45 2.410012 1_555
Na13 O60 2.421280 1_555
Na13 O46 2.631746 1_565
Na13 O9 2.696858 1_555
Na13 O19 2.897159 1_555
Na13 O17 2.947720 1_555
Na14 O41 2.311318 1_555
Na14 O4 2.353354 1_555
Na14 O55 2.425410 1_555
Na14 O40 2.447321 1_655
Na14 O54 2.675906 1_555
Na14 O19 2.831284 1_556
Na14 O33 2.889346 1_655
Na14 O26 2.939712 1_655
Na15 O40 2.351691 1_545
Na15 O54 2.413215 1_555
Na15 O39 2.432124 1_555
Na15 O3 2.468654 1_555
Na15 O56 2.597645 1_555
Na15 O18 2.789705 1_556
Na15 O25 2.862122 1_555
Na15 O35 2.892247 1_555
Na16 O37 2.311325 1_545
Na16 O2 2.353357 1_555
Na16 O59 2.425394 1_555
Na16 O38 2.447328 1_655
Na16 O57 2.675905 1_555
Na16 O23 2.831279 1_555
Na16 O30 2.889346 1_655
Na16 O28 2.939712 1_655
Na17 O38 2.351683 1_555
Na17 O57 2.413218 1_555
Na17 O36 2.432126 1_545
Na17 O0 2.468652 1_555
Na17 O58 2.597630 1_555
Na17 O21 2.789701 1_555
Na17 O29 2.862122 1_545
Na17 O31 2.892247 1_545
O0 P0 1.525109 1_545
O0 Zn0 2.049121 1_445
O1 P1 1.510222 1_555
O1 Zn0 1.947316 1_555
O2 P2 1.513238 1_655
O2 Zn0 2.036158 1_545
O3 P3 1.525109 1_555
O3 Zn1 2.049121 1_445
O4 P4 1.513238 1_655
O4 Zn1 2.036158 1_555
O5 P5 1.510222 1_545
O5 Zn1 1.947316 1_545
O6 P5 1.587090 1_555
O6 Ti0 1.958918 1_555
O7 P3 1.600122 1_555
O7 Ti0 1.978413 1_445
O8 P4 1.598404 1_555
O8 Ti0 1.894852 1_455
O9 P1 1.587090 1_555
O9 Ti1 1.958918 1_565
O10 P2 1.598404 1_555
O10 Ti1 1.894852 1_455
O11 P0 1.600122 1_555
O11 Ti1 1.978413 1_465
O12 P6 1.517792 1_555
O12 Zn2 2.025773 1_555
O13 P7 1.524611 1_555
O13 Zn2 2.043535 1_555
O14 P8 1.505758 1_555
O14 Zn2 1.956001 1_555
O15 P9 1.517792 1_555
O15 Zn3 2.025773 1_555
O16 P10 1.505758 1_555
O16 Zn3 1.956001 1_555
O17 P11 1.524611 1_555
O17 Zn3 2.043535 1_555
O18 P11 1.596589 1_555
O18 Ti2 1.998398 1_554
O19 P9 1.591350 1_555
O19 Ti2 1.970116 1_554
O20 P10 1.597624 1_555
O20 Ti2 1.872157 1_554
O21 P7 1.596589 1_555
O21 Ti3 1.998398 1_555
O22 P8 1.597624 1_555
O22 Ti3 1.872157 1_555
O23 P6 1.591350 1_555
O23 Ti3 1.970116 1_555
O24 P12 1.513540 1_555
O24 Zn4 2.049022 1_556
O25 P13 1.513376 1_555
O25 Zn4 1.956592 1_556
O26 P14 1.523676 1_555
O26 Zn4 2.026482 1_556
O27 P15 1.513540 1_555
O27 Zn5 2.049021 1_555
O28 P16 1.523676 1_555
O28 Zn5 2.026482 1_555
O29 P17 1.513376 1_555
O29 Zn5 1.956592 1_555
O30 P17 1.597673 1_555
O30 Ti4 1.986797 1_555
O31 P15 1.602951 1_555
O31 Ti4 1.885381 1_555
O32 P16 1.583818 1_555
O32 Ti4 1.963117 1_555
O33 P13 1.597673 1_555
O33 Ti5 1.986797 1_555
O34 P14 1.583818 1_555
O34 Ti5 1.963117 1_555
O35 P12 1.602951 1_555
O35 Ti5 1.885381 1_555
O36 P17 1.523543 1_555
O36 Zn0 2.126543 1_455
O37 P15 1.526136 1_555
O37 Zn0 2.136015 1_555
O38 P16 1.538492 1_555
O38 Zn0 2.231141 1_445
O39 P13 1.523552 1_555
O39 Zn1 2.126543 1_445
O40 P14 1.538486 1_555
O40 Zn1 2.231141 1_455
O41 P12 1.526133 1_555
O41 Zn1 2.136014 1_555
O42 P6 1.588523 1_555
O42 Ti0 2.118978 1_545
O43 P7 1.576356 1_555
O43 Ti0 2.049860 1_445
O44 P8 1.566858 1_555
O44 Ti0 2.020535 1_555
O45 P9 1.588532 1_555
O45 Ti1 2.118978 1_565
O46 P10 1.566853 1_555
O46 Ti1 2.020535 1_555
O47 P11 1.576351 1_555
O47 Ti1 2.049860 1_455
O48 P5 1.539187 1_545
O48 Zn2 2.205827 1_555
O49 P3 1.524360 1_555
O49 Zn2 2.144583 1_555
O50 P4 1.529094 1_655
O50 Zn2 2.145094 1_555
O51 P1 1.539196 1_555
O51 Zn3 2.205827 1_555
O52 P2 1.529088 1_655
O52 Zn3 2.145094 1_555
O53 P0 1.524356 1_545
O53 Zn3 2.144583 1_555
O54 P12 1.580739 1_555
O54 Ti2 2.147466 1_555
O55 P13 1.580011 1_655
O55 Ti2 2.025310 1_555
O56 P14 1.572837 1_545
O56 Ti2 2.021716 1_555
O57 P15 1.580721 1_545
O57 Ti3 2.147466 1_555
O58 P16 1.572847 1_555
O58 Ti3 2.021716 1_555
O59 P17 1.580020 1_655
O59 Ti3 2.025310 1_555
O60 P11 1.525211 1_555
O60 Zn4 2.128989 1_555
O61 P9 1.530567 1_455
O61 Zn4 2.158568 1_555
O62 P10 1.535909 1_565
O62 Zn4 2.193444 1_555
O63 P7 1.525193 1_565
O63 Zn5 2.128989 1_555
O64 P8 1.535920 1_555
O64 Zn5 2.193444 1_555
O65 P6 1.530573 1_455
O65 Zn5 2.158568 1_555
O66 P0 1.574592 1_555
O66 Ti4 2.054593 1_555
O67 P1 1.574592 1_555
O67 Ti4 2.003493 1_555
O68 P2 1.582618 1_555
O68 Ti4 2.138968 1_555
O69 P3 1.574601 1_555
O69 Ti5 2.054593 1_555
O70 P4 1.582614 1_555
O70 Ti5 2.138968 1_555
O71 P5 1.574588 1_555
O71 Ti5 2.003493 1_555
