# generated using pymatgen
data_MgNb4(O2F)4
_symmetry_space_group_name_H-M   'P 1'
_cell_length_a   5.26479362
_cell_length_b   5.87090298
_cell_length_c   9.17843726
_cell_angle_alpha   89.19500852
_cell_angle_beta   90.04055320
_cell_angle_gamma   89.39902600
_symmetry_Int_Tables_number   1
_chemical_formula_structural   MgNb4(O2F)4
_chemical_formula_sum   'Mg1 Nb4 O8 F4'
_cell_volume   283.65345903
_cell_formula_units_Z   1
loop_
 _symmetry_equiv_pos_site_id
 _symmetry_equiv_pos_as_xyz
  1  'x, y, z'
loop_
 _atom_site_type_symbol
 _atom_site_label
 _atom_site_symmetry_multiplicity
 _atom_site_fract_x
 _atom_site_fract_y
 _atom_site_fract_z
 _atom_site_occupancy
  Mg  Mg0  1  0.84926300  0.63327700  0.41994300  1
  Nb  Nb0  1  0.12430500  0.64706300  0.11863700  1
  Nb  Nb1  1  0.38126900  0.36064700  0.63243700  1
  Nb  Nb2  1  0.61209300  0.85888900  0.87126500  1
  Nb  Nb3  1  0.89080900  0.14438300  0.37580900  1
  O  O0  1  0.02192800  0.86989600  0.26688800  1
  O  O1  1  0.88814000  0.64907400  0.97220300  1
  O  O2  1  0.63336200  0.36350100  0.48161300  1
  O  O3  1  0.45191300  0.11783300  0.75916900  1
  O  O4  1  0.52183400  0.61915900  0.74646700  1
  O  O5  1  0.39382600  0.85157000  0.03235800  1
  O  O6  1  0.13655100  0.16450500  0.51634100  1
  O  O7  1  0.95963200  0.41284100  0.25860400  1
  F  F0  1  0.10013300  0.60522000  0.57355600  1
  F  F1  1  0.39505500  0.41584300  0.11688400  1
  F  F2  1  0.63222800  0.89495200  0.44509300  1
  F  F3  1  0.90765700  0.05801400  0.86273200  1
loop_
_geom_bond_atom_site_label_1
_geom_bond_atom_site_label_2
_geom_bond_distance
_geom_bond_site_symmetry_2
Mg0 O2 2.033328 1_555
Mg0 O7 2.060259 1_555
Mg0 O0 2.168661 1_655
Nb0 O1 1.830135 1_454
Nb0 O0 1.972254 1_555
Nb0 O5 2.023055 1_555
Nb0 O7 2.066366 1_455
Nb1 O3 1.861504 1_555
Nb1 O2 1.918481 1_555
Nb1 O4 2.003393 1_555
Nb1 O6 2.045749 1_555
Nb2 O5 1.873555 1_556
Nb2 O4 1.891372 1_555
Nb2 O3 2.002196 1_565
Nb2 O1 2.101499 1_555
Nb3 O6 1.832130 1_655
Nb3 O7 1.933261 1_555
Nb3 O0 2.023804 1_645
Nb3 O2 2.106052 1_555
F0 Mg0 1.935396 1_455
F0 Nb1 2.115897 1_555
F1 Nb0 1.958297 1_555
F2 Mg0 1.921603 1_555
F2 Nb3 2.102151 1_565
F3 Nb2 1.957027 1_545
