# generated using pymatgen
data_Na10Ti5Zn3(PO4)12
_symmetry_space_group_name_H-M   'P 1'
_cell_length_a   17.65121198
_cell_length_b   8.82848857
_cell_length_c   22.06238516
_cell_angle_alpha   89.96017960
_cell_angle_beta   90.01626248
_cell_angle_gamma   120.04043140
_symmetry_Int_Tables_number   1
_chemical_formula_structural   Na10Ti5Zn3(PO4)12
_chemical_formula_sum   'Na30 Ti15 Zn9 P36 O144'
_cell_volume   2976.23209304
_cell_formula_units_Z   3
loop_
 _symmetry_equiv_pos_site_id
 _symmetry_equiv_pos_as_xyz
  1  'x, y, z'
loop_
 _atom_site_type_symbol
 _atom_site_label
 _atom_site_symmetry_multiplicity
 _atom_site_fract_x
 _atom_site_fract_y
 _atom_site_fract_z
 _atom_site_occupancy
  Na  Na0  1  0.31921834  0.00972382  0.24936967  1
  Na  Na1  1  0.68665701  0.36238431  0.24910289  1
  Na  Na2  1  0.31590582  0.62446355  0.74873658  1
  Na  Na3  1  0.81572245  0.62393964  0.74897945  1
  Na  Na4  1  0.15329925  0.34410946  0.57970788  1
  Na  Na5  1  0.65312506  0.34321427  0.57903050  1
  Na  Na6  1  0.01793219  0.69294765  0.58009420  1
  Na  Na7  1  0.51790725  0.69313359  0.57981503  1
  Na  Na8  1  0.32762268  0.96120945  0.58023263  1
  Na  Na9  1  0.82819107  0.96417235  0.57994178  1
  Na  Na10  1  0.15310695  0.96273830  0.07982514  1
  Na  Na11  1  0.65370038  0.96418633  0.07982567  1
  Na  Na12  1  0.32801589  0.69304736  0.07995881  1
  Na  Na13  1  0.82819892  0.69369445  0.07964851  1
  Na  Na14  1  0.01785933  0.34354085  0.07965994  1
  Na  Na15  1  0.51819089  0.34332018  0.08047863  1
  Na  Na16  1  0.66263575  0.02757653  0.41332635  1
  Na  Na17  1  0.35140769  0.67432846  0.41270774  1
  Na  Na18  1  0.99993675  0.99950112  0.49448479  1
  Na  Na19  1  0.49955415  0.01347342  0.49274751  1
  Na  Na20  1  0.99983976  0.99926186  0.99544895  1
  Na  Na21  1  0.49986899  0.99954481  0.99585475  1
  Na  Na22  1  0.33377165  0.32170434  0.83088674  1
  Na  Na23  1  0.83361246  0.32193404  0.83086057  1
  Na  Na24  1  0.33440085  0.33837984  0.32729075  1
  Na  Na25  1  0.84334580  0.34029531  0.32811338  1
  Na  Na26  1  0.16215784  0.65518428  0.16606581  1
  Na  Na27  1  0.66605319  0.67689257  0.16601355  1
  Na  Na28  1  0.16189149  0.66759476  0.66705220  1
  Na  Na29  1  0.66169019  0.66797493  0.66713010  1
  Ti  Ti0  1  0.00016901  0.99913904  0.35226502  1
  Ti  Ti1  1  0.00008197  0.00145796  0.85414271  1
  Ti  Ti2  1  0.50014168  0.00181421  0.85404632  1
  Ti  Ti3  1  0.00129179  0.00249741  0.65023833  1
  Ti  Ti4  1  0.50123859  0.00097446  0.64979838  1
  Ti  Ti5  1  -0.00009681  0.00075289  0.14973147  1
  Ti  Ti6  1  0.50005984  0.99759505  0.15158844  1
  Ti  Ti7  1  0.33319549  0.33535346  0.97797687  1
  Ti  Ti8  1  0.83364782  0.33459041  0.97802117  1
  Ti  Ti9  1  0.33219015  0.32202787  0.47874457  1
  Ti  Ti10  1  0.83662541  0.34182557  0.47772479  1
  Ti  Ti11  1  0.16362415  0.66059491  0.31426896  1
  Ti  Ti12  1  0.66534175  0.66933716  0.31531889  1
  Ti  Ti13  1  0.16385125  0.66775496  0.81714373  1
  Ti  Ti14  1  0.66362579  0.66716961  0.81721426  1
  Zn  Zn0  1  0.49957567  0.00546965  0.34952817  1
  Zn  Zn1  1  0.33366931  0.32655754  0.68745295  1
  Zn  Zn2  1  0.83368078  0.32582312  0.68729483  1
  Zn  Zn3  1  0.33333084  0.34076628  0.18480397  1
  Zn  Zn4  1  0.83723089  0.33123482  0.18610087  1
  Zn  Zn5  1  0.16670835  0.66728684  0.01088816  1
  Zn  Zn6  1  0.66670660  0.66704844  0.01081037  1
  Zn  Zn7  1  0.16323248  0.66218524  0.51163631  1
  Zn  Zn8  1  0.66920294  0.66810188  0.51214981  1
  P  P0  1  0.14325842  0.99499151  0.25122902  1
  P  P1  1  0.64694314  0.99661552  0.25243988  1
  P  P2  1  0.35180976  0.70333573  0.25310670  1
  P  P3  1  0.85445024  0.71254736  0.25145362  1
  P  P4  1  0.00129822  0.28986101  0.25158434  1
  P  P5  1  0.50063643  0.29660195  0.25071375  1
  P  P6  1  0.14384836  0.29195139  0.75183187  1
  P  P7  1  0.64373491  0.29166710  0.75162978  1
  P  P8  1  0.00310220  0.71360815  0.75144467  1
  P  P9  1  0.50306328  0.71343565  0.75157240  1
  P  P10  1  0.35458488  -0.00007862  0.75159545  1
  P  P11  1  0.85447275  -0.00017372  0.75167229  1
  P  P12  1  0.47822492  0.33294180  0.58501865  1
  P  P13  1  0.97792798  0.33300972  0.58440746  1
  P  P14  1  0.18759492  0.04286365  0.58492834  1
  P  P15  1  0.68807073  0.04402068  0.58339645  1
  P  P16  1  0.33397769  0.62469873  0.58484681  1
  P  P17  1  0.83427989  0.62534080  0.58613926  1
  P  P18  1  0.47846013  0.62421101  0.08350678  1
  P  P19  1  0.97811128  0.62392947  0.08409735  1
  P  P20  1  0.33384285  0.04308403  0.08508879  1
  P  P21  1  0.83383222  0.04378464  0.08351334  1
  P  P22  1  0.18747543  0.33181388  0.08343136  1
  P  P23  1  0.68790879  0.33220927  0.08522146  1
  P  P24  1  0.31385795  0.66639118  0.91666713  1
  P  P25  1  0.81381279  0.66599457  0.91665944  1
  P  P26  1  0.01907609  0.37203882  0.91787741  1
  P  P27  1  0.51896156  0.37179511  0.91803383  1
  P  P28  1  0.16680635  0.96228060  0.91780477  1
  P  P29  1  0.66672002  0.96230362  0.91774420  1
  P  P30  1  0.31170868  0.95885754  0.41755820  1
  P  P31  1  0.81540358  0.96179888  0.41766489  1
  P  P32  1  0.16540054  0.36984215  0.41775420  1
  P  P33  1  0.66783892  0.37521272  0.41812047  1
  P  P34  1  0.02036155  0.66872030  0.41740583  1
  P  P35  1  0.51901765  0.66154094  0.41878392  1
  O  O0  1  0.09343709  0.01215314  0.30550560  1
  O  O1  1  0.60632550  0.02468840  0.30908229  1
  O  O2  1  0.40292319  0.78679119  0.31062037  1
  O  O3  1  0.91294833  0.81295315  0.30567189  1
  O  O4  1  0.48552228  0.18134574  0.30523497  1
  O  O5  1  0.99396046  0.17327208  0.30583773  1
  O  O6  1  0.09350109  0.17412856  0.80564587  1
  O  O7  1  0.59346316  0.17418207  0.80561723  1
  O  O8  1  0.49236681  0.81329113  0.80506993  1
  O  O9  1  0.99241771  0.81352617  0.80496760  1
  O  O10  1  0.41264358  0.01255465  0.80596938  1
  O  O11  1  0.91264580  0.01264491  0.80595037  1
  O  O12  1  0.39953530  0.97078586  0.69300250  1
  O  O13  1  0.89964117  0.97105552  0.69296790  1
  O  O14  1  0.08770240  0.20177356  0.69235669  1
  O  O15  1  0.58767519  0.20167987  0.69225279  1
  O  O16  1  0.01482735  0.82691157  0.69204228  1
  O  O17  1  0.51484357  0.82635093  0.69212829  1
  O  O18  1  0.40046500  0.83036818  0.19587835  1
  O  O19  1  0.89927401  0.82488968  0.19239699  1
  O  O20  1  0.01374856  0.20169179  0.19239907  1
  O  O21  1  0.51619104  0.20443312  0.19247291  1
  O  O22  1  0.08761304  0.97392352  0.19217363  1
  O  O23  1  0.58627547  0.97179243  0.19451893  1
  O  O24  1  0.43905018  0.36842071  0.64008495  1
  O  O25  1  0.93947153  0.36903545  0.63985667  1
  O  O26  1  0.24387004  0.12254205  0.64019634  1
  O  O27  1  0.74499562  0.12532066  0.63835423  1
  O  O28  1  0.31902988  0.51753046  0.64227608  1
  O  O29  1  0.81913083  0.51948356  0.64376613  1
  O  O30  1  0.43970653  0.51066788  0.13894098  1
  O  O31  1  0.93903745  0.51263457  0.14013499  1
  O  O32  1  0.31762475  0.11597331  0.14328338  1
  O  O33  1  0.81624041  0.12067358  0.13929107  1
  O  O34  1  0.24295763  0.36380975  0.13932282  1
  O  O35  1  0.74098472  0.36451460  0.14321881  1
  O  O36  1  0.23246180  0.30135593  0.02662027  1
  O  O37  1  0.73527134  0.30341930  0.02954291  1
  O  O38  1  0.41765567  0.53480232  0.02666871  1
  O  O39  1  0.91787893  0.53411065  0.02721962  1
  O  O40  1  0.34862989  0.16730470  0.02972085  1
  O  O41  1  0.85006451  0.16544055  0.02691301  1
  O  O42  1  0.23281731  0.16337286  0.52768391  1
  O  O43  1  0.72973808  0.15856809  0.52475291  1
  O  O44  1  0.34892777  0.53651345  0.52764101  1
  O  O45  1  0.84855928  0.53032542  0.53023673  1
  O  O46  1  0.41689511  0.30026948  0.52791244  1
  O  O47  1  0.91769491  0.30217156  0.52732663  1
  O  O48  1  0.27852315  0.69936412  0.97523585  1
  O  O49  1  0.77855999  0.69931252  0.97518179  1
  O  O50  1  0.07018868  0.44038501  0.97675801  1
  O  O51  1  0.57022539  0.44020044  0.97685914  1
  O  O52  1  0.14934519  0.85939748  0.97664022  1
  O  O53  1  0.64947488  0.85956459  0.97655472  1
  O  O54  1  0.27236279  0.85088236  0.47520559  1
  O  O55  1  0.78146605  0.86401496  0.47733585  1
  O  O56  1  0.14940583  0.43795253  0.47699272  1
  O  O57  1  0.65636710  0.45196143  0.47668831  1
  O  O58  1  0.06939644  0.70097840  0.47698475  1
  O  O59  1  0.57291165  0.69422770  0.47637488  1
  O  O60  1  0.06903849  0.64071109  0.36307953  1
  O  O61  1  0.56889327  0.64039565  0.36290903  1
  O  O62  1  0.25347660  0.86728084  0.36024638  1
  O  O63  1  0.75008840  0.86264287  0.36415109  1
  O  O64  1  0.18102801  0.49963054  0.36393593  1
  O  O65  1  0.67949737  0.49166178  0.36094642  1
  O  O66  1  0.06969776  0.49745120  0.86323101  1
  O  O67  1  0.56948964  0.49746737  0.86335084  1
  O  O68  1  0.17897338  0.86098335  0.86317268  1
  O  O69  1  0.67914682  0.86128030  0.86314711  1
  O  O70  1  0.25407344  0.64117492  0.86034491  1
  O  O71  1  0.75407325  0.64101722  0.86032594  1
  O  O72  1  0.00653480  0.82632543  0.40632826  1
  O  O73  1  0.50630880  0.82071854  0.41175416  1
  O  O74  1  0.40320599  0.98183024  0.41185580  1
  O  O75  1  0.90732825  0.98766466  0.40652731  1
  O  O76  1  0.08701236  0.18505404  0.40678649  1
  O  O77  1  0.59143723  0.18748061  0.41203324  1
  O  O78  1  0.00681016  0.18727170  0.90655819  1
  O  O79  1  0.50682357  0.18725415  0.90660236  1
  O  O80  1  0.08680648  0.98687915  0.90622102  1
  O  O81  1  0.58673477  0.98685709  0.90617804  1
  O  O82  1  0.40707542  0.82666481  0.90663487  1
  O  O83  1  0.90709738  0.82649398  0.90656784  1
  O  O84  1  0.48376212  0.15955851  0.58899871  1
  O  O85  1  0.98391254  0.15992369  0.58901157  1
  O  O86  1  0.09537667  0.03258420  0.58847957  1
  O  O87  1  0.59511815  0.03132603  0.58868617  1
  O  O88  1  0.42015665  0.81095023  0.58898017  1
  O  O89  1  0.92073081  0.81014444  0.58852267  1
  O  O90  1  0.48395921  0.80877590  0.08889924  1
  O  O91  1  0.98425906  0.80921352  0.08852788  1
  O  O92  1  0.42001361  0.03008067  0.08893405  1
  O  O93  1  0.92035849  0.03139621  0.08857331  1
  O  O94  1  0.09469705  0.15871986  0.08810635  1
  O  O95  1  0.59558422  0.15866542  0.08863962  1
  O  O96  1  0.34582068  0.16028983  0.74835873  1
  O  O97  1  0.84580260  0.16024300  0.74824807  1
  O  O98  1  0.23527498  0.31603783  0.74867974  1
  O  O99  1  0.73520780  0.31571362  0.74864935  1
  O  O100  1  0.41984103  0.53630335  0.74810149  1
  O  O101  1  0.91995392  0.53649029  0.74797786  1
  O  O102  1  0.33849543  0.52231811  0.24497842  1
  O  O103  1  0.84243959  0.52958989  0.24884703  1
  O  O104  1  0.42050065  0.31590923  0.24296795  1
  O  O105  1  0.92095616  0.30835910  0.24854792  1
  O  O106  1  0.23535414  0.15184553  0.24892506  1
  O  O107  1  0.73641209  0.15967624  0.24426853  1
  O  O108  1  0.32143022  0.49754112  0.92150217  1
  O  O109  1  0.82139048  0.49733821  0.92164200  1
  O  O110  1  0.42746671  0.35681560  0.92165837  1
  O  O111  1  0.92770176  0.35778123  0.92135432  1
  O  O112  1  0.25137354  0.14424293  0.92151189  1
  O  O113  1  0.75102727  0.14490046  0.92168325  1
  O  O114  1  0.31772240  0.14290556  0.42306372  1
  O  O115  1  0.81930442  0.14358323  0.42076113  1
  O  O116  1  0.25273684  0.36412609  0.42145472  1
  O  O117  1  0.75429985  0.36113683  0.42220822  1
  O  O118  1  0.42636173  0.49317039  0.42226053  1
  O  O119  1  0.92818953  0.49836583  0.42190999  1
  O  O120  1  0.17267160  0.48863274  0.07654672  1
  O  O121  1  0.67349648  0.48929732  0.07722757  1
  O  O122  1  0.07136660  0.65366040  0.07698071  1
  O  O123  1  0.57197790  0.65561345  0.07611856  1
  O  O124  1  0.25513192  0.85706147  0.07713596  1
  O  O125  1  0.75581942  0.85698829  0.07614115  1
  O  O126  1  0.17209392  0.85635128  0.57783323  1
  O  O127  1  0.67236081  0.85642594  0.57741800  1
  O  O128  1  0.25519832  0.65342730  0.57808217  1
  O  O129  1  0.75574216  0.65376839  0.57863064  1
  O  O130  1  0.07148566  0.48897269  0.57697128  1
  O  O131  1  0.57137840  0.48827600  0.57719232  1
  O  O132  1  0.14983019  0.82475793  0.25621189  1
  O  O133  1  0.65254910  0.82557837  0.25631560  1
  O  O134  1  0.26151686  0.70212123  0.25490481  1
  O  O135  1  0.76247058  0.69670696  0.25689061  1
  O  O136  1  0.08688976  0.47155400  0.25776161  1
  O  O137  1  0.58861023  0.47612336  0.25485529  1
  O  O138  1  0.15137690  0.47565503  0.75612930  1
  O  O139  1  0.65141809  0.47564688  0.75623975  1
  O  O140  1  0.08719912  0.70045299  0.75698135  1
  O  O141  1  0.58714078  0.70013228  0.75713790  1
  O  O142  1  0.26469860  0.82517914  0.75608570  1
  O  O143  1  0.76472327  0.82516537  0.75596485  1
loop_
_geom_bond_atom_site_label_1
_geom_bond_atom_site_label_2
_geom_bond_distance
_geom_bond_site_symmetry_2
Na0 O106 2.371778 1_555
Na0 O134 2.378533 1_545
Na0 O104 2.384154 1_555
Na0 O32 2.526267 1_555
Na0 O132 2.596235 1_545
Na0 O62 2.729139 1_545
Na0 O4 2.824746 1_555
Na0 O18 2.869463 1_545
Na1 O107 2.357818 1_555
Na1 O103 2.382473 1_555
Na1 O137 2.399955 1_555
Na1 O35 2.521953 1_555
Na1 O135 2.564760 1_555
Na1 O65 2.748786 1_555
Na1 O21 2.891105 1_555
Na1 O1 2.900536 1_555
Na2 O100 2.324079 1_555
Na2 O98 2.357935 1_555
Na2 O142 2.363772 1_555
Na2 O138 2.523200 1_555
Na2 O28 2.542891 1_555
Na2 O70 2.727518 1_555
Na2 O12 2.918266 1_555
Na2 O8 2.971076 1_555
Na3 O101 2.324575 1_555
Na3 O99 2.356394 1_555
Na3 O143 2.364690 1_555
Na3 O29 2.510157 1_555
Na3 O139 2.519739 1_555
Na3 O71 2.721746 1_555
Na3 O13 2.926314 1_555
Na3 O9 2.971323 1_555
Na4 O130 2.360878 1_555
Na4 O128 2.403304 1_555
Na4 O86 2.414729 1_555
Na4 O56 2.425042 1_555
Na4 O85 2.599580 1_455
Na4 O14 2.763507 1_555
Na4 O42 2.842410 1_555
Na4 O28 2.885065 1_555
Na5 O131 2.360909 1_555
Na5 O129 2.413663 1_555
Na5 O87 2.419108 1_555
Na5 O57 2.442384 1_555
Na5 O84 2.600197 1_555
Na5 O15 2.772678 1_555
Na5 O43 2.851475 1_555
Na5 O29 2.912529 1_555
Na6 O126 2.357511 1_555
Na6 O89 2.413845 1_455
Na6 O130 2.417789 1_555
Na6 O58 2.437538 1_555
Na6 O86 2.605856 1_565
Na6 O16 2.751533 1_555
Na6 O25 2.804397 1_455
Na6 O45 2.812822 1_455
Na7 O127 2.361913 1_555
Na7 O131 2.423715 1_555
Na7 O88 2.428417 1_555
Na7 O59 2.478450 1_555
Na7 O87 2.595539 1_565
Na7 O17 2.755710 1_555
Na7 O24 2.815008 1_555
Na7 O44 2.829197 1_555
Na8 O128 2.354184 1_555
Na8 O126 2.419046 1_555
Na8 O84 2.422341 1_565
Na8 O54 2.513947 1_555
Na8 O88 2.575585 1_555
Na8 O12 2.774787 1_555
Na8 O46 2.837150 1_565
Na8 O26 2.841879 1_565
Na9 O129 2.374306 1_555
Na9 O85 2.413714 1_565
Na9 O127 2.419512 1_555
Na9 O55 2.420357 1_555
Na9 O89 2.603170 1_555
Na9 O13 2.781031 1_555
Na9 O27 2.817225 1_565
Na9 O47 2.832661 1_565
Na10 O122 2.364273 1_555
Na10 O124 2.408194 1_555
Na10 O94 2.424172 1_565
Na10 O52 2.441599 1_554
Na10 O91 2.590756 1_455
Na10 O22 2.757951 1_555
Na10 O36 2.842605 1_565
Na10 O32 2.879255 1_565
Na11 O123 2.361074 1_555
Na11 O95 2.408751 1_565
Na11 O125 2.420650 1_555
Na11 O53 2.446154 1_554
Na11 O90 2.604520 1_555
Na11 O33 2.809457 1_565
Na11 O23 2.811733 1_555
Na11 O37 2.819955 1_565
Na12 O124 2.370774 1_555
Na12 O120 2.413864 1_555
Na12 O90 2.417381 1_555
Na12 O48 2.480298 1_554
Na12 O92 2.587015 1_565
Na12 O34 2.836317 1_555
Na12 O38 2.837982 1_555
Na12 O18 2.845336 1_555
Na13 O125 2.358048 1_555
Na13 O121 2.404629 1_555
Na13 O91 2.419457 1_555
Na13 O49 2.474753 1_554
Na13 O93 2.592012 1_565
Na13 O19 2.765953 1_555
Na13 O39 2.839881 1_555
Na13 O35 2.880784 1_555
Na14 O120 2.368151 1_555
Na14 O122 2.408804 1_555
Na14 O93 2.417795 1_455
Na14 O50 2.438456 1_554
Na14 O94 2.598422 1_555
Na14 O20 2.768570 1_555
Na14 O41 2.817202 1_455
Na14 O31 2.833338 1_455
Na15 O121 2.375646 1_555
Na15 O92 2.426269 1_555
Na15 O123 2.427138 1_555
Na15 O51 2.452203 1_554
Na15 O95 2.604886 1_555
Na15 O21 2.749978 1_555
Na15 O30 2.796160 1_555
Na15 O40 2.823210 1_555
Na16 O77 2.312874 1_555
Na16 O115 2.426419 1_555
Na16 O73 2.430031 1_545
Na16 O1 2.500280 1_555
Na16 O117 2.560941 1_555
Na16 O43 2.722971 1_555
Na16 O63 2.816698 1_545
Na16 O59 2.903987 1_545
Na17 O73 2.368239 1_555
Na17 O74 2.391880 1_555
Na17 O116 2.407184 1_555
Na17 O2 2.445318 1_555
Na17 O118 2.543757 1_555
Na17 O44 2.802589 1_555
Na17 O64 2.817356 1_555
Na17 O54 2.908433 1_555
Na18 O76 2.503167 1_665
Na18 O75 2.505235 1_555
Na18 O72 2.513241 1_655
Na18 O89 2.590454 1_555
Na18 O86 2.594213 1_665
Na18 O85 2.615464 1_565
Na19 O77 2.380065 1_555
Na19 O74 2.382983 1_545
Na19 O73 2.512099 1_545
Na19 O84 2.571872 1_555
Na19 O87 2.661316 1_555
Na19 O88 2.675101 1_545
Na20 O83 2.520698 1_555
Na20 O78 2.531292 1_665
Na20 O80 2.532534 1_655
Na20 O94 2.570266 1_666
Na20 O91 2.577082 1_556
Na20 O93 2.582795 1_566
Na21 O82 2.527108 1_555
Na21 O79 2.535883 1_565
Na21 O81 2.540058 1_555
Na21 O95 2.577597 1_566
Na21 O90 2.579010 1_556
Na21 O92 2.580588 1_566
Na22 O96 2.387142 1_555
Na22 O98 2.495172 1_555
Na22 O112 2.506676 1_555
Na22 O110 2.515454 1_555
Na22 O100 2.519590 1_555
Na22 O108 2.607150 1_555
Na23 O97 2.391101 1_555
Na23 O99 2.492524 1_555
Na23 O113 2.509782 1_555
Na23 O111 2.513400 1_555
Na23 O101 2.522071 1_555
Na23 O109 2.606727 1_555
Na24 O102 2.412179 1_555
Na24 O106 2.424325 1_555
Na24 O104 2.472644 1_555
Na24 O118 2.583324 1_555
Na24 O116 2.603043 1_555
Na24 O114 2.648802 1_555
Na25 O105 2.329459 1_555
Na25 O103 2.423658 1_555
Na25 O119 2.526335 1_555
Na25 O107 2.552621 1_555
Na25 O115 2.575238 1_555
Na25 O117 2.665680 1_555
Na26 O136 2.515243 1_555
Na26 O134 2.522042 1_555
Na26 O120 2.524799 1_555
Na26 O122 2.531404 1_555
Na26 O132 2.564101 1_555
Na26 O124 2.605317 1_555
Na27 O133 2.462981 1_555
Na27 O123 2.532287 1_555
Na27 O137 2.534353 1_555
Na27 O125 2.538726 1_555
Na27 O135 2.578249 1_555
Na27 O121 2.611462 1_555
Na28 O140 2.478715 1_555
Na28 O126 2.525697 1_555
Na28 O138 2.539453 1_555
Na28 O130 2.542846 1_555
Na28 O142 2.561456 1_555
Na28 O128 2.605677 1_555
Na29 O141 2.476250 1_555
Na29 O127 2.530389 1_555
Na29 O131 2.542789 1_555
Na29 O139 2.543291 1_555
Na29 O143 2.559187 1_555
Na29 O129 2.606667 1_555
O0 P0 1.537693 1_545
O0 Ti0 1.897143 1_545
O1 P1 1.521827 1_545
O1 Zn0 2.013987 1_555
O2 P2 1.517241 1_555
O2 Zn0 2.019504 1_565
O3 P3 1.538558 1_555
O3 Ti0 1.896451 1_655
O4 P5 1.510012 1_555
O4 Zn0 1.952130 1_555
O5 P4 1.540730 1_655
O5 Ti0 1.894996 1_645
O6 P6 1.534509 1_555
O6 Ti1 1.915643 1_555
O7 P7 1.536000 1_555
O7 Ti2 1.913037 1_555
O8 P9 1.540814 1_555
O8 Ti2 1.931387 1_565
O9 P8 1.541507 1_655
O9 Ti1 1.930242 1_665
O10 P10 1.544928 1_555
O10 Ti2 1.914402 1_555
O11 P11 1.544129 1_555
O11 Ti1 1.916692 1_655
O12 P10 1.603792 1_565
O12 Ti4 1.929733 1_565
O13 P11 1.606675 1_565
O13 Ti3 1.920170 1_665
O14 P6 1.596408 1_555
O14 Ti3 1.897321 1_555
O15 P7 1.593745 1_555
O15 Ti4 1.907764 1_555
O16 P8 1.597513 1_555
O16 Ti3 1.918176 1_565
O17 P9 1.596172 1_555
O17 Ti4 1.917056 1_565
O18 P2 1.619812 1_555
O18 Ti6 1.904023 1_555
O19 P3 1.587583 1_555
O19 Ti5 1.920778 1_665
O20 P4 1.591252 1_555
O20 Ti5 1.913377 1_555
O21 P5 1.616755 1_555
O21 Ti6 1.926338 1_545
O22 P0 1.585428 1_555
O22 Ti5 1.922447 1_565
O23 P1 1.610085 1_555
O23 Ti6 1.900227 1_555
O24 P12 1.506680 1_555
O24 Zn1 2.000239 1_555
O25 P13 1.508532 1_555
O25 Zn2 2.003783 1_555
O26 P14 1.506395 1_555
O26 Zn1 1.996701 1_555
O27 P15 1.507773 1_555
O27 Zn2 1.994254 1_555
O28 P16 1.522736 1_555
O28 Zn1 2.082433 1_555
O29 P17 1.519757 1_555
O29 Zn2 2.085333 1_555
O30 P18 1.510213 1_555
O30 Zn3 1.994605 1_555
O31 P19 1.513245 1_555
O31 Zn4 1.984895 1_555
O32 P20 1.526522 1_555
O32 Zn3 2.075110 1_555
O33 P21 1.511283 1_555
O33 Zn4 1.993070 1_555
O34 P22 1.510706 1_555
O34 Zn3 1.979047 1_555
O35 P23 1.525980 1_555
O35 Zn4 2.089492 1_555
O36 P22 1.577543 1_555
O36 Ti7 1.967146 1_554
O37 P23 1.576784 1_555
O37 Ti8 1.976195 1_554
O38 P18 1.581091 1_555
O38 Ti7 1.962279 1_554
O39 P19 1.578080 1_555
O39 Ti8 1.967503 1_554
O40 P20 1.573131 1_555
O40 Ti7 1.995178 1_554
O41 P21 1.576461 1_555
O41 Ti8 1.976967 1_554
O42 P14 1.585100 1_555
O42 Ti9 1.934813 1_555
O43 P15 1.578485 1_555
O43 Ti10 2.048480 1_555
O44 P16 1.573501 1_555
O44 Ti9 2.068629 1_555
O45 P17 1.581652 1_555
O45 Ti10 1.951308 1_555
O46 P12 1.590454 1_555
O46 Ti9 1.932722 1_555
O47 P13 1.581243 1_555
O47 Ti10 1.966716 1_555
O48 P24 1.525188 1_555
O48 Zn5 2.008785 1_556
O49 P25 1.524800 1_555
O49 Zn6 2.008623 1_556
O50 P26 1.523465 1_555
O50 Zn5 2.016614 1_556
O51 P27 1.523531 1_555
O51 Zn6 2.014634 1_556
O52 P28 1.524218 1_555
O52 Zn5 2.014932 1_556
O53 P29 1.523490 1_555
O53 Zn6 2.016952 1_556
O54 P30 1.531201 1_555
O54 Zn7 1.979372 1_555
O55 P31 1.522607 1_555
O55 Zn8 2.018820 1_555
O56 P32 1.523371 1_555
O56 Zn7 2.020141 1_555
O57 P33 1.519371 1_555
O57 Zn8 1.968182 1_555
O58 P34 1.520232 1_555
O58 Zn7 2.003003 1_555
O59 P35 1.525652 1_555
O59 Zn8 1.989094 1_555
O60 P34 1.565142 1_555
O60 Ti11 1.919688 1_555
O61 P35 1.579560 1_555
O61 Ti12 1.905540 1_555
O62 P30 1.574042 1_555
O62 Ti11 1.994513 1_555
O63 P31 1.574671 1_555
O63 Ti12 1.938165 1_555
O64 P32 1.575020 1_555
O64 Ti11 1.936301 1_555
O65 P33 1.573823 1_555
O65 Ti12 1.981510 1_555
O66 P26 1.576727 1_555
O66 Ti13 1.885069 1_555
O67 P27 1.577950 1_555
O67 Ti14 1.883625 1_555
O68 P28 1.578804 1_555
O68 Ti13 1.886531 1_555
O69 P29 1.578609 1_555
O69 Ti14 1.889704 1_555
O70 P24 1.572146 1_555
O70 Ti13 1.967905 1_555
O71 P25 1.572276 1_555
O71 Ti14 1.968430 1_555
O72 P34 1.547523 1_555
O72 Ti0 1.982941 1_555
O73 P35 1.537708 1_555
O73 Zn0 2.179480 1_565
O74 P30 1.528868 1_555
O74 Zn0 2.115059 1_565
O75 P31 1.540931 1_555
O75 Ti0 1.990901 1_655
O76 P32 1.541043 1_555
O76 Ti0 1.993313 1_545
O77 P33 1.531666 1_555
O77 Zn0 2.122738 1_555
O78 P26 1.554681 1_555
O78 Ti1 1.962136 1_555
O79 P27 1.554000 1_555
O79 Ti2 1.961603 1_555
O80 P28 1.553461 1_555
O80 Ti1 1.968779 1_565
O81 P29 1.552908 1_555
O81 Ti2 1.969107 1_565
O82 P24 1.557951 1_555
O82 Ti2 1.972581 1_565
O83 P25 1.559607 1_555
O83 Ti1 1.969228 1_665
O84 P12 1.584280 1_555
O84 Ti4 2.069833 1_555
O85 P13 1.586797 1_555
O85 Ti3 2.067477 1_655
O86 P14 1.586237 1_555
O86 Ti3 2.060139 1_555
O87 P15 1.591899 1_555
O87 Ti4 2.047388 1_555
O88 P16 1.588028 1_555
O88 Ti4 2.064281 1_565
O89 P17 1.581331 1_555
O89 Ti3 2.084275 1_665
O90 P18 1.587616 1_555
O90 Ti6 2.073924 1_555
O91 P19 1.587322 1_555
O91 Ti5 2.072315 1_665
O92 P20 1.583860 1_555
O92 Ti6 2.096044 1_545
O93 P21 1.588767 1_555
O93 Ti5 2.060072 1_655
O94 P22 1.588092 1_555
O94 Ti5 2.062870 1_555
O95 P23 1.583943 1_555
O95 Ti6 2.095676 1_545
O96 P10 1.500899 1_555
O96 Zn1 2.078133 1_555
O97 P11 1.500568 1_555
O97 Zn2 2.073978 1_555
O98 P6 1.520142 1_555
O98 Zn1 2.165496 1_555
O99 P7 1.520921 1_555
O99 Zn2 2.169641 1_555
O100 P9 1.519654 1_555
O100 Zn1 2.171440 1_555
O101 P8 1.518991 1_655
O101 Zn2 2.176493 1_555
O102 P2 1.505221 1_555
O102 Zn3 2.048527 1_555
O103 P3 1.521353 1_555
O103 Zn4 2.198530 1_555
O104 P5 1.516665 1_555
O104 Zn3 2.097347 1_555
O105 P4 1.508003 1_655
O105 Zn4 2.102442 1_555
O106 P0 1.519500 1_545
O106 Zn3 2.209999 1_555
O107 P1 1.523963 1_545
O107 Zn4 2.099467 1_555
O108 P24 1.565459 1_555
O108 Ti7 1.985173 1_555
O109 P25 1.564035 1_555
O109 Ti8 1.991745 1_555
O110 P27 1.555093 1_555
O110 Ti7 2.008439 1_555
O111 P26 1.555591 1_655
O111 Ti8 2.005390 1_555
O112 P28 1.553957 1_545
O112 Ti7 2.011623 1_555
O113 P29 1.555326 1_545
O113 Ti8 2.008199 1_555
O114 P30 1.579173 1_545
O114 Ti9 1.916574 1_555
O115 P31 1.573074 1_545
O115 Ti10 2.050153 1_555
O116 P32 1.569564 1_555
O116 Ti9 2.054940 1_555
O117 P33 1.594512 1_555
O117 Ti10 1.971713 1_555
O118 P35 1.567202 1_555
O118 Ti9 2.020610 1_555
O119 P34 1.571234 1_655
O119 Ti10 1.949586 1_555
O120 P22 1.539486 1_555
O120 Zn5 2.181774 1_555
O121 P23 1.540145 1_555
O121 Zn6 2.192980 1_555
O122 P19 1.539674 1_455
O122 Zn5 2.184329 1_555
O123 P18 1.539527 1_555
O123 Zn6 2.171232 1_555
O124 P20 1.540767 1_565
O124 Zn5 2.182489 1_555
O125 P21 1.539108 1_565
O125 Zn6 2.173660 1_555
O126 P14 1.536223 1_565
O126 Zn7 2.197901 1_555
O127 P15 1.541974 1_565
O127 Zn8 2.179774 1_555
O128 P16 1.540513 1_555
O128 Zn7 2.216819 1_555
O129 P17 1.536352 1_555
O129 Zn8 2.166247 1_555
O130 P13 1.540510 1_455
O130 Zn7 2.134854 1_555
O131 P12 1.535014 1_555
O131 Zn8 2.194261 1_555
O132 P0 1.567985 1_555
O132 Ti11 2.037397 1_555
O133 P1 1.564167 1_555
O133 Ti12 1.989324 1_555
O134 P2 1.588945 1_555
O134 Ti11 2.049840 1_555
O135 P3 1.562891 1_555
O135 Ti12 2.060446 1_555
O136 P4 1.564585 1_555
O136 Ti11 1.978084 1_555
O137 P5 1.570859 1_555
O137 Ti12 2.052459 1_555
O138 P6 1.562494 1_555
O138 Ti13 2.089475 1_555
O139 P7 1.564175 1_555
O139 Ti14 2.086459 1_555
O140 P8 1.550606 1_555
O140 Ti13 2.016245 1_555
O141 P9 1.551040 1_555
O141 Ti14 2.013926 1_555
O142 P10 1.567256 1_565
O142 Ti13 2.106339 1_555
O143 P11 1.565391 1_565
O143 Ti14 2.112505 1_555
