# generated using pymatgen
data_MgNb4(NiO6)2
_symmetry_space_group_name_H-M   'P 1'
_cell_length_a   4.95019350
_cell_length_b   4.93501651
_cell_length_c   9.20087200
_cell_angle_alpha   90.00003031
_cell_angle_beta   89.99996973
_cell_angle_gamma   90.08952701
_symmetry_Int_Tables_number   1
_chemical_formula_structural   MgNb4(NiO6)2
_chemical_formula_sum   'Mg1 Nb4 Ni2 O12'
_cell_volume   224.77046544
_cell_formula_units_Z   1
loop_
 _symmetry_equiv_pos_site_id
 _symmetry_equiv_pos_as_xyz
  1  'x, y, z'
loop_
 _atom_site_type_symbol
 _atom_site_label
 _atom_site_symmetry_multiplicity
 _atom_site_fract_x
 _atom_site_fract_y
 _atom_site_fract_z
 _atom_site_occupancy
  Mg  Mg0  1  0.50000000  0.00000000  0.41172000  1
  Nb  Nb0  1  0.00000000  0.00000000  0.99073000  1
  Nb  Nb1  1  0.00000000  0.00000000  0.30363000  1
  Nb  Nb2  1  0.50000100  0.49999900  0.84250300  1
  Nb  Nb3  1  0.49999900  0.50000100  0.53046400  1
  Ni  Ni0  1  0.00000000  0.00000000  0.66528100  1
  Ni  Ni1  1  0.50000000  0.50000000  0.16765000  1
  O  O0  1  0.20521400  0.79242400  0.83751500  1
  O  O1  1  0.21340100  0.80133800  0.16172100  1
  O  O2  1  0.21390700  0.78899100  0.49153500  1
  O  O3  1  0.29160800  0.29548300  0.99641200  1
  O  O4  1  0.28581500  0.29040100  0.34157800  1
  O  O5  1  0.29907600  0.28873800  0.67239600  1
  O  O6  1  0.70839200  0.70451700  0.99641200  1
  O  O7  1  0.71418500  0.70959900  0.34157800  1
  O  O8  1  0.70092400  0.71126200  0.67239600  1
  O  O9  1  0.79478700  0.20757300  0.83751400  1
  O  O10  1  0.78659900  0.19866200  0.16172100  1
  O  O11  1  0.78609000  0.21101000  0.49153400  1
loop_
_geom_bond_atom_site_label_1
_geom_bond_atom_site_label_2
_geom_bond_distance
_geom_bond_site_symmetry_2
Mg0 O7 1.897173 1_545
Mg0 O4 1.897173 1_555
Mg0 O11 1.903860 1_555
Mg0 O2 1.903872 1_545
Nb0 O9 2.017883 1_455
Nb0 O0 2.017886 1_545
Nb0 O3 2.050922 1_555
Nb0 O6 2.050922 1_445
Nb0 O10 2.134365 1_456
Nb0 O1 2.134367 1_546
Nb1 O1 1.945550 1_545
Nb1 O10 1.945552 1_455
Nb1 O4 2.042355 1_555
Nb1 O7 2.042355 1_445
Nb1 O2 2.279937 1_545
Nb1 O11 2.279938 1_455
Nb2 O6 2.021116 1_555
Nb2 O3 2.021117 1_555
Nb2 O0 2.054436 1_555
Nb2 O9 2.054436 1_555
Nb2 O5 2.126648 1_555
Nb2 O8 2.126648 1_555
Nb3 O8 1.943800 1_555
Nb3 O5 1.943801 1_555
Nb3 O2 2.043091 1_555
Nb3 O11 2.043092 1_555
Nb3 O4 2.282762 1_555
Nb3 O7 2.282762 1_555
Ni0 O8 2.054250 1_445
Ni0 O5 2.054250 1_555
Ni0 O9 2.143779 1_455
Ni0 O0 2.143797 1_545
Ni0 O2 2.182800 1_545
Ni0 O11 2.182818 1_455
Ni1 O10 2.057627 1_555
Ni1 O1 2.057627 1_555
Ni1 O6 2.135861 1_554
Ni1 O3 2.135861 1_554
Ni1 O4 2.179811 1_555
Ni1 O7 2.179811 1_555
