# generated using pymatgen
data_NaLaYP(SO6)2
_symmetry_space_group_name_H-M   'P 1'
_cell_length_a   9.30263459
_cell_length_b   9.30239225
_cell_length_c   24.80750761
_cell_angle_alpha   89.98185374
_cell_angle_beta   89.99747409
_cell_angle_gamma   120.06183560
_symmetry_Int_Tables_number   1
_chemical_formula_structural   NaLaYP(SO6)2
_chemical_formula_sum   'Na6 La6 Y6 P6 S12 O72'
_cell_volume   1857.99010581
_cell_formula_units_Z   6
loop_
 _symmetry_equiv_pos_site_id
 _symmetry_equiv_pos_as_xyz
  1  'x, y, z'
loop_
 _atom_site_type_symbol
 _atom_site_label
 _atom_site_symmetry_multiplicity
 _atom_site_fract_x
 _atom_site_fract_y
 _atom_site_fract_z
 _atom_site_occupancy
  Na  Na0  1  0.97942514  0.98705566  0.49915431  1
  Na  Na1  1  0.00783083  0.98642865  0.99941142  1
  Na  Na2  1  0.65730443  0.31021130  0.83191262  1
  Na  Na3  1  0.65352336  0.31107359  0.33371011  1
  Na  Na4  1  0.31880744  0.67310526  0.16538655  1
  Na  Na5  1  0.35351421  0.67271876  0.66577310  1
  La  La0  1  0.99878046  0.00066081  0.84973589  1
  La  La1  1  0.00710850  0.99151384  0.14909948  1
  La  La2  1  0.66654561  0.33257116  0.18439306  1
  La  La3  1  0.66679210  0.33241321  0.98260349  1
  La  La4  1  0.33956098  0.68348839  0.31914424  1
  La  La5  1  0.34324719  0.68364605  0.81275458  1
  Y  Y0  1  0.00190471  0.00085742  0.35303103  1
  Y  Y1  1  0.98558609  0.99213741  0.64665820  1
  Y  Y2  1  0.66571142  0.33295005  0.68107747  1
  Y  Y3  1  0.66676340  0.33405108  0.48464303  1
  Y  Y4  1  0.32442013  0.67357340  0.01664795  1
  Y  Y5  1  0.35122733  0.67412087  0.51765389  1
  P  P0  1  0.29802900  0.00402996  0.25301951  1
  P  P1  1  0.70737644  0.00928994  0.74649737  1
  P  P2  1  0.66612602  0.62558958  0.58296545  1
  P  P3  1  0.97126106  0.63126749  0.08241358  1
  P  P4  1  0.33065080  0.96443975  0.91754766  1
  P  P5  1  0.63951867  0.97240280  0.41923320  1
  S  S0  1  0.70553044  0.70438358  0.25287757  1
  S  S1  1  0.00055555  0.29373579  0.25237994  1
  S  S2  1  0.29858183  0.29336016  0.74537891  1
  S  S3  1  0.99304513  0.69933098  0.74570111  1
  S  S4  1  0.96394847  0.33597197  0.58272718  1
  S  S5  1  0.36998528  0.03737718  0.58306814  1
  S  S6  1  0.66111628  0.02394549  0.08257312  1
  S  S7  1  0.36549876  0.34332448  0.08196960  1
  S  S8  1  0.62637561  0.66841537  0.91886605  1
  S  S9  1  0.04282964  0.37329863  0.91736042  1
  S  S10  1  0.33313642  0.36684689  0.41884144  1
  S  S11  1  0.03280213  0.66627989  0.42007499  1
  O  O0  1  0.20104100  0.01169723  0.30247421  1
  O  O1  1  0.80542254  0.79530629  0.30042416  1
  O  O2  1  0.98795883  0.19226298  0.30011390  1
  O  O3  1  0.22593402  0.20060971  0.79658053  1
  O  O4  1  0.97558854  0.77310031  0.79684544  1
  O  O5  1  0.80258348  0.02464933  0.79969991  1
  O  O6  1  0.80170677  0.99238672  0.69798168  1
  O  O7  1  0.19418661  0.20261808  0.69884191  1
  O  O8  1  0.01236504  0.80675470  0.69933119  1
  O  O9  1  0.78148739  0.79741051  0.20236866  1
  O  O10  1  0.01103378  0.21408785  0.20183788  1
  O  O11  1  0.20345538  0.99090611  0.20015715  1
  O  O12  1  0.88353724  0.35612976  0.63166756  1
  O  O13  1  0.47327831  0.11559899  0.63171755  1
  O  O14  1  0.64595504  0.52048161  0.63377997  1
  O  O15  1  0.88417201  0.53095590  0.13403416  1
  O  O16  1  0.64065456  0.10342050  0.13160559  1
  O  O17  1  0.46156180  0.35819567  0.13149665  1
  O  O18  1  0.44706669  0.31984292  0.03400198  1
  O  O19  1  0.86643621  0.54259334  0.03209190  1
  O  O20  1  0.67939012  0.12509404  0.03409945  1
  O  O21  1  0.45082161  0.13901463  0.53462675  1
  O  O22  1  0.68566924  0.53969736  0.53256507  1
  O  O23  1  0.85969141  0.31077282  0.53460873  1
  O  O24  1  0.53685520  0.67581682  0.96670176  1
  O  O25  1  0.13988110  0.45975843  0.96571621  1
  O  O26  1  0.32064869  0.86112425  0.96754910  1
  O  O27  1  0.54695692  0.85720989  0.46791595  1
  O  O28  1  0.31074749  0.45154377  0.46613827  1
  O  O29  1  0.14019205  0.68647275  0.46684134  1
  O  O30  1  0.10274770  0.63934029  0.36973939  1
  O  O31  1  0.53587781  0.89601961  0.36727584  1
  O  O32  1  0.35657981  0.46393225  0.36892563  1
  O  O33  1  0.12481240  0.46536113  0.86746450  1
  O  O34  1  0.34420000  0.87933315  0.86555582  1
  O  O35  1  0.53425531  0.65444656  0.86849702  1
  O  O36  1  0.01875519  0.81841588  0.41457843  1
  O  O37  1  0.81235722  0.98639798  0.41323505  1
  O  O38  1  0.18242400  0.19947642  0.41406877  1
  O  O39  1  0.02498579  0.20506170  0.91673535  1
  O  O40  1  0.17150295  0.97904040  0.91585752  1
  O  O41  1  0.79315961  0.82141482  0.91752593  1
  O  O42  1  0.98297526  0.18665780  0.58845024  1
  O  O43  1  0.20406705  0.02179299  0.58936461  1
  O  O44  1  0.82300763  0.80173462  0.58803094  1
  O  O45  1  0.99008252  0.80687577  0.08386496  1
  O  O46  1  0.81214917  0.00921792  0.08629378  1
  O  O47  1  0.19620072  0.19463943  0.08497685  1
  O  O48  1  0.68794181  0.16450508  0.74103834  1
  O  O49  1  0.46692115  0.31255159  0.74059533  1
  O  O50  1  0.84276848  0.53313217  0.74032343  1
  O  O51  1  0.69413060  0.53935518  0.25121643  1
  O  O52  1  0.84899597  0.30992635  0.25135798  1
  O  O53  1  0.47254778  0.16258727  0.25139184  1
  O  O54  1  0.64746426  0.52023049  0.92044075  1
  O  O55  1  0.87492421  0.35601077  0.91923530  1
  O  O56  1  0.48804160  0.13925481  0.91939568  1
  O  O57  1  0.65755120  0.14580703  0.42698658  1
  O  O58  1  0.48150265  0.34795780  0.42578580  1
  O  O59  1  0.86451345  0.51937890  0.42672786  1
  O  O60  1  0.35349652  0.49454885  0.07662194  1
  O  O61  1  0.14513848  0.64772313  0.07912618  1
  O  O62  1  0.51216340  0.85713234  0.07786349  1
  O  O63  1  0.35106417  0.86905525  0.57711215  1
  O  O64  1  0.50882234  0.64441419  0.57760700  1
  O  O65  1  0.13008981  0.48659771  0.57637516  1
  O  O66  1  0.31532799  0.84631435  0.25440797  1
  O  O67  1  0.53610496  0.68195212  0.25575182  1
  O  O68  1  0.15104824  0.46073954  0.25566779  1
  O  O69  1  0.31344775  0.45994026  0.74842098  1
  O  O70  1  0.14265087  0.68068221  0.74813967  1
  O  O71  1  0.53250221  0.84966379  0.74786965  1
loop_
_geom_bond_atom_site_label_1
_geom_bond_atom_site_label_2
_geom_bond_distance
_geom_bond_site_symmetry_2
Na0 O37 2.636154 1_555
Na0 O44 2.726637 1_555
Na0 O36 2.752090 1_655
Na0 O38 2.860871 1_665
Na0 O42 2.880459 1_565
Na0 O43 2.967155 1_665
Na1 O40 2.593064 1_555
Na1 O45 2.632090 1_456
Na1 O41 2.720657 1_455
Na1 O47 2.816092 1_566
Na1 O39 2.835587 1_565
Na1 O46 2.896666 1_466
Na2 O56 2.684601 1_555
Na2 O48 2.718354 1_555
Na2 O55 2.847700 1_555
Na2 O49 2.882348 1_555
Na2 O54 2.971574 1_555
Na2 O50 2.975157 1_555
Na3 O53 2.566083 1_555
Na3 O52 2.738523 1_555
Na3 O57 2.788330 1_555
Na3 O51 2.834383 1_555
Na3 O58 2.906235 1_555
Na3 O59 3.020729 1_555
Na4 O61 2.619826 1_555
Na4 O66 2.743853 1_555
Na4 O62 2.791511 1_555
Na4 O60 2.872500 1_555
Na4 O68 2.874422 1_555
Na4 O67 2.992027 1_555
Na5 O71 2.624149 1_555
Na5 O64 2.705858 1_555
Na5 O69 2.742017 1_555
Na5 O70 2.858976 1_555
Na5 O63 2.865838 1_555
Na5 O65 2.938279 1_555
La0 O5 2.308631 1_555
La0 O40 2.374149 1_645
La0 O3 2.392528 1_655
La0 O4 2.406951 1_545
La0 O39 2.444382 1_655
La0 O41 2.463693 1_545
La1 O11 2.225117 1_555
La1 O45 2.307228 1_455
La1 O9 2.369225 1_455
La1 O47 2.421342 1_565
La1 O10 2.434302 1_565
La1 O46 2.458304 1_465
La2 O15 2.306557 1_555
La2 O53 2.378829 1_555
La2 O16 2.409194 1_555
La2 O17 2.422892 1_555
La2 O51 2.453893 1_555
La2 O52 2.458255 1_555
La3 O19 2.267803 1_556
La3 O56 2.336871 1_555
La3 O18 2.361721 1_556
La3 O20 2.364309 1_556
La3 O54 2.403328 1_555
La3 O55 2.416997 1_555
La4 O31 2.248107 1_555
La4 O66 2.294491 1_555
La4 O30 2.385414 1_555
La4 O67 2.417064 1_555
La4 O32 2.458442 1_555
La4 O68 2.492055 1_555
La5 O34 2.239393 1_555
La5 O71 2.312946 1_555
La5 O35 2.372093 1_555
La5 O33 2.441004 1_555
La5 O70 2.449722 1_555
La5 O69 2.525602 1_555
O0 P0 1.545547 1_555
O0 Y0 2.197146 1_555
O1 S0 1.477647 1_555
O1 Y0 2.280457 1_665
O2 S1 1.481705 1_655
O2 Y0 2.267238 1_655
O3 S2 1.493174 1_555
O4 S3 1.489706 1_555
O5 P1 1.555702 1_555
O6 P1 1.543235 1_565
O6 Y1 2.133277 1_555
O7 S2 1.472373 1_555
O7 Y1 2.338889 1_445
O8 S3 1.474265 1_455
O8 Y1 2.274291 1_455
O9 S0 1.484851 1_555
O10 S1 1.484407 1_555
O11 P0 1.549595 1_565
O12 S4 1.486380 1_555
O12 Y2 2.284053 1_555
O13 S5 1.486435 1_555
O13 Y2 2.273223 1_555
O14 P2 1.547795 1_555
O14 Y2 2.184874 1_555
O15 P3 1.552009 1_555
O16 S6 1.484557 1_555
O17 S7 1.484467 1_555
O18 S7 1.485135 1_555
O19 P3 1.544218 1_555
O20 S6 1.482998 1_555
O21 S5 1.480000 1_555
O21 Y3 2.282880 1_555
O22 P2 1.543008 1_555
O22 Y3 2.183621 1_555
O23 S4 1.480882 1_555
O23 Y3 2.278989 1_555
O24 S8 1.471015 1_555
O24 Y4 2.323681 1_556
O25 S9 1.474518 1_555
O25 Y4 2.253985 1_556
O26 P4 1.542918 1_555
O26 Y4 2.142117 1_556
O27 P5 1.556568 1_555
O27 Y5 2.151763 1_555
O28 S10 1.485187 1_555
O28 Y5 2.298383 1_555
O29 S11 1.480372 1_555
O29 Y5 2.383770 1_555
O30 S11 1.486247 1_555
O31 P5 1.552457 1_555
O32 S10 1.482732 1_555
O33 S9 1.480569 1_555
O34 P4 1.551395 1_555
O35 S8 1.483653 1_555
O36 S11 1.491207 1_555
O36 Y0 2.345423 1_565
O37 P5 1.553878 1_555
O37 Y0 2.262717 1_665
O38 S10 1.488941 1_555
O38 Y0 2.328101 1_555
O39 S9 1.488887 1_555
O40 P4 1.553553 1_555
O41 S8 1.490513 1_555
O42 S4 1.492291 1_555
O42 Y1 2.324306 1_545
O43 S5 1.484427 1_555
O43 Y1 2.380092 1_445
O44 P2 1.560422 1_555
O44 Y1 2.204051 1_555
O45 P3 1.553708 1_555
O46 S6 1.481275 1_555
O47 S7 1.488796 1_555
O48 P1 1.548290 1_555
O48 Y2 2.243629 1_555
O49 S2 1.489357 1_555
O49 Y2 2.298664 1_555
O50 S3 1.482281 1_555
O50 Y2 2.295605 1_555
O51 S0 1.485460 1_555
O52 S1 1.491274 1_655
O53 P0 1.553625 1_555
O54 S8 1.486978 1_555
O55 S9 1.488651 1_655
O56 P4 1.550794 1_545
O57 P5 1.547981 1_545
O57 Y3 2.229531 1_555
O58 S10 1.486092 1_555
O58 Y3 2.311331 1_555
O59 S11 1.483920 1_655
O59 Y3 2.289385 1_555
O60 S7 1.471819 1_555
O60 Y4 2.347319 1_555
O61 P3 1.548664 1_455
O61 Y4 2.199857 1_555
O62 S6 1.479039 1_565
O62 Y4 2.299176 1_555
O63 S5 1.492836 1_565
O63 Y5 2.338455 1_555
O64 P2 1.564106 1_555
O64 Y5 2.200797 1_555
O65 S4 1.485619 1_455
O65 Y5 2.408284 1_555
O66 P0 1.554372 1_565
O67 S0 1.484323 1_555
O68 S1 1.483635 1_555
O69 S2 1.487090 1_555
O70 S3 1.487463 1_455
O71 P1 1.559606 1_565
