# generated using pymatgen
data_PrSnPd
_symmetry_space_group_name_H-M   'P 1'
_cell_length_a   7.65312447
_cell_length_b   7.65312235
_cell_length_c   4.16786895
_cell_angle_alpha   90.00000000
_cell_angle_beta   90.00000000
_cell_angle_gamma   120.00000024
_symmetry_Int_Tables_number   1
_chemical_formula_structural   PrSnPd
_chemical_formula_sum   'Pr3 Sn3 Pd3'
_cell_volume   211.40834124
_cell_formula_units_Z   3
loop_
 _symmetry_equiv_pos_site_id
 _symmetry_equiv_pos_as_xyz
  1  'x, y, z'
loop_
 _atom_site_type_symbol
 _atom_site_label
 _atom_site_symmetry_multiplicity
 _atom_site_fract_x
 _atom_site_fract_y
 _atom_site_fract_z
 _atom_site_occupancy
  Pr  Pr0  1  -0.00000000  0.58697555  -0.00000000  1
  Pr  Pr1  1  0.41302445  0.41302445  -0.00000000  1
  Pr  Pr2  1  0.58697555  0.00000000  -0.00000000  1
  Sn  Sn0  1  0.75040814  0.75040814  0.50000000  1
  Sn  Sn1  1  0.00000000  0.24959186  0.50000000  1
  Sn  Sn2  1  0.24959186  1.00000000  0.50000000  1
  Pd  Pd0  1  0.66666700  0.33333300  0.50000000  1
  Pd  Pd1  1  -0.00000000  0.00000000  0.00000000  1
  Pd  Pd2  1  0.33333300  0.66666700  0.50000000  1
loop_
_geom_bond_atom_site_label_1
_geom_bond_atom_site_label_2
_geom_bond_distance
_geom_bond_site_symmetry_2
Pr0 Sn1 3.318088 1_554
Pr0 Sn1 3.318088 1_555
Pr0 Sn2 3.456165 1_555
Pr0 Sn2 3.456165 1_554
Pr0 Sn0 3.456165 1_455
Pr0 Sn0 3.456165 1_454
Pr1 Sn0 3.318088 1_555
Pr1 Sn0 3.318088 1_554
Pr1 Sn2 3.456165 1_544
Pr1 Sn2 3.456165 1_545
Pr1 Sn1 3.456165 1_554
Pr1 Sn1 3.456165 1_555
Pr2 Sn2 3.318088 1_544
Pr2 Sn2 3.318088 1_545
Pr2 Sn0 3.456165 1_545
Pr2 Sn0 3.456165 1_544
Pr2 Sn1 3.456165 1_655
Pr2 Sn1 3.456165 1_654
Sn0 Sn1 3.308489 1_665
Sn0 Sn2 3.308490 1_655
Sn1 Sn2 3.308490 1_545
Pd0 Sn1 2.924627 1_655
Pd0 Sn2 2.924632 1_545
Pd0 Sn0 2.924633 1_555
Pd0 Pr2 3.109131 1_555
Pd0 Pr2 3.109131 1_556
Pd0 Pr0 3.109133 1_656
Pd0 Pr0 3.109133 1_655
Pd0 Pr1 3.109137 1_556
Pd0 Pr1 3.109137 1_555
Pd1 Sn1 2.826921 1_554
Pd1 Sn1 2.826921 1_555
Pd1 Sn0 2.826921 1_444
Pd1 Sn0 2.826921 1_445
Pd1 Sn2 2.826921 1_544
Pd1 Sn2 2.826921 1_545
Pd1 Pr0 3.160927 1_545
Pd1 Pr1 3.160927 1_555
Pd1 Pr2 3.160928 1_455
Pd2 Sn2 2.924626 1_555
Pd2 Sn1 2.924631 1_555
Pd2 Sn0 2.924634 1_555
Pd2 Pr0 3.109131 1_555
Pd2 Pr0 3.109131 1_556
Pd2 Pr2 3.109133 1_566
Pd2 Pr2 3.109133 1_565
Pd2 Pr1 3.109136 1_555
Pd2 Pr1 3.109136 1_556
