# generated using pymatgen
data_MgAl4(CuO4)2
_symmetry_space_group_name_H-M   'P 1'
_cell_length_a   6.34435286
_cell_length_b   6.34435314
_cell_length_c   6.34435400
_cell_angle_alpha   60.00000597
_cell_angle_beta   60.00000450
_cell_angle_gamma   60.00000446
_symmetry_Int_Tables_number   1
_chemical_formula_structural   MgAl4(CuO4)2
_chemical_formula_sum   'Mg1 Al4 Cu2 O8'
_cell_volume   180.57064012
_cell_formula_units_Z   1
loop_
 _symmetry_equiv_pos_site_id
 _symmetry_equiv_pos_as_xyz
  1  'x, y, z'
loop_
 _atom_site_type_symbol
 _atom_site_label
 _atom_site_symmetry_multiplicity
 _atom_site_fract_x
 _atom_site_fract_y
 _atom_site_fract_z
 _atom_site_occupancy
  Mg  Mg0  1  0.37500000  0.37500000  0.37500000  1
  Al  Al0  1  0.51978000  0.94066000  0.51978000  1
  Al  Al1  1  0.94066000  0.51978000  0.51978000  1
  Al  Al2  1  0.51978000  0.51978000  0.94066000  1
  Al  Al3  1  0.51978000  0.51978000  0.51978000  1
  Cu  Cu0  1  0.12500000  0.12500000  0.12500000  1
  Cu  Cu1  1  0.87500000  0.87500000  0.87500000  1
  O  O0  1  0.72819600  0.72819600  0.72819600  1
  O  O1  1  0.25943700  0.25943700  0.72168600  1
  O  O2  1  0.25943700  0.72168600  0.25943700  1
  O  O3  1  0.72168600  0.25943700  0.25943700  1
  O  O4  1  0.72819600  0.31541400  0.72819600  1
  O  O5  1  0.31541400  0.72819600  0.72819600  1
  O  O6  1  0.25943700  0.25943700  0.25943700  1
  O  O7  1  0.72819600  0.72819600  0.31541400  1
loop_
_geom_bond_atom_site_label_1
_geom_bond_atom_site_label_2
_geom_bond_distance
_geom_bond_site_symmetry_2
Mg0 O3 1.795883 1_555
Mg0 O2 1.795883 1_555
Mg0 O1 1.795883 1_555
Mg0 O6 1.795898 1_555
Al0 O5 1.870132 1_555
Al0 O7 1.870132 1_555
Al0 O0 1.870141 1_555
Al0 O3 2.365092 1_565
Al0 O1 2.365092 1_565
Al0 O6 2.365104 1_565
Al1 O4 1.870132 1_555
Al1 O7 1.870132 1_555
Al1 O0 1.870141 1_555
Al1 O2 2.365092 1_655
Al1 O1 2.365092 1_655
Al1 O6 2.365104 1_655
Al2 O4 1.870132 1_555
Al2 O5 1.870132 1_555
Al2 O0 1.870141 1_555
Al2 O2 2.365092 1_556
Al2 O3 2.365092 1_556
Al2 O6 2.365104 1_556
Al3 O7 1.870141 1_555
Al3 O4 1.870141 1_555
Al3 O5 1.870141 1_555
Al3 O1 2.365107 1_555
Al3 O2 2.365107 1_555
Al3 O3 2.365107 1_555
Cu0 O6 2.089208 1_555
Cu0 O3 2.089224 1_455
Cu0 O2 2.089224 1_545
Cu0 O1 2.089224 1_554
Cu1 O0 2.281397 1_555
Cu1 O5 2.281407 1_655
Cu1 O4 2.281407 1_565
Cu1 O7 2.281408 1_556
