# generated using pymatgen
data_La4MgCr2O12
_symmetry_space_group_name_H-M   'P 1'
_cell_length_a   5.18696900
_cell_length_b   7.07326462
_cell_length_c   8.95217557
_cell_angle_alpha   108.24121810
_cell_angle_beta   90.00000000
_cell_angle_gamma   111.50979333
_symmetry_Int_Tables_number   1
_chemical_formula_structural   La4MgCr2O12
_chemical_formula_sum   'La4 Mg1 Cr2 O12'
_cell_volume   287.75569592
_cell_formula_units_Z   1
loop_
 _symmetry_equiv_pos_site_id
 _symmetry_equiv_pos_as_xyz
  1  'x, y, z'
loop_
 _atom_site_type_symbol
 _atom_site_label
 _atom_site_symmetry_multiplicity
 _atom_site_fract_x
 _atom_site_fract_y
 _atom_site_fract_z
 _atom_site_occupancy
  La  La0  1  0.70248900  0.38525700  0.08631000  1
  La  La1  1  0.31723200  0.61474200  0.41369000  1
  La  La2  1  0.72082900  0.35310600  0.59964700  1
  La  La3  1  0.36772200  0.64689400  0.90035300  1
  Mg  Mg0  1  0.40620400  0.00000000  0.25000000  1
  Cr  Cr0  1  0.90783200  0.00000000  0.25000000  1
  Cr  Cr1  1  0.06099800  0.00000000  0.75000000  1
  O  O0  1  0.69724400  0.49760000  0.86654900  1
  O  O1  1  0.24756200  0.99532400  0.90076600  1
  O  O2  1  0.24411600  0.21782300  0.31125900  1
  O  O3  1  0.76399200  0.78080300  0.68881000  1
  O  O4  1  0.19964400  0.50240000  0.63345100  1
  O  O5  1  0.25223700  0.00467600  0.59923400  1
  O  O6  1  0.82970600  0.46555900  0.36838000  1
  O  O7  1  0.68171700  0.01042600  0.09838800  1
  O  O8  1  0.36414700  0.53444100  0.13162000  1
  O  O9  1  0.67129200  0.98957400  0.40161200  1
  O  O10  1  0.98318900  0.21919700  0.81119000  1
  O  O11  1  0.02629300  0.78217700  0.18874100  1
loop_
_geom_bond_atom_site_label_1
_geom_bond_atom_site_label_2
_geom_bond_distance
_geom_bond_site_symmetry_2
La0 O8 2.334094 1_555
La0 O0 2.344599 1_554
La0 O6 2.441644 1_555
La0 O11 2.544475 1_655
La0 O7 2.650012 1_555
La0 O1 2.879856 1_544
La0 O10 3.001427 1_554
La0 O8 3.183230 1_655
La0 O2 3.246370 1_555
La1 O6 2.334094 1_455
La1 O4 2.344596 1_555
La1 O8 2.441644 1_555
La1 O2 2.544469 1_555
La1 O9 2.650019 1_555
La1 O5 2.879865 1_565
La1 O3 3.001425 1_555
La1 O6 3.183226 1_555
La1 O11 3.246376 1_555
La2 O4 2.291648 1_655
La2 O0 2.308992 1_555
La2 O6 2.437101 1_555
La2 O9 2.546078 1_545
La2 O5 2.753756 1_555
La2 O3 2.798353 1_555
La2 O10 2.898894 1_555
La2 O4 3.226190 1_555
La2 O2 3.226974 1_555
La3 O0 2.291653 1_555
La3 O4 2.308990 1_555
La3 O8 2.437101 1_556
La3 O7 2.546078 1_566
La3 O1 2.753751 1_555
La3 O10 2.798352 1_455
La3 O3 2.898897 1_555
La3 O0 3.226185 1_455
La3 O11 3.226971 1_556
Mg0 O11 1.949965 1_545
Mg0 O2 1.949965 1_555
Mg0 O7 1.968559 1_555
Mg0 O9 1.968563 1_545
Cr0 O2 1.793709 1_655
Cr0 O11 1.793709 1_645
Cr0 O9 1.830093 1_545
Cr0 O7 1.830097 1_555
Cr1 O3 1.671523 1_445
Cr1 O10 1.671523 1_455
Cr1 O5 1.676483 1_555
Cr1 O1 1.676486 1_545
