# generated using pymatgen
data_MgTe4Mo3W(SeS)2
_symmetry_space_group_name_H-M   'P 1'
_cell_length_a   3.40113909
_cell_length_b   3.40100633
_cell_length_c   45.51990975
_cell_angle_alpha   90.03041396
_cell_angle_beta   89.97457284
_cell_angle_gamma   120.00038169
_symmetry_Int_Tables_number   1
_chemical_formula_structural   MgTe4Mo3W(SeS)2
_chemical_formula_sum   'Mg1 Te4 Mo3 W1 Se2 S2'
_cell_volume   455.99713674
_cell_formula_units_Z   1
loop_
 _symmetry_equiv_pos_site_id
 _symmetry_equiv_pos_as_xyz
  1  'x, y, z'
loop_
 _atom_site_type_symbol
 _atom_site_label
 _atom_site_symmetry_multiplicity
 _atom_site_fract_x
 _atom_site_fract_y
 _atom_site_fract_z
 _atom_site_occupancy
  Mg  Mg0  1  0.00015700  0.99985300  0.55102600  1
  Te  Te0  1  0.33327100  0.66685000  0.32307800  1
  Te  Te1  1  0.33321000  0.66685500  0.70581500  1
  Te  Te2  1  0.33352800  0.66640600  0.24077100  1
  Te  Te3  1  0.33343100  0.66638500  0.62289500  1
  Mo  Mo0  1  0.33342300  0.66668900  0.09394500  1
  Mo  Mo1  1  0.33314400  0.66675900  0.46273900  1
  Mo  Mo2  1  0.66673800  0.33330600  0.28192200  1
  W  W0  1  0.66665500  0.33330800  0.66450300  1
  Se  Se0  1  0.66683800  0.33319000  0.05774700  1
  Se  Se1  1  0.66666400  0.33352100  0.13015300  1
  S  S0  1  0.66658300  0.33325400  0.43008100  1
  S  S1  1  0.66635800  0.33362600  0.49615700  1
loop_
_geom_bond_atom_site_label_1
_geom_bond_atom_site_label_2
_geom_bond_distance
_geom_bond_site_symmetry_2
Mg0 S1 3.175717 1_455
Mg0 S1 3.175950 1_565
Mg0 S1 3.179615 1_465
Te1 W0 2.718775 1_555
Te1 W0 2.718841 1_565
Te1 W0 2.718909 1_455
Te3 W0 2.728154 1_455
Te3 W0 2.728176 1_555
Te3 W0 2.728205 1_565
Mo0 Se0 2.563203 1_555
Mo0 Se0 2.563394 1_565
Mo0 Se0 2.563452 1_455
Mo0 Se1 2.563533 1_565
Mo0 Se1 2.563617 1_455
Mo0 Se1 2.563777 1_555
Mo1 S0 2.462850 1_565
Mo1 S0 2.462854 1_555
Mo1 S0 2.462887 1_455
Mo1 S1 2.483837 1_555
Mo1 S1 2.483903 1_565
Mo1 S1 2.483956 1_455
Mo2 Te2 2.713761 1_545
Mo2 Te2 2.713786 1_555
Mo2 Te2 2.713786 1_655
Mo2 Te0 2.713911 1_555
Mo2 Te0 2.713939 1_545
Mo2 Te0 2.713954 1_655
