# generated using pymatgen
data_Na7La2Ti2Si3(PO8)3
_symmetry_space_group_name_H-M   'P 1'
_cell_length_a   9.29970909
_cell_length_b   9.31833912
_cell_length_c   22.57220483
_cell_angle_alpha   90.00629689
_cell_angle_beta   89.87459068
_cell_angle_gamma   119.95896644
_symmetry_Int_Tables_number   1
_chemical_formula_structural   Na7La2Ti2Si3(PO8)3
_chemical_formula_sum   'Na21 La6 Ti6 Si9 P9 O72'
_cell_volume   1694.69127458
_cell_formula_units_Z   3
loop_
 _symmetry_equiv_pos_site_id
 _symmetry_equiv_pos_as_xyz
  1  'x, y, z'
loop_
 _atom_site_type_symbol
 _atom_site_label
 _atom_site_symmetry_multiplicity
 _atom_site_fract_x
 _atom_site_fract_y
 _atom_site_fract_z
 _atom_site_occupancy
  Na  Na0  1  0.62860482  0.00104607  0.25408670  1
  Na  Na1  1  0.36811141  0.37171838  0.24919606  1
  Na  Na2  1  0.00234227  0.62052066  0.25132715  1
  Na  Na3  1  0.63688087  0.63329404  0.74452169  1
  Na  Na4  1  0.98802015  0.36400734  0.74404641  1
  Na  Na5  1  0.37571559  0.00384260  0.74081297  1
  Na  Na6  1  0.02821229  0.69503819  0.58309356  1
  Na  Na7  1  0.65809628  0.96554819  0.57994179  1
  Na  Na8  1  0.67448842  0.68992520  0.08409640  1
  Na  Na9  1  0.02401463  0.34038501  0.08633072  1
  Na  Na10  1  0.95914871  0.66159355  0.92548533  1
  Na  Na11  1  0.69826711  0.03339603  0.92099814  1
  Na  Na12  1  0.34183659  0.30566682  0.92231252  1
  Na  Na13  1  0.97366368  0.31019821  0.41823760  1
  Na  Na14  1  0.33263017  0.03175639  0.41821929  1
  Na  Na15  1  0.00262293  0.99769229  0.49982824  1
  Na  Na16  1  0.01130807  0.99407166  0.00711660  1
  Na  Na17  1  0.66756082  0.33389132  0.83226436  1
  Na  Na18  1  0.67517977  0.34888859  0.34134173  1
  Na  Na19  1  0.32316581  0.67004255  0.16247520  1
  Na  Na20  1  0.33482578  0.65543703  0.65793637  1
  La  La0  1  0.99225755  0.99521121  0.85235821  1
  La  La1  1  0.66639939  0.33199798  0.66261055  1
  La  La2  1  0.67024135  0.33363888  0.18178973  1
  La  La3  1  0.66130706  0.33606973  0.99841657  1
  La  La4  1  0.32922974  0.66129764  0.32678294  1
  La  La5  1  0.34087052  0.67047025  0.81283094  1
  Ti  Ti0  1  0.98534169  0.99487652  0.35730086  1
  Ti  Ti1  1  0.00259486  0.01199073  0.64317314  1
  Ti  Ti2  1  0.01129180  0.00839995  0.14878532  1
  Ti  Ti3  1  0.66937792  0.32749568  0.48800995  1
  Ti  Ti4  1  0.33438972  0.66499979  0.01930828  1
  Ti  Ti5  1  0.32892227  0.67259401  0.51088973  1
  Si  Si0  1  0.99889775  0.27829222  0.25306017  1
  Si  Si1  1  0.70571440  0.00484913  0.74378634  1
  Si  Si2  1  0.98398548  0.33950194  0.58135935  1
  Si  Si3  1  0.35602375  0.01978671  0.58102747  1
  Si  Si4  1  0.99529368  0.66211548  0.08442505  1
  Si  Si5  1  0.34342852  0.33681757  0.08323600  1
  Si  Si6  1  0.62917421  0.66185351  0.91983906  1
  Si  Si7  1  0.63591619  0.97679289  0.41723923  1
  Si  Si8  1  0.01809908  0.66293057  0.41706870  1
  P  P0  1  0.27431803  0.00061927  0.25383468  1
  P  P1  1  0.72517784  0.72511174  0.25139677  1
  P  P2  1  0.29058262  0.28943019  0.74377334  1
  P  P3  1  0.99622189  0.70534914  0.74223063  1
  P  P4  1  0.66152353  0.64127467  0.58143647  1
  P  P5  1  0.66879346  0.00577691  0.08466075  1
  P  P6  1  0.03918821  0.37391677  0.92130876  1
  P  P7  1  0.33735283  0.96069546  0.92038478  1
  P  P8  1  0.33897178  0.36141512  0.41806232  1
  O  O0  1  0.18288328  0.00213953  0.31109346  1
  O  O1  1  0.82652200  0.82373219  0.30775153  1
  O  O2  1  0.99882481  0.16986919  0.31257910  1
  O  O3  1  0.22527220  0.21062713  0.80495401  1
  O  O4  1  0.99102018  0.77802678  0.80333715  1
  O  O5  1  0.79152410  0.01855006  0.80790678  1
  O  O6  1  0.83289142  0.00424626  0.68936873  1
  O  O7  1  0.17717033  0.17035276  0.69363103  1
  O  O8  1  -0.00215432  0.81660650  0.69093075  1
  O  O9  1  0.81765568  0.81636540  0.19500628  1
  O  O10  1  0.99271787  0.16833383  0.19516246  1
  O  O11  1  0.17610868  0.00248517  0.19857308  1
  O  O12  1  0.93867980  0.39589320  0.64299118  1
  O  O13  1  0.45867106  0.06592194  0.64239396  1
  O  O14  1  0.62830928  0.56505136  0.64402976  1
  O  O15  1  0.91794228  0.52703678  0.13861478  1
  O  O16  1  0.63546846  0.08636262  0.13892743  1
  O  O17  1  0.47658548  0.38775503  0.13756296  1
  O  O18  1  0.40640411  0.29334918  0.02309240  1
  O  O19  1  0.87058041  0.59437202  0.02791562  1
  O  O20  1  0.71238454  0.11927154  0.02988327  1
  O  O21  1  0.47798036  0.16057416  0.53131683  1
  O  O22  1  0.68866345  0.52468764  0.53944520  1
  O  O23  1  0.83064289  0.30457527  0.53440440  1
  O  O24  1  0.49964464  0.65564749  0.97297149  1
  O  O25  1  0.14545563  0.48893688  0.97208348  1
  O  O26  1  0.34107899  0.84444744  0.96809907  1
  O  O27  1  0.52303498  0.84197043  0.46844786  1
  O  O28  1  0.31235533  0.47482479  0.46118154  1
  O  O29  1  0.16787040  0.69292408  0.46493208  1
  O  O30  1  0.06617206  0.60362729  0.35590461  1
  O  O31  1  0.53324771  0.92436744  0.35544558  1
  O  O32  1  0.37230627  0.44107484  0.35546717  1
  O  O33  1  0.10701097  0.45539267  0.86062050  1
  O  O34  1  0.34226196  0.89452149  0.85808116  1
  O  O35  1  0.54550461  0.64991549  0.85549195  1
  O  O36  1  0.01891965  0.83853003  0.41211712  1
  O  O37  1  0.82411345  0.99775135  0.41216341  1
  O  O38  1  0.17507121  0.18798969  0.41717400  1
  O  O39  1  0.04077813  0.21007524  0.92748814  1
  O  O40  1  0.17837170  0.97083466  0.92797888  1
  O  O41  1  0.80351683  0.83372568  0.92936011  1
  O  O42  1  0.98513809  0.16239217  0.58690882  1
  O  O43  1  0.17034988  0.99799914  0.58636971  1
  O  O44  1  0.82623272  0.81443029  0.58228041  1
  O  O45  1  0.00763428  0.84046396  0.09939390  1
  O  O46  1  0.82136623  0.98346924  0.09424928  1
  O  O47  1  0.15688333  0.17923193  0.09635985  1
  O  O48  1  0.68605315  0.16861850  0.74090103  1
  O  O49  1  0.46729085  0.31691194  0.73920054  1
  O  O50  1  0.83953110  0.53303508  0.74145623  1
  O  O51  1  0.70912096  0.55134891  0.25458598  1
  O  O52  1  0.83046831  0.29199381  0.25638457  1
  O  O53  1  0.44823291  0.15860945  0.25315738  1
  O  O54  1  0.65230391  0.49932092  0.92137216  1
  O  O55  1  0.86083811  0.34327825  0.92465174  1
  O  O56  1  0.49370204  0.13296762  0.92330495  1
  O  O57  1  0.66296131  0.16399593  0.43208753  1
  O  O58  1  0.48571890  0.33337641  0.43270685  1
  O  O59  1  0.83986679  0.50003878  0.43792958  1
  O  O60  1  0.31941629  0.49969405  0.07487292  1
  O  O61  1  0.17701202  0.68005319  0.07078981  1
  O  O62  1  0.51655052  0.83186575  0.07544925  1
  O  O63  1  0.33434725  0.83510132  0.56513910  1
  O  O64  1  0.51594017  0.66898880  0.56556983  1
  O  O65  1  0.16167193  0.49928179  0.56028988  1
  O  O66  1  0.29116160  0.84303510  0.24994202  1
  O  O67  1  0.55169456  0.70947879  0.25141691  1
  O  O68  1  0.16730875  0.45947550  0.24899341  1
  O  O69  1  0.28781604  0.45235711  0.73758059  1
  O  O70  1  0.15514431  0.69354948  0.73741652  1
  O  O71  1  0.53183049  0.83132946  0.73597102  1
loop_
_geom_bond_atom_site_label_1
_geom_bond_atom_site_label_2
_geom_bond_distance
_geom_bond_site_symmetry_2
Na0 O52 2.407139 1_555
Na0 O31 2.426938 1_545
Na0 O67 2.440528 1_545
Na0 O16 2.709618 1_555
Na0 O66 2.722306 1_545
Na0 O53 2.725757 1_555
Na1 O68 2.383518 1_555
Na1 O53 2.446387 1_555
Na1 O32 2.479558 1_555
Na1 O17 2.688452 1_555
Na1 O67 2.730714 1_555
Na1 O51 2.752021 1_555
Na2 O66 2.439641 1_555
Na2 O30 2.459441 1_555
Na2 O51 2.469894 1_455
Na2 O68 2.628193 1_555
Na2 O52 2.655513 1_455
Na2 O15 2.678256 1_455
Na3 O14 2.346460 1_555
Na3 O50 2.487404 1_555
Na3 O71 2.489676 1_555
Na3 O49 2.559352 1_555
Na3 O35 2.672526 1_555
Na3 O69 2.817949 1_555
Na4 O12 2.375471 1_555
Na4 O48 2.469877 1_555
Na4 O69 2.485538 1_655
Na4 O50 2.561992 1_555
Na4 O70 2.664591 1_655
Na4 O33 2.818634 1_655
Na5 O13 2.326384 1_555
Na5 O48 2.502204 1_555
Na5 O70 2.578909 1_545
Na5 O49 2.599171 1_555
Na5 O71 2.652195 1_545
Na5 O34 2.796711 1_545
Na6 O43 2.448656 1_555
Na6 O63 2.501366 1_555
Na6 O44 2.617933 1_455
Na6 O65 2.718634 1_555
Na6 O8 2.757512 1_555
Na6 O12 2.823009 1_455
Na6 O22 2.910085 1_455
Na6 O29 2.968394 1_555
Na7 O64 2.417121 1_555
Na7 O44 2.574901 1_555
Na7 O63 2.646330 1_555
Na7 O42 2.658865 1_565
Na7 O27 2.793900 1_555
Na7 O13 2.832367 1_565
Na7 O6 2.881891 1_565
Na7 O23 2.922706 1_565
Na8 O46 2.381169 1_555
Na8 O62 2.426187 1_555
Na8 O19 2.708837 1_555
Na8 O45 2.711005 1_655
Na8 O17 2.754507 1_555
Na8 O9 2.806326 1_555
Na8 O60 2.871595 1_555
Na8 O24 2.921744 1_554
Na9 O47 2.384875 1_555
Na9 O60 2.396111 1_555
Na9 O15 2.664395 1_455
Na9 O61 2.768721 1_555
Na9 O10 2.867316 1_455
Na9 O25 2.875508 1_554
Na9 O20 2.884323 1_455
Na9 O46 2.895432 1_445
Na10 O19 2.427586 1_556
Na10 O54 2.475786 1_555
Na10 O40 2.568304 1_655
Na10 O55 2.631723 1_555
Na10 O41 2.644470 1_555
Na10 O4 2.922806 1_555
Na11 O56 2.499040 1_555
Na11 O55 2.504190 1_555
Na11 O41 2.505043 1_545
Na11 O20 2.567938 1_556
Na11 O5 2.719876 1_555
Na11 O39 2.764457 1_655
Na12 O18 2.371376 1_556
Na12 O39 2.480628 1_555
Na12 O54 2.527666 1_555
Na12 O56 2.618198 1_555
Na12 O40 2.706334 1_545
Na12 O3 2.833733 1_555
Na13 O57 2.523330 1_555
Na13 O37 2.527123 1_545
Na13 O38 2.633584 1_655
Na13 O59 2.659123 1_555
Na13 O2 2.784796 1_555
Na13 O30 2.800385 1_655
Na13 O28 2.898437 1_655
Na13 O23 2.926186 1_555
Na14 O58 2.457371 1_555
Na14 O38 2.529359 1_555
Na14 O36 2.554905 1_545
Na14 O57 2.697570 1_555
Na14 O0 2.737388 1_555
Na14 O21 2.859896 1_555
Na14 O31 2.888363 1_545
Na14 O29 2.930916 1_545
Na15 O43 2.501559 1_555
Na15 O44 2.502080 1_455
Na15 O38 2.518829 1_565
Na15 O36 2.522878 1_555
Na15 O42 2.548058 1_465
Na15 O37 2.585882 1_455
Na16 O40 2.444456 1_554
Na16 O41 2.485501 1_454
Na16 O45 2.517929 1_555
Na16 O47 2.558488 1_565
Na16 O39 2.608592 1_564
Na16 O46 2.609347 1_455
Na17 O54 2.580412 1_555
Na17 O48 2.629947 1_555
Na17 O50 2.687955 1_555
Na17 O56 2.702858 1_555
Na17 O55 2.728838 1_555
Na17 O49 2.762111 1_555
Na18 O52 2.606991 1_555
Na18 O51 2.626221 1_555
Na18 O59 2.634800 1_555
Na18 O57 2.642190 1_555
Na18 O58 2.666124 1_555
Na18 O53 2.800081 1_555
Na19 O61 2.505610 1_555
Na19 O60 2.524934 1_555
Na19 O62 2.577511 1_555
Na19 O68 2.629195 1_555
Na19 O66 2.657252 1_555
Na19 O67 2.814379 1_555
Na20 O71 2.481916 1_555
Na20 O69 2.484975 1_555
Na20 O70 2.591592 1_555
Na20 O64 2.640451 1_555
Na20 O63 2.683028 1_555
Na20 O65 2.691280 1_555
La0 O5 2.225437 1_565
La0 O4 2.301427 1_555
La0 O3 2.348604 1_665
La0 O41 2.390703 1_555
La0 O39 2.487670 1_665
La0 O40 2.523206 1_655
La1 O13 2.303767 1_555
La1 O12 2.334885 1_555
La1 O48 2.398763 1_555
La1 O14 2.405555 1_555
La1 O49 2.482580 1_555
La1 O50 2.503691 1_555
La2 O15 2.312617 1_555
La2 O17 2.325791 1_555
La2 O16 2.367838 1_555
La2 O52 2.407200 1_555
La2 O53 2.478036 1_555
La2 O51 2.493114 1_555
La3 O18 2.267126 1_556
La3 O19 2.313258 1_556
La3 O54 2.339640 1_555
La3 O20 2.402401 1_556
La3 O56 2.439349 1_555
La3 O55 2.466180 1_555
La4 O30 2.320685 1_555
La4 O31 2.321072 1_555
La4 O32 2.369247 1_555
La4 O68 2.463715 1_555
La4 O67 2.536299 1_555
La4 O66 2.569777 1_555
La5 O35 2.226573 1_555
La5 O34 2.318378 1_555
La5 O33 2.355223 1_555
La5 O71 2.395595 1_555
La5 O69 2.502156 1_555
La5 O70 2.512197 1_555
O0 P0 1.549484 1_555
O0 Ti0 2.082005 1_445
O1 P1 1.578240 1_555
O1 Ti0 1.905255 1_555
O2 Si0 1.680858 1_555
O2 Ti0 1.867977 1_545
O3 P2 1.538288 1_555
O4 P3 1.547806 1_555
O5 Si1 1.628240 1_555
O6 Si1 1.705254 1_555
O6 Ti1 1.860715 1_655
O7 P2 1.568674 1_555
O7 Ti1 1.930156 1_555
O8 P3 1.549338 1_455
O8 Ti1 2.097314 1_565
O9 P1 1.532290 1_555
O9 Ti2 2.075370 1_665
O10 Si0 1.643874 1_555
O10 Ti2 1.898083 1_655
O11 P0 1.552821 1_555
O11 Ti2 1.925424 1_555
O12 Si2 1.614738 1_555
O13 Si3 1.615723 1_555
O14 P4 1.541197 1_555
O15 Si4 1.640166 1_555
O16 P5 1.546263 1_555
O17 Si5 1.637673 1_555
O18 Si5 1.607293 1_555
O19 Si4 1.626561 1_555
O20 P5 1.543217 1_555
O21 Si3 1.665882 1_555
O21 Ti3 1.941830 1_555
O22 P4 1.554008 1_555
O22 Ti3 2.104237 1_555
O23 Si2 1.675069 1_555
O23 Ti3 1.928286 1_555
O24 Si6 1.678348 1_555
O24 Ti4 1.894751 1_556
O25 P6 1.544581 1_555
O25 Ti4 2.010931 1_556
O26 P7 1.540286 1_555
O26 Ti4 2.008059 1_556
O27 Si7 1.641412 1_555
O27 Ti5 1.953125 1_555
O28 P8 1.544459 1_555
O28 Ti5 2.096571 1_555
O29 Si8 1.674227 1_555
O29 Ti5 1.909307 1_555
O30 Si8 1.629478 1_555
O31 Si7 1.623458 1_555
O32 P8 1.553031 1_555
O33 P6 1.539140 1_555
O34 P7 1.545227 1_555
O35 Si6 1.626625 1_555
O36 Si8 1.636331 1_555
O36 Ti0 2.051211 1_455
O37 Si7 1.664975 1_555
O37 Ti0 1.953045 1_555
O38 P8 1.573284 1_555
O38 Ti0 2.239781 1_445
O39 P6 1.540514 1_555
O40 P7 1.537078 1_555
O41 Si6 1.627243 1_555
O42 Si2 1.660495 1_555
O42 Ti1 1.957548 1_655
O43 Si3 1.638982 1_565
O43 Ti1 2.071029 1_565
O44 P4 1.575356 1_555
O44 Ti1 2.227541 1_665
O45 Si4 1.642814 1_455
O45 Ti2 1.907769 1_565
O46 P5 1.548939 1_565
O46 Ti2 2.070897 1_665
O47 Si5 1.645353 1_555
O47 Ti2 1.899563 1_555
O48 Si1 1.626434 1_555
O49 P2 1.534841 1_555
O50 P3 1.537898 1_555
O51 P1 1.551684 1_555
O52 Si0 1.635417 1_555
O53 P0 1.550883 1_555
O54 Si6 1.633001 1_555
O55 P6 1.537753 1_655
O56 P7 1.537732 1_545
O57 Si7 1.667525 1_545
O57 Ti3 1.956334 1_555
O58 P8 1.548570 1_555
O58 Ti3 2.140396 1_555
O59 Si8 1.660416 1_655
O59 Ti3 1.955316 1_555
O60 Si5 1.651599 1_555
O60 Ti4 1.936656 1_555
O61 Si4 1.641382 1_455
O61 Ti4 1.926040 1_555
O62 P5 1.543902 1_565
O62 Ti4 2.066770 1_555
O63 Si3 1.668728 1_565
O63 Ti5 1.928386 1_555
O64 P4 1.542501 1_555
O64 Ti5 2.148749 1_555
O65 Si2 1.647111 1_455
O65 Ti5 1.937721 1_555
O66 P0 1.555044 1_565
O67 P1 1.545758 1_555
O68 Si0 1.634089 1_455
O69 P2 1.537606 1_555
O70 P3 1.539408 1_455
O71 Si1 1.627948 1_565
