# generated using pymatgen
data_FeAg2SnS4
_symmetry_space_group_name_H-M   'P 1'
_cell_length_a   7.13804428
_cell_length_b   7.13804428
_cell_length_c   7.13804428
_cell_angle_alpha   133.78205268
_cell_angle_beta   133.78205268
_cell_angle_gamma   67.42862045
_symmetry_Int_Tables_number   1
_chemical_formula_structural   FeAg2SnS4
_chemical_formula_sum   'Fe1 Ag2 Sn1 S4'
_cell_volume   186.40707112
_cell_formula_units_Z   1
loop_
 _symmetry_equiv_pos_site_id
 _symmetry_equiv_pos_as_xyz
  1  'x, y, z'
loop_
 _atom_site_type_symbol
 _atom_site_label
 _atom_site_symmetry_multiplicity
 _atom_site_fract_x
 _atom_site_fract_y
 _atom_site_fract_z
 _atom_site_occupancy
  Fe  Fe0  1  0.00000000  0.00000000  0.00000000  1
  Ag  Ag0  1  0.25000000  0.75000000  0.50000000  1
  Ag  Ag1  1  0.75000000  0.25000000  0.50000000  1
  Sn  Sn0  1  0.50000000  0.50000000  0.00000000  1
  S  S0  1  0.87998300  0.87998300  0.53110600  1
  S  S1  1  0.12001700  0.65112300  0.00000000  1
  S  S2  1  0.65112300  0.12001700  0.00000000  1
  S  S3  1  0.34887700  0.34887700  0.46889400  1
loop_
_geom_bond_atom_site_label_1
_geom_bond_atom_site_label_2
_geom_bond_distance
_geom_bond_site_symmetry_2
Fe0 S0 2.301685 1_444
Fe0 S1 2.301685 1_545
Fe0 S3 2.301685 1_555
Fe0 S2 2.301685 1_455
Ag0 S3 2.555643 1_555
Ag0 S1 2.555643 1_555
Ag0 S0 2.555643 1_455
Ag0 S2 2.555643 1_566
Ag1 S1 2.555643 1_656
Ag1 S3 2.555643 1_555
Ag1 S0 2.555643 1_545
Ag1 S2 2.555643 1_555
S0 Sn0 2.504859 1_555
S1 Sn0 2.504859 1_555
S2 Sn0 2.504859 1_555
S3 Sn0 2.504859 1_556
