# generated using pymatgen
data_MgCo4NiO8
_symmetry_space_group_name_H-M   'P 1'
_cell_length_a   5.76103295
_cell_length_b   5.86457040
_cell_length_c   5.92882819
_cell_angle_alpha   92.10032326
_cell_angle_beta   62.18894155
_cell_angle_gamma   60.25045743
_symmetry_Int_Tables_number   1
_chemical_formula_structural   MgCo4NiO8
_chemical_formula_sum   'Mg1 Co4 Ni1 O8'
_cell_volume   144.13893192
_cell_formula_units_Z   1
loop_
 _symmetry_equiv_pos_site_id
 _symmetry_equiv_pos_as_xyz
  1  'x, y, z'
loop_
 _atom_site_type_symbol
 _atom_site_label
 _atom_site_symmetry_multiplicity
 _atom_site_fract_x
 _atom_site_fract_y
 _atom_site_fract_z
 _atom_site_occupancy
  Mg  Mg0  1  0.51787500  0.01049300  0.49577400  1
  Co  Co0  1  0.01488000  0.50787700  0.49560000  1
  Co  Co1  1  0.01689000  0.00863900  0.99414400  1
  Co  Co2  1  0.51758800  0.00938000  0.99533200  1
  Co  Co3  1  0.01746900  0.50915200  0.99527500  1
  Ni  Ni0  1  0.51564300  0.51066500  0.99767600  1
  O  O0  1  0.47119900  0.26052100  0.79363000  1
  O  O1  1  0.01694400  0.27482200  0.76854900  1
  O  O2  1  0.49792200  0.78334400  0.76943700  1
  O  O3  1  0.98430800  0.75412800  0.78616100  1
  O  O4  1  0.05094300  0.26284200  0.20312300  1
  O  O5  1  0.53601400  0.23596500  0.22208100  1
  O  O6  1  0.01695500  0.74386100  0.22257700  1
  O  O7  1  0.56346600  0.75926100  0.19814100  1
loop_
_geom_bond_atom_site_label_1
_geom_bond_atom_site_label_2
_geom_bond_distance
_geom_bond_site_symmetry_2
Mg0 O0 2.077665 1_555
Mg0 O6 2.083849 1_645
Mg0 O7 2.084842 1_545
Mg0 O1 2.090059 1_555
Mg0 O5 2.128063 1_555
Mg0 O2 2.134633 1_545
Co0 O4 2.073646 1_555
Co0 O3 2.089583 1_455
Co0 O2 2.153265 1_455
Co0 O1 2.156602 1_555
Co0 O6 2.167538 1_555
Co0 O5 2.168517 1_555
Co1 O5 1.996896 1_456
Co1 O2 1.998137 1_545
Co1 O3 2.035368 1_445
Co1 O4 2.043951 1_556
Co1 O1 2.092595 1_555
Co1 O6 2.097498 1_546
Co2 O0 1.925467 1_555
Co2 O7 1.925712 1_546
Co2 O2 1.929837 1_545
Co2 O5 1.930426 1_556
Co2 O4 1.940117 1_556
Co2 O3 1.940722 1_545
Co3 O0 1.887268 1_555
Co3 O7 1.888646 1_456
Co3 O6 1.888665 1_556
Co3 O1 1.888915 1_555
Co3 O3 1.927910 1_455
Co3 O4 1.928237 1_556
Ni0 O7 2.047230 1_556
Ni0 O0 2.052517 1_555
Ni0 O6 2.072356 1_556
Ni0 O1 2.082378 1_655
Ni0 O5 2.119995 1_556
Ni0 O2 2.127043 1_555
