# generated using pymatgen
data_Dy2Si3Pd
_symmetry_space_group_name_H-M   'P 1'
_cell_length_a   8.11476810
_cell_length_b   8.11476683
_cell_length_c   8.12218942
_cell_angle_alpha   89.99994295
_cell_angle_beta   90.00005302
_cell_angle_gamma   119.99991127
_symmetry_Int_Tables_number   1
_chemical_formula_structural   Dy2Si3Pd
_chemical_formula_sum   'Dy8 Si12 Pd4'
_cell_volume   463.18692592
_cell_formula_units_Z   4
loop_
 _symmetry_equiv_pos_site_id
 _symmetry_equiv_pos_as_xyz
  1  'x, y, z'
loop_
 _atom_site_type_symbol
 _atom_site_label
 _atom_site_symmetry_multiplicity
 _atom_site_fract_x
 _atom_site_fract_y
 _atom_site_fract_z
 _atom_site_occupancy
  Dy  Dy0  1  0.50008102  0.00016265  0.25000006  1
  Dy  Dy1  1  0.49986497  -0.00027075  0.74999986  1
  Dy  Dy2  1  -0.00016243  0.49991984  0.24999982  1
  Dy  Dy3  1  0.00027016  0.50013498  0.74999962  1
  Dy  Dy4  1  0.50008013  0.49991945  0.24999988  1
  Dy  Dy5  1  0.49986359  0.50013554  0.74999987  1
  Dy  Dy6  1  0.00000040  -0.00000046  0.24999989  1
  Dy  Dy7  1  0.00000063  0.00000002  0.74999984  1
  Si  Si0  1  0.16588778  0.33177487  -0.00005912  1
  Si  Si1  1  0.83410249  0.66820474  0.00006127  1
  Si  Si2  1  0.66822506  0.83411203  -0.00005895  1
  Si  Si3  1  0.83410311  0.66820439  0.49993895  1
  Si  Si4  1  0.33179587  0.16589752  0.00006139  1
  Si  Si5  1  0.16588823  0.33177549  0.50005888  1
  Si  Si6  1  0.16588731  0.83411279  -0.00005982  1
  Si  Si7  1  0.33179605  0.16589767  0.49993904  1
  Si  Si8  1  0.83410062  0.16589931  0.00005929  1
  Si  Si9  1  0.66822435  0.83411233  0.50005892  1
  Si  Si10  1  0.83410058  0.16589832  0.49994090  1
  Si  Si11  1  0.16588715  0.83411302  0.50006009  1
  Pd  Pd0  1  0.33333343  0.66666620  0.00039709  1
  Pd  Pd1  1  0.66666763  0.33333215  -0.00039609  1
  Pd  Pd2  1  0.66666756  0.33333367  0.50039498  1
  Pd  Pd3  1  0.33333331  0.66666623  0.49960231  1
loop_
_geom_bond_atom_site_label_1
_geom_bond_atom_site_label_2
_geom_bond_distance
_geom_bond_site_symmetry_2
Dy0 Pd3 3.098845 1_545
Dy0 Pd0 3.098851 1_545
Dy0 Pd1 3.101333 1_555
Dy0 Pd2 3.101336 1_555
Dy0 Si4 3.103430 1_555
Dy0 Si7 3.103435 1_555
Dy0 Si10 3.103443 1_555
Dy0 Si8 3.103444 1_555
Dy0 Si9 3.104986 1_545
Dy0 Si6 3.104995 1_545
Dy0 Si2 3.104995 1_545
Dy0 Si11 3.104998 1_545
Dy1 Pd1 3.099423 1_556
Dy1 Pd2 3.099433 1_555
Dy1 Pd0 3.100774 1_546
Dy1 Pd3 3.100777 1_545
Dy1 Si9 3.103216 1_545
Dy1 Si11 3.103218 1_545
Dy1 Si2 3.103219 1_546
Dy1 Si6 3.103221 1_546
Dy1 Si10 3.105212 1_555
Dy1 Si8 3.105214 1_556
Dy1 Si7 3.105227 1_555
Dy1 Si4 3.105234 1_556
Dy2 Pd3 3.098843 1_555
Dy2 Pd0 3.098847 1_555
Dy2 Pd2 3.101332 1_455
Dy2 Pd1 3.101334 1_455
Dy2 Si1 3.103429 1_455
Dy2 Si3 3.103431 1_455
Dy2 Si8 3.103447 1_455
Dy2 Si10 3.103454 1_455
Dy2 Si6 3.104989 1_555
Dy2 Si5 3.104994 1_555
Dy2 Si11 3.104996 1_555
Dy2 Si0 3.104998 1_555
Dy3 Pd1 3.099422 1_456
Dy3 Pd2 3.099423 1_455
Dy3 Pd0 3.100777 1_556
Dy3 Pd3 3.100777 1_555
Dy3 Si11 3.103217 1_555
Dy3 Si5 3.103221 1_555
Dy3 Si0 3.103222 1_556
Dy3 Si6 3.103223 1_556
Dy3 Si8 3.105214 1_456
Dy3 Si10 3.105217 1_455
Dy3 Si3 3.105221 1_455
Dy3 Si1 3.105235 1_456
Dy4 Pd0 3.098829 1_555
Dy4 Pd3 3.098832 1_555
Dy4 Pd2 3.101344 1_555
Dy4 Pd1 3.101360 1_555
Dy4 Si4 3.103444 1_555
Dy4 Si7 3.103445 1_555
Dy4 Si1 3.103447 1_555
Dy4 Si3 3.103451 1_555
Dy4 Si5 3.104982 1_555
Dy4 Si2 3.104983 1_555
Dy4 Si0 3.104983 1_555
Dy4 Si9 3.104988 1_555
Dy5 Pd2 3.099441 1_555
Dy5 Pd1 3.099442 1_556
Dy5 Pd3 3.100761 1_555
Dy5 Pd0 3.100762 1_556
Dy5 Si5 3.103211 1_555
Dy5 Si0 3.103215 1_556
Dy5 Si9 3.103218 1_555
Dy5 Si2 3.103220 1_556
Dy5 Si7 3.105234 1_555
Dy5 Si4 3.105237 1_556
Dy5 Si1 3.105241 1_556
Dy5 Si3 3.105244 1_555
Dy6 Si1 3.091606 1_445
Dy6 Si3 3.091608 1_445
Dy6 Si4 3.091609 1_555
Dy6 Si7 3.091612 1_555
Dy6 Si8 3.091637 1_455
Dy6 Si10 3.091638 1_455
Dy6 Si11 3.092136 1_545
Dy6 Si6 3.092139 1_545
Dy6 Si2 3.092143 1_445
Dy6 Si0 3.092143 1_555
Dy6 Si5 3.092148 1_555
Dy6 Si9 3.092149 1_445
Dy7 Si11 3.091498 1_545
Dy7 Si6 3.091500 1_546
Dy7 Si0 3.091513 1_556
Dy7 Si5 3.091514 1_555
Dy7 Si2 3.091518 1_446
Dy7 Si9 3.091519 1_445
Dy7 Si7 3.092261 1_555
Dy7 Si1 3.092262 1_446
Dy7 Si10 3.092262 1_455
Dy7 Si3 3.092263 1_445
Dy7 Si4 3.092263 1_556
Dy7 Si8 3.092273 1_456
Si0 Si4 2.331653 1_555
Si0 Si8 2.331668 1_455
Si1 Si2 2.331648 1_555
Si1 Si6 2.331652 1_655
Si2 Si8 2.331669 1_565
Si3 Si9 2.331662 1_555
Si4 Si6 2.331651 1_545
Si5 Si7 2.331654 1_555
Si10 Si9 2.331660 1_545
Si10 Si5 2.331672 1_655
Si11 Si3 2.331646 1_455
Si11 Si7 2.331650 1_565
Pd0 Si0 2.353485 1_555
Pd0 Si2 2.353488 1_555
Pd0 Si6 2.353492 1_555
Pd1 Si8 2.353303 1_555
Pd1 Si4 2.353348 1_555
Pd1 Si1 2.353354 1_555
Pd2 Si10 2.353321 1_555
Pd2 Si3 2.353341 1_555
Pd2 Si7 2.353346 1_555
Pd3 Si5 2.353481 1_555
Pd3 Si9 2.353484 1_555
Pd3 Si11 2.353494 1_555
