# generated using pymatgen
data_FePb2(CN)6
_symmetry_space_group_name_H-M   'P 1'
_cell_length_a   7.14527107
_cell_length_b   7.14527107
_cell_length_c   5.81097300
_cell_angle_alpha   90.00000000
_cell_angle_beta   90.00000000
_cell_angle_gamma   119.99999143
_symmetry_Int_Tables_number   1
_chemical_formula_structural   FePb2(CN)6
_chemical_formula_sum   'Fe1 Pb2 C6 N6'
_cell_volume   256.93125947
_cell_formula_units_Z   1
loop_
 _symmetry_equiv_pos_site_id
 _symmetry_equiv_pos_as_xyz
  1  'x, y, z'
loop_
 _atom_site_type_symbol
 _atom_site_label
 _atom_site_symmetry_multiplicity
 _atom_site_fract_x
 _atom_site_fract_y
 _atom_site_fract_z
 _atom_site_occupancy
  Fe  Fe0  1  0.00000000  0.00000000  0.00000000  1
  Pb  Pb0  1  0.66666700  0.33333300  0.43660300  1
  Pb  Pb1  1  0.33333300  0.66666700  0.56339700  1
  C  C0  1  0.23606300  0.18513600  0.81515000  1
  C  C1  1  0.81486400  0.05092700  0.81515000  1
  C  C2  1  0.94907300  0.76393700  0.81515000  1
  C  C3  1  0.05092700  0.23606300  0.18485000  1
  C  C4  1  0.76393700  0.81486400  0.18485000  1
  C  C5  1  0.18513600  0.94907300  0.18485000  1
  N  N0  1  0.69214800  0.07664800  0.70111300  1
  N  N1  1  0.38450000  0.30785200  0.70111300  1
  N  N2  1  0.92335200  0.61550000  0.70111300  1
  N  N3  1  0.30785200  0.92335200  0.29888700  1
  N  N4  1  0.07664800  0.38450000  0.29888700  1
  N  N5  1  0.61550000  0.69214800  0.29888700  1
loop_
_geom_bond_atom_site_label_1
_geom_bond_atom_site_label_2
_geom_bond_distance
_geom_bond_site_symmetry_2
C0 N1 1.184440 1_555
C0 Fe0 1.875506 1_556
C1 N0 1.184440 1_555
C1 Fe0 1.875506 1_656
C2 N2 1.184440 1_555
C2 Fe0 1.875506 1_666
C3 N4 1.184440 1_555
C3 Fe0 1.875506 1_555
C4 N5 1.184440 1_555
C4 Fe0 1.875506 1_665
C5 N3 1.184440 1_555
C5 Fe0 1.875506 1_565
N0 Pb0 2.468501 1_555
N0 Pb1 2.878304 1_545
N1 Pb0 2.468507 1_555
N1 Pb1 2.878308 1_555
N2 Pb0 2.468504 1_555
N2 Pb1 2.878301 1_655
N3 Pb1 2.468501 1_555
N3 Pb0 2.878304 1_565
N4 Pb1 2.468504 1_555
N4 Pb0 2.878301 1_455
N5 Pb1 2.468507 1_555
N5 Pb0 2.878308 1_555
