# generated using pymatgen
data_Ca2Se3O8
_symmetry_space_group_name_H-M   'P 1'
_cell_length_a   5.52447697
_cell_length_b   8.23968812
_cell_length_c   8.72755108
_cell_angle_alpha   92.60643704
_cell_angle_beta   95.99909062
_cell_angle_gamma   97.21121254
_symmetry_Int_Tables_number   1
_chemical_formula_structural   Ca2Se3O8
_chemical_formula_sum   'Ca4 Se6 O16'
_cell_volume   391.28515071
_cell_formula_units_Z   2
loop_
 _symmetry_equiv_pos_site_id
 _symmetry_equiv_pos_as_xyz
  1  'x, y, z'
loop_
 _atom_site_type_symbol
 _atom_site_label
 _atom_site_symmetry_multiplicity
 _atom_site_fract_x
 _atom_site_fract_y
 _atom_site_fract_z
 _atom_site_occupancy
  Ca  Ca0  1  0.29180770  0.16061923  0.96134078  1
  Ca  Ca1  1  0.70819035  0.83938258  0.03865853  1
  Ca  Ca2  1  0.24207379  0.95575934  0.34737197  1
  Ca  Ca3  1  0.75792802  0.04424087  0.65262699  1
  Se  Se0  1  0.82335397  0.19161265  0.23885556  1
  Se  Se1  1  0.17664502  0.80838850  0.76114416  1
  Se  Se2  1  0.22627021  0.55626929  0.18311814  1
  Se  Se3  1  0.77373034  0.44372462  0.81688874  1
  Se  Se4  1  0.27425976  0.32377407  0.57769810  1
  Se  Se5  1  0.72574512  0.67622680  0.42229948  1
  O  O0  1  0.54849017  0.81443325  0.47939836  1
  O  O1  1  0.45151210  0.18556548  0.52060062  1
  O  O2  1  0.86786985  0.76603160  0.28060136  1
  O  O3  1  0.13213324  0.23397134  0.71939740  1
  O  O4  1  0.49509249  0.47842681  0.68780649  1
  O  O5  1  0.50491443  0.52157265  0.31219118  1
  O  O6  1  0.68252257  0.25359070  0.86942678  1
  O  O7  1  0.31747026  0.74640641  0.13057785  1
  O  O8  1  0.74808869  0.57264012  0.96300830  1
  O  O9  1  0.25190406  0.42735973  0.03699154  1
  O  O10  1  0.08732164  0.87109273  0.58384778  1
  O  O11  1  0.91267918  0.12890762  0.41615162  1
  O  O12  1  0.45230004  0.92640656  0.82090619  1
  O  O13  1  0.54769959  0.07359447  0.17909367  1
  O  O14  1  0.99098120  0.91719109  0.86037077  1
  O  O15  1  0.00901822  0.08281050  0.13962864  1
loop_
_geom_bond_atom_site_label_1
_geom_bond_atom_site_label_2
_geom_bond_distance
_geom_bond_site_symmetry_2
Ca0 O9 2.309802 1_556
Ca0 O3 2.337253 1_555
Ca0 O15 2.370714 1_556
Ca0 O6 2.427372 1_555
Ca0 O13 2.437458 1_556
Ca0 O14 2.501573 1_445
Ca0 O12 2.540515 1_545
Ca1 O8 2.309809 1_554
Ca1 O2 2.337255 1_555
Ca1 O14 2.370719 1_554
Ca1 O7 2.427427 1_555
Ca1 O12 2.437447 1_554
Ca1 O15 2.501576 1_665
Ca1 O13 2.540508 1_565
Ca2 O0 2.399685 1_555
Ca2 O10 2.413940 1_555
Ca2 O2 2.431279 1_455
Ca2 O1 2.456395 1_565
Ca2 O15 2.462513 1_565
Ca2 O13 2.487343 1_565
Ca2 O11 2.551357 1_465
Ca2 O7 2.603339 1_555
Ca3 O1 2.399676 1_555
Ca3 O11 2.413934 1_555
Ca3 O3 2.431296 1_655
Ca3 O0 2.456402 1_545
Ca3 O14 2.462503 1_545
Ca3 O12 2.487354 1_545
Ca3 O10 2.551351 1_645
Ca3 O6 2.603373 1_555
O0 Se5 1.683572 1_555
O1 Se4 1.683571 1_555
O2 Se5 1.683369 1_555
O3 Se4 1.683375 1_555
O4 Se4 1.813541 1_555
O4 Se3 1.870233 1_555
O5 Se5 1.813542 1_555
O5 Se2 1.870205 1_555
O6 Se3 1.683437 1_555
O7 Se2 1.683458 1_555
O8 Se3 1.651370 1_555
O9 Se2 1.651375 1_555
O10 Se1 1.697615 1_555
O11 Se0 1.697617 1_555
O12 Se1 1.718372 1_555
O13 Se0 1.718370 1_555
O14 Se1 1.718033 1_655
O15 Se0 1.718034 1_455
