# generated using pymatgen
data_YFeO3
_symmetry_space_group_name_H-M   'P 1'
_cell_length_a   5.28770643
_cell_length_b   5.61975183
_cell_length_c   7.62414026
_cell_angle_alpha   90.00052352
_cell_angle_beta   89.98426248
_cell_angle_gamma   90.00015988
_symmetry_Int_Tables_number   1
_chemical_formula_structural   YFeO3
_chemical_formula_sum   'Y4 Fe4 O12'
_cell_volume   226.55587770
_cell_formula_units_Z   4
loop_
 _symmetry_equiv_pos_site_id
 _symmetry_equiv_pos_as_xyz
  1  'x, y, z'
loop_
 _atom_site_type_symbol
 _atom_site_label
 _atom_site_symmetry_multiplicity
 _atom_site_fract_x
 _atom_site_fract_y
 _atom_site_fract_z
 _atom_site_occupancy
  Y  Y0  1  0.51888285  0.42877395  0.25003386  1
  Y  Y1  1  0.01888425  0.07122866  0.75003902  1
  Y  Y2  1  0.98111575  0.92877134  0.24996098  1
  Y  Y3  1  0.48111715  0.57122605  0.74996614  1
  Fe  Fe0  1  0.50000000  -0.00000000  -0.00000000  1
  Fe  Fe1  1  -0.00000000  0.50000000  -0.00000000  1
  Fe  Fe2  1  -0.00000000  0.50000000  0.50000000  1
  Fe  Fe3  1  0.50000000  -0.00000000  0.50000000  1
  O  O0  1  0.19028013  0.80656140  0.94115127  1
  O  O1  1  0.69032732  0.69353336  0.05891498  1
  O  O2  1  0.30970214  0.30655127  0.55886702  1
  O  O3  1  0.80964720  0.19354543  0.44107094  1
  O  O4  1  0.80971987  0.19343860  0.05884873  1
  O  O5  1  0.30967268  0.30646664  0.94108502  1
  O  O6  1  0.69029786  0.69344873  0.44113298  1
  O  O7  1  0.19035280  0.80645457  0.55892906  1
  O  O8  1  0.61527972  0.95818357  0.75002592  1
  O  O9  1  0.11528065  0.54181624  0.25004282  1
  O  O10  1  0.88471935  0.45818376  0.74995718  1
  O  O11  1  0.38472028  0.04181643  0.24997408  1
loop_
_geom_bond_atom_site_label_1
_geom_bond_atom_site_label_2
_geom_bond_distance
_geom_bond_site_symmetry_2
Fe0 O11 2.014538 1_555
Fe0 O8 2.014538 1_544
Fe0 O0 2.016312 1_544
Fe0 O4 2.016312 1_555
Fe0 O5 2.044765 1_554
Fe0 O1 2.044765 1_545
Fe1 O10 2.015352 1_454
Fe1 O9 2.015352 1_555
Fe1 O1 2.016313 1_455
Fe1 O5 2.016313 1_554
Fe1 O0 2.044854 1_554
Fe1 O4 2.044854 1_455
Fe2 O10 2.014421 1_455
Fe2 O9 2.014421 1_555
Fe2 O2 2.016307 1_555
Fe2 O6 2.016307 1_455
Fe2 O3 2.044786 1_455
Fe2 O7 2.044786 1_555
Fe3 O11 2.015233 1_555
Fe3 O8 2.015233 1_545
Fe3 O3 2.016264 1_555
Fe3 O7 2.016264 1_545
Fe3 O6 2.044880 1_545
Fe3 O2 2.044880 1_555
O0 Y1 2.270998 1_565
O0 Y3 2.497499 1_555
O0 Y2 2.690111 1_456
O1 Y0 2.271149 1_555
O1 Y2 2.496920 1_555
O1 Y3 2.691809 1_554
O2 Y3 2.270981 1_555
O2 Y1 2.497349 1_555
O2 Y0 2.690331 1_555
O3 Y2 2.271196 1_545
O3 Y0 2.496792 1_555
O3 Y1 2.692022 1_655
O4 Y2 2.270998 1_545
O4 Y0 2.497499 1_555
O4 Y1 2.690111 1_654
O5 Y3 2.271149 1_555
O5 Y1 2.496920 1_555
O5 Y0 2.691809 1_556
O6 Y0 2.270981 1_555
O6 Y2 2.497349 1_555
O6 Y3 2.690331 1_555
O7 Y1 2.271196 1_565
O7 Y3 2.496792 1_555
O7 Y2 2.692022 1_455
O8 Y1 2.226689 1_665
O8 Y3 2.287393 1_555
O9 Y0 2.226676 1_555
O9 Y2 2.287387 1_455
O10 Y3 2.226676 1_555
O10 Y1 2.287387 1_655
O11 Y2 2.226689 1_445
O11 Y0 2.287393 1_555
