# generated using pymatgen
data_Mn2VGa
_symmetry_space_group_name_H-M   'P 1'
_cell_length_a   4.28346022
_cell_length_b   4.28345990
_cell_length_c   4.28346057
_cell_angle_alpha   59.99999478
_cell_angle_beta   59.99999720
_cell_angle_gamma   59.99999572
_symmetry_Int_Tables_number   1
_chemical_formula_structural   Mn2VGa
_chemical_formula_sum   'Mn2 V1 Ga1'
_cell_volume   55.57368295
_cell_formula_units_Z   1
loop_
 _symmetry_equiv_pos_site_id
 _symmetry_equiv_pos_as_xyz
  1  'x, y, z'
loop_
 _atom_site_type_symbol
 _atom_site_label
 _atom_site_symmetry_multiplicity
 _atom_site_fract_x
 _atom_site_fract_y
 _atom_site_fract_z
 _atom_site_occupancy
  Mn  Mn0  1  0.25000000  0.25000000  0.25000000  1
  Mn  Mn1  1  0.75000000  0.75000000  0.75000000  1
  V  V0  1  0.50000000  0.50000000  0.50000000  1
  Ga  Ga0  1  0.00000000  0.00000000  0.00000000  1
loop_
_geom_bond_atom_site_label_1
_geom_bond_atom_site_label_2
_geom_bond_distance
_geom_bond_site_symmetry_2
Mn0 V0 2.623073 1_545
Mn0 V0 2.623073 1_455
Mn0 V0 2.623073 1_554
Mn0 V0 2.623073 1_555
Mn1 V0 2.623073 1_565
Mn1 V0 2.623073 1_655
Mn1 V0 2.623073 1_556
Mn1 V0 2.623073 1_555
Ga0 Mn1 2.623073 1_454
Ga0 Mn0 2.623073 1_545
Ga0 Mn1 2.623073 1_544
Ga0 Mn0 2.623073 1_455
Ga0 Mn0 2.623073 1_554
Ga0 Mn1 2.623073 1_445
Ga0 Mn1 2.623073 1_444
Ga0 Mn0 2.623073 1_555
