# generated using pymatgen
data_Na15Ca7Ta5(PO4)18
_symmetry_space_group_name_H-M   'P 1'
_cell_length_a   9.21053580
_cell_length_b   9.18252283
_cell_length_c   22.52098351
_cell_angle_alpha   89.93590792
_cell_angle_beta   90.02600280
_cell_angle_gamma   120.01574781
_symmetry_Int_Tables_number   1
_chemical_formula_structural   Na15Ca7Ta5(PO4)18
_chemical_formula_sum   'Na15 Ca7 Ta5 P18 O72'
_cell_volume   1649.28490009
_cell_formula_units_Z   1
loop_
 _symmetry_equiv_pos_site_id
 _symmetry_equiv_pos_as_xyz
  1  'x, y, z'
loop_
 _atom_site_type_symbol
 _atom_site_label
 _atom_site_symmetry_multiplicity
 _atom_site_fract_x
 _atom_site_fract_y
 _atom_site_fract_z
 _atom_site_occupancy
  Na  Na0  1  0.98068265  0.64334207  0.24156701  1
  Na  Na1  1  0.66674426  0.65433029  0.74916630  1
  Na  Na2  1  0.98829102  0.33300720  0.75025342  1
  Na  Na3  1  0.34533209  0.01179926  0.75053931  1
  Na  Na4  1  0.29548478  0.33786848  0.58179086  1
  Na  Na5  1  0.04560935  0.70596175  0.58219681  1
  Na  Na6  1  0.65816741  0.95689804  0.58220325  1
  Na  Na7  1  0.65065385  0.67399707  0.07640995  1
  Na  Na8  1  0.31419817  0.01001625  0.40709696  1
  Na  Na9  1  0.98232856  0.99863605  0.49448058  1
  Na  Na10  1  0.01770570  0.01514775  0.98893647  1
  Na  Na11  1  0.66766584  0.33422119  0.83546423  1
  Na  Na12  1  0.66001691  0.32592745  0.32373729  1
  Na  Na13  1  0.32698095  0.67012700  0.15703330  1
  Na  Na14  1  0.33339746  0.66707179  0.66340604  1
  Ca  Ca0  1  0.99419336  0.00470288  0.35216068  1
  Ca  Ca1  1  0.99853929  0.99854177  0.85314618  1
  Ca  Ca2  1  0.00002851  0.00026044  0.65123560  1
  Ca  Ca3  1  0.66678530  0.33285921  0.68401902  1
  Ca  Ca4  1  0.66064200  0.32144379  0.18606365  1
  Ca  Ca5  1  0.32600570  0.66740880  0.01892013  1
  Ca  Ca6  1  0.33525507  0.66350898  0.51153988  1
  Ta  Ta0  1  0.00277086  0.00821328  0.14691543  1
  Ta  Ta1  1  0.66587846  0.32911948  0.98280177  1
  Ta  Ta2  1  0.67093543  0.33846808  0.47707751  1
  Ta  Ta3  1  0.33762213  0.66269559  0.31376745  1
  Ta  Ta4  1  0.33245154  0.66642766  0.82502669  1
  P  P0  1  0.28646147  0.98445982  0.25406320  1
  P  P1  1  0.70174448  0.71489312  0.24978194  1
  P  P2  1  0.01717494  0.30530721  0.25132728  1
  P  P3  1  0.30502917  0.31693643  0.74958444  1
  P  P4  1  0.01276808  0.69478875  0.74945858  1
  P  P5  1  0.68227457  0.98672565  0.74950800  1
  P  P6  1  0.95783915  0.32721614  0.58117249  1
  P  P7  1  0.36911714  0.04243055  0.57960584  1
  P  P8  1  0.67337546  0.63132757  0.58151611  1
  P  P9  1  0.95497432  0.63656946  0.08805071  1
  P  P10  1  0.68322692  0.04395873  0.08480624  1
  P  P11  1  0.36808095  0.31956448  0.08488810  1
  P  P12  1  0.62646151  0.65190680  0.92417602  1
  P  P13  1  0.02486878  0.37279076  0.92205698  1
  P  P14  1  0.34826666  0.97644976  0.92142134  1
  P  P15  1  0.62473078  0.97271930  0.41854611  1
  P  P16  1  0.34835875  0.37391327  0.41836887  1
  P  P17  1  0.03116798  0.65319239  0.41663066  1
  O  O0  1  0.21266888  0.99618100  0.31207668  1
  O  O1  1  0.81023081  0.79192687  0.30299602  1
  O  O2  1  0.99224749  0.20943307  0.30699716  1
  O  O3  1  0.20741909  0.18431504  0.79594442  1
  O  O4  1  0.97743671  0.79096297  0.79627680  1
  O  O5  1  0.81449940  0.02267144  0.79601139  1
  O  O6  1  0.73515848  0.94777512  0.68873750  1
  O  O7  1  0.21303321  0.26546208  0.68878749  1
  O  O8  1  0.05139196  0.78763622  0.68880388  1
  O  O9  1  0.79339857  0.83343253  0.19307492  1
  O  O10  1  0.03412654  0.20227601  0.19614166  1
  O  O11  1  0.15817560  0.96276358  0.20100206  1
  O  O12  1  0.87953011  0.33483198  0.63945260  1
  O  O13  1  0.45808025  0.12410039  0.63723697  1
  O  O14  1  0.66692355  0.54608600  0.63992491  1
  O  O15  1  0.87927375  0.55010839  0.14598399  1
  O  O16  1  0.65942404  0.11584566  0.14059145  1
  O  O17  1  0.47271646  0.34944388  0.13906887  1
  O  O18  1  0.46553216  0.29422025  0.02963549  1
  O  O19  1  0.82578450  0.52935549  0.03512251  1
  O  O20  1  0.70024788  0.16428886  0.02983061  1
  O  O21  1  0.48412009  0.15667967  0.52461242  1
  O  O22  1  0.67157534  0.51242936  0.52773642  1
  O  O23  1  0.84108948  0.32919004  0.52730383  1
  O  O24  1  0.55484235  0.66939863  0.98153444  1
  O  O25  1  0.12280288  0.44780444  0.97686327  1
  O  O26  1  0.32961912  0.88084764  0.97661494  1
  O  O27  1  0.55393116  0.89166121  0.47804062  1
  O  O28  1  0.32852636  0.43776404  0.47777442  1
  O  O29  1  0.12139615  0.67332077  0.47493904  1
  O  O30  1  0.13646565  0.63388090  0.36329833  1
  O  O31  1  0.49399514  0.86003196  0.36695787  1
  O  O32  1  0.36195433  0.50034934  0.36629643  1
  O  O33  1  0.12900213  0.49639909  0.86620156  1
  O  O34  1  0.36370569  0.87051121  0.86569391  1
  O  O35  1  0.49744816  0.63580230  0.87108215  1
  O  O36  1  0.01002783  0.80475079  0.40843334  1
  O  O37  1  0.80006535  0.00543446  0.41101740  1
  O  O38  1  0.20989782  0.19468574  0.40916387  1
  O  O39  1  0.98759168  0.19591088  0.90980850  1
  O  O40  1  0.20834340  0.01346930  0.91025068  1
  O  O41  1  0.80063520  0.79476759  0.91148714  1
  O  O42  1  0.95924368  0.16127075  0.57442428  1
  O  O43  1  0.20047773  0.03843675  0.57339843  1
  O  O44  1  0.83800573  0.79916053  0.57413920  1
  O  O45  1  0.95431809  0.81246854  0.08943491  1
  O  O46  1  0.85926267  0.04539840  0.08899825  1
  O  O47  1  0.19228209  0.14873798  0.09203209  1
  O  O48  1  0.64230208  0.13060890  0.74929195  1
  O  O49  1  0.48794229  0.35500075  0.74941393  1
  O  O50  1  0.86841311  0.51107768  0.74943127  1
  O  O51  1  0.67029766  0.53775526  0.24177282  1
  O  O52  1  0.88370898  0.35406886  0.24235568  1
  O  O53  1  0.46370392  0.12599436  0.24623675  1
  O  O54  1  0.62783717  0.47946012  0.92477113  1
  O  O55  1  0.85297955  0.37537230  0.92498219  1
  O  O56  1  0.52300227  0.14932342  0.92295125  1
  O  O57  1  0.62181986  0.14608735  0.41675665  1
  O  O58  1  0.52064134  0.37218539  0.41811411  1
  O  O59  1  0.85344333  0.48569401  0.41887786  1
  O  O60  1  0.33903090  0.46606681  0.07566968  1
  O  O61  1  0.13155078  0.67108914  0.08014764  1
  O  O62  1  0.54882555  0.86153946  0.07640411  1
  O  O63  1  0.34713611  0.86492953  0.57766574  1
  O  O64  1  0.51795488  0.65192415  0.57844177  1
  O  O65  1  0.13444856  0.48232943  0.57803216  1
  O  O66  1  0.28510950  0.80689447  0.25577310  1
  O  O67  1  0.52526804  0.70820273  0.25921453  1
  O  O68  1  0.19279722  0.48029005  0.25598184  1
  O  O69  1  0.31149637  0.48997452  0.76542667  1
  O  O70  1  0.18090126  0.69066531  0.76410285  1
  O  O71  1  0.51117775  0.81793405  0.76502952  1
loop_
_geom_bond_atom_site_label_1
_geom_bond_atom_site_label_2
_geom_bond_distance
_geom_bond_site_symmetry_2
Na0 O15 2.332685 1_555
Na0 O52 2.340952 1_555
Na0 O66 2.450943 1_655
Na0 O51 2.517891 1_555
Na0 O11 2.703381 1_655
Na0 O1 2.896452 1_555
Na1 O49 2.395463 1_555
Na1 O71 2.567652 1_555
Na1 O14 2.654763 1_555
Na1 O4 2.701292 1_555
Na1 O50 2.761357 1_555
Na1 O6 2.793505 1_555
Na1 O69 2.859596 1_555
Na2 O50 2.387327 1_555
Na2 O69 2.600682 1_655
Na2 O5 2.678823 1_555
Na2 O12 2.691644 1_555
Na2 O48 2.772090 1_555
Na2 O7 2.806208 1_655
Na2 O70 2.864124 1_655
Na2 O33 2.968117 1_655
Na3 O48 2.384767 1_555
Na3 O70 2.571546 1_545
Na3 O3 2.680795 1_555
Na3 O49 2.741538 1_555
Na3 O13 2.752819 1_555
Na3 O8 2.815545 1_545
Na3 O71 2.885767 1_545
Na3 O34 2.940964 1_545
Na4 O65 2.436161 1_555
Na4 O43 2.440341 1_555
Na4 O28 2.477528 1_555
Na4 O7 2.513603 1_555
Na4 O64 2.570700 1_555
Na4 O42 2.687748 1_455
Na5 O63 2.407943 1_555
Na5 O44 2.461327 1_455
Na5 O8 2.508696 1_555
Na5 O65 2.564535 1_555
Na5 O29 2.573800 1_555
Na5 O43 2.652645 1_565
Na6 O64 2.428894 1_555
Na6 O42 2.456744 1_565
Na6 O27 2.491842 1_555
Na6 O6 2.514707 1_555
Na6 O63 2.551466 1_555
Na6 O44 2.697370 1_555
Na7 O24 2.303736 1_554
Na7 O62 2.336930 1_555
Na7 O45 2.442864 1_555
Na7 O60 2.530055 1_555
Na7 O19 2.716268 1_555
Na8 O0 2.312995 1_545
Na8 O38 2.330357 1_555
Na8 O57 2.468724 1_555
Na8 O36 2.473715 1_545
Na9 O42 2.416809 1_565
Na9 O44 2.428849 1_555
Na9 O37 2.541055 1_565
Na9 O43 2.567702 1_665
Na9 O36 2.729961 1_655
Na9 O38 2.747145 1_665
Na10 O40 2.500714 1_555
Na10 O39 2.541905 1_455
Na10 O41 2.663025 1_445
Na10 O47 2.740561 1_556
Na10 O46 2.773989 1_456
Na10 O45 2.798552 1_446
Na11 O56 2.504322 1_555
Na11 O54 2.540593 1_555
Na11 O55 2.544363 1_555
Na11 O50 2.608109 1_555
Na11 O49 2.616192 1_555
Na11 O48 2.624353 1_555
Na12 O53 2.523774 1_555
Na12 O57 2.578967 1_555
Na12 O58 2.626020 1_555
Na12 O51 2.647208 1_555
Na12 O52 2.672181 1_555
Na12 O59 2.702939 1_555
Na13 O61 2.500284 1_555
Na13 O62 2.639099 1_555
Na13 O60 2.664015 1_555
Na13 O66 2.676277 1_555
Na13 O68 2.714842 1_555
Na13 O67 2.848243 1_555
Na14 O63 2.609185 1_555
Na14 O64 2.609678 1_555
Na14 O65 2.612746 1_555
Na14 O70 2.733325 1_555
Na14 O71 2.751821 1_555
Na14 O69 2.761897 1_555
Ca0 O2 2.144401 1_555
Ca0 O1 2.146014 1_545
Ca0 O37 2.228955 1_555
Ca0 O0 2.242688 1_645
Ca0 O38 2.274581 1_655
Ca0 O36 2.293693 1_645
Ca1 O4 2.223937 1_555
Ca1 O5 2.225153 1_565
Ca1 O3 2.232662 1_665
Ca1 O39 2.260818 1_565
Ca1 O41 2.265936 1_555
Ca1 O40 2.267167 1_665
Ca2 O8 2.381526 1_545
Ca2 O7 2.391175 1_555
Ca2 O6 2.392040 1_445
Ca2 O42 2.422561 1_455
Ca2 O44 2.428876 1_445
Ca2 O43 2.440995 1_555
Ca3 O13 2.189948 1_555
Ca3 O14 2.193832 1_555
Ca3 O12 2.193980 1_555
Ca3 O48 2.288242 1_555
Ca3 O50 2.293345 1_555
Ca3 O49 2.293838 1_555
Ca4 O16 2.143873 1_555
Ca4 O17 2.150633 1_555
Ca4 O15 2.246280 1_555
Ca4 O53 2.255551 1_555
Ca4 O52 2.302362 1_555
Ca4 O51 2.314317 1_555
Ca5 O26 2.163487 1_554
Ca5 O25 2.166361 1_554
Ca5 O24 2.261574 1_554
Ca5 O61 2.274472 1_555
Ca5 O60 2.298361 1_555
Ca5 O62 2.325542 1_555
Ca6 O29 2.177938 1_555
Ca6 O28 2.180367 1_555
Ca6 O27 2.188874 1_555
Ca6 O64 2.299908 1_555
Ca6 O65 2.312895 1_555
Ca6 O63 2.335402 1_555
O0 P0 1.501612 1_555
O1 P1 1.492885 1_555
O2 P2 1.481618 1_655
O3 P3 1.511301 1_555
O4 P4 1.512436 1_655
O5 P5 1.512090 1_545
O6 P5 1.553793 1_555
O7 P3 1.554288 1_555
O8 P4 1.553639 1_555
O9 P1 1.614615 1_555
O9 Ta0 2.068076 1_665
O10 P2 1.616999 1_555
O10 Ta0 1.994283 1_555
O11 P0 1.620976 1_555
O11 Ta0 2.074037 1_565
O12 P6 1.516367 1_555
O13 P7 1.518160 1_555
O14 P8 1.515840 1_555
O15 P9 1.504472 1_555
O16 P10 1.486297 1_555
O17 P11 1.492690 1_555
O18 P11 1.618285 1_555
O18 Ta1 2.007405 1_554
O19 P9 1.623356 1_555
O19 Ta1 2.057253 1_554
O20 P10 1.613125 1_555
O20 Ta1 1.997077 1_554
O21 P7 1.625730 1_555
O21 Ta2 2.004311 1_555
O22 P8 1.626049 1_555
O22 Ta2 1.961635 1_555
O23 P6 1.626874 1_555
O23 Ta2 1.968414 1_555
O24 P12 1.495608 1_555
O25 P13 1.480155 1_555
O26 P14 1.480588 1_555
O27 P15 1.512439 1_555
O28 P16 1.508693 1_555
O29 P17 1.514951 1_555
O30 P17 1.608813 1_555
O30 Ta3 2.063441 1_555
O31 P15 1.620289 1_555
O31 Ta3 2.045746 1_555
O32 P16 1.609509 1_555
O32 Ta3 2.000531 1_555
O33 P13 1.642963 1_555
O33 Ta4 1.969824 1_555
O34 P14 1.637967 1_555
O34 Ta4 1.974194 1_555
O35 P12 1.639190 1_555
O35 Ta4 1.972282 1_555
O36 P17 1.509732 1_555
O37 P15 1.497246 1_545
O38 P16 1.509496 1_555
O39 P13 1.508312 1_655
O40 P14 1.509167 1_545
O41 P12 1.506722 1_555
O42 P6 1.538007 1_555
O43 P7 1.541534 1_555
O44 P8 1.537409 1_555
O45 P9 1.618564 1_555
O45 Ta0 2.075535 1_665
O46 P10 1.617526 1_555
O46 Ta0 2.003504 1_655
O47 P11 1.602129 1_555
O47 Ta0 1.996138 1_555
O48 P5 1.538770 1_545
O49 P3 1.539921 1_555
O50 P4 1.539334 1_655
O51 P1 1.513746 1_555
O52 P2 1.517474 1_655
O53 P0 1.504082 1_545
O54 P12 1.589913 1_555
O54 Ta1 2.053303 1_555
O55 P13 1.596573 1_655
O55 Ta1 2.028372 1_555
O56 P14 1.598539 1_545
O56 Ta1 2.025838 1_555
O57 P15 1.605997 1_545
O57 Ta2 2.091908 1_555
O58 P16 1.594824 1_555
O58 Ta2 2.049799 1_555
O59 P17 1.590204 1_655
O59 Ta2 2.023801 1_555
O60 P11 1.511245 1_555
O61 P9 1.503856 1_455
O62 P10 1.516577 1_565
O63 P7 1.539319 1_565
O64 P8 1.536400 1_555
O65 P6 1.536760 1_455
O66 P0 1.624718 1_555
O66 Ta3 2.080713 1_555
O67 P1 1.609765 1_555
O67 Ta3 1.987296 1_555
O68 P2 1.615297 1_555
O68 Ta3 2.011562 1_555
O69 P3 1.600652 1_555
O69 Ta4 2.038619 1_555
O70 P4 1.602039 1_555
O70 Ta4 2.046683 1_555
O71 P5 1.601100 1_555
O71 Ta4 2.043921 1_555
