# generated using pymatgen
data_K3SI
_symmetry_space_group_name_H-M   'P 1'
_cell_length_a   13.94609256
_cell_length_b   13.94609256
_cell_length_c   8.42743958
_cell_angle_alpha   90.00000000
_cell_angle_beta   90.00000000
_cell_angle_gamma   120.00000169
_symmetry_Int_Tables_number   1
_chemical_formula_structural   K3SI
_chemical_formula_sum   'K18 S6 I6'
_cell_volume   1419.48679958
_cell_formula_units_Z   6
loop_
 _symmetry_equiv_pos_site_id
 _symmetry_equiv_pos_as_xyz
  1  'x, y, z'
loop_
 _atom_site_type_symbol
 _atom_site_label
 _atom_site_symmetry_multiplicity
 _atom_site_fract_x
 _atom_site_fract_y
 _atom_site_fract_z
 _atom_site_occupancy
  K  K0  1  0.15369827  1.00000000  0.35203903  1
  K  K1  1  1.00000000  0.15369827  0.35203903  1
  K  K2  1  0.84630173  0.00000000  0.85203903  1
  K  K3  1  0.00000000  0.84630173  0.85203903  1
  K  K4  1  0.84630173  0.84630173  0.35203903  1
  K  K5  1  0.15369827  0.15369827  0.85203903  1
  K  K6  1  0.21855299  0.48715949  0.03402857  1
  K  K7  1  0.51284051  0.73139350  0.03402857  1
  K  K8  1  0.78144701  0.51284051  0.53402857  1
  K  K9  1  0.51284051  0.78144701  0.53402857  1
  K  K10  1  0.26860650  0.78144701  0.03402857  1
  K  K11  1  0.48715949  0.26860650  0.53402857  1
  K  K12  1  0.26860650  0.48715949  0.53402857  1
  K  K13  1  0.48715949  0.21855299  0.03402857  1
  K  K14  1  0.73139350  0.21855299  0.53402857  1
  K  K15  1  0.73139350  0.51284051  0.03402857  1
  K  K16  1  0.21855299  0.73139350  0.53402857  1
  K  K17  1  0.78144701  0.26860650  0.03402857  1
  S  S0  1  0.33333300  0.66666700  0.28530543  1
  S  S1  1  0.66666700  0.33333300  0.78530543  1
  S  S2  1  0.33333300  0.66666700  0.78530543  1
  S  S3  1  0.66666700  0.33333300  0.28530543  1
  S  S4  1  0.00000000  -0.00000000  0.09899047  1
  S  S5  1  0.00000000  -0.00000000  0.59899047  1
  I  I0  1  0.69376126  1.00000000  0.25399106  1
  I  I1  1  1.00000000  0.69376126  0.25399106  1
  I  I2  1  0.30623874  0.00000000  0.75399106  1
  I  I3  1  0.00000000  0.30623874  0.75399106  1
  I  I4  1  0.30623874  0.30623874  0.25399106  1
  I  I5  1  0.69376126  0.69376126  0.75399106  1
loop_
_geom_bond_atom_site_label_1
_geom_bond_atom_site_label_2
_geom_bond_distance
_geom_bond_site_symmetry_2
K0 S5 2.987610 1_565
K0 S4 3.023628 1_565
K1 S5 2.987610 1_655
K1 S4 3.023628 1_655
K2 S4 2.987610 1_656
K2 S5 3.023628 1_655
K3 S4 2.987610 1_566
K3 S5 3.023628 1_565
K4 S5 2.987610 1_665
K4 S4 3.023628 1_665
K5 S4 2.987610 1_556
K5 S5 3.023628 1_555
K6 S2 3.035755 1_554
K6 S0 3.050655 1_555
K7 S2 3.035757 1_554
K7 S0 3.050657 1_555
K8 S3 3.035755 1_555
K8 S1 3.050655 1_555
K9 S0 3.035755 1_555
K9 S2 3.050655 1_555
K10 S2 3.035748 1_554
K10 S0 3.050647 1_555
K11 S3 3.035757 1_555
K11 S1 3.050657 1_555
K12 S0 3.035757 1_555
K12 S2 3.050657 1_555
K13 S1 3.035755 1_554
K13 S3 3.050655 1_555
K14 S3 3.035748 1_555
K14 S1 3.050647 1_555
K15 S1 3.035757 1_554
K15 S3 3.050657 1_555
K16 S0 3.035748 1_555
K16 S2 3.050647 1_555
K17 S1 3.035748 1_554
K17 S3 3.050647 1_555
I0 K9 3.679057 1_555
I0 K14 3.679057 1_565
I0 K1 3.789834 1_565
I0 K4 3.789834 1_555
I0 K7 3.792545 1_555
I0 K17 3.792545 1_565
I0 K2 4.000031 1_564
I1 K8 3.679057 1_555
I1 K16 3.679057 1_655
I1 K0 3.789834 1_655
I1 K4 3.789834 1_555
I1 K15 3.792545 1_555
I1 K10 3.792545 1_655
I1 K3 4.000031 1_654
I2 K13 3.679057 1_556
I2 K10 3.679057 1_546
I2 K3 3.789834 1_545
I2 K5 3.789834 1_555
I2 K11 3.792545 1_555
I2 K16 3.792545 1_545
I2 K0 4.000031 1_545
I3 K6 3.679057 1_556
I3 K17 3.679057 1_456
I3 K2 3.789834 1_455
I3 K5 3.789834 1_555
I3 K12 3.792545 1_555
I3 K14 3.792545 1_455
I3 K1 4.000031 1_455
I4 K11 3.679057 1_555
I4 K12 3.679057 1_555
I4 K0 3.789834 1_545
I4 K1 3.789834 1_455
I4 K13 3.792545 1_555
I4 K6 3.792545 1_555
I4 K5 4.000031 1_554
I5 K15 3.679057 1_556
I5 K7 3.679057 1_556
I5 K3 3.789834 1_655
I5 K2 3.789834 1_565
I5 K9 3.792545 1_555
I5 K8 3.792545 1_555
I5 K4 4.000031 1_555
