# generated using pymatgen
data_YSnP(SO6)2
_symmetry_space_group_name_H-M   'P 1'
_cell_length_a   9.02196727
_cell_length_b   9.05006309
_cell_length_c   23.27730941
_cell_angle_alpha   89.60787230
_cell_angle_beta   90.00000000
_cell_angle_gamma   119.89735732
_symmetry_Int_Tables_number   1
_chemical_formula_structural   YSnP(SO6)2
_chemical_formula_sum   'Y6 Sn6 P6 S12 O72'
_cell_volume   1647.59699824
_cell_formula_units_Z   6
loop_
 _symmetry_equiv_pos_site_id
 _symmetry_equiv_pos_as_xyz
  1  'x, y, z'
loop_
 _atom_site_type_symbol
 _atom_site_label
 _atom_site_symmetry_multiplicity
 _atom_site_fract_x
 _atom_site_fract_y
 _atom_site_fract_z
 _atom_site_occupancy
  Y  Y0  1  0.00189781  0.00223012  0.35892075  1
  Y  Y1  1  0.00033231  0.00223012  0.85892075  1
  Y  Y2  1  0.67683020  0.33914426  0.69270456  1
  Y  Y3  1  0.66231506  0.33914426  0.19270456  1
  Y  Y4  1  0.32901453  0.65541108  0.02537089  1
  Y  Y5  1  0.32639555  0.65541108  0.52537089  1
  Sn  Sn0  1  0.99991657  0.00147476  0.64904997  1
  Sn  Sn1  1  0.00155819  0.00147476  0.14904997  1
  Sn  Sn2  1  0.66423750  0.33203974  0.98296316  1
  Sn  Sn3  1  0.66780323  0.33203974  0.48296316  1
  Sn  Sn4  1  0.34648837  0.66234605  0.31568210  1
  Sn  Sn5  1  0.31585668  0.66234605  0.81568210  1
  P  P0  1  0.70820895  0.72536543  0.24987589  1
  P  P1  1  0.01715648  0.72536543  0.74987589  1
  P  P2  1  0.94330905  0.31029548  0.58344931  1
  P  P3  1  0.36698743  0.31029548  0.08344931  1
  P  P4  1  0.02936990  0.38298001  0.91806312  1
  P  P5  1  0.35360911  0.38298001  0.41806312  1
  S  S0  1  0.28340577  0.97828019  0.25125795  1
  S  S1  1  0.01709204  0.30112991  0.24998859  1
  S  S2  1  0.28403787  0.30112991  0.74998859  1
  S  S3  1  0.69487442  0.97828019  0.75125795  1
  S  S4  1  0.36869956  0.05040068  0.58400365  1
  S  S5  1  0.68414619  0.63360117  0.58360698  1
  S  S6  1  0.94945597  0.63360117  0.08360698  1
  S  S7  1  0.68170211  0.05040068  0.08400365  1
  S  S8  1  0.61230181  0.64997235  0.91588324  1
  S  S9  1  0.35205554  0.96593224  0.91734485  1
  S  S10  1  0.61387569  0.96593224  0.41734485  1
  S  S11  1  0.03766955  0.64997235  0.41588324  1
  O  O0  1  0.20413432  0.00970715  0.30107366  1
  O  O1  1  0.81837843  0.81109519  0.30191845  1
  O  O2  1  0.99052977  0.19471050  0.30083896  1
  O  O3  1  0.20418074  0.19471050  0.80083896  1
  O  O4  1  0.99271675  0.81109519  0.80191845  1
  O  O5  1  0.80557283  0.00970715  0.80107366  1
  O  O6  1  0.77401300  0.95142313  0.69803346  1
  O  O7  1  0.17431651  0.22469057  0.69742504  1
  O  O8  1  0.04597471  0.83778195  0.69380296  1
  O  O9  1  0.79180725  0.83778195  0.19380296  1
  O  O10  1  0.05037406  0.22469057  0.19742504  1
  O  O11  1  0.17741013  0.95142313  0.19803346  1
  O  O12  1  0.85634324  0.33485463  0.63512417  1
  O  O13  1  0.47368380  0.13105968  0.63439616  1
  O  O14  1  0.65147985  0.52387132  0.63393664  1
  O  O15  1  0.87239247  0.52387132  0.13393664  1
  O  O16  1  0.65737689  0.13105968  0.13439616  1
  O  O17  1  0.47851238  0.33485463  0.13512417  1
  O  O18  1  0.45037369  0.28177197  0.02759285  1
  O  O19  1  0.84256852  0.55525766  0.03074302  1
  O  O20  1  0.71333771  0.15943417  0.03065919  1
  O  O21  1  0.44609746  0.15943417  0.53065919  1
  O  O22  1  0.71269014  0.55525766  0.53074302  1
  O  O23  1  0.83139928  0.28177197  0.52759285  1
  O  O24  1  0.53449838  0.67866671  0.96647162  1
  O  O25  1  0.14360368  0.46830634  0.96924951  1
  O  O26  1  0.32704450  0.85992021  0.96796435  1
  O  O27  1  0.53287471  0.85992021  0.46796435  1
  O  O28  1  0.32470166  0.46830634  0.46924951  1
  O  O29  1  0.14416733  0.67866671  0.46647162  1
  O  O30  1  0.11937280  0.62524621  0.36297690  1
  O  O31  1  0.50613388  0.88884858  0.36428198  1
  O  O32  1  0.38683790  0.49620277  0.36188893  1
  O  O33  1  0.10936387  0.49620277  0.86188893  1
  O  O34  1  0.38271370  0.88884858  0.86428198  1
  O  O35  1  0.50587241  0.62524621  0.86297690  1
  O  O36  1  0.01262723  0.79684638  0.40802001  1
  O  O37  1  0.78476055  0.98730242  0.40929224  1
  O  O38  1  0.20123035  0.20670630  0.40738446  1
  O  O39  1  0.00547595  0.20670630  0.90738446  1
  O  O40  1  0.20254187  0.98730242  0.90929224  1
  O  O41  1  0.78421915  0.79684638  0.90802001  1
  O  O42  1  0.96141263  0.14762325  0.59212007  1
  O  O43  1  0.19537388  0.03428406  0.59001254  1
  O  O44  1  0.84231592  0.80311036  0.59072152  1
  O  O45  1  0.96079444  0.80311036  0.09072152  1
  O  O46  1  0.83891017  0.03428406  0.09001254  1
  O  O47  1  0.18621062  0.14762325  0.09212007  1
  O  O48  1  0.66681240  0.12273684  0.74287517  1
  O  O49  1  0.45255945  0.31969988  0.74104046  1
  O  O50  1  0.86356108  0.54907393  0.74092825  1
  O  O51  1  0.68551385  0.54907393  0.24092825  1
  O  O52  1  0.86714143  0.31969988  0.24104046  1
  O  O53  1  0.45592544  0.12273684  0.24287517  1
  O  O54  1  0.62651778  0.49277827  0.92327519  1
  O  O55  1  0.84962976  0.36703323  0.92707944  1
  O  O56  1  0.50788380  0.13805083  0.92324001  1
  O  O57  1  0.63016803  0.13805083  0.42324001  1
  O  O58  1  0.51740447  0.36703323  0.42707944  1
  O  O59  1  0.86626149  0.49277827  0.42327519  1
  O  O60  1  0.34393987  0.46388021  0.07404074  1
  O  O61  1  0.12247466  0.66127096  0.07541100  1
  O  O62  1  0.53283193  0.88152318  0.07508664  1
  O  O63  1  0.34869025  0.88152318  0.57508664  1
  O  O64  1  0.53879530  0.66127096  0.57541100  1
  O  O65  1  0.11993933  0.46388021  0.57404074  1
  O  O66  1  0.29349684  0.81942789  0.25985461  1
  O  O67  1  0.52785709  0.71069917  0.25577122  1
  O  O68  1  0.17097130  0.47450067  0.25730358  1
  O  O69  1  0.30352837  0.47450067  0.75730358  1
  O  O70  1  0.18284108  0.71069917  0.75577122  1
  O  O71  1  0.52593005  0.81942789  0.75985461  1
loop_
_geom_bond_atom_site_label_1
_geom_bond_atom_site_label_2
_geom_bond_distance
_geom_bond_site_symmetry_2
O0 S0 1.464339 1_545
O0 Y0 2.241080 1_555
O1 P0 1.517069 1_555
O1 Y0 2.161103 1_665
O2 S1 1.462996 1_655
O2 Y0 2.240241 1_655
O3 S2 1.462996 1_555
O3 Y1 2.240241 1_555
O4 P1 1.517069 1_655
O4 Y1 2.161103 1_665
O5 S3 1.464339 1_545
O5 Y1 2.241080 1_655
O6 S3 1.510267 1_555
O6 Sn0 2.175242 1_565
O7 S2 1.511433 1_555
O7 Sn0 2.164952 1_455
O8 P1 1.588836 1_555
O8 Sn0 2.011233 1_465
O9 P0 1.588836 1_555
O9 Sn1 2.011232 1_665
O10 S1 1.511433 1_555
O10 Sn1 2.164952 1_555
O11 S0 1.510267 1_555
O11 Sn1 2.175242 1_565
O12 P2 1.513063 1_555
O12 Y2 2.117622 1_555
O13 S4 1.458895 1_555
O13 Y2 2.311245 1_555
O14 S5 1.462138 1_555
O14 Y2 2.251305 1_555
O15 S6 1.462138 1_555
O15 Y3 2.251305 1_555
O16 S7 1.458895 1_555
O16 Y3 2.311245 1_555
O17 P3 1.513063 1_555
O17 Y3 2.117622 1_555
O18 P3 1.587855 1_555
O18 Sn2 2.031634 1_554
O19 S6 1.509035 1_555
O19 Sn2 2.167282 1_554
O20 S7 1.516404 1_555
O20 Sn2 2.129571 1_554
O21 S4 1.516404 1_555
O21 Sn3 2.129571 1_555
O22 S5 1.509035 1_555
O22 Sn3 2.167282 1_555
O23 P2 1.587855 1_555
O23 Sn3 2.031634 1_555
O24 S8 1.460380 1_555
O24 Y4 2.228878 1_556
O25 P4 1.515689 1_555
O25 Y4 2.139760 1_556
O26 S9 1.458924 1_555
O26 Y4 2.282632 1_556
O27 S10 1.458924 1_555
O27 Y5 2.282632 1_555
O28 P5 1.515689 1_555
O28 Y5 2.139760 1_555
O29 S11 1.460380 1_555
O29 Y5 2.228878 1_555
O30 S11 1.509394 1_555
O30 Sn4 2.198255 1_555
O31 S10 1.514247 1_555
O31 Sn4 2.155153 1_555
O32 P5 1.589035 1_555
O32 Sn4 2.018349 1_555
O33 P4 1.589035 1_555
O33 Sn5 2.018349 1_555
O34 S9 1.514247 1_555
O34 Sn5 2.155153 1_555
O35 S8 1.509394 1_555
O35 Sn5 2.198255 1_555
O36 S11 1.465408 1_555
O36 Y0 2.218282 1_565
O37 S10 1.466864 1_555
O37 Y0 2.228169 1_665
O38 P5 1.521772 1_555
O38 Y0 2.154570 1_555
O39 P4 1.521776 1_555
O39 Y1 2.154570 1_555
O40 S9 1.466855 1_555
O40 Y1 2.228169 1_565
O41 S8 1.465413 1_555
O41 Y1 2.218282 1_665
O42 P2 1.571753 1_555
O42 Sn0 2.014999 1_555
O43 S4 1.502819 1_555
O43 Sn0 2.135118 1_455
O44 S5 1.496089 1_555
O44 Sn0 2.139311 1_565
O45 S6 1.496093 1_555
O45 Sn1 2.139311 1_665
O46 S7 1.502810 1_555
O46 Sn1 2.135119 1_655
O47 P3 1.571758 1_555
O47 Sn1 2.014999 1_555
O48 S3 1.462115 1_545
O48 Y2 2.236061 1_555
O49 S2 1.458777 1_555
O49 Y2 2.243484 1_555
O50 P1 1.519749 1_655
O50 Y2 2.132174 1_555
O51 P0 1.519753 1_555
O51 Y3 2.132174 1_555
O52 S1 1.458768 1_655
O52 Y3 2.243484 1_555
O53 S0 1.462121 1_545
O53 Y3 2.236061 1_555
O54 S8 1.499478 1_555
O54 Sn2 2.151313 1_555
O55 P4 1.568686 1_655
O55 Sn2 2.014035 1_555
O56 S9 1.497168 1_545
O56 Sn2 2.137581 1_555
O57 S10 1.497161 1_545
O57 Sn3 2.137581 1_555
O58 P5 1.568704 1_555
O58 Sn3 2.014035 1_555
O59 S11 1.499468 1_655
O59 Sn3 2.151313 1_555
O60 P3 1.518921 1_555
O60 Y4 2.124139 1_555
O61 S6 1.464718 1_455
O61 Y4 2.220624 1_555
O62 S7 1.463164 1_565
O62 Y4 2.277989 1_555
O63 S4 1.463156 1_565
O63 Y5 2.277989 1_555
O64 S5 1.464736 1_555
O64 Y5 2.220624 1_555
O65 P2 1.518910 1_455
O65 Y5 2.124139 1_555
O66 S0 1.497208 1_555
O66 Sn4 2.142547 1_555
O67 P0 1.571129 1_555
O67 Sn4 2.022774 1_555
O68 S1 1.500109 1_555
O68 Sn4 2.142926 1_555
O69 S2 1.500113 1_555
O69 Sn5 2.142926 1_555
O70 P1 1.571120 1_555
O70 Sn5 2.022774 1_555
O71 S3 1.497213 1_555
O71 Sn5 2.142547 1_555
