# generated using pymatgen
data_MgFe6(O5F)2
_symmetry_space_group_name_H-M   'P 1'
_cell_length_a   5.08511048
_cell_length_b   5.12392952
_cell_length_c   8.73643651
_cell_angle_alpha   89.99219043
_cell_angle_beta   89.95830173
_cell_angle_gamma   100.54357515
_symmetry_Int_Tables_number   1
_chemical_formula_structural   MgFe6(O5F)2
_chemical_formula_sum   'Mg1 Fe6 O10 F2'
_cell_volume   223.79094488
_cell_formula_units_Z   1
loop_
 _symmetry_equiv_pos_site_id
 _symmetry_equiv_pos_as_xyz
  1  'x, y, z'
loop_
 _atom_site_type_symbol
 _atom_site_label
 _atom_site_symmetry_multiplicity
 _atom_site_fract_x
 _atom_site_fract_y
 _atom_site_fract_z
 _atom_site_occupancy
  Mg  Mg0  1  0.52346138  0.05507839  0.00158302  1
  Fe  Fe0  1  0.00677337  0.95751309  0.00287856  1
  Fe  Fe1  1  0.99151402  0.00581886  0.32672509  1
  Fe  Fe2  1  -0.00043583  0.99623710  0.66072822  1
  Fe  Fe3  1  0.43252598  0.55551957  0.17695780  1
  Fe  Fe4  1  0.42901522  0.55709370  0.81535947  1
  Fe  Fe5  1  0.57882610  0.42203242  0.49593042  1
  O  O0  1  0.22682799  0.84178712  0.15919927  1
  O  O1  1  0.20767612  0.84320586  0.83428096  1
  O  O2  1  0.29518051  0.32376794  0.99205944  1
  O  O3  1  0.31010485  0.30502513  0.33385411  1
  O  O4  1  0.30349623  0.30863818  0.66108129  1
  O  O5  1  0.66116041  0.70504558  0.98870307  1
  O  O6  1  0.70880533  0.67193350  0.32940220  1
  O  O7  1  0.70086705  0.67780080  0.66483353  1
  O  O8  1  0.82625265  0.13506373  0.14960178  1
  O  O9  1  0.82047463  0.16432240  0.49865934  1
  F  F0  1  0.17372444  0.83219388  0.49502020  1
  F  F1  1  0.80374953  0.15581177  0.83457222  1
loop_
_geom_bond_atom_site_label_1
_geom_bond_atom_site_label_2
_geom_bond_distance
_geom_bond_site_symmetry_2
Mg0 O2 1.958284 1_554
Mg0 O8 1.995767 1_555
Mg0 O5 2.044335 1_544
Mg0 O0 2.181541 1_545
Mg0 O1 2.293334 1_544
Fe0 O8 1.902016 1_465
Fe0 O0 1.927100 1_555
Fe0 O1 1.942504 1_554
Fe0 O5 1.986421 1_454
Fe0 O2 2.161983 1_564
Fe1 O8 1.935098 1_555
Fe1 O9 1.982247 1_555
Fe1 O3 2.017459 1_655
Fe1 O6 2.023356 1_545
Fe1 O0 2.155499 1_645
Fe2 O9 1.965831 1_465
Fe2 O4 2.011367 1_565
Fe2 O7 2.015826 1_455
Fe2 O1 2.083133 1_555
Fe3 O3 1.902544 1_555
Fe3 O6 1.949251 1_555
Fe3 O0 1.957395 1_555
Fe3 O2 2.050831 1_554
Fe3 O5 2.077151 1_554
Fe4 O4 1.883912 1_555
Fe4 O7 1.925401 1_555
Fe4 O5 1.984207 1_555
Fe4 O2 1.993939 1_555
Fe4 O1 2.011721 1_555
Fe5 O9 1.961655 1_555
Fe5 O6 1.970145 1_555
Fe5 O3 1.983659 1_555
Fe5 O7 1.996069 1_555
Fe5 O4 2.019580 1_555
F0 Fe2 1.964070 1_555
F0 Fe1 2.028559 1_465
F1 Mg0 2.038218 1_556
F1 Fe2 2.064661 1_645
F1 Fe0 2.155460 1_646
