# generated using pymatgen
data_MgZn4(Fe2O5)2
_symmetry_space_group_name_H-M   'P 1'
_cell_length_a   3.18596103
_cell_length_b   8.08201245
_cell_length_c   10.34355421
_cell_angle_alpha   90.28326818
_cell_angle_beta   90.01459524
_cell_angle_gamma   90.00129391
_symmetry_Int_Tables_number   1
_chemical_formula_structural   MgZn4(Fe2O5)2
_chemical_formula_sum   'Mg1 Zn4 Fe4 O10'
_cell_volume   266.33267270
_cell_formula_units_Z   1
loop_
 _symmetry_equiv_pos_site_id
 _symmetry_equiv_pos_as_xyz
  1  'x, y, z'
loop_
 _atom_site_type_symbol
 _atom_site_label
 _atom_site_symmetry_multiplicity
 _atom_site_fract_x
 _atom_site_fract_y
 _atom_site_fract_z
 _atom_site_occupancy
  Mg  Mg0  1  0.50045700  0.89926900  0.15795300  1
  Zn  Zn0  1  0.50004700  0.43429900  0.86856600  1
  Zn  Zn1  1  0.49989900  0.56645200  0.13319600  1
  Zn  Zn2  1  0.49996300  0.92665600  0.63071400  1
  Zn  Zn3  1  0.49977300  0.09201400  0.38416900  1
  Fe  Fe0  1  0.99996900  0.31683700  0.59827900  1
  Fe  Fe1  1  0.99998400  0.69403600  0.40878100  1
  Fe  Fe2  1  0.00005100  0.19922200  0.08899300  1
  Fe  Fe3  1  0.00002900  0.80315800  0.89574000  1
  O  O0  1  0.00000200  0.48238100  0.47966400  1
  O  O1  1  0.99960500  0.08096200  0.27223800  1
  O  O2  1  0.99992100  0.68938200  0.21217200  1
  O  O3  1  0.99997200  0.37236500  0.77604700  1
  O  O4  1  0.49999300  0.34834200  0.05816200  1
  O  O5  1  0.50005200  0.66977500  0.94485700  1
  O  O6  1  0.00002800  0.86756000  0.71958000  1
  O  O7  1  0.49993800  0.17124900  0.56414000  1
  O  O8  1  0.00032600  0.96129600  0.03933900  1
  O  O9  1  0.49999600  0.83307500  0.44240600  1
loop_
_geom_bond_atom_site_label_1
_geom_bond_atom_site_label_2
_geom_bond_distance
_geom_bond_site_symmetry_2
Mg0 O8 2.073611 1_655
Mg0 O8 2.073790 1_555
Mg0 O2 2.394411 1_555
Mg0 O2 2.396821 1_455
Mg0 O1 2.462609 1_565
Mg0 O1 2.466550 1_465
Fe0 O0 1.819772 1_655
Fe0 O3 1.890570 1_555
Fe0 O7 2.010623 1_555
Fe0 O7 2.010651 1_655
Fe1 O0 1.864431 1_655
Fe1 O9 1.979187 1_655
Fe1 O9 1.979309 1_555
Fe1 O2 2.033798 1_555
Fe2 O8 1.987874 1_545
Fe2 O4 2.023648 1_555
Fe2 O4 2.023854 1_455
Fe2 O1 2.126967 1_455
Fe3 O6 1.897477 1_555
Fe3 O8 1.954709 1_556
Fe3 O5 1.990754 1_555
Fe3 O5 1.990805 1_455
O1 Zn3 1.970838 1_555
O1 Zn3 1.971223 1_655
O2 Zn1 2.045348 1_555
O2 Zn1 2.045598 1_655
O3 Zn0 1.923318 1_655
O3 Zn0 1.923345 1_555
O4 Zn1 1.922546 1_555
O4 Zn0 2.083743 1_554
O5 Zn0 2.056630 1_555
O5 Zn1 2.123318 1_556
O6 Zn2 1.901290 1_455
O6 Zn2 1.901317 1_555
O7 Zn3 1.965611 1_555
O7 Zn2 2.096521 1_545
O9 Zn2 2.085973 1_555
O9 Zn3 2.180578 1_565
