# generated using pymatgen
data_Na14Y8Si7S5O48
_symmetry_space_group_name_H-M   'P 1'
_cell_length_a   18.98090047
_cell_length_b   9.48851265
_cell_length_c   23.61458509
_cell_angle_alpha   90.00433869
_cell_angle_beta   89.94820539
_cell_angle_gamma   120.05936866
_symmetry_Int_Tables_number   1
_chemical_formula_structural   Na14Y8Si7S5O48
_chemical_formula_sum   'Na42 Y24 Si21 S15 O144'
_cell_volume   3680.99784175
_cell_formula_units_Z   3
loop_
 _symmetry_equiv_pos_site_id
 _symmetry_equiv_pos_as_xyz
  1  'x, y, z'
loop_
 _atom_site_type_symbol
 _atom_site_label
 _atom_site_symmetry_multiplicity
 _atom_site_fract_x
 _atom_site_fract_y
 _atom_site_fract_z
 _atom_site_occupancy
  Na  Na0  1  0.81045305  0.98908493  0.24312036  1
  Na  Na1  1  0.18838490  0.36487230  0.25641556  1
  Na  Na2  1  0.69061765  0.36739115  0.25520297  1
  Na  Na3  1  0.99971624  0.65237057  0.24188405  1
  Na  Na4  1  0.50030040  0.65229640  0.24313644  1
  Na  Na5  1  0.30955222  0.63275986  0.75333669  1
  Na  Na6  1  0.99849266  0.34604362  0.74657576  1
  Na  Na7  1  0.50262133  0.35021032  0.74741904  1
  Na  Na8  1  0.18656011  0.00871508  0.75917008  1
  Na  Na9  1  0.69024294  0.01272893  0.76001005  1
  Na  Na10  1  0.14082440  0.33144054  0.58389575  1
  Na  Na11  1  0.64289129  0.33398817  0.58484399  1
  Na  Na12  1  0.33997798  0.98028049  0.57946529  1
  Na  Na13  1  0.84019559  0.98146504  0.58216348  1
  Na  Na14  1  0.13978935  0.95033689  0.08635628  1
  Na  Na15  1  0.65206908  0.95480297  0.08530458  1
  Na  Na16  1  0.34010084  0.69769399  0.08211077  1
  Na  Na17  1  0.83881731  0.71490505  0.07930806  1
  Na  Na18  1  0.48805322  0.68527199  0.92507071  1
  Na  Na19  1  0.98018410  0.67883041  0.92571776  1
  Na  Na20  1  0.34146454  0.01435140  0.91277231  1
  Na  Na21  1  0.83943592  0.01405364  0.92010497  1
  Na  Na22  1  0.17052653  0.29589447  0.90976106  1
  Na  Na23  1  0.67622607  0.30446137  0.91026597  1
  Na  Na24  1  0.48420077  0.28441304  0.42144603  1
  Na  Na25  1  0.98458448  0.28502743  0.42145853  1
  Na  Na26  1  0.17212793  0.04370283  0.40575721  1
  Na  Na27  1  0.67207172  0.04599430  0.40665083  1
  Na  Na28  1  0.33981547  0.66753958  0.40875681  1
  Na  Na29  1  0.84123512  0.66885963  0.40937472  1
  Na  Na30  1  0.99790757  0.01655118  0.49581650  1
  Na  Na31  1  0.49847982  0.01687928  0.49548800  1
  Na  Na32  1  0.98956759  0.98160496  0.00314117  1
  Na  Na33  1  0.50086396  0.98192146  0.99808829  1
  Na  Na34  1  0.32205874  0.32005670  0.83531405  1
  Na  Na35  1  0.82061352  0.32840855  0.83533872  1
  Na  Na36  1  0.32065744  0.31442503  0.32858615  1
  Na  Na37  1  0.82214339  0.32588927  0.32866097  1
  Na  Na38  1  0.16430464  0.67886736  0.17087213  1
  Na  Na39  1  0.66760933  0.68329968  0.16305957  1
  Na  Na40  1  0.15931288  0.65055791  0.67028389  1
  Na  Na41  1  0.66747845  0.65336842  0.67329893  1
  Y  Y0  1  0.00061741  0.99878993  0.34733666  1
  Y  Y1  1  0.49849318  0.99841836  0.34695766  1
  Y  Y2  1  0.99788765  0.99834966  0.84860350  1
  Y  Y3  1  0.50148446  0.00387764  0.84912132  1
  Y  Y4  1  0.99703465  0.00809553  0.65279094  1
  Y  Y5  1  0.49882004  0.01032292  0.65189589  1
  Y  Y6  1  0.99423402  0.98806291  0.14916662  1
  Y  Y7  1  0.49846998  0.98681247  0.15197592  1
  Y  Y8  1  0.33643478  0.32980857  0.68421455  1
  Y  Y9  1  0.83592895  0.33598376  0.68619192  1
  Y  Y10  1  0.33551593  0.33496874  0.18551473  1
  Y  Y11  1  0.83553686  0.33312146  0.18021688  1
  Y  Y12  1  0.33519948  0.34252686  0.98322626  1
  Y  Y13  1  0.83509808  0.33244005  0.98635645  1
  Y  Y14  1  0.33466732  0.32767667  0.48253931  1
  Y  Y15  1  0.83507643  0.32734425  0.48283550  1
  Y  Y16  1  0.16313550  0.66981072  0.01532922  1
  Y  Y17  1  0.66908105  0.68119615  0.01742089  1
  Y  Y18  1  0.16358615  0.65654946  0.51441262  1
  Y  Y19  1  0.66417884  0.65721055  0.51498212  1
  Y  Y20  1  0.17955961  0.68585298  0.31412729  1
  Y  Y21  1  0.67482149  0.67526471  0.31662212  1
  Y  Y22  1  0.17385896  0.67356324  0.81814131  1
  Y  Y23  1  0.68016144  0.67432082  0.81596805  1
  Si  Si0  1  0.14894243  0.99930556  0.24907930  1
  Si  Si1  1  0.65060875  0.00054131  0.25110174  1
  Si  Si2  1  0.34938125  0.69605299  0.24949028  1
  Si  Si3  1  0.84973077  0.69599402  0.25147482  1
  Si  Si4  1  0.15042401  0.30176336  0.74948233  1
  Si  Si5  1  0.64974345  0.30180876  0.74913867  1
  Si  Si6  1  0.34919688  0.99845014  0.74987535  1
  Si  Si7  1  0.84891427  0.00118046  0.74890472  1
  Si  Si8  1  0.48565089  0.33630634  0.58369121  1
  Si  Si9  1  0.98535219  0.33642480  0.58411211  1
  Si  Si10  1  0.48396373  0.63390736  0.08395587  1
  Si  Si11  1  0.98634465  0.63447073  0.08389474  1
  Si  Si12  1  0.83479673  0.03285434  0.08291905  1
  Si  Si13  1  0.31694805  0.66645794  0.91832141  1
  Si  Si14  1  0.81745499  0.66332338  0.91948506  1
  Si  Si15  1  0.16643291  0.96866327  0.91608351  1
  Si  Si16  1  0.66573080  0.96742504  0.91504951  1
  Si  Si17  1  0.31694111  0.96608965  0.42112382  1
  Si  Si18  1  0.81707347  0.96656250  0.41905426  1
  Si  Si19  1  0.16604615  0.36520049  0.41642659  1
  Si  Si20  1  0.66578189  0.36331217  0.41707068  1
  S  S0  1  0.00010554  0.29798052  0.25091099  1
  S  S1  1  0.50036092  0.29808502  0.25052232  1
  S  S2  1  0.00102421  0.70428465  0.74991215  1
  S  S3  1  0.49942757  0.70326837  0.74968073  1
  S  S4  1  0.18421827  0.03526783  0.58363457  1
  S  S5  1  0.68466821  0.03626978  0.58352259  1
  S  S6  1  0.33363495  0.63136460  0.58315533  1
  S  S7  1  0.83388398  0.63128244  0.58196378  1
  S  S8  1  0.33377102  0.03610977  0.08199516  1
  S  S9  1  0.18595531  0.33480981  0.08354637  1
  S  S10  1  0.68280858  0.33196865  0.08342316  1
  S  S11  1  0.01867035  0.37057272  0.91514690  1
  S  S12  1  0.51906133  0.37195260  0.91598465  1
  S  S13  1  0.01877188  0.66705339  0.41603982  1
  S  S14  1  0.51844626  0.66748086  0.41629026  1
  O  O0  1  0.10914467  0.02946241  0.30729096  1
  O  O1  1  0.60832840  0.02829309  0.30784981  1
  O  O2  1  0.40388607  0.78050373  0.30685093  1
  O  O3  1  0.90389911  0.77974092  0.30895111  1
  O  O4  1  0.48944826  0.20269268  0.30310629  1
  O  O5  1  0.98788568  0.19948579  0.30329367  1
  O  O6  1  0.10975224  0.18652527  0.80536235  1
  O  O7  1  0.60761066  0.18671117  0.80520423  1
  O  O8  1  0.48666012  0.77727128  0.80111066  1
  O  O9  1  0.99096689  0.77883168  0.80181543  1
  O  O10  1  0.40541536  0.02726277  0.80576560  1
  O  O11  1  0.90652219  0.02952024  0.80423628  1
  O  O12  1  0.39060556  0.96605441  0.69384237  1
  O  O13  1  0.89112195  0.97638157  0.69185239  1
  O  O14  1  0.09627521  0.21190511  0.69253268  1
  O  O15  1  0.59462369  0.21151561  0.69205913  1
  O  O16  1  0.01249743  0.80702519  0.69987682  1
  O  O17  1  0.51121185  0.80635225  0.69963304  1
  O  O18  1  0.39286998  0.80821457  0.19362412  1
  O  O19  1  0.89248367  0.81531147  0.19715425  1
  O  O20  1  0.01296218  0.21924950  0.20191428  1
  O  O21  1  0.51157380  0.21679752  0.20121518  1
  O  O22  1  0.09450486  0.98242891  0.19297122  1
  O  O23  1  0.59467412  0.98052657  0.19520777  1
  O  O24  1  0.43981197  0.35120097  0.64024131  1
  O  O25  1  0.93928540  0.35226544  0.64004387  1
  O  O26  1  0.23521676  0.11670259  0.63434518  1
  O  O27  1  0.73574602  0.11797964  0.63369880  1
  O  O28  1  0.32263740  0.53040272  0.63410420  1
  O  O29  1  0.82178567  0.52618746  0.63132975  1
  O  O30  1  0.43703376  0.52627112  0.14011555  1
  O  O31  1  0.94183519  0.53089095  0.14127459  1
  O  O32  1  0.32172088  0.11731007  0.13120756  1
  O  O33  1  0.81973802  0.11698566  0.13931040  1
  O  O34  1  0.23773648  0.35701116  0.13367647  1
  O  O35  1  0.73340102  0.35438992  0.13457479  1
  O  O36  1  0.22449079  0.30908911  0.03211150  1
  O  O37  1  0.72170982  0.30639395  0.03276907  1
  O  O38  1  0.42690870  0.54784427  0.02749959  1
  O  O39  1  0.93089859  0.54935253  0.02719464  1
  O  O40  1  0.34173949  0.12950309  0.02949203  1
  O  O41  1  0.84123984  0.13533473  0.02546277  1
  O  O42  1  0.22340493  0.13919161  0.53291225  1
  O  O43  1  0.72282047  0.13941267  0.53231626  1
  O  O44  1  0.34112914  0.55036223  0.53197839  1
  O  O45  1  0.84178193  0.55387370  0.52968250  1
  O  O46  1  0.42879783  0.31163565  0.52786640  1
  O  O47  1  0.92961891  0.31144172  0.52744590  1
  O  O48  1  0.27226674  0.68846511  0.97433190  1
  O  O49  1  0.77503367  0.68825409  0.97607989  1
  O  O50  1  0.07122231  0.45090821  0.96468974  1
  O  O51  1  0.57003808  0.45048396  0.96546076  1
  O  O52  1  0.15270728  0.85276452  0.97146841  1
  O  O53  1  0.64909628  0.85076696  0.97056901  1
  O  O54  1  0.27604232  0.86065021  0.47939204  1
  O  O55  1  0.77330935  0.85714997  0.47597228  1
  O  O56  1  0.15185214  0.44902098  0.47343352  1
  O  O57  1  0.65119399  0.44876748  0.47328710  1
  O  O58  1  0.07014275  0.69112803  0.46646498  1
  O  O59  1  0.57038165  0.69139356  0.46626288  1
  O  O60  1  0.05461225  0.63911668  0.36516973  1
  O  O61  1  0.55398771  0.63924330  0.36508428  1
  O  O62  1  0.25478526  0.87938037  0.36851398  1
  O  O63  1  0.75862978  0.88362866  0.36380744  1
  O  O64  1  0.17765881  0.47790144  0.36097440  1
  O  O65  1  0.67741036  0.47467196  0.36114519  1
  O  O66  1  0.05622936  0.46960651  0.86324641  1
  O  O67  1  0.55380942  0.46897254  0.86371168  1
  O  O68  1  0.17913626  0.88359345  0.85919678  1
  O  O69  1  0.67542953  0.87803056  0.85836320  1
  O  O70  1  0.26030681  0.63404159  0.86157040  1
  O  O71  1  0.75653782  0.62782500  0.86569162  1
  O  O72  1  0.01061658  0.81487429  0.41207054  1
  O  O73  1  0.51038715  0.81505115  0.41198632  1
  O  O74  1  0.40692277  0.97999446  0.41437852  1
  O  O75  1  0.90738651  0.98171213  0.41401702  1
  O  O76  1  0.08512184  0.18048087  0.41422635  1
  O  O77  1  0.58459222  0.17918916  0.41425422  1
  O  O78  1  0.01114272  0.20754994  0.91066387  1
  O  O79  1  0.50926438  0.20572217  0.91133008  1
  O  O80  1  0.08622141  0.99150915  0.91265186  1
  O  O81  1  0.58423513  0.98953234  0.91298037  1
  O  O82  1  0.40686780  0.83256506  0.91313825  1
  O  O83  1  0.90714960  0.83196718  0.91268208  1
  O  O84  1  0.49090440  0.16429761  0.58471059  1
  O  O85  1  0.99200092  0.16550738  0.58498648  1
  O  O86  1  0.10285237  0.01817308  0.58891713  1
  O  O87  1  0.60273988  0.01830199  0.58875204  1
  O  O88  1  0.40641920  0.79586506  0.58745600  1
  O  O89  1  0.90662476  0.79561164  0.58721357  1
  O  O90  1  0.48984909  0.81721992  0.08506984  1
  O  O91  1  0.99567064  0.81873054  0.08524594  1
  O  O92  1  0.40652488  0.01798210  0.08733092  1
  O  O93  1  0.91449937  0.00926816  0.08552133  1
  O  O94  1  0.10508838  0.18915604  0.08897431  1
  O  O95  1  0.60147011  0.18323448  0.08911102  1
  O  O96  1  0.34102838  0.16416508  0.74509452  1
  O  O97  1  0.84439924  0.17155497  0.74518154  1
  O  O98  1  0.24388002  0.33038491  0.74380749  1
  O  O99  1  0.73856911  0.31302489  0.74302787  1
  O  O100  1  0.42358778  0.54045223  0.74373639  1
  O  O101  1  0.92857931  0.53852375  0.74454390  1
  O  O102  1  0.34502867  0.51681737  0.24632380  1
  O  O103  1  0.84155339  0.51485300  0.24691045  1
  O  O104  1  0.42795430  0.31810206  0.24528403  1
  O  O105  1  0.92524930  0.31129679  0.24572795  1
  O  O106  1  0.23899813  0.16591460  0.24464280  1
  O  O107  1  0.74242235  0.16212174  0.24734984  1
  O  O108  1  0.32703846  0.50256928  0.92077433  1
  O  O109  1  0.83007167  0.50318892  0.92110765  1
  O  O110  1  0.43516286  0.35009365  0.92265246  1
  O  O111  1  0.93737246  0.35419952  0.92111340  1
  O  O112  1  0.25142813  0.14746231  0.92162878  1
  O  O113  1  0.74892257  0.14837671  0.91957534  1
  O  O114  1  0.32918895  0.15211667  0.42255527  1
  O  O115  1  0.82788082  0.15121270  0.42187853  1
  O  O116  1  0.25043356  0.35460578  0.42271869  1
  O  O117  1  0.75026103  0.35374558  0.42298663  1
  O  O118  1  0.43569097  0.52227540  0.42384136  1
  O  O119  1  0.93571579  0.52203288  0.42363293  1
  O  O120  1  0.18201738  0.48633503  0.07769952  1
  O  O121  1  0.67651023  0.47978563  0.07769139  1
  O  O122  1  0.08008427  0.66273917  0.08171637  1
  O  O123  1  0.57571891  0.66065420  0.08115971  1
  O  O124  1  0.25963961  0.86948063  0.07868662  1
  O  O125  1  0.75172319  0.84865942  0.08167154  1
  O  O126  1  0.18025157  0.87574005  0.57835280  1
  O  O127  1  0.68019952  0.87632077  0.57777775  1
  O  O128  1  0.25915759  0.64811160  0.57981386  1
  O  O129  1  0.75959495  0.64934984  0.57879768  1
  O  O130  1  0.07939179  0.49357661  0.58182181  1
  O  O131  1  0.57911782  0.49265105  0.58142263  1
  O  O132  1  0.14637672  0.82277532  0.25352481  1
  O  O133  1  0.65268744  0.82861493  0.25420906  1
  O  O134  1  0.25504886  0.65954326  0.25087468  1
  O  O135  1  0.75764688  0.67441819  0.25375338  1
  O  O136  1  0.07214995  0.46375299  0.25699185  1
  O  O137  1  0.57390675  0.46280703  0.25563967  1
  O  O138  1  0.15316352  0.47871610  0.75277933  1
  O  O139  1  0.64617739  0.47156294  0.75283002  1
  O  O140  1  0.07495400  0.68622017  0.75433845  1
  O  O141  1  0.57038503  0.67997566  0.75509805  1
  O  O142  1  0.25698626  0.83743584  0.75235841  1
  O  O143  1  0.75459553  0.84886287  0.75041608  1
loop_
_geom_bond_atom_site_label_1
_geom_bond_atom_site_label_2
_geom_bond_distance
_geom_bond_site_symmetry_2
Na0 O107 2.548874 1_565
Na0 O133 2.604822 1_555
Na0 O135 2.642701 1_555
Na0 O33 2.701623 1_565
Na0 O105 2.724937 1_565
Na0 O19 2.981580 1_555
Na0 O63 3.016705 1_555
Na1 O134 2.427198 1_555
Na1 O106 2.525930 1_555
Na1 O102 2.584570 1_555
Na1 O64 2.739637 1_555
Na1 O136 2.796712 1_555
Na2 O103 2.487370 1_555
Na2 O135 2.528561 1_555
Na2 O107 2.590953 1_555
Na2 O65 2.758998 1_555
Na2 O137 2.781438 1_555
Na2 O35 2.980810 1_555
Na2 O1 3.049640 1_555
Na3 O132 2.435442 1_655
Na3 O103 2.608499 1_555
Na3 O31 2.629823 1_555
Na3 O136 2.772457 1_655
Na3 O105 2.810140 1_555
Na3 O22 2.954863 1_655
Na4 O133 2.527269 1_555
Na4 O102 2.558973 1_555
Na4 O30 2.712335 1_555
Na4 O104 2.753398 1_555
Na4 O137 2.790899 1_555
Na4 O23 2.932125 1_555
Na5 O98 2.500747 1_555
Na5 O138 2.569340 1_555
Na5 O142 2.590154 1_555
Na5 O100 2.720637 1_555
Na5 O70 2.722777 1_555
Na6 O97 2.538873 1_555
Na6 O138 2.554101 1_655
Na6 O101 2.743522 1_555
Na6 O25 2.768899 1_555
Na6 O140 2.804620 1_655
Na6 O11 2.943724 1_555
Na6 O66 2.980623 1_655
Na6 O14 3.009215 1_655
Na7 O139 2.371562 1_555
Na7 O96 2.665139 1_555
Na7 O141 2.728797 1_555
Na7 O24 2.800680 1_555
Na7 O100 2.868693 1_555
Na7 O67 2.943297 1_555
Na7 O15 2.964505 1_555
Na7 O10 3.004104 1_555
Na8 O96 2.558975 1_555
Na8 O142 2.574868 1_545
Na8 O68 2.615538 1_545
Na8 O98 2.702561 1_555
Na8 O140 2.714895 1_545
Na8 O6 2.936445 1_555
Na9 O143 2.421345 1_545
Na9 O99 2.549951 1_555
Na9 O97 2.556578 1_555
Na9 O69 2.597336 1_545
Na9 O141 2.821782 1_545
Na9 O7 2.985769 1_555
Na10 O130 2.350754 1_555
Na10 O85 2.450195 1_455
Na10 O86 2.687495 1_555
Na10 O128 2.705783 1_555
Na10 O14 2.760170 1_555
Na10 O56 2.803284 1_555
Na11 O131 2.358823 1_555
Na11 O84 2.502313 1_555
Na11 O129 2.690795 1_555
Na11 O87 2.697166 1_555
Na11 O15 2.744029 1_555
Na11 O57 2.824640 1_555
Na12 O84 2.502067 1_565
Na12 O88 2.626611 1_555
Na12 O54 2.640198 1_555
Na12 O126 2.676488 1_555
Na12 O128 2.728270 1_555
Na12 O12 2.893368 1_555
Na12 O46 2.983102 1_565
Na13 O85 2.513163 1_565
Na13 O89 2.634714 1_555
Na13 O127 2.682159 1_555
Na13 O129 2.729078 1_555
Na13 O13 2.774417 1_555
Na13 O55 2.792242 1_555
Na14 O91 2.370881 1_455
Na14 O122 2.375952 1_555
Na14 O94 2.658515 1_565
Na14 O22 2.725502 1_555
Na14 O124 2.746648 1_555
Na14 O52 2.916096 1_554
Na15 O123 2.418227 1_555
Na15 O125 2.551023 1_555
Na15 O90 2.675481 1_555
Na15 O95 2.777345 1_565
Na15 O23 2.871103 1_555
Na15 O53 2.874498 1_554
Na16 O90 2.478122 1_555
Na16 O92 2.646204 1_565
Na16 O120 2.647331 1_555
Na16 O124 2.736777 1_555
Na16 O18 2.826575 1_555
Na16 O48 2.834820 1_554
Na17 O93 2.422224 1_565
Na17 O125 2.539339 1_555
Na17 O91 2.629919 1_555
Na17 O49 2.677788 1_554
Na17 O121 2.753979 1_555
Na17 O19 2.953348 1_555
Na18 O81 2.543275 1_555
Na18 O82 2.562346 1_555
Na18 O108 2.654964 1_555
Na18 O38 2.716118 1_556
Na18 O110 2.815538 1_555
Na18 O53 2.856741 1_555
Na19 O83 2.479224 1_555
Na19 O109 2.480152 1_555
Na19 O80 2.639184 1_655
Na19 O39 2.640441 1_556
Na19 O111 2.766362 1_555
Na20 O82 2.580998 1_545
Na20 O112 2.592531 1_555
Na20 O79 2.765611 1_555
Na20 O110 2.773239 1_555
Na20 O10 2.778358 1_555
Na20 O40 2.963920 1_556
Na20 O68 2.968260 1_545
Na20 O48 3.054258 1_545
Na21 O113 2.601888 1_555
Na21 O83 2.625226 1_545
Na21 O41 2.734183 1_556
Na21 O111 2.804006 1_555
Na21 O78 2.836700 1_655
Na21 O11 2.989360 1_555
Na21 O49 3.001664 1_545
Na22 O80 2.505332 1_545
Na22 O112 2.566630 1_555
Na22 O108 2.627494 1_555
Na22 O6 2.700181 1_555
Na22 O78 2.704562 1_555
Na23 O113 2.488679 1_555
Na23 O109 2.575541 1_555
Na23 O81 2.599058 1_545
Na23 O7 2.765412 1_555
Na23 O79 2.819031 1_555
Na23 O71 2.856193 1_555
Na23 O37 3.017109 1_556
Na24 O74 2.505717 1_545
Na24 O114 2.556012 1_555
Na24 O77 2.561639 1_555
Na24 O46 2.784844 1_555
Na24 O118 2.833125 1_555
Na24 O4 2.914994 1_555
Na24 O57 3.005385 1_555
Na25 O75 2.497319 1_545
Na25 O76 2.559409 1_655
Na25 O115 2.583749 1_555
Na25 O47 2.769958 1_555
Na25 O119 2.830168 1_555
Na25 O5 2.915377 1_555
Na25 O56 3.010857 1_655
Na26 O76 2.568683 1_555
Na26 O116 2.584665 1_555
Na26 O0 2.587918 1_555
Na26 O114 2.651935 1_555
Na26 O72 2.732337 1_545
Na26 O62 2.848490 1_545
Na27 O77 2.547201 1_555
Na27 O117 2.556898 1_555
Na27 O1 2.595595 1_555
Na27 O115 2.629876 1_555
Na27 O73 2.738302 1_545
Na27 O63 2.937481 1_545
Na28 O74 2.578146 1_555
Na28 O116 2.599262 1_555
Na28 O2 2.666112 1_555
Na28 O118 2.802223 1_555
Na28 O73 2.812063 1_555
Na28 O64 2.905525 1_555
Na29 O75 2.582019 1_555
Na29 O117 2.617602 1_555
Na29 O3 2.624330 1_555
Na29 O119 2.788254 1_555
Na29 O72 2.792481 1_655
Na29 O65 2.937295 1_555
Na30 O75 2.495919 1_545
Na30 O76 2.507429 1_655
Na30 O85 2.569451 1_555
Na30 O72 2.844666 1_645
Na30 O89 2.900046 1_545
Na30 O86 2.962910 1_655
Na31 O77 2.489238 1_555
Na31 O74 2.491546 1_545
Na31 O84 2.572356 1_555
Na31 O73 2.835302 1_545
Na31 O88 2.913873 1_545
Na31 O87 2.957713 1_555
Na32 O93 2.500638 1_565
Na32 O91 2.518177 1_555
Na32 O83 2.608983 1_554
Na32 O80 2.785845 1_654
Na32 O94 2.911377 1_665
Na32 O78 2.941519 1_664
Na33 O90 2.525354 1_556
Na33 O81 2.535435 1_555
Na33 O82 2.586283 1_555
Na33 O95 2.875428 1_566
Na33 O92 2.893368 1_566
Na33 O79 2.897087 1_565
Na34 O112 2.535739 1_555
Na34 O108 2.629937 1_555
Na34 O98 2.651891 1_555
Na34 O96 2.718146 1_555
Na34 O110 2.887691 1_555
Na34 O100 2.952894 1_555
Na35 O113 2.528567 1_555
Na35 O109 2.566450 1_555
Na35 O99 2.641339 1_555
Na35 O97 2.760897 1_555
Na35 O111 2.922139 1_555
Na35 O101 2.944687 1_555
Na36 O106 2.476819 1_555
Na36 O102 2.604724 1_555
Na36 O116 2.714205 1_555
Na36 O114 2.751940 1_555
Na36 O104 2.817830 1_555
Na37 O107 2.457738 1_555
Na37 O103 2.532757 1_555
Na37 O117 2.692342 1_555
Na37 O115 2.790413 1_555
Na37 O105 2.819419 1_555
Na37 O119 3.021509 1_555
Na38 O132 2.500750 1_555
Na38 O122 2.602392 1_555
Na38 O134 2.625224 1_555
Na38 O136 2.789114 1_555
Na38 O124 2.828321 1_555
Na38 O120 2.984086 1_555
Na39 O125 2.487985 1_555
Na39 O123 2.541524 1_555
Na39 O133 2.646531 1_555
Na39 O135 2.768673 1_555
Na39 O121 2.854312 1_555
Na39 O137 2.930184 1_555
Na40 O138 2.505338 1_555
Na40 O130 2.573989 1_555
Na40 O142 2.655262 1_555
Na40 O140 2.674919 1_555
Na40 O128 2.862360 1_555
Na40 O126 2.929934 1_555
Na41 O139 2.442734 1_555
Na41 O143 2.534488 1_555
Na41 O131 2.699913 1_555
Na41 O141 2.766038 1_555
Na41 O129 2.845758 1_555
Na41 O127 3.018237 1_555
O0 Si0 1.660347 1_545
O0 Y0 2.149018 1_545
O1 Si1 1.648909 1_555
O1 Y1 2.164265 1_545
O2 Si2 1.648963 1_555
O2 Y1 2.163350 1_555
O3 Si3 1.647619 1_555
O3 Y0 2.166112 1_655
O4 S1 1.488621 1_555
O4 Y1 2.278735 1_545
O5 S0 1.496621 1_655
O5 Y0 2.286541 1_645
O6 Si4 1.638784 1_555
O6 Y2 2.222047 1_445
O7 Si5 1.645748 1_555
O7 Y3 2.153714 1_555
O8 S3 1.482090 1_555
O8 Y3 2.319883 1_565
O9 S2 1.474370 1_655
O9 Y2 2.302671 1_555
O10 Si6 1.632659 1_545
O10 Y3 2.198017 1_555
O11 Si7 1.638047 1_555
O11 Y2 2.170204 1_545
O12 Si6 1.644135 1_555
O12 Y5 2.123355 1_565
O13 Si7 1.642916 1_565
O13 Y4 2.091280 1_565
O14 Si4 1.648138 1_555
O14 Y4 2.126594 1_455
O15 Si5 1.658275 1_555
O15 Y5 2.091839 1_555
O16 S2 1.476784 1_555
O16 Y4 2.350380 1_465
O17 S3 1.477850 1_555
O17 Y5 2.351307 1_565
O18 Si2 1.634813 1_555
O18 Y7 2.109623 1_555
O19 Si3 1.632085 1_555
O19 Y6 2.127412 1_555
O20 S0 1.462307 1_555
O20 Y6 2.389368 1_445
O21 S1 1.469631 1_555
O21 Y7 2.373257 1_545
O22 Si0 1.638757 1_555
O22 Y6 2.191045 1_455
O23 Si1 1.644971 1_565
O23 Y7 2.119602 1_555
O24 Si8 1.637484 1_555
O24 Y8 2.137063 1_555
O25 Si9 1.631324 1_555
O25 Y9 2.180058 1_555
O26 S4 1.490219 1_555
O26 Y8 2.297515 1_555
O27 S5 1.481191 1_555
O27 Y9 2.344090 1_555
O28 S6 1.486009 1_555
O28 Y8 2.364704 1_555
O29 S7 1.475266 1_555
O29 Y9 2.343923 1_555
O30 Si10 1.637682 1_555
O30 Y10 2.156337 1_555
O31 Si11 1.637689 1_555
O31 Y11 2.154501 1_555
O32 S8 1.473909 1_555
O32 Y10 2.331731 1_555
O33 Si12 1.649241 1_555
O33 Y11 2.147790 1_555
O34 S9 1.485400 1_555
O34 Y10 2.319438 1_555
O35 S10 1.491273 1_555
O35 Y11 2.314400 1_555
O36 S9 1.499008 1_555
O36 Y12 2.275249 1_554
O37 S10 1.487544 1_555
O37 Y13 2.314577 1_554
O38 Si10 1.653346 1_555
O38 Y12 2.127015 1_554
O39 Si11 1.644243 1_555
O39 Y13 2.173989 1_554
O40 S8 1.486916 1_555
O40 Y12 2.355117 1_554
O41 Si12 1.637737 1_555
O41 Y13 2.140808 1_554
O42 S4 1.491339 1_555
O42 Y14 2.299030 1_555
O43 S5 1.494330 1_555
O43 Y15 2.296643 1_555
O44 S6 1.476675 1_555
O44 Y14 2.362817 1_555
O45 S7 1.481900 1_555
O45 Y15 2.363453 1_555
O46 Si8 1.645183 1_555
O46 Y14 2.153375 1_555
O47 Si9 1.648397 1_555
O47 Y15 2.151157 1_555
O48 Si13 1.639404 1_555
O48 Y16 2.210984 1_556
O49 Si14 1.636842 1_555
O49 Y17 2.205338 1_556
O50 S11 1.478185 1_555
O50 Y16 2.271798 1_556
O51 S12 1.461557 1_555
O51 Y17 2.390172 1_556
O52 Si15 1.643288 1_555
O52 Y16 2.114330 1_556
O53 Si16 1.641097 1_555
O53 Y17 2.137578 1_556
O54 Si17 1.648366 1_555
O54 Y18 2.201468 1_555
O55 Si18 1.645803 1_555
O55 Y19 2.190536 1_555
O56 Si19 1.652640 1_555
O56 Y18 2.103402 1_555
O57 Si20 1.649411 1_555
O57 Y19 2.110394 1_555
O58 S13 1.483168 1_555
O58 Y18 2.263212 1_555
O59 S14 1.481159 1_555
O59 Y19 2.276121 1_555
O60 S13 1.468074 1_555
O60 Y20 2.493066 1_555
O61 S14 1.472623 1_555
O61 Y21 2.428333 1_555
O62 Si17 1.625525 1_555
O62 Y20 2.106299 1_555
O63 Si18 1.637020 1_555
O63 Y21 2.129100 1_555
O64 Si19 1.634143 1_555
O64 Y20 2.246645 1_555
O65 Si20 1.635660 1_555
O65 Y21 2.196495 1_555
O66 S11 1.490249 1_555
O66 Y22 2.352046 1_555
O67 S12 1.482115 1_555
O67 Y23 2.476582 1_555
O68 Si15 1.645759 1_555
O68 Y22 2.172885 1_555
O69 Si16 1.643500 1_555
O69 Y23 2.218091 1_555
O70 Si13 1.648552 1_555
O70 Y22 2.122344 1_555
O71 Si14 1.636006 1_555
O71 Y23 2.078188 1_555
O72 S13 1.489156 1_555
O72 Y0 2.398101 1_555
O73 S14 1.486263 1_555
O73 Y1 2.414711 1_555
O74 Si17 1.653355 1_555
O74 Y1 2.297171 1_555
O75 Si18 1.651106 1_555
O75 Y0 2.311916 1_655
O76 Si19 1.654435 1_555
O76 Y0 2.296490 1_545
O77 Si20 1.653632 1_555
O77 Y1 2.309638 1_545
O78 S11 1.484230 1_555
O78 Y2 2.377229 1_445
O79 S12 1.496881 1_555
O79 Y3 2.358923 1_555
O80 Si15 1.643890 1_555
O80 Y2 2.283984 1_455
O81 Si16 1.662639 1_555
O81 Y3 2.231175 1_565
O82 Si13 1.648306 1_555
O82 Y3 2.285576 1_565
O83 Si14 1.659883 1_555
O83 Y2 2.240567 1_555
O84 Si8 1.684442 1_555
O84 Y5 2.212443 1_555
O85 Si9 1.688630 1_555
O85 Y4 2.224262 1_555
O86 S4 1.475037 1_555
O86 Y4 2.473975 1_455
O87 S5 1.482103 1_555
O87 Y5 2.442331 1_555
O88 S6 1.481619 1_555
O88 Y5 2.441609 1_565
O89 S7 1.482055 1_555
O89 Y4 2.438470 1_565
O90 Si10 1.686388 1_555
O90 Y7 2.202001 1_555
O91 Si11 1.667047 1_555
O91 Y6 2.214540 1_555
O92 S8 1.480105 1_555
O92 Y7 2.446540 1_545
O93 Si12 1.637637 1_555
O93 Y6 2.213384 1_545
O94 S9 1.468672 1_555
O94 Y6 2.462005 1_445
O95 S10 1.486672 1_555
O95 Y7 2.417539 1_545
O96 Si6 1.659361 1_545
O96 Y8 2.163927 1_555
O97 Si7 1.663520 1_555
O97 Y9 2.156974 1_555
O98 Si4 1.659918 1_555
O98 Y8 2.252070 1_555
O99 Si5 1.641501 1_555
O99 Y9 2.203662 1_555
O100 S3 1.500341 1_555
O100 Y8 2.323464 1_555
O101 S2 1.488061 1_655
O101 Y9 2.302821 1_555
O102 Si2 1.662517 1_555
O102 Y10 2.181716 1_555
O103 Si3 1.650027 1_555
O103 Y11 2.295549 1_555
O104 S1 1.483915 1_555
O104 Y10 2.319924 1_555
O105 S0 1.493282 1_655
O105 Y11 2.386173 1_555
O106 Si0 1.650629 1_545
O106 Y10 2.220508 1_555
O107 Si1 1.648802 1_555
O107 Y11 2.322080 1_555
O108 Si13 1.660316 1_555
O108 Y12 2.177477 1_555
O109 Si14 1.652893 1_555
O109 Y13 2.272362 1_555
O110 S12 1.507459 1_555
O110 Y12 2.347342 1_555
O111 S11 1.478044 1_655
O111 Y13 2.403738 1_555
O112 Si15 1.660276 1_545
O112 Y12 2.263927 1_555
O113 Si16 1.654398 1_545
O113 Y13 2.314101 1_555
O114 Si17 1.661252 1_545
O114 Y14 2.149084 1_555
O115 Si18 1.660176 1_545
O115 Y15 2.157559 1_555
O116 Si19 1.661182 1_555
O116 Y14 2.242879 1_555
O117 Si20 1.656852 1_555
O117 Y15 2.249457 1_555
O118 S14 1.492940 1_555
O118 Y14 2.335860 1_555
O119 S13 1.495743 1_655
O119 Y15 2.340190 1_555
O120 S9 1.483064 1_555
O120 Y16 2.440266 1_555
O121 S10 1.472355 1_555
O121 Y17 2.443063 1_555
O122 Si11 1.661957 1_455
O122 Y16 2.199269 1_555
O123 Si10 1.630623 1_555
O123 Y17 2.256777 1_555
O124 S8 1.502413 1_565
O124 Y16 2.389789 1_555
O125 Si12 1.667652 1_565
O125 Y17 2.189621 1_555
O126 S4 1.482658 1_565
O126 Y18 2.459020 1_555
O127 S5 1.483231 1_565
O127 Y19 2.445570 1_555
O128 S6 1.501705 1_555
O128 Y18 2.415149 1_555
O129 S7 1.505205 1_555
O129 Y19 2.386807 1_555
O130 Si9 1.657085 1_455
O130 Y18 2.235889 1_555
O131 Si8 1.647501 1_555
O131 Y19 2.230855 1_555
O132 Si0 1.654493 1_555
O132 Y20 2.225828 1_555
O133 Si1 1.653078 1_565
O133 Y21 2.253847 1_555
O134 Si2 1.644848 1_555
O134 Y20 2.168155 1_555
O135 Si3 1.655628 1_555
O135 Y21 2.164275 1_555
O136 S0 1.486686 1_555
O136 Y20 2.473538 1_555
O137 S1 1.490202 1_555
O137 Y21 2.437807 1_555
O138 Si4 1.655413 1_555
O138 Y22 2.286460 1_555
O139 Si5 1.647959 1_555
O139 Y23 2.257979 1_555
O140 S2 1.500217 1_555
O140 Y22 2.457596 1_555
O141 S3 1.475703 1_555
O141 Y23 2.555015 1_555
O142 Si6 1.649833 1_555
O142 Y22 2.204224 1_555
O143 Si7 1.644061 1_565
O143 Y23 2.188043 1_555
