# generated using pymatgen
data_UCrC2
_symmetry_space_group_name_H-M   'P 1'
_cell_length_a   3.72883700
_cell_length_b   5.24584100
_cell_length_c   10.39471700
_cell_angle_alpha   90.00000000
_cell_angle_beta   90.00000000
_cell_angle_gamma   90.00000000
_symmetry_Int_Tables_number   1
_chemical_formula_structural   UCrC2
_chemical_formula_sum   'U4 Cr4 C8'
_cell_volume   203.32987442
_cell_formula_units_Z   4
loop_
 _symmetry_equiv_pos_site_id
 _symmetry_equiv_pos_as_xyz
  1  'x, y, z'
loop_
 _atom_site_type_symbol
 _atom_site_label
 _atom_site_symmetry_multiplicity
 _atom_site_fract_x
 _atom_site_fract_y
 _atom_site_fract_z
 _atom_site_occupancy
  U  U0  1  0.25000000  0.10449200  0.85597100  1
  U  U1  1  0.75000000  0.89550800  0.14402900  1
  U  U2  1  0.25000000  0.60449200  0.64402900  1
  U  U3  1  0.75000000  0.39550800  0.35597100  1
  Cr  Cr0  1  0.75000000  0.09912000  0.56983400  1
  Cr  Cr1  1  0.75000000  0.59912000  0.93016600  1
  Cr  Cr2  1  0.25000000  0.90088000  0.43016600  1
  Cr  Cr3  1  0.25000000  0.40088000  0.06983400  1
  C  C0  1  0.25000000  0.75507300  0.00068900  1
  C  C1  1  0.75000000  0.24492700  0.99931100  1
  C  C2  1  0.25000000  0.25507300  0.49931100  1
  C  C3  1  0.75000000  0.74492700  0.50068900  1
  C  C4  1  0.25000000  0.60051400  0.87552500  1
  C  C5  1  0.75000000  0.89948600  0.37552500  1
  C  C6  1  0.25000000  0.10051400  0.62447500  1
  C  C7  1  0.75000000  0.39948600  0.12447500  1
loop_
_geom_bond_atom_site_label_1
_geom_bond_atom_site_label_2
_geom_bond_distance
_geom_bond_site_symmetry_2
C0 C4 1.533004 1_554
C0 Cr3 1.992211 1_555
C0 Cr1 2.163964 1_454
C0 Cr1 2.163964 1_554
C0 U0 2.371245 1_564
C0 U1 2.497763 1_455
C0 U1 2.497763 1_555
C1 C7 1.533004 1_556
C1 Cr1 1.992211 1_555
C1 Cr3 2.163964 1_556
C1 Cr3 2.163964 1_656
C1 U1 2.371245 1_546
C1 U0 2.497763 1_655
C1 U0 2.497763 1_555
C2 C6 1.533004 1_555
C2 Cr2 1.992211 1_545
C2 Cr0 2.163964 1_455
C2 Cr0 2.163964 1_555
C2 U2 2.371245 1_555
C2 U3 2.497763 1_555
C2 U3 2.497763 1_455
C3 C5 1.533004 1_555
C3 Cr0 1.992211 1_565
C3 Cr2 2.163964 1_655
C3 Cr2 2.163964 1_555
C3 U3 2.371245 1_555
C3 U2 2.497763 1_555
C3 U2 2.497763 1_655
C4 Cr1 1.949028 1_455
C4 Cr1 1.949028 1_555
C4 Cr3 2.275141 1_556
C4 U2 2.406426 1_555
C4 U0 2.609979 1_555
C4 U0 2.651590 1_565
C5 Cr2 1.949028 1_655
C5 Cr2 1.949028 1_555
C5 Cr0 2.275141 1_565
C5 U1 2.406426 1_555
C5 U3 2.609979 1_565
C5 U3 2.651590 1_555
C6 Cr0 1.949028 1_455
C6 Cr0 1.949028 1_555
C6 Cr2 2.275141 1_545
C6 U0 2.406426 1_555
C6 U2 2.609979 1_545
C6 U2 2.651590 1_555
C7 Cr3 1.949028 1_655
C7 Cr3 1.949028 1_555
C7 Cr1 2.275141 1_554
C7 U3 2.406426 1_555
C7 U1 2.609979 1_555
C7 U1 2.651590 1_545
