# generated using pymatgen
data_NiAs2
_symmetry_space_group_name_H-M   'P 1'
_cell_length_a   5.74611963
_cell_length_b   5.74611963
_cell_length_c   5.74611963
_cell_angle_alpha   90.00000000
_cell_angle_beta   90.00000000
_cell_angle_gamma   90.00000000
_symmetry_Int_Tables_number   1
_chemical_formula_structural   NiAs2
_chemical_formula_sum   'Ni4 As8'
_cell_volume   189.72475048
_cell_formula_units_Z   4
loop_
 _symmetry_equiv_pos_site_id
 _symmetry_equiv_pos_as_xyz
  1  'x, y, z'
loop_
 _atom_site_type_symbol
 _atom_site_label
 _atom_site_symmetry_multiplicity
 _atom_site_fract_x
 _atom_site_fract_y
 _atom_site_fract_z
 _atom_site_occupancy
  Ni  Ni0  1  -0.00000000  0.00000000  0.00000000  1
  Ni  Ni1  1  0.50000000  0.00000000  0.50000000  1
  Ni  Ni2  1  0.50000000  0.50000000  0.00000000  1
  Ni  Ni3  1  0.00000000  0.50000000  0.50000000  1
  As  As0  1  0.37806302  0.37806302  0.37806302  1
  As  As1  1  0.12193698  0.62193698  0.87806302  1
  As  As2  1  0.87806302  0.12193698  0.62193698  1
  As  As3  1  0.62193698  0.87806302  0.12193698  1
  As  As4  1  0.62193698  0.62193698  0.62193698  1
  As  As5  1  0.87806302  0.37806302  0.12193698  1
  As  As6  1  0.12193698  0.87806302  0.37806302  1
  As  As7  1  0.37806302  0.12193698  0.87806302  1
loop_
_geom_bond_atom_site_label_1
_geom_bond_atom_site_label_2
_geom_bond_distance
_geom_bond_site_symmetry_2
As0 Ni1 2.387711 1_555
As0 Ni3 2.387711 1_555
As0 Ni2 2.387711 1_555
As0 As4 2.427173 1_555
As1 Ni3 2.387711 1_555
As1 Ni2 2.387711 1_556
As1 Ni0 2.387711 1_566
As1 As5 2.427173 1_456
As2 Ni3 2.387711 1_655
As2 Ni1 2.387711 1_555
As2 Ni0 2.387711 1_656
As2 As6 2.427173 1_645
As3 Ni2 2.387711 1_555
As3 Ni0 2.387711 1_665
As3 Ni1 2.387711 1_565
As3 As7 2.427173 1_564
As4 Ni2 2.387711 1_556
As4 Ni3 2.387711 1_655
As4 Ni1 2.387711 1_565
As5 Ni0 2.387711 1_655
As5 Ni2 2.387711 1_555
As5 Ni3 2.387711 1_655
As6 Ni3 2.387711 1_555
As6 Ni0 2.387711 1_565
As6 Ni1 2.387711 1_565
As7 Ni1 2.387711 1_555
As7 Ni2 2.387711 1_556
As7 Ni0 2.387711 1_556
