# generated using pymatgen
data_Na18Mg4Ta20Si27(SO16)9
_symmetry_space_group_name_H-M   'P 1'
_cell_length_a   17.87991081
_cell_length_b   8.92887993
_cell_length_c   22.73639891
_cell_angle_alpha   90.02993308
_cell_angle_beta   89.89687128
_cell_angle_gamma   120.05241576
_symmetry_Int_Tables_number   1
_chemical_formula_structural   Na18Mg4Ta20Si27(SO16)9
_chemical_formula_sum   'Na18 Mg4 Ta20 Si27 S9 O144'
_cell_volume   3141.84149649
_cell_formula_units_Z   1
loop_
 _symmetry_equiv_pos_site_id
 _symmetry_equiv_pos_as_xyz
  1  'x, y, z'
loop_
 _atom_site_type_symbol
 _atom_site_label
 _atom_site_symmetry_multiplicity
 _atom_site_fract_x
 _atom_site_fract_y
 _atom_site_fract_z
 _atom_site_occupancy
  Na  Na0  1  0.31509122  0.01711880  0.23947022  1
  Na  Na1  1  0.81560950  0.01441029  0.25016053  1
  Na  Na2  1  0.99345006  0.61836347  0.23939894  1
  Na  Na3  1  0.31650446  0.61648909  0.75320768  1
  Na  Na4  1  0.81569537  0.61211474  0.74426366  1
  Na  Na5  1  0.49246916  0.36827020  0.74195092  1
  Na  Na6  1  0.99225678  0.99251980  0.49405351  1
  Na  Na7  1  0.50081221  0.00457090  0.49813798  1
  Na  Na8  1  0.00098359  0.99809561  0.00057701  1
  Na  Na9  1  0.49078189  0.98344359  0.99753982  1
  Na  Na10  1  0.32366042  0.31678750  0.82741232  1
  Na  Na11  1  0.83296888  0.32908478  0.82493421  1
  Na  Na12  1  0.33505416  0.34046402  0.32067462  1
  Na  Na13  1  0.82424977  0.32943212  0.32059102  1
  Na  Na14  1  0.16496839  0.66514599  0.15890885  1
  Na  Na15  1  0.65093731  0.64870368  0.16949945  1
  Na  Na16  1  0.16099523  0.66601956  0.67485710  1
  Na  Na17  1  0.66160380  0.66095654  0.66166334  1
  Mg  Mg0  1  0.33566174  0.32901115  0.69229192  1
  Mg  Mg1  1  0.83185477  0.34382404  0.68813508  1
  Mg  Mg2  1  0.33898200  0.32641011  0.18611163  1
  Mg  Mg3  1  0.83517219  0.34172259  0.19069729  1
  Ta  Ta0  1  0.99889814  0.00074559  0.35608457  1
  Ta  Ta1  1  0.50658762  0.01167223  0.35719918  1
  Ta  Ta2  1  0.00713452  -0.00017632  0.85887921  1
  Ta  Ta3  1  0.49865942  0.99633971  0.85724331  1
  Ta  Ta4  1  0.00261405  0.99144795  0.64676124  1
  Ta  Ta5  1  0.50151828  0.01426603  0.64986029  1
  Ta  Ta6  1  0.00209039  0.99107811  0.14901089  1
  Ta  Ta7  1  0.50307264  0.00586502  0.14226069  1
  Ta  Ta8  1  0.34054481  0.33913815  0.97811408  1
  Ta  Ta9  1  0.83914703  0.34882062  0.97453162  1
  Ta  Ta10  1  0.33984445  0.33171277  0.47404773  1
  Ta  Ta11  1  0.83334120  0.34318366  0.47488403  1
  Ta  Ta12  1  0.16643489  0.67366125  0.01950096  1
  Ta  Ta13  1  0.66277640  0.66810684  0.01803000  1
  Ta  Ta14  1  0.16706149  0.66494669  0.51644431  1
  Ta  Ta15  1  0.66599107  0.65808154  0.51969097  1
  Ta  Ta16  1  0.16360773  0.66061475  0.31292098  1
  Ta  Ta17  1  0.66419242  0.66547843  0.30992538  1
  Ta  Ta18  1  0.16497656  0.66516491  0.81229865  1
  Ta  Ta19  1  0.66268846  0.66554881  0.81434572  1
  Si  Si0  1  0.14817851  0.00876844  0.25355791  1
  Si  Si1  1  0.64368267  0.00073566  0.24859091  1
  Si  Si2  1  0.85313824  0.70850198  0.25200653  1
  Si  Si3  1  0.00369269  0.28787673  0.24871997  1
  Si  Si4  1  0.49988015  0.28981609  0.25073209  1
  Si  Si5  1  0.14361482  0.28864446  0.74902630  1
  Si  Si6  1  0.64769644  0.28903675  0.75419856  1
  Si  Si7  1  0.99983077  0.70356001  0.75294145  1
  Si  Si8  1  0.50429046  0.71992624  0.74835024  1
  Si  Si9  1  0.35280434  0.99830197  0.75277799  1
  Si  Si10  1  0.47718935  0.33209483  0.58733333  1
  Si  Si11  1  0.83314891  0.62595595  0.58660880  1
  Si  Si12  1  0.47821059  0.62010842  0.08707138  1
  Si  Si13  1  0.97768109  0.62197289  0.08740151  1
  Si  Si14  1  0.33165875  0.04211998  0.08693269  1
  Si  Si15  1  0.30815961  0.66103347  0.91609324  1
  Si  Si16  1  0.81001334  0.67228322  0.91587617  1
  Si  Si17  1  0.02540214  0.37995013  0.91734310  1
  Si  Si18  1  0.52184950  0.37355533  0.91700898  1
  Si  Si19  1  0.17201465  0.95873851  0.91636184  1
  Si  Si20  1  0.66791049  0.96027721  0.91686501  1
  Si  Si21  1  0.31170312  0.95148090  0.41411271  1
  Si  Si22  1  0.80863554  0.95221561  0.41638077  1
  Si  Si23  1  0.16735927  0.37494490  0.41690587  1
  Si  Si24  1  0.66799132  0.38495202  0.41499988  1
  Si  Si25  1  0.02280391  0.67004413  0.41678518  1
  Si  Si26  1  0.52677647  0.67277838  0.41726124  1
  S  S0  1  0.35784694  0.71532365  0.25035136  1
  S  S1  1  0.85837578  0.00243632  0.74926571  1
  S  S2  1  0.97946869  0.33549636  0.58356339  1
  S  S3  1  0.18923284  0.04295476  0.58370639  1
  S  S4  1  0.69039014  0.04782037  0.58416719  1
  S  S5  1  0.33192848  0.62242076  0.58322331  1
  S  S6  1  0.83378141  0.04418062  0.08330201  1
  S  S7  1  0.18864233  0.33167427  0.08399122  1
  S  S8  1  0.69145943  0.33723172  0.08315600  1
  O  O0  1  0.09327768  0.01138950  0.31045813  1
  O  O1  1  0.59213702  0.01420797  0.30694088  1
  O  O2  1  0.40844352  0.79884208  0.30408603  1
  O  O3  1  0.91480296  0.81361925  0.30837850  1
  O  O4  1  0.49005596  0.16295936  0.30726179  1
  O  O5  1  0.99439953  0.17028514  0.30659282  1
  O  O6  1  0.09005123  0.16467893  0.80517869  1
  O  O7  1  0.59283701  0.17593319  0.81016712  1
  O  O8  1  0.49449108  0.81945371  0.80552761  1
  O  O9  1  0.98555431  0.81006557  0.80647490  1
  O  O10  1  0.41513888  0.01618446  0.80796723  1
  O  O11  1  0.90815386  0.02253276  0.80260254  1
  O  O12  1  0.40337979  0.96996690  0.69348132  1
  O  O13  1  0.90075532  0.97128788  0.69573471  1
  O  O14  1  0.08147480  0.19102310  0.69018974  1
  O  O15  1  0.58252461  0.20245745  0.69476121  1
  O  O16  1  0.00969145  0.82929001  0.69306588  1
  O  O17  1  0.51780155  0.83998295  0.68900324  1
  O  O18  1  0.39812336  0.82611407  0.19704860  1
  O  O19  1  0.90371922  0.83792394  0.19367011  1
  O  O20  1  0.01708628  0.19479292  0.19021193  1
  O  O21  1  0.50916507  0.18559091  0.19305888  1
  O  O22  1  0.08202991  0.96285414  0.19490064  1
  O  O23  1  0.58227370  0.97541274  0.19128823  1
  O  O24  1  0.43857677  0.35687957  0.64693658  1
  O  O25  1  0.94017720  0.35679104  0.63679306  1
  O  O26  1  0.23833279  0.11996703  0.63643282  1
  O  O27  1  0.74078148  0.12584815  0.63728244  1
  O  O28  1  0.31786898  0.52619782  0.63796866  1
  O  O29  1  0.81974057  0.52637119  0.64708016  1
  O  O30  1  0.43775939  0.51072993  0.14432175  1
  O  O31  1  0.93940237  0.52088400  0.14726075  1
  O  O32  1  0.31144282  0.10164314  0.14777782  1
  O  O33  1  0.82066538  0.11359445  0.13820340  1
  O  O34  1  0.23731462  0.35297224  0.13772262  1
  O  O35  1  0.74037235  0.35553424  0.13631039  1
  O  O36  1  0.22910651  0.31019643  0.03013891  1
  O  O37  1  0.73022891  0.31164833  0.02922549  1
  O  O38  1  0.42025187  0.52967841  0.02661603  1
  O  O39  1  0.91385026  0.51807275  0.02980740  1
  O  O40  1  0.34307962  0.16910995  0.03015022  1
  O  O41  1  0.84041431  0.15070227  0.03114074  1
  O  O42  1  0.22702678  0.14294608  0.52932018  1
  O  O43  1  0.73404289  0.15320891  0.53065886  1
  O  O44  1  0.33785843  0.52911790  0.53104007  1
  O  O45  1  0.84514245  0.52080383  0.52963687  1
  O  O46  1  0.41345119  0.30962004  0.52978193  1
  O  O47  1  0.92868423  0.31498913  0.52977152  1
  O  O48  1  0.25956500  0.68901604  0.97172632  1
  O  O49  1  0.76235728  0.69292996  0.97352678  1
  O  O50  1  0.08315256  0.46584895  0.97514963  1
  O  O51  1  0.58333044  0.47621426  0.97315359  1
  O  O52  1  0.15286907  0.83503257  0.97362847  1
  O  O53  1  0.65444398  0.83544154  0.97370842  1
  O  O54  1  0.26109184  0.83259305  0.47278884  1
  O  O55  1  0.76010641  0.82827020  0.47263140  1
  O  O56  1  0.15468769  0.47474079  0.47492758  1
  O  O57  1  0.65295547  0.46949239  0.47408017  1
  O  O58  1  0.08306040  0.68788010  0.47430773  1
  O  O59  1  0.58378295  0.69923447  0.47571517  1
  O  O60  1  0.06804884  0.63798463  0.35867062  1
  O  O61  1  0.56924152  0.63582757  0.35986835  1
  O  O62  1  0.25219477  0.86356159  0.35642109  1
  O  O63  1  0.75170562  0.87244330  0.35660075  1
  O  O64  1  0.18278538  0.50165380  0.36044432  1
  O  O65  1  0.68446492  0.50459001  0.35813592  1
  O  O66  1  0.06810689  0.50124722  0.85930761  1
  O  O67  1  0.56805309  0.49590649  0.85793387  1
  O  O68  1  0.18309996  0.86400967  0.85847705  1
  O  O69  1  0.68323596  0.86594316  0.85922415  1
  O  O70  1  0.25167636  0.63491909  0.85582633  1
  O  O71  1  0.75260806  0.64245639  0.85600022  1
  O  O72  1  0.01274792  0.83815484  0.41341996  1
  O  O73  1  0.51030158  0.83402420  0.40910374  1
  O  O74  1  0.40567526  0.96972599  0.40985296  1
  O  O75  1  0.90473688  0.97489481  0.41054255  1
  O  O76  1  0.08108830  0.18893951  0.41214773  1
  O  O77  1  0.58313824  0.19190778  0.41019218  1
  O  O78  1  0.01010809  0.18603734  0.90746036  1
  O  O79  1  0.51299521  0.18599483  0.91262967  1
  O  O80  1  0.08374660  0.97353373  0.90960193  1
  O  O81  1  0.58158775  0.97309421  0.91047762  1
  O  O82  1  0.40414005  0.83235516  0.90945288  1
  O  O83  1  0.90522141  0.84062135  0.90780516  1
  O  O84  1  0.48789783  0.15517399  0.58749202  1
  O  O85  1  0.99122659  0.18074909  0.58687650  1
  O  O86  1  0.09892782  0.02140616  0.58752357  1
  O  O87  1  0.60269309  0.03221337  0.58640165  1
  O  O88  1  0.41095648  0.79716610  0.58430743  1
  O  O89  1  0.92176036  0.82558608  0.58882903  1
  O  O90  1  0.49200302  0.81963804  0.08989384  1
  O  O91  1  0.98769105  0.81947243  0.08818233  1
  O  O92  1  0.42102245  0.02627155  0.09013712  1
  O  O93  1  0.91398279  0.03036839  0.08479111  1
  O  O94  1  0.09918088  0.17180672  0.08717829  1
  O  O95  1  0.60149545  0.17985076  0.08631764  1
  O  O96  1  0.34713293  0.16883082  0.74874287  1
  O  O97  1  0.84670751  0.14948154  0.73957551  1
  O  O98  1  0.23882298  0.31830583  0.74300025  1
  O  O99  1  0.74050726  0.30778995  0.74920821  1
  O  O100  1  0.41925417  0.53264313  0.74590280  1
  O  O101  1  0.91598084  0.51771274  0.74786941  1
  O  O102  1  0.34324161  0.54166973  0.24466840  1
  O  O103  1  0.84776326  0.52672577  0.24858736  1
  O  O104  1  0.41499486  0.30428848  0.25120511  1
  O  O105  1  0.91910921  0.30594768  0.24708793  1
  O  O106  1  0.24054763  0.17532595  0.24892955  1
  O  O107  1  0.73972648  0.16047728  0.24396978  1
  O  O108  1  0.31718292  0.49075763  0.92666530  1
  O  O109  1  0.81946799  0.49850237  0.92487279  1
  O  O110  1  0.42870600  0.36180775  0.92310693  1
  O  O111  1  0.92865473  0.36018545  0.92642009  1
  O  O112  1  0.25346099  0.14925755  0.92582702  1
  O  O113  1  0.75320765  0.14725645  0.92885945  1
  O  O114  1  0.31886932  0.14058731  0.42557152  1
  O  O115  1  0.82033079  0.14361687  0.43182334  1
  O  O116  1  0.25263150  0.35957711  0.43035409  1
  O  O117  1  0.75159131  0.35788524  0.42564280  1
  O  O118  1  0.42933990  0.49819320  0.42687670  1
  O  O119  1  0.92933852  0.49340890  0.42626434  1
  O  O120  1  0.17544002  0.48404540  0.07753942  1
  O  O121  1  0.68003600  0.49127338  0.07652924  1
  O  O122  1  0.07402076  0.64669804  0.07465151  1
  O  O123  1  0.57826096  0.64935842  0.07528737  1
  O  O124  1  0.25173926  0.84238367  0.07327400  1
  O  O125  1  0.75771208  0.86414137  0.07554950  1
  O  O126  1  0.17495545  0.86185216  0.57695084  1
  O  O127  1  0.67798040  0.87054524  0.57762182  1
  O  O128  1  0.25434504  0.64907649  0.57563389  1
  O  O129  1  0.75167907  0.65929129  0.57450974  1
  O  O130  1  0.06937931  0.49410952  0.57734655  1
  O  O131  1  0.57401131  0.50079397  0.57487498  1
  O  O132  1  0.15346185  0.82550548  0.25788727  1
  O  O133  1  0.64882844  0.82171074  0.25573311  1
  O  O134  1  0.27228004  0.71321292  0.25494708  1
  O  O135  1  0.76320619  0.71405969  0.25490697  1
  O  O136  1  0.09147034  0.48239512  0.25529096  1
  O  O137  1  0.59067207  0.47440935  0.25651948  1
  O  O138  1  0.14794989  0.47634132  0.75534687  1
  O  O139  1  0.65461084  0.48377946  0.75647372  1
  O  O140  1  0.09149450  0.70804780  0.75564886  1
  O  O141  1  0.59209863  0.70053332  0.75424603  1
  O  O142  1  0.26286261  0.81209095  0.75423976  1
  O  O143  1  0.77305709  0.83506241  0.75211727  1
loop_
_geom_bond_atom_site_label_1
_geom_bond_atom_site_label_2
_geom_bond_distance
_geom_bond_site_symmetry_2
Na0 O32 2.229683 1_555
Na0 O104 2.291318 1_555
Na0 O106 2.388008 1_555
Na0 O134 2.447995 1_545
Na0 O132 2.549185 1_545
Na1 O107 2.309732 1_555
Na1 O105 2.319590 1_555
Na1 O135 2.358979 1_545
Na1 O133 2.594008 1_545
Na1 O33 2.682049 1_555
Na1 O63 2.704010 1_545
Na2 O31 2.289747 1_555
Na2 O103 2.315588 1_555
Na2 O105 2.421722 1_555
Na2 O132 2.546844 1_655
Na2 O136 2.609576 1_655
Na2 O22 2.848054 1_655
Na2 O60 2.990343 1_655
Na3 O100 2.310745 1_555
Na3 O98 2.316959 1_555
Na3 O142 2.376626 1_555
Na3 O138 2.621676 1_555
Na3 O70 2.644858 1_555
Na3 O28 2.744603 1_555
Na4 O101 2.333838 1_555
Na4 O29 2.350921 1_555
Na4 O99 2.354684 1_555
Na4 O143 2.468813 1_555
Na4 O139 2.525354 1_555
Na4 O71 2.845151 1_555
Na5 O96 2.304715 1_555
Na5 O24 2.348358 1_555
Na5 O100 2.408230 1_555
Na5 O139 2.566270 1_555
Na5 O141 2.600125 1_555
Na5 O15 2.883680 1_555
Na5 O67 2.923391 1_555
Na6 O75 2.417117 1_555
Na6 O72 2.428114 1_655
Na6 O76 2.503850 1_665
Na6 O89 2.562361 1_555
Na6 O85 2.703002 1_565
Na6 O86 2.782421 1_665
Na7 O84 2.509062 1_555
Na7 O77 2.547503 1_555
Na7 O74 2.549723 1_545
Na7 O73 2.588410 1_545
Na7 O88 2.619462 1_545
Na7 O87 2.639845 1_555
Na8 O91 2.487880 1_455
Na8 O93 2.570342 1_465
Na8 O94 2.578192 1_565
Na8 O80 2.613410 1_554
Na8 O83 2.637509 1_454
Na8 O78 2.655785 1_564
Na9 O82 2.479129 1_555
Na9 O79 2.537142 1_565
Na9 O90 2.565967 1_556
Na9 O92 2.569400 1_566
Na9 O81 2.588721 1_555
Na9 O95 2.757175 1_566
Na10 O96 2.381357 1_555
Na10 O98 2.452684 1_555
Na10 O100 2.600655 1_555
Na10 O112 2.633006 1_555
Na10 O110 2.771414 1_555
Na10 O108 2.773881 1_555
Na11 O99 2.329954 1_555
Na11 O101 2.366369 1_555
Na11 O97 2.605408 1_555
Na11 O111 2.804645 1_555
Na11 O109 2.805321 1_555
Na11 O113 2.815271 1_555
Na12 O104 2.257401 1_555
Na12 O106 2.280846 1_555
Na12 O102 2.444232 1_555
Na12 O118 2.879079 1_555
Na12 O114 2.905446 1_555
Na12 O116 2.942412 1_555
Na13 O103 2.284488 1_555
Na13 O107 2.306052 1_555
Na13 O105 2.461542 1_555
Na13 O117 2.788543 1_555
Na13 O119 2.950257 1_555
Na13 O115 3.006802 1_555
Na14 O122 2.466575 1_555
Na14 O124 2.497113 1_555
Na14 O120 2.524157 1_555
Na14 O136 2.652804 1_555
Na14 O132 2.728889 1_555
Na14 O134 2.796955 1_555
Na15 O137 2.411125 1_555
Na15 O133 2.507336 1_555
Na15 O123 2.508902 1_555
Na15 O135 2.642050 1_555
Na15 O121 2.727681 1_555
Na15 O125 2.866929 1_555
Na16 O140 2.348920 1_555
Na16 O138 2.424428 1_555
Na16 O142 2.430257 1_555
Na16 O130 2.728705 1_555
Na16 O126 2.764044 1_555
Na16 O128 2.852572 1_555
Na17 O131 2.481246 1_555
Na17 O141 2.555379 1_555
Na17 O129 2.555992 1_555
Na17 O127 2.586870 1_555
Na17 O139 2.640005 1_555
Na17 O143 2.743361 1_555
Mg0 O96 2.007898 1_555
Mg0 O24 2.011509 1_555
Mg0 O98 2.040470 1_555
Mg0 O100 2.075558 1_555
Mg0 O26 2.208499 1_555
Mg0 O28 2.300288 1_555
Mg1 O29 1.982640 1_555
Mg1 O99 2.040900 1_555
Mg1 O101 2.045427 1_555
Mg1 O27 2.146291 1_555
Mg1 O25 2.212386 1_555
Mg1 O97 2.216832 1_555
Mg2 O30 1.953179 1_555
Mg2 O32 2.009916 1_555
Mg2 O104 2.086378 1_555
Mg2 O106 2.138289 1_555
Mg2 O34 2.238385 1_555
Mg2 O102 2.307295 1_555
Mg3 O31 2.004134 1_555
Mg3 O103 2.034232 1_555
Mg3 O107 2.055928 1_555
Mg3 O105 2.117956 1_555
Mg3 O35 2.152773 1_555
Mg3 O33 2.260586 1_555
O0 Si0 1.629789 1_555
O0 Ta0 1.940621 1_455
O1 Si1 1.652391 1_555
O1 Ta1 1.898692 1_555
O2 S0 1.481378 1_555
O2 Ta1 2.194117 1_565
O3 Si2 1.645194 1_555
O3 Ta0 1.927884 1_565
O4 Si4 1.663496 1_555
O4 Ta1 1.898407 1_555
O5 Si3 1.639307 1_655
O5 Ta0 1.920504 1_555
O6 Si5 1.645503 1_555
O6 Ta2 1.914423 1_555
O7 Si6 1.614317 1_555
O7 Ta3 1.960444 1_545
O8 Si8 1.632292 1_555
O8 Ta3 1.939869 1_555
O9 Si7 1.640668 1_555
O9 Ta2 1.945254 1_665
O10 Si9 1.633648 1_545
O10 Ta3 1.946259 1_545
O11 S1 1.462415 1_555
O11 Ta2 2.275570 1_655
O12 Si9 1.709902 1_555
O12 Ta5 1.875653 1_565
O13 S1 1.529793 1_565
O13 Ta4 2.062440 1_655
O14 Si5 1.678658 1_555
O14 Ta4 1.903985 1_545
O15 Si6 1.698250 1_555
O15 Ta5 1.878686 1_555
O16 Si7 1.716728 1_455
O16 Ta4 1.845635 1_555
O17 Si8 1.664079 1_555
O17 Ta5 1.937675 1_565
O18 S0 1.500171 1_555
O18 Ta7 2.150825 1_565
O19 Si2 1.692059 1_555
O19 Ta6 1.892259 1_655
O20 Si3 1.647659 1_555
O20 Ta6 1.941294 1_545
O21 Si4 1.663052 1_555
O21 Ta7 1.935064 1_555
O22 Si0 1.692637 1_565
O22 Ta6 1.887185 1_555
O23 Si1 1.646306 1_565
O23 Ta7 1.927051 1_565
O24 Si10 1.584747 1_555
O25 S2 1.457701 1_555
O26 S3 1.441871 1_555
O27 S4 1.459424 1_555
O28 S5 1.460936 1_555
O29 Si11 1.589041 1_555
O30 Si12 1.568984 1_555
O31 Si13 1.585749 1_555
O32 Si14 1.586428 1_555
O33 S6 1.463217 1_555
O34 S7 1.457322 1_555
O35 S8 1.453471 1_555
O36 S7 1.481530 1_555
O36 Ta8 2.216334 1_554
O37 S8 1.480364 1_555
O37 Ta9 2.189389 1_554
O38 Si12 1.667668 1_555
O38 Ta8 1.927908 1_554
O39 Si13 1.679756 1_555
O39 Ta9 1.905174 1_554
O40 Si14 1.662169 1_555
O40 Ta8 1.943608 1_554
O41 S6 1.487578 1_555
O41 Ta9 2.197501 1_554
O42 S3 1.475354 1_555
O42 Ta10 2.253197 1_555
O43 S4 1.495632 1_555
O43 Ta11 2.148345 1_555
O44 S5 1.483223 1_555
O44 Ta10 2.201654 1_555
O45 Si11 1.674749 1_555
O45 Ta11 1.942472 1_555
O46 Si10 1.681449 1_555
O46 Ta10 1.908680 1_555
O47 S2 1.480229 1_555
O47 Ta11 2.228149 1_555
O48 Si15 1.621871 1_555
O48 Ta12 1.932981 1_556
O49 Si16 1.622100 1_555
O49 Ta13 1.960003 1_556
O50 Si17 1.610123 1_555
O50 Ta12 1.978192 1_556
O51 Si18 1.634851 1_555
O51 Ta13 1.886859 1_556
O52 Si19 1.629022 1_555
O52 Ta12 1.890832 1_556
O53 Si20 1.643872 1_555
O53 Ta13 1.869522 1_556
O54 Si21 1.661484 1_555
O54 Ta14 1.878137 1_555
O55 Si22 1.627586 1_555
O55 Ta15 1.928666 1_555
O56 Si23 1.668992 1_555
O56 Ta14 1.856616 1_555
O57 Si24 1.627069 1_555
O57 Ta15 1.889757 1_555
O58 Si25 1.652151 1_555
O58 Ta14 1.878558 1_555
O59 Si26 1.620010 1_555
O59 Ta15 1.960073 1_555
O60 Si25 1.646194 1_555
O60 Ta16 1.920964 1_555
O61 Si26 1.623273 1_555
O61 Ta17 1.945490 1_555
O62 Si21 1.623662 1_555
O62 Ta16 1.974762 1_555
O63 Si22 1.633595 1_555
O63 Ta17 2.024189 1_555
O64 Si23 1.640651 1_555
O64 Ta16 1.946794 1_555
O65 Si24 1.607592 1_555
O65 Ta17 1.980199 1_555
O66 Si17 1.633011 1_555
O66 Ta18 1.934000 1_555
O67 Si18 1.665416 1_555
O67 Ta19 1.888939 1_555
O68 Si19 1.628683 1_555
O68 Ta18 1.944906 1_555
O69 Si20 1.652515 1_555
O69 Ta19 1.928408 1_555
O70 Si15 1.649449 1_555
O70 Ta18 1.969911 1_555
O71 Si16 1.645784 1_555
O71 Ta19 1.965210 1_555
O72 Si25 1.600559 1_555
O72 Ta0 2.057060 1_465
O73 Si26 1.618421 1_555
O73 Ta1 2.005208 1_565
O74 Si21 1.607580 1_555
O74 Ta1 2.035884 1_565
O75 Si22 1.631511 1_555
O75 Ta0 2.006098 1_565
O76 Si23 1.607450 1_555
O76 Ta0 2.034504 1_455
O77 Si24 1.632771 1_555
O77 Ta1 1.926835 1_555
O78 Si17 1.627480 1_555
O78 Ta2 1.974116 1_555
O79 Si18 1.604353 1_555
O79 Ta3 2.020723 1_545
O80 Si19 1.655773 1_555
O80 Ta2 1.894603 1_565
O81 Si20 1.610634 1_555
O81 Ta3 2.005382 1_555
O82 Si15 1.636418 1_555
O82 Ta3 1.981226 1_555
O83 Si16 1.620857 1_555
O83 Ta2 1.994617 1_665
O84 Si10 1.683772 1_555
O84 Ta5 1.990742 1_555
O85 S2 1.500042 1_555
O85 Ta4 2.258393 1_645
O86 S3 1.529702 1_555
O86 Ta4 2.093270 1_545
O87 S4 1.503842 1_555
O87 Ta5 2.253969 1_555
O88 S5 1.491169 1_555
O88 Ta5 2.337268 1_565
O89 Si11 1.691628 1_555
O89 Ta4 1.969408 1_655
O90 Si12 1.672973 1_555
O90 Ta7 1.972519 1_565
O91 Si13 1.681060 1_555
O91 Ta6 1.982616 1_655
O92 Si14 1.674885 1_555
O92 Ta7 1.965736 1_555
O93 S6 1.500001 1_555
O93 Ta6 2.301987 1_645
O94 S7 1.521259 1_555
O94 Ta6 2.186745 1_545
O95 S8 1.517564 1_555
O95 Ta7 2.093778 1_555
O96 Si9 1.578586 1_545
O97 S1 1.445933 1_555
O98 Si5 1.591987 1_555
O99 Si6 1.586102 1_555
O100 Si8 1.601512 1_555
O101 Si7 1.588481 1_555
O102 S0 1.443402 1_555
O103 Si2 1.579007 1_555
O104 Si4 1.586420 1_555
O105 Si3 1.599755 1_655
O106 Si0 1.577936 1_555
O107 Si1 1.593944 1_555
O108 Si15 1.625282 1_555
O108 Ta8 1.986296 1_555
O109 Si16 1.655679 1_555
O109 Ta9 1.912800 1_555
O110 Si18 1.621109 1_555
O110 Ta8 1.939973 1_555
O111 Si17 1.661042 1_655
O111 Ta9 1.897177 1_555
O112 Si19 1.606349 1_545
O112 Ta8 2.018086 1_555
O113 Si20 1.624315 1_545
O113 Ta9 1.977989 1_555
O114 Si21 1.648734 1_545
O114 Ta10 1.904260 1_555
O115 Si22 1.652085 1_545
O115 Ta11 1.942077 1_555
O116 Si23 1.627320 1_555
O116 Ta10 1.968459 1_555
O117 Si24 1.647560 1_555
O117 Ta11 1.898788 1_555
O118 Si26 1.670880 1_555
O118 Ta10 1.879768 1_555
O119 Si25 1.638852 1_655
O119 Ta11 1.912083 1_555
O120 S7 1.500069 1_555
O120 Ta12 2.215808 1_555
O121 S8 1.495961 1_555
O121 Ta13 2.202045 1_555
O122 Si13 1.648429 1_455
O122 Ta12 1.988716 1_555
O123 Si12 1.694264 1_555
O123 Ta13 1.935475 1_555
O124 Si14 1.663579 1_565
O124 Ta12 1.947828 1_555
O125 S6 1.508590 1_565
O125 Ta13 2.164520 1_555
O126 S3 1.513281 1_565
O126 Ta14 2.180178 1_555
O127 S4 1.491628 1_565
O127 Ta15 2.229517 1_555
O128 S5 1.530454 1_555
O128 Ta14 2.120363 1_555
O129 Si11 1.649835 1_555
O129 Ta15 1.972607 1_555
O130 S2 1.526144 1_455
O130 Ta14 2.149358 1_555
O131 Si10 1.653179 1_555
O131 Ta15 1.983014 1_555
O132 Si0 1.688556 1_565
O132 Ta16 2.009096 1_555
O133 Si1 1.654582 1_565
O133 Ta17 1.981521 1_555
O134 S0 1.523976 1_555
O134 Ta16 2.193374 1_555
O135 Si2 1.634606 1_555
O135 Ta17 2.027454 1_555
O136 Si3 1.665074 1_555
O136 Ta16 1.964920 1_555
O137 Si4 1.640080 1_555
O137 Ta17 1.967324 1_555
O138 Si5 1.644706 1_555
O138 Ta18 2.024100 1_555
O139 Si6 1.681108 1_555
O139 Ta19 2.037151 1_555
O140 Si7 1.620525 1_455
O140 Ta18 2.010539 1_555
O141 Si8 1.669110 1_555
O141 Ta19 1.989798 1_555
O142 Si9 1.635086 1_555
O142 Ta18 2.054399 1_555
O143 S1 1.510327 1_565
O143 Ta19 2.277615 1_555
