# generated using pymatgen
data_MgV3NiO8
_symmetry_space_group_name_H-M   'P 1'
_cell_length_a   6.37713588
_cell_length_b   6.37713635
_cell_length_c   6.68800362
_cell_angle_alpha   74.74294810
_cell_angle_beta   105.25704864
_cell_angle_gamma   143.81011599
_symmetry_Int_Tables_number   1
_chemical_formula_structural   MgV3NiO8
_chemical_formula_sum   'Mg1 V3 Ni1 O8'
_cell_volume   154.32131674
_cell_formula_units_Z   1
loop_
 _symmetry_equiv_pos_site_id
 _symmetry_equiv_pos_as_xyz
  1  'x, y, z'
loop_
 _atom_site_type_symbol
 _atom_site_label
 _atom_site_symmetry_multiplicity
 _atom_site_fract_x
 _atom_site_fract_y
 _atom_site_fract_z
 _atom_site_occupancy
  Mg  Mg0  1  0.82795700  0.17204300  0.98888100  1
  V  V0  1  0.40164900  0.59835100  0.31000300  1
  V  V1  1  0.60002900  0.39997100  0.71135200  1
  V  V2  1  0.28472500  0.71527500  0.65929300  1
  Ni  Ni0  1  0.70050800  0.29949200  0.29920000  1
  O  O0  1  0.13154500  0.86845500  0.68359100  1
  O  O1  1  0.24061100  0.75938900  0.35684300  1
  O  O2  1  0.35481600  0.64518400  0.99911000  1
  O  O3  1  0.43400800  0.56599200  0.64327500  1
  O  O4  1  0.55322200  0.44677800  0.38252900  1
  O  O5  1  0.64841900  0.35158200  0.97977400  1
  O  O6  1  0.76368500  0.23631500  0.67417300  1
  O  O7  1  0.87132400  0.12867600  0.29114200  1
loop_
_geom_bond_atom_site_label_1
_geom_bond_atom_site_label_2
_geom_bond_distance
_geom_bond_site_symmetry_2
Mg0 O7 1.942808 1_556
Mg0 O2 2.005371 1_655
Mg0 O2 2.005371 1_545
Mg0 O6 2.032029 1_555
Mg0 O5 2.160564 1_555
Ni0 O4 2.012465 1_555
Ni0 O1 2.050453 1_655
Ni0 O1 2.050453 1_545
Ni0 O5 2.053217 1_554
Ni0 O7 2.086448 1_555
Ni0 O6 2.410869 1_555
O0 V2 1.908463 1_555
O0 V1 2.035405 1_455
O0 V1 2.035405 1_565
O1 V2 1.943890 1_555
O1 V0 2.061167 1_555
O2 V0 1.998002 1_556
O2 V2 2.194981 1_555
O3 V2 1.842366 1_555
O3 V1 1.936769 1_555
O3 V0 2.153568 1_555
O4 V0 1.765930 1_555
O4 V1 2.113621 1_555
O5 V1 1.727371 1_555
O6 V2 2.003038 1_655
O6 V2 2.003038 1_545
O6 V1 2.066777 1_555
O7 V0 2.012097 1_655
O7 V0 2.012097 1_545
