# generated using pymatgen
data_Li3Ni5O8
_symmetry_space_group_name_H-M   'P 1'
_cell_length_a   5.79542782
_cell_length_b   5.76952477
_cell_length_c   5.75316534
_cell_angle_alpha   89.76280761
_cell_angle_beta   60.04868978
_cell_angle_gamma   59.83702915
_symmetry_Int_Tables_number   1
_chemical_formula_structural   Li3Ni5O8
_chemical_formula_sum   'Li3 Ni5 O8'
_cell_volume   136.06920810
_cell_formula_units_Z   1
loop_
 _symmetry_equiv_pos_site_id
 _symmetry_equiv_pos_as_xyz
  1  'x, y, z'
loop_
 _atom_site_type_symbol
 _atom_site_label
 _atom_site_symmetry_multiplicity
 _atom_site_fract_x
 _atom_site_fract_y
 _atom_site_fract_z
 _atom_site_occupancy
  Li  Li0  1  -0.00000000  0.00000000  0.50000000  1
  Li  Li1  1  0.50000000  0.00000000  0.50000000  1
  Li  Li2  1  0.50000000  0.50000000  0.50000000  1
  Ni  Ni0  1  -0.00000000  0.50000000  0.50000000  1
  Ni  Ni1  1  -0.00000000  0.00000000  0.00000000  1
  Ni  Ni2  1  0.50000000  0.00000000  0.00000000  1
  Ni  Ni3  1  -0.00000000  0.50000000  0.00000000  1
  Ni  Ni4  1  0.50000000  0.50000000  0.00000000  1
  O  O0  1  0.46575467  0.25483374  0.78406950  1
  O  O1  1  -0.00455503  0.26923217  0.76918567  1
  O  O2  1  0.49908908  0.76722554  0.76972422  1
  O  O3  1  0.01154443  0.72768726  0.76029021  1
  O  O4  1  -0.01154443  0.27231274  0.23970979  1
  O  O5  1  0.50091092  0.23277446  0.23027578  1
  O  O6  1  0.00455503  0.73076783  0.23081433  1
  O  O7  1  0.53424533  0.74516626  0.21593050  1
loop_
_geom_bond_atom_site_label_1
_geom_bond_atom_site_label_2
_geom_bond_distance
_geom_bond_site_symmetry_2
Li0 O3 2.165708 1_545
Li0 O4 2.165708 1_555
Li0 O1 2.179411 1_555
Li0 O6 2.179411 1_545
Li0 O7 2.193534 1_545
Li0 O0 2.193534 1_455
Li1 O5 2.047766 1_555
Li1 O2 2.047766 1_545
Li1 O7 2.067558 1_545
Li1 O0 2.067558 1_555
Li1 O6 2.072505 1_645
Li1 O1 2.072505 1_555
Li2 O3 2.007002 1_555
Li2 O4 2.007002 1_655
Li2 O0 2.156434 1_555
Li2 O7 2.156434 1_555
Li2 O5 2.188264 1_555
Li2 O2 2.188264 1_555
Ni0 O1 2.036954 1_555
Ni0 O6 2.036954 1_555
Ni0 O4 2.043840 1_555
Ni0 O3 2.043840 1_555
Ni0 O2 2.058226 1_455
Ni0 O5 2.058226 1_555
Ni1 O6 2.038047 1_545
Ni1 O1 2.038047 1_554
Ni1 O3 2.048156 1_544
Ni1 O4 2.048156 1_555
Ni1 O2 2.051763 1_544
Ni1 O5 2.051763 1_455
Ni2 O2 1.894108 1_544
Ni2 O5 1.894108 1_555
Ni2 O7 1.918901 1_545
Ni2 O0 1.918901 1_554
Ni2 O4 2.100965 1_555
Ni2 O3 2.100965 1_644
Ni3 O4 1.900849 1_555
Ni3 O3 1.900849 1_554
Ni3 O1 1.903075 1_554
Ni3 O6 1.903075 1_555
Ni3 O0 1.912953 1_554
Ni3 O7 1.912953 1_455
Ni4 O2 2.028322 1_554
Ni4 O5 2.028322 1_555
Ni4 O0 2.031329 1_554
Ni4 O7 2.031329 1_555
Ni4 O6 2.036206 1_555
Ni4 O1 2.036206 1_654
