# generated using pymatgen
data_Na6Zn3GeP4(SO12)2
_symmetry_space_group_name_H-M   'P 1'
_cell_length_a   8.92999000
_cell_length_b   8.91779280
_cell_length_c   21.79764692
_cell_angle_alpha   90.38639181
_cell_angle_beta   89.45828711
_cell_angle_gamma   119.92431425
_symmetry_Int_Tables_number   1
_chemical_formula_structural   Na6Zn3GeP4(SO12)2
_chemical_formula_sum   'Na18 Zn9 Ge3 P12 S6 O72'
_cell_volume   1504.38401347
_cell_formula_units_Z   3
loop_
 _symmetry_equiv_pos_site_id
 _symmetry_equiv_pos_as_xyz
  1  'x, y, z'
loop_
 _atom_site_type_symbol
 _atom_site_label
 _atom_site_symmetry_multiplicity
 _atom_site_fract_x
 _atom_site_fract_y
 _atom_site_fract_z
 _atom_site_occupancy
  Na  Na0  1  0.36429421  0.36532780  0.25360081  1
  Na  Na1  1  0.64633367  0.64066859  0.74542826  1
  Na  Na2  1  0.99234338  0.35009601  0.74964007  1
  Na  Na3  1  0.29248441  0.34063254  0.58383719  1
  Na  Na4  1  0.03483737  0.70043785  0.58108294  1
  Na  Na5  1  0.66949685  0.95568629  0.58104387  1
  Na  Na6  1  0.28880361  0.95785668  0.07912452  1
  Na  Na7  1  0.66262804  0.69927211  0.08180290  1
  Na  Na8  1  0.04647242  0.34038740  0.08292334  1
  Na  Na9  1  0.32060691  0.29473480  0.91178806  1
  Na  Na10  1  0.98374575  0.30702649  0.41200863  1
  Na  Na11  1  0.69091230  0.67655898  0.41232989  1
  Na  Na12  1  0.00787268  0.00045028  0.49529100  1
  Na  Na13  1  0.99155997  0.98482226  0.99156189  1
  Na  Na14  1  0.65657377  0.30916192  0.83073566  1
  Na  Na15  1  0.66493278  0.31554289  0.33028839  1
  Na  Na16  1  0.32380464  0.67263486  0.17105335  1
  Na  Na17  1  0.33812787  0.67247880  0.66637870  1
  Zn  Zn0  1  0.00568055  0.99626373  0.35188789  1
  Zn  Zn1  1  0.99505470  0.00275355  0.85104063  1
  Zn  Zn2  1  0.98643087  0.00970303  0.65726365  1
  Zn  Zn3  1  0.00681465  0.99349642  0.15145848  1
  Zn  Zn4  1  0.65744927  0.32580181  0.68493678  1
  Zn  Zn5  1  0.67310511  0.34168989  0.18190050  1
  Zn  Zn6  1  0.33039592  0.66600809  0.01064962  1
  Zn  Zn7  1  0.33049580  0.66270032  0.50683652  1
  Zn  Zn8  1  0.33667093  0.67902379  0.32772770  1
  Ge  Ge0  1  0.66945056  0.34140662  0.97653865  1
  Ge  Ge1  1  0.67065445  0.33617136  0.48068533  1
  Ge  Ge2  1  0.34076902  0.67074514  0.82356753  1
  P  P0  1  0.29891232  0.30710116  0.75408923  1
  P  P1  1  0.68801682  0.98998970  0.75259435  1
  P  P2  1  0.95562622  0.33431927  0.58362484  1
  P  P3  1  0.66805457  0.62341505  0.58379346  1
  P  P4  1  0.95409333  0.62003250  0.08073765  1
  P  P5  1  0.37750766  0.33295454  0.08237224  1
  P  P6  1  0.63069453  0.66383532  0.91954703  1
  P  P7  1  0.03130440  0.37629569  0.91850997  1
  P  P8  1  0.34299366  0.96634098  0.92024499  1
  P  P9  1  0.63096541  0.97497355  0.42066531  1
  P  P10  1  0.34240765  0.36308030  0.41864703  1
  P  P11  1  0.02895108  0.66078672  0.42075667  1
  S  S0  1  0.30204996  0.99729932  0.24806800  1
  S  S1  1  0.69821840  0.70247143  0.24993217  1
  S  S2  1  0.99939947  0.29837111  0.24946125  1
  S  S3  1  0.01411426  0.70904361  0.75124067  1
  S  S4  1  0.37598163  0.04410611  0.58208508  1
  S  S5  1  0.66808640  0.04794025  0.08169541  1
  O  O0  1  0.20750776  0.02200471  0.29988268  1
  O  O1  1  0.79810677  0.79256982  0.30532716  1
  O  O2  1  0.98660776  0.19707975  0.30531687  1
  O  O3  1  0.21309074  0.19837595  0.81052156  1
  O  O4  1  0.98923591  0.79722823  0.80343150  1
  O  O5  1  0.81481864  0.02217802  0.80378347  1
  O  O6  1  0.74919128  0.94305617  0.69116373  1
  O  O7  1  0.18951492  0.23282808  0.69458551  1
  O  O8  1  0.03384276  0.80185408  0.69194209  1
  O  O9  1  0.78250745  0.79711966  0.19209629  1
  O  O10  1  0.01903367  0.21287506  0.19237663  1
  O  O11  1  0.21072042  0.97956490  0.18836322  1
  O  O12  1  0.87355734  0.35657453  0.64213368  1
  O  O13  1  0.47779291  0.11959457  0.63752584  1
  O  O14  1  0.64101451  0.51646287  0.64143954  1
  O  O15  1  0.87815362  0.50598881  0.13695934  1
  O  O16  1  0.64052305  0.12380928  0.13757412  1
  O  O17  1  0.48079600  0.35587091  0.14079262  1
  O  O18  1  0.46912940  0.30343786  0.02361295  1
  O  O19  1  0.83199999  0.53111269  0.02305904  1
  O  O20  1  0.69665033  0.15890240  0.02582055  1
  O  O21  1  0.46183056  0.15649491  0.52649161  1
  O  O22  1  0.69119691  0.52901808  0.52512550  1
  O  O23  1  0.83788838  0.30747188  0.52570103  1
  O  O24  1  0.55160725  0.68551764  0.97881348  1
  O  O25  1  0.13580452  0.45104584  0.97679101  1
  O  O26  1  0.32365258  0.87334204  0.98048696  1
  O  O27  1  0.55518803  0.86723516  0.47959284  1
  O  O28  1  0.30934150  0.44199552  0.47677186  1
  O  O29  1  0.12837959  0.68824891  0.48058233  1
  O  O30  1  0.11200913  0.61855943  0.36648252  1
  O  O31  1  0.51985359  0.89263530  0.36450033  1
  O  O32  1  0.38261848  0.48169405  0.36179440  1
  O  O33  1  0.12723592  0.49789170  0.86071581  1
  O  O34  1  0.37208044  0.86947000  0.86441577  1
  O  O35  1  0.50272356  0.62639393  0.86316675  1
  O  O36  1  0.99069108  0.80966285  0.41239077  1
  O  O37  1  0.81686293  0.00257260  0.41381768  1
  O  O38  1  0.18268366  0.18319674  0.41091690  1
  O  O39  1  0.01212688  0.19731243  0.90995131  1
  O  O40  1  0.19050510  0.99638875  0.91125265  1
  O  O41  1  0.81047607  0.81389052  0.90934451  1
  O  O42  1  0.97348205  0.16868798  0.58423366  1
  O  O43  1  0.20265518  0.02939207  0.58535847  1
  O  O44  1  0.83722460  0.80269350  0.58466566  1
  O  O45  1  0.96450688  0.80008400  0.08429523  1
  O  O46  1  0.82603215  0.03050879  0.08445440  1
  O  O47  1  0.19463176  0.16780610  0.08302138  1
  O  O48  1  0.66990113  0.15193815  0.74634339  1
  O  O49  1  0.48697915  0.34522487  0.74845916  1
  O  O50  1  0.85922201  0.53024007  0.74885662  1
  O  O51  1  0.67799845  0.52497975  0.24935225  1
  O  O52  1  0.84414821  0.31666986  0.24704599  1
  O  O53  1  0.47454498  0.15888895  0.24642243  1
  O  O54  1  0.63144379  0.48462370  0.92022901  1
  O  O55  1  0.84856515  0.36334331  0.92066954  1
  O  O56  1  0.51350529  0.15394811  0.92097967  1
  O  O57  1  0.65440019  0.16242242  0.42633479  1
  O  O58  1  0.51221238  0.35150415  0.42595256  1
  O  O59  1  0.84252928  0.48875740  0.42472689  1
  O  O60  1  0.35898931  0.49554491  0.07731059  1
  O  O61  1  0.13899793  0.64874456  0.07450813  1
  O  O62  1  0.51430955  0.87175976  0.07662636  1
  O  O63  1  0.35582212  0.86931095  0.57551440  1
  O  O64  1  0.50837972  0.64658025  0.57766959  1
  O  O65  1  0.13693889  0.49659738  0.57729132  1
  O  O66  1  0.31901001  0.84255460  0.25473730  1
  O  O67  1  0.52142363  0.68061670  0.25235841  1
  O  O68  1  0.16084710  0.47060789  0.25245618  1
  O  O69  1  0.30938689  0.49383650  0.76085135  1
  O  O70  1  0.17068606  0.68761253  0.75676618  1
  O  O71  1  0.50649553  0.81879617  0.76321558  1
loop_
_geom_bond_atom_site_label_1
_geom_bond_atom_site_label_2
_geom_bond_distance
_geom_bond_site_symmetry_2
Na0 O68 2.426060 1_555
Na0 O51 2.429175 1_555
Na0 O67 2.437056 1_555
Na0 O53 2.486880 1_555
Na0 O32 2.543701 1_555
Na0 O17 2.678111 1_555
Na0 O0 2.844299 1_555
Na1 O49 2.287125 1_555
Na1 O71 2.488917 1_555
Na1 O14 2.506547 1_555
Na1 O50 2.541863 1_555
Na1 O69 2.633846 1_555
Na1 O6 2.658165 1_555
Na1 O35 2.833137 1_555
Na1 O4 2.950987 1_555
Na2 O50 2.429075 1_555
Na2 O69 2.471138 1_655
Na2 O48 2.518820 1_555
Na2 O12 2.594220 1_555
Na2 O70 2.614534 1_655
Na2 O7 2.722907 1_655
Na2 O33 2.734672 1_655
Na2 O5 2.800622 1_555
Na3 O65 2.412088 1_555
Na3 O64 2.435367 1_555
Na3 O42 2.471424 1_455
Na3 O43 2.475430 1_555
Na3 O28 2.484411 1_555
Na3 O7 2.589355 1_555
Na4 O44 2.356629 1_455
Na4 O29 2.358270 1_555
Na4 O65 2.406811 1_555
Na4 O63 2.487558 1_555
Na4 O43 2.544206 1_565
Na4 O8 2.575944 1_555
Na5 O64 2.390881 1_555
Na5 O27 2.402136 1_555
Na5 O42 2.416433 1_565
Na5 O44 2.480663 1_555
Na5 O63 2.511279 1_555
Na5 O6 2.529186 1_555
Na6 O26 2.342472 1_554
Na6 O61 2.391263 1_555
Na6 O47 2.405676 1_565
Na6 O62 2.487510 1_555
Na6 O11 2.508108 1_555
Na6 O45 2.511900 1_455
Na7 O45 2.379600 1_555
Na7 O60 2.397956 1_555
Na7 O24 2.440223 1_554
Na7 O62 2.484131 1_555
Na7 O46 2.560656 1_565
Na7 O9 2.603014 1_555
Na7 O19 2.894221 1_555
Na7 O17 2.953064 1_555
Na8 O60 2.420967 1_555
Na8 O61 2.452581 1_555
Na8 O46 2.466848 1_455
Na8 O47 2.480089 1_555
Na8 O25 2.484484 1_554
Na8 O10 2.606301 1_555
Na8 O15 2.825825 1_455
Na8 O20 2.988229 1_455
Na9 O40 2.311814 1_545
Na9 O3 2.392503 1_555
Na9 O54 2.433531 1_555
Na9 O39 2.441048 1_555
Na9 O56 2.598346 1_555
Na9 O18 2.768120 1_556
Na9 O35 2.779664 1_555
Na9 O25 2.983029 1_555
Na10 O37 2.357417 1_555
Na10 O59 2.513957 1_555
Na10 O38 2.516378 1_655
Na10 O2 2.522632 1_555
Na10 O57 2.571839 1_555
Na10 O30 2.618375 1_655
Na10 O23 2.789648 1_555
Na10 O28 2.908367 1_655
Na11 O36 2.324890 1_555
Na11 O58 2.534759 1_555
Na11 O1 2.535552 1_555
Na11 O37 2.540775 1_565
Na11 O59 2.643183 1_555
Na11 O32 2.659116 1_555
Na11 O22 2.797028 1_555
Na11 O27 2.915309 1_555
Na12 O36 2.426313 1_445
Na12 O38 2.433767 1_555
Na12 O37 2.480661 1_455
Na12 O42 2.552091 1_455
Na12 O44 2.556671 1_445
Na12 O43 2.560540 1_555
Na13 O41 2.389340 1_555
Na13 O40 2.447877 1_655
Na13 O39 2.545810 1_665
Na13 O45 2.548922 1_556
Na13 O46 2.642738 1_566
Na13 O47 2.645348 1_666
Na14 O48 2.343402 1_555
Na14 O56 2.375400 1_555
Na14 O49 2.481645 1_555
Na14 O55 2.498027 1_555
Na14 O54 2.570027 1_555
Na14 O50 2.602678 1_555
Na15 O52 2.404790 1_555
Na15 O53 2.416336 1_555
Na15 O57 2.482584 1_555
Na15 O51 2.537236 1_555
Na15 O58 2.585464 1_555
Na15 O59 2.591044 1_555
Na16 O66 2.377258 1_555
Na16 O68 2.427039 1_555
Na16 O67 2.488448 1_555
Na16 O61 2.628028 1_555
Na16 O60 2.684683 1_555
Na16 O62 2.693144 1_555
Na17 O70 2.505567 1_555
Na17 O64 2.528343 1_555
Na17 O69 2.543772 1_555
Na17 O71 2.546412 1_555
Na17 O65 2.583078 1_555
Na17 O63 2.606379 1_555
Ge0 O19 1.884668 1_556
Ge0 O54 1.927288 1_555
Ge0 O18 1.932161 1_556
Ge0 O55 1.932333 1_555
Ge0 O56 1.970404 1_555
Ge0 O20 2.069967 1_556
Ge1 O57 1.891966 1_555
Ge1 O22 1.896245 1_555
Ge1 O59 1.896946 1_555
Ge1 O23 1.915985 1_555
Ge1 O58 1.916011 1_555
Ge1 O21 2.011725 1_555
Ge2 O34 1.871008 1_555
Ge2 O35 1.895272 1_555
Ge2 O71 1.923833 1_555
Ge2 O33 1.929483 1_555
Ge2 O69 1.993334 1_555
Ge2 O70 2.173126 1_555
O0 S0 1.483624 1_545
O0 Zn0 2.034247 1_545
O1 S1 1.480362 1_555
O1 Zn0 2.101658 1_655
O2 S2 1.490169 1_555
O2 Zn0 2.144461 1_645
O3 P0 1.515737 1_555
O3 Zn1 2.052760 1_455
O4 S3 1.455845 1_655
O4 Zn1 2.078288 1_565
O5 P1 1.518184 1_545
O5 Zn1 1.998383 1_555
O6 P1 1.572697 1_555
O6 Zn2 2.026717 1_565
O7 P0 1.562749 1_555
O7 Zn2 2.077442 1_455
O8 S3 1.500482 1_555
O8 Zn2 2.234780 1_465
O9 S1 1.493605 1_555
O9 Zn3 2.085983 1_655
O10 S2 1.508911 1_455
O10 Zn3 2.097652 1_545
O11 S0 1.507474 1_555
O11 Zn3 2.057400 1_555
O12 P2 1.525469 1_555
O12 Zn4 2.027591 1_555
O13 S4 1.462655 1_555
O13 Zn4 2.021321 1_555
O14 P3 1.525635 1_555
O14 Zn4 2.021084 1_555
O15 P4 1.519554 1_555
O15 Zn5 1.941126 1_555
O16 S5 1.466733 1_555
O16 Zn5 2.051701 1_555
O17 P5 1.531264 1_555
O17 Zn5 2.003846 1_555
O18 P5 1.603029 1_555
O19 P4 1.596283 1_555
O20 S5 1.512011 1_555
O21 S4 1.514243 1_555
O22 P3 1.593989 1_555
O23 P2 1.589591 1_555
O24 P6 1.523393 1_555
O24 Zn6 2.011694 1_556
O25 P7 1.522971 1_555
O25 Zn6 1.980098 1_556
O26 P8 1.519687 1_555
O26 Zn6 1.995692 1_556
O27 P9 1.543522 1_555
O27 Zn7 2.011534 1_555
O28 P10 1.541406 1_555
O28 Zn7 1.988203 1_555
O29 P11 1.532821 1_555
O29 Zn7 2.017085 1_555
O30 P11 1.532191 1_555
O30 Zn8 1.980939 1_555
O31 P9 1.518698 1_555
O31 Zn8 1.960203 1_555
O32 P10 1.553667 1_555
O32 Zn8 2.135475 1_555
O33 P7 1.602489 1_555
O34 P8 1.580640 1_555
O35 P6 1.602527 1_555
O36 P11 1.539364 1_655
O36 Zn0 2.080950 1_655
O37 P9 1.557829 1_545
O37 Zn0 2.172351 1_645
O38 P10 1.534348 1_555
O38 Zn0 2.076913 1_545
O39 P7 1.528283 1_555
O39 Zn1 2.095778 1_455
O40 P8 1.527846 1_555
O40 Zn1 2.217049 1_465
O41 P6 1.507125 1_555
O41 Zn1 2.094796 1_565
O42 P2 1.562885 1_555
O42 Zn2 2.180617 1_555
O43 S4 1.487753 1_555
O43 Zn2 2.413295 1_455
O44 P3 1.558531 1_555
O44 Zn2 2.287763 1_565
O45 P4 1.562784 1_555
O45 Zn3 2.141789 1_655
O46 S5 1.495876 1_555
O46 Zn3 2.330464 1_645
O47 P5 1.560893 1_555
O47 Zn3 2.199435 1_545
O48 P1 1.538404 1_545
O48 Zn4 2.100191 1_555
O49 P0 1.542124 1_555
O49 Zn4 2.117686 1_555
O50 S3 1.502729 1_655
O50 Zn4 2.290733 1_555
O51 S1 1.500917 1_555
O51 Zn5 2.175528 1_555
O52 S2 1.476042 1_555
O52 Zn5 2.187358 1_555
O53 S0 1.495196 1_545
O53 Zn5 2.208935 1_555
O54 P6 1.601690 1_555
O55 P7 1.577684 1_655
O56 P8 1.605081 1_545
O57 P9 1.581800 1_545
O58 P10 1.579973 1_555
O59 P11 1.607291 1_655
O60 P5 1.543890 1_555
O60 Zn6 2.216192 1_555
O61 P4 1.544299 1_455
O61 Zn6 2.139613 1_555
O62 S5 1.488078 1_565
O62 Zn6 2.265994 1_555
O63 S4 1.483320 1_565
O63 Zn7 2.289213 1_555
O64 P3 1.546458 1_555
O64 Zn7 2.281474 1_555
O65 P2 1.547769 1_455
O65 Zn7 2.228519 1_555
O66 S0 1.469717 1_555
O66 Zn8 2.224514 1_555
O67 S1 1.491604 1_555
O67 Zn8 2.312333 1_555
O68 S2 1.494353 1_455
O68 Zn8 2.389088 1_555
O69 P0 1.626386 1_555
O70 S3 1.508660 1_555
O71 P1 1.593906 1_555
