# generated using pymatgen
data_Na6Ca16Nb8Si3(S11O48)3
_symmetry_space_group_name_H-M   'P 1'
_cell_length_a   18.19836196
_cell_length_b   9.10537974
_cell_length_c   23.71753611
_cell_angle_alpha   89.99432459
_cell_angle_beta   89.98919357
_cell_angle_gamma   119.99044122
_symmetry_Int_Tables_number   1
_chemical_formula_structural   Na6Ca16Nb8Si3(S11O48)3
_chemical_formula_sum   'Na6 Ca16 Nb8 Si3 S33 O144'
_cell_volume   3403.86532235
_cell_formula_units_Z   1
loop_
 _symmetry_equiv_pos_site_id
 _symmetry_equiv_pos_as_xyz
  1  'x, y, z'
loop_
 _atom_site_type_symbol
 _atom_site_label
 _atom_site_symmetry_multiplicity
 _atom_site_fract_x
 _atom_site_fract_y
 _atom_site_fract_z
 _atom_site_occupancy
  Na  Na0  1  0.00141257  0.98503227  0.49121155  1
  Na  Na1  1  0.49222471  0.01023170  0.99911059  1
  Na  Na2  1  0.33634421  0.33610289  0.84144631  1
  Na  Na3  1  0.84628265  0.35550522  0.82636619  1
  Na  Na4  1  0.33430124  0.33948925  0.33283409  1
  Na  Na5  1  0.83808994  0.34079545  0.33975539  1
  Ca  Ca0  1  0.00020561  0.99511891  0.35385022  1
  Ca  Ca1  1  0.49870449  0.99661757  0.35334904  1
  Ca  Ca2  1  0.99647080  0.99341200  0.85714504  1
  Ca  Ca3  1  0.50185839  0.00856326  0.85853468  1
  Ca  Ca4  1  0.49642198  0.99916843  0.15385885  1
  Ca  Ca5  1  0.33209614  0.33173472  0.68569557  1
  Ca  Ca6  1  0.83718772  0.33714156  0.68426038  1
  Ca  Ca7  1  0.33980696  0.33933916  0.18232907  1
  Ca  Ca8  1  0.82782140  0.32536037  0.18314275  1
  Ca  Ca9  1  0.33237053  0.32638661  0.97725361  1
  Ca  Ca10  1  0.84021880  0.33964988  0.98098690  1
  Ca  Ca11  1  0.33255724  0.33028354  0.48057730  1
  Ca  Ca12  1  0.84247758  0.34541211  0.47808392  1
  Ca  Ca13  1  0.16853800  0.67017309  0.02312868  1
  Ca  Ca14  1  0.16204250  0.66715425  0.52157210  1
  Ca  Ca15  1  0.66646334  0.66587650  0.52283854  1
  Nb  Nb0  1  0.00111702  0.99103882  0.65161015  1
  Nb  Nb1  1  0.49863342  0.99969914  0.64740208  1
  Nb  Nb2  1  0.00087905  0.00002994  0.14963248  1
  Nb  Nb3  1  0.66188934  0.65417405  0.01923051  1
  Nb  Nb4  1  0.16204591  0.66379706  0.31661722  1
  Nb  Nb5  1  0.66759931  0.66762122  0.31477850  1
  Nb  Nb6  1  0.16289958  0.66676902  0.81086216  1
  Nb  Nb7  1  0.66239488  0.65801564  0.81082199  1
  Si  Si0  1  0.99775972  0.70312438  0.75464205  1
  Si  Si1  1  0.52135262  0.37705359  0.91570034  1
  Si  Si2  1  0.01604110  0.66635359  0.41849420  1
  S  S0  1  0.14446765  0.99217673  0.24961353  1
  S  S1  1  0.64999696  0.99311194  0.25406646  1
  S  S2  1  0.34582147  0.69708899  0.25386036  1
  S  S3  1  0.85102247  0.71071704  0.25047517  1
  S  S4  1  0.00406570  0.29605412  0.24985122  1
  S  S5  1  0.50438357  0.30839436  0.25445697  1
  S  S6  1  0.14319413  0.29478935  0.75197880  1
  S  S7  1  0.64249818  0.29313160  0.75048705  1
  S  S8  1  0.50460544  0.71546133  0.75103040  1
  S  S9  1  0.35332844  0.99115177  0.75101015  1
  S  S10  1  0.85154513  0.98996467  0.75173000  1
  S  S11  1  0.48041144  0.32382033  0.58654675  1
  S  S12  1  0.98162753  0.31676355  0.58612616  1
  S  S13  1  0.18062754  0.03981056  0.58639202  1
  S  S14  1  0.68064011  0.03814051  0.58661923  1
  S  S15  1  0.33794024  0.63718452  0.58642708  1
  S  S16  1  0.83865911  0.64147294  0.58646350  1
  S  S17  1  0.48645406  0.63739871  0.07943257  1
  S  S18  1  0.98039696  0.63798445  0.08709843  1
  S  S19  1  0.33674375  0.03869350  0.08269106  1
  S  S20  1  0.83465723  0.02681254  0.08365686  1
  S  S21  1  0.18056906  0.32467198  0.08656740  1
  S  S22  1  0.68392406  0.33562124  0.07963610  1
  S  S23  1  0.30762659  0.66206443  0.91328316  1
  S  S24  1  0.80247285  0.66369393  0.91566911  1
  S  S25  1  0.02390186  0.38690203  0.91342283  1
  S  S26  1  0.16768680  0.95135616  0.91329376  1
  S  S27  1  0.66910903  0.94273546  0.91632353  1
  S  S28  1  0.30805748  0.95407862  0.41381358  1
  S  S29  1  0.80767122  0.95329880  0.41472457  1
  S  S30  1  0.16937089  0.38326986  0.41440590  1
  S  S31  1  0.66741460  0.38209504  0.41382996  1
  S  S32  1  0.52332596  0.66198108  0.41413641  1
  O  O0  1  0.10571622  0.01920644  0.29867180  1
  O  O1  1  0.60905618  0.01818271  0.30286012  1
  O  O2  1  0.40087065  0.77964820  0.30235019  1
  O  O3  1  0.90241663  0.78687011  0.29987136  1
  O  O4  1  0.49227207  0.20167215  0.30324249  1
  O  O5  1  0.98969346  0.19262508  0.29944294  1
  O  O6  1  0.10487906  0.19358621  0.80141684  1
  O  O7  1  0.60431268  0.19344131  0.80057925  1
  O  O8  1  0.49339334  0.79248084  0.80095957  1
  O  O9  1  0.99049309  0.79902193  0.80673122  1
  O  O10  1  0.40652664  0.02064509  0.80002013  1
  O  O11  1  0.90265975  0.02138460  0.80152739  1
  O  O12  1  0.39763836  0.96863464  0.69943856  1
  O  O13  1  0.89369237  0.96447685  0.70063332  1
  O  O14  1  0.08875062  0.21128554  0.69998089  1
  O  O15  1  0.58664261  0.20980942  0.69992249  1
  O  O16  1  0.01152293  0.83494561  0.69704106  1
  O  O17  1  0.51701481  0.82399807  0.69982566  1
  O  O18  1  0.38001339  0.79581718  0.20190143  1
  O  O19  1  0.89438444  0.82312019  0.19939328  1
  O  O20  1  0.01384155  0.20123425  0.19864533  1
  O  O21  1  0.52368940  0.24855189  0.20284087  1
  O  O22  1  0.08606796  0.97052810  0.19849435  1
  O  O23  1  0.60082391  0.95635813  0.20225296  1
  O  O24  1  0.44102628  0.34803790  0.63617262  1
  O  O25  1  0.94097843  0.34140278  0.63522397  1
  O  O26  1  0.23098165  0.12419186  0.63628641  1
  O  O27  1  0.73133118  0.11530521  0.63639357  1
  O  O28  1  0.32812045  0.53516874  0.63629672  1
  O  O29  1  0.82718618  0.53939710  0.63606886  1
  O  O30  1  0.45733767  0.53877506  0.13110301  1
  O  O31  1  0.93928937  0.53118164  0.13586518  1
  O  O32  1  0.33005439  0.12240788  0.13428528  1
  O  O33  1  0.81400730  0.09387269  0.13311826  1
  O  O34  1  0.23312399  0.34948478  0.13579701  1
  O  O35  1  0.73361209  0.37189639  0.13111078  1
  O  O36  1  0.20884454  0.27895059  0.03576663  1
  O  O37  1  0.72653932  0.31544848  0.03014092  1
  O  O38  1  0.43386781  0.55303204  0.03030159  1
  O  O39  1  0.92820079  0.57965550  0.03608658  1
  O  O40  1  0.34661447  0.14360698  0.03214999  1
  O  O41  1  0.85757951  0.13718502  0.03427842  1
  O  O42  1  0.21393563  0.14341655  0.53514568  1
  O  O43  1  0.70958807  0.14229307  0.53613259  1
  O  O44  1  0.36104272  0.57637799  0.53610506  1
  O  O45  1  0.85954425  0.57968500  0.53539458  1
  O  O46  1  0.42803585  0.27987993  0.53598903  1
  O  O47  1  0.92876689  0.27435817  0.53503588  1
  O  O48  1  0.26928107  0.67771399  0.96513098  1
  O  O49  1  0.75633349  0.67215258  0.96713621  1
  O  O50  1  0.06965316  0.46699058  0.96474768  1
  O  O51  1  0.58296405  0.49855434  0.97077171  1
  O  O52  1  0.16107095  0.85797596  0.96422472  1
  O  O53  1  0.66604489  0.84391000  0.96783707  1
  O  O54  1  0.27075976  0.86157425  0.46506821  1
  O  O55  1  0.76812267  0.85719767  0.46547063  1
  O  O56  1  0.16456538  0.46346307  0.46563170  1
  O  O57  1  0.65956385  0.46205562  0.46453425  1
  O  O58  1  0.07189424  0.67803238  0.47076462  1
  O  O59  1  0.56989486  0.67570878  0.46523117  1
  O  O60  1  0.07795483  0.65745127  0.35948953  1
  O  O61  1  0.57541241  0.65184343  0.36304307  1
  O  O62  1  0.25148769  0.85090489  0.36176139  1
  O  O63  1  0.75435483  0.84883023  0.36297894  1
  O  O64  1  0.17470001  0.49235716  0.36186705  1
  O  O65  1  0.67468021  0.49883289  0.36234087  1
  O  O66  1  0.07479494  0.49853411  0.86182977  1
  O  O67  1  0.58178877  0.50321456  0.85931880  1
  O  O68  1  0.17391786  0.84865593  0.86181048  1
  O  O69  1  0.67539317  0.85398896  0.86355097  1
  O  O70  1  0.25550106  0.65749299  0.86198954  1
  O  O71  1  0.75077673  0.65179564  0.86340050  1
  O  O72  1  0.00855571  0.83378926  0.41332775  1
  O  O73  1  0.51605950  0.81086945  0.40507473  1
  O  O74  1  0.39098844  0.97266881  0.40419372  1
  O  O75  1  0.89159592  0.97398642  0.40741235  1
  O  O76  1  0.09323763  0.21844697  0.40713243  1
  O  O77  1  0.59206415  0.22060422  0.40391306  1
  O  O78  1  0.01600268  0.22331709  0.90501240  1
  O  O79  1  0.52594537  0.20805335  0.91997069  1
  O  O80  1  0.09425893  0.96940746  0.90621758  1
  O  O81  1  0.59050980  0.94788437  0.91464425  1
  O  O82  1  0.39320908  0.81086898  0.90826904  1
  O  O83  1  0.88240077  0.81853320  0.91410387  1
  O  O84  1  0.48901609  0.16284767  0.60093823  1
  O  O85  1  0.98965769  0.15795669  0.59937413  1
  O  O86  1  0.09168189  0.02578478  0.59661873  1
  O  O87  1  0.59061710  0.02050730  0.60265046  1
  O  O88  1  0.41966175  0.81600149  0.60147951  1
  O  O89  1  0.91858275  0.82191348  0.59789568  1
  O  O90  1  0.50382932  0.81204216  0.08481463  1
  O  O91  1  0.98916831  0.81539938  0.10242135  1
  O  O92  1  0.41420219  0.02030109  0.08559233  1
  O  O93  1  0.91047191  0.00424770  0.09897916  1
  O  O94  1  0.09000849  0.16121641  0.10256986  1
  O  O95  1  0.59716440  0.19463696  0.08499432  1
  O  O96  1  0.33923767  0.13370894  0.74156304  1
  O  O97  1  0.83253408  0.12595378  0.74234680  1
  O  O98  1  0.22947115  0.32532433  0.74286097  1
  O  O99  1  0.72785798  0.32253304  0.74173108  1
  O  O100  1  0.43485825  0.54267072  0.74219327  1
  O  O101  1  0.92499367  0.51325806  0.74576103  1
  O  O102  1  0.33223915  0.52307553  0.24858209  1
  O  O103  1  0.83636224  0.53964994  0.24078460  1
  O  O104  1  0.43306304  0.34148935  0.25005316  1
  O  O105  1  0.93350517  0.32476180  0.23844435  1
  O  O106  1  0.22870935  0.13648105  0.23932824  1
  O  O107  1  0.73786460  0.13523817  0.24907036  1
  O  O108  1  0.31016373  0.50244697  0.91142692  1
  O  O109  1  0.80592242  0.50579079  0.91757505  1
  O  O110  1  0.43564747  0.38134827  0.91152192  1
  O  O111  1  0.94075782  0.38107087  0.91090191  1
  O  O112  1  0.24787607  0.11522807  0.90932914  1
  O  O113  1  0.74631534  0.10914277  0.91875688  1
  O  O114  1  0.31003316  0.11870727  0.41116858  1
  O  O115  1  0.80644801  0.11351303  0.41170574  1
  O  O116  1  0.24818866  0.37288172  0.41162810  1
  O  O117  1  0.74669325  0.37670894  0.41126143  1
  O  O118  1  0.44083600  0.50206513  0.41166510  1
  O  O119  1  0.92921392  0.48902485  0.40922336  1
  O  O120  1  0.16014276  0.45844318  0.07989998  1
  O  O121  1  0.67646678  0.49710884  0.06829632  1
  O  O122  1  0.06639632  0.67235269  0.07943485  1
  O  O123  1  0.57656299  0.65721207  0.06774813  1
  O  O124  1  0.26106185  0.87080618  0.07843303  1
  O  O125  1  0.76291200  0.85366270  0.06988520  1
  O  O126  1  0.16540643  0.86906042  0.58128982  1
  O  O127  1  0.66043464  0.86318580  0.57906496  1
  O  O128  1  0.27078265  0.67479268  0.57952836  1
  O  O129  1  0.76903535  0.67543420  0.57930504  1
  O  O130  1  0.06769155  0.45609228  0.57913924  1
  O  O131  1  0.56721779  0.45998174  0.57921872  1
  O  O132  1  0.14855518  0.83186524  0.25457136  1
  O  O133  1  0.65874507  0.83547891  0.26637805  1
  O  O134  1  0.25987110  0.68227188  0.26495679  1
  O  O135  1  0.76582218  0.70074686  0.25782038  1
  O  O136  1  0.08542347  0.46279226  0.25538566  1
  O  O137  1  0.58382207  0.48469391  0.26618654  1
  O  O138  1  0.14971324  0.46730995  0.75881582  1
  O  O139  1  0.64898921  0.46789660  0.75748857  1
  O  O140  1  0.09084800  0.69716677  0.76398266  1
  O  O141  1  0.58654590  0.70499814  0.75795764  1
  O  O142  1  0.26931467  0.83078366  0.75707831  1
  O  O143  1  0.76627066  0.82595246  0.76051861  1
loop_
_geom_bond_atom_site_label_1
_geom_bond_atom_site_label_2
_geom_bond_distance
_geom_bond_site_symmetry_2
Na0 O72 2.346261 1_555
Na0 O76 2.780914 1_565
Na0 O75 2.784752 1_455
Na0 O86 2.911814 1_565
Na0 O89 2.939409 1_455
Na1 O79 2.457246 1_555
Na1 O92 2.522044 1_556
Na1 O95 2.722504 1_556
Na1 O90 2.795246 1_546
Na1 O82 2.813606 1_545
Na1 O81 2.923831 1_545
Na2 O110 2.335558 1_555
Na2 O112 2.447509 1_555
Na2 O108 2.448988 1_555
Na3 O101 2.389845 1_555
Na3 O111 2.575147 1_555
Na3 O97 2.807228 1_555
Na3 O109 2.845424 1_555
Na3 O99 2.849396 1_555
Na3 O113 3.010172 1_555
Na4 O116 2.552653 1_555
Na4 O118 2.564875 1_555
Na4 O114 2.607593 1_555
Na4 O102 2.617406 1_555
Na4 O104 2.655438 1_555
Na4 O106 2.911894 1_555
Na5 O119 2.247259 1_555
Na5 O117 2.508471 1_555
Na5 O115 2.516758 1_555
Na5 O107 2.836444 1_555
Na5 O103 2.974146 1_555
Na5 O105 3.010316 1_555
Ca0 O72 2.096127 1_555
Ca0 O0 2.241793 1_565
Ca0 O3 2.242629 1_455
Ca0 O76 2.271117 1_565
Ca0 O75 2.275140 1_455
Ca0 O5 2.297704 1_465
Ca1 O74 2.217227 1_555
Ca1 O73 2.235861 1_555
Ca1 O2 2.240718 1_555
Ca1 O77 2.240863 1_565
Ca1 O1 2.260592 1_565
Ca1 O4 2.264990 1_565
Ca2 O9 2.093412 1_555
Ca2 O80 2.226857 1_655
Ca2 O78 2.248156 1_665
Ca2 O11 2.270457 1_565
Ca2 O83 2.315988 1_555
Ca2 O6 2.316239 1_665
Ca3 O79 2.195340 1_555
Ca3 O82 2.231974 1_545
Ca3 O7 2.249527 1_555
Ca3 O10 2.267077 1_555
Ca3 O8 2.336052 1_545
Ca3 O81 2.360249 1_545
Ca4 O92 2.277289 1_565
Ca4 O18 2.300404 1_555
Ca4 O21 2.371994 1_565
Ca4 O23 2.412526 1_555
Ca4 O90 2.415156 1_555
Ca4 O95 2.435730 1_565
Ca5 O26 2.203488 1_555
Ca5 O28 2.223215 1_555
Ca5 O24 2.244158 1_555
Ca5 O98 2.284659 1_555
Ca5 O96 2.292957 1_555
Ca5 O100 2.322160 1_555
Ca6 O101 2.166149 1_555
Ca6 O25 2.201742 1_555
Ca6 O29 2.250742 1_555
Ca6 O27 2.278417 1_555
Ca6 O97 2.332270 1_555
Ca6 O99 2.359788 1_555
Ca7 O32 2.209423 1_555
Ca7 O34 2.275052 1_555
Ca7 O104 2.329895 1_555
Ca7 O30 2.337554 1_555
Ca7 O102 2.349001 1_555
Ca7 O106 2.364764 1_555
Ca8 O31 2.254473 1_555
Ca8 O107 2.299374 1_555
Ca8 O35 2.317062 1_555
Ca8 O33 2.320454 1_555
Ca8 O103 2.323304 1_555
Ca8 O105 2.330402 1_555
Ca9 O40 2.227828 1_556
Ca9 O110 2.296031 1_555
Ca9 O38 2.333283 1_556
Ca9 O112 2.387968 1_555
Ca9 O108 2.412082 1_555
Ca9 O36 2.488757 1_556
Ca10 O37 2.287098 1_556
Ca10 O39 2.355947 1_556
Ca10 O111 2.358341 1_555
Ca10 O41 2.382832 1_556
Ca10 O109 2.425652 1_555
Ca10 O113 2.433062 1_555
Ca11 O42 2.357265 1_555
Ca11 O46 2.398932 1_555
Ca11 O116 2.403790 1_555
Ca11 O114 2.408482 1_555
Ca11 O44 2.421541 1_555
Ca11 O118 2.432648 1_555
Ca12 O119 2.191794 1_555
Ca12 O47 2.392767 1_555
Ca12 O45 2.415114 1_555
Ca12 O115 2.446209 1_555
Ca12 O117 2.475683 1_555
Ca12 O43 2.586773 1_555
Ca13 O124 2.195262 1_555
Ca13 O52 2.264132 1_554
Ca13 O48 2.265232 1_554
Ca13 O50 2.291610 1_554
Ca13 O120 2.293036 1_555
Ca13 O122 2.296722 1_555
Ca14 O58 2.077614 1_555
Ca14 O130 2.281546 1_555
Ca14 O126 2.297321 1_555
Ca14 O56 2.299538 1_555
Ca14 O54 2.311121 1_555
Ca14 O128 2.381968 1_555
Ca15 O55 2.255067 1_555
Ca15 O59 2.263048 1_555
Ca15 O129 2.263642 1_555
Ca15 O57 2.267125 1_555
Ca15 O131 2.275606 1_555
Ca15 O127 2.283759 1_555
Nb0 O16 1.867028 1_555
Nb0 O89 1.984747 1_455
Nb0 O86 1.998840 1_565
Nb0 O85 2.050589 1_465
Nb0 O14 2.164505 1_565
Nb0 O13 2.181429 1_455
Nb1 O87 1.909661 1_565
Nb1 O88 1.909772 1_555
Nb1 O84 1.926531 1_565
Nb1 O12 2.112012 1_555
Nb1 O15 2.171388 1_565
Nb1 O17 2.179918 1_555
Nb2 O94 1.910495 1_555
Nb2 O91 1.941059 1_445
Nb2 O93 2.053183 1_455
Nb2 O22 2.058043 1_545
Nb2 O20 2.081304 1_555
Nb2 O19 2.149752 1_445
Nb3 O51 1.832504 1_554
Nb3 O123 1.943805 1_555
Nb3 O121 1.961884 1_555
Nb3 O49 2.055551 1_554
Nb3 O53 2.084490 1_554
Nb3 O125 2.187574 1_555
Nb4 O60 1.813879 1_555
Nb4 O62 1.981690 1_555
Nb4 O64 2.000189 1_555
Nb4 O134 2.097289 1_555
Nb4 O136 2.202976 1_555
Nb4 O132 2.223284 1_555
Nb5 O65 1.961844 1_555
Nb5 O137 1.972130 1_555
Nb5 O61 1.975810 1_555
Nb5 O63 1.979587 1_555
Nb5 O133 1.981335 1_555
Nb5 O135 2.138008 1_555
Nb6 O140 1.842678 1_555
Nb6 O68 1.977800 1_555
Nb6 O66 1.980425 1_555
Nb6 O138 2.108227 1_555
Nb6 O70 2.111989 1_555
Nb6 O142 2.171462 1_555
Nb7 O67 1.842166 1_555
Nb7 O139 2.057829 1_555
Nb7 O71 2.058415 1_555
Nb7 O141 2.061850 1_555
Nb7 O69 2.093481 1_555
Nb7 O143 2.108117 1_555
O0 S0 1.443948 1_545
O1 S1 1.454730 1_545
O2 S2 1.462561 1_555
O3 S3 1.442341 1_555
O4 S5 1.455077 1_555
O5 S4 1.446434 1_655
O6 S6 1.437825 1_555
O7 S7 1.444723 1_555
O8 S8 1.441836 1_555
O9 Si0 1.556215 1_555
O10 S9 1.449522 1_545
O11 S10 1.441003 1_545
O12 S9 1.534054 1_555
O13 S10 1.512777 1_555
O14 S6 1.525855 1_555
O15 S7 1.508890 1_555
O16 Si0 1.751796 1_455
O17 S8 1.509671 1_555
O18 S2 1.467736 1_555
O19 S3 1.526437 1_555
O20 S4 1.551030 1_555
O21 S5 1.452713 1_555
O22 S0 1.558659 1_555
O23 S1 1.457416 1_555
O24 S11 1.451008 1_555
O25 S12 1.455751 1_555
O26 S13 1.458472 1_555
O27 S14 1.445996 1_555
O28 S15 1.458599 1_555
O29 S16 1.448217 1_555
O30 S17 1.453569 1_555
O31 S18 1.454408 1_555
O32 S19 1.478564 1_555
O33 S20 1.455887 1_555
O34 S21 1.453797 1_555
O35 S22 1.455728 1_555
O36 S21 1.450458 1_555
O37 S22 1.468108 1_555
O38 S17 1.459261 1_555
O39 S18 1.464367 1_555
O40 S19 1.486563 1_555
O41 S20 1.461519 1_555
O42 S13 1.470541 1_555
O43 S14 1.452855 1_555
O44 S15 1.463022 1_555
O45 S16 1.463484 1_555
O46 S11 1.457981 1_555
O47 S12 1.473768 1_555
O48 S23 1.455525 1_555
O49 S24 1.505087 1_555
O50 S25 1.449274 1_555
O51 Si1 1.716943 1_555
O52 S26 1.447067 1_555
O53 S27 1.501717 1_555
O54 S28 1.440787 1_555
O55 S29 1.449874 1_555
O56 S30 1.442533 1_555
O57 S31 1.449413 1_555
O58 Si2 1.572836 1_555
O59 S32 1.448075 1_555
O60 Si2 1.823532 1_555
O61 S32 1.569252 1_555
O62 S28 1.581245 1_555
O63 S29 1.558997 1_555
O64 S30 1.565939 1_555
O65 S31 1.580450 1_555
O66 S25 1.564130 1_555
O67 Si1 1.747432 1_555
O68 S26 1.576223 1_555
O69 S27 1.524854 1_555
O70 S23 1.530542 1_555
O71 S24 1.527154 1_555
O72 Si2 1.601705 1_555
O73 S32 1.442475 1_555
O74 S28 1.450134 1_555
O75 S29 1.452744 1_555
O76 S30 1.457091 1_555
O77 S31 1.443008 1_555
O78 S25 1.437041 1_555
O79 Si1 1.585476 1_555
O80 S26 1.435424 1_555
O81 S27 1.454931 1_555
O82 S23 1.471703 1_555
O83 S24 1.433413 1_555
O84 S11 1.587050 1_555
O85 S12 1.556332 1_555
O86 S13 1.577468 1_555
O87 S14 1.609681 1_555
O88 S15 1.603059 1_555
O89 S16 1.581031 1_555
O90 S17 1.463686 1_555
O91 S18 1.584147 1_555
O92 S19 1.501944 1_555
O93 S20 1.536694 1_555
O94 S21 1.619495 1_555
O95 S22 1.459654 1_555
O96 S9 1.460679 1_545
O97 S10 1.459686 1_545
O98 S6 1.467218 1_555
O99 S7 1.453271 1_555
O100 S8 1.460859 1_555
O101 Si0 1.580575 1_555
O102 S2 1.481824 1_555
O103 S3 1.461119 1_555
O104 S5 1.475586 1_555
O105 S4 1.458105 1_655
O106 S0 1.456796 1_545
O107 S1 1.475422 1_545
O108 S23 1.477658 1_555
O109 S24 1.470844 1_555
O110 Si1 1.582727 1_555
O111 S25 1.488470 1_655
O112 S26 1.479166 1_545
O113 S27 1.464593 1_545
O114 S28 1.482683 1_545
O115 S29 1.471801 1_545
O116 S30 1.485348 1_555
O117 S31 1.469123 1_555
O118 S32 1.480545 1_555
O119 Si2 1.613010 1_655
O120 S21 1.448941 1_555
O121 S22 1.565973 1_555
O122 S18 1.445892 1_455
O123 S17 1.581919 1_555
O124 S19 1.462613 1_565
O125 S20 1.496473 1_565
O126 S13 1.441567 1_565
O127 S14 1.455862 1_565
O128 S15 1.433932 1_555
O129 S16 1.456571 1_555
O130 S12 1.450320 1_455
O131 S11 1.450771 1_555
O132 S0 1.502862 1_555
O133 S1 1.548900 1_555
O134 S2 1.524113 1_555
O135 S3 1.517180 1_555
O136 S4 1.505737 1_555
O137 S5 1.557064 1_555
O138 S6 1.523725 1_555
O139 S7 1.544639 1_555
O140 Si0 1.736044 1_455
O141 S8 1.549777 1_555
O142 S9 1.502828 1_555
O143 S10 1.537818 1_555
