# generated using pymatgen
data_MgFe3(OF)3
_symmetry_space_group_name_H-M   'P 1'
_cell_length_a   5.36311764
_cell_length_b   6.13565725
_cell_length_c   5.35844783
_cell_angle_alpha   116.80366237
_cell_angle_beta   59.92700222
_cell_angle_gamma   117.54247494
_symmetry_Int_Tables_number   1
_chemical_formula_structural   MgFe3(OF)3
_chemical_formula_sum   'Mg1 Fe3 O3 F3'
_cell_volume   129.65800834
_cell_formula_units_Z   1
loop_
 _symmetry_equiv_pos_site_id
 _symmetry_equiv_pos_as_xyz
  1  'x, y, z'
loop_
 _atom_site_type_symbol
 _atom_site_label
 _atom_site_symmetry_multiplicity
 _atom_site_fract_x
 _atom_site_fract_y
 _atom_site_fract_z
 _atom_site_occupancy
  Mg  Mg0  1  0.30123210  0.89941529  0.30015343  1
  Fe  Fe0  1  0.06429843  0.18296925  0.06278756  1
  Fe  Fe1  1  0.47523509  0.43129119  0.47696807  1
  Fe  Fe2  1  0.66989059  0.02195934  0.67683537  1
  O  O0  1  0.07471540  0.16632695  0.41442486  1
  O  O1  1  0.41274452  0.16398057  0.68434996  1
  O  O2  1  0.68700314  0.16524845  0.07262177  1
  F  F0  1  0.30838196  0.72044329  0.87940839  1
  F  F1  1  0.52720837  0.72083260  0.30960572  1
  F  F2  1  0.87809042  0.71202707  0.52164389  1
loop_
_geom_bond_atom_site_label_1
_geom_bond_atom_site_label_2
_geom_bond_distance
_geom_bond_site_symmetry_2
Mg0 O1 2.133811 1_565
Mg0 O2 2.138209 1_565
Mg0 O0 2.173198 1_565
Fe0 O2 1.950359 1_455
Fe0 O1 1.951497 1_554
Fe0 O0 1.961675 1_555
Fe1 O0 2.090431 1_555
Fe1 O2 2.169689 1_555
Fe1 O1 2.190738 1_555
Fe2 O1 1.920147 1_555
Fe2 O2 1.928220 1_556
Fe2 O0 1.939255 1_655
F0 Mg0 2.002444 1_556
F0 Fe1 2.163902 1_555
F0 Fe2 2.178194 1_565
F1 Mg0 2.002907 1_555
F1 Fe1 2.183202 1_555
F1 Fe2 2.189533 1_565
F2 Mg0 1.999712 1_655
F2 Fe1 2.096917 1_555
F2 Fe2 2.271890 1_565
