# generated using pymatgen
data_NiBiO3
_symmetry_space_group_name_H-M   'P 1'
_cell_length_a   7.84876000
_cell_length_b   5.36842200
_cell_length_c   5.68220154
_cell_angle_alpha   89.66086381
_cell_angle_beta   90.00000000
_cell_angle_gamma   90.00000000
_symmetry_Int_Tables_number   1
_chemical_formula_structural   NiBiO3
_chemical_formula_sum   'Ni4 Bi4 O12'
_cell_volume   239.41795799
_cell_formula_units_Z   4
loop_
 _symmetry_equiv_pos_site_id
 _symmetry_equiv_pos_as_xyz
  1  'x, y, z'
loop_
 _atom_site_type_symbol
 _atom_site_label
 _atom_site_symmetry_multiplicity
 _atom_site_fract_x
 _atom_site_fract_y
 _atom_site_fract_z
 _atom_site_occupancy
  Ni  Ni0  1  0.50000000  0.00000000  0.00000000  1
  Ni  Ni1  1  0.50000000  0.50000000  0.50000000  1
  Ni  Ni2  1  0.00000000  0.00000000  0.00000000  1
  Ni  Ni3  1  0.00000000  0.50000000  0.50000000  1
  Bi  Bi0  1  0.75000000  0.53090800  0.93050500  1
  Bi  Bi1  1  0.25000000  0.46909200  0.06949500  1
  Bi  Bi2  1  0.25000000  0.02029600  0.55804600  1
  Bi  Bi3  1  0.75000000  0.97970400  0.44195400  1
  O  O0  1  0.56433600  0.67985300  0.18240600  1
  O  O1  1  0.43566400  0.32014700  0.81759400  1
  O  O2  1  0.42780600  0.20108700  0.29293400  1
  O  O3  1  0.57219400  0.79891300  0.70706600  1
  O  O4  1  0.06433600  0.32014700  0.81759400  1
  O  O5  1  0.93566400  0.67985300  0.18240600  1
  O  O6  1  0.92780600  0.79891300  0.70706600  1
  O  O7  1  0.07219400  0.20108700  0.29293400  1
  O  O8  1  0.75000000  0.15048300  0.03794000  1
  O  O9  1  0.25000000  0.84951700  0.96206000  1
  O  O10  1  0.75000000  0.38293000  0.57125000  1
  O  O11  1  0.25000000  0.61707000  0.42875000  1
loop_
_geom_bond_atom_site_label_1
_geom_bond_atom_site_label_2
_geom_bond_distance
_geom_bond_site_symmetry_2
Ni0 O1 2.064470 1_554
Ni0 O0 2.064470 1_545
Ni0 O2 2.068406 1_555
Ni0 O3 2.068406 1_544
Ni0 O9 2.133391 1_544
Ni0 O8 2.133391 1_555
Ni1 O3 2.074325 1_555
Ni1 O2 2.074325 1_555
Ni1 O10 2.099065 1_555
Ni1 O11 2.099065 1_555
Ni1 O1 2.103164 1_555
Ni1 O0 2.103164 1_555
Ni2 O4 2.064470 1_554
Ni2 O5 2.064470 1_445
Ni2 O7 2.068406 1_555
Ni2 O6 2.068406 1_444
Ni2 O9 2.133391 1_544
Ni2 O8 2.133391 1_455
Ni3 O6 2.074325 1_455
Ni3 O7 2.074325 1_555
Ni3 O11 2.099065 1_555
Ni3 O10 2.099065 1_455
Ni3 O4 2.103164 1_555
Ni3 O5 2.103164 1_455
Bi0 O8 2.128104 1_556
Bi0 O10 2.194864 1_555
Bi0 O5 2.196635 1_556
Bi0 O0 2.196635 1_556
Bi0 O6 2.368110 1_555
Bi0 O3 2.368110 1_555
Bi1 O9 2.128104 1_554
Bi1 O11 2.194864 1_555
Bi1 O1 2.196635 1_554
Bi1 O4 2.196635 1_554
Bi1 O2 2.368110 1_555
Bi1 O7 2.368110 1_555
Bi2 O2 2.267501 1_555
Bi2 O7 2.267501 1_555
Bi2 O11 2.290079 1_545
Bi2 O9 2.466945 1_545
Bi2 O1 2.630189 1_555
Bi2 O4 2.630189 1_555
Bi3 O6 2.267501 1_555
Bi3 O3 2.267501 1_555
Bi3 O10 2.290079 1_565
Bi3 O8 2.466945 1_565
Bi3 O5 2.630189 1_555
Bi3 O0 2.630189 1_555
