# generated using pymatgen
data_MgCd2(MoO4)2
_symmetry_space_group_name_H-M   'P 1'
_cell_length_a   5.17014456
_cell_length_b   5.23341131
_cell_length_c   8.34729628
_cell_angle_alpha   111.38220450
_cell_angle_beta   111.21369309
_cell_angle_gamma   80.48972620
_symmetry_Int_Tables_number   1
_chemical_formula_structural   MgCd2(MoO4)2
_chemical_formula_sum   'Mg1 Cd2 Mo2 O8'
_cell_volume   195.91544207
_cell_formula_units_Z   1
loop_
 _symmetry_equiv_pos_site_id
 _symmetry_equiv_pos_as_xyz
  1  'x, y, z'
loop_
 _atom_site_type_symbol
 _atom_site_label
 _atom_site_symmetry_multiplicity
 _atom_site_fract_x
 _atom_site_fract_y
 _atom_site_fract_z
 _atom_site_occupancy
  Mg  Mg0  1  0.97953821  0.22953691  0.95913963  1
  Cd  Cd0  1  0.63893997  0.88886220  0.27840192  1
  Cd  Cd1  1  0.33242133  0.08224899  0.66514066  1
  Mo  Mo0  1  0.17714029  0.42721815  0.35501782  1
  Mo  Mo1  1  0.81759649  0.56756406  0.63552917  1
  O  O0  1  0.06735896  0.39793705  0.80832916  1
  O  O1  1  0.45593005  0.68927978  0.42393515  1
  O  O2  1  0.96736008  0.23420776  0.42399391  1
  O  O3  1  0.74111314  0.90999006  0.80829010  1
  O  O4  1  0.28339241  0.13723796  0.16334127  1
  O  O5  1  0.02908864  0.74598944  0.56049058  1
  O  O6  1  0.53090755  0.31444890  0.56077706  1
  O  O7  1  0.87921286  0.52547875  0.16316958  1
loop_
_geom_bond_atom_site_label_1
_geom_bond_atom_site_label_2
_geom_bond_distance
_geom_bond_site_symmetry_2
Mg0 O0 1.980516 1_655
Mg0 O3 1.980949 1_545
Mg0 O4 2.004601 1_656
Mg0 O7 2.004694 1_556
Cd0 O4 2.198685 1_565
Cd0 O7 2.198914 1_555
Cd0 O1 2.354921 1_555
Cd0 O2 2.354921 1_565
Cd0 O5 2.742346 1_655
Cd0 O6 2.746290 1_565
Cd1 O0 2.243539 1_555
Cd1 O3 2.243673 1_545
Cd1 O5 2.262527 1_545
Cd1 O6 2.262671 1_555
Cd1 O1 2.483594 1_545
Cd1 O2 2.483634 1_455
Mo0 O4 1.937745 1_555
Mo0 O7 1.937827 1_455
Mo0 O2 1.940665 1_455
Mo0 O1 1.940962 1_555
Mo0 O5 2.180013 1_555
Mo0 O6 2.180035 1_555
Mo1 O6 1.928168 1_555
Mo1 O5 1.928584 1_655
Mo1 O3 1.934309 1_555
Mo1 O0 1.934689 1_655
Mo1 O2 2.248964 1_555
Mo1 O1 2.249098 1_555
