# generated using pymatgen
data_LaGeP(SO6)2
_symmetry_space_group_name_H-M   'P 1'
_cell_length_a   8.85525893
_cell_length_b   9.04058069
_cell_length_c   21.59574617
_cell_angle_alpha   88.46934389
_cell_angle_beta   90.00000000
_cell_angle_gamma   119.32418796
_symmetry_Int_Tables_number   1
_chemical_formula_structural   LaGeP(SO6)2
_chemical_formula_sum   'La6 Ge6 P6 S12 O72'
_cell_volume   1506.64150929
_cell_formula_units_Z   6
loop_
 _symmetry_equiv_pos_site_id
 _symmetry_equiv_pos_as_xyz
  1  'x, y, z'
loop_
 _atom_site_type_symbol
 _atom_site_label
 _atom_site_symmetry_multiplicity
 _atom_site_fract_x
 _atom_site_fract_y
 _atom_site_fract_z
 _atom_site_occupancy
  La  La0  1  0.01126662  0.00388168  0.38004047  1
  La  La1  1  0.99261506  0.00388168  0.88004047  1
  La  La2  1  0.67676965  0.33829615  0.71492473  1
  La  La3  1  0.66152750  0.33829615  0.21492473  1
  La  La4  1  0.33238761  0.65179453  0.04680686  1
  La  La5  1  0.31940592  0.65179453  0.54680686  1
  Ge  Ge0  1  0.99010810  0.98563086  0.63906005  1
  Ge  Ge1  1  0.99552276  0.98563086  0.13906005  1
  Ge  Ge2  1  0.65596186  0.31717178  0.97446749  1
  Ge  Ge3  1  0.66121092  0.31717178  0.47446749  1
  Ge  Ge4  1  0.35287851  0.65892718  0.30758244  1
  Ge  Ge5  1  0.30604768  0.65892718  0.80758244  1
  P  P0  1  0.71632591  0.76990255  0.25044052  1
  P  P1  1  0.05357664  0.76990255  0.75044052  1
  P  P2  1  0.89696938  0.26100941  0.58243281  1
  P  P3  1  0.36404102  0.26100941  0.08243281  1
  P  P4  1  0.02880371  0.42634406  0.91791763  1
  P  P5  1  0.39753935  0.42634406  0.41791763  1
  S  S0  1  0.24923150  0.92422141  0.24945204  1
  S  S1  1  0.07088974  0.31667591  0.24834261  1
  S  S2  1  0.24578617  0.31667591  0.74834261  1
  S  S3  1  0.67498991  0.92422141  0.74945204  1
  S  S4  1  0.35915109  0.08929258  0.58345115  1
  S  S5  1  0.72766985  0.63952977  0.58136651  1
  S  S6  1  0.91186092  0.63952977  0.08136651  1
  S  S7  1  0.73014249  0.08929258  0.08345115  1
  S  S8  1  0.57360468  0.59863385  0.91442970  1
  S  S9  1  0.39475063  0.97412237  0.91653712  1
  S  S10  1  0.57937074  0.97412237  0.41653712  1
  S  S11  1  0.02502817  0.59863385  0.41442970  1
  O  O0  1  0.19324817  0.96977406  0.30577089  1
  O  O1  1  0.82016536  0.84721263  0.30735454  1
  O  O2  1  0.03757102  0.21743014  0.30600789  1
  O  O3  1  0.17985912  0.21743014  0.80600789  1
  O  O4  1  0.02704727  0.84721263  0.80735454  1
  O  O5  1  0.77652589  0.96977406  0.80577089  1
  O  O6  1  0.76708669  0.89488737  0.69703780  1
  O  O7  1  0.14284056  0.23077275  0.69370124  1
  O  O8  1  0.08514083  0.89212647  0.69136306  1
  O  O9  1  0.80698564  0.89212647  0.19136306  1
  O  O10  1  0.08793219  0.23077275  0.19370124  1
  O  O11  1  0.12780068  0.89488737  0.19703780  1
  O  O12  1  0.83320573  0.30375525  0.64060665  1
  O  O13  1  0.46052639  0.16285475  0.63813892  1
  O  O14  1  0.68250700  0.53884607  0.63896317  1
  O  O15  1  0.85634007  0.53884607  0.13896317  1
  O  O16  1  0.70232936  0.16285475  0.13813892  1
  O  O17  1  0.47055052  0.30375525  0.14060665  1
  O  O18  1  0.46252691  0.22968618  0.02728292  1
  O  O19  1  0.80193471  0.54937634  0.02846566  1
  O  O20  1  0.75367079  0.19742764  0.02560519  1
  O  O21  1  0.44375785  0.19742764  0.52560519  1
  O  O22  1  0.74744263  0.54937634  0.52846566  1
  O  O23  1  0.76716027  0.22968618  0.52728292  1
  O  O24  1  0.52655802  0.64981094  0.97159112  1
  O  O25  1  0.14304882  0.50364624  0.97289311  1
  O  O26  1  0.37423943  0.87552792  0.97305533  1
  O  O27  1  0.50128750  0.87552792  0.47305533  1
  O  O28  1  0.36059642  0.50364624  0.47289311  1
  O  O29  1  0.12325192  0.64981094  0.47159112  1
  O  O30  1  0.12866575  0.58232957  0.36318090  1
  O  O31  1  0.48227141  0.88917332  0.36020679  1
  O  O32  1  0.43101572  0.54611652  0.35817165  1
  O  O33  1  0.11509980  0.54611652  0.85817165  1
  O  O34  1  0.40690092  0.88917332  0.86020679  1
  O  O35  1  0.45366282  0.58232957  0.86318090  1
  O  O36  1  0.96107987  0.71663206  0.39951186  1
  O  O37  1  0.76369988  0.02383902  0.41301217  1
  O  O38  1  0.25635166  0.24522286  0.40833267  1
  O  O39  1  0.98887120  0.24522286  0.90833267  1
  O  O40  1  0.26013914  0.02383902  0.91301217  1
  O  O41  1  0.75555219  0.71663206  0.89951186  1
  O  O42  1  0.88804073  0.08169683  0.59144934  1
  O  O43  1  0.19044425  0.09711494  0.58549048  1
  O  O44  1  0.90757807  0.79745043  0.58603934  1
  O  O45  1  0.88987235  0.79745043  0.08603934  1
  O  O46  1  0.90667069  0.09711494  0.08549048  1
  O  O47  1  0.19365610  0.08169683  0.09144934  1
  O  O48  1  0.62065225  0.04974752  0.73484181  1
  O  O49  1  0.43099111  0.37081231  0.74129749  1
  O  O50  1  0.90723353  0.59015302  0.74181165  1
  O  O51  1  0.68292049  0.59015302  0.24181165  1
  O  O52  1  0.93982221  0.37081231  0.24129749  1
  O  O53  1  0.42909627  0.04974752  0.23484181  1
  O  O54  1  0.54978036  0.42018162  0.92206169  1
  O  O55  1  0.85149607  0.42827592  0.92435695  1
  O  O56  1  0.57089177  0.13861583  0.91698587  1
  O  O57  1  0.56772506  0.13861583  0.41698587  1
  O  O58  1  0.57678086  0.42827592  0.42435695  1
  O  O59  1  0.87040226  0.42018162  0.42206169  1
  O  O60  1  0.31165697  0.39330555  0.06653972  1
  O  O61  1  0.09704135  0.70062998  0.07113106  1
  O  O62  1  0.59421751  0.91333684  0.07729724  1
  O  O63  1  0.31911833  0.91333684  0.57729724  1
  O  O64  1  0.60358763  0.70062998  0.57113106  1
  O  O65  1  0.08164759  0.39330555  0.56653972  1
  O  O66  1  0.23697130  0.75094793  0.25787682  1
  O  O67  1  0.53782013  0.76875209  0.25359034  1
  O  O68  1  0.24895770  0.47709700  0.25172457  1
  O  O69  1  0.22813831  0.47709700  0.75172457  1
  O  O70  1  0.23093096  0.76875209  0.75359034  1
  O  O71  1  0.51397563  0.75094793  0.75787682  1
loop_
_geom_bond_atom_site_label_1
_geom_bond_atom_site_label_2
_geom_bond_distance
_geom_bond_site_symmetry_2
La0 O1 2.259395 1_445
La0 O38 2.297175 1_555
La0 O2 2.394207 1_555
La0 O37 2.395809 1_455
La0 O0 2.403675 1_545
La0 O36 2.435045 1_445
La1 O4 2.259395 1_645
La1 O39 2.297175 1_555
La1 O3 2.394207 1_655
La1 O40 2.395809 1_655
La1 O5 2.403675 1_545
La1 O41 2.435045 1_545
La2 O12 2.245637 1_555
La2 O50 2.281575 1_555
La2 O14 2.394120 1_555
La2 O49 2.404844 1_555
La2 O48 2.430493 1_555
La2 O13 2.469383 1_555
La3 O17 2.245637 1_555
La3 O51 2.281575 1_555
La3 O15 2.394120 1_555
La3 O52 2.404844 1_555
La3 O53 2.430493 1_555
La3 O16 2.469383 1_555
La4 O25 2.251122 1_554
La4 O60 2.280998 1_555
La4 O24 2.372129 1_554
La4 O61 2.393277 1_555
La4 O26 2.420532 1_554
La4 O62 2.472547 1_555
La5 O28 2.251122 1_555
La5 O65 2.280998 1_555
La5 O29 2.372129 1_555
La5 O64 2.393277 1_555
La5 O27 2.420532 1_555
La5 O63 2.472547 1_555
Ge0 O8 1.828767 1_655
Ge0 O42 1.830175 1_565
Ge0 O44 1.904127 1_555
Ge0 O43 1.920342 1_665
Ge0 O6 2.121120 1_555
Ge0 O7 2.310207 1_665
Ge1 O9 1.828767 1_555
Ge1 O47 1.830175 1_665
Ge1 O45 1.904127 1_555
Ge1 O46 1.920342 1_565
Ge1 O11 2.121120 1_655
Ge1 O10 2.310207 1_665
Ge2 O55 1.848379 1_555
Ge2 O18 1.866916 1_556
Ge2 O56 1.905308 1_555
Ge2 O54 1.957954 1_555
Ge2 O20 1.998441 1_556
Ge2 O19 2.215964 1_556
Ge3 O58 1.848379 1_555
Ge3 O23 1.866916 1_555
Ge3 O57 1.905308 1_555
Ge3 O59 1.957954 1_555
Ge3 O21 1.998441 1_555
Ge3 O22 2.215964 1_555
Ge4 O32 1.828707 1_555
Ge4 O67 1.836542 1_555
Ge4 O68 1.904846 1_555
Ge4 O66 1.920021 1_555
Ge4 O30 2.114737 1_555
Ge4 O31 2.174285 1_555
Ge5 O33 1.828707 1_555
Ge5 O70 1.836542 1_555
Ge5 O69 1.904846 1_555
Ge5 O71 1.920021 1_555
Ge5 O35 2.114737 1_555
Ge5 O34 2.174285 1_555
O0 S0 1.456487 1_555
O1 P0 1.503696 1_555
O2 S1 1.457371 1_555
O3 S2 1.457371 1_555
O4 P1 1.503696 1_555
O5 S3 1.456487 1_555
O6 S3 1.498189 1_555
O7 S2 1.477198 1_555
O8 P1 1.596554 1_555
O9 P0 1.596554 1_555
O10 S1 1.477198 1_555
O11 S0 1.498189 1_555
O12 P2 1.511999 1_555
O13 S4 1.449192 1_555
O14 S5 1.455530 1_555
O15 S6 1.455530 1_555
O16 S7 1.449192 1_555
O17 P3 1.511999 1_555
O18 P3 1.587196 1_555
O19 S6 1.479739 1_555
O20 S7 1.514904 1_555
O21 S4 1.514904 1_555
O22 S5 1.479739 1_555
O23 P2 1.587196 1_555
O24 S8 1.459724 1_555
O25 P4 1.507718 1_555
O26 S9 1.449326 1_555
O27 S10 1.449326 1_555
O28 P5 1.507718 1_555
O29 S11 1.459724 1_555
O30 S11 1.493350 1_555
O31 S10 1.487311 1_555
O32 P5 1.592507 1_555
O33 P4 1.592507 1_555
O34 S9 1.487311 1_555
O35 S8 1.493350 1_555
O36 S11 1.461441 1_655
O37 S10 1.466872 1_545
O38 P5 1.516592 1_555
O39 P4 1.516594 1_655
O40 S9 1.466864 1_545
O41 S8 1.461448 1_555
O42 P2 1.590500 1_555
O43 S4 1.530508 1_555
O44 S5 1.538306 1_555
O45 S6 1.538311 1_555
O46 S7 1.530500 1_555
O47 P3 1.590504 1_555
O48 S3 1.461043 1_545
O49 S2 1.470445 1_555
O50 P1 1.519309 1_655
O51 P0 1.519312 1_555
O52 S1 1.470437 1_655
O53 S0 1.461049 1_545
O54 S8 1.525404 1_555
O55 P4 1.584886 1_655
O56 S9 1.540539 1_545
O57 S10 1.540529 1_545
O58 P5 1.584903 1_555
O59 S11 1.525398 1_655
O60 P3 1.511616 1_555
O61 S6 1.466027 1_455
O62 S7 1.460391 1_565
O63 S4 1.460386 1_565
O64 S5 1.466044 1_555
O65 P2 1.511604 1_455
O66 S0 1.522163 1_555
O67 P0 1.577103 1_555
O68 S1 1.536480 1_555
O69 S2 1.536485 1_555
O70 P1 1.577094 1_555
O71 S3 1.522166 1_555
