# generated using pymatgen
data_Si
_symmetry_space_group_name_H-M   'P 1'
_cell_length_a   5.40464532
_cell_length_b   5.40464373
_cell_length_c   5.40464438
_cell_angle_alpha   60.00000760
_cell_angle_beta   60.00001743
_cell_angle_gamma   60.00000850
_symmetry_Int_Tables_number   1
_chemical_formula_structural   Si
_chemical_formula_sum   Si8
_cell_volume   111.63143428
_cell_formula_units_Z   8
loop_
 _symmetry_equiv_pos_site_id
 _symmetry_equiv_pos_as_xyz
  1  'x, y, z'
loop_
 _atom_site_type_symbol
 _atom_site_label
 _atom_site_symmetry_multiplicity
 _atom_site_fract_x
 _atom_site_fract_y
 _atom_site_fract_z
 _atom_site_occupancy
  Si  Si0_0  1  0.00000000  0.00000000  0.00000000  1
  Si  Si0_1  1  0.00000000  0.00000000  0.50000000  1
  Si  Si0_2  1  0.00000000  0.50000000  0.00000000  1
  Si  Si0_3  1  0.00000000  0.50000000  0.50000000  1
  Si  Si0_4  1  0.50000000  0.00000000  0.00000000  1
  Si  Si0_5  1  0.50000000  0.00000000  0.50000000  1
  Si  Si0_6  1  0.50000000  0.50000000  0.00000000  1
  Si  Si0_7  1  0.50000000  0.50000000  0.50000000  1
loop_
_geom_bond_atom_site_label_1
_geom_bond_atom_site_label_2
_geom_bond_distance
_geom_bond_site_symmetry_2
Si0_0 Si0_2 2.702322 1_555
Si0_0 Si0_2 2.702322 1_545
Si0_0 Si0_1 2.702322 1_555
Si0_0 Si0_1 2.702322 1_554
Si0_0 Si0_3 2.702322 1_554
Si0_0 Si0_3 2.702322 1_545
Si0_0 Si0_6 2.702323 1_455
Si0_0 Si0_6 2.702323 1_545
Si0_0 Si0_4 2.702323 1_555
Si0_0 Si0_4 2.702323 1_455
Si0_0 Si0_5 2.702323 1_455
Si0_0 Si0_5 2.702323 1_554
Si0_1 Si0_3 2.702322 1_555
Si0_1 Si0_3 2.702322 1_545
Si0_1 Si0_2 2.702322 1_555
Si0_1 Si0_2 2.702322 1_546
Si0_1 Si0_7 2.702323 1_545
Si0_1 Si0_7 2.702323 1_455
Si0_1 Si0_5 2.702323 1_555
Si0_1 Si0_5 2.702323 1_455
Si0_1 Si0_4 2.702323 1_456
Si0_1 Si0_4 2.702323 1_555
Si0_2 Si0_3 2.702322 1_555
Si0_2 Si0_3 2.702322 1_554
Si0_2 Si0_4 2.702323 1_555
Si0_2 Si0_4 2.702323 1_465
Si0_2 Si0_6 2.702323 1_455
Si0_2 Si0_6 2.702323 1_555
Si0_2 Si0_7 2.702323 1_554
Si0_2 Si0_7 2.702323 1_455
Si0_3 Si0_5 2.702323 1_555
Si0_3 Si0_5 2.702323 1_465
Si0_3 Si0_7 2.702323 1_455
Si0_3 Si0_7 2.702323 1_555
Si0_3 Si0_6 2.702323 1_555
Si0_3 Si0_6 2.702323 1_456
Si0_4 Si0_6 2.702322 1_555
Si0_4 Si0_6 2.702322 1_545
Si0_4 Si0_5 2.702322 1_555
Si0_4 Si0_5 2.702322 1_554
Si0_4 Si0_7 2.702322 1_554
Si0_4 Si0_7 2.702322 1_545
Si0_5 Si0_7 2.702322 1_555
Si0_5 Si0_7 2.702322 1_545
Si0_5 Si0_6 2.702322 1_555
Si0_5 Si0_6 2.702322 1_546
Si0_6 Si0_7 2.702322 1_555
Si0_6 Si0_7 2.702322 1_554
