# generated using pymatgen
data_Na6La4Zr4Si5S7O48
_symmetry_space_group_name_H-M   'P 1'
_cell_length_a   18.64351318
_cell_length_b   9.26379226
_cell_length_c   24.16906297
_cell_angle_alpha   90.00257897
_cell_angle_beta   89.59564309
_cell_angle_gamma   119.80840896
_symmetry_Int_Tables_number   1
_chemical_formula_structural   Na6La4Zr4Si5S7O48
_chemical_formula_sum   'Na18 La12 Zr12 Si15 S21 O144'
_cell_volume   3621.82904001
_cell_formula_units_Z   3
loop_
 _symmetry_equiv_pos_site_id
 _symmetry_equiv_pos_as_xyz
  1  'x, y, z'
loop_
 _atom_site_type_symbol
 _atom_site_label
 _atom_site_symmetry_multiplicity
 _atom_site_fract_x
 _atom_site_fract_y
 _atom_site_fract_z
 _atom_site_occupancy
  Na  Na0  1  0.99758470  0.62568352  0.25577938  1
  Na  Na1  1  0.49824321  0.62280918  0.25131609  1
  Na  Na2  1  0.99770799  0.37829277  0.74993749  1
  Na  Na3  1  0.49988850  0.36111002  0.75262855  1
  Na  Na4  1  0.66311633  0.30746071  0.92132552  1
  Na  Na5  1  0.16449770  0.01358562  0.43328322  1
  Na  Na6  1  0.00407765  0.99514942  0.51041090  1
  Na  Na7  1  0.50471489  0.99125268  0.50298240  1
  Na  Na8  1  0.00645350  0.01513090  0.99400446  1
  Na  Na9  1  0.50457218  0.01724779  0.00342849  1
  Na  Na10  1  0.33064721  0.31943300  0.84103112  1
  Na  Na11  1  0.83026992  0.33114499  0.81766429  1
  Na  Na12  1  0.34515338  0.35262540  0.32576445  1
  Na  Na13  1  0.82562121  0.33686048  0.34620021  1
  Na  Na14  1  0.18867244  0.65583658  0.16435080  1
  Na  Na15  1  0.67187589  0.65067416  0.15914004  1
  Na  Na16  1  0.17366786  0.69634767  0.66280484  1
  Na  Na17  1  0.68430590  0.69425525  0.67360956  1
  La  La0  1  0.99287592  0.98834990  0.35976594  1
  La  La1  1  0.49885002  0.00713883  0.85532414  1
  La  La2  1  0.31936552  0.33210084  0.67536585  1
  La  La3  1  0.82288917  0.31183194  0.68554148  1
  La  La4  1  0.33061518  0.34613189  0.18228987  1
  La  La5  1  0.81758654  0.30733730  0.17496636  1
  La  La6  1  0.83234142  0.31989766  0.99232987  1
  La  La7  1  0.33382028  0.34895899  0.49518950  1
  La  La8  1  0.17044183  0.66389818  0.31466220  1
  La  La9  1  0.67060398  0.64414084  0.31527415  1
  La  La10  1  0.17222251  0.69813120  0.81513123  1
  La  La11  1  0.66805299  0.66162025  0.81136474  1
  Zr  Zr0  1  0.49879096  0.01687799  0.35202654  1
  Zr  Zr1  1  0.99874784  0.97990560  0.85109752  1
  Zr  Zr2  1  0.99747075  0.98161653  0.65045769  1
  Zr  Zr3  1  0.51156421  0.00034397  0.64327813  1
  Zr  Zr4  1  0.00511228  0.01979885  0.13967621  1
  Zr  Zr5  1  0.49658673  0.01288604  0.14924462  1
  Zr  Zr6  1  0.32672090  0.31880695  0.98260215  1
  Zr  Zr7  1  0.82766860  0.33680521  0.48365696  1
  Zr  Zr8  1  0.16220949  0.66437341  0.01471287  1
  Zr  Zr9  1  0.66521049  0.65734766  0.01977101  1
  Zr  Zr10  1  0.16422069  0.67222731  0.52184104  1
  Zr  Zr11  1  0.66137709  0.65674335  0.51600439  1
  Si  Si0  1  0.36041027  0.72169030  0.25123990  1
  Si  Si1  1  0.49829384  0.29406255  0.24977985  1
  Si  Si2  1  0.64250274  0.29048950  0.74955333  1
  Si  Si3  1  0.00091995  0.70403641  0.74956450  1
  Si  Si4  1  0.86101966  0.00041085  0.75142240  1
  Si  Si5  1  0.17156148  0.02161606  0.57881807  1
  Si  Si6  1  0.68553555  0.02706532  0.58013587  1
  Si  Si7  1  0.33428233  0.65886786  0.58373637  1
  Si  Si8  1  0.83092321  0.01183036  0.08351691  1
  Si  Si9  1  0.18584901  0.34526155  0.08147793  1
  Si  Si10  1  0.67196595  0.32491961  0.07945185  1
  Si  Si11  1  0.51641954  0.37683033  0.91883373  1
  Si  Si12  1  0.16248625  0.96782438  0.92031437  1
  Si  Si13  1  0.66390751  0.35818921  0.41960568  1
  Si  Si14  1  0.01794113  0.65404028  0.41689364  1
  S  S0  1  0.13996962  0.99540920  0.24793185  1
  S  S1  1  0.63847072  0.00062674  0.25178492  1
  S  S2  1  0.85964445  0.71207994  0.24385934  1
  S  S3  1  0.99888336  0.29285536  0.24586055  1
  S  S4  1  0.13845459  0.27670518  0.75189209  1
  S  S5  1  0.49718295  0.70240922  0.74597630  1
  S  S6  1  0.35700039  0.00499776  0.74364845  1
  S  S7  1  0.49273710  0.33569529  0.58529612  1
  S  S8  1  0.98290341  0.33001309  0.58005593  1
  S  S9  1  0.83155075  0.63738272  0.57903855  1
  S  S10  1  0.48444075  0.63881242  0.08019975  1
  S  S11  1  0.99316427  0.64910446  0.08709239  1
  S  S12  1  0.33062418  0.02601156  0.08009422  1
  S  S13  1  0.31115089  0.65531166  0.92264013  1
  S  S14  1  0.81762255  0.67368669  0.91978835  1
  S  S15  1  0.02123862  0.36738773  0.91634789  1
  S  S16  1  0.66689925  0.96215843  0.92039158  1
  S  S17  1  0.31700755  0.96315134  0.41887837  1
  S  S18  1  0.81006583  0.96717473  0.42231800  1
  S  S19  1  0.16807435  0.36753181  0.42007925  1
  S  S20  1  0.51988723  0.67364596  0.41578574  1
  O  O0  1  0.10237544  0.00547181  0.30110728  1
  O  O1  1  0.59470172  0.00908975  0.30252168  1
  O  O2  1  0.41476257  0.82374693  0.30645331  1
  O  O3  1  0.90088814  0.79064992  0.29692102  1
  O  O4  1  0.50005399  0.19081270  0.30548642  1
  O  O5  1  0.99584058  0.20431331  0.29726445  1
  O  O6  1  0.09510719  0.18077423  0.80266501  1
  O  O7  1  0.60222016  0.20474358  0.80996274  1
  O  O8  1  0.49063306  0.77969539  0.79743904  1
  O  O9  1  0.00257586  0.81133784  0.80531731  1
  O  O10  1  0.39642218  0.00693157  0.79708635  1
  O  O11  1  0.91562306  0.00328414  0.80651161  1
  O  O12  1  0.40603258  0.00102023  0.69599794  1
  O  O13  1  0.91301846  0.99968896  0.69535848  1
  O  O14  1  0.09355792  0.18945769  0.70067836  1
  O  O15  1  0.58293363  0.16756146  0.69944540  1
  O  O16  1  0.00517565  0.81549241  0.69481830  1
  O  O17  1  0.49691242  0.79910426  0.69655649  1
  O  O18  1  0.41149450  0.82268451  0.19485123  1
  O  O19  1  0.91042224  0.81550617  0.19661660  1
  O  O20  1  0.00069504  0.19502796  0.19686391  1
  O  O21  1  0.50277213  0.19230622  0.19495643  1
  O  O22  1  0.08879209  0.99541295  0.20083438  1
  O  O23  1  0.59303441  0.99702053  0.20060752  1
  O  O24  1  0.45604409  0.36427818  0.63549826  1
  O  O25  1  0.95597223  0.36766190  0.63316915  1
  O  O26  1  0.23413789  0.10791100  0.63012755  1
  O  O27  1  0.73566064  0.08390453  0.63697335  1
  O  O28  1  0.31197563  0.53534061  0.63680579  1
  O  O29  1  0.81535581  0.54236109  0.63018856  1
  O  O30  1  0.45728978  0.54651826  0.13379490  1
  O  O31  1  0.95713499  0.54806881  0.13739913  1
  O  O32  1  0.31442496  0.08945256  0.13144139  1
  O  O33  1  0.81395832  0.08995054  0.13873158  1
  O  O34  1  0.23423087  0.38052048  0.13957907  1
  O  O35  1  0.73288768  0.36450171  0.13216853  1
  O  O36  1  0.23748052  0.31414217  0.03253816  1
  O  O37  1  0.71241867  0.29987166  0.02261716  1
  O  O38  1  0.42663391  0.54140556  0.03558272  1
  O  O39  1  0.93992574  0.57719432  0.03839046  1
  O  O40  1  0.34396280  0.13922546  0.03267382  1
  O  O41  1  0.85787317  0.13864094  0.03139605  1
  O  O42  1  0.21065986  0.12196571  0.52062378  1
  O  O43  1  0.73869511  0.16258252  0.53089355  1
  O  O44  1  0.35821451  0.58243222  0.53030671  1
  O  O45  1  0.84500203  0.55047136  0.53137067  1
  O  O46  1  0.44081586  0.30751811  0.53619173  1
  O  O47  1  0.92639448  0.31383543  0.53443160  1
  O  O48  1  0.25938783  0.66659350  0.96824980  1
  O  O49  1  0.77524614  0.69315944  0.96923462  1
  O  O50  1  0.07413535  0.46348201  0.96514194  1
  O  O51  1  0.58666412  0.49754492  0.96463975  1
  O  O52  1  0.15346138  0.83793483  0.97076682  1
  O  O53  1  0.66938041  0.86791165  0.96915646  1
  O  O54  1  0.27464126  0.85868142  0.46786351  1
  O  O55  1  0.75993491  0.85213859  0.46758901  1
  O  O56  1  0.16731346  0.46423524  0.46793123  1
  O  O57  1  0.65332543  0.46838685  0.46933271  1
  O  O58  1  0.08931304  0.68032216  0.46215903  1
  O  O59  1  0.57216820  0.68215447  0.46404854  1
  O  O60  1  0.04826043  0.63533214  0.35421803  1
  O  O61  1  0.55935494  0.66149088  0.36346311  1
  O  O62  1  0.26741247  0.88756746  0.36847793  1
  O  O63  1  0.76983444  0.90443749  0.36839912  1
  O  O64  1  0.17207262  0.45204675  0.36727470  1
  O  O65  1  0.68640863  0.46571368  0.36236456  1
  O  O66  1  0.06094674  0.45848756  0.86460367  1
  O  O67  1  0.54546551  0.45895112  0.85718069  1
  O  O68  1  0.18434868  0.90386361  0.86358661  1
  O  O69  1  0.67021856  0.88356424  0.86834470  1
  O  O70  1  0.26938088  0.63397093  0.86924459  1
  O  O71  1  0.76823848  0.64918951  0.86978287  1
  O  O72  1  0.01741452  0.83426075  0.41954501  1
  O  O73  1  0.51381164  0.82760443  0.41506195  1
  O  O74  1  0.40004978  0.97649284  0.41317507  1
  O  O75  1  0.89252024  0.97991791  0.42380149  1
  O  O76  1  0.09159334  0.20017892  0.42126663  1
  O  O77  1  0.58016514  0.17578223  0.41259188  1
  O  O78  1  0.01508686  0.20137145  0.91617280  1
  O  O79  1  0.51552656  0.19732659  0.92367947  1
  O  O80  1  0.07883504  0.98269691  0.91473925  1
  O  O81  1  0.59005238  0.97464159  0.92377674  1
  O  O82  1  0.39248733  0.80629388  0.92449004  1
  O  O83  1  0.90079133  0.82686675  0.91476642  1
  O  O84  1  0.50497726  0.19030926  0.59159595  1
  O  O85  1  0.98977742  0.17728152  0.58396194  1
  O  O86  1  0.08167786  0.00945052  0.58955894  1
  O  O87  1  0.59300079  0.01216886  0.58602885  1
  O  O88  1  0.41384111  0.84285393  0.59581276  1
  O  O89  1  0.90715985  0.80520305  0.58367566  1
  O  O90  1  0.49084275  0.80446398  0.08524941  1
  O  O91  1  0.00662690  0.82059137  0.09520308  1
  O  O92  1  0.40614595  0.00934033  0.08521679  1
  O  O93  1  0.91254333  0.98776821  0.09512322  1
  O  O94  1  0.09233266  0.17513478  0.08861534  1
  O  O95  1  0.58212132  0.15655120  0.09093218  1
  O  O96  1  0.35292590  0.16188912  0.74287936  1
  O  O97  1  0.86176137  0.17709069  0.75223762  1
  O  O98  1  0.22253374  0.29832532  0.75212800  1
  O  O99  1  0.73517913  0.31885284  0.74768239  1
  O  O100  1  0.42636067  0.52928922  0.74371765  1
  O  O101  1  0.92060257  0.52209304  0.75052753  1
  O  O102  1  0.35776477  0.54149771  0.25197643  1
  O  O103  1  0.85529520  0.54775557  0.24301591  1
  O  O104  1  0.41630365  0.31284327  0.25060192  1
  O  O105  1  0.92677008  0.31828526  0.24388546  1
  O  O106  1  0.22459758  0.13532804  0.24485807  1
  O  O107  1  0.72219530  0.14661030  0.25203573  1
  O  O108  1  0.32100094  0.50686444  0.93139143  1
  O  O109  1  0.82714853  0.52513334  0.92554341  1
  O  O110  1  0.42456231  0.35283919  0.93464763  1
  O  O111  1  0.93954655  0.35405453  0.92224928  1
  O  O112  1  0.24493016  0.15081721  0.93216623  1
  O  O113  1  0.73860479  0.13608056  0.92069635  1
  O  O114  1  0.32597997  0.13066727  0.42386890  1
  O  O115  1  0.82137171  0.13588954  0.43032153  1
  O  O116  1  0.24006260  0.33849146  0.42024132  1
  O  O117  1  0.74637449  0.33987689  0.43122920  1
  O  O118  1  0.43744500  0.52365375  0.42046205  1
  O  O119  1  0.92588128  0.49635992  0.43152326  1
  O  O120  1  0.16835732  0.49891803  0.06722873  1
  O  O121  1  0.65864657  0.48748158  0.07328662  1
  O  O122  1  0.07613760  0.66557112  0.07685308  1
  O  O123  1  0.56894638  0.66454069  0.06870187  1
  O  O124  1  0.25856340  0.85703105  0.06876435  1
  O  O125  1  0.74963456  0.83256673  0.07195800  1
  O  O126  1  0.15803699  0.83153354  0.57322796  1
  O  O127  1  0.66794559  0.84010428  0.56254778  1
  O  O128  1  0.25061112  0.66891968  0.57013566  1
  O  O129  1  0.75949755  0.66124669  0.56681200  1
  O  O130  1  0.06792674  0.47318502  0.56775581  1
  O  O131  1  0.57574033  0.48656724  0.57583762  1
  O  O132  1  0.13938839  0.83326041  0.24565338  1
  O  O133  1  0.64143797  0.84329809  0.25307994  1
  O  O134  1  0.26802486  0.70149577  0.25041058  1
  O  O135  1  0.77681633  0.69614824  0.24204693  1
  O  O136  1  0.07509628  0.45998171  0.24302282  1
  O  O137  1  0.57953613  0.48280594  0.24893046  1
  O  O138  1  0.14122958  0.43940248  0.75307626  1
  O  O139  1  0.63860084  0.46359951  0.74309457  1
  O  O140  1  0.08360525  0.68263713  0.74823734  1
  O  O141  1  0.57474584  0.69384132  0.74368701  1
  O  O142  1  0.27330047  0.85665612  0.74164626  1
  O  O143  1  0.76941268  0.83789505  0.75060205  1
loop_
_geom_bond_atom_site_label_1
_geom_bond_atom_site_label_2
_geom_bond_distance
_geom_bond_site_symmetry_2
Na0 O132 2.384014 1_655
Na0 O103 2.400230 1_555
Na0 O105 2.490458 1_555
Na0 O60 2.551232 1_655
Na0 O136 2.595901 1_655
Na1 O102 2.337720 1_555
Na1 O133 2.425120 1_555
Na1 O137 2.436278 1_555
Na1 O104 2.493693 1_555
Na1 O61 2.900145 1_555
Na1 O30 2.940090 1_555
Na2 O97 2.280860 1_555
Na2 O101 2.396834 1_555
Na2 O138 2.445963 1_655
Na2 O140 2.454669 1_655
Na2 O25 2.921409 1_555
Na2 O66 2.966071 1_655
Na3 O139 2.278789 1_555
Na3 O96 2.439340 1_555
Na3 O100 2.545650 1_555
Na3 O67 2.682033 1_555
Na3 O141 2.685948 1_555
Na3 O24 2.956300 1_555
Na4 O79 2.412915 1_555
Na4 O113 2.592801 1_555
Na4 O37 2.634226 1_556
Na4 O81 2.681113 1_545
Na4 O109 2.702265 1_555
Na4 O7 2.899587 1_555
Na4 O51 2.949980 1_555
Na4 O71 3.035146 1_555
Na5 O42 2.317577 1_555
Na5 O72 2.423464 1_545
Na5 O116 2.630864 1_555
Na5 O114 2.652508 1_555
Na5 O76 2.694648 1_555
Na5 O58 2.768967 1_545
Na6 O86 2.370318 1_565
Na6 O89 2.508137 1_455
Na6 O85 2.553071 1_465
Na6 O72 2.732530 1_555
Na6 O76 2.789516 1_565
Na6 O75 2.914961 1_455
Na7 O87 2.550473 1_565
Na7 O73 2.663213 1_555
Na7 O77 2.690706 1_565
Na7 O88 2.724907 1_555
Na7 O84 2.824564 1_565
Na7 O74 2.886553 1_555
Na8 O80 2.438853 1_545
Na8 O78 2.502216 1_555
Na8 O83 2.688333 1_445
Na8 O94 2.771507 1_556
Na8 O93 2.932731 1_446
Na8 O91 3.039153 1_546
Na9 O79 2.489127 1_554
Na9 O95 2.533048 1_555
Na9 O81 2.642638 1_544
Na9 O92 2.663706 1_555
Na9 O90 2.711699 1_545
Na9 O82 2.796710 1_544
Na10 O112 2.704493 1_555
Na10 O110 2.792500 1_555
Na10 O108 2.849783 1_555
Na10 O98 2.896053 1_555
Na10 O96 2.918644 1_555
Na10 O100 2.997935 1_555
Na11 O101 2.366036 1_555
Na11 O97 2.387807 1_555
Na11 O99 2.420394 1_555
Na12 O104 2.376428 1_555
Na12 O102 2.425381 1_555
Na12 O118 2.837984 1_555
Na12 O106 2.913938 1_555
Na12 O116 2.958324 1_555
Na12 O114 3.038988 1_555
Na13 O117 2.530831 1_555
Na13 O119 2.690348 1_555
Na13 O115 2.730834 1_555
Na13 O107 2.947322 1_555
Na13 O103 3.041173 1_555
Na14 O134 2.472876 1_555
Na14 O120 2.689144 1_555
Na14 O136 2.741329 1_555
Na14 O124 2.837650 1_555
Na14 O132 2.980377 1_555
Na15 O121 2.507621 1_555
Na15 O125 2.628575 1_555
Na15 O135 2.693731 1_555
Na15 O137 2.716156 1_555
Na16 O142 2.567866 1_555
Na16 O126 2.590834 1_555
Na16 O140 2.614959 1_555
Na16 O128 2.730509 1_555
Na17 O143 2.386061 1_555
Na17 O139 2.506404 1_555
Na17 O141 2.642762 1_555
La0 O72 2.234532 1_655
La0 O3 2.348670 1_555
La0 O75 2.390780 1_555
La0 O0 2.416586 1_665
La0 O76 2.427991 1_665
La0 O5 2.485295 1_565
La1 O7 2.174846 1_555
La1 O79 2.322193 1_555
La1 O10 2.379523 1_555
La1 O8 2.470224 1_545
La1 O81 2.503514 1_545
La1 O82 2.544376 1_545
La2 O28 2.166154 1_555
La2 O26 2.185622 1_555
La2 O98 2.488006 1_555
La2 O100 2.543338 1_555
La2 O96 2.556535 1_555
La2 O24 2.592426 1_555
La3 O99 2.237167 1_555
La3 O27 2.256936 1_555
La3 O97 2.365960 1_555
La3 O101 2.468178 1_555
La3 O29 2.582885 1_555
La3 O25 2.589534 1_555
La4 O34 2.234151 1_555
La4 O102 2.338677 1_555
La4 O104 2.429034 1_555
La4 O30 2.449428 1_555
La4 O106 2.475416 1_555
La4 O32 2.558692 1_555
La5 O33 2.166165 1_555
La5 O35 2.167571 1_555
La5 O107 2.483999 1_555
La5 O103 2.572726 1_555
La5 O31 2.600944 1_555
La5 O105 2.602113 1_555
La6 O41 2.176845 1_556
La6 O37 2.265728 1_556
La6 O113 2.456624 1_555
La6 O39 2.494357 1_556
La6 O111 2.507439 1_555
La6 O109 2.532821 1_555
La7 O44 2.152315 1_555
La7 O42 2.291684 1_555
La7 O46 2.428547 1_555
La7 O116 2.494442 1_555
La7 O118 2.540858 1_555
La7 O114 2.606029 1_555
La8 O134 2.274385 1_555
La8 O64 2.351503 1_555
La8 O60 2.354312 1_555
La8 O62 2.358423 1_555
La8 O136 2.535921 1_555
La8 O132 2.548624 1_555
La9 O65 2.145553 1_555
La9 O137 2.280977 1_555
La9 O61 2.445692 1_555
La9 O135 2.507515 1_555
La9 O63 2.546328 1_555
La9 O133 2.639741 1_555
La10 O68 2.151770 1_555
La10 O140 2.272883 1_555
La10 O66 2.459339 1_555
La10 O142 2.462480 1_555
La10 O70 2.539440 1_555
La10 O138 2.638753 1_555
La11 O143 2.299433 1_555
La11 O139 2.323851 1_555
La11 O67 2.381781 1_555
La11 O71 2.397196 1_555
La11 O69 2.458351 1_555
La11 O141 2.519363 1_555
O0 S0 1.484555 1_545
O1 S1 1.491711 1_555
O1 Zr0 2.175360 1_555
O2 Si0 1.663710 1_555
O2 Zr0 2.026324 1_565
O3 S2 1.491011 1_555
O4 Si1 1.661509 1_555
O4 Zr0 1.955541 1_555
O5 S3 1.473892 1_555
O6 S4 1.490234 1_555
O6 Zr1 2.169598 1_445
O7 Si2 1.648705 1_555
O8 S5 1.469444 1_555
O9 Si3 1.665749 1_555
O9 Zr1 1.943556 1_455
O10 S6 1.486230 1_555
O11 Si4 1.673915 1_555
O11 Zr1 1.991756 1_545
O12 S6 1.477146 1_555
O12 Zr3 2.339112 1_555
O13 Si4 1.662475 1_565
O13 Zr2 1.980570 1_555
O14 S4 1.492625 1_555
O14 Zr2 2.234026 1_445
O15 Si2 1.660831 1_555
O15 Zr3 1.997243 1_555
O16 Si3 1.655392 1_555
O16 Zr2 1.939223 1_455
O17 S5 1.494575 1_555
O17 Zr3 2.167285 1_565
O18 Si0 1.653989 1_555
O18 Zr5 2.008175 1_565
O19 S2 1.483575 1_555
O19 Zr4 2.288313 1_665
O20 S3 1.501513 1_455
O20 Zr4 2.164103 1_555
O21 Si1 1.651617 1_555
O21 Zr5 1.951306 1_555
O22 S0 1.490455 1_555
O22 Zr4 2.247833 1_565
O23 S1 1.495085 1_565
O23 Zr5 2.256142 1_565
O24 S7 1.476015 1_555
O25 S8 1.478708 1_555
O26 Si5 1.622061 1_555
O27 Si6 1.602023 1_555
O28 Si7 1.626982 1_555
O29 S9 1.457711 1_555
O30 S10 1.491886 1_555
O31 S11 1.472783 1_555
O32 S12 1.465547 1_555
O33 Si8 1.620536 1_555
O34 Si9 1.617759 1_555
O35 Si10 1.629163 1_555
O36 Si9 1.633574 1_555
O36 Zr6 2.031441 1_554
O37 Si10 1.633663 1_555
O38 S10 1.479202 1_555
O38 Zr6 2.361409 1_554
O39 S11 1.474280 1_555
O40 S12 1.487329 1_555
O40 Zr6 2.207442 1_554
O41 Si8 1.619794 1_555
O42 Si5 1.638818 1_555
O43 Si6 1.649608 1_555
O43 Zr7 1.992880 1_555
O44 Si7 1.635212 1_555
O45 S9 1.494994 1_555
O45 Zr7 2.172849 1_555
O46 S7 1.476021 1_555
O47 S8 1.485842 1_555
O47 Zr7 2.315238 1_555
O48 S13 1.497546 1_555
O48 Zr8 2.116163 1_556
O49 S14 1.487700 1_555
O49 Zr9 2.257966 1_556
O50 S15 1.516339 1_555
O50 Zr8 2.141135 1_556
O51 Si11 1.659998 1_555
O51 Zr9 1.995872 1_556
O52 Si12 1.661033 1_555
O52 Zr8 2.000795 1_556
O53 S16 1.481394 1_555
O53 Zr9 2.270584 1_556
O54 S17 1.479556 1_555
O54 Zr10 2.313106 1_555
O55 S18 1.483845 1_555
O55 Zr11 2.164516 1_555
O56 S19 1.467181 1_555
O56 Zr10 2.350045 1_555
O57 Si13 1.649935 1_555
O57 Zr11 2.020249 1_555
O58 Si14 1.650804 1_555
O58 Zr10 2.041862 1_555
O59 S20 1.502184 1_555
O59 Zr11 2.194797 1_555
O60 Si14 1.652117 1_555
O61 S20 1.490811 1_555
O62 S17 1.483646 1_555
O63 S18 1.476124 1_555
O64 S19 1.479202 1_555
O65 Si13 1.630532 1_555
O66 S15 1.479923 1_555
O67 Si11 1.634476 1_555
O68 Si12 1.621466 1_555
O69 S16 1.469666 1_555
O70 S13 1.473792 1_555
O71 S14 1.472348 1_555
O72 Si14 1.675647 1_555
O73 S20 1.485914 1_555
O73 Zr0 2.443012 1_565
O74 S17 1.495977 1_555
O74 Zr0 2.233818 1_565
O75 S18 1.482797 1_555
O76 S19 1.496368 1_555
O77 Si13 1.643908 1_555
O77 Zr0 2.102883 1_555
O78 S15 1.484276 1_555
O78 Zr1 2.482091 1_445
O79 Si11 1.658809 1_555
O80 Si12 1.638882 1_555
O80 Zr1 2.142429 1_455
O81 S16 1.495241 1_555
O82 S13 1.466302 1_555
O83 S14 1.497476 1_555
O83 Zr1 2.258211 1_555
O84 S7 1.481645 1_555
O84 Zr3 2.211214 1_555
O85 S8 1.485819 1_555
O85 Zr2 2.480117 1_545
O86 Si5 1.641438 1_555
O86 Zr2 2.064577 1_445
O87 Si6 1.665952 1_555
O87 Zr3 2.009143 1_555
O88 Si7 1.637955 1_555
O88 Zr3 2.037306 1_565
O89 S9 1.496657 1_555
O89 Zr2 2.326655 1_555
O90 S10 1.483952 1_555
O90 Zr5 2.434784 1_565
O91 S11 1.493112 1_455
O91 Zr4 2.147770 1_565
O92 S12 1.496753 1_555
O92 Zr5 2.284868 1_555
O93 Si8 1.669479 1_565
O93 Zr4 1.934697 1_665
O94 Si9 1.678468 1_555
O94 Zr4 1.970619 1_555
O95 Si10 1.646658 1_555
O95 Zr5 2.039346 1_555
O96 S6 1.492749 1_555
O97 Si4 1.630015 1_555
O98 S4 1.478274 1_555
O99 Si2 1.613681 1_555
O100 S5 1.487990 1_555
O101 Si3 1.604339 1_655
O102 Si0 1.645399 1_555
O103 S2 1.483775 1_555
O104 Si1 1.622101 1_555
O105 S3 1.476854 1_555
O106 S0 1.462902 1_545
O107 S1 1.472016 1_555
O108 S13 1.490383 1_555
O108 Zr6 2.182905 1_555
O109 S14 1.479215 1_555
O110 Si11 1.655488 1_555
O110 Zr6 2.041696 1_555
O111 S15 1.471434 1_655
O112 Si12 1.653467 1_545
O112 Zr6 1.974784 1_555
O113 S16 1.497275 1_545
O114 S17 1.480845 1_545
O115 S18 1.482446 1_545
O115 Zr7 2.219094 1_555
O116 S19 1.494222 1_555
O117 Si13 1.654368 1_555
O117 Zr7 1.993359 1_555
O118 S20 1.476534 1_555
O119 Si14 1.644210 1_655
O119 Zr7 2.098079 1_555
O120 Si9 1.647504 1_555
O120 Zr8 2.037241 1_555
O121 Si10 1.650470 1_555
O121 Zr9 1.992647 1_555
O122 S11 1.495812 1_455
O122 Zr8 2.194180 1_555
O123 S10 1.495552 1_555
O123 Zr9 2.170921 1_555
O124 S12 1.498215 1_565
O124 Zr8 2.228073 1_555
O125 Si8 1.623694 1_565
O125 Zr9 2.047149 1_555
O126 Si5 1.655773 1_565
O126 Zr10 1.975014 1_555
O127 Si6 1.650810 1_565
O127 Zr11 1.990147 1_555
O128 Si7 1.643699 1_555
O128 Zr10 2.008253 1_555
O129 S9 1.497189 1_555
O129 Zr11 2.193595 1_555
O130 S8 1.504434 1_455
O130 Zr10 2.129634 1_555
O131 S7 1.498366 1_555
O131 Zr11 2.142618 1_555
O132 S0 1.497769 1_555
O133 S1 1.486074 1_565
O134 Si0 1.637729 1_555
O135 S2 1.477378 1_555
O136 S3 1.494036 1_455
O137 Si1 1.648739 1_555
O138 S4 1.482438 1_555
O139 Si2 1.648495 1_555
O140 Si3 1.649185 1_555
O141 S5 1.487745 1_555
O142 S6 1.481526 1_565
O143 Si4 1.621097 1_565
