# generated using pymatgen
data_Ba2EuMgNbO6
_symmetry_space_group_name_H-M   'P 1'
_cell_length_a   6.00194612
_cell_length_b   6.76270611
_cell_length_c   8.91973856
_cell_angle_alpha   137.50694404
_cell_angle_beta   132.61372835
_cell_angle_gamma   63.56513733
_symmetry_Int_Tables_number   1
_chemical_formula_structural   Ba2EuMgNbO6
_chemical_formula_sum   'Ba2 Eu1 Mg1 Nb1 O6'
_cell_volume   178.91540129
_cell_formula_units_Z   1
loop_
 _symmetry_equiv_pos_site_id
 _symmetry_equiv_pos_as_xyz
  1  'x, y, z'
loop_
 _atom_site_type_symbol
 _atom_site_label
 _atom_site_symmetry_multiplicity
 _atom_site_fract_x
 _atom_site_fract_y
 _atom_site_fract_z
 _atom_site_occupancy
  Ba  Ba0  1  0.72182357  0.29156179  0.64217362  1
  Ba  Ba1  1  0.25240808  0.76514595  0.40848442  1
  Eu  Eu0  1  0.13414444  0.87584318  0.84620046  1
  Mg  Mg0  1  0.84658976  0.11478459  0.18441256  1
  Nb  Nb0  1  0.49520608  0.51787952  0.02815555  1
  O  O0  1  0.66275367  0.78840149  0.07047775  1
  O  O1  1  0.17822225  0.82802941  0.11207460  1
  O  O2  1  0.77494730  0.20442494  0.93587699  1
  O  O3  1  0.37346109  0.25737944  0.00972824  1
  O  O4  1  0.14137470  0.32926542  0.60685976  1
  O  O5  1  0.81490207  0.73561727  0.42118106  1
loop_
_geom_bond_atom_site_label_1
_geom_bond_atom_site_label_2
_geom_bond_distance
_geom_bond_site_symmetry_2
Ba0 O5 2.650432 1_545
Ba0 O0 2.802460 1_556
Ba0 O4 2.875647 1_655
Ba0 O2 2.879288 1_555
Ba0 O3 3.008035 1_656
Ba0 O1 3.018291 1_656
Ba0 O1 3.030976 1_545
Ba0 O4 3.184782 1_555
Ba0 O0 3.277944 1_545
Ba1 O1 2.695316 1_555
Ba1 O0 2.719355 1_455
Ba1 O4 2.739939 1_565
Ba1 O5 2.801947 1_455
Ba1 O3 2.869932 1_555
Ba1 O2 2.915360 1_565
Ba1 O2 3.178908 1_454
Ba1 O5 3.219602 1_555
Ba1 O3 3.304565 1_566
Eu0 O5 2.328665 1_455
Eu0 O2 2.382001 1_465
Eu0 O3 2.400174 1_566
Eu0 O0 2.428433 1_556
Eu0 O1 2.450272 1_556
Eu0 O4 2.562780 1_555
Mg0 O0 2.112844 1_545
Mg0 O1 2.143808 1_645
Mg0 O4 2.151765 1_655
Mg0 O3 2.282071 1_555
Mg0 O2 2.434316 1_554
Nb0 O5 1.983479 1_555
Nb0 O2 2.029630 1_554
Nb0 O3 2.054499 1_555
Nb0 O0 2.146202 1_555
Nb0 O1 2.153906 1_555
Nb0 O4 2.189783 1_554
