# generated using pymatgen
data_DyAsS
_symmetry_space_group_name_H-M   'P 1'
_cell_length_a   3.83366800
_cell_length_b   3.85172600
_cell_length_c   8.51607000
_cell_angle_alpha   90.00000000
_cell_angle_beta   90.00000000
_cell_angle_gamma   90.00000000
_symmetry_Int_Tables_number   1
_chemical_formula_structural   DyAsS
_chemical_formula_sum   'Dy2 As2 S2'
_cell_volume   125.75032250
_cell_formula_units_Z   2
loop_
 _symmetry_equiv_pos_site_id
 _symmetry_equiv_pos_as_xyz
  1  'x, y, z'
loop_
 _atom_site_type_symbol
 _atom_site_label
 _atom_site_symmetry_multiplicity
 _atom_site_fract_x
 _atom_site_fract_y
 _atom_site_fract_z
 _atom_site_occupancy
  Dy  Dy0  1  0.25000000  0.75000000  0.29134600  1
  Dy  Dy1  1  0.75000000  0.25000000  0.70865400  1
  As  As0  1  0.75000000  0.75000000  0.99655000  1
  As  As1  1  0.25000000  0.25000000  0.00345000  1
  S  S0  1  0.25000000  0.75000000  0.62628200  1
  S  S1  1  0.75000000  0.25000000  0.37371800  1
loop_
_geom_bond_atom_site_label_1
_geom_bond_atom_site_label_2
_geom_bond_distance
_geom_bond_site_symmetry_2
Dy0 S1 2.806293 1_565
Dy0 S1 2.806293 1_455
Dy0 S1 2.806293 1_465
Dy0 S1 2.806293 1_555
Dy0 S0 2.852338 1_555
Dy1 S0 2.806293 1_655
Dy1 S0 2.806293 1_645
Dy1 S0 2.806293 1_555
Dy1 S0 2.806293 1_545
Dy1 S1 2.852338 1_555
As0 As1 2.717840 1_666
As0 As1 2.717840 1_556
As0 As1 2.717840 1_656
As0 As1 2.717840 1_566
As0 Dy1 3.117690 1_555
As0 Dy1 3.117690 1_565
As0 Dy0 3.158620 1_656
As0 Dy0 3.158620 1_556
As1 Dy0 3.117690 1_555
As1 Dy0 3.117690 1_545
As1 Dy1 3.158620 1_454
As1 Dy1 3.158620 1_554
