# generated using pymatgen
data_Na8Ca3TiSi3(SO8)3
_symmetry_space_group_name_H-M   'P 1'
_cell_length_a   9.41687443
_cell_length_b   9.42008305
_cell_length_c   22.78093124
_cell_angle_alpha   90.20829103
_cell_angle_beta   89.57646401
_cell_angle_gamma   119.91173935
_symmetry_Int_Tables_number   1
_chemical_formula_structural   Na8Ca3TiSi3(SO8)3
_chemical_formula_sum   'Na24 Ca9 Ti3 Si9 S9 O72'
_cell_volume   1751.60958360
_cell_formula_units_Z   3
loop_
 _symmetry_equiv_pos_site_id
 _symmetry_equiv_pos_as_xyz
  1  'x, y, z'
loop_
 _atom_site_type_symbol
 _atom_site_label
 _atom_site_symmetry_multiplicity
 _atom_site_fract_x
 _atom_site_fract_y
 _atom_site_fract_z
 _atom_site_occupancy
  Na  Na0  1  0.63053141  0.99729560  0.26321125  1
  Na  Na1  1  0.37000621  0.36814398  0.24157369  1
  Na  Na2  1  0.99937662  0.62437614  0.25417556  1
  Na  Na3  1  0.63466199  0.65250163  0.73294607  1
  Na  Na4  1  0.98117367  0.33853665  0.75411204  1
  Na  Na5  1  0.37759471  0.01022706  0.73721580  1
  Na  Na6  1  0.32070230  0.33643550  0.58258425  1
  Na  Na7  1  0.04705993  0.72023843  0.56722959  1
  Na  Na8  1  0.64712689  0.94188539  0.57938469  1
  Na  Na9  1  0.28205505  0.95320710  0.06974831  1
  Na  Na10  1  0.66088952  0.67980087  0.08244708  1
  Na  Na11  1  0.05887181  0.35509437  0.07284160  1
  Na  Na12  1  0.99391893  0.67812456  0.92139627  1
  Na  Na13  1  0.71215312  0.05225322  0.90664477  1
  Na  Na14  1  0.30915395  0.29022469  0.92094907  1
  Na  Na15  1  0.96029517  0.31369639  0.42012680  1
  Na  Na16  1  0.32920754  0.00030203  0.42778754  1
  Na  Na17  1  0.70616535  0.68832964  0.43245948  1
  Na  Na18  1  0.99131980  0.97959371  0.49971441  1
  Na  Na19  1  0.02327547  0.01268278  0.99772757  1
  Na  Na20  1  0.66658834  0.30957168  0.83596568  1
  Na  Na21  1  0.68163422  0.33245551  0.34774829  1
  Na  Na22  1  0.31351283  0.64892682  0.15520247  1
  Na  Na23  1  0.36203333  0.69116768  0.65514674  1
  Ca  Ca0  1  0.99643544  0.99600324  0.35215400  1
  Ca  Ca1  1  0.99839054  0.00420427  0.84856482  1
  Ca  Ca2  1  0.98293853  0.98579769  0.64660134  1
  Ca  Ca3  1  0.00645893  0.99793683  0.14182123  1
  Ca  Ca4  1  0.66245129  0.32824367  0.68125642  1
  Ca  Ca5  1  0.66847076  0.33734592  0.17968133  1
  Ca  Ca6  1  0.32998571  0.66605238  0.01344299  1
  Ca  Ca7  1  0.33938310  0.67438819  0.51305370  1
  Ca  Ca8  1  0.32873606  0.67813474  0.32987148  1
  Ti  Ti0  1  0.67069547  0.34067486  0.98409695  1
  Ti  Ti1  1  0.65946281  0.33093096  0.48728232  1
  Ti  Ti2  1  0.32875461  0.68847430  0.82320939  1
  Si  Si0  1  0.68147457  0.98867570  0.75521187  1
  Si  Si1  1  0.36512072  0.03577507  0.58479785  1
  Si  Si2  1  0.66473342  0.62635852  0.58487248  1
  Si  Si3  1  0.96291718  0.62956051  0.08357676  1
  Si  Si4  1  0.37384285  0.33500965  0.08315597  1
  Si  Si5  1  0.03058752  0.37399631  0.91838425  1
  Si  Si6  1  0.34266377  0.98137227  0.92182958  1
  Si  Si7  1  0.64538411  0.98894220  0.41696721  1
  Si  Si8  1  0.01048440  0.65416742  0.41751148  1
  S  S0  1  0.30316796  0.99590289  0.24888130  1
  S  S1  1  0.69176749  0.69638076  0.24938466  1
  S  S2  1  0.00405688  0.30287567  0.24831203  1
  S  S3  1  0.30350031  0.31547095  0.75230575  1
  S  S4  1  0.01288086  0.69651450  0.75399607  1
  S  S5  1  0.95930680  0.33109629  0.58147207  1
  S  S6  1  0.67092465  0.04429471  0.08047414  1
  S  S7  1  0.62714299  0.65632435  0.91620573  1
  S  S8  1  0.34364990  0.36152382  0.41631130  1
  O  O0  1  0.22106928  0.01299654  0.30214538  1
  O  O1  1  0.79031007  0.78507824  0.30155250  1
  O  O2  1  0.99775063  0.20892065  0.30132042  1
  O  O3  1  0.22480361  0.21169166  0.80500139  1
  O  O4  1  0.98829035  0.77252343  0.80744646  1
  O  O5  1  0.79010106  0.01090104  0.81273441  1
  O  O6  1  0.75172334  0.94531831  0.69597141  1
  O  O7  1  0.20409313  0.23404400  0.69904386  1
  O  O8  1  0.03646386  0.79760730  0.70150029  1
  O  O9  1  0.77172519  0.79069651  0.19496904  1
  O  O10  1  0.01090187  0.21679116  0.19435972  1
  O  O11  1  0.20821605  0.98663639  0.19570283  1
  O  O12  1  0.89208326  0.35352443  0.63769982  1
  O  O13  1  0.45879933  0.11054755  0.64619927  1
  O  O14  1  0.65973985  0.54286997  0.64749075  1
  O  O15  1  0.88843494  0.53432478  0.14490034  1
  O  O16  1  0.64835667  0.11192504  0.13626001  1
  O  O17  1  0.45909574  0.34290303  0.14565401  1
  O  O18  1  0.49678737  0.32631260  0.02657125  1
  O  O19  1  0.83622463  0.50402118  0.02681931  1
  O  O20  1  0.68075639  0.14959129  0.02897121  1
  O  O21  1  0.49008635  0.16022328  0.52951757  1
  O  O22  1  0.66755978  0.50308274  0.53016846  1
  O  O23  1  0.85362131  0.32238882  0.53059454  1
  O  O24  1  0.56424015  0.68761005  0.97138361  1
  O  O25  1  0.13726711  0.44204908  0.97728445  1
  O  O26  1  0.31541457  0.87511897  0.97964778  1
  O  O27  1  0.56004666  0.85549946  0.46901857  1
  O  O28  1  0.31379688  0.43819622  0.46798231  1
  O  O29  1  0.13555221  0.68263058  0.47069663  1
  O  O30  1  0.07432558  0.61040529  0.35589121  1
  O  O31  1  0.53587137  0.92223186  0.35632729  1
  O  O32  1  0.36620565  0.46043782  0.36214552  1
  O  O33  1  0.14488842  0.50938787  0.86283556  1
  O  O34  1  0.35572613  0.86165073  0.86487907  1
  O  O35  1  0.51714985  0.64053334  0.86582105  1
  O  O36  1  0.99074482  0.81731708  0.41507072  1
  O  O37  1  0.83625732  0.03285501  0.41256738  1
  O  O38  1  0.20378792  0.19255151  0.41055763  1
  O  O39  1  0.00016255  0.18985676  0.90957782  1
  O  O40  1  0.18385911  0.00169850  0.91178936  1
  O  O41  1  0.79743906  0.79091962  0.90820786  1
  O  O42  1  0.96318466  0.17547438  0.58155447  1
  O  O43  1  0.19358561  0.04001136  0.57820276  1
  O  O44  1  0.83148001  0.80416719  0.57566657  1
  O  O45  1  0.95456242  0.79846829  0.07524462  1
  O  O46  1  0.82620260  0.03958468  0.08027021  1
  O  O47  1  0.19588977  0.16845465  0.07471871  1
  O  O48  1  0.66157972  0.15222999  0.75285741  1
  O  O49  1  0.47241495  0.34028641  0.74917827  1
  O  O50  1  0.87214207  0.52680864  0.74921492  1
  O  O51  1  0.67820146  0.53087155  0.24974910  1
  O  O52  1  0.85197368  0.31700895  0.24958117  1
  O  O53  1  0.47266546  0.14110974  0.24748610  1
  O  O54  1  0.62858002  0.49692515  0.91882551  1
  O  O55  1  0.85012175  0.37056206  0.92082441  1
  O  O56  1  0.51806774  0.15817895  0.92211933  1
  O  O57  1  0.65141009  0.16861311  0.42986828  1
  O  O58  1  0.49735499  0.35225401  0.42276652  1
  O  O59  1  0.82567383  0.48993130  0.43035821  1
  O  O60  1  0.36588911  0.50369426  0.07913095  1
  O  O61  1  0.14865827  0.66049308  0.07969309  1
  O  O62  1  0.53029374  0.87577851  0.07512295  1
  O  O63  1  0.33800309  0.85084433  0.57997879  1
  O  O64  1  0.49667615  0.63582517  0.58003058  1
  O  O65  1  0.12704152  0.47147754  0.57481244  1
  O  O66  1  0.31403472  0.84253381  0.25064237  1
  O  O67  1  0.52372545  0.67610117  0.25284944  1
  O  O68  1  0.15415440  0.46906049  0.24864231  1
  O  O69  1  0.31231014  0.47864249  0.75796848  1
  O  O70  1  0.16854941  0.68675461  0.75948704  1
  O  O71  1  0.49076595  0.81448437  0.76585143  1
loop_
_geom_bond_atom_site_label_1
_geom_bond_atom_site_label_2
_geom_bond_distance
_geom_bond_site_symmetry_2
Na0 O31 2.269075 1_555
Na0 O53 2.488701 1_565
Na0 O66 2.601219 1_555
Na0 O67 2.680544 1_555
Na0 O52 2.692400 1_565
Na1 O17 2.388151 1_555
Na1 O51 2.525153 1_555
Na1 O67 2.527658 1_555
Na1 O68 2.642447 1_555
Na1 O53 2.755484 1_555
Na1 O32 2.883393 1_555
Na2 O30 2.450265 1_655
Na2 O52 2.512528 1_555
Na2 O68 2.530537 1_655
Na2 O66 2.633303 1_655
Na2 O15 2.673452 1_555
Na2 O51 2.698216 1_555
Na3 O14 2.265830 1_555
Na3 O6 2.550258 1_555
Na3 O49 2.576645 1_555
Na3 O71 2.601007 1_555
Na3 O69 2.691602 1_555
Na4 O50 2.455870 1_555
Na4 O48 2.621374 1_555
Na4 O69 2.715124 1_655
Na4 O12 2.812564 1_555
Na4 O70 2.848890 1_655
Na4 O33 2.941865 1_655
Na4 O7 2.993698 1_655
Na4 O5 3.000424 1_555
Na5 O13 2.246569 1_555
Na5 O48 2.347522 1_555
Na5 O71 2.634426 1_545
Na5 O70 2.726114 1_545
Na5 O49 2.786973 1_555
Na5 O8 2.933071 1_545
Na6 O43 2.430257 1_555
Na6 O64 2.458067 1_555
Na6 O65 2.701026 1_555
Na6 O28 2.796777 1_555
Na6 O7 2.845008 1_555
Na6 O42 2.923012 1_455
Na7 O63 2.398286 1_555
Na7 O29 2.432631 1_555
Na7 O44 2.525300 1_455
Na7 O43 2.625752 1_565
Na7 O65 2.802411 1_555
Na8 O64 2.499198 1_555
Na8 O63 2.592134 1_555
Na8 O44 2.635755 1_555
Na8 O27 2.646913 1_555
Na8 O42 2.678121 1_565
Na8 O6 2.834006 1_555
Na9 O26 2.250067 1_554
Na9 O61 2.403813 1_555
Na9 O47 2.533851 1_565
Na9 O45 2.676471 1_455
Na9 O62 2.777927 1_555
Na9 O11 2.999700 1_555
Na10 O45 2.415756 1_555
Na10 O60 2.425069 1_555
Na10 O62 2.686638 1_555
Na10 O24 2.708779 1_554
Na10 O9 2.772022 1_555
Na10 O46 2.941191 1_565
Na11 O25 2.311034 1_554
Na11 O60 2.511399 1_555
Na11 O61 2.566797 1_555
Na11 O47 2.649833 1_555
Na11 O46 2.676997 1_455
Na11 O10 2.997610 1_555
Na12 O55 2.512999 1_555
Na12 O41 2.571735 1_555
Na12 O40 2.664522 1_665
Na12 O4 2.756447 1_555
Na12 O19 2.865274 1_556
Na12 O33 2.921929 1_655
Na12 O26 2.967939 1_655
Na12 O54 2.983042 1_555
Na13 O5 2.350173 1_555
Na13 O39 2.352933 1_655
Na13 O56 2.503418 1_555
Na13 O55 2.626242 1_555
Na14 O40 2.371517 1_555
Na14 O39 2.587123 1_555
Na14 O54 2.645544 1_555
Na14 O3 2.754261 1_555
Na14 O56 2.803546 1_555
Na14 O18 2.912916 1_556
Na14 O25 2.928691 1_555
Na15 O37 2.304496 1_555
Na15 O57 2.530958 1_555
Na15 O59 2.551333 1_555
Na15 O23 2.718827 1_555
Na15 O30 2.849526 1_655
Na15 O2 2.955923 1_555
Na16 O57 2.631703 1_555
Na16 O38 2.640821 1_555
Na16 O21 2.772324 1_555
Na16 O36 2.782896 1_445
Na16 O29 2.790777 1_545
Na16 O58 2.876923 1_555
Na16 O31 2.889688 1_545
Na17 O36 2.356947 1_555
Na17 O59 2.618765 1_555
Na17 O27 2.683539 1_555
Na17 O22 2.741449 1_555
Na17 O58 2.780417 1_555
Na17 O37 2.876863 1_565
Na18 O44 2.343462 1_555
Na18 O36 2.454688 1_555
Na18 O43 2.471988 1_665
Na18 O37 2.665721 1_565
Na18 O42 2.721438 1_565
Na18 O38 2.849436 1_665
Na19 O47 2.348677 1_556
Na19 O40 2.498209 1_555
Na19 O45 2.513147 1_446
Na19 O39 2.694185 1_555
Na19 O46 2.730959 1_456
Na19 O41 2.940751 1_445
Na20 O48 2.386373 1_555
Na20 O56 2.415052 1_555
Na20 O55 2.470882 1_555
Na20 O54 2.720633 1_555
Na20 O50 2.804004 1_555
Na20 O49 2.814483 1_555
Na21 O57 2.353277 1_555
Na21 O59 2.364899 1_555
Na21 O58 2.498684 1_555
Na21 O52 2.787972 1_555
Na21 O51 2.927515 1_555
Na21 O53 2.972757 1_555
Na22 O61 2.364402 1_555
Na22 O60 2.400269 1_555
Na22 O68 2.664036 1_555
Na22 O62 2.772088 1_555
Na22 O66 2.831223 1_555
Na22 O67 2.913428 1_555
Na23 O64 2.329878 1_555
Na23 O63 2.368534 1_555
Na23 O71 2.792616 1_555
Na23 O65 2.827352 1_555
Na23 O69 2.965967 1_555
Na23 O70 2.971968 1_555
Ca0 O37 2.185842 1_565
Ca0 O36 2.194758 1_555
Ca0 O1 2.283507 1_555
Ca0 O2 2.314289 1_565
Ca0 O38 2.329342 1_665
Ca0 O0 2.329416 1_665
Ca1 O5 2.159843 1_555
Ca1 O39 2.223572 1_655
Ca1 O3 2.275447 1_655
Ca1 O40 2.281227 1_655
Ca1 O4 2.330024 1_545
Ca1 O41 2.377765 1_545
Ca2 O44 2.270061 1_555
Ca2 O6 2.299992 1_555
Ca2 O43 2.360788 1_665
Ca2 O42 2.403701 1_565
Ca2 O8 2.424354 1_655
Ca2 O7 2.528314 1_665
Ca3 O45 2.268090 1_455
Ca3 O47 2.284488 1_565
Ca3 O11 2.316217 1_555
Ca3 O10 2.362486 1_565
Ca3 O46 2.388464 1_465
Ca3 O9 2.416000 1_455
Ca4 O13 2.146978 1_555
Ca4 O14 2.177864 1_555
Ca4 O12 2.274584 1_555
Ca4 O48 2.327175 1_555
Ca4 O49 2.402045 1_555
Ca4 O50 2.476930 1_555
Ca5 O15 2.124765 1_555
Ca5 O17 2.148697 1_555
Ca5 O16 2.260507 1_555
Ca5 O51 2.386234 1_555
Ca5 O53 2.404631 1_555
Ca5 O52 2.435470 1_555
Ca6 O25 2.148232 1_554
Ca6 O26 2.184556 1_554
Ca6 O61 2.251560 1_555
Ca6 O60 2.287489 1_555
Ca6 O24 2.312764 1_554
Ca6 O62 2.395394 1_555
Ca7 O27 2.163536 1_555
Ca7 O29 2.190428 1_555
Ca7 O63 2.256205 1_555
Ca7 O64 2.286498 1_555
Ca7 O28 2.348424 1_555
Ca7 O65 2.407791 1_555
Ca8 O30 2.226062 1_555
Ca8 O31 2.233689 1_555
Ca8 O32 2.367908 1_555
Ca8 O66 2.431675 1_555
Ca8 O67 2.537303 1_555
Ca8 O68 2.606761 1_555
O0 S0 1.484875 1_545
O1 S1 1.485737 1_555
O2 S2 1.483040 1_655
O3 S3 1.489577 1_555
O4 S4 1.484526 1_655
O5 Si0 1.616053 1_545
O6 Si0 1.636454 1_555
O7 S3 1.493583 1_555
O8 S4 1.476420 1_555
O9 S1 1.489976 1_555
O10 S2 1.488661 1_555
O11 S0 1.487330 1_555
O12 S5 1.485113 1_555
O13 Si1 1.619352 1_555
O14 Si2 1.620474 1_555
O15 Si3 1.617247 1_555
O16 S6 1.480291 1_555
O17 Si4 1.622880 1_555
O18 Si4 1.755143 1_555
O18 Ti0 1.842031 1_554
O19 Si3 1.760190 1_555
O19 Ti0 1.834148 1_554
O20 S6 1.511392 1_555
O20 Ti0 2.116366 1_554
O21 Si1 1.719888 1_555
O21 Ti1 1.867140 1_555
O22 Si2 1.709415 1_555
O22 Ti1 1.859149 1_555
O23 S5 1.508482 1_555
O23 Ti1 2.120599 1_555
O24 S7 1.475871 1_555
O25 Si5 1.609962 1_555
O26 Si6 1.597186 1_555
O27 Si7 1.619040 1_555
O28 S8 1.475708 1_555
O29 Si8 1.621964 1_555
O30 Si8 1.653003 1_555
O31 Si7 1.653842 1_555
O32 S8 1.497682 1_555
O33 Si5 1.734656 1_555
O33 Ti2 1.932254 1_555
O34 Si6 1.759432 1_555
O34 Ti2 1.790520 1_555
O35 S7 1.508353 1_555
O35 Ti2 2.263048 1_555
O36 Si8 1.638704 1_655
O37 Si7 1.633404 1_545
O38 S8 1.481779 1_555
O39 Si5 1.622921 1_555
O40 Si6 1.617492 1_545
O41 S7 1.477157 1_555
O42 S5 1.484527 1_555
O43 Si1 1.643581 1_555
O44 Si2 1.640047 1_555
O45 Si3 1.643522 1_555
O46 S6 1.484829 1_555
O47 Si4 1.639251 1_555
O48 Si0 1.643271 1_545
O49 S3 1.489122 1_555
O50 S4 1.487214 1_655
O51 S1 1.499550 1_555
O52 S2 1.503041 1_655
O53 S0 1.497266 1_545
O54 S7 1.509747 1_555
O54 Ti0 2.267504 1_555
O55 Si5 1.684032 1_655
O55 Ti0 2.122334 1_555
O56 Si6 1.660938 1_545
O56 Ti0 2.136055 1_555
O57 Si7 1.689688 1_545
O57 Ti1 1.981349 1_555
O58 S8 1.501191 1_555
O58 Ti1 2.207245 1_555
O59 Si8 1.678821 1_655
O59 Ti1 2.005217 1_555
O60 Si4 1.630605 1_555
O61 Si3 1.625325 1_455
O62 S6 1.480858 1_565
O63 Si1 1.633217 1_565
O64 Si2 1.633421 1_555
O65 S5 1.476960 1_455
O66 S0 1.499104 1_555
O67 S1 1.497859 1_555
O68 S2 1.497286 1_555
O69 S3 1.502567 1_555
O69 Ti2 2.411796 1_555
O70 S4 1.519936 1_555
O70 Ti2 2.095559 1_555
O71 Si0 1.741821 1_555
O71 Ti2 1.902539 1_555
