# generated using pymatgen
data_NaNb3ZnSi3(SO8)3
_symmetry_space_group_name_H-M   'P 1'
_cell_length_a   8.88501938
_cell_length_b   8.86854480
_cell_length_c   22.98327285
_cell_angle_alpha   90.29646364
_cell_angle_beta   89.73876382
_cell_angle_gamma   119.99273334
_symmetry_Int_Tables_number   1
_chemical_formula_structural   NaNb3ZnSi3(SO8)3
_chemical_formula_sum   'Na3 Nb9 Zn3 Si9 S9 O72'
_cell_volume   1568.47681699
_cell_formula_units_Z   3
loop_
 _symmetry_equiv_pos_site_id
 _symmetry_equiv_pos_as_xyz
  1  'x, y, z'
loop_
 _atom_site_type_symbol
 _atom_site_label
 _atom_site_symmetry_multiplicity
 _atom_site_fract_x
 _atom_site_fract_y
 _atom_site_fract_z
 _atom_site_occupancy
  Na  Na0  1  0.99678750  0.99954552  0.99040792  1
  Na  Na1  1  0.68224577  0.33859232  0.84279079  1
  Na  Na2  1  0.65751727  0.33267192  0.33964976  1
  Nb  Nb0  1  0.00957853  0.01006620  0.35534014  1
  Nb  Nb1  1  0.99664923  0.98556208  0.64769850  1
  Nb  Nb2  1  0.00103284  0.99180884  0.14818212  1
  Nb  Nb3  1  0.66388785  0.31800339  0.68956711  1
  Nb  Nb4  1  0.67892714  0.34114402  0.19009668  1
  Nb  Nb5  1  0.31733291  0.65183195  0.02059753  1
  Nb  Nb6  1  0.32894886  0.66331712  0.52294575  1
  Nb  Nb7  1  0.33511077  0.65657705  0.30616079  1
  Nb  Nb8  1  0.32170880  0.66690674  0.80956865  1
  Zn  Zn0  1  0.98140819  0.99982360  0.85339899  1
  Zn  Zn1  1  0.69580015  0.35109933  0.97750419  1
  Zn  Zn2  1  0.64028254  0.32774423  0.47853829  1
  Si  Si0  1  0.28993457  0.00177042  0.25084202  1
  Si  Si1  1  0.72052274  0.71674802  0.25214676  1
  Si  Si2  1  0.99693151  0.27998463  0.24941689  1
  Si  Si3  1  0.99004618  0.71177725  0.75483905  1
  Si  Si4  1  0.71567234  0.99431037  0.75355375  1
  Si  Si5  1  0.37821380  0.05016325  0.58016582  1
  Si  Si6  1  0.95061796  0.62273049  0.08018518  1
  Si  Si7  1  0.03435493  0.35962578  0.91356833  1
  Si  Si8  1  0.34181990  0.38118552  0.41629077  1
  S  S0  1  0.28948408  0.28813957  0.75029416  1
  S  S1  1  0.95193689  0.33041822  0.58166164  1
  S  S2  1  0.66720525  0.62194553  0.58187828  1
  S  S3  1  0.66808341  0.04457361  0.08208445  1
  S  S4  1  0.38027929  0.33105427  0.08132664  1
  S  S5  1  0.61609135  0.66311608  0.91704735  1
  S  S6  1  0.33487839  0.95493508  0.91784539  1
  S  S7  1  0.61956917  0.95180018  0.41598896  1
  S  S8  1  0.04564723  0.66434620  0.41679931  1
  O  O0  1  0.19812595  0.03689074  0.30781610  1
  O  O1  1  0.83922138  0.80203961  0.30894136  1
  O  O2  1  0.96427282  0.16056035  0.30739993  1
  O  O3  1  0.22672160  0.18368171  0.80210327  1
  O  O4  1  0.96120045  0.79610529  0.81073952  1
  O  O5  1  0.83572330  0.05918254  0.80857395  1
  O  O6  1  0.80894361  0.97642957  0.69334243  1
  O  O7  1  0.18187770  0.20775965  0.69730811  1
  O  O8  1  0.02497151  0.83080344  0.69426405  1
  O  O9  1  0.80631469  0.83302620  0.19374967  1
  O  O10  1  0.03015351  0.19702573  0.19194700  1
  O  O11  1  0.16619251  0.96825672  0.19406494  1
  O  O12  1  0.87488609  0.36603709  0.63468419  1
  O  O13  1  0.50152565  0.14143008  0.63845342  1
  O  O14  1  0.63566097  0.51559525  0.63423972  1
  O  O15  1  0.85996063  0.50128947  0.13958069  1
  O  O16  1  0.64069003  0.12584507  0.13575559  1
  O  O17  1  0.48487915  0.35602419  0.13469634  1
  O  O18  1  0.45131983  0.29730778  0.02927167  1
  O  O19  1  0.83086392  0.54684351  0.02555594  1
  O  O20  1  0.69748805  0.15011222  0.03055335  1
  O  O21  1  0.45811426  0.16259362  0.52427367  1
  O  O22  1  0.70476840  0.55459802  0.52968501  1
  O  O23  1  0.85077273  0.30469228  0.52977638  1
  O  O24  1  0.52546194  0.68144940  0.97071448  1
  O  O25  1  0.16224493  0.47888419  0.97237958  1
  O  O26  1  0.32138715  0.84384218  0.97027995  1
  O  O27  1  0.53125132  0.84363920  0.46928930  1
  O  O28  1  0.31316154  0.47968147  0.47386941  1
  O  O29  1  0.15720025  0.69314062  0.47038908  1
  O  O30  1  0.13334628  0.64501438  0.36511809  1
  O  O31  1  0.50971230  0.86799279  0.36432067  1
  O  O32  1  0.35093827  0.50331763  0.36082953  1
  O  O33  1  0.15192789  0.49641181  0.85993856  1
  O  O34  1  0.35748128  0.86855493  0.86388478  1
  O  O35  1  0.51291411  0.65411187  0.86455928  1
  O  O36  1  0.03286149  0.82441825  0.41137534  1
  O  O37  1  0.78831654  0.95557917  0.41066253  1
  O  O38  1  0.16005850  0.19268568  0.40775524  1
  O  O39  1  0.04245875  0.18367427  0.91535815  1
  O  O40  1  0.17369009  0.95816882  0.91514650  1
  O  O41  1  0.78774043  0.81898975  0.91681047  1
  O  O42  1  0.98226524  0.18465825  0.59349251  1
  O  O43  1  0.18605507  0.02311182  0.59766414  1
  O  O44  1  0.81858685  0.80193023  0.59198676  1
  O  O45  1  0.98659351  0.82262627  0.09208871  1
  O  O46  1  0.82537673  0.02525819  0.09124737  1
  O  O47  1  0.19898031  0.18266455  0.09064174  1
  O  O48  1  0.68167093  0.16204909  0.73782271  1
  O  O49  1  0.47107770  0.31802043  0.73851627  1
  O  O50  1  0.82808084  0.51939989  0.73558360  1
  O  O51  1  0.68970548  0.52090912  0.24078389  1
  O  O52  1  0.82491818  0.30045934  0.24191954  1
  O  O53  1  0.47756571  0.17105837  0.23805364  1
  O  O54  1  0.61774210  0.49871237  0.91964793  1
  O  O55  1  0.85360799  0.35856213  0.91619642  1
  O  O56  1  0.49195050  0.12445530  0.92287244  1
  O  O57  1  0.64689805  0.12777544  0.42123345  1
  O  O58  1  0.51369208  0.36720919  0.41581988  1
  O  O59  1  0.87642167  0.50845004  0.42419742  1
  O  O60  1  0.36558310  0.49342943  0.07555129  1
  O  O61  1  0.14916458  0.64792435  0.07267959  1
  O  O62  1  0.51408126  0.86749673  0.07602334  1
  O  O63  1  0.35242962  0.85155179  0.57039828  1
  O  O64  1  0.51057845  0.64540514  0.57414576  1
  O  O65  1  0.13066765  0.49383989  0.57525657  1
  O  O66  1  0.30704260  0.83369594  0.26569013  1
  O  O67  1  0.52944411  0.69747843  0.26039535  1
  O  O68  1  0.16164081  0.47330205  0.26076003  1
  O  O69  1  0.31116026  0.46491402  0.75585564  1
  O  O70  1  0.16388969  0.68825676  0.76050959  1
  O  O71  1  0.52115378  0.82505617  0.76179281  1
loop_
_geom_bond_atom_site_label_1
_geom_bond_atom_site_label_2
_geom_bond_distance
_geom_bond_site_symmetry_2
Na0 O39 2.273043 1_665
Na0 O41 2.429455 1_555
Na0 O40 2.478403 1_655
Na0 O45 2.797377 1_556
Na0 O46 2.837678 1_566
Na0 O47 2.872969 1_666
Na1 O55 2.224095 1_555
Na1 O54 2.498739 1_555
Na1 O56 2.578837 1_555
Na1 O48 2.867860 1_555
Na1 O50 2.873296 1_555
Na1 O49 2.998554 1_555
Na2 O58 2.270888 1_555
Na2 O57 2.586303 1_555
Na2 O59 2.638332 1_555
Na2 O51 2.754601 1_555
Na2 O52 2.779712 1_555
Na2 O53 2.787695 1_555
Nb0 O0 1.908831 1_555
Nb0 O38 1.921310 1_555
Nb0 O2 1.927118 1_455
Nb0 O1 2.008579 1_445
Nb0 O37 2.179179 1_445
Nb0 O36 2.185641 1_545
Nb1 O8 1.858866 1_655
Nb1 O43 1.921296 1_665
Nb1 O6 1.933491 1_555
Nb1 O44 2.053203 1_555
Nb1 O7 2.154807 1_665
Nb1 O42 2.221695 1_565
Nb2 O11 1.905757 1_555
Nb2 O9 1.906818 1_455
Nb2 O45 1.928412 1_455
Nb2 O10 1.975765 1_565
Nb2 O46 2.172929 1_465
Nb2 O47 2.175503 1_565
Nb3 O48 1.844964 1_555
Nb3 O13 1.910815 1_555
Nb3 O50 1.956111 1_555
Nb3 O49 2.045268 1_555
Nb3 O12 2.114880 1_555
Nb3 O14 2.283850 1_555
Nb4 O15 1.915308 1_555
Nb4 O52 1.928165 1_555
Nb4 O51 1.933159 1_555
Nb4 O53 1.998040 1_555
Nb4 O16 2.156773 1_555
Nb4 O17 2.204650 1_555
Nb5 O25 1.833770 1_554
Nb5 O61 1.897095 1_555
Nb5 O26 2.048677 1_554
Nb5 O24 2.073937 1_554
Nb5 O60 2.092336 1_555
Nb5 O62 2.233636 1_555
Nb6 O63 1.911750 1_555
Nb6 O28 1.923078 1_555
Nb6 O65 2.039676 1_555
Nb6 O29 2.069135 1_555
Nb6 O64 2.071184 1_555
Nb6 O27 2.106042 1_555
Nb7 O67 1.892218 1_555
Nb7 O68 1.897029 1_555
Nb7 O32 1.912134 1_555
Nb7 O66 1.950288 1_555
Nb7 O31 2.189474 1_555
Nb7 O30 2.203595 1_555
Nb8 O70 1.885604 1_555
Nb8 O33 1.903633 1_555
Nb8 O71 1.956123 1_555
Nb8 O34 2.066345 1_555
Nb8 O69 2.133573 1_555
Nb8 O35 2.170290 1_555
O0 Si0 1.648371 1_555
O1 Si1 1.610301 1_555
O2 Si2 1.638806 1_555
O3 S0 1.440802 1_555
O3 Zn0 2.289672 1_445
O4 Si3 1.566629 1_555
O4 Zn0 1.979040 1_555
O5 Si4 1.568138 1_545
O5 Zn0 1.926924 1_545
O6 Si4 1.656993 1_555
O7 S0 1.491815 1_555
O8 Si3 1.683031 1_455
O9 Si1 1.632466 1_555
O10 Si2 1.605169 1_455
O11 Si0 1.637779 1_565
O12 S1 1.502711 1_555
O13 Si5 1.663046 1_555
O14 S2 1.469956 1_555
O15 Si6 1.676342 1_555
O16 S3 1.504593 1_555
O17 S4 1.489687 1_555
O18 S4 1.448313 1_555
O18 Zn1 2.303899 1_554
O19 Si6 1.564929 1_555
O19 Zn1 1.892834 1_554
O20 S3 1.452986 1_555
O20 Zn1 2.171022 1_554
O21 Si5 1.563834 1_555
O21 Zn2 1.870875 1_555
O22 S2 1.447525 1_555
O22 Zn2 2.141711 1_555
O23 S1 1.443588 1_555
O23 Zn2 2.308917 1_555
O24 S5 1.521843 1_555
O25 Si7 1.741981 1_555
O26 S6 1.526518 1_555
O27 S7 1.512414 1_555
O28 Si8 1.669266 1_555
O29 S8 1.522966 1_555
O30 S8 1.473245 1_555
O31 S7 1.480354 1_555
O32 Si8 1.652322 1_555
O33 Si7 1.678959 1_555
O34 S6 1.518873 1_555
O35 S5 1.495977 1_555
O36 S8 1.485571 1_555
O37 S7 1.487351 1_555
O38 Si8 1.655761 1_555
O39 Si7 1.598391 1_555
O39 Zn0 2.019740 1_445
O40 S6 1.448326 1_555
O40 Zn0 2.393268 1_455
O41 S5 1.459154 1_555
O41 Zn0 2.213425 1_555
O42 S1 1.473137 1_555
O43 Si5 1.649094 1_555
O44 S2 1.504488 1_555
O45 Si6 1.658019 1_555
O46 S3 1.506405 1_555
O47 S4 1.500959 1_555
O48 Si4 1.700237 1_545
O49 S0 1.521857 1_555
O50 Si3 1.649514 1_555
O51 Si1 1.637124 1_555
O52 Si2 1.636666 1_555
O53 Si0 1.617840 1_555
O54 S5 1.466937 1_555
O54 Zn1 2.212942 1_555
O55 Si7 1.602110 1_655
O55 Zn1 1.961107 1_555
O56 S6 1.457131 1_545
O56 Zn1 2.291734 1_555
O57 S7 1.458956 1_545
O57 Zn2 2.227664 1_555
O58 Si8 1.592656 1_555
O58 Zn2 1.969520 1_555
O59 S8 1.457020 1_655
O59 Zn2 2.272734 1_555
O60 S4 1.516076 1_555
O61 Si6 1.671900 1_455
O62 S3 1.486275 1_565
O63 Si5 1.672822 1_565
O64 S2 1.517767 1_555
O65 S1 1.530699 1_455
O66 Si0 1.610479 1_565
O67 Si1 1.629352 1_555
O68 Si2 1.624613 1_455
O69 S0 1.485765 1_555
O70 Si3 1.664492 1_455
O71 Si4 1.637767 1_555
