# generated using pymatgen
data_Ce2InPd2
_symmetry_space_group_name_H-M   'P 1'
_cell_length_a   7.82403303
_cell_length_b   7.82403303
_cell_length_c   3.85443918
_cell_angle_alpha   90.00000000
_cell_angle_beta   90.00000000
_cell_angle_gamma   90.00240504
_symmetry_Int_Tables_number   1
_chemical_formula_structural   Ce2InPd2
_chemical_formula_sum   'Ce4 In2 Pd4'
_cell_volume   235.95139398
_cell_formula_units_Z   2
loop_
 _symmetry_equiv_pos_site_id
 _symmetry_equiv_pos_as_xyz
  1  'x, y, z'
loop_
 _atom_site_type_symbol
 _atom_site_label
 _atom_site_symmetry_multiplicity
 _atom_site_fract_x
 _atom_site_fract_y
 _atom_site_fract_z
 _atom_site_occupancy
  Ce  Ce0  1  0.32530595  0.82530595  0.50000000  1
  Ce  Ce1  1  0.82529064  0.67470936  0.50000000  1
  Ce  Ce2  1  0.17470936  0.32529064  0.50000000  1
  Ce  Ce3  1  0.67469405  0.17469405  0.50000000  1
  In  In0  1  -0.00000000  -0.00000000  -0.00000000  1
  In  In1  1  0.50000000  0.50000000  -0.00000000  1
  Pd  Pd0  1  0.37062597  0.12937403  -0.00000000  1
  Pd  Pd1  1  0.87060072  0.37060072  0.00000000  1
  Pd  Pd2  1  0.12939928  0.62939928  0.00000000  1
  Pd  Pd3  1  0.62937403  0.87062597  -0.00000000  1
loop_
_geom_bond_atom_site_label_1
_geom_bond_atom_site_label_2
_geom_bond_distance
_geom_bond_site_symmetry_2
Ce0 Pd2 2.900484 1_555
Ce0 Pd2 2.900484 1_556
Ce0 Pd0 3.082152 1_565
Ce0 Pd0 3.082152 1_566
Ce0 Pd3 3.082152 1_556
Ce0 Pd3 3.082152 1_555
Ce0 In0 3.472853 1_566
Ce0 In0 3.472853 1_565
Ce0 In1 3.472853 1_556
Ce0 In1 3.472853 1_555
Ce1 Pd3 2.900634 1_556
Ce1 Pd3 2.900634 1_555
Ce1 Pd2 3.082411 1_656
Ce1 Pd2 3.082411 1_655
Ce1 Pd1 3.082411 1_555
Ce1 Pd1 3.082411 1_556
Ce1 In1 3.472728 1_556
Ce1 In1 3.472728 1_555
Ce1 In0 3.472728 1_665
Ce1 In0 3.472728 1_666
Ce2 Pd0 2.900634 1_555
Ce2 Pd0 2.900634 1_556
Ce2 Pd2 3.082411 1_555
Ce2 Pd2 3.082411 1_556
Ce2 Pd1 3.082411 1_456
Ce2 Pd1 3.082411 1_455
Ce2 In1 3.472728 1_556
Ce2 In1 3.472728 1_555
Ce2 In0 3.472728 1_555
Ce2 In0 3.472728 1_556
Ce3 Pd1 2.900484 1_555
Ce3 Pd1 2.900484 1_556
Ce3 Pd0 3.082152 1_555
Ce3 Pd0 3.082152 1_556
Ce3 Pd3 3.082152 1_546
Ce3 Pd3 3.082152 1_545
Ce3 In0 3.472853 1_655
Ce3 In1 3.472853 1_555
Ce3 In1 3.472853 1_556
Ce3 In0 3.472853 1_656
In0 Pd1 3.071300 1_455
In0 Pd2 3.071300 1_545
In0 Pd3 3.071341 1_445
In0 Pd0 3.071341 1_555
In1 Pd1 3.071300 1_555
In1 Pd2 3.071300 1_555
In1 Pd0 3.071341 1_555
In1 Pd3 3.071341 1_555
Pd0 Pd3 2.863069 1_545
Pd1 Pd2 2.863508 1_655
