# generated using pymatgen
data_Na5Ca2Sn2P5SO24
_symmetry_space_group_name_H-M   'P 1'
_cell_length_a   9.13847303
_cell_length_b   9.13155182
_cell_length_c   22.92521269
_cell_angle_alpha   90.22382042
_cell_angle_beta   89.63895911
_cell_angle_gamma   120.00957225
_symmetry_Int_Tables_number   1
_chemical_formula_structural   Na5Ca2Sn2P5SO24
_chemical_formula_sum   'Na15 Ca6 Sn6 P15 S3 O72'
_cell_volume   1656.57667338
_cell_formula_units_Z   3
loop_
 _symmetry_equiv_pos_site_id
 _symmetry_equiv_pos_as_xyz
  1  'x, y, z'
loop_
 _atom_site_type_symbol
 _atom_site_label
 _atom_site_symmetry_multiplicity
 _atom_site_fract_x
 _atom_site_fract_y
 _atom_site_fract_z
 _atom_site_occupancy
  Na  Na0  1  0.64392784  0.00224877  0.25223319  1
  Na  Na1  1  0.37169062  0.37759945  0.24380829  1
  Na  Na2  1  0.98906968  0.61847932  0.25234433  1
  Na  Na3  1  0.64444477  0.63335984  0.74622043  1
  Na  Na4  1  0.98789976  0.35461319  0.74765213  1
  Na  Na5  1  0.36740365  0.01435367  0.74769953  1
  Na  Na6  1  0.30672852  0.96387624  0.07222300  1
  Na  Na7  1  0.03194110  0.34504985  0.07476671  1
  Na  Na8  1  0.70574766  0.67902212  0.42034661  1
  Na  Na9  1  0.00338926  0.00251023  0.50253851  1
  Na  Na10  1  0.00058316  0.00003551  0.98951503  1
  Na  Na11  1  0.66743225  0.32728765  0.83595910  1
  Na  Na12  1  0.68663120  0.32700762  0.33956977  1
  Na  Na13  1  0.34955909  0.66080717  0.15987738  1
  Na  Na14  1  0.33365323  0.66607932  0.66215858  1
  Ca  Ca0  1  0.99897158  0.00384779  0.35824427  1
  Ca  Ca1  1  0.00541028  0.00580160  0.85388319  1
  Ca  Ca2  1  0.66892236  0.33455316  0.67558152  1
  Ca  Ca3  1  0.66893998  0.33782498  0.17962978  1
  Ca  Ca4  1  0.33747807  0.66539486  0.01552832  1
  Ca  Ca5  1  0.32807654  0.66832464  0.32167033  1
  Sn  Sn0  1  0.99945984  0.99954659  0.64744156  1
  Sn  Sn1  1  0.98897615  0.99550643  0.14525380  1
  Sn  Sn2  1  0.66816201  0.33160196  0.98292733  1
  Sn  Sn3  1  0.67368311  0.32845358  0.49157693  1
  Sn  Sn4  1  0.32947233  0.67239055  0.51852703  1
  Sn  Sn5  1  0.32673773  0.66885422  0.82024357  1
  P  P0  1  0.70488792  0.70695265  0.25121132  1
  P  P1  1  0.00378414  0.29373438  0.24680802  1
  P  P2  1  0.29292384  0.30214337  0.74967584  1
  P  P3  1  0.00666560  0.70913297  0.74980890  1
  P  P4  1  0.69946570  0.99061067  0.75050868  1
  P  P5  1  0.97847536  0.33238252  0.58484866  1
  P  P6  1  0.35889944  0.02998891  0.58465218  1
  P  P7  1  0.66566500  0.64142989  0.58224385  1
  P  P8  1  0.96119768  0.63698106  0.08453829  1
  P  P9  1  0.67266220  0.03807120  0.08587665  1
  P  P10  1  0.36136968  0.32242517  0.08628212  1
  P  P11  1  0.02356220  0.37067138  0.91970221  1
  P  P12  1  0.34556451  0.97600187  0.92003905  1
  P  P13  1  0.62572550  0.97177101  0.41965451  1
  P  P14  1  0.02326213  0.65387985  0.42044431  1
  S  S0  1  0.28891801  0.99697653  0.24724670  1
  S  S1  1  0.62742668  0.65261317  0.91568338  1
  S  S2  1  0.34668307  0.37316161  0.42133686  1
  O  O0  1  0.20344936  0.01436009  0.29835231  1
  O  O1  1  0.80633188  0.78627672  0.30640678  1
  O  O2  1  0.98819974  0.18419701  0.29847019  1
  O  O3  1  0.21799378  0.19173467  0.80234355  1
  O  O4  1  0.97351958  0.78550177  0.80271088  1
  O  O5  1  0.80921564  0.02259096  0.80282754  1
  O  O6  1  0.77815186  0.95196955  0.69434046  1
  O  O7  1  0.17428491  0.22206231  0.69452679  1
  O  O8  1  0.04429406  0.82578863  0.69400194  1
  O  O9  1  0.79889363  0.82052280  0.19574472  1
  O  O10  1  0.02692154  0.21112680  0.18801047  1
  O  O11  1  0.19071438  0.97948025  0.19195235  1
  O  O12  1  0.91495059  0.36422627  0.64185027  1
  O  O13  1  0.45145710  0.09356039  0.64176435  1
  O  O14  1  0.63624815  0.54432059  0.63845200  1
  O  O15  1  0.89440505  0.54612967  0.14231253  1
  O  O16  1  0.65231430  0.10726103  0.14398274  1
  O  O17  1  0.44661628  0.33960608  0.14454312  1
  O  O18  1  0.45770478  0.29420245  0.03392209  1
  O  O19  1  0.84163815  0.54315719  0.03179937  1
  O  O20  1  0.70647330  0.16521527  0.03414945  1
  O  O21  1  0.45367243  0.15074819  0.53184867  1
  O  O22  1  0.69111733  0.54947702  0.52759630  1
  O  O23  1  0.85832501  0.30335881  0.53218964  1
  O  O24  1  0.54309183  0.66801937  0.96666154  1
  O  O25  1  0.12023869  0.45346986  0.97462560  1
  O  O26  1  0.33760676  0.88165318  0.97496370  1
  O  O27  1  0.52158367  0.84039972  0.46837042  1
  O  O28  1  0.32679028  0.46736148  0.47082800  1
  O  O29  1  0.14118459  0.66673382  0.47080560  1
  O  O30  1  0.08397591  0.62758849  0.36089172  1
  O  O31  1  0.53952312  0.91166905  0.36012290  1
  O  O32  1  0.37225629  0.46551735  0.36570490  1
  O  O33  1  0.11349828  0.47959249  0.86158679  1
  O  O34  1  0.37145136  0.88983837  0.86191997  1
  O  O35  1  0.52633360  0.63158352  0.85980140  1
  O  O36  1  -0.00029693  0.80872492  0.42331944  1
  O  O37  1  0.79887788  0.98334544  0.42264881  1
  O  O38  1  0.20047661  0.20288042  0.42071218  1
  O  O39  1  0.99431719  0.19279998  0.91459892  1
  O  O40  1  0.19103676  0.99525218  0.91510257  1
  O  O41  1  0.79705405  0.79838518  0.91123814  1
  O  O42  1  0.99294250  0.16881968  0.58655804  1
  O  O43  1  0.18002006  0.01367340  0.58577017  1
  O  O44  1  0.83006645  0.81968208  0.58476289  1
  O  O45  1  0.98085462  0.81950866  0.08536271  1
  O  O46  1  0.84412564  0.03367641  0.08437857  1
  O  O47  1  0.18462730  0.14860204  0.08523603  1
  O  O48  1  0.66883677  0.14022533  0.74216520  1
  O  O49  1  0.47345303  0.33419578  0.74090538  1
  O  O50  1  0.85836838  0.52841440  0.74151799  1
  O  O51  1  0.68142980  0.52779370  0.24679517  1
  O  O52  1  0.84313736  0.30994516  0.24584490  1
  O  O53  1  0.46018742  0.14771599  0.24476048  1
  O  O54  1  0.63495955  0.49117972  0.91832442  1
  O  O55  1  0.84886965  0.36909397  0.91994143  1
  O  O56  1  0.51318572  0.15585757  0.92026252  1
  O  O57  1  0.63850669  0.14799089  0.43018749  1
  O  O58  1  0.50833072  0.36781424  0.42854257  1
  O  O59  1  0.84036754  0.49153191  0.42875456  1
  O  O60  1  0.32544134  0.46705385  0.07902415  1
  O  O61  1  0.13925658  0.66155408  0.07727017  1
  O  O62  1  0.51828167  0.86436164  0.07812633  1
  O  O63  1  0.33681152  0.85023382  0.57445179  1
  O  O64  1  0.50851283  0.66341688  0.57172798  1
  O  O65  1  0.15809108  0.48886937  0.57335403  1
  O  O66  1  0.30267572  0.84151759  0.24886944  1
  O  O67  1  0.52995431  0.69610349  0.25008854  1
  O  O68  1  0.16418683  0.47162118  0.24725537  1
  O  O69  1  0.30174465  0.48162286  0.75607731  1
  O  O70  1  0.17760860  0.70082293  0.75480896  1
  O  O71  1  0.51970951  0.82008655  0.75622558  1
loop_
_geom_bond_atom_site_label_1
_geom_bond_atom_site_label_2
_geom_bond_distance
_geom_bond_site_symmetry_2
Na0 O67 2.447349 1_545
Na0 O52 2.472559 1_555
Na0 O53 2.617196 1_555
Na0 O31 2.628495 1_545
Na0 O16 2.650802 1_555
Na0 O66 2.703523 1_545
Na0 O2 2.929455 1_555
Na0 O9 2.957545 1_545
Na1 O68 2.442402 1_555
Na1 O17 2.445343 1_555
Na1 O51 2.452788 1_555
Na1 O67 2.522534 1_555
Na1 O53 2.599974 1_555
Na1 O32 2.903846 1_555
Na2 O52 2.445254 1_555
Na2 O51 2.506112 1_555
Na2 O68 2.552665 1_655
Na2 O66 2.554899 1_655
Na2 O30 2.627744 1_655
Na2 O15 2.643985 1_555
Na3 O49 2.376821 1_555
Na3 O71 2.489414 1_555
Na3 O50 2.573380 1_555
Na3 O14 2.587729 1_555
Na3 O69 2.726125 1_555
Na3 O6 2.797308 1_555
Na3 O35 2.809412 1_555
Na3 O4 2.916621 1_555
Na4 O50 2.413050 1_555
Na4 O69 2.507214 1_655
Na4 O12 2.532962 1_555
Na4 O48 2.577379 1_555
Na4 O70 2.746679 1_655
Na4 O7 2.806079 1_655
Na4 O33 2.854205 1_655
Na4 O5 2.917257 1_555
Na5 O48 2.398934 1_555
Na5 O70 2.502928 1_545
Na5 O13 2.538831 1_555
Na5 O49 2.581480 1_555
Na5 O71 2.756500 1_545
Na5 O8 2.853497 1_545
Na5 O34 2.866604 1_545
Na5 O3 2.869152 1_555
Na6 O61 2.398111 1_555
Na6 O26 2.409523 1_554
Na6 O47 2.460503 1_565
Na6 O62 2.518573 1_555
Na6 O45 2.600357 1_455
Na6 O18 2.759652 1_565
Na6 O11 2.964748 1_555
Na7 O60 2.336248 1_555
Na7 O25 2.469228 1_554
Na7 O46 2.489473 1_455
Na7 O61 2.546051 1_555
Na7 O20 2.747251 1_455
Na7 O47 2.780977 1_555
Na7 O10 2.864397 1_555
Na8 O36 2.332976 1_655
Na8 O37 2.466434 1_555
Na8 O58 2.497492 1_555
Na8 O59 2.567919 1_555
Na8 O22 2.706091 1_555
Na8 O1 2.777838 1_555
Na8 O27 2.942936 1_555
Na8 O32 2.956982 1_555
Na9 O43 2.475761 1_555
Na9 O42 2.478996 1_455
Na9 O44 2.488198 1_445
Na9 O36 2.519283 1_545
Na9 O37 2.567355 1_445
Na9 O38 2.607387 1_555
Na10 O40 2.445261 1_545
Na10 O39 2.485377 1_455
Na10 O41 2.580843 1_445
Na10 O47 2.688045 1_556
Na10 O46 2.695032 1_456
Na10 O45 2.702646 1_446
Na11 O56 2.440239 1_555
Na11 O55 2.450115 1_555
Na11 O54 2.511653 1_555
Na11 O48 2.744895 1_555
Na11 O50 2.807694 1_555
Na11 O49 2.838408 1_555
Na12 O59 2.512387 1_555
Na12 O57 2.545048 1_555
Na12 O52 2.620713 1_555
Na12 O58 2.741121 1_555
Na12 O51 2.829570 1_555
Na12 O53 2.885622 1_555
Na13 O60 2.490804 1_555
Na13 O62 2.543393 1_555
Na13 O67 2.570000 1_555
Na13 O68 2.631296 1_555
Na13 O61 2.709067 1_555
Na13 O66 2.781863 1_555
Na14 O65 2.599192 1_555
Na14 O64 2.616995 1_555
Na14 O63 2.617003 1_555
Na14 O70 2.656083 1_555
Na14 O69 2.662167 1_555
Na14 O71 2.673926 1_555
Ca0 O2 2.186589 1_555
Ca0 O1 2.228890 1_545
Ca0 O0 2.274958 1_655
Ca0 O37 2.276920 1_545
Ca0 O38 2.325979 1_655
Ca0 O36 2.330928 1_645
Ca1 O3 2.177204 1_555
Ca1 O4 2.215280 1_445
Ca1 O5 2.216044 1_455
Ca1 O39 2.239727 1_455
Ca1 O40 2.247465 1_545
Ca1 O41 2.306991 1_445
Ca2 O13 2.241584 1_555
Ca2 O14 2.251869 1_555
Ca2 O12 2.257587 1_555
Ca2 O50 2.315689 1_555
Ca2 O49 2.322507 1_555
Ca2 O48 2.344930 1_555
Ca3 O15 2.159976 1_555
Ca3 O16 2.189021 1_555
Ca3 O17 2.197459 1_555
Ca3 O51 2.275184 1_555
Ca3 O52 2.311305 1_555
Ca3 O53 2.356701 1_555
Ca4 O24 2.171374 1_554
Ca4 O25 2.175270 1_554
Ca4 O26 2.185533 1_554
Ca4 O62 2.257684 1_555
Ca4 O61 2.278280 1_555
Ca4 O60 2.287058 1_555
Ca5 O30 2.251715 1_555
Ca5 O31 2.271519 1_555
Ca5 O32 2.319365 1_555
Ca5 O67 2.378612 1_555
Ca5 O68 2.386867 1_555
Ca5 O66 2.394429 1_555
O0 S0 1.455657 1_545
O1 P0 1.523539 1_555
O2 P1 1.512658 1_655
O3 P2 1.500579 1_555
O4 P3 1.499662 1_655
O5 P4 1.499748 1_545
O6 P4 1.593186 1_555
O6 Sn0 2.128909 1_555
O7 P2 1.589231 1_555
O7 Sn0 2.145624 1_445
O8 P3 1.590132 1_555
O8 Sn0 2.119858 1_455
O9 P0 1.592421 1_555
O9 Sn1 2.030549 1_555
O10 P1 1.605832 1_555
O10 Sn1 2.064959 1_445
O11 S0 1.518927 1_555
O11 Sn1 2.205063 1_455
O12 P5 1.511800 1_555
O13 P6 1.511151 1_555
O14 P7 1.511676 1_555
O15 P8 1.518868 1_555
O16 P9 1.521860 1_555
O17 P10 1.518111 1_555
O18 P10 1.579093 1_555
O18 Sn2 2.121329 1_554
O19 P8 1.569010 1_555
O19 Sn2 2.107725 1_554
O20 P9 1.580190 1_555
O20 Sn2 2.088349 1_554
O21 P6 1.572695 1_555
O21 Sn3 2.062218 1_555
O22 P7 1.584975 1_555
O22 Sn3 2.108961 1_555
O23 P5 1.567266 1_555
O23 Sn3 2.043220 1_555
O24 S1 1.440625 1_555
O25 P11 1.508643 1_555
O26 P12 1.509201 1_555
O27 P13 1.564347 1_555
O27 Sn4 2.013000 1_555
O28 S2 1.485421 1_555
O28 Sn4 2.154081 1_555
O29 P14 1.547945 1_555
O29 Sn4 2.023515 1_555
O30 P14 1.533146 1_555
O31 P13 1.536103 1_555
O32 S2 1.483218 1_555
O33 P11 1.618227 1_555
O33 Sn5 2.074435 1_555
O34 P12 1.619975 1_555
O34 Sn5 2.077722 1_555
O35 S1 1.538544 1_555
O35 Sn5 2.215727 1_555
O36 P14 1.534153 1_555
O37 P13 1.534187 1_555
O38 S2 1.457775 1_555
O39 P11 1.512604 1_655
O40 P12 1.512728 1_555
O41 S1 1.456106 1_555
O42 P5 1.564559 1_555
O42 Sn0 2.109733 1_545
O43 P6 1.565546 1_555
O43 Sn0 2.120686 1_445
O44 P7 1.569760 1_555
O44 Sn0 2.150585 1_555
O45 P8 1.584619 1_555
O45 Sn1 2.082856 1_555
O46 P9 1.587520 1_555
O46 Sn1 2.076039 1_545
O47 P10 1.601405 1_555
O47 Sn1 2.127928 1_445
O48 P4 1.538410 1_545
O49 P2 1.536580 1_555
O50 P3 1.536145 1_655
O51 P0 1.543005 1_555
O52 P1 1.547719 1_655
O53 S0 1.480574 1_545
O54 S1 1.511206 1_555
O54 Sn2 2.207653 1_555
O55 P11 1.589243 1_655
O55 Sn2 2.082695 1_555
O56 P12 1.589757 1_545
O56 Sn2 2.092649 1_555
O57 P13 1.571835 1_545
O57 Sn3 2.063322 1_555
O58 S2 1.512323 1_555
O58 Sn3 2.252911 1_555
O59 P14 1.596010 1_655
O59 Sn3 2.081390 1_555
O60 P10 1.521790 1_555
O61 P8 1.535414 1_455
O62 P9 1.516748 1_565
O63 P6 1.567143 1_565
O63 Sn4 2.039961 1_555
O64 P7 1.566546 1_555
O64 Sn4 2.081176 1_555
O65 P5 1.567454 1_455
O65 Sn4 2.051193 1_555
O66 S0 1.487078 1_555
O67 P0 1.551825 1_555
O68 P1 1.551029 1_555
O69 P2 1.606311 1_555
O69 Sn5 2.175586 1_555
O70 P3 1.606280 1_555
O70 Sn5 2.149401 1_555
O71 P4 1.606413 1_555
O71 Sn5 2.172108 1_555
