# generated using pymatgen
data_CsPdCl3
_symmetry_space_group_name_H-M   'P 1'
_cell_length_a   9.73122793
_cell_length_b   9.73111810
_cell_length_c   9.73114662
_cell_angle_alpha   127.05912019
_cell_angle_beta   113.76443068
_cell_angle_gamma   89.67807688
_symmetry_Int_Tables_number   1
_chemical_formula_structural   CsPdCl3
_chemical_formula_sum   'Cs4 Pd4 Cl12'
_cell_volume   636.52321815
_cell_formula_units_Z   4
loop_
 _symmetry_equiv_pos_site_id
 _symmetry_equiv_pos_as_xyz
  1  'x, y, z'
loop_
 _atom_site_type_symbol
 _atom_site_label
 _atom_site_symmetry_multiplicity
 _atom_site_fract_x
 _atom_site_fract_y
 _atom_site_fract_z
 _atom_site_occupancy
  Cs  Cs0  1  0.17596921  0.42597493  0.25000193  1
  Cs  Cs1  1  0.82403141  0.07403278  0.25000573  1
  Cs  Cs2  1  0.82403081  0.57402611  0.74999846  1
  Cs  Cs3  1  0.17596880  0.92596743  0.74999457  1
  Pd  Pd0  1  0.59373554  0.94812672  0.64561133  1
  Pd  Pd1  1  0.40626668  0.05187589  0.35439183  1
  Pd  Pd2  1  0.69748840  0.55186851  0.14561788  1
  Pd  Pd3  1  0.30250996  0.44812722  0.85437720  1
  Cl  Cl0  1  0.66745056  0.10499051  0.56246069  1
  Cl  Cl1  1  0.33255099  0.89501283  0.43754337  1
  Cl  Cl2  1  0.45746155  0.39500973  0.06245303  1
  Cl  Cl3  1  0.54253718  0.60499018  0.93754675  1
  Cl  Cl4  1  0.85181052  0.00441308  0.84739840  1
  Cl  Cl5  1  0.14819127  0.99558759  0.15260352  1
  Cl  Cl6  1  0.84299386  0.49558262  0.34741168  1
  Cl  Cl7  1  0.15700486  0.50441721  0.65258728  1
  Cl  Cl8  1  0.07339026  0.29190931  0.78148091  1
  Cl  Cl9  1  0.92660662  0.70808734  0.21851510  1
  Cl  Cl10  1  0.48957335  0.20808851  0.28148460  1
  Cl  Cl11  1  0.51042719  0.79191254  0.71851574  1
loop_
_geom_bond_atom_site_label_1
_geom_bond_atom_site_label_2
_geom_bond_distance
_geom_bond_site_symmetry_2
Cl0 Pd1 2.330776 1_555
Cl0 Pd0 2.338412 1_545
Cl0 Cs2 3.779164 1_555
Cl0 Cs1 3.779178 1_555
Cl1 Pd0 2.330780 1_555
Cl1 Pd1 2.338416 1_565
Cl1 Cs3 3.779167 1_555
Cl1 Cs0 3.779174 1_555
Cl2 Pd3 2.330820 1_554
Cl2 Pd2 2.338443 1_555
Cl2 Cs3 3.779198 1_544
Cl2 Cs0 3.779203 1_555
Cl3 Pd2 2.330815 1_556
Cl3 Pd3 2.338443 1_555
Cl3 Cs1 3.779205 1_566
Cl3 Cs2 3.779213 1_555
Cl4 Pd0 2.282000 1_545
Cl4 Cs0 3.597543 1_656
Cl4 Cs3 3.597551 1_645
Cl4 Cs2 3.678827 1_545
Cl4 Cs1 3.678841 1_556
Cl5 Pd1 2.282001 1_565
Cl5 Cs2 3.597550 1_454
Cl5 Cs1 3.597559 1_465
Cl5 Cs0 3.678838 1_565
Cl5 Cs3 3.678847 1_554
Cl6 Pd2 2.282031 1_555
Cl6 Cs1 3.597388 1_555
Cl6 Cs2 3.597398 1_555
Cl6 Cs3 3.678785 1_655
Cl6 Cs0 3.678797 1_655
Cl7 Pd3 2.282031 1_555
Cl7 Cs3 3.597385 1_555
Cl7 Cs0 3.597395 1_555
Cl7 Cs1 3.678776 1_455
Cl7 Cs2 3.678792 1_455
Cl8 Pd3 2.291065 1_555
Cl8 Cs3 3.558468 1_545
Cl8 Cs0 3.558480 1_556
Cl8 Cs1 3.722705 1_455
Cl8 Cs2 3.722707 1_455
Cl9 Pd2 2.291053 1_555
Cl9 Cs2 3.558464 1_554
Cl9 Cs1 3.558474 1_565
Cl9 Cs0 3.722704 1_655
Cl9 Cs3 3.722732 1_655
Cl10 Pd1 2.290979 1_555
Cl10 Cs2 3.558473 1_555
Cl10 Cs1 3.558478 1_555
Cl10 Cs3 3.722811 1_544
Cl10 Cs0 3.722811 1_555
Cl11 Pd0 2.290977 1_555
Cl11 Cs0 3.558475 1_555
Cl11 Cs3 3.558478 1_555
Cl11 Cs2 3.722807 1_555
Cl11 Cs1 3.722811 1_566
