# generated using pymatgen
data_Ni4P7O24
_symmetry_space_group_name_H-M   'P 1'
_cell_length_a   10.34801900
_cell_length_b   10.40372663
_cell_length_c   10.75258978
_cell_angle_alpha   111.31719689
_cell_angle_beta   108.46781331
_cell_angle_gamma   104.50225197
_symmetry_Int_Tables_number   1
_chemical_formula_structural   Ni4P7O24
_chemical_formula_sum   'Ni8 P14 O48'
_cell_volume   931.21660468
_cell_formula_units_Z   2
loop_
 _symmetry_equiv_pos_site_id
 _symmetry_equiv_pos_as_xyz
  1  'x, y, z'
loop_
 _atom_site_type_symbol
 _atom_site_label
 _atom_site_symmetry_multiplicity
 _atom_site_fract_x
 _atom_site_fract_y
 _atom_site_fract_z
 _atom_site_occupancy
  Ni  Ni0  1  0.89457600  0.50389000  0.74137600  1
  Ni  Ni1  1  0.38154300  0.99973700  0.07589200  1
  Ni  Ni2  1  0.66432800  0.50820800  0.88059300  1
  Ni  Ni3  1  0.83215300  0.98348700  0.41767500  1
  Ni  Ni4  1  0.16784700  0.01651300  0.58232500  1
  Ni  Ni5  1  0.33567200  0.49179200  0.11940700  1
  Ni  Ni6  1  0.61845700  0.00026300  0.92410800  1
  Ni  Ni7  1  0.10542400  0.49611000  0.25862400  1
  P  P0  1  0.45799900  0.24378500  0.94973200  1
  P  P1  1  0.54200100  0.75621500  0.05026800  1
  P  P2  1  0.17758600  0.72788200  0.11631600  1
  P  P3  1  0.38782900  0.25369200  0.52104800  1
  P  P4  1  0.82241400  0.27211800  0.88368400  1
  P  P5  1  0.03450500  0.26017800  0.75355500  1
  P  P6  1  0.94668700  0.20109900  0.26280800  1
  P  P7  1  0.61896600  0.19200200  0.43462700  1
  P  P8  1  0.22310200  0.23360500  0.22511400  1
  P  P9  1  0.38103400  0.80799800  0.56537300  1
  P  P10  1  0.05331300  0.79890100  0.73719200  1
  P  P11  1  0.96549500  0.73982200  0.24644500  1
  P  P12  1  0.61217100  0.74630800  0.47895200  1
  P  P13  1  0.77689800  0.76639500  0.77488600  1
  O  O0  1  0.26296300  0.12197700  0.13001000  1
  O  O1  1  0.20390500  0.86600500  0.87337600  1
  O  O2  1  0.98710900  0.62733000  0.66193500  1
  O  O3  1  0.06905800  0.64324300  0.95115700  1
  O  O4  1  0.71952100  0.35735400  0.53793900  1
  O  O5  1  0.56196200  0.64702200  0.92314000  1
  O  O6  1  0.56566500  0.14721500  0.26890900  1
  O  O7  1  0.78140500  0.63476600  0.80494200  1
  O  O8  1  0.79609500  0.13399500  0.12662400  1
  O  O9  1  0.01289100  0.37267000  0.33806500  1
  O  O10  1  0.93094200  0.35675700  0.04884300  1
  O  O11  1  0.73703700  0.87802300  0.86999000  1
  O  O12  1  0.28047900  0.64264600  0.46206100  1
  O  O13  1  0.43803800  0.35297800  0.07686000  1
  O  O14  1  0.43433500  0.85278500  0.73109100  1
  O  O15  1  0.21859500  0.36523400  0.19505800  1
  O  O16  1  0.52901200  0.84803900  0.53867300  1
  O  O17  1  0.99046600  0.62430100  0.29770800  1
  O  O18  1  0.66297600  0.68801300  0.59920000  1
  O  O19  1  0.93822200  0.85605500  0.79285900  1
  O  O20  1  0.50584600  0.60926100  0.33077100  1
  O  O21  1  0.07709400  0.86443500  0.63782000  1
  O  O22  1  0.49419100  0.12312400  0.98880200  1
  O  O23  1  0.31234800  0.91613300  0.54089100  1
  O  O24  1  0.81926800  0.65271600  0.10333400  1
  O  O25  1  0.68447900  0.14074100  0.84282700  1
  O  O26  1  0.09890700  0.80711100  0.21094000  1
  O  O27  1  0.75199700  0.84675000  0.48983400  1
  O  O28  1  0.97686600  0.87921800  0.37182400  1
  O  O29  1  0.21234700  0.61607000  0.17117800  1
  O  O30  1  0.41018200  0.64242400  0.04676700  1
  O  O31  1  0.32235900  0.15551100  0.79682400  1
  O  O32  1  0.67764100  0.84448900  0.20317600  1
  O  O33  1  0.58981800  0.35757600  0.95323300  1
  O  O34  1  0.78765300  0.38393000  0.82882200  1
  O  O35  1  0.02313400  0.12078200  0.62817600  1
  O  O36  1  0.24800300  0.15325000  0.51016600  1
  O  O37  1  0.90109300  0.19288900  0.78906000  1
  O  O38  1  0.31552100  0.85925900  0.15717300  1
  O  O39  1  0.18073200  0.34728400  0.89666600  1
  O  O40  1  0.68765200  0.08386700  0.45910900  1
  O  O41  1  0.50580900  0.87687600  0.01119800  1
  O  O42  1  0.92290600  0.13556500  0.36218000  1
  O  O43  1  0.49415400  0.39073900  0.66922900  1
  O  O44  1  0.06177800  0.14394500  0.20714100  1
  O  O45  1  0.47098800  0.15196100  0.46132700  1
  O  O46  1  0.00953400  0.37569900  0.70229200  1
  O  O47  1  0.33702400  0.31198700  0.40080000  1
loop_
_geom_bond_atom_site_label_1
_geom_bond_atom_site_label_2
_geom_bond_distance
_geom_bond_site_symmetry_2
Ni0 O2 1.998918 1_555
Ni0 O4 2.018026 1_555
Ni0 O46 2.018464 1_655
Ni0 O3 2.044759 1_655
Ni0 O7 2.078864 1_555
Ni0 O34 2.118164 1_555
Ni1 O6 2.001783 1_565
Ni1 O1 2.009212 1_554
Ni1 O0 2.039008 1_565
Ni1 O38 2.042907 1_555
Ni1 O41 2.124788 1_555
Ni1 O22 2.167885 1_564
Ni2 O5 2.002469 1_555
Ni2 O43 2.031491 1_555
Ni2 O24 2.075837 1_556
Ni2 O33 2.080094 1_555
Ni2 O34 2.088872 1_555
Ni2 O7 2.113586 1_555
Ni3 O27 1.983180 1_555
Ni3 O42 2.009621 1_565
Ni3 O32 2.011942 1_555
Ni3 O40 2.095448 1_565
Ni3 O35 2.114401 1_665
Ni3 O28 2.134196 1_555
Ni4 O36 1.983180 1_555
Ni4 O21 2.009621 1_545
Ni4 O31 2.011942 1_555
Ni4 O23 2.095448 1_545
Ni4 O28 2.114401 1_445
Ni4 O35 2.134196 1_555
Ni5 O13 2.002469 1_555
Ni5 O20 2.031491 1_555
Ni5 O39 2.075837 1_554
Ni5 O30 2.080094 1_555
Ni5 O29 2.088872 1_555
Ni5 O15 2.113586 1_555
Ni6 O14 2.001783 1_545
Ni6 O8 2.009212 1_556
Ni6 O11 2.039008 1_545
Ni6 O25 2.042907 1_555
Ni6 O22 2.124788 1_555
Ni6 O41 2.167885 1_546
Ni7 O9 1.998918 1_555
Ni7 O12 2.018026 1_555
Ni7 O17 2.018464 1_455
Ni7 O10 2.044759 1_455
Ni7 O15 2.078864 1_555
Ni7 O29 2.118164 1_555
O0 P8 1.486034 1_555
O1 P10 1.525192 1_555
O2 P10 1.515404 1_655
O3 P2 1.514797 1_556
O4 P7 1.502622 1_555
O5 P1 1.539197 1_556
O6 P7 1.530179 1_555
O7 P13 1.525182 1_555
O8 P6 1.525192 1_555
O9 P6 1.515404 1_455
O10 P4 1.514797 1_554
O11 P13 1.486034 1_555
O12 P9 1.502622 1_555
O13 P0 1.539197 1_554
O14 P9 1.530179 1_555
O15 P8 1.525182 1_555
O16 P12 1.607838 1_555
O16 P9 1.626889 1_555
O17 P11 1.536881 1_555
O18 P13 1.615846 1_555
O18 P12 1.617153 1_555
O19 P13 1.605908 1_555
O19 P10 1.636391 1_655
O20 P12 1.494697 1_555
O21 P10 1.509747 1_555
O22 P0 1.552997 1_555
O23 P9 1.528850 1_555
O24 P11 1.517558 1_555
O25 P4 1.512472 1_555
O26 P11 1.608084 1_455
O26 P2 1.621323 1_555
O27 P12 1.498606 1_555
O28 P11 1.525474 1_555
O29 P2 1.550682 1_555
O30 P1 1.545925 1_555
O31 P0 1.520292 1_555
O32 P1 1.520292 1_555
O33 P0 1.545925 1_555
O34 P4 1.550682 1_555
O35 P5 1.525474 1_555
O36 P3 1.498606 1_555
O37 P5 1.608084 1_655
O37 P4 1.621323 1_555
O38 P2 1.512472 1_555
O39 P5 1.517558 1_555
O40 P7 1.528850 1_555
O41 P1 1.552997 1_555
O42 P6 1.509747 1_555
O43 P3 1.494697 1_555
O44 P8 1.605908 1_555
O44 P6 1.636391 1_455
O45 P3 1.607838 1_555
O45 P7 1.626889 1_555
O46 P5 1.536881 1_555
O47 P8 1.615846 1_555
O47 P3 1.617153 1_555
