# generated using pymatgen
data_MgScTl(MoO4)2
_symmetry_space_group_name_H-M   'P 1'
_cell_length_a   5.83751100
_cell_length_b   5.83751004
_cell_length_c   7.14625400
_cell_angle_alpha   90.00000000
_cell_angle_beta   90.00000000
_cell_angle_gamma   119.99999978
_symmetry_Int_Tables_number   1
_chemical_formula_structural   MgScTl(MoO4)2
_chemical_formula_sum   'Mg1 Sc1 Tl1 Mo2 O8'
_cell_volume   210.89410162
_cell_formula_units_Z   1
loop_
 _symmetry_equiv_pos_site_id
 _symmetry_equiv_pos_as_xyz
  1  'x, y, z'
loop_
 _atom_site_type_symbol
 _atom_site_label
 _atom_site_symmetry_multiplicity
 _atom_site_fract_x
 _atom_site_fract_y
 _atom_site_fract_z
 _atom_site_occupancy
  Mg  Mg0  1  0.33333300  0.66666700  0.17816300  1
  Sc  Sc0  1  0.00000000  0.00000000  0.01245900  1
  Tl  Tl0  1  0.00000000  0.00000000  0.47995700  1
  Mo  Mo0  1  0.66666700  0.33333300  0.30921300  1
  Mo  Mo1  1  0.33333300  0.66666700  0.71352900  1
  O  O0  1  0.83756600  0.16243400  0.17184800  1
  O  O1  1  0.83756600  0.67513300  0.17184800  1
  O  O2  1  0.32486700  0.16243400  0.17184800  1
  O  O3  1  0.65152500  0.82576200  0.82062100  1
  O  O4  1  0.33333300  0.66666700  0.45245600  1
  O  O5  1  0.66666700  0.33333300  0.56015000  1
  O  O6  1  0.17423800  0.82576200  0.82062100  1
  O  O7  1  0.17423800  0.34847500  0.82062100  1
loop_
_geom_bond_atom_site_label_1
_geom_bond_atom_site_label_2
_geom_bond_distance
_geom_bond_site_symmetry_2
Mg0 O4 1.960167 1_555
Mo0 O5 1.793260 1_555
Mo0 O0 1.987308 1_555
Mo0 O1 1.987317 1_555
Mo0 O2 1.987317 1_555
Mo1 O6 1.781362 1_555
Mo1 O7 1.781371 1_555
Mo1 O3 1.781371 1_555
Mo1 O4 1.865694 1_555
O0 Sc0 1.998676 1_655
O0 Tl0 2.746879 1_655
O1 Sc0 1.998672 1_665
O1 Tl0 2.746875 1_665
O2 Sc0 1.998672 1_555
O2 Tl0 2.746876 1_555
O3 Sc0 2.232261 1_666
O6 Sc0 2.232265 1_566
O7 Sc0 2.232261 1_556
