# generated using pymatgen
data_Na3HfSi2SnPO12
_symmetry_space_group_name_H-M   'P 1'
_cell_length_a   15.76762385
_cell_length_b   9.07510968
_cell_length_c   9.10158575
_cell_angle_alpha   90.04512158
_cell_angle_beta   124.97742589
_cell_angle_gamma   89.92527246
_symmetry_Int_Tables_number   1
_chemical_formula_structural   Na3HfSi2SnPO12
_chemical_formula_sum   'Na12 Hf4 Si8 Sn4 P4 O48'
_cell_volume   1067.13437377
_cell_formula_units_Z   4
loop_
 _symmetry_equiv_pos_site_id
 _symmetry_equiv_pos_as_xyz
  1  'x, y, z'
loop_
 _atom_site_type_symbol
 _atom_site_label
 _atom_site_symmetry_multiplicity
 _atom_site_fract_x
 _atom_site_fract_y
 _atom_site_fract_z
 _atom_site_occupancy
  Na  Na0  1  0.24353126  0.77367315  0.99734238  1
  Na  Na1  1  0.74598782  0.72460654  0.49894730  1
  Na  Na2  1  0.74600322  0.27439193  0.99858134  1
  Na  Na3  1  0.24382289  0.22908562  0.49663568  1
  Na  Na4  1  0.50375341  0.10312910  0.75204533  1
  Na  Na5  1  0.50129687  0.89910560  0.24919322  1
  Na  Na6  1  0.00330806  0.60423640  0.75048931  1
  Na  Na7  1  0.00154366  0.39272841  0.25048324  1
  Na  Na8  1  0.81018212  0.93264271  0.21411474  1
  Na  Na9  1  0.80883739  0.06736335  0.71357787  1
  Na  Na10  1  0.30846779  0.43431468  0.21298505  1
  Na  Na11  1  0.30791300  0.56711043  0.71109931  1
  Hf  Hf0  1  0.10531788  0.74978053  0.56134808  1
  Hf  Hf1  1  0.60474397  0.25025721  0.56198944  1
  Hf  Hf2  1  0.39575827  0.75538864  0.43785616  1
  Hf  Hf3  1  0.60633506  0.75018303  0.06390826  1
  Si  Si0  1  0.35538272  0.89920566  0.76069035  1
  Si  Si1  1  0.65084165  0.89268666  0.74755220  1
  Si  Si2  1  0.64999961  0.10781852  0.24601946  1
  Si  Si3  1  0.35224730  0.10463364  0.25122460  1
  Si  Si4  1  0.85614654  0.39677564  0.75844915  1
  Si  Si5  1  0.14951619  0.39211521  0.74699702  1
  Si  Si6  1  0.14724815  0.60436313  0.24176767  1
  Si  Si7  1  0.85544081  0.60155073  0.25728167  1
  Sn  Sn0  1  0.89731566  0.74550737  0.93803958  1
  Sn  Sn1  1  0.89814497  0.25390535  0.43917000  1
  Sn  Sn2  1  0.10391717  0.25062359  0.06090339  1
  Sn  Sn3  1  0.39744072  0.24651022  0.93678444  1
  P  P0  1  0.00159621  0.95991558  0.75122884  1
  P  P1  1  0.00001174  0.04200732  0.24438950  1
  P  P2  1  0.50036170  0.45774386  0.74917161  1
  P  P3  1  0.49913451  0.54109659  0.24429717  1
  O  O0  1  0.15269334  0.57457721  0.73759136  1
  O  O1  1  0.85361736  0.57728357  0.75491800  1
  O  O2  1  0.85258756  0.42100003  0.25384316  1
  O  O3  1  0.15035281  0.42140991  0.24597672  1
  O  O4  1  0.65287507  0.07507952  0.74123887  1
  O  O5  1  0.35256662  0.07904725  0.75024686  1
  O  O6  1  0.34956593  0.92503747  0.25730562  1
  O  O7  1  0.65313351  0.92532444  0.24262308  1
  O  O8  1  0.43637853  0.55109243  0.57787046  1
  O  O9  1  0.55956199  0.55793636  0.91449693  1
  O  O10  1  0.55802951  0.43728336  0.40605928  1
  O  O11  1  0.42952110  0.45242523  0.06882018  1
  O  O12  1  0.93255316  0.05198704  0.57814653  1
  O  O13  1  0.06592257  0.05512682  0.91979258  1
  O  O14  1  0.05827517  0.93907255  0.40698818  1
  O  O15  1  0.93074475  0.95345232  0.06860189  1
  O  O16  1  0.25683832  0.82318777  0.74339409  1
  O  O17  1  0.75179925  0.83510344  0.75443406  1
  O  O18  1  0.75283452  0.16348890  0.25739250  1
  O  O19  1  0.25577978  0.18441400  0.24067249  1
  O  O20  1  0.75595578  0.32340911  0.73901489  1
  O  O21  1  0.25121558  0.33461190  0.75651244  1
  O  O22  1  0.25012895  0.66064751  0.25619137  1
  O  O23  1  0.75743881  0.67765594  0.24340147  1
  O  O24  1  0.36113828  0.84709346  0.59365362  1
  O  O25  1  0.65176084  0.85496474  0.92409227  1
  O  O26  1  0.64823577  0.14549240  0.41970828  1
  O  O27  1  0.35670556  0.14045766  0.08000034  1
  O  O28  1  0.86319610  0.35639543  0.59160550  1
  O  O29  1  0.14884199  0.36654252  0.92418237  1
  O  O30  1  0.14606554  0.64590471  0.41538633  1
  O  O31  1  0.85832561  0.64410425  0.08599595  1
  O  O32  1  0.46043798  0.83748744  0.94299717  1
  O  O33  1  0.54485720  0.82979605  0.56739841  1
  O  O34  1  0.54720138  0.17347536  0.06038476  1
  O  O35  1  0.45731652  0.16898897  0.43309119  1
  O  O36  1  0.95642898  0.32628115  0.94457708  1
  O  O37  1  0.04728922  0.32396167  0.56289873  1
  O  O38  1  0.04495203  0.66964066  0.05569769  1
  O  O39  1  0.95951853  0.66581515  0.43886429  1
  O  O40  1  0.07606928  0.85664875  0.74235436  1
  O  O41  1  0.92183576  0.86361429  0.75748855  1
  O  O42  1  0.92175074  0.13918877  0.25422706  1
  O  O43  1  0.07898539  0.14220229  0.24541441  1
  O  O44  1  0.57700264  0.35442016  0.74666594  1
  O  O45  1  0.41952746  0.36267393  0.75296475  1
  O  O46  1  0.42333324  0.63934348  0.25726092  1
  O  O47  1  0.57730569  0.64139627  0.24299367  1
loop_
_geom_bond_atom_site_label_1
_geom_bond_atom_site_label_2
_geom_bond_distance
_geom_bond_site_symmetry_2
Na0 O6 2.397073 1_556
Na0 O40 2.428374 1_555
Na0 O16 2.479132 1_555
Na0 O22 2.517120 1_556
Na0 O0 2.650098 1_555
Na0 O46 2.725095 1_556
Na1 O1 2.358225 1_555
Na1 O47 2.443351 1_555
Na1 O23 2.470534 1_555
Na1 O17 2.484633 1_555
Na1 O7 2.643464 1_555
Na1 O41 2.709345 1_555
Na2 O2 2.348758 1_556
Na2 O44 2.424461 1_555
Na2 O20 2.496126 1_555
Na2 O18 2.507174 1_556
Na2 O4 2.640257 1_555
Na2 O42 2.683598 1_556
Na3 O5 2.362885 1_555
Na3 O43 2.407093 1_555
Na3 O19 2.475710 1_555
Na3 O21 2.491169 1_555
Na3 O3 2.562768 1_555
Na3 O45 2.679908 1_555
Na4 O5 2.384831 1_555
Na4 O4 2.422107 1_555
Na4 O34 2.558655 1_556
Na4 O44 2.570773 1_555
Na4 O35 2.623985 1_555
Na4 O45 2.704851 1_555
Na4 O25 2.961828 1_545
Na4 O24 2.970767 1_545
Na5 O7 2.440813 1_555
Na5 O6 2.446552 1_555
Na5 O32 2.536612 1_554
Na5 O33 2.641266 1_555
Na5 O47 2.641828 1_555
Na5 O46 2.680501 1_555
Na5 O27 2.886805 1_565
Na5 O26 2.943075 1_565
Na6 O1 2.396437 1_455
Na6 O0 2.439200 1_555
Na6 O38 2.531252 1_556
Na6 O39 2.567055 1_455
Na6 O40 2.583291 1_555
Na6 O41 2.698293 1_455
Na6 O29 2.872509 1_555
Na6 O28 2.894089 1_455
Na7 O2 2.379882 1_455
Na7 O3 2.384705 1_555
Na7 O36 2.519788 1_454
Na7 O37 2.577834 1_555
Na7 O43 2.592174 1_555
Na7 O42 2.633450 1_455
Na7 O31 2.942931 1_455
Na7 O30 2.968398 1_555
Na8 O18 2.400780 1_565
Na8 O42 2.452068 1_565
Na8 O25 2.479184 1_554
Na8 O23 2.525384 1_555
Na8 O7 2.634546 1_555
Na8 O15 2.879460 1_555
Na8 O12 2.923007 1_565
Na9 O17 2.404055 1_545
Na9 O41 2.435031 1_545
Na9 O26 2.510397 1_555
Na9 O20 2.522617 1_555
Na9 O4 2.612484 1_555
Na9 O15 2.843169 1_546
Na9 O12 2.846038 1_555
Na10 O22 2.372387 1_555
Na10 O29 2.457404 1_554
Na10 O46 2.464862 1_555
Na10 O19 2.478462 1_555
Na10 O3 2.679278 1_555
Na10 O11 2.874803 1_555
Na10 O8 2.922459 1_555
Na11 O21 2.419066 1_555
Na11 O45 2.430690 1_555
Na11 O30 2.528090 1_555
Na11 O16 2.530026 1_555
Na11 O0 2.594002 1_555
Na11 O11 2.864065 1_556
Na11 O8 2.899929 1_555
Hf0 O30 2.010314 1_555
Hf0 O39 2.042874 1_455
Hf0 O14 2.068983 1_555
Hf0 O0 2.070338 1_555
Hf0 O16 2.088284 1_555
Hf0 O40 2.175948 1_555
Hf1 O26 2.016358 1_555
Hf1 O35 2.049480 1_555
Hf1 O10 2.059004 1_555
Hf1 O20 2.078333 1_555
Hf1 O4 2.084785 1_555
Hf1 O44 2.179340 1_555
Hf2 O24 1.971227 1_555
Hf2 O33 2.048890 1_555
Hf2 O6 2.056707 1_555
Hf2 O22 2.096605 1_555
Hf2 O8 2.129880 1_555
Hf2 O46 2.194384 1_555
Hf3 O25 2.021215 1_554
Hf3 O32 2.055476 1_554
Hf3 O9 2.070457 1_554
Hf3 O23 2.076941 1_555
Hf3 O7 2.083134 1_555
Hf3 O47 2.167958 1_555
O0 Si5 1.660444 1_555
O1 Si4 1.638455 1_555
O1 Sn0 2.065282 1_555
O2 Si7 1.638975 1_555
O2 Sn1 2.067045 1_555
O3 Si6 1.660803 1_555
O3 Sn2 2.088188 1_555
O4 Si1 1.657267 1_545
O5 Si0 1.633987 1_545
O5 Sn3 2.077067 1_555
O6 Si3 1.632263 1_565
O7 Si2 1.657619 1_565
O8 P2 1.537131 1_555
O9 P2 1.533611 1_555
O10 P3 1.532959 1_555
O11 P3 1.547104 1_555
O11 Sn3 2.119923 1_554
O12 P0 1.548686 1_645
O12 Sn1 2.113385 1_555
O13 P0 1.531412 1_545
O13 Sn2 2.067141 1_556
O14 P1 1.532290 1_565
O15 P1 1.547693 1_665
O15 Sn0 2.128876 1_554
O16 Si0 1.623950 1_555
O17 Si1 1.641522 1_555
O17 Sn0 2.078332 1_555
O18 Si2 1.644603 1_555
O18 Sn1 2.077697 1_555
O19 Si3 1.636095 1_555
O19 Sn2 2.068274 1_555
O20 Si4 1.628634 1_555
O21 Si5 1.640088 1_555
O21 Sn3 2.075402 1_555
O22 Si6 1.633255 1_555
O23 Si7 1.629214 1_555
O24 Si0 1.643211 1_555
O25 Si1 1.635036 1_555
O26 Si2 1.632870 1_555
O27 Si3 1.632710 1_555
O27 Sn3 2.000350 1_554
O28 Si4 1.626393 1_555
O28 Sn1 1.991695 1_555
O29 Si5 1.635518 1_555
O29 Sn2 2.042429 1_556
O30 Si6 1.634731 1_555
O31 Si7 1.632143 1_555
O31 Sn0 1.997709 1_554
O32 Si0 1.630531 1_555
O33 Si1 1.632916 1_555
O34 Si2 1.642007 1_555
O34 Sn3 2.057271 1_554
O35 Si3 1.637868 1_555
O36 Si4 1.645389 1_555
O36 Sn2 2.043181 1_656
O37 Si5 1.640950 1_555
O37 Sn1 2.041850 1_455
O38 Si6 1.639490 1_555
O38 Sn0 2.044187 1_454
O39 Si7 1.629740 1_555
O40 P0 1.539297 1_555
O41 P0 1.560051 1_655
O41 Sn0 2.175090 1_555
O42 P1 1.559572 1_655
O42 Sn1 2.184105 1_555
O43 P1 1.538535 1_555
O43 Sn2 2.168725 1_555
O44 P2 1.539058 1_555
O45 P2 1.556741 1_555
O45 Sn3 2.168747 1_555
O46 P3 1.547944 1_555
O47 P3 1.538703 1_555
