# generated using pymatgen
data_MgTi8(NiO3)8
_symmetry_space_group_name_H-M   'P 1'
_cell_length_a   5.58664585
_cell_length_b   11.22097672
_cell_length_c   11.17004454
_cell_angle_alpha   53.98551604
_cell_angle_beta   54.03068763
_cell_angle_gamma   53.94643164
_symmetry_Int_Tables_number   1
_chemical_formula_structural   MgTi8(NiO3)8
_chemical_formula_sum   'Mg1 Ti8 Ni8 O24'
_cell_volume   425.59452876
_cell_formula_units_Z   1
loop_
 _symmetry_equiv_pos_site_id
 _symmetry_equiv_pos_as_xyz
  1  'x, y, z'
loop_
 _atom_site_type_symbol
 _atom_site_label
 _atom_site_symmetry_multiplicity
 _atom_site_fract_x
 _atom_site_fract_y
 _atom_site_fract_z
 _atom_site_occupancy
  Mg  Mg0  1  0.49942100  0.74842700  0.74875200  1
  Ti  Ti0  1  0.35812700  0.17680800  0.17240700  1
  Ti  Ti1  1  0.13892000  0.07834500  0.57084700  1
  Ti  Ti2  1  0.12898300  0.57529000  0.07956500  1
  Ti  Ti3  1  0.15288700  0.55906100  0.56619800  1
  Ti  Ti4  1  0.86270300  0.42425100  0.41988200  1
  Ti  Ti5  1  0.85355500  0.41486200  0.93638600  1
  Ti  Ti6  1  0.87728100  0.93056400  0.40728400  1
  Ti  Ti7  1  0.82629000  0.94320100  0.93304800  1
  Ni  Ni0  1  0.14674000  0.07260100  0.07349400  1
  Ni  Ni1  1  0.34197400  0.67934600  0.17165000  1
  Ni  Ni2  1  0.35691700  0.16698800  0.67778500  1
  Ni  Ni3  1  0.64188500  0.32357600  0.32644000  1
  Ni  Ni4  1  0.32058300  0.66342800  0.66588000  1
  Ni  Ni5  1  0.64735000  0.33097300  0.81934100  1
  Ni  Ni6  1  0.65376800  0.81960000  0.32914200  1
  Ni  Ni7  1  0.67531700  0.83271900  0.83300800  1
  O  O0  1  0.05355800  0.37643500  0.21772000  1
  O  O1  1  0.43599800  0.03650200  0.37480600  1
  O  O2  1  0.73263100  0.22763000  0.02956700  1
  O  O3  1  0.23050900  0.27692800  0.47304800  1
  O  O4  1  0.55729400  0.47117400  0.11480500  1
  O  O5  1  0.05197800  0.37861400  0.71997700  1
  O  O6  1  0.04470300  0.87268500  0.23256200  1
  O  O7  1  0.95182200  0.11755200  0.28423500  1
  O  O8  1  0.47205000  0.02860000  0.87350500  1
  O  O9  1  0.43729600  0.52199000  0.37951300  1
  O  O10  1  0.76701100  0.21570800  0.52733000  1
  O  O11  1  0.75752900  0.72345700  0.03455600  1
  O  O12  1  0.22778300  0.28822300  0.97588100  1
  O  O13  1  0.23159200  0.77586000  0.46694600  1
  O  O14  1  0.54565700  0.46869200  0.61377100  1
  O  O15  1  0.56965400  0.97975600  0.12030200  1
  O  O16  1  0.08546900  0.87553800  0.71248800  1
  O  O17  1  0.95291000  0.11647100  0.78027600  1
  O  O18  1  0.94454300  0.61566200  0.28038500  1
  O  O19  1  0.42759700  0.53931100  0.87581300  1
  O  O20  1  0.74894600  0.70948000  0.53999500  1
  O  O21  1  0.24161400  0.78408900  0.96037100  1
  O  O22  1  0.57231900  0.95671200  0.61807700  1
  O  O23  1  0.91734100  0.61718200  0.78321100  1
loop_
_geom_bond_atom_site_label_1
_geom_bond_atom_site_label_2
_geom_bond_distance
_geom_bond_site_symmetry_2
Mg0 O16 2.021132 1_555
Mg0 O23 2.027294 1_555
Mg0 O22 2.041825 1_555
Mg0 O19 2.050428 1_555
Mg0 O20 2.057786 1_555
Mg0 O21 2.063178 1_555
Ni0 O8 2.002162 1_554
Ni0 O6 2.035267 1_545
Ni0 O2 2.052226 1_455
Ni0 O7 2.172567 1_455
Ni0 O15 2.203220 1_545
Ni0 O12 2.203400 1_554
Ni1 O6 2.023630 1_555
Ni1 O11 2.065110 1_555
Ni1 O9 2.077680 1_555
Ni1 O18 2.143516 1_455
Ni1 O21 2.186809 1_554
Ni1 O4 2.201382 1_555
Ni2 O8 2.021989 1_555
Ni2 O10 2.059859 1_555
Ni2 O5 2.091514 1_555
Ni2 O17 2.105628 1_455
Ni2 O3 2.191935 1_555
Ni2 O22 2.241827 1_545
Ni3 O7 2.043469 1_555
Ni3 O3 2.055336 1_555
Ni3 O4 2.083636 1_555
Ni3 O9 2.091777 1_555
Ni3 O0 2.143291 1_655
Ni3 O10 2.154458 1_555
Ni4 O13 2.009790 1_555
Ni4 O14 2.023969 1_555
Ni4 O23 2.042031 1_455
Ni4 O20 2.149288 1_555
Ni4 O19 2.149910 1_555
Ni4 O16 2.152937 1_555
Ni5 O12 2.074677 1_555
Ni5 O14 2.075963 1_555
Ni5 O5 2.098804 1_655
Ni5 O17 2.102728 1_555
Ni5 O2 2.132505 1_556
Ni5 O19 2.194629 1_555
Ni6 O18 2.054958 1_555
Ni6 O15 2.062976 1_555
Ni6 O6 2.072785 1_655
Ni6 O13 2.093428 1_555
Ni6 O20 2.152223 1_555
Ni6 O1 2.215736 1_565
Ni7 O8 1.988240 1_565
Ni7 O11 2.021975 1_556
Ni7 O16 2.050660 1_655
Ni7 O22 2.187009 1_555
Ni7 O21 2.187808 1_555
Ni7 O23 2.199145 1_555
O0 Ti2 1.957398 1_555
O0 Ti0 2.001065 1_555
O0 Ti4 2.108808 1_455
O1 Ti1 1.947487 1_555
O1 Ti0 1.985596 1_555
O1 Ti6 2.171706 1_545
O2 Ti0 1.913460 1_555
O2 Ti5 2.055898 1_554
O3 Ti4 1.894282 1_455
O3 Ti1 2.059935 1_555
O4 Ti5 1.866967 1_554
O4 Ti2 2.126157 1_555
O5 Ti3 1.866582 1_555
O5 Ti5 2.171481 1_455
O6 Ti6 1.933077 1_455
O7 Ti6 1.851942 1_545
O7 Ti0 2.150322 1_655
O8 Ti7 1.959994 1_545
O9 Ti3 1.842815 1_555
O9 Ti4 2.159546 1_555
O10 Ti1 1.861367 1_655
O10 Ti4 2.148990 1_555
O11 Ti2 1.872112 1_655
O11 Ti7 2.197399 1_554
O12 Ti5 1.853135 1_455
O12 Ti0 2.119192 1_556
O13 Ti6 1.876215 1_455
O13 Ti3 2.203465 1_555
O14 Ti4 1.949504 1_555
O14 Ti3 2.059714 1_555
O15 Ti7 1.841935 1_554
O15 Ti0 2.062533 1_565
O16 Ti1 1.944721 1_565
O16 Ti7 2.336207 1_455
O17 Ti7 1.868622 1_545
O17 Ti1 2.129160 1_655
O18 Ti4 1.906169 1_555
O18 Ti2 2.056490 1_655
O19 Ti2 1.988340 1_556
O19 Ti5 2.222485 1_555
O20 Ti3 1.933548 1_655
O20 Ti6 2.320825 1_555
O21 Ti7 1.994822 1_455
O21 Ti2 2.177323 1_556
O22 Ti6 2.011069 1_555
O22 Ti1 2.183462 1_565
O23 Ti5 1.968889 1_555
O23 Ti3 2.266004 1_655
