# generated using pymatgen
data_NaGa3Te5
_symmetry_space_group_name_H-M   'P 1'
_cell_length_a   10.43125090
_cell_length_b   10.43125090
_cell_length_c   10.43125110
_cell_angle_alpha   90.38524418
_cell_angle_beta   90.38524418
_cell_angle_gamma   90.38524085
_symmetry_Int_Tables_number   1
_chemical_formula_structural   NaGa3Te5
_chemical_formula_sum   'Na4 Ga12 Te20'
_cell_volume   1134.95749762
_cell_formula_units_Z   4
loop_
 _symmetry_equiv_pos_site_id
 _symmetry_equiv_pos_as_xyz
  1  'x, y, z'
loop_
 _atom_site_type_symbol
 _atom_site_label
 _atom_site_symmetry_multiplicity
 _atom_site_fract_x
 _atom_site_fract_y
 _atom_site_fract_z
 _atom_site_occupancy
  Na  Na0  1  0.25557868  -0.00000000  0.74442132  1
  Na  Na1  1  0.74442132  0.25557868  0.00000000  1
  Na  Na2  1  0.00000000  0.74442132  0.25557868  1
  Na  Na3  1  0.50000000  0.50000000  0.50000000  1
  Ga  Ga0  1  0.83861040  0.87751302  0.57296044  1
  Ga  Ga1  1  0.57296044  0.83861040  0.87751302  1
  Ga  Ga2  1  0.87751302  0.57296044  0.83861040  1
  Ga  Ga3  1  0.16138960  0.42703956  0.12248698  1
  Ga  Ga4  1  0.12248698  0.16138960  0.42703956  1
  Ga  Ga5  1  0.42703956  0.12248698  0.16138960  1
  Ga  Ga6  1  0.74723869  0.16584602  0.34296636  1
  Ga  Ga7  1  0.34296636  0.74723869  0.16584602  1
  Ga  Ga8  1  0.16584602  0.34296636  0.74723869  1
  Ga  Ga9  1  0.25276131  0.65703364  0.83415398  1
  Ga  Ga10  1  0.83415398  0.25276131  0.65703364  1
  Ga  Ga11  1  0.65703364  0.83415398  0.25276131  1
  Te  Te0  1  0.17416135  0.82583865  0.00000000  1
  Te  Te1  1  0.82583865  0.00000000  0.17416135  1
  Te  Te2  1  0.17395165  0.17395165  0.17395165  1
  Te  Te3  1  0.82604835  0.82604835  0.82604835  1
  Te  Te4  1  -0.00000000  0.17416135  0.82583865  1
  Te  Te5  1  0.92270132  0.50000000  0.07729868  1
  Te  Te6  1  0.07729868  0.92270132  0.50000000  1
  Te  Te7  1  0.50000000  0.07729868  0.92270132  1
  Te  Te8  1  0.74991475  0.68689157  0.43042262  1
  Te  Te9  1  0.43042262  0.74991475  0.68689157  1
  Te  Te10  1  0.68689157  0.43042262  0.74991475  1
  Te  Te11  1  0.25008525  0.56957738  0.31310843  1
  Te  Te12  1  0.31310843  0.25008525  0.56957738  1
  Te  Te13  1  0.56957738  0.31310843  0.25008525  1
  Te  Te14  1  0.67441658  0.07018487  0.57011278  1
  Te  Te15  1  0.57011278  0.67441658  0.07018487  1
  Te  Te16  1  0.07018487  0.57011278  0.67441658  1
  Te  Te17  1  0.32558342  0.42988722  0.92981513  1
  Te  Te18  1  0.92981513  0.32558342  0.42988722  1
  Te  Te19  1  0.42988722  0.92981513  0.32558342  1
loop_
_geom_bond_atom_site_label_1
_geom_bond_atom_site_label_2
_geom_bond_distance
_geom_bond_site_symmetry_2
Na0 Te7 3.239995 1_555
Na0 Te6 3.239995 1_545
Na0 Te9 3.247999 1_545
Na0 Te12 3.247999 1_555
Na0 Te4 3.347264 1_555
Na0 Te0 3.347264 1_546
Na1 Te5 3.239995 1_555
Na1 Te7 3.239995 1_554
Na1 Te13 3.247999 1_555
Na1 Te10 3.247999 1_554
Na1 Te1 3.347264 1_555
Na1 Te4 3.347264 1_654
Na2 Te5 3.239995 1_455
Na2 Te6 3.239995 1_555
Na2 Te11 3.247999 1_555
Na2 Te8 3.247999 1_455
Na2 Te1 3.347264 1_465
Na2 Te0 3.347264 1_555
Na3 Te11 3.331596 1_555
Na3 Te9 3.331596 1_555
Na3 Te10 3.331596 1_555
Na3 Te13 3.331596 1_555
Na3 Te8 3.331596 1_555
Na3 Te12 3.331596 1_555
Ga0 Te8 2.633922 1_555
Ga0 Te6 2.648609 1_655
Ga0 Te14 2.649551 1_565
Ga0 Te3 2.701455 1_555
Ga1 Te9 2.633922 1_555
Ga1 Te7 2.648609 1_565
Ga1 Te15 2.649552 1_556
Ga1 Te3 2.701455 1_555
Ga2 Te10 2.633922 1_555
Ga2 Te5 2.648609 1_556
Ga2 Te16 2.649551 1_655
Ga2 Te3 2.701455 1_555
Ga3 Te11 2.633922 1_555
Ga3 Te5 2.648609 1_455
Ga3 Te17 2.649552 1_554
Ga3 Te2 2.701455 1_555
Ga4 Te12 2.633922 1_555
Ga4 Te6 2.648609 1_545
Ga4 Te18 2.649551 1_455
Ga4 Te2 2.701455 1_555
Ga5 Te13 2.633922 1_555
Ga5 Te7 2.648609 1_554
Ga5 Te19 2.649551 1_545
Ga5 Te2 2.701455 1_555
Ga6 Te1 2.600610 1_555
Ga6 Te13 2.601348 1_555
Ga6 Te18 2.671971 1_555
Ga6 Te14 2.689373 1_555
Ga7 Te0 2.600610 1_555
Ga7 Te11 2.601348 1_555
Ga7 Te19 2.671971 1_555
Ga7 Te15 2.689373 1_555
Ga8 Te4 2.600610 1_555
Ga8 Te12 2.601348 1_555
Ga8 Te17 2.671971 1_555
Ga8 Te16 2.689373 1_555
Ga9 Te0 2.600610 1_556
Ga9 Te9 2.601348 1_555
Ga9 Te16 2.671971 1_555
Ga9 Te17 2.689373 1_555
Ga10 Te4 2.600610 1_655
Ga10 Te10 2.601348 1_555
Ga10 Te14 2.671971 1_555
Ga10 Te18 2.689373 1_555
Ga11 Te1 2.600610 1_565
Ga11 Te8 2.601348 1_555
Ga11 Te15 2.671971 1_555
Ga11 Te19 2.689373 1_555
