# generated using pymatgen
data_MgFe8(OF)8
_symmetry_space_group_name_H-M   'P 1'
_cell_length_a   9.81874235
_cell_length_b   9.80691187
_cell_length_c   3.10630400
_cell_angle_alpha   90.00000000
_cell_angle_beta   90.00000000
_cell_angle_gamma   86.48873232
_symmetry_Int_Tables_number   1
_chemical_formula_structural   MgFe8(OF)8
_chemical_formula_sum   'Mg1 Fe8 O8 F8'
_cell_volume   298.54929965
_cell_formula_units_Z   1
loop_
 _symmetry_equiv_pos_site_id
 _symmetry_equiv_pos_as_xyz
  1  'x, y, z'
loop_
 _atom_site_type_symbol
 _atom_site_label
 _atom_site_symmetry_multiplicity
 _atom_site_fract_x
 _atom_site_fract_y
 _atom_site_fract_z
 _atom_site_occupancy
  Mg  Mg0  1  0.26646000  0.99723800  0.50000000  1
  Fe  Fe0  1  0.99206400  0.98115200  0.00000000  1
  Fe  Fe1  1  0.98258900  0.48688400  0.00000000  1
  Fe  Fe2  1  0.23080000  0.27164400  0.50000000  1
  Fe  Fe3  1  0.18771100  0.70002900  0.50000000  1
  Fe  Fe4  1  0.52106600  0.50807000  0.00000000  1
  Fe  Fe5  1  0.54338100  0.00880700  0.00000000  1
  Fe  Fe6  1  0.75795200  0.28167500  0.50000000  1
  Fe  Fe7  1  0.74728000  0.71483500  0.50000000  1
  O  O0  1  0.07989800  0.38717000  0.50000000  1
  O  O1  1  0.11095900  0.88219400  0.50000000  1
  O  O2  1  0.19548600  0.13574100  0.00000000  1
  O  O3  1  0.14133600  0.61277200  0.00000000  1
  O  O4  1  0.58650800  0.40656400  0.50000000  1
  O  O5  1  0.64399300  0.65211100  0.00000000  1
  O  O6  1  0.83944100  0.35579200  0.00000000  1
  O  O7  1  0.90248400  0.59659000  0.50000000  1
  F  F0  1  0.33979700  0.36100300  0.00000000  1
  F  F1  1  0.36103900  0.89545000  0.00000000  1
  F  F2  1  0.43202700  0.11159600  0.50000000  1
  F  F3  1  0.38976100  0.61413800  0.50000000  1
  F  F4  1  0.62363200  0.89641300  0.50000000  1
  F  F5  1  0.67102800  0.16491100  0.00000000  1
  F  F6  1  0.83960600  0.83918300  0.00000000  1
  F  F7  1  0.89842400  0.10331600  0.50000000  1
loop_
_geom_bond_atom_site_label_1
_geom_bond_atom_site_label_2
_geom_bond_distance
_geom_bond_site_symmetry_2
Mg0 O1 1.953225 1_555
Mg0 O2 2.151027 1_565
Mg0 O2 2.151027 1_566
Fe0 O1 2.139660 1_655
Fe0 O1 2.139660 1_654
Fe0 O2 2.580443 1_665
Fe1 O6 1.962051 1_555
Fe1 O7 2.021082 1_555
Fe1 O7 2.021082 1_554
Fe1 O0 2.041320 1_655
Fe1 O0 2.041320 1_654
Fe1 O3 2.046805 1_655
Fe2 O0 1.809228 1_555
Fe2 O2 2.089364 1_555
Fe2 O2 2.089364 1_556
Fe3 O3 1.843802 1_556
Fe3 O3 1.843802 1_555
Fe3 O1 1.895920 1_555
Fe4 O5 1.913399 1_555
Fe4 O4 1.933327 1_554
Fe4 O4 1.933327 1_555
Fe6 O6 1.911029 1_555
Fe6 O6 1.911029 1_556
Fe6 O4 2.020210 1_555
Fe7 O7 1.857566 1_555
Fe7 O5 1.973721 1_556
Fe7 O5 1.973721 1_555
F0 Fe2 2.107245 1_555
F0 Fe2 2.107245 1_554
F0 Fe4 2.358472 1_555
F1 Mg0 2.039013 1_554
F1 Mg0 2.039013 1_555
F1 Fe5 2.164498 1_565
F2 Mg0 2.030726 1_545
F2 Fe5 2.118692 1_555
F2 Fe5 2.118692 1_556
F2 Fe2 2.446933 1_555
F3 Fe3 2.107271 1_555
F3 Fe4 2.234322 1_556
F3 Fe4 2.234322 1_555
F4 Fe5 2.035120 1_565
F4 Fe5 2.035120 1_566
F4 Fe7 2.092871 1_555
F5 Fe5 2.037036 1_555
F5 Fe6 2.138146 1_555
F5 Fe6 2.138146 1_554
F6 Fe0 2.105842 1_555
F6 Fe7 2.203766 1_554
F6 Fe7 2.203766 1_555
F7 Fe0 2.134954 1_546
F7 Fe0 2.134954 1_545
F7 Fe6 2.160179 1_555
