# generated using pymatgen
data_GdCd2
_symmetry_space_group_name_H-M   'P 1'
_cell_length_a   9.92927972
_cell_length_b   9.92927870
_cell_length_c   6.96160480
_cell_angle_alpha   90.00000000
_cell_angle_beta   90.00000000
_cell_angle_gamma   120.00000340
_symmetry_Int_Tables_number   1
_chemical_formula_structural   GdCd2
_chemical_formula_sum   'Gd8 Cd16'
_cell_volume   594.39538457
_cell_formula_units_Z   8
loop_
 _symmetry_equiv_pos_site_id
 _symmetry_equiv_pos_as_xyz
  1  'x, y, z'
loop_
 _atom_site_type_symbol
 _atom_site_label
 _atom_site_symmetry_multiplicity
 _atom_site_fract_x
 _atom_site_fract_y
 _atom_site_fract_z
 _atom_site_occupancy
  Gd  Gd0_0  1  0.00000000  0.00000000  0.00000000  1
  Gd  Gd0_1  1  0.00000000  0.00000000  0.50000000  1
  Gd  Gd0_2  1  0.00000000  0.50000000  0.00000000  1
  Gd  Gd0_3  1  0.00000000  0.50000000  0.50000000  1
  Gd  Gd0_4  1  0.50000000  0.00000000  0.00000000  1
  Gd  Gd0_5  1  0.50000000  0.00000000  0.50000000  1
  Gd  Gd0_6  1  0.50000000  0.50000000  0.00000000  1
  Gd  Gd0_7  1  0.50000000  0.50000000  0.50000000  1
  Cd  Cd0_0  1  0.33333350  0.16666650  0.24976601  1
  Cd  Cd0_1  1  0.33333350  0.16666650  0.74976601  1
  Cd  Cd0_2  1  0.33333350  0.66666650  0.24976601  1
  Cd  Cd0_3  1  0.33333350  0.66666650  0.74976601  1
  Cd  Cd0_4  1  0.83333350  0.16666650  0.24976601  1
  Cd  Cd0_5  1  0.83333350  0.16666650  0.74976601  1
  Cd  Cd0_6  1  0.83333350  0.66666650  0.24976601  1
  Cd  Cd0_7  1  0.83333350  0.66666650  0.74976601  1
  Cd  Cd1_0  1  0.16666650  0.33333350  0.25023399  1
  Cd  Cd1_1  1  0.16666650  0.33333350  0.75023399  1
  Cd  Cd1_2  1  0.16666650  0.83333350  0.25023399  1
  Cd  Cd1_3  1  0.16666650  0.83333350  0.75023399  1
  Cd  Cd1_4  1  0.66666650  0.33333350  0.25023399  1
  Cd  Cd1_5  1  0.66666650  0.33333350  0.75023399  1
  Cd  Cd1_6  1  0.66666650  0.83333350  0.25023399  1
  Cd  Cd1_7  1  0.66666650  0.83333350  0.75023399  1
loop_
_geom_bond_atom_site_label_1
_geom_bond_atom_site_label_2
_geom_bond_distance
_geom_bond_site_symmetry_2
Cd0_0 Cd1_2 2.866335 1_545
Cd0_0 Cd1_4 2.866335 1_555
Cd0_0 Cd1_0 2.866344 1_555
Cd0_0 Gd0_4 3.352491 1_555
Cd0_0 Gd0_6 3.352494 1_555
Cd0_0 Gd0_0 3.352495 1_555
Cd0_0 Gd0_5 3.354182 1_555
Cd0_0 Gd0_7 3.354185 1_555
Cd0_0 Gd0_1 3.354185 1_555
Cd0_0 Cd0_1 3.480802 1_555
Cd0_0 Cd0_1 3.480802 1_554
Cd0_1 Cd1_3 2.866335 1_545
Cd0_1 Cd1_5 2.866335 1_555
Cd0_1 Cd1_1 2.866344 1_555
Cd0_1 Gd0_5 3.352491 1_555
Cd0_1 Gd0_7 3.352494 1_555
Cd0_1 Gd0_1 3.352495 1_555
Cd0_1 Gd0_4 3.354182 1_556
Cd0_1 Gd0_6 3.354185 1_556
Cd0_1 Gd0_0 3.354185 1_556
Cd0_2 Cd1_0 2.866335 1_555
Cd0_2 Cd1_6 2.866335 1_555
Cd0_2 Cd1_2 2.866344 1_555
Cd0_2 Gd0_6 3.352491 1_555
Cd0_2 Gd0_4 3.352494 1_565
Cd0_2 Gd0_2 3.352495 1_555
Cd0_2 Gd0_7 3.354182 1_555
Cd0_2 Gd0_5 3.354185 1_565
Cd0_2 Gd0_3 3.354185 1_555
Cd0_2 Cd0_3 3.480802 1_555
Cd0_2 Cd0_3 3.480802 1_554
Cd0_3 Cd1_1 2.866335 1_555
Cd0_3 Cd1_7 2.866335 1_555
Cd0_3 Cd1_3 2.866344 1_555
Cd0_3 Gd0_7 3.352491 1_555
Cd0_3 Gd0_5 3.352494 1_565
Cd0_3 Gd0_3 3.352495 1_555
Cd0_3 Gd0_6 3.354182 1_556
Cd0_3 Gd0_4 3.354185 1_566
Cd0_3 Gd0_2 3.354185 1_556
Cd0_4 Cd1_6 2.866335 1_545
Cd0_4 Cd1_0 2.866335 1_655
Cd0_4 Cd1_4 2.866344 1_555
Cd0_4 Gd0_0 3.352491 1_655
Cd0_4 Gd0_2 3.352494 1_655
Cd0_4 Gd0_4 3.352495 1_555
Cd0_4 Gd0_1 3.354182 1_655
Cd0_4 Gd0_3 3.354185 1_655
Cd0_4 Gd0_5 3.354185 1_555
Cd0_4 Cd0_5 3.480802 1_555
Cd0_4 Cd0_5 3.480802 1_554
Cd0_5 Cd1_7 2.866335 1_545
Cd0_5 Cd1_1 2.866335 1_655
Cd0_5 Cd1_5 2.866344 1_555
Cd0_5 Gd0_1 3.352491 1_655
Cd0_5 Gd0_3 3.352494 1_655
Cd0_5 Gd0_5 3.352495 1_555
Cd0_5 Gd0_0 3.354182 1_656
Cd0_5 Gd0_2 3.354185 1_656
Cd0_5 Gd0_4 3.354185 1_556
Cd0_6 Cd1_4 2.866335 1_555
Cd0_6 Cd1_2 2.866335 1_655
Cd0_6 Cd1_6 2.866344 1_555
Cd0_6 Gd0_2 3.352491 1_655
Cd0_6 Gd0_0 3.352494 1_665
Cd0_6 Gd0_6 3.352495 1_555
Cd0_6 Gd0_3 3.354182 1_655
Cd0_6 Gd0_1 3.354185 1_665
Cd0_6 Gd0_7 3.354185 1_555
Cd0_6 Cd0_7 3.480802 1_555
Cd0_6 Cd0_7 3.480802 1_554
Cd0_7 Cd1_5 2.866335 1_555
Cd0_7 Cd1_3 2.866335 1_655
Cd0_7 Cd1_7 2.866344 1_555
Cd0_7 Gd0_3 3.352491 1_655
Cd0_7 Gd0_1 3.352494 1_665
Cd0_7 Gd0_7 3.352495 1_555
Cd0_7 Gd0_2 3.354182 1_656
Cd0_7 Gd0_0 3.354185 1_666
Cd0_7 Gd0_6 3.354185 1_556
Cd1_0 Gd0_3 3.352491 1_555
Cd1_0 Gd0_1 3.352494 1_555
Cd1_0 Gd0_7 3.352495 1_555
Cd1_0 Gd0_2 3.354182 1_555
Cd1_0 Gd0_0 3.354185 1_555
Cd1_0 Gd0_6 3.354185 1_555
Cd1_0 Cd1_1 3.480802 1_554
Cd1_0 Cd1_1 3.480802 1_555
Cd1_1 Gd0_2 3.352491 1_556
Cd1_1 Gd0_0 3.352494 1_556
Cd1_1 Gd0_6 3.352495 1_556
Cd1_1 Gd0_3 3.354182 1_555
Cd1_1 Gd0_1 3.354185 1_555
Cd1_1 Gd0_7 3.354185 1_555
Cd1_2 Gd0_1 3.352491 1_565
Cd1_2 Gd0_3 3.352494 1_555
Cd1_2 Gd0_5 3.352495 1_565
Cd1_2 Gd0_0 3.354182 1_565
Cd1_2 Gd0_2 3.354185 1_555
Cd1_2 Gd0_4 3.354185 1_565
Cd1_2 Cd1_3 3.480802 1_554
Cd1_2 Cd1_3 3.480802 1_555
Cd1_3 Gd0_0 3.352491 1_566
Cd1_3 Gd0_2 3.352494 1_556
Cd1_3 Gd0_4 3.352495 1_566
Cd1_3 Gd0_1 3.354182 1_565
Cd1_3 Gd0_3 3.354185 1_555
Cd1_3 Gd0_5 3.354185 1_565
Cd1_4 Gd0_7 3.352491 1_555
Cd1_4 Gd0_5 3.352494 1_555
Cd1_4 Gd0_3 3.352495 1_655
Cd1_4 Gd0_6 3.354182 1_555
Cd1_4 Gd0_4 3.354185 1_555
Cd1_4 Gd0_2 3.354185 1_655
Cd1_4 Cd1_5 3.480802 1_555
Cd1_4 Cd1_5 3.480802 1_554
Cd1_5 Gd0_6 3.352491 1_556
Cd1_5 Gd0_4 3.352494 1_556
Cd1_5 Gd0_2 3.352495 1_656
Cd1_5 Gd0_7 3.354182 1_555
Cd1_5 Gd0_5 3.354185 1_555
Cd1_5 Gd0_3 3.354185 1_655
Cd1_6 Gd0_5 3.352491 1_565
Cd1_6 Gd0_7 3.352494 1_555
Cd1_6 Gd0_1 3.352495 1_665
Cd1_6 Gd0_4 3.354182 1_565
Cd1_6 Gd0_6 3.354185 1_555
Cd1_6 Gd0_0 3.354185 1_665
Cd1_6 Cd1_7 3.480802 1_554
Cd1_6 Cd1_7 3.480802 1_555
Cd1_7 Gd0_4 3.352491 1_566
Cd1_7 Gd0_6 3.352494 1_556
Cd1_7 Gd0_0 3.352495 1_666
Cd1_7 Gd0_5 3.354182 1_565
Cd1_7 Gd0_7 3.354185 1_555
Cd1_7 Gd0_1 3.354185 1_665
