# generated using pymatgen
data_Na6Ga4Si5Sn4S7O48
_symmetry_space_group_name_H-M   'P 1'
_cell_length_a   17.58502492
_cell_length_b   8.82695487
_cell_length_c   22.60727972
_cell_angle_alpha   90.01655605
_cell_angle_beta   89.85531261
_cell_angle_gamma   120.35048916
_symmetry_Int_Tables_number   1
_chemical_formula_structural   Na6Ga4Si5Sn4S7O48
_chemical_formula_sum   'Na18 Ga12 Si15 Sn12 S21 O144'
_cell_volume   3028.21342720
_cell_formula_units_Z   3
loop_
 _symmetry_equiv_pos_site_id
 _symmetry_equiv_pos_as_xyz
  1  'x, y, z'
loop_
 _atom_site_type_symbol
 _atom_site_label
 _atom_site_symmetry_multiplicity
 _atom_site_fract_x
 _atom_site_fract_y
 _atom_site_fract_z
 _atom_site_occupancy
  Na  Na0  1  0.99928653  0.62430888  0.25450137  1
  Na  Na1  1  0.49682275  0.64177041  0.25186342  1
  Na  Na2  1  0.99708414  0.35750500  0.75024049  1
  Na  Na3  1  0.49960779  0.36435953  0.75173190  1
  Na  Na4  1  0.66482256  0.29961418  0.91679521  1
  Na  Na5  1  0.16648589  0.02875756  0.42803889  1
  Na  Na6  1  0.99874793  0.99293616  0.50324895  1
  Na  Na7  1  0.50822937  0.99799519  0.50319427  1
  Na  Na8  1  0.00662188  0.01566972  0.99893825  1
  Na  Na9  1  0.50126072  0.01052951  0.99736330  1
  Na  Na10  1  0.32793505  0.32024999  0.83470655  1
  Na  Na11  1  0.83175268  0.33246661  0.82482934  1
  Na  Na12  1  0.34069010  0.34447207  0.32972009  1
  Na  Na13  1  0.82375752  0.33074646  0.33635726  1
  Na  Na14  1  0.18463230  0.66248491  0.16812759  1
  Na  Na15  1  0.67377066  0.65256008  0.16452030  1
  Na  Na16  1  0.17433723  0.69648123  0.66675208  1
  Na  Na17  1  0.68312803  0.69254636  0.67372509  1
  Ga  Ga0  1  0.99683948  0.98728829  0.35316953  1
  Ga  Ga1  1  0.50085114  0.01755089  0.85085041  1
  Ga  Ga2  1  0.32038380  0.33728342  0.67652464  1
  Ga  Ga3  1  0.81902421  0.29964560  0.69720010  1
  Ga  Ga4  1  0.33126373  0.35675108  0.19048449  1
  Ga  Ga5  1  0.81609585  0.30067129  0.17089091  1
  Ga  Ga6  1  0.82411531  0.30649293  0.98843267  1
  Ga  Ga7  1  0.32902933  0.34586358  0.49722878  1
  Ga  Ga8  1  0.17096522  0.66422787  0.31804148  1
  Ga  Ga9  1  0.65936365  0.63363855  0.31551251  1
  Ga  Ga10  1  0.16387144  0.69180005  0.81348183  1
  Ga  Ga11  1  0.66777571  0.65305038  0.81091389  1
  Si  Si0  1  0.35030094  0.71428893  0.25281253  1
  Si  Si1  1  0.49732803  0.30414178  0.24719099  1
  Si  Si2  1  0.64300925  0.28882318  0.75226493  1
  Si  Si3  1  0.99991690  0.69221536  0.74661641  1
  Si  Si4  1  0.85234660  0.98855305  0.75306581  1
  Si  Si5  1  0.18508240  0.04439919  0.58358465  1
  Si  Si6  1  0.69456657  0.04673225  0.58303897  1
  Si  Si7  1  0.33391886  0.63192901  0.58313458  1
  Si  Si8  1  0.83215478  0.03805670  0.08178394  1
  Si  Si9  1  0.19426066  0.34129991  0.08390997  1
  Si  Si10  1  0.68442858  0.32872365  0.08203485  1
  Si  Si11  1  0.52229582  0.38002297  0.91317106  1
  Si  Si12  1  0.16351193  0.95490994  0.91728920  1
  Si  Si13  1  0.66499098  0.37335329  0.41681350  1
  Si  Si14  1  0.02411596  0.66590186  0.41105466  1
  Sn  Sn0  1  0.50005649  0.01876643  0.34974979  1
  Sn  Sn1  1  0.00048955  0.97976065  0.84920298  1
  Sn  Sn2  1  0.00149107  0.98916069  0.65053957  1
  Sn  Sn3  1  0.50512300  0.99864443  0.64519645  1
  Sn  Sn4  1  0.00029207  0.01093699  0.14279124  1
  Sn  Sn5  1  0.50074289  0.01345378  0.14968524  1
  Sn  Sn6  1  0.33010039  0.32611637  0.97600932  1
  Sn  Sn7  1  0.83174882  0.33763662  0.47739271  1
  Sn  Sn8  1  0.16620829  0.66415617  0.01790587  1
  Sn  Sn9  1  0.66677817  0.65907890  0.02130520  1
  Sn  Sn10  1  0.16565377  0.67477226  0.52303708  1
  Sn  Sn11  1  0.66611994  0.66666805  0.51937415  1
  S  S0  1  0.14307704  0.00082805  0.25114394  1
  S  S1  1  0.65490652  0.00614869  0.25196123  1
  S  S2  1  0.85469107  0.70937410  0.24995861  1
  S  S3  1  0.99820852  0.28766734  0.25389399  1
  S  S4  1  0.15488063  0.30430117  0.75233555  1
  S  S5  1  0.49486664  0.70215204  0.75293621  1
  S  S6  1  0.35235250  0.99858919  0.74958979  1
  S  S7  1  0.47612969  0.33485596  0.58454439  1
  S  S8  1  0.97572236  0.32651147  0.58390128  1
  S  S9  1  0.83413127  0.62579237  0.58367632  1
  S  S10  1  0.47637159  0.62596671  0.08458216  1
  S  S11  1  0.97696742  0.61655713  0.08631775  1
  S  S12  1  0.33272616  0.04349834  0.08482976  1
  S  S13  1  0.31445006  0.67627202  0.91084150  1
  S  S14  1  0.81514092  0.66208587  0.91863283  1
  S  S15  1  0.01483574  0.36904671  0.91563364  1
  S  S16  1  0.66645058  0.95542279  0.91544271  1
  S  S17  1  0.31417209  0.96456405  0.41740579  1
  S  S18  1  0.81346226  0.95274096  0.41079721  1
  S  S19  1  0.16619572  0.37178130  0.41431608  1
  S  S20  1  0.51527288  0.66139798  0.41519262  1
  O  O0  1  0.10274366  0.02782560  0.30544941  1
  O  O1  1  0.61437728  0.03630351  0.30534983  1
  O  O2  1  0.42120420  0.79795712  0.30799054  1
  O  O3  1  0.91359992  0.79564062  0.30223376  1
  O  O4  1  0.47822513  0.18893331  0.30756034  1
  O  O5  1  0.98759890  0.17687201  0.30618696  1
  O  O6  1  0.11462919  0.19268765  0.80555911  1
  O  O7  1  0.60239516  0.17039859  0.81246976  1
  O  O8  1  0.47958132  0.78552891  0.80482776  1
  O  O9  1  0.98126504  0.76882844  0.80736810  1
  O  O10  1  0.40841504  0.02696476  0.80267388  1
  O  O11  1  0.92406878  0.04636975  0.80795115  1
  O  O12  1  0.39018254  0.97032845  0.69507726  1
  O  O13  1  0.89590811  0.95624999  0.69275491  1
  O  O14  1  0.09684490  0.22942352  0.69894830  1
  O  O15  1  0.57186218  0.20180468  0.69685531  1
  O  O16  1  0.03220088  0.83170932  0.69165505  1
  O  O17  1  0.50503395  0.80065263  0.69688814  1
  O  O18  1  0.39509426  0.83010018  0.19238915  1
  O  O19  1  0.89651832  0.81530927  0.19534614  1
  O  O20  1  0.01103686  0.21002641  0.19832147  1
  O  O21  1  0.52801826  0.23034395  0.19159162  1
  O  O22  1  0.08202265  0.96291930  0.19923084  1
  O  O23  1  0.59590314  0.96377833  0.19898842  1
  O  O24  1  0.43580226  0.35376617  0.63976748  1
  O  O25  1  0.93812592  0.35286926  0.63727905  1
  O  O26  1  0.24724222  0.13276161  0.64056584  1
  O  O27  1  0.75413589  0.13755112  0.63986391  1
  O  O28  1  0.32240299  0.52242182  0.64303591  1
  O  O29  1  0.82860851  0.52679796  0.63589471  1
  O  O30  1  0.43987802  0.52474273  0.13954744  1
  O  O31  1  0.93668739  0.51681724  0.14255299  1
  O  O32  1  0.32636101  0.12909827  0.13757506  1
  O  O33  1  0.82395264  0.11924943  0.14473194  1
  O  O34  1  0.25066580  0.36710751  0.14283015  1
  O  O35  1  0.74410627  0.36769524  0.14160599  1
  O  O36  1  0.23425372  0.31501892  0.02278135  1
  O  O37  1  0.72825654  0.31033938  0.02026152  1
  O  O38  1  0.42402999  0.54186628  0.03059675  1
  O  O39  1  0.92461341  0.53489628  0.03316652  1
  O  O40  1  0.34561832  0.14263948  0.02871811  1
  O  O41  1  0.85492089  0.16447799  0.02479091  1
  O  O42  1  0.22790028  0.14652846  0.51988875  1
  O  O43  1  0.73272170  0.14929775  0.52000390  1
  O  O44  1  0.35703934  0.55792350  0.52350261  1
  O  O45  1  0.84758043  0.55536099  0.52661344  1
  O  O46  1  0.42483463  0.31738539  0.53014160  1
  O  O47  1  0.92611592  0.30714388  0.52785514  1
  O  O48  1  0.27996488  0.70625876  0.96843142  1
  O  O49  1  0.77786238  0.69219366  0.97355773  1
  O  O50  1  0.07057611  0.44885554  0.97059696  1
  O  O51  1  0.58757103  0.45830583  0.97098435  1
  O  O52  1  0.14761645  0.84063301  0.97849484  1
  O  O53  1  0.65802469  0.85878446  0.97156966  1
  O  O54  1  0.27496530  0.85792945  0.47148572  1
  O  O55  1  0.77773518  0.85255205  0.46714026  1
  O  O56  1  0.15351271  0.45057585  0.46840057  1
  O  O57  1  0.64849715  0.45834825  0.47659689  1
  O  O58  1  0.09148023  0.71844769  0.46729529  1
  O  O59  1  0.57179197  0.69161744  0.46857386  1
  O  O60  1  0.06877281  0.64233072  0.35046584  1
  O  O61  1  0.55913650  0.64938230  0.35977501  1
  O  O62  1  0.25773018  0.88199261  0.36434245  1
  O  O63  1  0.75686779  0.86566792  0.35935861  1
  O  O64  1  0.18055185  0.48004940  0.36097522  1
  O  O65  1  0.68222819  0.49220592  0.35837803  1
  O  O66  1  0.05991732  0.47118951  0.86171554  1
  O  O67  1  0.56740741  0.49620906  0.85427662  1
  O  O68  1  0.18050978  0.86717962  0.86048541  1
  O  O69  1  0.67941968  0.87297290  0.86356305  1
  O  O70  1  0.25554245  0.64659655  0.86078457  1
  O  O71  1  0.75930333  0.63213485  0.86635851  1
  O  O72  1  0.01491760  0.84405649  0.40596336  1
  O  O73  1  0.50470935  0.81812869  0.41221982  1
  O  O74  1  0.40078583  0.97460135  0.41277633  1
  O  O75  1  0.90327584  0.97340371  0.40554132  1
  O  O76  1  0.08496614  0.19306551  0.40799806  1
  O  O77  1  0.57729759  0.17495337  0.41298796  1
  O  O78  1  0.00329481  0.19037214  0.91324596  1
  O  O79  1  0.50940905  0.18088563  0.90978332  1
  O  O80  1  0.07698962  0.97995680  0.91356060  1
  O  O81  1  0.58550944  0.97115208  0.91271336  1
  O  O82  1  0.40374144  0.83295550  0.90419204  1
  O  O83  1  0.90288869  0.82459612  0.91400721  1
  O  O84  1  0.48495645  0.17647665  0.58582599  1
  O  O85  1  0.98413128  0.16642122  0.58663766  1
  O  O86  1  0.09051749  0.04187770  0.58610485  1
  O  O87  1  0.59627070  0.02559840  0.58686360  1
  O  O88  1  0.41644191  0.83376941  0.58835871  1
  O  O89  1  0.91117042  0.81045405  0.58437206  1
  O  O90  1  0.48335073  0.80099859  0.08848640  1
  O  O91  1  0.98900961  0.79683180  0.09064751  1
  O  O92  1  0.41003297  0.01443905  0.08556059  1
  O  O93  1  0.91523652  0.00164172  0.08504807  1
  O  O94  1  0.09663622  0.16166764  0.08833567  1
  O  O95  1  0.58986393  0.13999729  0.08614656  1
  O  O96  1  0.34627811  0.16100101  0.74527983  1
  O  O97  1  0.84766928  0.16655039  0.74822163  1
  O  O98  1  0.24181541  0.31616075  0.74516225  1
  O  O99  1  0.73873905  0.31165019  0.74658747  1
  O  O100  1  0.41806829  0.51748684  0.74735585  1
  O  O101  1  0.91483370  0.50118014  0.73553920  1
  O  O102  1  0.34156228  0.52128286  0.24865211  1
  O  O103  1  0.84862813  0.53555790  0.24572726  1
  O  O104  1  0.40988683  0.32155967  0.23762183  1
  O  O105  1  0.92033104  0.30998601  0.24945520  1
  O  O106  1  0.22995698  0.15603040  0.24431985  1
  O  O107  1  0.74187411  0.16895719  0.24413178  1
  O  O108  1  0.32371922  0.51794458  0.91637759  1
  O  O109  1  0.82497742  0.50434974  0.92449454  1
  O  O110  1  0.42802287  0.37369812  0.92133220  1
  O  O111  1  0.92939514  0.36372732  0.92182916  1
  O  O112  1  0.25092918  0.15102231  0.91779434  1
  O  O113  1  0.74528084  0.14122904  0.91979490  1
  O  O114  1  0.32437816  0.14115382  0.42267023  1
  O  O115  1  0.82482338  0.13115896  0.41541609  1
  O  O116  1  0.24358810  0.34536579  0.41901198  1
  O  O117  1  0.75249834  0.35380404  0.41830322  1
  O  O118  1  0.42957060  0.49625728  0.42079527  1
  O  O119  1  0.92939705  0.48621846  0.41978763  1
  O  O120  1  0.18123222  0.51552538  0.07806630  1
  O  O121  1  0.66992701  0.49728742  0.08170112  1
  O  O122  1  0.06680708  0.63655490  0.08323932  1
  O  O123  1  0.56568328  0.64918350  0.07840518  1
  O  O124  1  0.25026504  0.86578193  0.08082124  1
  O  O125  1  0.73885974  0.85326724  0.07687708  1
  O  O126  1  0.17015054  0.84585767  0.58214257  1
  O  O127  1  0.68190148  0.84560241  0.57796719  1
  O  O128  1  0.24004245  0.62804766  0.57622731  1
  O  O129  1  0.75141395  0.63596579  0.57953519  1
  O  O130  1  0.06612593  0.48387615  0.57734430  1
  O  O131  1  0.56585028  0.49530625  0.58117627  1
  O  O132  1  0.14900979  0.83901406  0.25506617  1
  O  O133  1  0.66559194  0.85179171  0.26034094  1
  O  O134  1  0.25424002  0.69873390  0.26166667  1
  O  O135  1  0.76848267  0.69695787  0.25577024  1
  O  O136  1  0.07899539  0.46526100  0.25699115  1
  O  O137  1  0.58101056  0.50905450  0.25516090  1
  O  O138  1  0.16599670  0.48035895  0.76056391  1
  O  O139  1  0.64764783  0.47880618  0.75440536  1
  O  O140  1  0.08433634  0.65786830  0.75459219  1
  O  O141  1  0.57623746  0.69184233  0.75732348  1
  O  O142  1  0.26406975  0.83908005  0.75598085  1
  O  O143  1  0.75566389  0.81977434  0.76281135  1
loop_
_geom_bond_atom_site_label_1
_geom_bond_atom_site_label_2
_geom_bond_distance
_geom_bond_site_symmetry_2
Na0 O132 2.341274 1_655
Na0 O103 2.361598 1_555
Na0 O105 2.397151 1_555
Na0 O136 2.434734 1_655
Na0 O60 2.458018 1_655
Na0 O31 2.733935 1_555
Na0 O3 2.831220 1_555
Na0 O22 2.865305 1_655
Na1 O137 2.307139 1_555
Na1 O102 2.378489 1_555
Na1 O104 2.462729 1_555
Na1 O133 2.593066 1_555
Na1 O61 2.663805 1_555
Na1 O2 2.668729 1_555
Na1 O30 2.735531 1_555
Na1 O23 2.744140 1_555
Na2 O97 2.296024 1_555
Na2 O140 2.298441 1_655
Na2 O101 2.380592 1_555
Na2 O138 2.607968 1_655
Na2 O11 2.706179 1_555
Na2 O66 2.733329 1_655
Na2 O25 2.751122 1_555
Na2 O14 2.773744 1_655
Na3 O139 2.268118 1_555
Na3 O96 2.371535 1_555
Na3 O100 2.419115 1_555
Na3 O141 2.500400 1_555
Na3 O67 2.600084 1_555
Na3 O15 2.654390 1_555
Na3 O24 2.753704 1_555
Na3 O10 2.816682 1_555
Na4 O79 2.387490 1_555
Na4 O113 2.441417 1_555
Na4 O109 2.467136 1_555
Na4 O81 2.504756 1_545
Na4 O37 2.575064 1_556
Na4 O7 2.610520 1_555
Na4 O51 2.687378 1_555
Na4 O71 2.782054 1_555
Na5 O42 2.331155 1_555
Na5 O72 2.371912 1_545
Na5 O116 2.420729 1_555
Na5 O114 2.433676 1_555
Na5 O58 2.524763 1_545
Na5 O76 2.543325 1_555
Na6 O86 2.368508 1_665
Na6 O89 2.410460 1_555
Na6 O85 2.521644 1_565
Na6 O72 2.649121 1_655
Na6 O76 2.708390 1_665
Na6 O75 2.730129 1_555
Na7 O87 2.380659 1_565
Na7 O88 2.456612 1_555
Na7 O77 2.479104 1_565
Na7 O73 2.579522 1_555
Na7 O84 2.604853 1_565
Na7 O74 2.723197 1_555
Na8 O80 2.395386 1_545
Na8 O93 2.484099 1_456
Na8 O94 2.490805 1_556
Na8 O78 2.495587 1_555
Na8 O83 2.601045 1_445
Na8 O91 2.742320 1_446
Na9 O95 2.444859 1_556
Na9 O79 2.446313 1_555
Na9 O81 2.546303 1_545
Na9 O92 2.567134 1_556
Na9 O82 2.671014 1_545
Na9 O90 2.678426 1_546
Na10 O112 2.353296 1_555
Na10 O110 2.516603 1_555
Na10 O98 2.520509 1_555
Na10 O108 2.566689 1_555
Na10 O96 2.573038 1_555
Na10 O100 2.576915 1_555
Na11 O99 2.355544 1_555
Na11 O97 2.373392 1_555
Na11 O101 2.493018 1_555
Na11 O113 2.676301 1_555
Na11 O111 2.715339 1_555
Na11 O109 2.751759 1_555
Na12 O102 2.402547 1_555
Na12 O104 2.468266 1_555
Na12 O118 2.525015 1_555
Na12 O116 2.643272 1_555
Na12 O106 2.651399 1_555
Na12 O114 2.682858 1_555
Na13 O117 2.299891 1_555
Na13 O119 2.516277 1_555
Na13 O115 2.516730 1_555
Na13 O107 2.528890 1_555
Na13 O103 2.618435 1_555
Na13 O105 2.659849 1_555
Na14 O134 2.385241 1_555
Na14 O120 2.398434 1_555
Na14 O124 2.519031 1_555
Na14 O136 2.689322 1_555
Na14 O122 2.751163 1_555
Na14 O132 2.768005 1_555
Na15 O121 2.300908 1_555
Na15 O125 2.513156 1_555
Na15 O137 2.522067 1_555
Na15 O135 2.557420 1_555
Na15 O123 2.713885 1_555
Na15 O133 2.838632 1_555
Na16 O126 2.345848 1_555
Na16 O140 2.450285 1_555
Na16 O142 2.480095 1_555
Na16 O128 2.565310 1_555
Na16 O130 2.763468 1_555
Na16 O138 2.806558 1_555
Na17 O143 2.347008 1_555
Na17 O139 2.466234 1_555
Na17 O127 2.558039 1_555
Na17 O129 2.611162 1_555
Na17 O141 2.659946 1_555
Na17 O131 2.837808 1_555
Ga0 O72 1.879624 1_655
Ga0 O3 1.958402 1_555
Ga0 O75 1.977467 1_555
Ga0 O0 2.019110 1_665
Ga0 O5 2.057107 1_565
Ga0 O76 2.097865 1_665
Ga1 O7 1.822065 1_555
Ga1 O79 1.912323 1_555
Ga1 O10 1.995206 1_555
Ga1 O82 2.050405 1_545
Ga1 O8 2.154885 1_545
Ga1 O81 2.228674 1_545
Ga2 O28 1.785223 1_555
Ga2 O26 1.797827 1_555
Ga2 O98 2.020018 1_555
Ga2 O24 2.127029 1_555
Ga2 O100 2.301356 1_555
Ga2 O96 2.401180 1_555
Ga3 O27 1.840078 1_555
Ga3 O99 1.842339 1_555
Ga3 O97 1.888434 1_555
Ga3 O101 1.931854 1_555
Ga3 O25 2.331096 1_555
Ga3 O29 2.372437 1_555
Ga4 O34 1.821125 1_555
Ga4 O104 1.893489 1_555
Ga4 O102 1.898835 1_555
Ga4 O30 2.073803 1_555
Ga4 O106 2.143505 1_555
Ga4 O32 2.302227 1_555
Ga5 O35 1.775460 1_555
Ga5 O33 1.776498 1_555
Ga5 O107 2.062408 1_555
Ga5 O31 2.110128 1_555
Ga5 O103 2.508492 1_555
Ga5 O105 2.526904 1_555
Ga6 O41 1.797106 1_556
Ga6 O37 1.847197 1_556
Ga6 O113 2.103222 1_555
Ga6 O39 2.148912 1_556
Ga6 O111 2.234074 1_555
Ga6 O109 2.261496 1_555
Ga7 O44 1.779976 1_555
Ga7 O42 1.831576 1_555
Ga7 O46 1.972205 1_555
Ga7 O116 2.321853 1_555
Ga7 O118 2.342652 1_555
Ga7 O114 2.441827 1_555
Ga8 O134 1.844332 1_555
Ga8 O60 1.856477 1_555
Ga8 O64 1.972874 1_555
Ga8 O62 2.039983 1_555
Ga8 O136 2.178176 1_555
Ga8 O132 2.272074 1_555
Ga9 O65 1.780238 1_555
Ga9 O137 1.856535 1_555
Ga9 O61 2.089391 1_555
Ga9 O63 2.139105 1_555
Ga9 O135 2.173035 1_555
Ga9 O133 2.250180 1_555
Ga10 O68 1.775999 1_555
Ga10 O140 1.845034 1_555
Ga10 O142 2.039382 1_555
Ga10 O70 2.135517 1_555
Ga10 O66 2.171762 1_555
Ga10 O138 2.232701 1_555
Ga11 O143 1.852269 1_555
Ga11 O67 1.874973 1_555
Ga11 O139 1.890471 1_555
Ga11 O71 2.122824 1_555
Ga11 O141 2.177914 1_555
Ga11 O69 2.196650 1_555
O0 S0 1.494434 1_555
O1 S1 1.490893 1_555
O1 Sn0 2.179072 1_555
O2 Si0 1.653134 1_555
O2 Sn0 1.971598 1_565
O3 S2 1.502699 1_555
O4 Si1 1.631844 1_555
O4 Sn0 1.974510 1_555
O5 S3 1.484596 1_555
O6 S4 1.486973 1_555
O6 Sn1 2.171039 1_545
O7 Si2 1.642176 1_555
O8 S5 1.479169 1_555
O9 Si3 1.634797 1_555
O9 Sn1 1.959568 1_655
O10 S6 1.493696 1_545
O11 Si4 1.657661 1_545
O11 Sn1 1.956148 1_645
O12 S6 1.478824 1_555
O12 Sn3 2.213052 1_555
O13 Si4 1.656013 1_555
O13 Sn2 1.971957 1_655
O14 S4 1.503059 1_555
O14 Sn2 2.218393 1_545
O15 Si2 1.661522 1_555
O15 Sn3 1.958566 1_545
O16 Si3 1.634988 1_455
O16 Sn2 1.961881 1_555
O17 S5 1.495276 1_555
O17 Sn3 2.101996 1_555
O18 Si0 1.647144 1_555
O18 Sn5 1.989019 1_565
O19 S2 1.496913 1_555
O19 Sn4 2.128222 1_665
O20 S3 1.501092 1_455
O20 Sn4 2.089103 1_555
O21 Si1 1.626930 1_555
O21 Sn5 1.966242 1_555
O22 S0 1.511663 1_565
O22 Sn4 2.120971 1_565
O23 S1 1.504817 1_565
O23 Sn5 2.232957 1_565
O24 S7 1.484727 1_555
O25 S8 1.448679 1_555
O26 Si5 1.614793 1_555
O27 Si6 1.596206 1_555
O28 Si7 1.615792 1_555
O29 S9 1.442520 1_555
O30 S10 1.473574 1_555
O31 S11 1.502994 1_555
O32 S12 1.445544 1_555
O33 Si8 1.631700 1_555
O34 Si9 1.608781 1_555
O35 Si10 1.635667 1_555
O36 Si9 1.618019 1_555
O36 Sn6 1.947478 1_554
O37 Si10 1.640564 1_555
O38 S10 1.484064 1_555
O38 Sn6 2.169808 1_554
O39 S11 1.464743 1_555
O40 S12 1.491673 1_555
O40 Sn6 2.136978 1_554
O41 Si8 1.616297 1_555
O42 Si5 1.662081 1_555
O43 Si6 1.637878 1_555
O43 Sn7 1.947063 1_555
O44 Si7 1.635412 1_555
O45 S9 1.501072 1_555
O45 Sn7 2.113959 1_555
O46 S7 1.488288 1_555
O47 S8 1.500118 1_555
O47 Sn7 2.142148 1_555
O48 S13 1.513576 1_555
O48 Sn8 2.151376 1_556
O49 S14 1.487935 1_555
O49 Sn9 2.116360 1_556
O50 S15 1.519496 1_555
O50 Sn8 2.088497 1_556
O51 Si11 1.645849 1_555
O51 Sn9 1.971614 1_556
O52 Si12 1.650503 1_555
O52 Sn8 1.960681 1_556
O53 S16 1.493854 1_555
O53 Sn9 2.161390 1_556
O54 S17 1.482112 1_555
O54 Sn10 2.125142 1_555
O55 S18 1.494792 1_555
O55 Sn11 2.161928 1_555
O56 S19 1.477627 1_555
O56 Sn10 2.249561 1_555
O57 Si13 1.640426 1_555
O57 Sn11 1.958872 1_555
O58 Si14 1.639208 1_555
O58 Sn10 1.988648 1_555
O59 S20 1.501099 1_555
O59 Sn11 2.120818 1_555
O60 Si14 1.641860 1_555
O61 S20 1.501182 1_555
O62 S17 1.493277 1_555
O63 S18 1.471671 1_555
O64 S19 1.478695 1_555
O65 Si13 1.617138 1_555
O66 S15 1.483450 1_555
O67 Si11 1.620838 1_555
O68 Si12 1.602982 1_555
O69 S16 1.457108 1_555
O70 S13 1.467602 1_555
O71 S14 1.474442 1_555
O72 Si14 1.664218 1_555
O73 S20 1.487547 1_555
O73 Sn0 2.299174 1_565
O74 S17 1.483738 1_555
O74 Sn0 2.128288 1_565
O75 S18 1.499921 1_555
O76 S19 1.507667 1_555
O77 Si13 1.650415 1_555
O77 Sn0 1.976301 1_555
O78 S15 1.485952 1_555
O78 Sn1 2.336855 1_545
O79 Si11 1.656640 1_555
O80 Si12 1.646675 1_555
O80 Sn1 1.983463 1_555
O81 S16 1.499725 1_555
O82 S13 1.484998 1_555
O83 S14 1.487293 1_555
O83 Sn1 2.140296 1_655
O84 S7 1.482799 1_555
O84 Sn3 2.226536 1_545
O85 S8 1.494602 1_555
O85 Sn2 2.261555 1_645
O86 Si5 1.652630 1_555
O86 Sn2 2.010487 1_545
O87 Si6 1.644232 1_555
O87 Sn3 1.992211 1_545
O88 Si7 1.637685 1_555
O88 Sn3 1.979018 1_555
O89 S9 1.503654 1_555
O89 Sn2 2.174236 1_655
O90 S10 1.489372 1_555
O90 Sn5 2.223872 1_565
O91 S11 1.498687 1_555
O91 Sn4 2.149809 1_665
O92 S12 1.505543 1_555
O92 Sn5 2.161440 1_555
O93 Si8 1.648759 1_555
O93 Sn4 1.957997 1_655
O94 Si9 1.649149 1_555
O94 Sn4 1.966874 1_555
O95 Si10 1.657976 1_555
O95 Sn5 1.996903 1_555
O96 S6 1.493655 1_545
O97 Si4 1.618051 1_545
O98 S4 1.487066 1_555
O99 Si2 1.595959 1_555
O100 S5 1.507604 1_555
O101 Si3 1.611449 1_555
O102 Si0 1.634110 1_555
O103 S2 1.486322 1_555
O104 Si1 1.635675 1_555
O105 S3 1.482465 1_555
O106 S0 1.455512 1_555
O107 S1 1.487673 1_555
O108 S13 1.491907 1_555
O108 Sn6 2.211610 1_555
O109 S14 1.493208 1_555
O110 Si11 1.640232 1_555
O110 Sn6 1.981968 1_555
O111 S15 1.485564 1_655
O112 Si12 1.634229 1_545
O112 Sn6 1.972981 1_555
O113 S16 1.524547 1_545
O114 S17 1.481001 1_545
O115 S18 1.487660 1_545
O115 Sn7 2.252735 1_555
O116 S19 1.496411 1_555
O117 Si13 1.633245 1_555
O117 Sn7 1.989359 1_555
O118 S20 1.480284 1_555
O119 Si14 1.630240 1_655
O119 Sn7 2.019518 1_555
O120 Si9 1.670734 1_555
O120 Sn8 1.998482 1_555
O121 Si10 1.631689 1_555
O121 Sn9 1.997077 1_555
O122 S11 1.499835 1_455
O122 Sn8 2.202981 1_555
O123 S10 1.483835 1_555
O123 Sn9 2.160083 1_555
O124 S12 1.507826 1_565
O124 Sn8 2.173952 1_555
O125 Si8 1.631235 1_565
O125 Sn9 1.983503 1_555
O126 Si5 1.635939 1_565
O126 Sn10 1.987713 1_555
O127 Si6 1.677824 1_565
O127 Sn11 1.970785 1_555
O128 Si7 1.641616 1_555
O128 Sn10 1.969956 1_555
O129 S9 1.505107 1_555
O129 Sn11 2.143419 1_555
O130 S8 1.498689 1_455
O130 Sn10 2.102351 1_555
O131 S7 1.497404 1_555
O131 Sn11 2.154666 1_555
O132 S0 1.486462 1_565
O133 S1 1.478737 1_565
O134 Si0 1.635955 1_555
O135 S2 1.469203 1_555
O136 S3 1.493452 1_455
O137 Si1 1.667590 1_555
O138 S4 1.476794 1_555
O139 Si2 1.637976 1_555
O140 Si3 1.668665 1_455
O141 S5 1.482543 1_555
O142 S6 1.484399 1_555
O143 Si4 1.611588 1_555
