# generated using pymatgen
data_MgFe8(OF)8
_symmetry_space_group_name_H-M   'P 1'
_cell_length_a   9.85613334
_cell_length_b   9.75716420
_cell_length_c   3.06978901
_cell_angle_alpha   88.92591597
_cell_angle_beta   90.39189764
_cell_angle_gamma   90.99402033
_symmetry_Int_Tables_number   1
_chemical_formula_structural   MgFe8(OF)8
_chemical_formula_sum   'Mg1 Fe8 O8 F8'
_cell_volume   295.11264059
_cell_formula_units_Z   1
loop_
 _symmetry_equiv_pos_site_id
 _symmetry_equiv_pos_as_xyz
  1  'x, y, z'
loop_
 _atom_site_type_symbol
 _atom_site_label
 _atom_site_symmetry_multiplicity
 _atom_site_fract_x
 _atom_site_fract_y
 _atom_site_fract_z
 _atom_site_occupancy
  Mg  Mg0  1  0.98912600  0.75369200  0.04340700  1
  Fe  Fe0  1  0.01827700  0.02946000  0.00219300  1
  Fe  Fe1  1  0.01819400  0.48039500  0.94591300  1
  Fe  Fe2  1  0.23745800  0.25271700  0.49062500  1
  Fe  Fe3  1  0.25515400  0.72754000  0.51439600  1
  Fe  Fe4  1  0.52149800  0.48397500  0.00225500  1
  Fe  Fe5  1  0.50267500  0.00505400  0.01210300  1
  Fe  Fe6  1  0.75989600  0.28336100  0.49477300  1
  Fe  Fe7  1  0.72705600  0.72147900  0.51990500  1
  O  O0  1  0.10247900  0.39073300  0.46451900  1
  O  O1  1  0.05381600  0.90290100  0.51089300  1
  O  O2  1  0.16449400  0.15070100  0.99478700  1
  O  O3  1  0.14759300  0.63967700  0.99113800  1
  O  O4  1  0.59572900  0.38969900  0.50670500  1
  O  O5  1  0.63972200  0.64237700  0.01959000  1
  O  O6  1  0.85326000  0.36238300  0.99078000  1
  O  O7  1  0.90518500  0.63624700  0.54412100  1
  F  F0  1  0.34966800  0.34524000  0.99278500  1
  F  F1  1  0.34797500  0.84819900  0.03603900  1
  F  F2  1  0.40564100  0.11320000  0.50550600  1
  F  F3  1  0.40983300  0.57433600  0.50024600  1
  F  F4  1  0.59513400  0.89485200  0.51729500  1
  F  F5  1  0.67157500  0.15570600  0.00412500  1
  F  F6  1  0.81580100  0.85498400  0.02107300  1
  F  F7  1  0.90581700  0.11803500  0.49983000  1
loop_
_geom_bond_atom_site_label_1
_geom_bond_atom_site_label_2
_geom_bond_distance
_geom_bond_site_symmetry_2
Mg0 O3 1.942465 1_654
Mg0 O7 2.068511 1_555
Mg0 O7 2.088641 1_554
Mg0 O1 2.149212 1_655
Mg0 O1 2.256354 1_654
Fe0 O2 1.848537 1_554
Fe0 O1 2.003560 1_544
Fe0 O1 2.005342 1_545
Fe1 O0 1.931260 1_555
Fe1 O6 1.979803 1_455
Fe1 O0 1.986169 1_556
Fe1 O3 1.999525 1_555
Fe1 O7 2.245894 1_455
Fe1 O7 2.667728 1_456
Fe2 O0 1.909559 1_555
Fe2 O2 1.958541 1_555
Fe2 O2 1.960050 1_554
Fe3 O3 1.985779 1_555
Fe3 O3 2.106137 1_554
Fe3 O1 2.642433 1_555
Fe4 O5 1.920699 1_555
Fe4 O4 1.932332 1_555
Fe4 O4 1.945926 1_554
Fe6 O4 1.938154 1_555
Fe6 O6 1.939052 1_555
Fe6 O6 1.945530 1_554
Fe7 O5 1.907928 1_556
Fe7 O5 1.923227 1_555
Fe7 O7 1.956024 1_555
F0 Fe2 2.076166 1_556
F0 Fe2 2.099674 1_555
F0 Fe4 2.150049 1_556
F1 Fe3 2.072566 1_555
F1 Fe5 2.142172 1_565
F1 Fe3 2.191007 1_554
F2 Fe5 2.097554 1_556
F2 Fe5 2.106419 1_555
F2 Fe2 2.162839 1_555
F3 Fe4 2.079188 1_556
F3 Fe4 2.105432 1_555
F3 Fe3 2.154773 1_555
F4 Fe5 2.084193 1_565
F4 Fe5 2.099529 1_566
F4 Fe7 2.151270 1_555
F5 Fe6 2.143023 1_555
F5 Fe6 2.159170 1_554
F5 Fe5 2.201556 1_555
F6 Mg0 1.988531 1_555
F6 Fe7 2.170445 1_555
F6 Fe7 2.201370 1_554
F6 Fe0 2.600778 1_665
F7 Fe0 2.076925 1_656
F7 Fe0 2.101212 1_655
F7 Fe6 2.179471 1_555
