# generated using pymatgen
data_Na3LaHf3(PO4)6
_symmetry_space_group_name_H-M   'P 1'
_cell_length_a   9.05017676
_cell_length_b   9.06627121
_cell_length_c   23.29409533
_cell_angle_alpha   89.82664544
_cell_angle_beta   90.15569431
_cell_angle_gamma   120.35264383
_symmetry_Int_Tables_number   1
_chemical_formula_structural   Na3LaHf3(PO4)6
_chemical_formula_sum   'Na9 La3 Hf9 P18 O72'
_cell_volume   1649.32256645
_cell_formula_units_Z   3
loop_
 _symmetry_equiv_pos_site_id
 _symmetry_equiv_pos_as_xyz
  1  'x, y, z'
loop_
 _atom_site_type_symbol
 _atom_site_label
 _atom_site_symmetry_multiplicity
 _atom_site_fract_x
 _atom_site_fract_y
 _atom_site_fract_z
 _atom_site_occupancy
  Na  Na0  1  0.35912263  0.35171330  0.24666843  1
  Na  Na1  1  0.63341047  0.62783387  0.74981525  1
  Na  Na2  1  0.97019640  0.29656463  0.41590330  1
  Na  Na3  1  0.00013741  0.98821975  0.50292616  1
  Na  Na4  1  0.99981373  0.00017001  0.00298976  1
  Na  Na5  1  0.66684279  0.32031870  0.83566646  1
  Na  Na6  1  0.66817112  0.33377481  0.32860791  1
  Na  Na7  1  0.33226681  0.67915260  0.16464214  1
  Na  Na8  1  0.31902094  0.66661806  0.66577226  1
  La  La0  1  0.99507998  0.98227450  0.35592776  1
  La  La1  1  0.66797126  0.32225825  0.68455461  1
  La  La2  1  0.67858619  0.33375744  0.17385954  1
  Hf  Hf0  1  0.00361936  0.00291214  0.85765557  1
  Hf  Hf1  1  0.00307905  0.00395820  0.64693029  1
  Hf  Hf2  1  0.99669258  0.99721199  0.14660542  1
  Hf  Hf3  1  0.66601222  0.33424002  0.98237945  1
  Hf  Hf4  1  0.65995577  0.33419588  0.48379403  1
  Hf  Hf5  1  0.33396449  0.66492809  0.01401850  1
  Hf  Hf6  1  0.33867870  0.66872895  0.52035371  1
  Hf  Hf7  1  0.33666695  0.67579709  0.31380381  1
  Hf  Hf8  1  0.32686764  0.66703408  0.81575980  1
  P  P0  1  0.29183102  0.99190295  0.24802615  1
  P  P1  1  0.69211304  0.70338069  0.24791475  1
  P  P2  1  0.00979046  0.30117317  0.25286515  1
  P  P3  1  0.27929253  0.29338567  0.75320961  1
  P  P4  1  0.01225159  0.72652597  0.75299006  1
  P  P5  1  0.71214951  0.98839380  0.75397648  1
  P  P6  1  0.96803057  0.32939489  0.57985183  1
  P  P7  1  0.35994311  0.03010687  0.58140417  1
  P  P8  1  0.67097240  0.63671799  0.58446258  1
  P  P9  1  0.97562239  0.64341524  0.07867589  1
  P  P10  1  0.66759025  0.02712012  0.07906709  1
  P  P11  1  0.36058567  0.33235089  0.08152926  1
  P  P12  1  0.62281128  0.66192380  0.91471364  1
  P  P13  1  0.03742577  0.37555529  0.91636536  1
  P  P14  1  0.33789681  0.96029801  0.91624466  1
  P  P15  1  0.61375872  0.96601541  0.41974670  1
  P  P16  1  0.34881499  0.39134935  0.41780387  1
  P  P17  1  0.04070127  0.65074193  0.42071452  1
  O  O0  1  0.21838197  0.02167735  0.30263688  1
  O  O1  1  0.78980244  0.77464089  0.30344831  1
  O  O2  1  0.99417878  0.21089733  0.30999059  1
  O  O3  1  0.18552293  0.18567932  0.80622944  1
  O  O4  1  0.00035599  0.82175525  0.80573868  1
  O  O5  1  0.81847255  0.99667101  0.80665822  1
  O  O6  1  0.79940213  0.97190376  0.69848109  1
  O  O7  1  0.17844874  0.20364642  0.69755546  1
  O  O8  1  0.02727294  0.82854375  0.69726976  1
  O  O9  1  0.79406663  0.81634246  0.19529802  1
  O  O10  1  0.02597274  0.19752951  0.20128424  1
  O  O11  1  0.17592483  0.97471040  0.19539732  1
  O  O12  1  0.90299060  0.36943077  0.63433505  1
  O  O13  1  0.46151511  0.09129063  0.63687529  1
  O  O14  1  0.63374565  0.54058018  0.64142555  1
  O  O15  1  0.92543791  0.54826916  0.13549320  1
  O  O16  1  0.62223740  0.07768097  0.13551058  1
  O  O17  1  0.45244605  0.37162567  0.13932678  1
  O  O18  1  0.46859325  0.30920046  0.03358889  1
  O  O19  1  0.84483239  0.53708654  0.03024087  1
  O  O20  1  0.69315555  0.15761282  0.03050184  1
  O  O21  1  0.46072265  0.15496774  0.53110655  1
  O  O22  1  0.69208364  0.53283618  0.53474902  1
  O  O23  1  0.84770834  0.30489504  0.52784753  1
  O  O24  1  0.53327588  0.68869569  0.96566633  1
  O  O25  1  0.15162487  0.46136770  0.96829690  1
  O  O26  1  0.31016657  0.84583394  0.96788074  1
  O  O27  1  0.51855866  0.85743473  0.47168949  1
  O  O28  1  0.34010945  0.49294794  0.46857909  1
  O  O29  1  0.14763263  0.65534838  0.47190964  1
  O  O30  1  0.12869780  0.63779018  0.36453545  1
  O  O31  1  0.51423436  0.87488045  0.36380785  1
  O  O32  1  0.36260997  0.48930706  0.36072386  1
  O  O33  1  0.12609461  0.48907294  0.86269786  1
  O  O34  1  0.36218517  0.87319079  0.86238110  1
  O  O35  1  0.51391341  0.63751855  0.85966541  1
  O  O36  1  0.01827229  0.80534498  0.42400240  1
  O  O37  1  0.79687786  0.99703236  0.42101915  1
  O  O38  1  0.18279829  0.21720359  0.41965396  1
  O  O39  1  0.01810925  0.19644978  0.90952007  1
  O  O40  1  0.17818330  0.98039071  0.90954507  1
  O  O41  1  0.80429592  0.82215963  0.90920790  1
  O  O42  1  0.97771784  0.16396627  0.58742726  1
  O  O43  1  0.18461572  0.02075011  0.58715872  1
  O  O44  1  0.83658370  0.81428151  0.58852220  1
  O  O45  1  0.98320596  0.81814349  0.08495097  1
  O  O46  1  0.83494707  0.01949112  0.08592350  1
  O  O47  1  0.18257836  0.16622385  0.08653154  1
  O  O48  1  0.69047127  0.14409865  0.75409628  1
  O  O49  1  0.46240111  0.32350467  0.75237774  1
  O  O50  1  0.84581732  0.55193855  0.75188410  1
  O  O51  1  0.65128576  0.51779438  0.24265968  1
  O  O52  1  0.86139313  0.33387995  0.24678852  1
  O  O53  1  0.47046438  0.14953217  0.24196455  1
  O  O54  1  0.63957425  0.50128405  0.92395865  1
  O  O55  1  0.85894728  0.35736891  0.92399218  1
  O  O56  1  0.49833624  0.13997017  0.92414382  1
  O  O57  1  0.62782661  0.14439769  0.42374384  1
  O  O58  1  0.50969564  0.37324405  0.42433012  1
  O  O59  1  0.86272155  0.48194111  0.42410865  1
  O  O60  1  0.33462179  0.48335494  0.06627135  1
  O  O61  1  0.15421376  0.67212605  0.06446880  1
  O  O62  1  0.51894812  0.84749580  0.06451054  1
  O  O63  1  0.32846934  0.84911308  0.57012699  1
  O  O64  1  0.52003739  0.66579922  0.57188245  1
  O  O65  1  0.15179283  0.47928831  0.57005040  1
  O  O66  1  0.29966600  0.82495448  0.25419353  1
  O  O67  1  0.51709327  0.69930184  0.25265119  1
  O  O68  1  0.18479701  0.47624877  0.25478183  1
  O  O69  1  0.29459761  0.47319866  0.75739886  1
  O  O70  1  0.17275009  0.70686782  0.75794460  1
  O  O71  1  0.53381323  0.81894992  0.75785681  1
loop_
_geom_bond_atom_site_label_1
_geom_bond_atom_site_label_2
_geom_bond_distance
_geom_bond_site_symmetry_2
Na0 O51 2.290008 1_555
Na0 O68 2.367017 1_555
Na0 O53 2.501186 1_555
Na0 O17 2.617768 1_555
Na0 O67 2.728102 1_555
Na0 O10 2.809697 1_555
Na0 O0 2.899821 1_555
Na0 O32 2.931834 1_555
Na1 O71 2.330486 1_555
Na1 O50 2.346741 1_555
Na1 O49 2.386522 1_555
Na1 O14 2.648615 1_555
Na1 O69 2.656283 1_555
Na1 O35 2.799539 1_555
Na1 O6 2.944259 1_555
Na2 O59 2.337169 1_555
Na2 O37 2.354437 1_545
Na2 O38 2.371763 1_655
Na2 O2 2.630970 1_555
Na2 O57 2.686776 1_555
Na2 O23 2.852343 1_555
Na2 O30 2.926102 1_655
Na3 O43 2.492467 1_565
Na3 O44 2.508251 1_455
Na3 O36 2.539862 1_555
Na3 O42 2.608136 1_465
Na3 O37 2.675647 1_455
Na3 O38 2.707386 1_565
Na4 O45 2.474467 1_545
Na4 O46 2.504183 1_555
Na4 O47 2.504595 1_655
Na4 O39 2.759612 1_654
Na4 O41 2.760832 1_544
Na4 O40 2.773108 1_644
Na5 O48 2.564078 1_555
Na5 O56 2.592976 1_555
Na5 O55 2.600614 1_555
Na5 O49 2.687469 1_555
Na5 O50 2.719741 1_555
Na5 O54 2.723064 1_555
Na6 O52 2.589756 1_555
Na6 O53 2.654309 1_555
Na6 O51 2.655364 1_555
Na6 O57 2.709269 1_555
Na6 O59 2.731283 1_555
Na6 O58 2.774491 1_555
Na7 O66 2.569062 1_555
Na7 O67 2.590178 1_555
Na7 O68 2.661710 1_555
Na7 O61 2.814676 1_555
Na7 O62 2.831628 1_555
Na7 O60 2.909558 1_555
Na8 O70 2.646480 1_555
Na8 O69 2.695852 1_555
Na8 O63 2.746714 1_555
Na8 O65 2.748388 1_555
Na8 O71 2.751237 1_555
Na8 O64 2.851026 1_555
La0 O1 2.226347 1_555
La0 O0 2.243668 1_665
La0 O2 2.333461 1_565
La0 O36 2.335551 1_655
La0 O37 2.406877 1_555
La0 O38 2.444341 1_665
La1 O13 2.271159 1_555
La1 O12 2.273000 1_555
La1 O48 2.364185 1_555
La1 O14 2.372565 1_555
La1 O49 2.448414 1_555
La1 O50 2.450581 1_555
La2 O15 2.276247 1_555
La2 O16 2.293832 1_555
La2 O52 2.367701 1_555
La2 O17 2.377616 1_555
La2 O53 2.382223 1_555
La2 O51 2.418357 1_555
Hf0 O5 2.028753 1_445
Hf0 O4 2.030703 1_545
Hf0 O3 2.032904 1_555
Hf0 O40 2.076707 1_545
Hf0 O39 2.082080 1_555
Hf0 O41 2.096169 1_445
Hf1 O7 2.070286 1_555
Hf1 O8 2.071579 1_545
Hf1 O6 2.095894 1_445
Hf1 O42 2.097842 1_455
Hf1 O43 2.102227 1_555
Hf1 O44 2.112602 1_445
Hf2 O11 2.070643 1_655
Hf2 O9 2.073474 1_555
Hf2 O46 2.113647 1_565
Hf2 O10 2.125238 1_665
Hf2 O45 2.127467 1_555
Hf2 O47 2.128594 1_665
Hf3 O19 2.058852 1_556
Hf3 O20 2.065536 1_556
Hf3 O18 2.065607 1_556
Hf3 O56 2.132431 1_555
Hf3 O54 2.134192 1_555
Hf3 O55 2.140976 1_555
Hf4 O21 2.035942 1_555
Hf4 O22 2.053917 1_555
Hf4 O58 2.089645 1_555
Hf4 O23 2.110913 1_555
Hf4 O57 2.123424 1_555
Hf4 O59 2.147807 1_555
Hf5 O62 2.031344 1_555
Hf5 O61 2.037127 1_555
Hf5 O24 2.045845 1_554
Hf5 O25 2.046439 1_554
Hf5 O60 2.046765 1_555
Hf5 O26 2.058298 1_554
Hf6 O28 2.006761 1_555
Hf6 O27 2.011402 1_555
Hf6 O29 2.013909 1_555
Hf6 O64 2.041710 1_555
Hf6 O63 2.047472 1_555
Hf6 O65 2.052666 1_555
Hf7 O31 2.065960 1_555
Hf7 O66 2.076714 1_555
Hf7 O67 2.097632 1_555
Hf7 O30 2.100464 1_555
Hf7 O32 2.120615 1_555
Hf7 O68 2.131699 1_555
Hf8 O33 2.034092 1_555
Hf8 O34 2.044901 1_555
Hf8 O70 2.094168 1_555
Hf8 O35 2.104735 1_555
Hf8 O69 2.124940 1_555
Hf8 O71 2.149291 1_555
O0 P0 1.523486 1_545
O1 P1 1.514605 1_555
O2 P2 1.529095 1_655
O3 P3 1.536216 1_555
O4 P4 1.538786 1_555
O5 P5 1.535792 1_555
O6 P5 1.563023 1_555
O7 P3 1.557268 1_555
O8 P4 1.557325 1_555
O9 P1 1.563969 1_555
O10 P2 1.579543 1_555
O11 P0 1.567320 1_555
O12 P6 1.520433 1_555
O13 P7 1.518192 1_555
O14 P8 1.527263 1_555
O15 P9 1.517389 1_555
O16 P10 1.517903 1_555
O17 P11 1.525849 1_555
O18 P11 1.568857 1_555
O19 P9 1.565072 1_555
O20 P10 1.565151 1_555
O21 P7 1.562176 1_555
O22 P8 1.566599 1_555
O23 P6 1.566079 1_555
O24 P12 1.526429 1_555
O25 P13 1.524167 1_555
O26 P14 1.522358 1_555
O27 P15 1.522065 1_555
O28 P16 1.527757 1_555
O29 P17 1.521060 1_555
O30 P17 1.568968 1_555
O31 P15 1.562020 1_555
O32 P16 1.566504 1_555
O33 P13 1.558526 1_555
O34 P14 1.558596 1_555
O35 P12 1.561733 1_555
O36 P17 1.516588 1_555
O37 P15 1.534685 1_555
O38 P16 1.534465 1_555
O39 P13 1.551547 1_555
O40 P14 1.552912 1_555
O41 P12 1.553432 1_555
O42 P6 1.555472 1_555
O43 P7 1.551764 1_555
O44 P8 1.551963 1_555
O45 P9 1.557890 1_555
O46 P10 1.558469 1_555
O47 P11 1.557279 1_555
O48 P5 1.520270 1_545
O49 P3 1.537513 1_555
O50 P4 1.537982 1_655
O51 P1 1.534684 1_555
O52 P2 1.520812 1_655
O53 P0 1.530012 1_545
O54 P12 1.552974 1_555
O55 P13 1.549206 1_655
O56 P14 1.551004 1_545
O57 P15 1.559861 1_545
O58 P16 1.552474 1_555
O59 P17 1.565731 1_655
O60 P11 1.541927 1_555
O61 P9 1.538454 1_455
O62 P10 1.537377 1_565
O63 P7 1.540338 1_565
O64 P8 1.543586 1_555
O65 P6 1.542993 1_455
O66 P0 1.556840 1_555
O67 P1 1.569776 1_555
O68 P2 1.577751 1_555
O69 P3 1.568135 1_555
O70 P4 1.554206 1_555
O71 P5 1.570736 1_555
