# generated using pymatgen
data_LiNi(PO3)3
_symmetry_space_group_name_H-M   'P 1'
_cell_length_a   6.25119486
_cell_length_b   6.25119486
_cell_length_c   6.25119518
_cell_angle_alpha   107.08381719
_cell_angle_beta   107.08381719
_cell_angle_gamma   107.08380814
_symmetry_Int_Tables_number   1
_chemical_formula_structural   LiNi(PO3)3
_chemical_formula_sum   'Li1 Ni1 P3 O9'
_cell_volume   202.97236318
_cell_formula_units_Z   1
loop_
 _symmetry_equiv_pos_site_id
 _symmetry_equiv_pos_as_xyz
  1  'x, y, z'
loop_
 _atom_site_type_symbol
 _atom_site_label
 _atom_site_symmetry_multiplicity
 _atom_site_fract_x
 _atom_site_fract_y
 _atom_site_fract_z
 _atom_site_occupancy
  Li  Li0  1  0.36557200  0.36557200  0.36557200  1
  Ni  Ni0  1  0.99550300  0.99550300  0.99550300  1
  P  P0  1  0.91099600  0.48890100  0.03927200  1
  P  P1  1  0.48890100  0.03927200  0.91099600  1
  P  P2  1  0.03927200  0.91099600  0.48890100  1
  O  O0  1  0.87304200  0.63678000  0.27744700  1
  O  O1  1  0.63678000  0.27744700  0.87304200  1
  O  O2  1  0.12264700  0.08542500  0.37694300  1
  O  O3  1  0.96461200  0.64490400  0.90394600  1
  O  O4  1  0.64490400  0.90394600  0.96461200  1
  O  O5  1  0.37694300  0.12264700  0.08542500  1
  O  O6  1  0.27744700  0.87304200  0.63678000  1
  O  O7  1  0.08542500  0.37694300  0.12264700  1
  O  O8  1  0.90394600  0.96461200  0.64490400  1
loop_
_geom_bond_atom_site_label_1
_geom_bond_atom_site_label_2
_geom_bond_distance
_geom_bond_site_symmetry_2
Li0 O7 1.987977 1_555
Li0 O5 1.987977 1_555
Li0 O2 1.987977 1_555
Ni0 O3 2.029200 1_555
Ni0 O4 2.029200 1_555
Ni0 O8 2.029201 1_555
Ni0 O7 2.114195 1_666
Ni0 O5 2.114195 1_666
Ni0 O2 2.114195 1_666
O0 P2 1.606420 1_655
O0 P0 1.629525 1_555
O1 P0 1.606420 1_556
O1 P1 1.629525 1_555
O2 P2 1.509701 1_545
O3 P0 1.496076 1_556
O4 P1 1.496076 1_565
O5 P1 1.509701 1_554
O6 P1 1.606420 1_565
O6 P2 1.629525 1_555
O7 P0 1.509701 1_455
O8 P2 1.496076 1_655
