# generated using pymatgen
data_Na14Hf6Mg2Si9(SO16)3
_symmetry_space_group_name_H-M   'P 1'
_cell_length_a   18.29452974
_cell_length_b   9.17375224
_cell_length_c   22.66166355
_cell_angle_alpha   90.08457243
_cell_angle_beta   90.13273833
_cell_angle_gamma   120.00234791
_symmetry_Int_Tables_number   1
_chemical_formula_structural   Na14Hf6Mg2Si9(SO16)3
_chemical_formula_sum   'Na42 Hf18 Mg6 Si27 S9 O144'
_cell_volume   3293.64832049
_cell_formula_units_Z   3
loop_
 _symmetry_equiv_pos_site_id
 _symmetry_equiv_pos_as_xyz
  1  'x, y, z'
loop_
 _atom_site_type_symbol
 _atom_site_label
 _atom_site_symmetry_multiplicity
 _atom_site_fract_x
 _atom_site_fract_y
 _atom_site_fract_z
 _atom_site_occupancy
  Na  Na0  1  0.31261129  0.00203494  0.24529767  1
  Na  Na1  1  0.81764276  0.01763332  0.24715743  1
  Na  Na2  1  0.18720415  0.36390800  0.25111325  1
  Na  Na3  1  0.69504848  0.36611145  0.24918895  1
  Na  Na4  1  0.99145768  0.61983923  0.25303722  1
  Na  Na5  1  0.49507534  0.63699988  0.24781184  1
  Na  Na6  1  0.31791118  0.61691080  0.74047852  1
  Na  Na7  1  0.81314145  0.62425943  0.74120673  1
  Na  Na8  1  0.99272027  0.34670541  0.74260004  1
  Na  Na9  1  0.49287048  0.36734601  0.74946307  1
  Na  Na10  1  0.19547841  0.02776009  0.74464455  1
  Na  Na11  1  0.68926740  0.01027096  0.74753248  1
  Na  Na12  1  0.15537818  0.33752101  0.58662510  1
  Na  Na13  1  0.65886041  0.35621426  0.57847708  1
  Na  Na14  1  0.00986519  0.69104146  0.57933281  1
  Na  Na15  1  0.51501128  0.69315641  0.57376004  1
  Na  Na16  1  0.32907824  0.96524512  0.58424154  1
  Na  Na17  1  0.82934977  0.95216591  0.57403808  1
  Na  Na18  1  0.15831257  0.96300469  0.08437607  1
  Na  Na19  1  0.65693122  0.97444358  0.08955997  1
  Na  Na20  1  0.33264400  0.70537090  0.08500566  1
  Na  Na21  1  0.82887209  0.69281204  0.08738288  1
  Na  Na22  1  0.01236552  0.33136725  0.07883741  1
  Na  Na23  1  0.51287400  0.33167523  0.08337828  1
  Na  Na24  1  0.98540011  0.67012115  0.91861001  1
  Na  Na25  1  0.34907119  0.03802955  0.91459231  1
  Na  Na26  1  0.16261535  0.29250025  0.91557701  1
  Na  Na27  1  0.48823447  0.30524296  0.41847307  1
  Na  Na28  1  0.66905625  0.03133597  0.41504513  1
  Na  Na29  1  0.84727307  0.66979094  0.41984216  1
  Na  Na30  1  0.99802562  0.99572957  0.49640188  1
  Na  Na31  1  0.49256922  0.98329363  0.49295936  1
  Na  Na32  1  0.98958164  0.99945637  0.99469277  1
  Na  Na33  1  0.50711577  0.01436315  0.00274888  1
  Na  Na34  1  0.33780523  0.33694038  0.82383349  1
  Na  Na35  1  0.82822082  0.32163080  0.83005244  1
  Na  Na36  1  0.32858302  0.33489218  0.33103132  1
  Na  Na37  1  0.83648584  0.32951881  0.32881374  1
  Na  Na38  1  0.17212986  0.67795061  0.16989316  1
  Na  Na39  1  0.67098570  0.67885181  0.16760555  1
  Na  Na40  1  0.16983386  0.66184540  0.66155858  1
  Na  Na41  1  0.67419106  0.66761361  0.66452925  1
  Hf  Hf0  1  0.99761833  0.99584889  0.35053547  1
  Hf  Hf1  1  0.49755600  0.98032148  0.35602369  1
  Hf  Hf2  1  0.99645420  0.01314951  0.85592204  1
  Hf  Hf3  1  0.50434721  0.00998166  0.84824208  1
  Hf  Hf4  1  0.99704510  0.00854931  0.64414505  1
  Hf  Hf5  1  0.49673925  0.98996696  0.65250170  1
  Hf  Hf6  1  0.99602980  0.00248336  0.15374408  1
  Hf  Hf7  1  0.49809447  0.98770655  0.14592282  1
  Hf  Hf8  1  0.34185193  0.32974559  0.98095226  1
  Hf  Hf9  1  0.82933169  0.32278546  0.97978193  1
  Hf  Hf10  1  0.32938486  0.33556537  0.47972320  1
  Hf  Hf11  1  0.84276923  0.34794960  0.47689359  1
  Hf  Hf12  1  0.66811187  0.65670695  0.01970475  1
  Hf  Hf13  1  0.16813846  0.67881332  0.51901307  1
  Hf  Hf14  1  0.16644901  0.67926256  0.31286787  1
  Hf  Hf15  1  0.67122054  0.67714506  0.31953066  1
  Hf  Hf16  1  0.16565615  0.66876485  0.81597024  1
  Hf  Hf17  1  0.66632860  0.65355064  0.81256342  1
  Mg  Mg0  1  0.32699214  0.33279152  0.68733775  1
  Mg  Mg1  1  0.83350542  0.33410502  0.68204804  1
  Mg  Mg2  1  0.33395113  0.33068723  0.18404209  1
  Mg  Mg3  1  0.82617751  0.31972085  0.18888617  1
  Mg  Mg4  1  0.16543285  0.67686870  0.01391793  1
  Mg  Mg5  1  0.67274607  0.66405884  0.50900334  1
  Si  Si0  1  0.14848429  0.00655414  0.24813219  1
  Si  Si1  1  0.64589029  0.99622048  0.25115401  1
  Si  Si2  1  0.35180350  0.70072494  0.24823569  1
  Si  Si3  1  0.84952715  0.69897380  0.25029758  1
  Si  Si4  1  0.00070920  0.29835311  0.25046971  1
  Si  Si5  1  0.14606088  0.29330294  0.75205646  1
  Si  Si6  1  0.65010030  0.29434737  0.74662772  1
  Si  Si7  1  0.50030209  0.70437677  0.75161526  1
  Si  Si8  1  0.35108156  0.99963641  0.75125671  1
  Si  Si9  1  0.85157559  0.00228555  0.74878578  1
  Si  Si10  1  0.97927017  0.33727628  0.58609510  1
  Si  Si11  1  0.18891695  0.04408575  0.58725332  1
  Si  Si12  1  0.33551452  0.62803768  0.58555842  1
  Si  Si13  1  0.82889340  0.62357140  0.58678317  1
  Si  Si14  1  0.47877741  0.62236865  0.08536969  1
  Si  Si15  1  0.32940255  0.03019792  0.08593418  1
  Si  Si16  1  0.83579878  0.04286885  0.08487254  1
  Si  Si17  1  0.68891718  0.33316508  0.08670514  1
  Si  Si18  1  0.81376491  0.66279066  0.91662628  1
  Si  Si19  1  0.02142358  0.38037091  0.92108479  1
  Si  Si20  1  0.52065985  0.36831813  0.91610813  1
  Si  Si21  1  0.16594812  0.96338335  0.91868727  1
  Si  Si22  1  0.31407467  0.96465935  0.41676844  1
  Si  Si23  1  0.81761097  0.96745485  0.42034770  1
  Si  Si24  1  0.66458477  0.36977865  0.41837144  1
  Si  Si25  1  0.02206035  0.67419069  0.41575375  1
  Si  Si26  1  0.52089515  0.66104924  0.42083343  1
  S  S0  1  0.50012550  0.29046637  0.25020272  1
  S  S1  1  0.00096519  0.71023116  0.75113408  1
  S  S2  1  0.47948671  0.33404944  0.58493109  1
  S  S3  1  0.68554178  0.03996289  0.58446595  1
  S  S4  1  0.97981140  0.62487669  0.08389609  1
  S  S5  1  0.18703989  0.33389992  0.08264245  1
  S  S6  1  0.31287535  0.66638332  0.91814007  1
  S  S7  1  0.66504499  0.95599340  0.91665910  1
  S  S8  1  0.16613013  0.37592828  0.41647535  1
  O  O0  1  0.09866923  0.03198410  0.30290196  1
  O  O1  1  0.59797775  0.02241045  0.30734131  1
  O  O2  1  0.41486456  0.80307827  0.30285959  1
  O  O3  1  0.91040642  0.79682316  0.30696282  1
  O  O4  1  0.48954502  0.18751201  0.30282327  1
  O  O5  1  0.98642310  0.16919347  0.30395780  1
  O  O6  1  0.09910116  0.17306977  0.80901951  1
  O  O7  1  0.60003793  0.17076342  0.80298151  1
  O  O8  1  0.48591465  0.80421823  0.80641835  1
  O  O9  1  0.99119199  0.79265993  0.80434408  1
  O  O10  1  0.41030224  0.02062876  0.80930886  1
  O  O11  1  0.91450093  0.02730538  0.80410938  1
  O  O12  1  0.39572392  0.96376823  0.69360666  1
  O  O13  1  0.89420648  0.96260293  0.69143179  1
  O  O14  1  0.08537475  0.20449530  0.69391585  1
  O  O15  1  0.58804910  0.20668873  0.68896917  1
  O  O16  1  0.01490819  0.81365447  0.69798310  1
  O  O17  1  0.51791020  0.82723592  0.69282744  1
  O  O18  1  0.39312650  0.82332737  0.18957266  1
  O  O19  1  0.89465230  0.82584273  0.19217190  1
  O  O20  1  0.01901266  0.21279646  0.19036875  1
  O  O21  1  0.51174531  0.20975931  0.19634766  1
  O  O22  1  0.08878303  0.97064355  0.18786715  1
  O  O23  1  0.58611169  0.96896425  0.19222041  1
  O  O24  1  0.43823405  0.35174152  0.63794749  1
  O  O25  1  0.94396336  0.37527126  0.64576680  1
  O  O26  1  0.24697391  0.11602661  0.64523271  1
  O  O27  1  0.73664668  0.11890805  0.63796020  1
  O  O28  1  0.31917156  0.51935543  0.64460723  1
  O  O29  1  0.81510731  0.50989068  0.64474169  1
  O  O30  1  0.44123204  0.50828935  0.14325459  1
  O  O31  1  0.94002086  0.52591481  0.13645126  1
  O  O32  1  0.31214123  0.11667753  0.14191170  1
  O  O33  1  0.81936778  0.12086895  0.14319638  1
  O  O34  1  0.23830288  0.35725424  0.13559337  1
  O  O35  1  0.74759544  0.37704320  0.14385750  1
  O  O36  1  0.22725910  0.31102210  0.02861844  1
  O  O37  1  0.73371379  0.29959897  0.02898873  1
  O  O38  1  0.41414049  0.53257956  0.02876363  1
  O  O39  1  0.92697011  0.54607821  0.02969679  1
  O  O40  1  0.34586022  0.15283384  0.02622520  1
  O  O41  1  0.85339443  0.16841971  0.02789747  1
  O  O42  1  0.23435356  0.16884173  0.53041204  1
  O  O43  1  0.72472949  0.14280575  0.53119346  1
  O  O44  1  0.35295945  0.53661690  0.52913494  1
  O  O45  1  0.84481351  0.53364820  0.52813536  1
  O  O46  1  0.42592963  0.30555160  0.53097390  1
  O  O47  1  0.91533387  0.30031982  0.53045824  1
  O  O48  1  0.27377341  0.69258650  0.97089346  1
  O  O49  1  0.77007711  0.69265836  0.97470742  1
  O  O50  1  0.08070426  0.45982232  0.97837434  1
  O  O51  1  0.57599408  0.46201826  0.97464185  1
  O  O52  1  0.14992328  0.85042497  0.97644913  1
  O  O53  1  0.65577683  0.85734023  0.97018864  1
  O  O54  1  0.27057620  0.84795074  0.47502103  1
  O  O55  1  0.77780698  0.85098258  0.47759769  1
  O  O56  1  0.15754957  0.45769997  0.47031209  1
  O  O57  1  0.64327579  0.44250802  0.47646753  1
  O  O58  1  0.07681132  0.68807544  0.47463985  1
  O  O59  1  0.57763663  0.69602630  0.47920833  1
  O  O60  1  0.06561137  0.64444634  0.35758843  1
  O  O61  1  0.56407189  0.63189904  0.36084225  1
  O  O62  1  0.25684009  0.87229476  0.35824570  1
  O  O63  1  0.75638331  0.87677788  0.36081158  1
  O  O64  1  0.17732351  0.47821171  0.36320582  1
  O  O65  1  0.68216398  0.49295461  0.36013216  1
  O  O66  1  0.06735501  0.49865922  0.86195789  1
  O  O67  1  0.56425504  0.48115720  0.85748662  1
  O  O68  1  0.18565570  0.87609782  0.86083793  1
  O  O69  1  0.67581804  0.87626634  0.86321513  1
  O  O70  1  0.25984225  0.64308809  0.86433539  1
  O  O71  1  0.75631559  0.64089458  0.85836969  1
  O  O72  1  0.01030600  0.83906458  0.41244830  1
  O  O73  1  0.51324486  0.83208347  0.41226603  1
  O  O74  1  0.41012993  0.99609793  0.40991862  1
  O  O75  1  0.90990569  0.98264814  0.41078218  1
  O  O76  1  0.09140979  0.20730242  0.41204516  1
  O  O77  1  0.58158439  0.18243728  0.40770933  1
  O  O78  1  0.01323071  0.19385922  0.91260667  1
  O  O79  1  0.50427998  0.17352209  0.91334792  1
  O  O80  1  0.08168103  0.97956878  0.90875137  1
  O  O81  1  0.58927657  0.97529451  0.91216816  1
  O  O82  1  0.39730204  0.81724254  0.91139754  1
  O  O83  1  0.91007160  0.82360720  0.90992454  1
  O  O84  1  0.48810607  0.17829560  0.58782764  1
  O  O85  1  0.98874589  0.16550613  0.58787619  1
  O  O86  1  0.09336623  0.01949261  0.59181254  1
  O  O87  1  0.59973044  0.02800053  0.58858906  1
  O  O88  1  0.42121148  0.82275658  0.58715598  1
  O  O89  1  0.91833285  0.80998569  0.59009872  1
  O  O90  1  0.48770656  0.81203880  0.08747512  1
  O  O91  1  0.98941113  0.79831205  0.08638035  1
  O  O92  1  0.41868902  0.02521749  0.08833029  1
  O  O93  1  0.92170053  0.01936402  0.08646780  1
  O  O94  1  0.10171150  0.17583305  0.08585541  1
  O  O95  1  0.59300695  0.16697327  0.09040132  1
  O  O96  1  0.34590203  0.16881041  0.74765012  1
  O  O97  1  0.84342898  0.16987039  0.74456745  1
  O  O98  1  0.23926718  0.31600945  0.74952828  1
  O  O99  1  0.74259046  0.31408057  0.74559417  1
  O  O100  1  0.41922691  0.51940583  0.74536245  1
  O  O101  1  0.92651833  0.54079707  0.74710428  1
  O  O102  1  0.34389493  0.51705448  0.24377256  1
  O  O103  1  0.84515035  0.52038957  0.24565591  1
  O  O104  1  0.42433240  0.30794901  0.24538874  1
  O  O105  1  0.91961049  0.32106148  0.24387437  1
  O  O106  1  0.24212128  0.17010715  0.24509205  1
  O  O107  1  0.73854794  0.16013885  0.24887144  1
  O  O108  1  0.31698330  0.50933319  0.92202545  1
  O  O109  1  0.82609851  0.49796749  0.92427468  1
  O  O110  1  0.42454123  0.34497067  0.92087040  1
  O  O111  1  0.92899378  0.36843320  0.92379893  1
  O  O112  1  0.24845760  0.15693771  0.92388461  1
  O  O113  1  0.74195909  0.12702647  0.92098417  1
  O  O114  1  0.32547159  0.15324548  0.42469288  1
  O  O115  1  0.81742314  0.14556115  0.42368433  1
  O  O116  1  0.24396664  0.36082397  0.42108562  1
  O  O117  1  0.74870936  0.34982022  0.42450494  1
  O  O118  1  0.42742567  0.48889295  0.42397653  1
  O  O119  1  0.92633758  0.50901325  0.41992033  1
  O  O120  1  0.17564938  0.48218797  0.07718541  1
  O  O121  1  0.67531670  0.49840243  0.07715972  1
  O  O122  1  0.06488104  0.64265537  0.07779614  1
  O  O123  1  0.57487604  0.65491925  0.07391239  1
  O  O124  1  0.24906939  0.83838822  0.07726051  1
  O  O125  1  0.75191723  0.85452225  0.07478517  1
  O  O126  1  0.17604006  0.85259952  0.57748113  1
  O  O127  1  0.67248990  0.86787946  0.58009612  1
  O  O128  1  0.25173242  0.64914817  0.57598205  1
  O  O129  1  0.74694949  0.65088799  0.58078983  1
  O  O130  1  0.07589043  0.49702750  0.57536825  1
  O  O131  1  0.56339044  0.48431965  0.57957544  1
  O  O132  1  0.15377527  0.83112056  0.25322708  1
  O  O133  1  0.64909650  0.81883228  0.25490417  1
  O  O134  1  0.25850654  0.68407497  0.25553076  1
  O  O135  1  0.75595009  0.68404464  0.25430063  1
  O  O136  1  0.08897002  0.47968846  0.25619318  1
  O  O137  1  0.57744181  0.45983125  0.25410715  1
  O  O138  1  0.15262589  0.48070963  0.75860455  1
  O  O139  1  0.65415580  0.47795675  0.75304271  1
  O  O140  1  0.07928548  0.69494390  0.75646583  1
  O  O141  1  0.58818136  0.69883898  0.75777264  1
  O  O142  1  0.25808522  0.82624190  0.75659775  1
  O  O143  1  0.75817599  0.83317916  0.75678760  1
loop_
_geom_bond_atom_site_label_1
_geom_bond_atom_site_label_2
_geom_bond_distance
_geom_bond_site_symmetry_2
Na0 O106 2.455368 1_555
Na0 O104 2.513340 1_555
Na0 O132 2.526130 1_545
Na0 O32 2.571293 1_555
Na0 O134 2.580195 1_545
Na0 O62 2.795666 1_545
Na1 O107 2.386695 1_555
Na1 O105 2.458047 1_555
Na1 O33 2.534830 1_555
Na1 O135 2.685769 1_545
Na1 O133 2.691518 1_545
Na1 O63 2.852074 1_545
Na1 O5 2.967676 1_555
Na1 O19 3.018907 1_545
Na2 O106 2.444406 1_555
Na2 O102 2.488789 1_555
Na2 O136 2.506131 1_555
Na2 O134 2.550544 1_555
Na2 O64 2.787236 1_555
Na2 O34 2.792636 1_555
Na2 O0 2.891332 1_555
Na2 O20 2.998906 1_555
Na3 O103 2.380093 1_555
Na3 O107 2.389041 1_555
Na3 O135 2.551495 1_555
Na3 O35 2.558676 1_555
Na3 O137 2.689165 1_555
Na3 O65 2.828249 1_555
Na4 O103 2.362198 1_555
Na4 O105 2.382753 1_555
Na4 O132 2.611269 1_655
Na4 O136 2.670971 1_655
Na4 O60 2.679965 1_655
Na4 O31 2.789112 1_555
Na4 O3 2.956071 1_555
Na5 O102 2.413224 1_555
Na5 O133 2.458570 1_555
Na5 O30 2.607009 1_555
Na5 O104 2.623412 1_555
Na5 O137 2.716897 1_555
Na5 O61 2.863738 1_555
Na5 O2 2.875671 1_555
Na5 O23 2.929815 1_555
Na6 O28 2.353040 1_555
Na6 O98 2.400641 1_555
Na6 O100 2.430086 1_555
Na6 O138 2.664996 1_555
Na6 O142 2.668487 1_555
Na7 O29 2.431517 1_555
Na7 O99 2.470053 1_555
Na7 O139 2.536483 1_555
Na7 O101 2.548247 1_555
Na7 O143 2.595407 1_555
Na7 O71 2.885119 1_555
Na7 O13 2.918973 1_555
Na8 O97 2.379697 1_555
Na8 O25 2.430248 1_555
Na8 O138 2.568655 1_655
Na8 O101 2.608503 1_555
Na8 O140 2.783461 1_655
Na8 O14 2.829912 1_655
Na8 O11 2.899005 1_555
Na8 O66 3.031831 1_655
Na9 O100 2.376767 1_555
Na9 O96 2.376973 1_555
Na9 O139 2.597475 1_555
Na9 O141 2.649073 1_555
Na9 O24 2.692601 1_555
Na9 O67 2.720717 1_555
Na10 O98 2.350891 1_555
Na10 O96 2.385334 1_555
Na10 O26 2.422973 1_555
Na10 O142 2.630672 1_545
Na10 O140 2.725195 1_545
Na10 O68 2.943537 1_545
Na11 O97 2.444162 1_555
Na11 O99 2.450076 1_555
Na11 O143 2.514064 1_545
Na11 O141 2.521180 1_545
Na11 O27 2.657753 1_555
Na11 O69 2.855586 1_545
Na11 O7 2.969695 1_555
Na11 O17 2.982535 1_545
Na12 O128 2.510470 1_555
Na12 O130 2.539356 1_555
Na12 O86 2.550350 1_555
Na12 O85 2.640780 1_455
Na12 O14 2.738837 1_555
Na12 O56 2.851319 1_555
Na12 O42 2.888494 1_555
Na12 O28 2.909409 1_555
Na13 O129 2.355825 1_555
Na13 O57 2.506000 1_555
Na13 O131 2.546590 1_555
Na13 O87 2.652240 1_555
Na13 O84 2.715232 1_555
Na13 O15 2.842101 1_555
Na13 O29 2.890859 1_555
Na13 O43 2.965173 1_555
Na14 O89 2.425426 1_455
Na14 O130 2.604796 1_555
Na14 O86 2.623889 1_565
Na14 O126 2.633490 1_555
Na14 O58 2.678840 1_555
Na14 O45 2.857830 1_455
Na14 O16 2.896479 1_555
Na14 O25 2.939403 1_455
Na15 O59 2.426079 1_555
Na15 O131 2.483353 1_555
Na15 O127 2.503830 1_555
Na15 O88 2.547966 1_555
Na15 O87 2.680334 1_565
Na15 O44 2.756494 1_555
Na15 O17 2.953080 1_555
Na16 O126 2.456447 1_555
Na16 O128 2.517884 1_555
Na16 O84 2.569558 1_565
Na16 O88 2.599460 1_555
Na16 O54 2.694005 1_555
Na16 O12 2.762575 1_555
Na16 O26 2.856870 1_565
Na16 O46 2.971856 1_565
Na17 O55 2.374090 1_555
Na17 O129 2.402153 1_555
Na17 O89 2.570200 1_555
Na17 O127 2.575820 1_555
Na17 O85 2.592028 1_565
Na17 O13 2.892301 1_555
Na17 O47 2.939847 1_565
Na18 O124 2.447168 1_555
Na18 O122 2.560152 1_555
Na18 O52 2.627628 1_554
Na18 O94 2.628156 1_565
Na18 O91 2.676695 1_455
Na18 O22 2.688074 1_555
Na18 O32 2.759931 1_565
Na19 O125 2.501108 1_555
Na19 O95 2.559927 1_565
Na19 O123 2.562278 1_555
Na19 O23 2.653811 1_555
Na19 O90 2.681935 1_555
Na19 O33 2.845902 1_565
Na19 O53 2.905312 1_554
Na19 O37 2.930128 1_565
Na20 O124 2.392244 1_555
Na20 O90 2.496211 1_555
Na20 O92 2.544155 1_565
Na20 O120 2.566752 1_555
Na20 O18 2.606422 1_555
Na20 O48 2.778639 1_554
Na20 O38 2.954048 1_555
Na20 O34 2.999918 1_555
Na21 O121 2.472128 1_555
Na21 O125 2.520390 1_555
Na21 O91 2.592444 1_555
Na21 O93 2.602166 1_565
Na21 O19 2.661991 1_555
Na21 O49 2.768148 1_554
Na21 O35 2.819995 1_555
Na22 O93 2.495686 1_455
Na22 O122 2.516947 1_555
Na22 O50 2.585078 1_554
Na22 O120 2.589674 1_555
Na22 O94 2.657955 1_555
Na22 O41 2.767122 1_455
Na22 O20 2.779411 1_555
Na23 O92 2.458180 1_555
Na23 O121 2.578327 1_555
Na23 O95 2.583061 1_555
Na23 O123 2.600995 1_555
Na23 O51 2.734277 1_554
Na23 O21 2.791216 1_555
Na23 O30 2.882625 1_555
Na23 O40 2.943988 1_555
Na24 O83 2.420869 1_555
Na24 O111 2.425637 1_555
Na24 O80 2.492850 1_655
Na24 O109 2.530507 1_555
Na24 O39 2.753063 1_556
Na24 O9 2.805520 1_555
Na24 O52 2.917144 1_655
Na24 O66 2.954972 1_655
Na25 O110 2.442369 1_555
Na25 O79 2.465606 1_555
Na25 O112 2.575169 1_555
Na25 O82 2.583291 1_545
Na25 O10 2.676362 1_555
Na25 O40 2.750849 1_556
Na25 O68 2.857412 1_545
Na26 O78 2.412053 1_555
Na26 O112 2.449655 1_555
Na26 O80 2.490829 1_545
Na26 O108 2.516520 1_555
Na26 O6 2.662272 1_555
Na26 O36 2.788106 1_556
Na27 O118 2.442530 1_555
Na27 O74 2.463080 1_545
Na27 O77 2.484048 1_555
Na27 O114 2.584745 1_555
Na27 O57 2.786400 1_555
Na27 O46 2.795646 1_555
Na27 O4 2.837880 1_555
Na27 O61 2.910774 1_555
Na28 O115 2.378296 1_555
Na28 O73 2.501708 1_545
Na28 O117 2.538622 1_555
Na28 O77 2.593789 1_555
Na28 O1 2.744646 1_555
Na28 O43 2.819420 1_555
Na28 O63 2.888347 1_545
Na29 O75 2.511251 1_555
Na29 O119 2.530061 1_555
Na29 O117 2.566571 1_555
Na29 O72 2.589710 1_655
Na29 O45 2.745516 1_555
Na29 O3 2.812832 1_555
Na29 O55 2.864418 1_555
Na29 O65 2.942909 1_555
Na30 O72 2.460176 1_655
Na30 O75 2.483819 1_555
Na30 O85 2.647316 1_565
Na30 O76 2.655233 1_665
Na30 O89 2.660485 1_555
Na30 O86 2.713969 1_665
Na31 O73 2.435507 1_555
Na31 O74 2.448352 1_555
Na31 O88 2.555261 1_555
Na31 O77 2.602210 1_565
Na31 O87 2.807429 1_565
Na31 O84 2.822113 1_565
Na32 O83 2.457569 1_555
Na32 O78 2.463730 1_665
Na32 O93 2.477635 1_566
Na32 O80 2.643266 1_655
Na32 O91 2.779886 1_556
Na32 O94 2.783010 1_666
Na33 O95 2.480322 1_555
Na33 O79 2.514580 1_554
Na33 O92 2.561904 1_555
Na33 O90 2.571422 1_545
Na33 O81 2.674368 1_544
Na33 O82 2.815711 1_544
Na34 O96 2.367128 1_555
Na34 O100 2.389673 1_555
Na34 O98 2.400184 1_555
Na34 O110 2.688024 1_555
Na34 O112 2.805039 1_555
Na34 O108 2.862466 1_555
Na35 O99 2.449366 1_555
Na35 O97 2.480009 1_555
Na35 O113 2.670638 1_555
Na35 O101 2.687134 1_555
Na35 O109 2.688974 1_555
Na35 O111 2.698894 1_555
Na36 O106 2.483104 1_555
Na36 O102 2.515050 1_555
Na36 O116 2.645605 1_555
Na36 O118 2.668513 1_555
Na36 O114 2.683529 1_555
Na36 O104 2.709900 1_555
Na37 O107 2.469636 1_555
Na37 O105 2.480899 1_555
Na37 O103 2.525074 1_555
Na37 O119 2.635047 1_555
Na37 O115 2.649027 1_555
Na37 O117 2.762226 1_555
Na38 O132 2.473970 1_555
Na38 O134 2.482582 1_555
Na38 O124 2.550522 1_555
Na38 O136 2.589288 1_555
Na38 O122 2.766605 1_555
Na38 O120 2.783574 1_555
Na39 O135 2.487924 1_555
Na39 O133 2.496725 1_555
Na39 O125 2.617643 1_555
Na39 O121 2.658873 1_555
Na39 O123 2.691316 1_555
Na39 O137 2.719711 1_555
Na40 O128 2.491325 1_555
Na40 O130 2.536119 1_555
Na40 O126 2.552958 1_555
Na40 O142 2.656872 1_555
Na40 O138 2.680999 1_555
Na40 O140 2.824832 1_555
Na41 O129 2.368878 1_555
Na41 O139 2.561426 1_555
Na41 O143 2.584705 1_555
Na41 O127 2.665445 1_555
Na41 O131 2.684467 1_555
Na41 O141 2.736302 1_555
Hf0 O3 1.981998 1_555
Hf0 O5 2.003636 1_565
Hf0 O0 2.022413 1_665
Hf0 O75 2.066379 1_555
Hf0 O72 2.104626 1_655
Hf0 O76 2.302678 1_665
Hf1 O2 1.977299 1_555
Hf1 O73 1.987445 1_555
Hf1 O1 2.010626 1_565
Hf1 O77 2.075500 1_565
Hf1 O74 2.076249 1_555
Hf1 O4 2.317805 1_565
Hf2 O11 1.957145 1_555
Hf2 O78 1.993894 1_655
Hf2 O6 2.016713 1_655
Hf2 O83 2.070197 1_545
Hf2 O80 2.105243 1_645
Hf2 O9 2.294472 1_545
Hf3 O7 1.929433 1_555
Hf3 O10 1.977223 1_555
Hf3 O8 1.982878 1_545
Hf3 O79 2.103089 1_555
Hf3 O81 2.258187 1_545
Hf3 O82 2.359527 1_545
Hf4 O85 1.986320 1_555
Hf4 O13 2.020693 1_545
Hf4 O14 2.048230 1_655
Hf4 O89 2.062476 1_545
Hf4 O86 2.086822 1_655
Hf4 O16 2.319679 1_645
Hf5 O17 1.947915 1_555
Hf5 O12 1.976139 1_555
Hf5 O15 2.023252 1_565
Hf5 O88 2.078280 1_555
Hf5 O87 2.264134 1_565
Hf5 O84 2.331773 1_565
Hf6 O20 1.941766 1_655
Hf6 O19 1.957046 1_545
Hf6 O22 2.013192 1_645
Hf6 O93 2.097417 1_555
Hf6 O94 2.362209 1_655
Hf6 O91 2.370058 1_545
Hf7 O23 1.998194 1_555
Hf7 O18 2.014284 1_555
Hf7 O90 2.018357 1_555
Hf7 O92 2.103468 1_565
Hf7 O95 2.112608 1_565
Hf7 O21 2.236247 1_565
Hf8 O40 1.953332 1_556
Hf8 O38 1.977805 1_556
Hf8 O110 1.990123 1_555
Hf8 O112 2.092811 1_555
Hf8 O36 2.289592 1_556
Hf8 O108 2.336179 1_555
Hf9 O37 1.996580 1_556
Hf9 O41 2.003464 1_556
Hf9 O109 2.066195 1_555
Hf9 O111 2.087562 1_555
Hf9 O113 2.160514 1_555
Hf9 O39 2.234009 1_556
Hf10 O42 2.009115 1_555
Hf10 O44 2.009428 1_555
Hf10 O114 2.057051 1_555
Hf10 O118 2.069827 1_555
Hf10 O116 2.148225 1_555
Hf10 O46 2.241008 1_555
Hf11 O119 1.985740 1_555
Hf11 O47 2.000234 1_555
Hf11 O45 2.045037 1_555
Hf11 O115 2.060582 1_555
Hf11 O117 2.095468 1_555
Hf11 O43 2.382036 1_555
Hf12 O121 2.004466 1_555
Hf12 O49 2.005708 1_554
Hf12 O51 2.012296 1_554
Hf12 O123 2.097748 1_555
Hf12 O125 2.098528 1_555
Hf12 O53 2.262307 1_554
Hf13 O58 1.986042 1_555
Hf13 O54 2.004663 1_555
Hf13 O126 2.020044 1_555
Hf13 O130 2.112312 1_555
Hf13 O128 2.118413 1_555
Hf13 O56 2.229249 1_555
Hf14 O60 1.988126 1_555
Hf14 O62 1.996521 1_555
Hf14 O132 2.036752 1_555
Hf14 O136 2.097615 1_555
Hf14 O134 2.112482 1_555
Hf14 O64 2.261584 1_555
Hf15 O63 1.947096 1_555
Hf15 O65 2.020856 1_555
Hf15 O61 2.021683 1_555
Hf15 O135 2.122425 1_555
Hf15 O133 2.127723 1_555
Hf15 O137 2.382202 1_555
Hf16 O66 1.990560 1_555
Hf16 O68 2.020394 1_555
Hf16 O138 2.074539 1_555
Hf16 O142 2.080845 1_555
Hf16 O70 2.150287 1_555
Hf16 O140 2.177931 1_555
Hf17 O71 1.996200 1_555
Hf17 O67 2.021075 1_555
Hf17 O139 2.024166 1_555
Hf17 O141 2.084603 1_555
Hf17 O143 2.093655 1_555
Hf17 O69 2.271464 1_555
Mg0 O26 2.021001 1_555
Mg0 O28 2.033839 1_555
Mg0 O98 2.085576 1_555
Mg0 O100 2.145056 1_555
Mg0 O96 2.185196 1_555
Mg0 O24 2.254328 1_555
Mg1 O29 1.993510 1_555
Mg1 O25 2.036559 1_555
Mg1 O27 2.126734 1_555
Mg1 O99 2.140147 1_555
Mg1 O97 2.142174 1_555
Mg1 O101 2.327610 1_555
Mg2 O32 2.033340 1_555
Mg2 O30 2.043484 1_555
Mg2 O106 2.109094 1_555
Mg2 O102 2.114076 1_555
Mg2 O34 2.178342 1_555
Mg2 O104 2.246188 1_555
Mg3 O35 2.033564 1_555
Mg3 O33 2.044971 1_555
Mg3 O107 2.056695 1_555
Mg3 O105 2.108029 1_555
Mg3 O103 2.125167 1_555
Mg3 O31 2.325064 1_555
Mg4 O52 1.947084 1_554
Mg4 O50 1.979641 1_554
Mg4 O124 2.076880 1_555
Mg4 O48 2.150224 1_554
Mg4 O122 2.239246 1_555
Mg4 O120 2.370725 1_555
Mg5 O55 1.963436 1_555
Mg5 O57 1.965463 1_555
Mg5 O59 2.018636 1_555
Mg5 O129 2.158313 1_555
Mg5 O131 2.450012 1_555
Mg5 O127 2.468129 1_555
O0 Si0 1.625574 1_555
O1 Si1 1.631628 1_545
O2 Si2 1.628358 1_555
O3 Si3 1.638704 1_555
O4 S0 1.474128 1_555
O5 Si4 1.624041 1_655
O6 Si5 1.637896 1_555
O7 Si6 1.651163 1_555
O8 Si7 1.640071 1_555
O9 S1 1.480309 1_655
O10 Si8 1.650926 1_545
O11 Si9 1.636448 1_555
O12 Si8 1.659674 1_555
O13 Si9 1.648436 1_565
O14 Si5 1.648574 1_555
O15 Si6 1.649161 1_555
O16 S1 1.476079 1_555
O17 Si7 1.671000 1_555
O18 Si2 1.662096 1_555
O19 Si3 1.679243 1_555
O20 Si4 1.686701 1_555
O21 S0 1.496257 1_555
O22 Si0 1.672878 1_565
O23 Si1 1.661612 1_555
O24 S2 1.471561 1_555
O25 Si10 1.610939 1_555
O26 Si11 1.606232 1_555
O27 S3 1.477569 1_555
O28 Si12 1.606784 1_555
O29 Si13 1.618288 1_555
O30 Si14 1.605337 1_555
O31 S4 1.455626 1_555
O32 Si15 1.608648 1_555
O33 Si16 1.601082 1_555
O34 S5 1.469153 1_555
O35 Si17 1.597420 1_555
O36 S5 1.497376 1_555
O37 Si17 1.653281 1_555
O38 Si14 1.654719 1_555
O39 S4 1.502891 1_555
O40 Si15 1.689635 1_555
O41 Si16 1.653118 1_555
O42 Si11 1.648621 1_555
O43 S3 1.480696 1_555
O44 Si12 1.645167 1_555
O45 Si13 1.664503 1_555
O46 S2 1.503607 1_555
O47 Si10 1.633432 1_555
O48 S6 1.474370 1_555
O49 Si18 1.633742 1_555
O50 Si19 1.610310 1_555
O51 Si20 1.625845 1_555
O52 Si21 1.604730 1_555
O53 S7 1.473118 1_555
O54 Si22 1.636829 1_555
O55 Si23 1.607942 1_555
O56 S8 1.480472 1_555
O57 Si24 1.609456 1_555
O58 Si25 1.632789 1_555
O59 Si26 1.609283 1_555
O60 Si25 1.633381 1_555
O61 Si26 1.660976 1_555
O62 Si22 1.635902 1_555
O63 Si23 1.680718 1_555
O64 S8 1.480536 1_555
O65 Si24 1.662860 1_555
O66 Si19 1.666316 1_555
O67 Si20 1.629653 1_555
O68 Si21 1.666613 1_555
O69 S7 1.477589 1_555
O70 S6 1.503358 1_555
O71 Si18 1.633870 1_555
O72 Si25 1.632507 1_555
O73 Si26 1.655147 1_555
O74 Si22 1.640083 1_555
O75 Si23 1.638242 1_555
O76 S8 1.468276 1_555
O77 Si24 1.644684 1_555
O78 Si19 1.652079 1_555
O79 Si20 1.658663 1_555
O80 Si21 1.636083 1_555
O81 S7 1.485923 1_555
O82 S6 1.479281 1_555
O83 Si18 1.645057 1_555
O84 S2 1.515366 1_555
O85 Si10 1.669759 1_555
O86 Si11 1.650385 1_555
O87 S3 1.521088 1_555
O88 Si12 1.687883 1_555
O89 Si13 1.675751 1_555
O90 Si14 1.664926 1_555
O91 S4 1.511856 1_555
O92 Si15 1.657541 1_555
O93 Si16 1.690019 1_555
O94 S5 1.510599 1_555
O95 Si17 1.654060 1_555
O96 Si8 1.603636 1_545
O97 Si9 1.620002 1_555
O98 Si5 1.612306 1_555
O99 Si6 1.609430 1_555
O100 Si7 1.606463 1_555
O101 S1 1.470094 1_655
O102 Si2 1.620444 1_555
O103 Si3 1.603036 1_555
O104 S0 1.477170 1_555
O105 Si4 1.604729 1_655
O106 Si0 1.618913 1_555
O107 Si1 1.608975 1_545
O108 S6 1.482483 1_555
O109 Si18 1.645913 1_555
O110 Si20 1.665515 1_555
O111 Si19 1.640252 1_655
O112 Si21 1.662325 1_545
O113 S7 1.497446 1_545
O114 Si22 1.645277 1_545
O115 Si23 1.637260 1_545
O116 S8 1.501506 1_555
O117 Si24 1.643872 1_555
O118 Si26 1.650289 1_555
O119 Si25 1.648988 1_655
O120 S5 1.480934 1_555
O121 Si17 1.668653 1_555
O122 S4 1.488295 1_455
O123 Si14 1.650682 1_555
O124 Si15 1.645053 1_565
O125 Si16 1.654731 1_565
O126 Si11 1.665864 1_565
O127 S3 1.476961 1_565
O128 Si12 1.652083 1_555
O129 Si13 1.644226 1_555
O130 Si10 1.656412 1_455
O131 S2 1.468483 1_555
O132 Si0 1.664064 1_565
O133 Si1 1.659718 1_555
O134 Si2 1.644557 1_555
O135 Si3 1.650464 1_555
O136 Si4 1.644229 1_555
O137 S0 1.491224 1_555
O138 Si5 1.668783 1_555
O139 Si6 1.654704 1_555
O140 S1 1.512442 1_555
O141 Si7 1.639343 1_555
O142 Si8 1.653627 1_555
O143 Si9 1.646360 1_565
