# generated using pymatgen
data_Na4HfGaSi2PO12
_symmetry_space_group_name_H-M   'P 1'
_cell_length_a   9.03213588
_cell_length_b   9.03213557
_cell_length_c   22.37969938
_cell_angle_alpha   89.39001455
_cell_angle_beta   90.60998544
_cell_angle_gamma   119.40718328
_symmetry_Int_Tables_number   1
_chemical_formula_structural   Na4HfGaSi2PO12
_chemical_formula_sum   'Na24 Hf6 Ga6 Si12 P6 O72'
_cell_volume   1590.36280703
_cell_formula_units_Z   6
loop_
 _symmetry_equiv_pos_site_id
 _symmetry_equiv_pos_as_xyz
  1  'x, y, z'
loop_
 _atom_site_type_symbol
 _atom_site_label
 _atom_site_symmetry_multiplicity
 _atom_site_fract_x
 _atom_site_fract_y
 _atom_site_fract_z
 _atom_site_occupancy
  Na  Na0  1  0.63974322  0.00559354  0.24996510  1
  Na  Na1  1  0.37007910  0.36637372  0.24680348  1
  Na  Na2  1  0.99081278  0.62642428  0.24950435  1
  Na  Na3  1  0.63362628  0.62992090  0.74680348  1
  Na  Na4  1  0.99440646  0.36025678  0.74996510  1
  Na  Na5  1  0.37357572  0.00918722  0.74950435  1
  Na  Na6  1  0.30641022  0.33892654  0.58329810  1
  Na  Na7  1  0.03674610  0.69970672  0.58013648  1
  Na  Na8  1  0.65747978  0.95975728  0.58283735  1
  Na  Na9  1  0.30029328  0.96325390  0.08013648  1
  Na  Na10  1  0.66107346  0.69358978  0.08329810  1
  Na  Na11  1  0.04024272  0.34252022  0.08283735  1
  Na  Na12  1  0.97307622  0.67226054  0.91663210  1
  Na  Na13  1  0.70341210  0.03304072  0.91347048  1
  Na  Na14  1  0.32414578  0.29309128  0.91617135  1
  Na  Na15  1  0.96695928  0.29658790  0.41347048  1
  Na  Na16  1  0.32773946  0.02692378  0.41663210  1
  Na  Na17  1  0.70690872  0.67585422  0.41617135  1
  Na  Na18  1  0.99807183  0.99437454  0.49693504  1
  Na  Na19  1  0.00562546  0.00192817  0.99693504  1
  Na  Na20  1  0.66473883  0.32770754  0.83026804  1
  Na  Na21  1  0.67229246  0.33526117  0.33026804  1
  Na  Na22  1  0.33140483  0.66104154  0.16360204  1
  Na  Na23  1  0.33895846  0.66859517  0.66360204  1
  Hf  Hf0  1  0.99835076  0.99978416  0.64827675  1
  Hf  Hf1  1  0.00021584  0.00164924  0.14827675  1
  Hf  Hf2  1  0.66501776  0.33311716  0.98160975  1
  Hf  Hf3  1  0.66688284  0.33498224  0.48160975  1
  Hf  Hf4  1  0.33168376  0.66645116  0.31494375  1
  Hf  Hf5  1  0.33354884  0.66831624  0.81494375  1
  Ga  Ga0  1  0.98356675  0.98886356  0.35008494  1
  Ga  Ga1  1  0.01113644  0.01643325  0.85008494  1
  Ga  Ga2  1  0.65023375  0.32219656  0.68341794  1
  Ga  Ga3  1  0.67780344  0.34976625  0.18341794  1
  Ga  Ga4  1  0.31689975  0.65553056  0.01675194  1
  Ga  Ga5  1  0.34446944  0.68310025  0.51675194  1
  Si  Si0  1  0.70757920  0.70409606  0.25046570  1
  Si  Si1  1  0.99491908  0.28961836  0.25090084  1
  Si  Si2  1  0.29590394  0.29242080  0.75046570  1
  Si  Si3  1  0.71038164  0.00508092  0.75090084  1
  Si  Si4  1  0.37424620  0.03742906  0.58379870  1
  Si  Si5  1  0.66158608  0.62295136  0.58423384  1
  Si  Si6  1  0.96257094  0.62575380  0.08379870  1
  Si  Si7  1  0.37704864  0.33841392  0.08423384  1
  Si  Si8  1  0.04091220  0.37076306  0.91713270  1
  Si  Si9  1  0.32825208  0.95628536  0.91756784  1
  Si  Si10  1  0.62923694  0.95908780  0.41713270  1
  Si  Si11  1  0.04371464  0.67174792  0.41756784  1
  P  P0  1  0.29287554  0.00410888  0.25185074  1
  P  P1  1  0.99589112  0.70712446  0.75185074  1
  P  P2  1  0.95954254  0.33744188  0.58518374  1
  P  P3  1  0.66255812  0.04045746  0.08518374  1
  P  P4  1  0.62620854  0.67077588  0.91851774  1
  P  P5  1  0.32922412  0.37379146  0.41851774  1
  O  O0  1  0.21076974  0.03470976  0.30666408  1
  O  O1  1  0.82926557  0.78763983  0.30877019  1
  O  O2  1  0.96621411  0.16996989  0.30978640  1
  O  O3  1  0.21236017  0.17073443  0.80877019  1
  O  O4  1  0.96529024  0.78923026  0.80666408  1
  O  O5  1  0.83003011  0.03378589  0.80978640  1
  O  O6  1  0.79204840  0.96461942  0.69229203  1
  O  O7  1  0.17274813  0.20778361  0.69191499  1
  O  O8  1  0.03183272  0.82193278  0.69535979  1
  O  O9  1  0.79221639  0.82725187  0.19191499  1
  O  O10  1  0.03538058  0.20795160  0.19229203  1
  O  O11  1  0.17806722  0.96816728  0.19535979  1
  O  O12  1  0.87743674  0.36804276  0.63999708  1
  O  O13  1  0.49593257  0.12097283  0.64210319  1
  O  O14  1  0.63288111  0.50330289  0.64311940  1
  O  O15  1  0.87902717  0.50406743  0.14210319  1
  O  O16  1  0.63195724  0.12256326  0.13999708  1
  O  O17  1  0.49669711  0.36711889  0.14311940  1
  O  O18  1  0.45871540  0.29795242  0.02562503  1
  O  O19  1  0.83941513  0.54111661  0.02524799  1
  O  O20  1  0.69849972  0.15526578  0.02869279  1
  O  O21  1  0.45888339  0.16058487  0.52524799  1
  O  O22  1  0.70204758  0.54128460  0.52562503  1
  O  O23  1  0.84473422  0.30150028  0.52869279  1
  O  O24  1  0.54410274  0.70137676  0.97333108  1
  O  O25  1  0.16259857  0.45430683  0.97543719  1
  O  O26  1  0.29954711  0.83663689  0.97645340  1
  O  O27  1  0.54569317  0.83740143  0.47543719  1
  O  O28  1  0.29862324  0.45589726  0.47333108  1
  O  O29  1  0.16336311  0.70045289  0.47645340  1
  O  O30  1  0.12538140  0.63128642  0.35895903  1
  O  O31  1  0.50608113  0.87445061  0.35858199  1
  O  O32  1  0.36516572  0.48859978  0.36202679  1
  O  O33  1  0.12554939  0.49391887  0.85858199  1
  O  O34  1  0.36871358  0.87461860  0.85895903  1
  O  O35  1  0.51140022  0.63483428  0.86202679  1
  O  O36  1  0.02908142  0.84544281  0.41032344  1
  O  O37  1  0.81962924  0.98017011  0.41175577  1
  O  O38  1  0.17433174  0.19586632  0.41087486  1
  O  O39  1  0.01982989  0.18037076  0.91175577  1
  O  O40  1  0.15455719  0.97091858  0.91032344  1
  O  O41  1  0.80413368  0.82566826  0.91087486  1
  O  O42  1  0.97461758  0.17231896  0.58932312  1
  O  O43  1  0.18525298  0.02196816  0.58916043  1
  O  O44  1  0.83263040  0.81276152  0.58898797  1
  O  O45  1  0.97803184  0.81474702  0.08916043  1
  O  O46  1  0.82768104  0.02538242  0.08932312  1
  O  O47  1  0.18723848  0.16736960  0.08898797  1
  O  O48  1  0.69574842  0.17877581  0.74365644  1
  O  O49  1  0.48629624  0.31350311  0.74508877  1
  O  O50  1  0.84099874  0.52919932  0.74420786  1
  O  O51  1  0.68649689  0.51370376  0.24508877  1
  O  O52  1  0.82122419  0.30425158  0.24365644  1
  O  O53  1  0.47080068  0.15900126  0.24420786  1
  O  O54  1  0.64128458  0.50565196  0.92265612  1
  O  O55  1  0.85191998  0.35530116  0.92249343  1
  O  O56  1  0.49929740  0.14609452  0.92232097  1
  O  O57  1  0.64469884  0.14808002  0.42249343  1
  O  O58  1  0.49434804  0.35871542  0.42265612  1
  O  O59  1  0.85390548  0.50070260  0.42232097  1
  O  O60  1  0.36241442  0.51210981  0.07699044  1
  O  O61  1  0.15296224  0.64683711  0.07842277  1
  O  O62  1  0.50766474  0.86253332  0.07754186  1
  O  O63  1  0.35316289  0.84703776  0.57842277  1
  O  O64  1  0.48789019  0.63758558  0.57699044  1
  O  O65  1  0.13746668  0.49233526  0.57754186  1
  O  O66  1  0.30795058  0.83898596  0.25599012  1
  O  O67  1  0.51858598  0.68863516  0.25582743  1
  O  O68  1  0.16596340  0.47942852  0.25565497  1
  O  O69  1  0.31136484  0.48141402  0.75582743  1
  O  O70  1  0.16101404  0.69204942  0.75599012  1
  O  O71  1  0.52057148  0.83403660  0.75565497  1
loop_
_geom_bond_atom_site_label_1
_geom_bond_atom_site_label_2
_geom_bond_distance
_geom_bond_site_symmetry_2
Na0 O52 2.374452 1_555
Na0 O67 2.515747 1_545
Na0 O53 2.516586 1_555
Na0 O66 2.615177 1_545
Na0 O16 2.681753 1_555
Na0 O31 2.714083 1_545
Na0 O2 2.889750 1_555
Na0 O9 2.905194 1_545
Na1 O53 2.452739 1_555
Na1 O51 2.491294 1_555
Na1 O68 2.518253 1_555
Na1 O67 2.546543 1_555
Na1 O17 2.596323 1_555
Na1 O32 2.825131 1_555
Na1 O10 2.895732 1_555
Na1 O0 2.926022 1_555
Na2 O51 2.418574 1_555
Na2 O68 2.517631 1_655
Na2 O52 2.541191 1_555
Na2 O66 2.551185 1_655
Na2 O15 2.631958 1_555
Na2 O30 2.714050 1_655
Na2 O1 2.859599 1_555
Na2 O11 2.948505 1_655
Na3 O50 2.452739 1_555
Na3 O49 2.491294 1_555
Na3 O71 2.518253 1_555
Na3 O69 2.546543 1_555
Na3 O14 2.596323 1_555
Na3 O35 2.825131 1_555
Na3 O6 2.895731 1_555
Na3 O4 2.926022 1_555
Na4 O48 2.374452 1_555
Na4 O69 2.515747 1_655
Na4 O50 2.516586 1_555
Na4 O70 2.615177 1_655
Na4 O12 2.681753 1_555
Na4 O33 2.714083 1_655
Na4 O5 2.889750 1_555
Na4 O7 2.905194 1_655
Na5 O49 2.418573 1_555
Na5 O71 2.517631 1_545
Na5 O48 2.541191 1_555
Na5 O70 2.551185 1_545
Na5 O13 2.631958 1_555
Na5 O34 2.714050 1_545
Na5 O3 2.859599 1_555
Na5 O8 2.948506 1_545
Na6 O64 2.374456 1_555
Na6 O43 2.515747 1_555
Na6 O65 2.516601 1_555
Na6 O42 2.615177 1_455
Na6 O28 2.681738 1_555
Na6 O7 2.714083 1_555
Na6 O14 2.889750 1_555
Na6 O21 2.905194 1_555
Na7 O65 2.452723 1_555
Na7 O63 2.491286 1_555
Na7 O44 2.518253 1_455
Na7 O43 2.546543 1_565
Na7 O29 2.596296 1_555
Na7 O8 2.825131 1_555
Na7 O22 2.895732 1_455
Na7 O12 2.926022 1_455
Na8 O63 2.418582 1_555
Na8 O44 2.517631 1_555
Na8 O64 2.541182 1_555
Na8 O42 2.551185 1_565
Na8 O27 2.631937 1_555
Na8 O6 2.714050 1_555
Na8 O13 2.859599 1_565
Na8 O23 2.948505 1_565
Na9 O62 2.452723 1_555
Na9 O61 2.491286 1_555
Na9 O47 2.518253 1_565
Na9 O45 2.546543 1_455
Na9 O26 2.596296 1_554
Na9 O11 2.825131 1_555
Na9 O18 2.895731 1_565
Na9 O16 2.926022 1_565
Na10 O60 2.374456 1_555
Na10 O45 2.515747 1_555
Na10 O62 2.516601 1_555
Na10 O46 2.615177 1_565
Na10 O24 2.681738 1_554
Na10 O9 2.714083 1_555
Na10 O17 2.889750 1_555
Na10 O19 2.905194 1_555
Na11 O61 2.418582 1_555
Na11 O47 2.517631 1_555
Na11 O60 2.541182 1_555
Na11 O46 2.551185 1_455
Na11 O25 2.631937 1_554
Na11 O10 2.714050 1_555
Na11 O15 2.859599 1_455
Na11 O20 2.948506 1_455
Na12 O40 2.374452 1_655
Na12 O55 2.515755 1_555
Na12 O41 2.516586 1_555
Na12 O54 2.615168 1_555
Na12 O4 2.681753 1_555
Na12 O19 2.714062 1_556
Na12 O26 2.889750 1_655
Na12 O33 2.905194 1_655
Na13 O41 2.452739 1_545
Na13 O39 2.491294 1_655
Na13 O56 2.518236 1_555
Na13 O55 2.546532 1_555
Na13 O5 2.596323 1_555
Na13 O20 2.825105 1_556
Na13 O34 2.895732 1_545
Na13 O24 2.926022 1_545
Na14 O39 2.418574 1_555
Na14 O56 2.517646 1_555
Na14 O40 2.541191 1_545
Na14 O54 2.551189 1_555
Na14 O3 2.631958 1_555
Na14 O18 2.714035 1_556
Na14 O25 2.859599 1_555
Na14 O35 2.948505 1_555
Na15 O38 2.452739 1_655
Na15 O37 2.491294 1_545
Na15 O59 2.518236 1_555
Na15 O57 2.546532 1_555
Na15 O2 2.596323 1_555
Na15 O23 2.825105 1_555
Na15 O30 2.895731 1_655
Na15 O28 2.926022 1_655
Na16 O36 2.374452 1_545
Na16 O57 2.515755 1_555
Na16 O38 2.516586 1_555
Na16 O58 2.615168 1_555
Na16 O0 2.681753 1_555
Na16 O21 2.714062 1_555
Na16 O29 2.889750 1_545
Na16 O31 2.905194 1_545
Na17 O37 2.418573 1_555
Na17 O59 2.517646 1_555
Na17 O36 2.541191 1_655
Na17 O58 2.551189 1_555
Na17 O1 2.631958 1_555
Na17 O22 2.714035 1_555
Na17 O27 2.859599 1_555
Na17 O32 2.948506 1_555
Na18 O37 2.446375 1_555
Na18 O36 2.466205 1_655
Na18 O38 2.588713 1_665
Na18 O43 2.589067 1_665
Na18 O44 2.598890 1_555
Na18 O42 2.705089 1_565
Na19 O39 2.446375 1_555
Na19 O40 2.466205 1_545
Na19 O41 2.588713 1_445
Na19 O45 2.589067 1_446
Na19 O47 2.598890 1_556
Na19 O46 2.705089 1_456
Na20 O49 2.446375 1_555
Na20 O48 2.466205 1_555
Na20 O50 2.588713 1_555
Na20 O55 2.589067 1_555
Na20 O56 2.598890 1_555
Na20 O54 2.705089 1_555
Na21 O51 2.446375 1_555
Na21 O52 2.466205 1_555
Na21 O53 2.588713 1_555
Na21 O57 2.589067 1_555
Na21 O59 2.598890 1_555
Na21 O58 2.705089 1_555
Na22 O61 2.446375 1_555
Na22 O60 2.466205 1_555
Na22 O62 2.588713 1_555
Na22 O67 2.589067 1_555
Na22 O68 2.598890 1_555
Na22 O66 2.705089 1_555
Na23 O63 2.446375 1_555
Na23 O64 2.466205 1_555
Na23 O65 2.588713 1_555
Na23 O69 2.589067 1_555
Na23 O71 2.598890 1_555
Na23 O70 2.705089 1_555
Hf0 O6 1.998627 1_555
Hf0 O7 2.016095 1_665
Hf0 O8 2.053395 1_655
Hf0 O43 2.085666 1_665
Hf0 O44 2.092105 1_555
Hf0 O42 2.119764 1_565
Hf1 O10 1.998627 1_555
Hf1 O9 2.016095 1_445
Hf1 O11 2.053395 1_545
Hf1 O45 2.085666 1_445
Hf1 O47 2.092105 1_555
Hf1 O46 2.119764 1_455
Hf2 O18 1.998627 1_556
Hf2 O19 2.016095 1_556
Hf2 O20 2.053395 1_556
Hf2 O55 2.085666 1_555
Hf2 O56 2.092105 1_555
Hf2 O54 2.119764 1_555
Hf3 O22 1.998627 1_555
Hf3 O21 2.016095 1_555
Hf3 O23 2.053395 1_555
Hf3 O57 2.085666 1_555
Hf3 O59 2.092105 1_555
Hf3 O58 2.119764 1_555
Hf4 O30 1.998627 1_555
Hf4 O31 2.016095 1_555
Hf4 O32 2.053395 1_555
Hf4 O67 2.085666 1_555
Hf4 O68 2.092105 1_555
Hf4 O66 2.119764 1_555
Hf5 O34 1.998627 1_555
Hf5 O33 2.016095 1_555
Hf5 O35 2.053395 1_555
Hf5 O69 2.085666 1_555
Hf5 O71 2.092105 1_555
Hf5 O70 2.119764 1_555
Ga0 O1 1.902987 1_555
Ga0 O2 1.931592 1_565
Ga0 O37 2.007627 1_555
Ga0 O36 2.034318 1_655
Ga0 O0 2.127532 1_665
Ga0 O38 2.270682 1_665
Ga1 O3 1.902987 1_555
Ga1 O5 1.931592 1_455
Ga1 O39 2.007627 1_555
Ga1 O40 2.034318 1_545
Ga1 O4 2.127532 1_445
Ga1 O41 2.270682 1_445
Ga2 O13 1.902987 1_555
Ga2 O14 1.931592 1_555
Ga2 O49 2.007627 1_555
Ga2 O48 2.034318 1_555
Ga2 O12 2.127532 1_555
Ga2 O50 2.270682 1_555
Ga3 O15 1.902987 1_555
Ga3 O17 1.931592 1_555
Ga3 O51 2.007627 1_555
Ga3 O52 2.034318 1_555
Ga3 O16 2.127532 1_555
Ga3 O53 2.270682 1_555
Ga4 O25 1.902987 1_554
Ga4 O26 1.931592 1_554
Ga4 O61 2.007627 1_555
Ga4 O60 2.034318 1_555
Ga4 O24 2.127532 1_554
Ga4 O62 2.270682 1_555
Ga5 O27 1.902987 1_555
Ga5 O29 1.931592 1_555
Ga5 O63 2.007627 1_555
Ga5 O64 2.034318 1_555
Ga5 O28 2.127532 1_555
Ga5 O65 2.270682 1_555
O0 P0 1.535914 1_555
O1 Si0 1.629715 1_555
O2 Si1 1.635114 1_555
O3 Si2 1.629715 1_555
O4 P1 1.535914 1_555
O5 Si3 1.635114 1_555
O6 Si3 1.641218 1_565
O7 Si2 1.641333 1_555
O8 P1 1.558607 1_455
O9 Si0 1.641333 1_555
O10 Si1 1.641218 1_455
O11 P0 1.558607 1_565
O12 P2 1.535914 1_555
O13 Si4 1.629715 1_555
O14 Si5 1.635114 1_555
O15 Si6 1.629715 1_555
O16 P3 1.535914 1_555
O17 Si7 1.635114 1_555
O18 Si7 1.641218 1_555
O19 Si6 1.641333 1_555
O20 P3 1.558607 1_555
O21 Si4 1.641333 1_555
O22 Si5 1.641218 1_555
O23 P2 1.558607 1_555
O24 P4 1.535914 1_555
O25 Si8 1.629715 1_555
O26 Si9 1.635114 1_555
O27 Si10 1.629715 1_555
O28 P5 1.535914 1_555
O29 Si11 1.635114 1_555
O30 Si11 1.641218 1_555
O31 Si10 1.641333 1_555
O32 P5 1.558607 1_555
O33 Si8 1.641333 1_555
O34 Si9 1.641218 1_555
O35 P4 1.558607 1_555
O36 Si11 1.644005 1_555
O37 Si10 1.640208 1_555
O38 P5 1.536871 1_555
O39 Si8 1.640208 1_555
O40 Si9 1.644005 1_555
O41 P4 1.536871 1_555
O42 P2 1.564494 1_555
O43 Si4 1.648546 1_555
O44 Si5 1.654265 1_555
O45 Si6 1.648546 1_555
O46 P3 1.564495 1_555
O47 Si7 1.654265 1_555
O48 Si3 1.644005 1_555
O49 Si2 1.640208 1_555
O50 P1 1.536871 1_555
O51 Si0 1.640208 1_555
O52 Si1 1.644005 1_555
O53 P0 1.536871 1_555
O54 P4 1.564507 1_555
O55 Si8 1.648531 1_655
O56 Si9 1.654262 1_545
O57 Si10 1.648531 1_545
O58 P5 1.564507 1_555
O59 Si11 1.654262 1_655
O60 Si7 1.644017 1_555
O61 Si6 1.640194 1_455
O62 P3 1.536867 1_565
O63 Si4 1.640194 1_565
O64 Si5 1.644017 1_555
O65 P2 1.536867 1_455
O66 P0 1.564494 1_565
O67 Si0 1.648546 1_555
O68 Si1 1.654265 1_455
O69 Si2 1.648546 1_555
O70 P1 1.564495 1_455
O71 Si3 1.654265 1_565
