# generated using pymatgen
data_BaCuO2
_symmetry_space_group_name_H-M   'P 1'
_cell_length_a   5.95684457
_cell_length_b   11.89904908
_cell_length_c   3.72017834
_cell_angle_alpha   90.00045339
_cell_angle_beta   89.99961939
_cell_angle_gamma   89.99906244
_symmetry_Int_Tables_number   1
_chemical_formula_structural   BaCuO2
_chemical_formula_sum   'Ba4 Cu4 O8'
_cell_volume   263.68916448
_cell_formula_units_Z   4
loop_
 _symmetry_equiv_pos_site_id
 _symmetry_equiv_pos_as_xyz
  1  'x, y, z'
loop_
 _atom_site_type_symbol
 _atom_site_label
 _atom_site_symmetry_multiplicity
 _atom_site_fract_x
 _atom_site_fract_y
 _atom_site_fract_z
 _atom_site_occupancy
  Ba  Ba0  1  0.99977866  0.88885325  0.50064344  1
  Ba  Ba1  1  0.50023878  0.61164043  0.49933841  1
  Ba  Ba2  1  0.49976004  0.11164962  0.50066369  1
  Ba  Ba3  1  0.00022209  0.38885985  0.49935529  1
  Cu  Cu0  1  0.99970574  0.11789563  0.00069908  1
  Cu  Cu1  1  0.50027261  0.38260089  0.99938443  1
  Cu  Cu2  1  0.49972797  0.88260347  0.00061257  1
  Cu  Cu3  1  0.00029488  0.61789869  0.99929823  1
  O  O0  1  0.00024106  0.66233253  0.49931223  1
  O  O1  1  0.99975838  0.16232676  0.50069196  1
  O  O2  1  0.25029033  0.50024567  0.99927815  1
  O  O3  1  0.24970588  0.00025378  0.00072157  1
  O  O4  1  0.49977489  0.83817249  0.50065045  1
  O  O5  1  0.50022532  0.33816950  0.49935007  1
  O  O6  1  0.75028802  0.50025038  0.99927848  1
  O  O7  1  0.74971536  0.00024907  0.00072194  1
loop_
_geom_bond_atom_site_label_1
_geom_bond_atom_site_label_2
_geom_bond_distance
_geom_bond_site_symmetry_2
Ba0 O0 2.695387 1_655
Ba0 O3 2.726259 1_665
Ba0 O3 2.726654 1_666
Ba0 O7 2.726663 1_565
Ba0 O7 2.727034 1_566
Ba0 O4 3.038829 1_655
Ba0 O4 3.038892 1_555
Ba1 O4 2.695522 1_555
Ba1 O2 2.726340 1_555
Ba1 O6 2.726631 1_555
Ba1 O2 2.726645 1_554
Ba1 O6 2.726907 1_554
Ba1 O0 3.038864 1_555
Ba1 O0 3.038910 1_655
Ba2 O5 2.695377 1_555
Ba2 O7 2.726363 1_555
Ba2 O7 2.726686 1_556
Ba2 O3 2.726695 1_555
Ba2 O3 2.726990 1_556
Ba2 O1 3.038852 1_555
Ba2 O1 3.038852 1_455
Ba3 O1 2.695534 1_455
Ba3 O6 2.726188 1_455
Ba3 O6 2.726606 1_454
Ba3 O2 2.726634 1_555
Ba3 O2 2.727026 1_554
Ba3 O5 3.038874 1_455
Ba3 O5 3.038892 1_555
Cu0 O1 1.933734 1_555
Cu0 O1 1.933793 1_554
Cu0 O3 2.043819 1_655
Cu0 O7 2.043849 1_555
Cu1 O5 1.933646 1_556
Cu1 O5 1.933884 1_555
Cu1 O2 2.043766 1_555
Cu1 O6 2.043981 1_555
Cu2 O4 1.933624 1_554
Cu2 O4 1.933903 1_555
Cu2 O7 2.043828 1_565
Cu2 O3 2.043984 1_565
Cu3 O0 1.933727 1_555
Cu3 O0 1.933819 1_556
Cu3 O2 2.043890 1_555
Cu3 O6 2.043934 1_455
