# generated using pymatgen
data_Na2TiGa(PO4)3
_symmetry_space_group_name_H-M   'P 1'
_cell_length_a   8.67448265
_cell_length_b   8.67448238
_cell_length_c   22.09632507
_cell_angle_alpha   90.15723356
_cell_angle_beta   89.84276643
_cell_angle_gamma   120.40113963
_symmetry_Int_Tables_number   1
_chemical_formula_structural   Na2TiGa(PO4)3
_chemical_formula_sum   'Na12 Ti6 Ga6 P18 O72'
_cell_volume   1434.05546576
_cell_formula_units_Z   6
loop_
 _symmetry_equiv_pos_site_id
 _symmetry_equiv_pos_as_xyz
  1  'x, y, z'
loop_
 _atom_site_type_symbol
 _atom_site_label
 _atom_site_symmetry_multiplicity
 _atom_site_fract_x
 _atom_site_fract_y
 _atom_site_fract_z
 _atom_site_occupancy
  Na  Na0  1  0.36540063  0.36321312  0.24955823  1
  Na  Na1  1  0.63678688  0.63459937  0.74955823  1
  Na  Na2  1  0.03206763  0.69654612  0.58289123  1
  Na  Na3  1  0.30345388  0.96793237  0.08289123  1
  Na  Na4  1  0.69873363  0.02988012  0.91622523  1
  Na  Na5  1  0.97011988  0.30126637  0.41622523  1
  Na  Na6  1  0.99974857  0.99938732  0.49858854  1
  Na  Na7  1  0.00061268  0.00025143  0.99858854  1
  Na  Na8  1  0.66641557  0.33272032  0.83192154  1
  Na  Na9  1  0.66727968  0.33358443  0.33192154  1
  Na  Na10  1  0.33308157  0.66605432  0.16525554  1
  Na  Na11  1  0.33394568  0.66691843  0.66525554  1
  Ti  Ti0  1  0.00123714  0.00752734  0.64697918  1
  Ti  Ti1  1  0.99247266  0.99876286  0.14697918  1
  Ti  Ti2  1  0.66790414  0.34086034  0.98031218  1
  Ti  Ti3  1  0.65913966  0.33209586  0.48031218  1
  Ti  Ti4  1  0.33457014  0.67419434  0.31364618  1
  Ti  Ti5  1  0.32580566  0.66542986  0.81364618  1
  Ga  Ga0  1  0.99994953  0.99421111  0.35144060  1
  Ga  Ga1  1  0.00578889  0.00005047  0.85144060  1
  Ga  Ga2  1  0.66661653  0.32754411  0.68477360  1
  Ga  Ga3  1  0.67245589  0.33338347  0.18477360  1
  Ga  Ga4  1  0.33328253  0.66087811  0.01810760  1
  Ga  Ga5  1  0.33912189  0.66671747  0.51810760  1
  P  P0  1  0.28918132  0.99938180  0.24970591  1
  P  P1  1  0.71260472  0.70971545  0.25098391  1
  P  P2  1  0.99326372  0.28741150  0.25128768  1
  P  P3  1  0.29028455  0.28739528  0.75098391  1
  P  P4  1  0.00061820  0.71081868  0.74970591  1
  P  P5  1  0.71258850  0.00673628  0.75128768  1
  P  P6  1  0.95584832  0.33271480  0.58303891  1
  P  P7  1  0.37927172  0.04304845  0.58431691  1
  P  P8  1  0.65993072  0.62074450  0.58462068  1
  P  P9  1  0.95695155  0.62072828  0.08431691  1
  P  P10  1  0.66728520  0.04415168  0.08303891  1
  P  P11  1  0.37925550  0.34006928  0.08462068  1
  P  P12  1  0.62251432  0.66604880  0.91637291  1
  P  P13  1  0.04593772  0.37638245  0.91765091  1
  P  P14  1  0.32659672  0.95407850  0.91795468  1
  P  P15  1  0.62361755  0.95406228  0.41765091  1
  P  P16  1  0.33395120  0.37748568  0.41637291  1
  P  P17  1  0.04592150  0.67340328  0.41795468  1
  O  O0  1  0.20880329  0.03941177  0.30529949  1
  O  O1  1  0.82589987  0.79194808  0.30678710  1
  O  O2  1  0.96716242  0.17837839  0.30868958  1
  O  O3  1  0.20805192  0.17410013  0.80678710  1
  O  O4  1  0.96058823  0.79119671  0.80529949  1
  O  O5  1  0.82162161  0.03283758  0.80868958  1
  O  O6  1  0.79983065  0.96690642  0.69537930  1
  O  O7  1  0.17027023  0.20018496  0.69411819  1
  O  O8  1  0.03210814  0.82628327  0.69212527  1
  O  O9  1  0.79981504  0.82972977  0.19411819  1
  O  O10  1  0.03309358  0.20016935  0.19537930  1
  O  O11  1  0.17371673  0.96789186  0.19212527  1
  O  O12  1  0.87547029  0.37274477  0.63863249  1
  O  O13  1  0.49256687  0.12528108  0.64012010  1
  O  O14  1  0.63382942  0.51171139  0.64202258  1
  O  O15  1  0.87471892  0.50743313  0.14012010  1
  O  O16  1  0.62725523  0.12452971  0.13863249  1
  O  O17  1  0.48828861  0.36617058  0.14202258  1
  O  O18  1  0.46649765  0.30023942  0.02871230  1
  O  O19  1  0.83693723  0.53351796  0.02745119  1
  O  O20  1  0.69877514  0.15961627  0.02545827  1
  O  O21  1  0.46648204  0.16306277  0.52745119  1
  O  O22  1  0.69976058  0.53350235  0.52871230  1
  O  O23  1  0.84038373  0.30122486  0.52545827  1
  O  O24  1  0.54213629  0.70607877  0.97196649  1
  O  O25  1  0.15923287  0.45861508  0.97345410  1
  O  O26  1  0.30049542  0.84504539  0.97535658  1
  O  O27  1  0.54138492  0.84076713  0.47345410  1
  O  O28  1  0.29392123  0.45786371  0.47196649  1
  O  O29  1  0.15495461  0.69950458  0.47535658  1
  O  O30  1  0.13316365  0.63357342  0.36204630  1
  O  O31  1  0.50360323  0.86685196  0.36078519  1
  O  O32  1  0.36544114  0.49295027  0.35879227  1
  O  O33  1  0.13314804  0.49639677  0.86078519  1
  O  O34  1  0.36642658  0.86683635  0.86204630  1
  O  O35  1  0.50704973  0.63455886  0.85879227  1
  O  O36  1  0.02449778  0.83545285  0.40993550  1
  O  O37  1  0.81251576  0.98270954  0.40990923  1
  O  O38  1  0.16440255  0.19102458  0.40946234  1
  O  O39  1  0.01729046  0.18748424  0.90990923  1
  O  O40  1  0.16454715  0.97550222  0.90993550  1
  O  O41  1  0.80897542  0.83559745  0.90946234  1
  O  O42  1  0.97304896  0.16441689  0.59034793  1
  O  O43  1  0.19019914  0.02214950  0.58959533  1
  O  O44  1  0.83635359  0.80676412  0.58980669  1
  O  O45  1  0.97785050  0.80980086  0.08959533  1
  O  O46  1  0.83558311  0.02695104  0.09034793  1
  O  O47  1  0.19323588  0.16364641  0.08980669  1
  O  O48  1  0.69116478  0.16878585  0.74326850  1
  O  O49  1  0.47918276  0.31604254  0.74324223  1
  O  O50  1  0.83106955  0.52435758  0.74279534  1
  O  O51  1  0.68395746  0.52081724  0.24324223  1
  O  O52  1  0.83121415  0.30883522  0.24326850  1
  O  O53  1  0.47564242  0.16893045  0.24279534  1
  O  O54  1  0.63971596  0.49774989  0.92368093  1
  O  O55  1  0.85686614  0.35548250  0.92292833  1
  O  O56  1  0.50302059  0.14009712  0.92313969  1
  O  O57  1  0.64451750  0.14313386  0.42292833  1
  O  O58  1  0.50225011  0.36028404  0.42368093  1
  O  O59  1  0.85990288  0.49697941  0.42313969  1
  O  O60  1  0.35783078  0.50211985  0.07660250  1
  O  O61  1  0.14584876  0.64937654  0.07657623  1
  O  O62  1  0.49773555  0.85769158  0.07612934  1
  O  O63  1  0.35062346  0.85415124  0.57657623  1
  O  O64  1  0.49788015  0.64216922  0.57660250  1
  O  O65  1  0.14230842  0.50226445  0.57612934  1
  O  O66  1  0.30638196  0.83108389  0.25701493  1
  O  O67  1  0.52353214  0.68881650  0.25626233  1
  O  O68  1  0.16968659  0.47343112  0.25647369  1
  O  O69  1  0.31118350  0.47646786  0.75626233  1
  O  O70  1  0.16891611  0.69361804  0.75701493  1
  O  O71  1  0.52656888  0.83031341  0.75647369  1
loop_
_geom_bond_atom_site_label_1
_geom_bond_atom_site_label_2
_geom_bond_distance
_geom_bond_site_symmetry_2
Na0 O53 2.325089 1_555
Na0 O68 2.336722 1_555
Na0 O51 2.387433 1_555
Na0 O67 2.441028 1_555
Na0 O17 2.596498 1_555
Na0 O32 2.660270 1_555
Na0 O0 2.720263 1_555
Na0 O10 2.761561 1_555
Na1 O50 2.325089 1_555
Na1 O71 2.336722 1_555
Na1 O49 2.387433 1_555
Na1 O69 2.441028 1_555
Na1 O14 2.596498 1_555
Na1 O35 2.660270 1_555
Na1 O4 2.720263 1_555
Na1 O6 2.761561 1_555
Na2 O65 2.325073 1_555
Na2 O44 2.336722 1_455
Na2 O63 2.387424 1_555
Na2 O43 2.441028 1_565
Na2 O29 2.596472 1_555
Na2 O8 2.660270 1_555
Na2 O12 2.720263 1_455
Na2 O22 2.761561 1_455
Na3 O62 2.325073 1_555
Na3 O47 2.336722 1_565
Na3 O61 2.387424 1_555
Na3 O45 2.441028 1_455
Na3 O26 2.596472 1_554
Na3 O11 2.660270 1_555
Na3 O16 2.720263 1_565
Na3 O18 2.761561 1_565
Na4 O41 2.325089 1_545
Na4 O56 2.336706 1_555
Na4 O39 2.387433 1_655
Na4 O55 2.441019 1_555
Na4 O5 2.596498 1_555
Na4 O20 2.660244 1_556
Na4 O24 2.720263 1_545
Na4 O34 2.761561 1_545
Na5 O38 2.325089 1_655
Na5 O59 2.336706 1_555
Na5 O37 2.387433 1_545
Na5 O57 2.441019 1_555
Na5 O2 2.596498 1_555
Na5 O23 2.660244 1_555
Na5 O28 2.720263 1_655
Na5 O30 2.761561 1_655
Na6 O36 2.489380 1_655
Na6 O37 2.505289 1_555
Na6 O38 2.506250 1_665
Na6 O44 2.543482 1_555
Na6 O43 2.549113 1_665
Na6 O42 2.555575 1_565
Na7 O40 2.489380 1_545
Na7 O39 2.505289 1_555
Na7 O41 2.506250 1_445
Na7 O47 2.543482 1_556
Na7 O45 2.549113 1_446
Na7 O46 2.555575 1_456
Na8 O48 2.489380 1_555
Na8 O49 2.505289 1_555
Na8 O50 2.506250 1_555
Na8 O56 2.543482 1_555
Na8 O55 2.549113 1_555
Na8 O54 2.555575 1_555
Na9 O52 2.489380 1_555
Na9 O51 2.505289 1_555
Na9 O53 2.506250 1_555
Na9 O59 2.543482 1_555
Na9 O57 2.549113 1_555
Na9 O58 2.555575 1_555
Na10 O60 2.489380 1_555
Na10 O61 2.505289 1_555
Na10 O62 2.506250 1_555
Na10 O68 2.543482 1_555
Na10 O67 2.549113 1_555
Na10 O66 2.555575 1_555
Na11 O64 2.489380 1_555
Na11 O63 2.505289 1_555
Na11 O65 2.506250 1_555
Na11 O71 2.543482 1_555
Na11 O69 2.549113 1_555
Na11 O70 2.555575 1_555
Ga0 O1 1.910240 1_555
Ga0 O0 1.936123 1_665
Ga0 O36 1.980043 1_655
Ga0 O2 1.998759 1_565
Ga0 O38 2.031384 1_665
Ga0 O37 2.036563 1_555
Ga1 O3 1.910240 1_555
Ga1 O4 1.936123 1_445
Ga1 O40 1.980044 1_545
Ga1 O5 1.998759 1_455
Ga1 O41 2.031384 1_445
Ga1 O39 2.036563 1_555
Ga2 O13 1.910240 1_555
Ga2 O12 1.936123 1_555
Ga2 O48 1.980043 1_555
Ga2 O14 1.998759 1_555
Ga2 O50 2.031384 1_555
Ga2 O49 2.036563 1_555
Ga3 O15 1.910240 1_555
Ga3 O16 1.936123 1_555
Ga3 O52 1.980044 1_555
Ga3 O17 1.998759 1_555
Ga3 O53 2.031384 1_555
Ga3 O51 2.036563 1_555
Ga4 O25 1.910240 1_554
Ga4 O24 1.936123 1_554
Ga4 O60 1.980043 1_555
Ga4 O26 1.998759 1_554
Ga4 O62 2.031384 1_555
Ga4 O61 2.036563 1_555
Ga5 O27 1.910240 1_555
Ga5 O28 1.936123 1_555
Ga5 O64 1.980044 1_555
Ga5 O29 1.998759 1_555
Ga5 O65 2.031384 1_555
Ga5 O63 2.036563 1_555
O0 P0 1.534181 1_545
O1 P1 1.512410 1_555
O2 P2 1.530637 1_555
O3 P3 1.512410 1_555
O4 P4 1.534181 1_655
O5 P5 1.530637 1_555
O6 P5 1.573337 1_565
O6 Ti0 1.920680 1_665
O7 P3 1.561994 1_555
O7 Ti0 1.883227 1_555
O8 P4 1.557174 1_555
O8 Ti0 1.993700 1_565
O9 P1 1.561994 1_555
O9 Ti1 1.883227 1_555
O10 P2 1.573337 1_455
O10 Ti1 1.920680 1_445
O11 P0 1.557174 1_555
O11 Ti1 1.993700 1_455
O12 P6 1.534181 1_555
O13 P7 1.512410 1_555
O14 P8 1.530637 1_555
O15 P9 1.512410 1_555
O16 P10 1.534181 1_555
O17 P11 1.530637 1_555
O18 P11 1.573337 1_555
O18 Ti2 1.920680 1_554
O19 P9 1.561994 1_555
O19 Ti2 1.883227 1_554
O20 P10 1.557174 1_555
O20 Ti2 1.993700 1_554
O21 P7 1.561994 1_555
O21 Ti3 1.883227 1_555
O22 P8 1.573337 1_555
O22 Ti3 1.920680 1_555
O23 P6 1.557174 1_555
O23 Ti3 1.993700 1_555
O24 P12 1.534181 1_555
O25 P13 1.512410 1_555
O26 P14 1.530637 1_555
O27 P15 1.512410 1_555
O28 P16 1.534181 1_555
O29 P17 1.530637 1_555
O30 P17 1.573337 1_555
O30 Ti4 1.920680 1_555
O31 P15 1.561994 1_555
O31 Ti4 1.883227 1_555
O32 P16 1.557174 1_555
O32 Ti4 1.993700 1_555
O33 P13 1.561994 1_555
O33 Ti5 1.883227 1_555
O34 P14 1.573337 1_555
O34 Ti5 1.920680 1_555
O35 P12 1.557174 1_555
O35 Ti5 1.993700 1_555
O36 P17 1.519164 1_555
O37 P15 1.537069 1_555
O38 P16 1.547512 1_555
O39 P13 1.537069 1_555
O40 P14 1.519164 1_555
O41 P12 1.547512 1_555
O42 P6 1.549689 1_555
O42 Ti0 1.955919 1_655
O43 P7 1.560306 1_555
O43 Ti0 2.022300 1_555
O44 P8 1.568304 1_555
O44 Ti0 2.037487 1_665
O45 P9 1.560306 1_555
O45 Ti1 2.022300 1_555
O46 P10 1.549689 1_555
O46 Ti1 1.955919 1_545
O47 P11 1.568304 1_555
O47 Ti1 2.037487 1_445
O48 P5 1.519164 1_555
O49 P3 1.537069 1_555
O50 P4 1.547512 1_655
O51 P1 1.537069 1_555
O52 P2 1.519164 1_555
O53 P0 1.547512 1_545
O54 P12 1.549700 1_555
O54 Ti2 1.955919 1_555
O55 P13 1.560293 1_655
O55 Ti2 2.022300 1_555
O56 P14 1.568302 1_545
O56 Ti2 2.037487 1_555
O57 P15 1.560292 1_545
O57 Ti3 2.022300 1_555
O58 P16 1.549700 1_555
O58 Ti3 1.955919 1_555
O59 P17 1.568302 1_655
O59 Ti3 2.037487 1_555
O60 P11 1.519175 1_555
O61 P9 1.537055 1_455
O62 P10 1.547508 1_565
O63 P7 1.537055 1_565
O64 P8 1.519175 1_555
O65 P6 1.547508 1_455
O66 P0 1.549689 1_555
O66 Ti4 1.955919 1_555
O67 P1 1.560306 1_555
O67 Ti4 2.022300 1_555
O68 P2 1.568304 1_455
O68 Ti4 2.037487 1_555
O69 P3 1.560306 1_555
O69 Ti5 2.022300 1_555
O70 P4 1.549689 1_555
O70 Ti5 1.955919 1_555
O71 P5 1.568304 1_565
O71 Ti5 2.037487 1_555
