# generated using pymatgen
data_Pd17Se15
_symmetry_space_group_name_H-M   'P 1'
_cell_length_a   10.69947280
_cell_length_b   10.69947280
_cell_length_c   10.69947280
_cell_angle_alpha   90.00000000
_cell_angle_beta   90.00000000
_cell_angle_gamma   90.00000000
_symmetry_Int_Tables_number   1
_chemical_formula_structural   Pd17Se15
_chemical_formula_sum   'Pd34 Se30'
_cell_volume   1224.86193154
_cell_formula_units_Z   2
loop_
 _symmetry_equiv_pos_site_id
 _symmetry_equiv_pos_as_xyz
  1  'x, y, z'
loop_
 _atom_site_type_symbol
 _atom_site_label
 _atom_site_symmetry_multiplicity
 _atom_site_fract_x
 _atom_site_fract_y
 _atom_site_fract_z
 _atom_site_occupancy
  Pd  Pd0  1  0.14835814  0.85164186  0.65032493  1
  Pd  Pd1  1  0.50000000  0.50000000  -0.00000000  1
  Pd  Pd2  1  -0.00000000  0.50000000  0.50000000  1
  Pd  Pd3  1  -0.00000000  -0.00000000  -0.00000000  1
  Pd  Pd4  1  0.74036397  0.50000000  0.50000000  1
  Pd  Pd5  1  0.50000000  0.74036397  0.50000000  1
  Pd  Pd6  1  0.50000000  0.25963603  0.50000000  1
  Pd  Pd7  1  0.50000000  0.50000000  0.25963603  1
  Pd  Pd8  1  0.50000000  0.50000000  0.74036397  1
  Pd  Pd9  1  0.25963603  0.50000000  0.50000000  1
  Pd  Pd10  1  0.85164186  0.65032493  0.85164186  1
  Pd  Pd11  1  0.85164186  0.34967507  0.14835814  1
  Pd  Pd12  1  0.65032493  0.85164186  0.85164186  1
  Pd  Pd13  1  0.34967507  0.85164186  0.14835814  1
  Pd  Pd14  1  0.85164186  0.85164186  0.65032493  1
  Pd  Pd15  1  0.14835814  0.14835814  0.65032493  1
  Pd  Pd16  1  0.85164186  0.85164186  0.34967507  1
  Pd  Pd17  1  0.85164186  0.14835814  0.65032493  1
  Pd  Pd18  1  0.50000000  -0.00000000  0.50000000  1
  Pd  Pd19  1  0.14835814  0.65032493  0.85164186  1
  Pd  Pd20  1  0.65032493  0.14835814  0.85164186  1
  Pd  Pd21  1  0.65032493  0.85164186  0.14835814  1
  Pd  Pd22  1  0.85164186  0.34967507  0.85164186  1
  Pd  Pd23  1  0.34967507  0.85164186  0.85164186  1
  Pd  Pd24  1  0.85164186  0.65032493  0.14835814  1
  Pd  Pd25  1  0.14835814  0.34967507  0.14835814  1
  Pd  Pd26  1  0.34967507  0.14835814  0.14835814  1
  Pd  Pd27  1  0.14835814  0.85164186  0.34967507  1
  Pd  Pd28  1  0.85164186  0.14835814  0.34967507  1
  Pd  Pd29  1  0.65032493  0.14835814  0.14835814  1
  Pd  Pd30  1  0.34967507  0.14835814  0.85164186  1
  Pd  Pd31  1  0.14835814  0.34967507  0.85164186  1
  Pd  Pd32  1  0.14835814  0.65032493  0.14835814  1
  Pd  Pd33  1  0.14835814  0.14835814  0.34967507  1
  Se  Se0  1  0.75891401  -0.00000000  -0.00000000  1
  Se  Se1  1  -0.00000000  0.75891401  -0.00000000  1
  Se  Se2  1  -0.00000000  0.24108599  -0.00000000  1
  Se  Se3  1  -0.00000000  -0.00000000  0.24108599  1
  Se  Se4  1  -0.00000000  -0.00000000  0.75891401  1
  Se  Se5  1  0.24108599  -0.00000000  -0.00000000  1
  Se  Se6  1  -0.00000000  0.66952353  0.66952353  1
  Se  Se7  1  0.33047647  0.66952353  -0.00000000  1
  Se  Se8  1  0.66952353  -0.00000000  0.66952353  1
  Se  Se9  1  0.33047647  -0.00000000  0.66952353  1
  Se  Se10  1  0.66952353  0.66952353  -0.00000000  1
  Se  Se11  1  0.33047647  -0.00000000  0.33047647  1
  Se  Se12  1  0.66952353  -0.00000000  0.33047647  1
  Se  Se13  1  0.66952353  0.33047647  -0.00000000  1
  Se  Se14  1  0.33047647  0.33047647  -0.00000000  1
  Se  Se15  1  -0.00000000  0.33047647  0.66952353  1
  Se  Se16  1  -0.00000000  0.66952353  0.33047647  1
  Se  Se17  1  -0.00000000  0.33047647  0.33047647  1
  Se  Se18  1  0.50000000  0.73029206  0.73029206  1
  Se  Se19  1  0.26970794  0.73029206  0.50000000  1
  Se  Se20  1  0.73029206  0.50000000  0.73029206  1
  Se  Se21  1  0.26970794  0.50000000  0.73029206  1
  Se  Se22  1  0.73029206  0.73029206  0.50000000  1
  Se  Se23  1  0.26970794  0.50000000  0.26970794  1
  Se  Se24  1  0.73029206  0.50000000  0.26970794  1
  Se  Se25  1  0.73029206  0.26970794  0.50000000  1
  Se  Se26  1  0.26970794  0.26970794  0.50000000  1
  Se  Se27  1  0.50000000  0.26970794  0.73029206  1
  Se  Se28  1  0.50000000  0.73029206  0.26970794  1
  Se  Se29  1  0.50000000  0.26970794  0.26970794  1
loop_
_geom_bond_atom_site_label_1
_geom_bond_atom_site_label_2
_geom_bond_distance
_geom_bond_site_symmetry_2
Pd0 Se19 2.441008 1_555
Pd0 Se6 2.521669 1_555
Pd0 Se9 2.521669 1_565
Pd0 Se4 2.527701 1_565
Pd1 Se14 2.565118 1_555
Pd1 Se7 2.565118 1_555
Pd1 Se13 2.565118 1_555
Pd1 Se10 2.565118 1_555
Pd1 Pd8 2.777969 1_554
Pd1 Pd7 2.777969 1_555
Pd2 Se16 2.565118 1_555
Pd2 Se17 2.565118 1_555
Pd2 Se6 2.565118 1_555
Pd2 Se15 2.565118 1_555
Pd2 Pd9 2.777969 1_555
Pd2 Pd4 2.777969 1_455
Pd3 Se4 2.579493 1_554
Pd3 Se0 2.579493 1_455
Pd3 Se1 2.579493 1_545
Pd3 Se2 2.579493 1_555
Pd3 Se5 2.579493 1_555
Pd3 Se3 2.579493 1_555
Pd4 Se24 2.466359 1_555
Pd4 Se25 2.466359 1_555
Pd4 Se22 2.466359 1_555
Pd4 Se20 2.466359 1_555
Pd5 Se19 2.466359 1_555
Pd5 Se22 2.466359 1_555
Pd5 Se18 2.466359 1_555
Pd5 Se28 2.466359 1_555
Pd6 Se26 2.466359 1_555
Pd6 Se25 2.466359 1_555
Pd6 Se27 2.466359 1_555
Pd6 Se29 2.466359 1_555
Pd7 Se29 2.466359 1_555
Pd7 Se24 2.466359 1_555
Pd7 Se23 2.466359 1_555
Pd7 Se28 2.466359 1_555
Pd8 Se20 2.466359 1_555
Pd8 Se21 2.466359 1_555
Pd8 Se18 2.466359 1_555
Pd8 Se27 2.466359 1_555
Pd9 Se19 2.466359 1_555
Pd9 Se23 2.466359 1_555
Pd9 Se26 2.466359 1_555
Pd9 Se21 2.466359 1_555
Pd10 Se20 2.441008 1_555
Pd10 Se6 2.521669 1_655
Pd10 Se10 2.521669 1_556
Pd10 Se1 2.527701 1_656
Pd11 Se24 2.441008 1_555
Pd11 Se13 2.521669 1_555
Pd11 Se17 2.521669 1_655
Pd11 Se2 2.527701 1_655
Pd12 Se18 2.441008 1_555
Pd12 Se8 2.521669 1_565
Pd12 Se10 2.521669 1_556
Pd12 Se0 2.527701 1_566
Pd13 Se28 2.441008 1_555
Pd13 Se7 2.521669 1_555
Pd13 Se11 2.521669 1_565
Pd13 Se5 2.527701 1_565
Pd14 Se22 2.441008 1_555
Pd14 Se8 2.521669 1_565
Pd14 Se6 2.521669 1_655
Pd14 Se4 2.527701 1_665
Pd15 Se26 2.441008 1_555
Pd15 Se15 2.521669 1_555
Pd15 Se9 2.521669 1_555
Pd15 Se4 2.527701 1_555
Pd16 Se22 2.441008 1_555
Pd16 Se12 2.521669 1_565
Pd16 Se16 2.521669 1_655
Pd16 Se3 2.527701 1_665
Pd17 Se25 2.441008 1_555
Pd17 Se8 2.521669 1_555
Pd17 Se15 2.521669 1_655
Pd17 Se4 2.527701 1_655
Pd18 Se8 2.565118 1_555
Pd18 Se12 2.565118 1_555
Pd18 Se9 2.565118 1_555
Pd18 Se11 2.565118 1_555
Pd18 Pd5 2.777969 1_545
Pd18 Pd6 2.777969 1_555
Pd19 Se21 2.441008 1_555
Pd19 Se6 2.521669 1_555
Pd19 Se7 2.521669 1_556
Pd19 Se1 2.527701 1_556
Pd20 Se27 2.441008 1_555
Pd20 Se8 2.521669 1_555
Pd20 Se13 2.521669 1_556
Pd20 Se0 2.527701 1_556
Pd21 Se28 2.441008 1_555
Pd21 Se10 2.521669 1_555
Pd21 Se12 2.521669 1_565
Pd21 Se0 2.527701 1_565
Pd22 Se20 2.441008 1_555
Pd22 Se15 2.521669 1_655
Pd22 Se13 2.521669 1_556
Pd22 Se2 2.527701 1_656
Pd23 Se18 2.441008 1_555
Pd23 Se9 2.521669 1_565
Pd23 Se7 2.521669 1_556
Pd23 Se5 2.527701 1_566
Pd24 Se24 2.441008 1_555
Pd24 Se10 2.521669 1_555
Pd24 Se16 2.521669 1_655
Pd24 Se1 2.527701 1_655
Pd25 Se23 2.441008 1_555
Pd25 Se14 2.521669 1_555
Pd25 Se17 2.521669 1_555
Pd25 Se2 2.527701 1_555
Pd26 Se29 2.441008 1_555
Pd26 Se14 2.521669 1_555
Pd26 Se11 2.521669 1_555
Pd26 Se5 2.527701 1_555
Pd27 Se19 2.441008 1_555
Pd27 Se16 2.521669 1_555
Pd27 Se11 2.521669 1_565
Pd27 Se3 2.527701 1_565
Pd28 Se25 2.441008 1_555
Pd28 Se12 2.521669 1_555
Pd28 Se17 2.521669 1_655
Pd28 Se3 2.527701 1_655
Pd29 Se29 2.441008 1_555
Pd29 Se12 2.521669 1_555
Pd29 Se13 2.521669 1_555
Pd29 Se0 2.527701 1_555
Pd30 Se27 2.441008 1_555
Pd30 Se9 2.521669 1_555
Pd30 Se14 2.521669 1_556
Pd30 Se5 2.527701 1_556
Pd31 Se21 2.441008 1_555
Pd31 Se15 2.521669 1_555
Pd31 Se14 2.521669 1_556
Pd31 Se2 2.527701 1_556
Pd32 Se23 2.441008 1_555
Pd32 Se7 2.521669 1_555
Pd32 Se16 2.521669 1_555
Pd32 Se1 2.527701 1_555
Pd33 Se26 2.441008 1_555
Pd33 Se17 2.521669 1_555
Pd33 Se11 2.521669 1_555
Pd33 Se3 2.527701 1_555
