# generated using pymatgen
data_Na6ZrZn3Si2(SO6)4
_symmetry_space_group_name_H-M   'P 1'
_cell_length_a   9.10615121
_cell_length_b   9.08809012
_cell_length_c   22.63190211
_cell_angle_alpha   89.13011387
_cell_angle_beta   90.51497230
_cell_angle_gamma   119.90883502
_symmetry_Int_Tables_number   1
_chemical_formula_structural   Na6ZrZn3Si2(SO6)4
_chemical_formula_sum   'Na18 Zr3 Zn9 Si6 S12 O72'
_cell_volume   1623.32979900
_cell_formula_units_Z   3
loop_
 _symmetry_equiv_pos_site_id
 _symmetry_equiv_pos_as_xyz
  1  'x, y, z'
loop_
 _atom_site_type_symbol
 _atom_site_label
 _atom_site_symmetry_multiplicity
 _atom_site_fract_x
 _atom_site_fract_y
 _atom_site_fract_z
 _atom_site_occupancy
  Na  Na0  1  0.63007567  0.99544253  0.25588468  1
  Na  Na1  1  0.36949362  0.36639342  0.24519291  1
  Na  Na2  1  0.64145188  0.64410283  0.74163748  1
  Na  Na3  1  0.31029215  0.34273561  0.58795546  1
  Na  Na4  1  0.02513252  0.70166014  0.58413781  1
  Na  Na5  1  0.66794353  0.95054121  0.58543591  1
  Na  Na6  1  0.29663756  0.97071905  0.07883635  1
  Na  Na7  1  0.05041810  0.33852552  0.07861800  1
  Na  Na8  1  0.98435752  0.67492415  0.91416414  1
  Na  Na9  1  0.70988541  0.03631723  0.90632826  1
  Na  Na10  1  0.30893813  0.28518575  0.91711792  1
  Na  Na11  1  0.69908283  0.68305221  0.41877006  1
  Na  Na12  1  0.98733136  0.99656956  0.49704285  1
  Na  Na13  1  0.01107475  0.01007666  0.99747574  1
  Na  Na14  1  0.67117511  0.31021147  0.82422075  1
  Na  Na15  1  0.67396428  0.32440957  0.33221720  1
  Na  Na16  1  0.33596905  0.65759073  0.16295753  1
  Na  Na17  1  0.34599672  0.67329012  0.66669546  1
  Zr  Zr0  1  0.65511100  0.32313850  0.98215217  1
  Zr  Zr1  1  0.66810030  0.32939318  0.47980401  1
  Zr  Zr2  1  0.32970383  0.68041450  0.81413742  1
  Zn  Zn0  1  0.98905194  0.00417264  0.35184469  1
  Zn  Zn1  1  0.00412109  0.02523903  0.84811041  1
  Zn  Zn2  1  0.97132800  0.97855157  0.65552436  1
  Zn  Zn3  1  0.01191025  0.00672303  0.14983730  1
  Zn  Zn4  1  0.66264860  0.32530784  0.68605707  1
  Zn  Zn5  1  0.66488493  0.34897105  0.17791370  1
  Zn  Zn6  1  0.32336233  0.65019159  0.01309605  1
  Zn  Zn7  1  0.36292916  0.67426935  0.51256137  1
  Zn  Zn8  1  0.33328904  0.68340420  0.32498325  1
  Si  Si0  1  0.70782607  0.00876262  0.74950272  1
  Si  Si1  1  0.66683594  0.62528665  0.58575163  1
  Si  Si2  1  0.36673753  0.33914576  0.08732899  1
  Si  Si3  1  0.03848155  0.36995379  0.91881462  1
  Si  Si4  1  0.32555238  0.95556209  0.92068205  1
  Si  Si5  1  0.63271953  0.96261952  0.41400362  1
  S  S0  1  0.28966580  0.99614972  0.25076875  1
  S  S1  1  0.71073398  0.70700695  0.24964196  1
  S  S2  1  0.00003536  0.29693016  0.24924214  1
  S  S3  1  0.29502614  0.29356977  0.74918385  1
  S  S4  1  0.99852708  0.70790446  0.74987916  1
  S  S5  1  0.96481407  0.33774270  0.58385368  1
  S  S6  1  0.37073198  0.03885599  0.58453537  1
  S  S7  1  0.95812510  0.62836449  0.08549341  1
  S  S8  1  0.66724805  0.03635146  0.08701491  1
  S  S9  1  0.62634499  0.66764951  0.91772928  1
  S  S10  1  0.32774726  0.36946813  0.41565679  1
  S  S11  1  0.04420600  0.66867181  0.41725470  1
  O  O0  1  0.20623784  0.02375265  0.30182195  1
  O  O1  1  0.80815608  0.78279899  0.30455721  1
  O  O2  1  0.97046120  0.18531902  0.30162723  1
  O  O3  1  0.21835861  0.19226968  0.80342667  1
  O  O4  1  0.97986962  0.78795128  0.80324087  1
  O  O5  1  0.80903931  0.02062326  0.81058277  1
  O  O6  1  0.77559424  0.96025703  0.69000786  1
  O  O7  1  0.19465495  0.21596834  0.69508544  1
  O  O8  1  0.03050638  0.81138690  0.69502822  1
  O  O9  1  0.79365645  0.81856421  0.19751514  1
  O  O10  1  0.02866306  0.22194984  0.19500365  1
  O  O11  1  0.19322177  0.97637086  0.19518498  1
  O  O12  1  0.88579689  0.36382739  0.63535018  1
  O  O13  1  0.48056225  0.11381304  0.63568435  1
  O  O14  1  0.63585811  0.50216909  0.64273316  1
  O  O15  1  0.87791639  0.51430133  0.13673153  1
  O  O16  1  0.64396347  0.11983909  0.13909181  1
  O  O17  1  0.47665443  0.35735004  0.14617083  1
  O  O18  1  0.46159329  0.30579082  0.02890653  1
  O  O19  1  0.85699831  0.54681646  0.03041614  1
  O  O20  1  0.69651836  0.14927415  0.03228648  1
  O  O21  1  0.45633380  0.14796039  0.53044957  1
  O  O22  1  0.69175664  0.53112319  0.52612767  1
  O  O23  1  0.85015301  0.30498875  0.53060845  1
  O  O24  1  0.54883133  0.69607468  0.96915671  1
  O  O25  1  0.14974857  0.44392861  0.97793546  1
  O  O26  1  0.30365421  0.84663791  0.98044602  1
  O  O27  1  0.55440050  0.85050346  0.47423714  1
  O  O28  1  0.30299038  0.44399030  0.46978029  1
  O  O29  1  0.13887292  0.68409240  0.47221918  1
  O  O30  1  0.11629079  0.63535444  0.36471185  1
  O  O31  1  0.52261339  0.88655198  0.35382130  1
  O  O32  1  0.36034712  0.47803935  0.36206417  1
  O  O33  1  0.13259495  0.49801733  0.86214071  1
  O  O34  1  0.37205747  0.87293501  0.86387723  1
  O  O35  1  0.51918510  0.63328558  0.86352715  1
  O  O36  1  0.02061604  0.81799871  0.41048192  1
  O  O37  1  0.81846336  0.97240131  0.41055296  1
  O  O38  1  0.18446450  0.19678768  0.40939993  1
  O  O39  1  0.01067206  0.17897079  0.91404437  1
  O  O40  1  0.15881883  0.97466044  0.90993334  1
  O  O41  1  0.79891090  0.81211639  0.91073201  1
  O  O42  1  0.98732600  0.18667411  0.58706962  1
  O  O43  1  0.20436794  0.03194049  0.58824241  1
  O  O44  1  0.84182952  0.81368172  0.58520829  1
  O  O45  1  0.97228334  0.79722607  0.08992483  1
  O  O46  1  0.82356277  0.02525559  0.09035866  1
  O  O47  1  0.17959840  0.15928022  0.08813609  1
  O  O48  1  0.68341765  0.17354964  0.74303134  1
  O  O49  1  0.46989372  0.32147982  0.74627294  1
  O  O50  1  0.84391676  0.53996872  0.74507309  1
  O  O51  1  0.68851132  0.53225137  0.24577074  1
  O  O52  1  0.84218159  0.30922412  0.24288686  1
  O  O53  1  0.46572150  0.15101111  0.24718235  1
  O  O54  1  0.64175282  0.50992891  0.92384121  1
  O  O55  1  0.85087896  0.36119082  0.92410383  1
  O  O56  1  0.50048358  0.14902474  0.92293209  1
  O  O57  1  0.65139472  0.15404475  0.42277909  1
  O  O58  1  0.49205618  0.36260796  0.42235244  1
  O  O59  1  0.86422695  0.51411361  0.42189831  1
  O  O60  1  0.34299150  0.50485822  0.08103060  1
  O  O61  1  0.13024656  0.64951419  0.08161054  1
  O  O62  1  0.51219781  0.87268675  0.07914996  1
  O  O63  1  0.34294779  0.86417662  0.57721041  1
  O  O64  1  0.49260536  0.64052902  0.58089028  1
  O  O65  1  0.13199006  0.49370458  0.57428321  1
  O  O66  1  0.31116934  0.84333734  0.25509660  1
  O  O67  1  0.53507014  0.68587690  0.25278855  1
  O  O68  1  0.15670635  0.46578170  0.25661951  1
  O  O69  1  0.31331029  0.46833603  0.75452160  1
  O  O70  1  0.15226683  0.68606005  0.75367234  1
  O  O71  1  0.51868490  0.82238583  0.75564683  1
loop_
_geom_bond_atom_site_label_1
_geom_bond_atom_site_label_2
_geom_bond_distance
_geom_bond_site_symmetry_2
Na0 O31 2.420003 1_555
Na0 O67 2.499207 1_555
Na0 O66 2.518136 1_555
Na0 O53 2.524674 1_565
Na0 O52 2.537945 1_565
Na0 O16 2.837873 1_565
Na0 O2 2.884370 1_565
Na0 O9 3.005947 1_555
Na1 O17 2.471074 1_555
Na1 O53 2.511660 1_555
Na1 O51 2.518836 1_555
Na1 O67 2.525464 1_555
Na1 O68 2.529583 1_555
Na1 O32 2.863966 1_555
Na1 O10 2.926608 1_555
Na1 O0 2.974198 1_555
Na2 O71 2.409114 1_555
Na2 O50 2.456831 1_555
Na2 O49 2.544423 1_555
Na2 O14 2.587847 1_555
Na2 O69 2.609017 1_555
Na2 O6 2.745291 1_555
Na3 O64 2.370057 1_555
Na3 O43 2.488181 1_555
Na3 O42 2.549793 1_455
Na3 O65 2.610368 1_555
Na3 O7 2.658167 1_555
Na3 O28 2.826200 1_555
Na3 O14 2.851354 1_555
Na4 O44 2.349328 1_455
Na4 O63 2.513988 1_555
Na4 O65 2.533578 1_555
Na4 O43 2.608143 1_565
Na4 O8 2.705611 1_555
Na4 O29 2.781785 1_555
Na4 O12 2.900561 1_455
Na4 O22 2.939340 1_455
Na5 O64 2.453068 1_555
Na5 O44 2.453298 1_555
Na5 O6 2.539324 1_555
Na5 O42 2.615631 1_565
Na5 O63 2.662180 1_555
Na5 O27 2.704505 1_555
Na6 O47 2.439905 1_565
Na6 O26 2.526819 1_554
Na6 O62 2.527930 1_555
Na6 O61 2.531087 1_555
Na6 O45 2.574880 1_455
Na6 O11 2.814265 1_555
Na6 O18 2.858450 1_565
Na7 O60 2.317273 1_555
Na7 O47 2.445313 1_555
Na7 O25 2.456553 1_554
Na7 O61 2.544999 1_555
Na7 O46 2.562301 1_455
Na7 O10 2.795555 1_555
Na8 O40 2.373298 1_655
Na8 O55 2.487353 1_555
Na8 O41 2.550825 1_555
Na8 O4 2.705672 1_555
Na8 O54 2.714173 1_555
Na8 O33 2.836117 1_655
Na8 O19 2.870194 1_556
Na8 O26 2.933818 1_655
Na9 O39 2.381287 1_655
Na9 O5 2.388312 1_555
Na9 O41 2.541340 1_545
Na9 O55 2.602676 1_555
Na9 O56 2.607451 1_555
Na9 O34 2.833096 1_545
Na10 O39 2.386980 1_555
Na10 O40 2.453989 1_545
Na10 O56 2.595061 1_555
Na10 O54 2.684761 1_555
Na10 O3 2.710576 1_555
Na10 O18 2.838990 1_556
Na10 O25 2.873824 1_555
Na10 O35 3.004962 1_555
Na11 O37 2.295501 1_555
Na11 O36 2.556167 1_655
Na11 O58 2.561682 1_555
Na11 O59 2.630786 1_555
Na11 O1 2.750792 1_555
Na11 O22 2.761082 1_555
Na11 O27 2.777544 1_555
Na11 O32 2.983831 1_555
Na12 O37 2.422094 1_555
Na12 O44 2.500041 1_555
Na12 O36 2.676029 1_655
Na12 O38 2.676715 1_665
Na12 O42 2.691317 1_565
Na12 O43 2.753688 1_665
Na13 O39 2.416368 1_555
Na13 O40 2.517561 1_545
Na13 O47 2.521181 1_556
Na13 O41 2.719593 1_445
Na13 O45 2.730089 1_446
Na13 O46 2.767986 1_456
Na14 O48 2.267671 1_555
Na14 O49 2.570147 1_555
Na14 O50 2.589317 1_555
Na14 O55 2.685477 1_555
Na14 O56 2.691678 1_555
Na15 O57 2.496826 1_555
Na15 O52 2.593798 1_555
Na15 O53 2.613310 1_555
Na15 O51 2.656322 1_555
Na15 O59 2.675417 1_555
Na15 O58 2.771548 1_555
Na16 O60 2.353184 1_555
Na16 O61 2.590211 1_555
Na16 O62 2.609194 1_555
Na16 O67 2.640325 1_555
Na16 O68 2.703518 1_555
Na16 O66 2.782901 1_555
Na17 O64 2.470352 1_555
Na17 O71 2.502520 1_555
Na17 O69 2.618054 1_555
Na17 O63 2.655584 1_555
Na17 O70 2.697030 1_555
Na17 O65 2.773850 1_555
O0 S0 1.479777 1_545
O0 Zn0 2.215382 1_455
O1 S1 1.484219 1_555
O1 Zn0 2.152944 1_565
O2 S2 1.484518 1_655
O2 Zn0 2.061119 1_555
O3 S3 1.477205 1_555
O3 Zn1 2.041693 1_555
O4 S4 1.473155 1_555
O4 Zn1 2.306073 1_665
O5 Si0 1.629277 1_555
O5 Zn1 1.943838 1_655
O6 Si0 1.640855 1_565
O6 Zn2 1.881258 1_555
O7 S3 1.481581 1_555
O7 Zn2 2.289755 1_445
O8 S4 1.486010 1_455
O8 Zn2 2.040646 1_455
O9 S1 1.485285 1_555
O9 Zn3 2.152150 1_665
O10 S2 1.499136 1_555
O10 Zn3 2.157415 1_555
O11 S0 1.488510 1_555
O11 Zn3 2.066513 1_565
O12 S5 1.458017 1_555
O12 Zn4 2.211101 1_555
O13 S6 1.458787 1_555
O13 Zn4 2.144228 1_555
O14 Si1 1.625594 1_555
O14 Zn4 1.985775 1_555
O15 S7 1.475274 1_555
O15 Zn5 1.993175 1_555
O16 S8 1.483855 1_555
O16 Zn5 2.191220 1_555
O17 Si2 1.618714 1_555
O17 Zn5 1.888453 1_555
O18 Si2 1.697070 1_555
O18 Zr0 2.000316 1_554
O19 S7 1.509257 1_555
O19 Zr0 2.238233 1_554
O20 S8 1.533930 1_555
O20 Zr0 2.111467 1_554
O21 S6 1.516128 1_555
O21 Zr1 2.136043 1_555
O22 Si1 1.684920 1_555
O22 Zr1 2.041354 1_555
O23 S5 1.519621 1_555
O23 Zr1 2.108126 1_555
O24 S9 1.457862 1_555
O24 Zn6 2.132732 1_556
O25 Si3 1.610129 1_555
O25 Zn6 1.927126 1_556
O26 Si4 1.617555 1_555
O26 Zn6 2.010642 1_556
O27 Si5 1.629653 1_555
O27 Zn7 1.886186 1_555
O28 S10 1.480658 1_555
O28 Zn7 2.127923 1_555
O29 S11 1.475034 1_555
O29 Zn7 2.269370 1_555
O30 S11 1.469626 1_555
O30 Zn8 2.015760 1_555
O31 Si5 1.628242 1_555
O31 Zn8 1.910225 1_555
O32 S10 1.486901 1_555
O32 Zn8 2.157698 1_555
O33 Si3 1.647401 1_555
O33 Zr2 2.040343 1_555
O34 Si4 1.658981 1_555
O34 Zr2 1.963740 1_555
O35 S9 1.496910 1_555
O35 Zr2 2.257839 1_555
O36 S11 1.481608 1_555
O36 Zn0 2.261951 1_465
O37 Si5 1.651390 1_555
O37 Zn0 1.959589 1_565
O38 S10 1.465170 1_555
O38 Zn0 2.201969 1_455
O39 Si3 1.629482 1_555
O39 Zn1 2.039806 1_555
O40 Si4 1.627704 1_555
O40 Zn1 2.178116 1_565
O41 S9 1.469316 1_555
O41 Zn1 2.367883 1_665
O42 S5 1.486476 1_555
O42 Zn2 2.374713 1_545
O43 S6 1.487681 1_555
O43 Zn2 2.462972 1_445
O44 Si1 1.658253 1_555
O44 Zn2 2.108268 1_555
O45 S7 1.479493 1_555
O45 Zn3 2.231179 1_665
O46 S8 1.477501 1_555
O46 Zn3 2.240919 1_655
O47 Si2 1.672753 1_555
O47 Zn3 2.017973 1_555
O48 Si0 1.624303 1_555
O48 Zn4 1.949955 1_555
O49 S3 1.484221 1_555
O49 Zn4 2.218111 1_555
O50 S4 1.477432 1_555
O50 Zn4 2.267736 1_555
O51 S1 1.501462 1_555
O51 Zn5 2.212143 1_555
O52 S2 1.501786 1_655
O52 Zn5 2.328543 1_555
O53 S0 1.518663 1_545
O53 Zn5 2.386448 1_555
O54 S9 1.512476 1_555
O54 Zr0 2.184749 1_555
O55 Si3 1.675351 1_655
O55 Zr0 2.106423 1_555
O56 Si4 1.685117 1_545
O56 Zr0 2.022711 1_555
O57 Si5 1.676226 1_545
O57 Zr1 2.011322 1_555
O58 S10 1.534338 1_555
O58 Zr1 2.187419 1_555
O59 S11 1.540447 1_655
O59 Zr1 2.170408 1_555
O60 Si2 1.628749 1_555
O60 Zn6 2.075856 1_555
O61 S7 1.484192 1_455
O61 Zn6 2.352624 1_555
O62 S8 1.465186 1_565
O62 Zn6 2.420438 1_555
O63 S6 1.489413 1_565
O63 Zn7 2.355249 1_555
O64 Si1 1.662549 1_555
O64 Zn7 2.047852 1_555
O65 S5 1.489370 1_455
O65 Zn7 2.368199 1_555
O66 S0 1.497780 1_555
O66 Zn8 2.207102 1_555
O67 S1 1.515268 1_555
O67 Zn8 2.461308 1_555
O68 S2 1.496103 1_555
O68 Zn8 2.401618 1_555
O69 S3 1.518793 1_555
O69 Zr2 2.312123 1_555
O70 S4 1.510365 1_455
O70 Zr2 2.127619 1_555
O71 Si0 1.715423 1_565
O71 Zr2 2.037980 1_555
