# generated using pymatgen
data_Na4MgCu(AsO4)2
_symmetry_space_group_name_H-M   'P 1'
_cell_length_a   5.41490099
_cell_length_b   5.58842925
_cell_length_c   9.06832800
_cell_angle_alpha   78.41025334
_cell_angle_beta   108.17052876
_cell_angle_gamma   119.17822139
_symmetry_Int_Tables_number   1
_chemical_formula_structural   Na4MgCu(AsO4)2
_chemical_formula_sum   'Na4 Mg1 Cu1 As2 O8'
_cell_volume   227.25033761
_cell_formula_units_Z   1
loop_
 _symmetry_equiv_pos_site_id
 _symmetry_equiv_pos_as_xyz
  1  'x, y, z'
loop_
 _atom_site_type_symbol
 _atom_site_label
 _atom_site_symmetry_multiplicity
 _atom_site_fract_x
 _atom_site_fract_y
 _atom_site_fract_z
 _atom_site_occupancy
  Na  Na0  1  0.38128620  0.57762697  0.12706746  1
  Na  Na1  1  0.74591428  0.43303909  0.90145625  1
  Na  Na2  1  0.97932406  0.20583076  0.58354955  1
  Na  Na3  1  0.62196417  0.55734026  0.51980813  1
  Mg  Mg0  1  0.14212405  0.88381409  0.31961502  1
  Cu  Cu0  1  0.01248015  1.00009918  0.92668082  1
  As  As0  1  0.37718604  0.83450135  0.71501008  1
  As  As1  1  0.68743241  0.18844652  0.23426078  1
  O  O0  1  0.56735501  0.20719115  0.38982320  1
  O  O1  1  0.25299460  0.11240205  0.11309035  1
  O  O2  1  0.21781945  0.62222556  0.85790341  1
  O  O3  1  0.72408683  0.84744949  0.74619409  1
  O  O4  1  0.98555836  0.51995565  0.21455093  1
  O  O5  1  0.80631493  0.92983323  0.33011531  1
  O  O6  1  0.41455928  0.16049567  0.70311162  1
  O  O7  1  0.18360017  0.68016596  0.53998500  1
loop_
_geom_bond_atom_site_label_1
_geom_bond_atom_site_label_2
_geom_bond_distance
_geom_bond_site_symmetry_2
Na0 O2 2.329508 1_554
Na0 O1 2.361029 1_555
Na0 O4 2.368350 1_455
Na0 O5 2.637722 1_555
Na1 O6 2.279826 1_555
Na1 O2 2.372945 1_655
Na1 O3 2.492526 1_555
Na1 O4 2.760940 1_556
Na2 O7 2.323589 1_655
Na2 O3 2.341404 1_545
Na2 O0 2.372677 1_555
Na2 O6 2.381630 1_655
Na2 O5 2.685334 1_545
Na3 O0 2.334755 1_555
Na3 O5 2.427933 1_555
Na3 O6 2.489437 1_555
Na3 O3 2.627540 1_555
Na3 O7 2.724249 1_655
Na3 O7 2.837090 1_555
Mg0 O5 1.988841 1_455
Mg0 O4 2.086853 1_455
Mg0 O7 2.096347 1_555
Mg0 O0 2.112752 1_565
Mg0 O1 2.119427 1_565
Cu0 O1 1.789909 1_566
Cu0 O3 1.874348 1_455
As0 O2 1.706655 1_555
As0 O6 1.716592 1_565
As0 O7 1.729939 1_555
As0 O3 1.777105 1_555
As1 O0 1.766821 1_555
As1 O4 1.789122 1_555
As1 O5 1.819913 1_545
As1 O1 2.126647 1_555
