# generated using pymatgen
data_Na6Mg4Nb4Si5S7O48
_symmetry_space_group_name_H-M   'P 1'
_cell_length_a   17.76928872
_cell_length_b   8.88984017
_cell_length_c   22.81221747
_cell_angle_alpha   90.04606620
_cell_angle_beta   90.08077486
_cell_angle_gamma   120.05401202
_symmetry_Int_Tables_number   1
_chemical_formula_structural   Na6Mg4Nb4Si5S7O48
_chemical_formula_sum   'Na18 Mg12 Nb12 Si15 S21 O144'
_cell_volume   3119.06490541
_cell_formula_units_Z   3
loop_
 _symmetry_equiv_pos_site_id
 _symmetry_equiv_pos_as_xyz
  1  'x, y, z'
loop_
 _atom_site_type_symbol
 _atom_site_label
 _atom_site_symmetry_multiplicity
 _atom_site_fract_x
 _atom_site_fract_y
 _atom_site_fract_z
 _atom_site_occupancy
  Na  Na0  1  0.00168020  0.62685247  0.25024711  1
  Na  Na1  1  0.50029198  0.62465714  0.24994197  1
  Na  Na2  1  0.00052975  0.36929875  0.74999758  1
  Na  Na3  1  0.50201676  0.37611931  0.75021886  1
  Na  Na4  1  0.33067178  0.96475367  0.58088309  1
  Na  Na5  1  0.83039069  0.69683557  0.08300253  1
  Na  Na6  1  0.99518711  0.98897618  0.49704485  1
  Na  Na7  1  0.50232848  0.99930716  0.49820958  1
  Na  Na8  1  0.00287598  0.00428723  0.00185594  1
  Na  Na9  1  0.49390562  0.99840418  0.00054992  1
  Na  Na10  1  0.32845755  0.34237863  0.82868415  1
  Na  Na11  1  0.82151526  0.32233675  0.82636112  1
  Na  Na12  1  0.32814811  0.32312602  0.32101488  1
  Na  Na13  1  0.82633498  0.31333965  0.32624900  1
  Na  Na14  1  0.17168670  0.67631972  0.16960331  1
  Na  Na15  1  0.66622183  0.67698091  0.17117238  1
  Na  Na16  1  0.17311020  0.65744667  0.66534438  1
  Na  Na17  1  0.66866727  0.66308459  0.66847836  1
  Mg  Mg0  1  0.33155182  0.34319637  0.68466495  1
  Mg  Mg1  1  0.82501448  0.32372364  0.68913738  1
  Mg  Mg2  1  0.33043217  0.32621378  0.19243380  1
  Mg  Mg3  1  0.83099015  0.31952518  0.18523325  1
  Mg  Mg4  1  0.17231206  0.67414868  0.02090306  1
  Mg  Mg5  1  0.66248426  0.66531584  0.01810606  1
  Mg  Mg6  1  0.16511746  0.66344885  0.51604882  1
  Mg  Mg7  1  0.66955589  0.66837076  0.51874660  1
  Mg  Mg8  1  0.16681196  0.67483281  0.31146242  1
  Mg  Mg9  1  0.67017970  0.67900122  0.31050026  1
  Mg  Mg10  1  0.17541270  0.66401267  0.81432478  1
  Mg  Mg11  1  0.66555636  0.65836637  0.81158383  1
  Nb  Nb0  1  0.00298517  0.99872737  0.35731030  1
  Nb  Nb1  1  0.50045758  0.00135208  0.34583469  1
  Nb  Nb2  1  0.00203974  0.01118255  0.85057900  1
  Nb  Nb3  1  0.50334280  0.00707545  0.85795548  1
  Nb  Nb4  1  0.99692370  0.00710180  0.64837363  1
  Nb  Nb5  1  0.50437323  0.00884663  0.64253920  1
  Nb  Nb6  1  0.00472024  0.00041521  0.14307078  1
  Nb  Nb7  1  0.49756153  0.99843829  0.15332263  1
  Nb  Nb8  1  0.33839922  0.34023442  0.97643353  1
  Nb  Nb9  1  0.83676039  0.33294625  0.98630289  1
  Nb  Nb10  1  0.34005179  0.34534509  0.48339157  1
  Nb  Nb11  1  0.83498730  0.33396696  0.47320848  1
  Si  Si0  1  0.14888235  0.00127392  0.25070562  1
  Si  Si1  1  0.65508064  0.00823746  0.24919512  1
  Si  Si2  1  0.34516628  0.69654620  0.25037098  1
  Si  Si3  1  0.50325874  0.30398239  0.24992737  1
  Si  Si4  1  0.15499856  0.30509513  0.74936761  1
  Si  Si5  1  0.64981490  0.29679364  0.75085105  1
  Si  Si6  1  0.84613814  0.99655166  0.75039482  1
  Si  Si7  1  0.48530529  0.35247895  0.58882955  1
  Si  Si8  1  0.32681104  0.62249267  0.58715722  1
  Si  Si9  1  0.98573895  0.61978429  0.08913473  1
  Si  Si10  1  0.82728322  0.02936848  0.08758128  1
  Si  Si11  1  0.30692014  0.66944161  0.91721349  1
  Si  Si12  1  0.52962366  0.39120945  0.91559506  1
  Si  Si13  1  0.80621083  0.93872191  0.41675013  1
  Si  Si14  1  0.03045995  0.66996657  0.41579414  1
  S  S0  1  0.85524223  0.71216250  0.24949988  1
  S  S1  1  0.99966970  0.28667179  0.25023603  1
  S  S2  1  0.00178649  0.71414145  0.74981601  1
  S  S3  1  0.49957519  0.71249408  0.75015376  1
  S  S4  1  0.35397064  0.99743695  0.74960816  1
  S  S5  1  0.97798868  0.33732171  0.58458499  1
  S  S6  1  0.18724648  0.04329804  0.58407892  1
  S  S7  1  0.69174585  0.04360515  0.58375617  1
  S  S8  1  0.83333066  0.62030526  0.58513259  1
  S  S9  1  0.47884625  0.62376398  0.08428645  1
  S  S10  1  0.33340861  0.04526931  0.08443273  1
  S  S11  1  0.19231902  0.33916550  0.08419702  1
  S  S12  1  0.68660646  0.33084379  0.08389967  1
  S  S13  1  0.81304742  0.66542688  0.91672506  1
  S  S14  1  0.02085901  0.37864579  0.91615140  1
  S  S15  1  0.16525571  0.95259651  0.91669572  1
  S  S16  1  0.66954929  0.95768732  0.91672740  1
  S  S17  1  0.31297806  0.95946741  0.41796238  1
  S  S18  1  0.16916671  0.38063184  0.41694088  1
  S  S19  1  0.66370410  0.37594511  0.41753196  1
  S  S20  1  0.52218179  0.66896086  0.41718566  1
  O  O0  1  0.09128598  0.02062589  0.30586677  1
  O  O1  1  0.59702512  0.02505897  0.30650442  1
  O  O2  1  0.41559663  0.80623170  0.30660036  1
  O  O3  1  0.91249896  0.80191507  0.30149026  1
  O  O4  1  0.48768692  0.16891296  0.30662878  1
  O  O5  1  0.98739486  0.17752952  0.30287024  1
  O  O6  1  0.09528121  0.16930808  0.80647852  1
  O  O7  1  0.59254022  0.16159465  0.80568395  1
  O  O8  1  0.48748726  0.79694310  0.80283736  1
  O  O9  1  0.98813385  0.79816439  0.80298176  1
  O  O10  1  0.41049900  0.02060041  0.80152214  1
  O  O11  1  0.91744518  0.02069153  0.80549371  1
  O  O12  1  0.39470600  0.97076087  0.69505566  1
  O  O13  1  0.90337566  0.97299626  0.69322108  1
  O  O14  1  0.08223869  0.18444802  0.69413369  1
  O  O15  1  0.58215688  0.18233050  0.69386929  1
  O  O16  1  0.01377638  0.82415784  0.69681401  1
  O  O17  1  0.50731818  0.81923945  0.69690929  1
  O  O18  1  0.40126843  0.83386963  0.19344390  1
  O  O19  1  0.89653175  0.81993291  0.19473764  1
  O  O20  1  0.00729284  0.19499033  0.19687178  1
  O  O21  1  0.51457004  0.19525934  0.19278635  1
  O  O22  1  0.08053464  0.97830996  0.19384166  1
  O  O23  1  0.58368141  0.97673169  0.19295524  1
  O  O24  1  0.43424354  0.35041162  0.64599393  1
  O  O25  1  0.93777578  0.35459230  0.63811395  1
  O  O26  1  0.24044988  0.12206940  0.63598642  1
  O  O27  1  0.74289329  0.12632363  0.63609698  1
  O  O28  1  0.31216790  0.50268602  0.64105558  1
  O  O29  1  0.82619863  0.51887090  0.63723224  1
  O  O30  1  0.43741673  0.52166068  0.13634612  1
  O  O31  1  0.93387273  0.51725612  0.14557399  1
  O  O32  1  0.32514016  0.13165547  0.13588887  1
  O  O33  1  0.81349052  0.12487213  0.14012795  1
  O  O34  1  0.24328401  0.35760492  0.13601492  1
  O  O35  1  0.74086047  0.35944956  0.13500327  1
  O  O36  1  0.22891842  0.30224016  0.03048343  1
  O  O37  1  0.73047415  0.30515371  0.02912571  1
  O  O38  1  0.42176591  0.53465272  0.03040935  1
  O  O39  1  0.91510322  0.52796346  0.02884343  1
  O  O40  1  0.34487599  0.15398525  0.03012879  1
  O  O41  1  0.84588098  0.16542757  0.02688169  1
  O  O42  1  0.22730210  0.15317397  0.53010719  1
  O  O43  1  0.72953117  0.15597529  0.53100954  1
  O  O44  1  0.34528521  0.52546435  0.52704593  1
  O  O45  1  0.84725268  0.54057034  0.53135203  1
  O  O46  1  0.41511032  0.30236516  0.52912269  1
  O  O47  1  0.92199309  0.30490358  0.53198920  1
  O  O48  1  0.27207942  0.70586980  0.97598736  1
  O  O49  1  0.77977713  0.69619392  0.97114769  1
  O  O50  1  0.07219733  0.45290014  0.96832414  1
  O  O51  1  0.58232201  0.46104918  0.97438272  1
  O  O52  1  0.14991792  0.85085692  0.96932783  1
  O  O53  1  0.65583401  0.85794638  0.96971855  1
  O  O54  1  0.27696115  0.86218746  0.47268322  1
  O  O55  1  0.77305999  0.83948285  0.47705337  1
  O  O56  1  0.15486586  0.45246870  0.47041110  1
  O  O57  1  0.65171410  0.45094008  0.47081479  1
  O  O58  1  0.08109911  0.70194265  0.47548557  1
  O  O59  1  0.57221240  0.68911310  0.46999354  1
  O  O60  1  0.05750914  0.62323184  0.35523489  1
  O  O61  1  0.55482968  0.63702500  0.36315952  1
  O  O62  1  0.26091172  0.87988802  0.36598105  1
  O  O63  1  0.75113318  0.87527470  0.35857076  1
  O  O64  1  0.18328392  0.48151377  0.36417267  1
  O  O65  1  0.67977061  0.47551554  0.36442498  1
  O  O66  1  0.05531638  0.47336004  0.86122317  1
  O  O67  1  0.55688059  0.49058260  0.85460031  1
  O  O68  1  0.17816550  0.87940442  0.86284906  1
  O  O69  1  0.68346011  0.88467041  0.86338015  1
  O  O70  1  0.25354458  0.62215154  0.85781243  1
  O  O71  1  0.76091799  0.64293730  0.86454525  1
  O  O72  1  0.00869197  0.83446629  0.40726440  1
  O  O73  1  0.50789326  0.82174855  0.41307561  1
  O  O74  1  0.40363587  0.98501003  0.41264270  1
  O  O75  1  0.90998678  0.99016104  0.40505320  1
  O  O76  1  0.08910673  0.19977204  0.41103830  1
  O  O77  1  0.58756788  0.19322057  0.41261025  1
  O  O78  1  0.00849431  0.19366540  0.91015275  1
  O  O79  1  0.50858199  0.18295841  0.90662027  1
  O  O80  1  0.08625570  0.97814115  0.90912205  1
  O  O81  1  0.58940055  0.97804968  0.91066822  1
  O  O82  1  0.40996654  0.82930963  0.90476051  1
  O  O83  1  0.90506364  0.82206868  0.90880104  1
  O  O84  1  0.48528523  0.15810650  0.59084171  1
  O  O85  1  0.98485266  0.16954018  0.58892430  1
  O  O86  1  0.09805717  0.02513247  0.58928913  1
  O  O87  1  0.60150936  0.02742282  0.58902270  1
  O  O88  1  0.41975891  0.81607672  0.59116824  1
  O  O89  1  0.91687196  0.80032162  0.59038423  1
  O  O90  1  0.48475250  0.79897235  0.08564327  1
  O  O91  1  0.98536977  0.81263025  0.09008720  1
  O  O92  1  0.41540216  0.03168655  0.08654678  1
  O  O93  1  0.92001513  0.02282895  0.09034140  1
  O  O94  1  0.10120978  0.17473459  0.08893882  1
  O  O95  1  0.59986274  0.16992432  0.08578809  1
  O  O96  1  0.35101553  0.15936179  0.74515476  1
  O  O97  1  0.85883635  0.18673973  0.74443745  1
  O  O98  1  0.24200735  0.29965649  0.74766761  1
  O  O99  1  0.74147074  0.30863589  0.74670906  1
  O  O100  1  0.42292137  0.53673885  0.74614730  1
  O  O101  1  0.92452398  0.54193692  0.74342861  1
  O  O102  1  0.35557089  0.53069134  0.24348938  1
  O  O103  1  0.85273060  0.54478269  0.24506975  1
  O  O104  1  0.41735208  0.31425847  0.24425863  1
  O  O105  1  0.92294358  0.30843671  0.24612651  1
  O  O106  1  0.23748830  0.17525355  0.24580396  1
  O  O107  1  0.74281627  0.18825753  0.24719164  1
  O  O108  1  0.32324507  0.49528126  0.93034766  1
  O  O109  1  0.82388121  0.50750253  0.92224067  1
  O  O110  1  0.42459399  0.34618044  0.92892520  1
  O  O111  1  0.92963039  0.35093696  0.92234161  1
  O  O112  1  0.24242112  0.13445941  0.92398237  1
  O  O113  1  0.74547117  0.14196946  0.92352930  1
  O  O114  1  0.32270302  0.13932058  0.42457378  1
  O  O115  1  0.82325724  0.14895100  0.43006137  1
  O  O116  1  0.24489456  0.34833999  0.42482011  1
  O  O117  1  0.74372900  0.35139299  0.42588212  1
  O  O118  1  0.42965918  0.50612842  0.42451838  1
  O  O119  1  0.92500876  0.50303845  0.42978105  1
  O  O120  1  0.17774461  0.48500312  0.07629636  1
  O  O121  1  0.67946716  0.48618684  0.07453486  1
  O  O122  1  0.07839907  0.64823883  0.07407997  1
  O  O123  1  0.56498691  0.64503110  0.07575324  1
  O  O124  1  0.25763129  0.87216639  0.07748294  1
  O  O125  1  0.75155608  0.83523326  0.07349237  1
  O  O126  1  0.17800701  0.87068348  0.57612120  1
  O  O127  1  0.67808720  0.86980009  0.57638164  1
  O  O128  1  0.25111297  0.66716685  0.57438682  1
  O  O129  1  0.75917341  0.64605026  0.57898743  1
  O  O130  1  0.06557573  0.48321057  0.57732142  1
  O  O131  1  0.57912889  0.50854166  0.57523258  1
  O  O132  1  0.14308070  0.81672837  0.25254383  1
  O  O133  1  0.64717520  0.82213949  0.25230905  1
  O  O134  1  0.25576994  0.69069851  0.25610186  1
  O  O135  1  0.77029108  0.69523753  0.25491583  1
  O  O136  1  0.07927106  0.45548849  0.25382508  1
  O  O137  1  0.59092623  0.48434523  0.25650596  1
  O  O138  1  0.14381488  0.47324605  0.75197582  1
  O  O139  1  0.64459937  0.47049917  0.75242884  1
  O  O140  1  0.08007877  0.70012797  0.75680872  1
  O  O141  1  0.57935758  0.70282856  0.75360737  1
  O  O142  1  0.26730225  0.84452750  0.75474276  1
  O  O143  1  0.75677443  0.82477024  0.75594403  1
loop_
_geom_bond_atom_site_label_1
_geom_bond_atom_site_label_2
_geom_bond_distance
_geom_bond_site_symmetry_2
Na0 O132 2.217311 1_555
Na0 O103 2.369858 1_455
Na0 O105 2.451803 1_455
Na0 O136 2.516344 1_555
Na0 O60 2.597428 1_555
Na0 O31 2.629646 1_455
Na1 O102 2.275877 1_555
Na1 O133 2.303698 1_555
Na1 O104 2.393450 1_555
Na1 O137 2.486725 1_555
Na1 O61 2.739993 1_555
Na1 O30 2.786610 1_555
Na2 O97 2.212500 1_455
Na2 O138 2.231917 1_555
Na2 O101 2.505556 1_455
Na2 O140 2.550773 1_555
Na2 O66 2.707144 1_555
Na2 O25 2.760479 1_455
Na2 O11 2.969063 1_455
Na2 O14 2.970548 1_555
Na3 O139 2.235162 1_555
Na3 O96 2.397064 1_555
Na3 O100 2.456172 1_555
Na3 O141 2.516246 1_555
Na3 O67 2.579099 1_555
Na3 O24 2.621239 1_555
Na4 O128 2.296064 1_555
Na4 O126 2.407668 1_555
Na4 O84 2.412821 1_565
Na4 O88 2.530430 1_555
Na4 O54 2.636807 1_555
Na4 O12 2.830489 1_555
Na4 O46 2.855427 1_565
Na4 O26 2.890453 1_565
Na5 O125 2.291071 1_555
Na5 O121 2.388277 1_555
Na5 O91 2.414248 1_555
Na5 O93 2.517637 1_565
Na5 O49 2.703371 1_554
Na5 O19 2.788310 1_555
Na5 O35 2.857561 1_555
Na5 O39 2.883018 1_555
Na6 O72 2.542827 1_655
Na6 O75 2.589024 1_555
Na6 O89 2.638086 1_555
Na6 O76 2.651212 1_665
Na6 O86 2.696714 1_665
Na6 O85 2.700810 1_565
Na7 O73 2.534762 1_555
Na7 O77 2.545068 1_565
Na7 O74 2.582342 1_555
Na7 O88 2.631234 1_555
Na7 O84 2.641066 1_565
Na7 O87 2.647229 1_565
Na8 O93 2.553536 1_455
Na8 O91 2.554853 1_445
Na8 O94 2.574671 1_555
Na8 O78 2.656774 1_554
Na8 O80 2.660327 1_544
Na8 O83 2.704650 1_444
Na9 O92 2.510417 1_565
Na9 O90 2.579810 1_555
Na9 O95 2.600038 1_565
Na9 O79 2.632448 1_564
Na9 O82 2.645578 1_554
Na9 O81 2.726360 1_554
Na10 O98 2.307865 1_555
Na10 O100 2.541105 1_555
Na10 O96 2.662529 1_555
Na10 O108 2.712271 1_555
Na10 O112 2.768620 1_555
Na10 O110 2.842441 1_555
Na11 O99 2.271198 1_555
Na11 O97 2.487186 1_555
Na11 O113 2.674748 1_555
Na11 O101 2.679031 1_555
Na11 O109 2.723964 1_555
Na11 O111 2.836796 1_555
Na12 O106 2.265923 1_555
Na12 O104 2.391113 1_555
Na12 O102 2.424262 1_555
Na12 O114 2.847593 1_555
Na12 O116 2.861372 1_555
Na12 O118 2.918532 1_555
Na13 O107 2.242263 1_555
Na13 O105 2.524531 1_555
Na13 O103 2.631480 1_555
Na13 O115 2.769991 1_555
Na13 O117 2.817874 1_555
Na13 O119 2.918307 1_555
Na14 O134 2.437677 1_555
Na14 O132 2.455751 1_555
Na14 O136 2.651016 1_555
Na14 O124 2.670466 1_555
Na14 O122 2.670780 1_555
Na14 O120 2.759184 1_555
Na15 O133 2.375081 1_555
Na15 O137 2.495983 1_555
Na15 O135 2.604701 1_555
Na15 O125 2.668635 1_555
Na15 O123 2.744255 1_555
Na15 O121 2.861371 1_555
Na16 O138 2.452001 1_555
Na16 O128 2.474355 1_555
Na16 O142 2.631187 1_555
Na16 O130 2.664973 1_555
Na16 O126 2.754139 1_555
Na16 O140 2.804804 1_555
Na17 O139 2.460857 1_555
Na17 O143 2.496167 1_555
Na17 O131 2.596142 1_555
Na17 O141 2.642689 1_555
Na17 O129 2.651358 1_555
Na17 O127 2.741906 1_555
Mg0 O28 1.899747 1_555
Mg0 O24 1.999870 1_555
Mg0 O98 2.034120 1_555
Mg0 O26 2.126497 1_555
Mg0 O100 2.180629 1_555
Mg0 O96 2.294120 1_555
Mg1 O99 1.937257 1_555
Mg1 O27 2.024744 1_555
Mg1 O97 2.041803 1_555
Mg1 O29 2.092584 1_555
Mg1 O25 2.213868 1_555
Mg1 O101 2.231109 1_555
Mg2 O106 1.949146 1_555
Mg2 O104 1.988455 1_555
Mg2 O102 2.010510 1_555
Mg2 O32 2.120702 1_555
Mg2 O34 2.135462 1_555
Mg2 O30 2.229778 1_555
Mg3 O33 1.899238 1_555
Mg3 O107 1.997965 1_555
Mg3 O31 2.009714 1_555
Mg3 O35 2.137456 1_555
Mg3 O105 2.182722 1_555
Mg3 O103 2.289488 1_555
Mg4 O48 1.943459 1_554
Mg4 O122 1.982565 1_555
Mg4 O124 2.093055 1_555
Mg4 O120 2.144557 1_555
Mg4 O52 2.153634 1_554
Mg4 O50 2.226529 1_554
Mg5 O51 1.929658 1_554
Mg5 O125 1.994941 1_555
Mg5 O53 2.090517 1_554
Mg5 O123 2.111208 1_555
Mg5 O121 2.183458 1_555
Mg5 O49 2.236185 1_554
Mg6 O58 1.926287 1_555
Mg6 O128 2.012661 1_555
Mg6 O56 2.070983 1_555
Mg6 O54 2.131000 1_555
Mg6 O130 2.195795 1_555
Mg6 O126 2.212878 1_555
Mg7 O55 1.950940 1_555
Mg7 O131 1.995775 1_555
Mg7 O57 2.100980 1_555
Mg7 O59 2.139449 1_555
Mg7 O127 2.163770 1_555
Mg7 O129 2.185063 1_555
Mg8 O134 1.973849 1_555
Mg8 O60 2.023264 1_555
Mg8 O132 2.027179 1_555
Mg8 O62 2.145481 1_555
Mg8 O136 2.214205 1_555
Mg8 O64 2.234099 1_555
Mg9 O63 1.947993 1_555
Mg9 O137 2.011376 1_555
Mg9 O133 2.017588 1_555
Mg9 O135 2.131350 1_555
Mg9 O61 2.241669 1_555
Mg9 O65 2.264154 1_555
Mg10 O70 1.887954 1_555
Mg10 O138 2.062617 1_555
Mg10 O142 2.115170 1_555
Mg10 O68 2.190159 1_555
Mg10 O66 2.226611 1_555
Mg10 O140 2.287678 1_555
Mg11 O143 2.008423 1_555
Mg11 O67 2.009847 1_555
Mg11 O139 2.030021 1_555
Mg11 O71 2.139424 1_555
Mg11 O141 2.202962 1_555
Mg11 O69 2.213317 1_555
Nb0 O0 1.891190 1_565
Nb0 O72 1.895232 1_555
Nb0 O75 1.949859 1_455
Nb0 O76 2.071241 1_565
Nb0 O3 2.107327 1_455
Nb0 O5 2.142173 1_465
Nb1 O4 1.846733 1_555
Nb1 O1 1.853715 1_555
Nb1 O2 1.859433 1_545
Nb1 O77 2.229440 1_555
Nb1 O74 2.249701 1_545
Nb1 O73 2.265900 1_545
Nb2 O6 1.845904 1_555
Nb2 O11 1.856764 1_455
Nb2 O78 2.073978 1_555
Nb2 O9 2.086468 1_445
Nb2 O80 2.131781 1_545
Nb2 O83 2.160590 1_445
Nb3 O79 1.880685 1_555
Nb3 O7 1.910015 1_555
Nb3 O82 1.942111 1_545
Nb3 O81 2.059496 1_545
Nb3 O10 2.141601 1_555
Nb3 O8 2.148952 1_545
Nb4 O13 1.844521 1_545
Nb4 O14 1.863448 1_655
Nb4 O85 2.069557 1_555
Nb4 O16 2.108445 1_645
Nb4 O89 2.127016 1_545
Nb4 O86 2.188722 1_655
Nb5 O15 1.875484 1_555
Nb5 O84 1.928395 1_555
Nb5 O88 1.995415 1_545
Nb5 O87 2.053698 1_555
Nb5 O17 2.115133 1_545
Nb5 O12 2.166498 1_545
Nb6 O22 1.859040 1_545
Nb6 O91 1.945915 1_445
Nb6 O93 2.011905 1_455
Nb6 O94 2.052752 1_555
Nb6 O20 2.101818 1_555
Nb6 O19 2.139894 1_445
Nb7 O18 1.845258 1_555
Nb7 O21 1.852108 1_565
Nb7 O23 1.867777 1_555
Nb7 O92 2.228416 1_565
Nb7 O90 2.273795 1_555
Nb7 O95 2.288650 1_565
Nb8 O110 1.856581 1_555
Nb8 O108 1.857662 1_555
Nb8 O38 2.030934 1_556
Nb8 O40 2.109218 1_556
Nb8 O112 2.133650 1_555
Nb8 O36 2.183623 1_556
Nb9 O41 1.828789 1_556
Nb9 O39 1.860489 1_556
Nb9 O37 2.029895 1_556
Nb9 O111 2.149564 1_555
Nb9 O113 2.189840 1_555
Nb9 O109 2.225869 1_555
Nb10 O44 1.847252 1_555
Nb10 O46 1.876251 1_555
Nb10 O118 2.027695 1_555
Nb10 O42 2.156114 1_555
Nb10 O114 2.163145 1_555
Nb10 O116 2.164217 1_555
Nb11 O115 1.836009 1_555
Nb11 O119 1.843356 1_555
Nb11 O117 2.016457 1_555
Nb11 O47 2.156349 1_555
Nb11 O45 2.185056 1_555
Nb11 O43 2.189564 1_555
O0 Si0 1.685265 1_555
O1 Si1 1.718647 1_555
O2 Si2 1.712762 1_555
O3 S0 1.503447 1_555
O4 Si3 1.691796 1_555
O5 S1 1.490403 1_555
O6 Si4 1.733185 1_555
O7 Si5 1.681007 1_555
O8 S3 1.488265 1_555
O9 S2 1.506194 1_655
O10 S4 1.497645 1_545
O11 Si6 1.718755 1_545
O12 S4 1.517521 1_555
O13 Si6 1.730896 1_555
O14 Si4 1.736035 1_555
O15 Si5 1.714237 1_555
O16 S2 1.502582 1_555
O17 S3 1.505422 1_555
O18 Si2 1.719820 1_555
O19 S0 1.522249 1_555
O20 S1 1.507992 1_455
O21 Si3 1.693229 1_555
O22 Si0 1.716440 1_565
O23 Si1 1.724229 1_565
O24 Si7 1.584549 1_555
O25 S5 1.461960 1_555
O26 S6 1.455571 1_555
O27 S7 1.455517 1_555
O28 Si8 1.561813 1_555
O29 S8 1.459254 1_555
O30 S9 1.452969 1_555
O31 Si9 1.581663 1_555
O32 S10 1.449577 1_555
O33 Si10 1.557369 1_555
O34 S11 1.446477 1_555
O35 S12 1.450491 1_555
O36 S11 1.499186 1_555
O37 S12 1.549730 1_555
O38 S9 1.535255 1_555
O39 Si9 1.760816 1_555
O40 S10 1.521700 1_555
O41 Si10 1.758747 1_555
O42 S6 1.511498 1_555
O43 S7 1.492971 1_555
O44 Si8 1.736421 1_555
O45 S8 1.497968 1_555
O46 Si7 1.745589 1_555
O47 S5 1.490478 1_555
O48 Si11 1.577420 1_555
O49 S13 1.459152 1_555
O50 S14 1.441168 1_555
O51 Si12 1.572773 1_555
O52 S15 1.445561 1_555
O53 S16 1.446725 1_555
O54 S17 1.471515 1_555
O55 Si13 1.581590 1_555
O56 S18 1.456855 1_555
O57 S19 1.452244 1_555
O58 Si14 1.576203 1_555
O59 S20 1.452844 1_555
O60 Si14 1.585280 1_555
O61 S20 1.450008 1_555
O62 S17 1.450020 1_555
O63 Si13 1.574690 1_555
O64 S18 1.446896 1_555
O65 S19 1.443020 1_555
O66 S14 1.463359 1_555
O67 Si12 1.589457 1_555
O68 S15 1.460779 1_555
O69 S16 1.457308 1_555
O70 Si11 1.583851 1_555
O71 S13 1.458054 1_555
O72 Si14 1.700835 1_555
O73 S20 1.504552 1_555
O74 S17 1.515115 1_555
O75 Si13 1.684547 1_555
O76 S18 1.528104 1_555
O77 S19 1.509844 1_555
O78 S14 1.552051 1_555
O79 Si12 1.707319 1_555
O80 S15 1.539701 1_555
O81 S16 1.529016 1_555
O82 Si11 1.687857 1_555
O83 S13 1.538143 1_555
O84 Si7 1.728408 1_555
O85 S5 1.559430 1_555
O86 S6 1.515290 1_555
O87 S7 1.541321 1_555
O88 Si8 1.688247 1_555
O89 S8 1.548776 1_555
O90 S9 1.508042 1_555
O91 Si9 1.717785 1_555
O92 S10 1.521737 1_555
O93 Si10 1.678746 1_555
O94 S11 1.549132 1_555
O95 S12 1.488568 1_555
O96 S4 1.470078 1_545
O97 Si6 1.595721 1_545
O98 Si4 1.571387 1_555
O99 Si5 1.581535 1_555
O100 S3 1.473977 1_555
O101 S2 1.464092 1_655
O102 Si2 1.582877 1_555
O103 S0 1.469530 1_555
O104 Si3 1.579370 1_555
O105 S1 1.472716 1_555
O106 Si0 1.563721 1_555
O107 Si1 1.579554 1_555
O108 Si11 1.738211 1_555
O109 S13 1.514864 1_555
O110 Si12 1.728957 1_555
O111 S14 1.519610 1_655
O112 S15 1.516594 1_545
O113 S16 1.520919 1_545
O114 S17 1.527015 1_545
O115 Si13 1.763112 1_545
O116 S18 1.520446 1_555
O117 S19 1.554396 1_555
O118 S20 1.563248 1_555
O119 Si14 1.741357 1_655
O120 S11 1.454972 1_555
O121 S12 1.464479 1_555
O122 Si9 1.573998 1_455
O123 S9 1.458626 1_555
O124 S10 1.459398 1_565
O125 Si10 1.601333 1_565
O126 S6 1.470296 1_565
O127 S7 1.448582 1_565
O128 Si8 1.608118 1_555
O129 S8 1.452595 1_555
O130 S5 1.452937 1_455
O131 Si7 1.576665 1_555
O132 Si0 1.592045 1_565
O133 Si1 1.590345 1_565
O134 Si2 1.568770 1_555
O135 S0 1.445552 1_555
O136 S1 1.460451 1_455
O137 Si3 1.586579 1_555
O138 Si4 1.604681 1_555
O139 Si5 1.593031 1_555
O140 S2 1.466083 1_555
O141 S3 1.464618 1_555
O142 S4 1.461900 1_555
O143 Si6 1.562557 1_555
