# generated using pymatgen
data_Na3ScGa(PO4)3
_symmetry_space_group_name_H-M   'P 1'
_cell_length_a   15.43719975
_cell_length_b   8.87926697
_cell_length_c   8.89153031
_cell_angle_alpha   90.04873708
_cell_angle_beta   124.89216528
_cell_angle_gamma   89.93739236
_symmetry_Int_Tables_number   1
_chemical_formula_structural   Na3ScGa(PO4)3
_chemical_formula_sum   'Na12 Sc4 Ga4 P12 O48'
_cell_volume   999.67211923
_cell_formula_units_Z   4
loop_
 _symmetry_equiv_pos_site_id
 _symmetry_equiv_pos_as_xyz
  1  'x, y, z'
loop_
 _atom_site_type_symbol
 _atom_site_label
 _atom_site_symmetry_multiplicity
 _atom_site_fract_x
 _atom_site_fract_y
 _atom_site_fract_z
 _atom_site_occupancy
  Na  Na0  1  0.24367169  0.77117625  0.99624536  1
  Na  Na1  1  0.74863710  0.72704693  0.50317585  1
  Na  Na2  1  0.74892810  0.27125414  0.00360626  1
  Na  Na3  1  0.24384702  0.22841641  0.49579319  1
  Na  Na4  1  0.50323039  0.10164851  0.75213537  1
  Na  Na5  1  0.50210998  0.90097826  0.24746232  1
  Na  Na6  1  0.00325828  0.60755119  0.75049820  1
  Na  Na7  1  0.00136129  0.38932892  0.24773035  1
  Na  Na8  1  0.81498794  0.93294341  0.21650512  1
  Na  Na9  1  0.81202470  0.06905959  0.71363257  1
  Na  Na10  1  0.30772884  0.43267329  0.20595231  1
  Na  Na11  1  0.31048151  0.56662111  0.71489207  1
  Sc  Sc0  1  0.10423053  0.75881119  0.55769949  1
  Sc  Sc1  1  0.60394944  0.25805483  0.55927560  1
  Sc  Sc2  1  0.39621600  0.75052558  0.44027806  1
  Sc  Sc3  1  0.60579292  0.74183147  0.05993156  1
  Ga  Ga0  1  0.89880902  0.74990760  0.94419840  1
  Ga  Ga1  1  0.89986353  0.25020012  0.44582504  1
  Ga  Ga2  1  0.10160119  0.24385769  0.05268762  1
  Ga  Ga3  1  0.39817959  0.25079119  0.94250321  1
  P  P0  1  0.99930284  0.95940782  0.75139634  1
  P  P1  1  0.99859172  0.04873064  0.24113869  1
  P  P2  1  0.49664092  0.44687185  0.74985855  1
  P  P3  1  0.49698764  0.54548522  0.24071985  1
  P  P4  1  0.35640503  0.90305284  0.76330549  1
  P  P5  1  0.65473880  0.89113525  0.74891286  1
  P  P6  1  0.65206496  0.11036230  0.24655743  1
  P  P7  1  0.35111079  0.10674851  0.24684701  1
  P  P8  1  0.85993687  0.39950995  0.75758615  1
  P  P9  1  0.14788663  0.38848058  0.74760402  1
  P  P10  1  0.14486446  0.60128342  0.23807247  1
  P  P11  1  0.85773171  0.59885515  0.25605431  1
  O  O0  1  0.15638112  0.56397523  0.74255216  1
  O  O1  1  0.85430987  0.57398885  0.76192043  1
  O  O2  1  0.85285123  0.42453725  0.26135051  1
  O  O3  1  0.15219438  0.42537352  0.23325671  1
  O  O4  1  0.66230627  0.06602336  0.74360093  1
  O  O5  1  0.34982475  0.07742009  0.76270453  1
  O  O6  1  0.34556011  0.93244862  0.24915087  1
  O  O7  1  0.66080468  0.93524426  0.24294158  1
  O  O8  1  0.42910384  0.54078899  0.57273276  1
  O  O9  1  0.55740740  0.55086618  0.91672641  1
  O  O10  1  0.55642970  0.44346327  0.41003752  1
  O  O11  1  0.42870946  0.45061903  0.06310470  1
  O  O12  1  0.92791203  0.05365972  0.57336439  1
  O  O13  1  0.06386085  0.06028846  0.92154692  1
  O  O14  1  0.06314440  0.94804447  0.41093470  1
  O  O15  1  0.92594639  0.95128500  0.06706899  1
  O  O16  1  0.26284306  0.82468010  0.74927373  1
  O  O17  1  0.74954110  0.82150554  0.75726484  1
  O  O18  1  0.74827978  0.17775631  0.25737901  1
  O  O19  1  0.25625441  0.18274985  0.23276499  1
  O  O20  1  0.76492988  0.32531000  0.74368176  1
  O  O21  1  0.24390706  0.32185365  0.75788309  1
  O  O22  1  0.23985974  0.66691485  0.24479796  1
  O  O23  1  0.76397279  0.67471099  0.24409624  1
  O  O24  1  0.35935145  0.86047903  0.59756367  1
  O  O25  1  0.65693048  0.85762013  0.92108175  1
  O  O26  1  0.65371103  0.14329952  0.41868653  1
  O  O27  1  0.35750816  0.14768937  0.08441980  1
  O  O28  1  0.86294624  0.36137406  0.59088147  1
  O  O29  1  0.14797359  0.35891372  0.91986990  1
  O  O30  1  0.15087051  0.63512792  0.41436447  1
  O  O31  1  0.86046464  0.63872966  0.08900343  1
  O  O32  1  0.45838119  0.84709774  0.94024247  1
  O  O33  1  0.55073795  0.83524221  0.57358895  1
  O  O34  1  0.54812732  0.16784556  0.07033107  1
  O  O35  1  0.45213789  0.16195890  0.42840906  1
  O  O36  1  0.96019921  0.33739462  0.93625465  1
  O  O37  1  0.04585605  0.32954178  0.57060271  1
  O  O38  1  0.04227771  0.66338628  0.06572819  1
  O  O39  1  0.95809592  0.65872817  0.43381752  1
  O  O40  1  0.07521864  0.85204036  0.74345042  1
  O  O41  1  0.91967228  0.85786611  0.76106565  1
  O  O42  1  0.92002145  0.14947189  0.25556827  1
  O  O43  1  0.07536200  0.15483704  0.23266958  1
  O  O44  1  0.57561536  0.33908564  0.75027491  1
  O  O45  1  0.41429742  0.34791818  0.75463787  1
  O  O46  1  0.41570691  0.64620461  0.24469173  1
  O  O47  1  0.57703082  0.65203868  0.24457906  1
loop_
_geom_bond_atom_site_label_1
_geom_bond_atom_site_label_2
_geom_bond_distance
_geom_bond_site_symmetry_2
Na0 O6 2.352480 1_556
Na0 O40 2.375211 1_555
Na0 O16 2.425101 1_555
Na0 O22 2.428383 1_556
Na0 O46 2.539704 1_556
Na0 O0 2.609548 1_555
Na1 O1 2.346874 1_555
Na1 O17 2.401780 1_555
Na1 O47 2.404335 1_555
Na1 O23 2.490080 1_555
Na1 O41 2.579557 1_555
Na1 O7 2.649979 1_555
Na2 O2 2.339107 1_555
Na2 O44 2.387197 1_554
Na2 O18 2.410359 1_555
Na2 O20 2.507588 1_554
Na2 O42 2.528351 1_555
Na2 O4 2.629619 1_554
Na3 O5 2.380128 1_555
Na3 O43 2.388448 1_555
Na3 O21 2.472497 1_555
Na3 O19 2.486248 1_555
Na3 O45 2.533787 1_555
Na3 O3 2.594683 1_555
Na4 O44 2.391663 1_555
Na4 O5 2.432904 1_555
Na4 O4 2.519458 1_555
Na4 O34 2.566154 1_556
Na4 O35 2.568758 1_555
Na4 O45 2.587512 1_555
Na4 O24 2.814386 1_545
Na4 O25 2.915104 1_545
Na5 O6 2.441052 1_555
Na5 O32 2.456691 1_554
Na5 O7 2.491992 1_555
Na5 O47 2.500484 1_555
Na5 O33 2.612349 1_555
Na5 O46 2.620335 1_555
Na5 O27 2.859328 1_565
Na5 O26 2.890244 1_565
Na6 O1 2.377989 1_455
Na6 O0 2.435409 1_555
Na6 O40 2.456794 1_555
Na6 O39 2.525214 1_455
Na6 O38 2.555676 1_556
Na6 O41 2.597284 1_455
Na6 O28 2.823477 1_455
Na6 O29 2.877251 1_555
Na7 O2 2.384183 1_455
Na7 O43 2.414017 1_555
Na7 O3 2.425933 1_555
Na7 O42 2.494715 1_455
Na7 O36 2.504325 1_454
Na7 O37 2.596360 1_555
Na7 O31 2.847721 1_455
Na7 O30 2.894603 1_555
Na8 O42 2.409869 1_565
Na8 O25 2.443081 1_554
Na8 O23 2.482698 1_555
Na8 O18 2.517878 1_565
Na8 O7 2.522061 1_555
Na8 O15 2.707545 1_555
Na8 O12 2.815307 1_565
Na9 O41 2.376683 1_545
Na9 O26 2.439617 1_555
Na9 O20 2.448382 1_555
Na9 O4 2.473513 1_555
Na9 O17 2.519277 1_545
Na9 O12 2.706744 1_555
Na9 O15 2.782258 1_546
Na10 O29 2.409379 1_554
Na10 O19 2.415433 1_555
Na10 O46 2.416790 1_555
Na10 O22 2.439462 1_555
Na10 O3 2.548584 1_555
Na10 O11 2.800252 1_555
Na10 O8 2.841777 1_555
Na11 O45 2.410553 1_555
Na11 O30 2.459339 1_555
Na11 O16 2.477298 1_555
Na11 O21 2.526174 1_555
Na11 O0 2.527763 1_555
Na11 O11 2.741254 1_556
Na11 O8 2.765924 1_555
Ga0 O31 1.964186 1_556
Ga0 O38 1.980576 1_656
Ga0 O15 2.010227 1_556
Ga0 O17 2.023201 1_555
Ga0 O1 2.064675 1_555
Ga0 O41 2.068190 1_555
Ga1 O28 1.949434 1_555
Ga1 O37 1.986946 1_655
Ga1 O12 1.989707 1_555
Ga1 O18 2.052496 1_555
Ga1 O2 2.062372 1_555
Ga1 O42 2.087489 1_555
Ga2 O13 1.891423 1_554
Ga2 O29 1.980313 1_554
Ga2 O36 1.984568 1_454
Ga2 O43 2.023447 1_555
Ga2 O19 2.045278 1_555
Ga2 O3 2.085460 1_555
Ga3 O27 1.932403 1_556
Ga3 O11 1.985104 1_556
Ga3 O45 2.018505 1_555
Ga3 O5 2.028749 1_555
Ga3 O34 2.044543 1_556
Ga3 O21 2.071326 1_555
O0 P9 1.566749 1_555
O0 Sc0 2.197832 1_555
O1 P8 1.553262 1_555
O2 P11 1.551794 1_555
O3 P10 1.568238 1_555
O4 P5 1.560174 1_545
O4 Sc1 2.171924 1_555
O5 P4 1.551285 1_545
O6 P7 1.550919 1_565
O6 Sc2 2.142517 1_555
O7 P6 1.562508 1_565
O7 Sc3 2.176209 1_555
O8 P2 1.544202 1_555
O8 Sc2 2.104893 1_555
O9 P2 1.530114 1_555
O9 Sc3 1.991331 1_556
O10 P3 1.532698 1_555
O10 Sc1 1.973989 1_555
O11 P3 1.552378 1_555
O12 P0 1.557276 1_545
O13 P0 1.535938 1_445
O14 P1 1.533220 1_465
O14 Sc0 1.995730 1_555
O15 P1 1.554309 1_565
O16 P4 1.543315 1_555
O16 Sc0 2.113923 1_555
O17 P5 1.550259 1_555
O18 P6 1.552988 1_555
O19 P7 1.550331 1_555
O20 P8 1.547554 1_555
O20 Sc1 2.135558 1_555
O21 P9 1.548773 1_555
O22 P10 1.547634 1_555
O22 Sc2 2.144805 1_555
O23 P11 1.543305 1_555
O23 Sc3 2.103126 1_555
O24 P4 1.546758 1_555
O24 Sc2 2.034663 1_555
O25 P5 1.541002 1_555
O25 Sc3 2.079271 1_556
O26 P6 1.543808 1_555
O26 Sc1 2.070194 1_555
O27 P7 1.546558 1_555
O28 P8 1.546547 1_555
O29 P9 1.553507 1_555
O30 P10 1.545628 1_555
O30 Sc0 2.096289 1_555
O31 P11 1.551124 1_555
O32 P4 1.538280 1_555
O32 Sc3 2.100251 1_556
O33 P5 1.546322 1_555
O33 Sc2 2.104400 1_555
O34 P6 1.553522 1_555
O35 P7 1.548758 1_555
O35 Sc1 2.111182 1_555
O36 P8 1.552448 1_555
O37 P9 1.547907 1_555
O38 P10 1.543827 1_555
O39 P11 1.542739 1_555
O39 Sc0 2.062036 1_655
O40 P0 1.542544 1_455
O40 Sc0 2.111110 1_555
O41 P0 1.566806 1_555
O42 P1 1.569463 1_555
O43 P1 1.549993 1_455
O44 P2 1.547445 1_555
O44 Sc1 2.107180 1_555
O45 P2 1.566506 1_555
O46 P3 1.556800 1_555
O46 Sc2 2.137330 1_555
O47 P3 1.541790 1_555
O47 Sc3 2.089333 1_555
