# generated using pymatgen
data_Na6Mg6SiGe2S11O48
_symmetry_space_group_name_H-M   'P 1'
_cell_length_a   17.30342378
_cell_length_b   8.65784420
_cell_length_c   22.26960349
_cell_angle_alpha   89.83787775
_cell_angle_beta   90.19869156
_cell_angle_gamma   119.84740314
_symmetry_Int_Tables_number   1
_chemical_formula_structural   Na6Mg6SiGe2S11O48
_chemical_formula_sum   'Na18 Mg18 Si3 Ge6 S33 O144'
_cell_volume   2893.66140936
_cell_formula_units_Z   3
loop_
 _symmetry_equiv_pos_site_id
 _symmetry_equiv_pos_as_xyz
  1  'x, y, z'
loop_
 _atom_site_type_symbol
 _atom_site_label
 _atom_site_symmetry_multiplicity
 _atom_site_fract_x
 _atom_site_fract_y
 _atom_site_fract_z
 _atom_site_occupancy
  Na  Na0  1  0.68481802  0.36427756  0.24436978  1
  Na  Na1  1  0.99391746  0.63537751  0.25392314  1
  Na  Na2  1  0.33434218  0.96476180  0.59151727  1
  Na  Na3  1  0.83518327  0.96565671  0.59153866  1
  Na  Na4  1  0.33313979  0.69399243  0.08117365  1
  Na  Na5  1  0.34601740  0.66462777  0.41353117  1
  Na  Na6  1  0.00694395  0.99816217  0.49726458  1
  Na  Na7  1  0.51118020  0.01575030  0.50024083  1
  Na  Na8  1  0.99965462  0.99874764  0.99909175  1
  Na  Na9  1  0.50886053  0.01428688  0.00047021  1
  Na  Na10  1  0.33372146  0.32648589  0.83571305  1
  Na  Na11  1  0.83325088  0.32685563  0.83576962  1
  Na  Na12  1  0.32939322  0.32078923  0.32989708  1
  Na  Na13  1  0.83701646  0.33853647  0.33361804  1
  Na  Na14  1  0.16781795  0.67006435  0.16556619  1
  Na  Na15  1  0.66807675  0.67505274  0.16093202  1
  Na  Na16  1  0.16764284  0.66811622  0.67475144  1
  Na  Na17  1  0.66864918  0.66887713  0.67523286  1
  Mg  Mg0  1  0.99988065  0.99427467  0.35235388  1
  Mg  Mg1  1  0.49958720  0.00261482  0.34992147  1
  Mg  Mg2  1  0.99976960  0.99908261  0.65081066  1
  Mg  Mg3  1  0.50020312  0.99911023  0.65098778  1
  Mg  Mg4  1  0.50288878  0.00472516  0.14840087  1
  Mg  Mg5  1  0.33450875  0.33461705  0.18315105  1
  Mg  Mg6  1  0.83299223  0.33311763  0.18274426  1
  Mg  Mg7  1  0.33249967  0.32886242  0.98115968  1
  Mg  Mg8  1  0.83328051  0.33359680  0.98214392  1
  Mg  Mg9  1  0.33153061  0.32597590  0.48096086  1
  Mg  Mg10  1  0.83446103  0.33669803  0.47859702  1
  Mg  Mg11  1  0.16246054  0.66959134  0.01458781  1
  Mg  Mg12  1  0.66736470  0.66669330  0.01565812  1
  Mg  Mg13  1  0.16209793  0.65930307  0.51801333  1
  Mg  Mg14  1  0.66490127  0.66149349  0.52021060  1
  Mg  Mg15  1  0.16812280  0.66669319  0.31526321  1
  Mg  Mg16  1  0.16988812  0.67356752  0.81435226  1
  Mg  Mg17  1  0.67036516  0.67390704  0.81441830  1
  Si  Si0  1  0.85346667  0.70898282  0.25257765  1
  Si  Si1  1  0.35240133  0.99581235  0.74562116  1
  Si  Si2  1  0.85205233  0.99697886  0.74547567  1
  Ge  Ge0  1  0.99389220  0.00429728  0.84978718  1
  Ge  Ge1  1  0.49566943  0.00682776  0.84989626  1
  Ge  Ge2  1  0.98998192  0.99007057  0.15065197  1
  Ge  Ge3  1  0.33466907  0.32795866  0.69041652  1
  Ge  Ge4  1  0.83568643  0.33027530  0.68966961  1
  Ge  Ge5  1  0.67243563  0.67462509  0.31488222  1
  S  S0  1  0.14583195  0.00468079  0.24881496  1
  S  S1  1  0.64543030  0.99224499  0.25252350  1
  S  S2  1  0.35191674  0.70411379  0.25014032  1
  S  S3  1  0.00110353  0.28845390  0.24882496  1
  S  S4  1  0.49948974  0.29726686  0.25282393  1
  S  S5  1  0.14622618  0.28923726  0.74926667  1
  S  S6  1  0.64651589  0.28952459  0.74914867  1
  S  S7  1  0.99774693  0.70736268  0.74949725  1
  S  S8  1  0.49769275  0.70706735  0.74937313  1
  S  S9  1  0.47978971  0.33865908  0.58396454  1
  S  S10  1  0.97948554  0.33788973  0.58376266  1
  S  S11  1  0.18721173  0.04528270  0.58421150  1
  S  S12  1  0.68812996  0.04754442  0.58316046  1
  S  S13  1  0.33434453  0.61877341  0.58323334  1
  S  S14  1  0.83398863  0.61720614  0.58457796  1
  S  S15  1  0.48132273  0.62596278  0.08325842  1
  S  S16  1  0.98221332  0.63553886  0.08594859  1
  S  S17  1  0.33251729  0.03883697  0.08339913  1
  S  S18  1  0.83583372  0.04098508  0.08461409  1
  S  S19  1  0.18125585  0.32460180  0.08523663  1
  S  S20  1  0.68540451  0.33338258  0.08346455  1
  S  S21  1  0.31695016  0.67050606  0.91630307  1
  S  S22  1  0.81660976  0.67040666  0.91505042  1
  S  S23  1  0.02032772  0.36944796  0.91472502  1
  S  S24  1  0.52068454  0.36996212  0.91432439  1
  S  S25  1  0.16204470  0.96272803  0.91345609  1
  S  S26  1  0.66256584  0.96180745  0.91402756  1
  S  S27  1  0.31408662  0.96225384  0.41786895  1
  S  S28  1  0.81146866  0.95774055  0.41788499  1
  S  S29  1  0.16553905  0.37010354  0.41722993  1
  S  S30  1  0.66569625  0.37595545  0.41560199  1
  S  S31  1  0.01979001  0.66715379  0.41603354  1
  S  S32  1  0.52386677  0.66780779  0.41516211  1
  O  O0  1  0.10773126  0.03411419  0.30266923  1
  O  O1  1  0.60590250  0.02633104  0.30549352  1
  O  O2  1  0.40441285  0.78639509  0.30583077  1
  O  O3  1  0.91819528  0.79248242  0.30769724  1
  O  O4  1  0.48853959  0.19278449  0.30694152  1
  O  O5  1  0.99077579  0.18338390  0.30242597  1
  O  O6  1  0.10974965  0.17256229  0.80431779  1
  O  O7  1  0.60987855  0.17266936  0.80440092  1
  O  O8  1  0.48206071  0.78726273  0.80464890  1
  O  O9  1  0.98227542  0.78788458  0.80481059  1
  O  O10  1  0.42083610  0.04136988  0.80578647  1
  O  O11  1  0.92044131  0.04280677  0.80574495  1
  O  O12  1  0.39396065  0.97692114  0.68421193  1
  O  O13  1  0.89383394  0.97705572  0.68440152  1
  O  O14  1  0.09574323  0.20670430  0.69505787  1
  O  O15  1  0.59556116  0.20662349  0.69510416  1
  O  O16  1  0.01304293  0.81405054  0.69567383  1
  O  O17  1  0.51281188  0.81321483  0.69546752  1
  O  O18  1  0.39553239  0.81345249  0.19630367  1
  O  O19  1  0.89411351  0.83273049  0.19034625  1
  O  O20  1  0.01844309  0.20970110  0.19271394  1
  O  O21  1  0.51957223  0.22237980  0.19966796  1
  O  O22  1  0.08533763  0.96773185  0.19375980  1
  O  O23  1  0.59224699  0.96327175  0.19799735  1
  O  O24  1  0.43788757  0.36540754  0.63977765  1
  O  O25  1  0.93765962  0.36614284  0.63980520  1
  O  O26  1  0.24745180  0.12864698  0.63922473  1
  O  O27  1  0.74725890  0.12964989  0.63836285  1
  O  O28  1  0.32035961  0.50521563  0.63850161  1
  O  O29  1  0.81928566  0.50660682  0.64122884  1
  O  O30  1  0.44058749  0.52053563  0.13801940  1
  O  O31  1  0.94376230  0.53553046  0.14173847  1
  O  O32  1  0.32040646  0.11968831  0.13775071  1
  O  O33  1  0.82550708  0.12147569  0.13916769  1
  O  O34  1  0.23779943  0.35726915  0.13865684  1
  O  O35  1  0.73503908  0.35309602  0.14034313  1
  O  O36  1  0.22021514  0.29524120  0.03103841  1
  O  O37  1  0.73038760  0.31009524  0.03147692  1
  O  O38  1  0.42303786  0.54237460  0.03047762  1
  O  O39  1  0.92660817  0.55409542  0.03279492  1
  O  O40  1  0.34365552  0.14398672  0.02921894  1
  O  O41  1  0.84984008  0.14829461  0.03050465  1
  O  O42  1  0.22849769  0.15169044  0.53047263  1
  O  O43  1  0.72931981  0.15353272  0.52921131  1
  O  O44  1  0.34345032  0.53612862  0.52812068  1
  O  O45  1  0.84200854  0.52937784  0.53123480  1
  O  O46  1  0.42245676  0.30817500  0.53134134  1
  O  O47  1  0.92115592  0.30505089  0.53148305  1
  O  O48  1  0.28001811  0.70033733  0.97240360  1
  O  O49  1  0.77873837  0.70347281  0.96911815  1
  O  O50  1  0.07351721  0.44686769  0.96940381  1
  O  O51  1  0.57343023  0.44694070  0.96903241  1
  O  O52  1  0.14647026  0.85739470  0.96873402  1
  O  O53  1  0.64704637  0.85572031  0.96905293  1
  O  O54  1  0.27478447  0.85484686  0.47342448  1
  O  O55  1  0.76975177  0.85026727  0.47196833  1
  O  O56  1  0.15610316  0.45408222  0.47199812  1
  O  O57  1  0.65376871  0.46331562  0.46787428  1
  O  O58  1  0.07437440  0.68391912  0.46907546  1
  O  O59  1  0.57708684  0.69214444  0.46885967  1
  O  O60  1  0.05976345  0.64605685  0.35973624  1
  O  O61  1  0.56571773  0.63873617  0.35951650  1
  O  O62  1  0.25977238  0.87529792  0.36459501  1
  O  O63  1  0.75246525  0.87154666  0.36221468  1
  O  O64  1  0.18124466  0.48431721  0.36392235  1
  O  O65  1  0.67898499  0.48549880  0.35781723  1
  O  O66  1  0.06178101  0.47385448  0.86087038  1
  O  O67  1  0.56227397  0.47357351  0.86043644  1
  O  O68  1  0.17407220  0.87850996  0.86076046  1
  O  O69  1  0.67398612  0.87810067  0.86079667  1
  O  O70  1  0.26208246  0.64824309  0.86381249  1
  O  O71  1  0.76402124  0.64673014  0.86107895  1
  O  O72  1  0.01251425  0.82996207  0.41429046  1
  O  O73  1  0.51244782  0.82596248  0.40861714  1
  O  O74  1  0.40353326  0.97457416  0.41271760  1
  O  O75  1  0.89926288  0.97557777  0.41054714  1
  O  O76  1  0.08675957  0.19257685  0.41129844  1
  O  O77  1  0.58606146  0.19976826  0.40900719  1
  O  O78  1  0.01457422  0.18529232  0.91013634  1
  O  O79  1  0.51499569  0.18509639  0.90998977  1
  O  O80  1  0.07708105  0.97797141  0.90657750  1
  O  O81  1  0.57706763  0.97696013  0.90703633  1
  O  O82  1  0.40934267  0.83816121  0.91009263  1
  O  O83  1  0.90991715  0.83926095  0.90926795  1
  O  O84  1  0.48950193  0.17823982  0.58851469  1
  O  O85  1  0.98934300  0.17797228  0.58905014  1
  O  O86  1  0.09915792  0.02579016  0.59170900  1
  O  O87  1  0.59953920  0.02721434  0.59050174  1
  O  O88  1  0.41521265  0.79676164  0.58749118  1
  O  O89  1  0.91452716  0.79506953  0.58848827  1
  O  O90  1  0.48813342  0.80497062  0.08900210  1
  O  O91  1  0.99127032  0.82182350  0.09087035  1
  O  O92  1  0.41228766  0.01504279  0.08908791  1
  O  O93  1  0.92283485  0.03027609  0.08894293  1
  O  O94  1  0.09015296  0.16085850  0.09276555  1
  O  O95  1  0.59542633  0.17266748  0.08814960  1
  O  O96  1  0.34605715  0.18715308  0.74313702  1
  O  O97  1  0.84580232  0.18824469  0.74267473  1
  O  O98  1  0.24015158  0.31487608  0.74404839  1
  O  O99  1  0.73985181  0.31431729  0.74401809  1
  O  O100  1  0.41053529  0.52871809  0.74369958  1
  O  O101  1  0.91094233  0.52933316  0.74396712  1
  O  O102  1  0.34278765  0.52518705  0.24525766  1
  O  O103  1  0.83719505  0.50848764  0.24324778  1
  O  O104  1  0.42126417  0.31900497  0.24546577  1
  O  O105  1  0.92106745  0.30619237  0.24157793  1
  O  O106  1  0.23493351  0.15829527  0.23979805  1
  O  O107  1  0.73604757  0.14534474  0.24609917  1
  O  O108  1  0.32942766  0.51471183  0.92232649  1
  O  O109  1  0.83047710  0.51664783  0.92211818  1
  O  O110  1  0.42928420  0.33984258  0.92021810  1
  O  O111  1  0.92926207  0.34066466  0.92129257  1
  O  O112  1  0.23946480  0.14367030  0.92027855  1
  O  O113  1  0.73976817  0.14275301  0.92086995  1
  O  O114  1  0.32533843  0.14178970  0.42238074  1
  O  O115  1  0.81727529  0.13305837  0.42044084  1
  O  O116  1  0.24866405  0.35590774  0.42173535  1
  O  O117  1  0.74647151  0.36095458  0.41906126  1
  O  O118  1  0.43337972  0.50896237  0.41849579  1
  O  O119  1  0.93000470  0.50603516  0.42074417  1
  O  O120  1  0.17231714  0.48670279  0.07822669  1
  O  O121  1  0.67670762  0.49455304  0.07745174  1
  O  O122  1  0.07212361  0.65917093  0.07898920  1
  O  O123  1  0.57087985  0.64781069  0.07636546  1
  O  O124  1  0.25348889  0.85448532  0.07785001  1
  O  O125  1  0.75941643  0.85939122  0.07830638  1
  O  O126  1  0.18178632  0.86832802  0.58011237  1
  O  O127  1  0.68221401  0.86982996  0.57922552  1
  O  O128  1  0.25498167  0.64276545  0.58041401  1
  O  O129  1  0.75456382  0.64179042  0.58137598  1
  O  O130  1  0.06722369  0.49875124  0.57960564  1
  O  O131  1  0.56768215  0.49941760  0.57940277  1
  O  O132  1  0.15081671  0.83762864  0.25293822  1
  O  O133  1  0.65035683  0.82263811  0.25999835  1
  O  O134  1  0.26274253  0.68833446  0.25474797  1
  O  O135  1  0.75042426  0.68467128  0.25901785  1
  O  O136  1  0.07948909  0.47140604  0.25226100  1
  O  O137  1  0.58351149  0.48142277  0.25903695  1
  O  O138  1  0.15363330  0.46269971  0.75779376  1
  O  O139  1  0.65342475  0.46266711  0.75764611  1
  O  O140  1  0.07107475  0.67249390  0.75796107  1
  O  O141  1  0.57087562  0.67185024  0.75782215  1
  O  O142  1  0.25526595  0.83091324  0.75550672  1
  O  O143  1  0.75490905  0.83201317  0.75534819  1
loop_
_geom_bond_atom_site_label_1
_geom_bond_atom_site_label_2
_geom_bond_distance
_geom_bond_site_symmetry_2
Na0 O103 2.287988 1_555
Na0 O135 2.440870 1_555
Na0 O137 2.446160 1_555
Na0 O107 2.460077 1_555
Na0 O35 2.496053 1_555
Na0 O21 2.677056 1_555
Na0 O65 2.759842 1_555
Na0 O1 2.879545 1_555
Na1 O103 2.376768 1_555
Na1 O132 2.388628 1_655
Na1 O105 2.492642 1_555
Na1 O136 2.510413 1_655
Na1 O60 2.595600 1_655
Na1 O3 2.606726 1_555
Na1 O31 2.644320 1_555
Na1 O22 2.835379 1_655
Na2 O12 2.283610 1_555
Na2 O126 2.352145 1_555
Na2 O84 2.385354 1_565
Na2 O128 2.430974 1_555
Na2 O88 2.471716 1_555
Na2 O26 2.746923 1_565
Na2 O54 2.811244 1_555
Na2 O46 2.905146 1_565
Na3 O13 2.281070 1_555
Na3 O127 2.362190 1_555
Na3 O85 2.370075 1_565
Na3 O129 2.442841 1_555
Na3 O89 2.467865 1_555
Na3 O27 2.754525 1_565
Na3 O55 2.870296 1_555
Na3 O47 2.876890 1_565
Na4 O90 2.361994 1_555
Na4 O124 2.395983 1_555
Na4 O92 2.417601 1_565
Na4 O120 2.448942 1_555
Na4 O48 2.597953 1_554
Na4 O38 2.733227 1_555
Na4 O18 2.773662 1_555
Na4 O34 2.839994 1_555
Na5 O116 2.352195 1_555
Na5 O74 2.352302 1_555
Na5 O118 2.477829 1_555
Na5 O73 2.500746 1_555
Na5 O2 2.612877 1_555
Na5 O64 2.709993 1_555
Na5 O44 2.772584 1_555
Na5 O54 2.838110 1_555
Na6 O72 2.387572 1_555
Na6 O76 2.468161 1_565
Na6 O86 2.574197 1_565
Na6 O75 2.617989 1_455
Na6 O89 2.641878 1_455
Na6 O85 2.681155 1_465
Na7 O87 2.493309 1_555
Na7 O77 2.508035 1_555
Na7 O84 2.555448 1_555
Na7 O74 2.591023 1_545
Na7 O73 2.630384 1_545
Na7 O88 2.644850 1_545
Na8 O78 2.483928 1_665
Na8 O83 2.485758 1_555
Na8 O93 2.495578 1_566
Na8 O91 2.511565 1_556
Na8 O80 2.516553 1_655
Na8 O94 2.565149 1_666
Na9 O95 2.426300 1_555
Na9 O79 2.467119 1_554
Na9 O81 2.495455 1_544
Na9 O90 2.576357 1_545
Na9 O92 2.592466 1_555
Na9 O82 2.592487 1_544
Na10 O96 2.454491 1_555
Na10 O110 2.465457 1_555
Na10 O112 2.479261 1_555
Na10 O108 2.553619 1_555
Na10 O98 2.571929 1_555
Na10 O100 2.590988 1_555
Na11 O97 2.462129 1_555
Na11 O111 2.486620 1_555
Na11 O113 2.487272 1_555
Na11 O109 2.548948 1_555
Na11 O99 2.569497 1_555
Na11 O101 2.590929 1_555
Na12 O104 2.471439 1_555
Na12 O102 2.512778 1_555
Na12 O106 2.526072 1_555
Na12 O114 2.554056 1_555
Na12 O116 2.583157 1_555
Na12 O118 2.619240 1_555
Na13 O119 2.475531 1_555
Na13 O103 2.488778 1_555
Na13 O115 2.529863 1_555
Na13 O117 2.537398 1_555
Na13 O107 2.595143 1_555
Na13 O105 2.612312 1_555
Na14 O124 2.491815 1_555
Na14 O122 2.508278 1_555
Na14 O134 2.527410 1_555
Na14 O136 2.531148 1_555
Na14 O132 2.534140 1_555
Na14 O120 2.539862 1_555
Na15 O125 2.433845 1_555
Na15 O123 2.452875 1_555
Na15 O121 2.484206 1_555
Na15 O135 2.582614 1_555
Na15 O133 2.646603 1_555
Na15 O137 2.698966 1_555
Na16 O142 2.321184 1_555
Na16 O138 2.489387 1_555
Na16 O140 2.512415 1_555
Na16 O126 2.658400 1_555
Na16 O128 2.664672 1_555
Na16 O130 2.667368 1_555
Na17 O143 2.302877 1_555
Na17 O139 2.478274 1_555
Na17 O141 2.512145 1_555
Na17 O129 2.646719 1_555
Na17 O131 2.683217 1_555
Na17 O127 2.688726 1_555
Mg0 O3 1.892406 1_555
Mg0 O5 2.046217 1_565
Mg0 O0 2.048733 1_665
Mg0 O72 2.066492 1_655
Mg0 O76 2.088223 1_665
Mg0 O75 2.114425 1_555
Mg1 O4 1.991632 1_555
Mg1 O1 2.010160 1_555
Mg1 O2 2.027582 1_545
Mg1 O77 2.083423 1_555
Mg1 O74 2.095136 1_545
Mg1 O73 2.103023 1_545
Mg2 O13 1.901781 1_555
Mg2 O16 1.993199 1_655
Mg2 O14 1.996821 1_665
Mg2 O86 2.088419 1_665
Mg2 O85 2.141814 1_565
Mg2 O89 2.151305 1_555
Mg3 O12 1.902892 1_555
Mg3 O17 1.989503 1_555
Mg3 O15 1.990878 1_565
Mg3 O87 2.103800 1_565
Mg3 O84 2.155674 1_565
Mg3 O88 2.160213 1_555
Mg4 O95 2.040790 1_555
Mg4 O18 2.067092 1_545
Mg4 O23 2.068269 1_545
Mg4 O92 2.082011 1_555
Mg4 O90 2.092131 1_545
Mg4 O21 2.099108 1_555
Mg5 O30 2.008236 1_555
Mg5 O32 2.025184 1_555
Mg5 O34 2.033378 1_555
Mg5 O106 2.067985 1_555
Mg5 O104 2.093802 1_555
Mg5 O102 2.105228 1_555
Mg6 O103 2.006751 1_555
Mg6 O35 2.018440 1_555
Mg6 O33 2.022135 1_555
Mg6 O31 2.058739 1_555
Mg6 O105 2.105138 1_555
Mg6 O107 2.176326 1_555
Mg7 O40 2.010259 1_556
Mg7 O38 2.048082 1_556
Mg7 O108 2.093134 1_555
Mg7 O112 2.104387 1_555
Mg7 O110 2.124165 1_555
Mg7 O36 2.131582 1_556
Mg8 O37 2.017403 1_556
Mg8 O41 2.064332 1_556
Mg8 O109 2.089262 1_555
Mg8 O39 2.110814 1_556
Mg8 O111 2.124242 1_555
Mg8 O113 2.132252 1_555
Mg9 O46 1.996509 1_555
Mg9 O42 1.999390 1_555
Mg9 O44 2.022812 1_555
Mg9 O114 2.024106 1_555
Mg9 O116 2.053666 1_555
Mg9 O118 2.185458 1_555
Mg10 O45 1.991776 1_555
Mg10 O47 2.026715 1_555
Mg10 O119 2.033214 1_555
Mg10 O43 2.056092 1_555
Mg10 O115 2.088680 1_555
Mg10 O117 2.103024 1_555
Mg11 O50 2.036097 1_554
Mg11 O52 2.049276 1_554
Mg11 O122 2.093536 1_555
Mg11 O124 2.125054 1_555
Mg11 O48 2.136352 1_554
Mg11 O120 2.190716 1_555
Mg12 O51 2.064259 1_554
Mg12 O49 2.071382 1_554
Mg12 O121 2.089904 1_555
Mg12 O123 2.093909 1_555
Mg12 O53 2.107066 1_554
Mg12 O125 2.149313 1_555
Mg13 O58 1.961234 1_555
Mg13 O56 2.010940 1_555
Mg13 O130 2.059613 1_555
Mg13 O54 2.090989 1_555
Mg13 O126 2.168129 1_555
Mg13 O128 2.178796 1_555
Mg14 O57 2.005052 1_555
Mg14 O59 2.018567 1_555
Mg14 O55 2.041821 1_555
Mg14 O131 2.047390 1_555
Mg14 O129 2.130497 1_555
Mg14 O127 2.131500 1_555
Mg15 O64 2.016046 1_555
Mg15 O62 2.032717 1_555
Mg15 O60 2.051052 1_555
Mg15 O134 2.059215 1_555
Mg15 O136 2.143998 1_555
Mg15 O132 2.152419 1_555
Mg16 O142 1.937964 1_555
Mg16 O68 2.025757 1_555
Mg16 O70 2.034896 1_555
Mg16 O66 2.084684 1_555
Mg16 O140 2.114225 1_555
Mg16 O138 2.120851 1_555
Mg17 O143 1.937576 1_555
Mg17 O69 2.023778 1_555
Mg17 O71 2.031713 1_555
Mg17 O67 2.081091 1_555
Mg17 O139 2.122750 1_555
Mg17 O141 2.122974 1_555
Ge0 O11 1.760611 1_555
Ge0 O78 1.959651 1_655
Ge0 O83 1.960515 1_545
Ge0 O80 2.008917 1_645
Ge0 O9 2.046606 1_545
Ge0 O6 2.065254 1_655
Ge1 O10 1.762394 1_555
Ge1 O79 1.944158 1_555
Ge1 O82 1.998093 1_545
Ge1 O81 2.004523 1_545
Ge1 O7 2.043224 1_555
Ge1 O8 2.061084 1_545
Ge2 O19 1.772828 1_555
Ge2 O93 1.936088 1_565
Ge2 O20 1.952050 1_665
Ge2 O91 1.984501 1_555
Ge2 O22 1.996756 1_655
Ge2 O94 2.075124 1_665
Ge3 O96 1.769973 1_555
Ge3 O100 1.970307 1_555
Ge3 O98 1.985573 1_555
Ge3 O26 1.990462 1_555
Ge3 O24 2.000564 1_555
Ge3 O28 2.029613 1_555
Ge4 O97 1.772202 1_555
Ge4 O101 1.973573 1_555
Ge4 O25 1.977169 1_555
Ge4 O29 1.998679 1_555
Ge4 O27 2.004352 1_555
Ge4 O99 2.004678 1_555
Ge5 O135 1.808470 1_555
Ge5 O63 1.893528 1_555
Ge5 O133 1.938353 1_555
Ge5 O65 1.945075 1_555
Ge5 O61 1.983506 1_555
Ge5 O137 2.036863 1_555
O0 S0 1.453400 1_555
O1 S1 1.467954 1_545
O2 S2 1.491237 1_555
O3 Si0 1.572687 1_555
O4 S4 1.459948 1_555
O5 S3 1.455276 1_655
O6 S5 1.511788 1_555
O7 S6 1.516379 1_555
O8 S8 1.504863 1_555
O9 S7 1.505970 1_555
O10 Si1 1.697084 1_545
O11 Si2 1.698189 1_545
O12 Si1 1.593506 1_555
O13 Si2 1.592034 1_555
O14 S5 1.451640 1_555
O15 S6 1.452133 1_555
O16 S7 1.453459 1_455
O17 S8 1.452837 1_555
O18 S2 1.480483 1_555
O19 Si0 1.676745 1_555
O20 S3 1.525577 1_555
O21 S4 1.474407 1_555
O22 S0 1.536640 1_565
O23 S1 1.465760 1_555
O24 S9 1.516322 1_555
O25 S10 1.524941 1_555
O26 S11 1.534816 1_555
O27 S12 1.528287 1_555
O28 S13 1.516064 1_555
O29 S14 1.525172 1_555
O30 S15 1.475273 1_555
O31 S16 1.470443 1_555
O32 S17 1.466806 1_555
O33 S18 1.457312 1_555
O34 S19 1.473399 1_555
O35 S20 1.489616 1_555
O36 S19 1.467584 1_555
O37 S20 1.466508 1_555
O38 S15 1.480723 1_555
O39 S16 1.464800 1_555
O40 S17 1.463723 1_555
O41 S18 1.464747 1_555
O42 S11 1.461458 1_555
O43 S12 1.463608 1_555
O44 S13 1.470268 1_555
O45 S14 1.456002 1_555
O46 S9 1.469777 1_555
O47 S10 1.470743 1_555
O48 S21 1.485795 1_555
O49 S22 1.468100 1_555
O50 S23 1.470330 1_555
O51 S24 1.467277 1_555
O52 S25 1.473437 1_555
O53 S26 1.472318 1_555
O54 S27 1.492559 1_555
O55 S28 1.472617 1_555
O56 S29 1.472224 1_555
O57 S30 1.460062 1_555
O58 S31 1.471462 1_555
O59 S32 1.457078 1_555
O60 S31 1.488844 1_555
O61 S32 1.520794 1_555
O62 S27 1.466497 1_555
O63 S28 1.540886 1_555
O64 S29 1.479551 1_555
O65 S30 1.544796 1_555
O66 S23 1.457537 1_555
O67 S24 1.456042 1_555
O68 S25 1.452473 1_555
O69 S26 1.455525 1_555
O70 S21 1.454774 1_555
O71 S22 1.456986 1_555
O72 S31 1.476664 1_555
O73 S32 1.484312 1_555
O74 S27 1.502281 1_555
O75 S28 1.458218 1_555
O76 S29 1.467109 1_555
O77 S30 1.467927 1_555
O78 S23 1.550900 1_555
O79 S24 1.557150 1_555
O80 S25 1.547162 1_555
O81 S26 1.556144 1_555
O82 S21 1.540283 1_555
O83 S22 1.552889 1_555
O84 S9 1.482878 1_555
O85 S10 1.481187 1_555
O86 S11 1.457214 1_555
O87 S12 1.463068 1_555
O88 S13 1.481633 1_555
O89 S14 1.478117 1_555
O90 S15 1.500471 1_555
O91 S16 1.545013 1_555
O92 S17 1.498464 1_555
O93 S18 1.556293 1_555
O94 S19 1.516214 1_555
O95 S20 1.488275 1_555
O96 Si1 1.714609 1_545
O97 Si2 1.713296 1_545
O98 S5 1.531737 1_555
O99 S6 1.524312 1_555
O100 S8 1.535094 1_555
O101 S7 1.530467 1_555
O102 S2 1.481150 1_555
O103 Si0 1.628125 1_555
O104 S4 1.465020 1_555
O105 S3 1.475666 1_655
O106 S0 1.464847 1_555
O107 S1 1.472322 1_545
O108 S21 1.473986 1_555
O109 S22 1.473433 1_555
O110 S24 1.475542 1_555
O111 S23 1.475466 1_655
O112 S25 1.477443 1_545
O113 S26 1.476083 1_545
O114 S27 1.470936 1_545
O115 S28 1.471707 1_545
O116 S29 1.506290 1_555
O117 S30 1.468407 1_555
O118 S32 1.485010 1_555
O119 S31 1.487835 1_655
O120 S19 1.494193 1_555
O121 S20 1.481724 1_555
O122 S16 1.473400 1_455
O123 S15 1.473247 1_555
O124 S17 1.503380 1_565
O125 S18 1.473316 1_565
O126 S11 1.490598 1_565
O127 S12 1.493133 1_565
O128 S13 1.488679 1_555
O129 S14 1.493168 1_555
O130 S10 1.465842 1_455
O131 S9 1.467565 1_555
O132 S0 1.493672 1_565
O133 S1 1.521309 1_555
O134 S2 1.483676 1_555
O135 Si0 1.694685 1_555
O136 S3 1.488609 1_555
O137 S4 1.538661 1_555
O138 S5 1.455257 1_555
O139 S6 1.456123 1_555
O140 S7 1.454602 1_455
O141 S8 1.454052 1_555
O142 Si1 1.588705 1_555
O143 Si2 1.588963 1_555
