# generated using pymatgen
data_MgCrPbO3
_symmetry_space_group_name_H-M   'P 1'
_cell_length_a   3.93578075
_cell_length_b   6.22930093
_cell_length_c   3.93578075
_cell_angle_alpha   90.00000000
_cell_angle_beta   90.00000000
_cell_angle_gamma   90.00000000
_symmetry_Int_Tables_number   1
_chemical_formula_structural   MgCrPbO3
_chemical_formula_sum   'Mg1 Cr1 Pb1 O3'
_cell_volume   96.49417695
_cell_formula_units_Z   1
loop_
 _symmetry_equiv_pos_site_id
 _symmetry_equiv_pos_as_xyz
  1  'x, y, z'
loop_
 _atom_site_type_symbol
 _atom_site_label
 _atom_site_symmetry_multiplicity
 _atom_site_fract_x
 _atom_site_fract_y
 _atom_site_fract_z
 _atom_site_occupancy
  Mg  Mg0  1  0.00000000  0.50000000  -0.00000000  1
  Cr  Cr0  1  0.49999900  0.49999900  0.49999900  1
  Pb  Pb0  1  0.00000000  -0.00000000  -0.00000000  1
  O  O0  1  0.49999900  0.00000000  0.49999900  1
  O  O1  1  0.49999900  0.49999900  -0.00000000  1
  O  O2  1  -0.00000000  0.49999900  0.49999900  1
loop_
_geom_bond_atom_site_label_1
_geom_bond_atom_site_label_2
_geom_bond_distance
_geom_bond_site_symmetry_2
Mg0 O2 1.967886 1_555
Mg0 O1 1.967886 1_555
Mg0 O2 1.967894 1_554
Mg0 O1 1.967894 1_455
Mg0 Pb0 3.114650 1_555
Mg0 Pb0 3.114650 1_565
Cr0 O2 1.967886 1_555
Cr0 O1 1.967886 1_555
Cr0 O1 1.967894 1_556
Cr0 O2 1.967894 1_655
O0 Pb0 2.783012 1_555
O0 Pb0 2.783017 1_556
O0 Pb0 2.783017 1_655
O0 Pb0 2.783023 1_656
