# generated using pymatgen
data_Na3Mg2Nb2P5SO24
_symmetry_space_group_name_H-M   'P 1'
_cell_length_a   8.83331759
_cell_length_b   8.80188955
_cell_length_c   22.53065082
_cell_angle_alpha   90.20623551
_cell_angle_beta   89.85074178
_cell_angle_gamma   119.89757389
_symmetry_Int_Tables_number   1
_chemical_formula_structural   Na3Mg2Nb2P5SO24
_chemical_formula_sum   'Na9 Mg6 Nb6 P15 S3 O72'
_cell_volume   1518.61764507
_cell_formula_units_Z   3
loop_
 _symmetry_equiv_pos_site_id
 _symmetry_equiv_pos_as_xyz
  1  'x, y, z'
loop_
 _atom_site_type_symbol
 _atom_site_label
 _atom_site_symmetry_multiplicity
 _atom_site_fract_x
 _atom_site_fract_y
 _atom_site_fract_z
 _atom_site_occupancy
  Na  Na0  1  0.01050175  0.36836264  0.75365432  1
  Na  Na1  1  0.67912008  0.98051607  0.58674484  1
  Na  Na2  1  0.68025784  0.70259929  0.08698186  1
  Na  Na3  1  0.01681671  0.00559895  0.50827072  1
  Na  Na4  1  0.01192508  0.01348344  0.00752398  1
  Na  Na5  1  0.66154559  0.34165673  0.84318530  1
  Na  Na6  1  0.65442871  0.32399267  0.34176349  1
  Na  Na7  1  0.32861410  0.67700413  0.17684526  1
  Na  Na8  1  0.33389852  0.67078232  0.67616635  1
  Mg  Mg0  1  0.00508903  0.99916100  0.64755231  1
  Mg  Mg1  1  0.00504709  0.00089364  0.14761766  1
  Mg  Mg2  1  0.67137686  0.33587456  0.98081603  1
  Mg  Mg3  1  0.66127931  0.32899450  0.48060641  1
  Mg  Mg4  1  0.34482712  0.67337579  0.31364779  1
  Mg  Mg5  1  0.33844847  0.66744749  0.81437997  1
  Nb  Nb0  1  0.99947819  0.99724261  0.35420880  1
  Nb  Nb1  1  0.99429015  0.99740270  0.85350102  1
  Nb  Nb2  1  0.66181421  0.33460427  0.68701594  1
  Nb  Nb3  1  0.66218334  0.33142767  0.18707916  1
  Nb  Nb4  1  0.33079653  0.66118145  0.02083522  1
  Nb  Nb5  1  0.33657073  0.66039613  0.52075265  1
  P  P0  1  0.28734423  0.99411781  0.24786659  1
  P  P1  1  0.70677556  0.71022723  0.24594829  1
  P  P2  1  0.28762668  0.28928750  0.74857520  1
  P  P3  1  0.00354494  0.71174398  0.74765176  1
  P  P4  1  0.70304917  0.99405803  0.74632666  1
  P  P5  1  0.95564330  0.33361133  0.58167996  1
  P  P6  1  0.37129526  0.04383293  0.58035908  1
  P  P7  1  0.67387338  0.62490814  0.57978378  1
  P  P8  1  0.95584903  0.62333921  0.08176220  1
  P  P9  1  0.67003569  0.04636806  0.08025629  1
  P  P10  1  0.37183689  0.32405775  0.08044635  1
  P  P11  1  0.62143388  0.66098641  0.91483036  1
  P  P12  1  0.03834127  0.37637749  0.91242284  1
  P  P13  1  0.62322204  0.96075926  0.41468005  1
  P  P14  1  0.33777904  0.37713327  0.41217490  1
  S  S0  1  0.00125108  0.29178703  0.24927824  1
  S  S1  1  0.33423041  0.95768044  0.91529765  1
  S  S2  1  0.04372740  0.66258078  0.41490375  1
  O  O0  1  0.19837526  0.02555623  0.30534116  1
  O  O1  1  0.82980428  0.80853893  0.30177889  1
  O  O2  1  0.97444203  0.17994200  0.30421752  1
  O  O3  1  0.19882705  0.17064007  0.80563582  1
  O  O4  1  0.97473332  0.79996125  0.80538159  1
  O  O5  1  0.83071704  0.02759515  0.80193794  1
  O  O6  1  0.78720381  0.97771165  0.68988423  1
  O  O7  1  0.17354789  0.20398621  0.69546787  1
  O  O8  1  0.02275612  0.81749712  0.69376531  1
  O  O9  1  0.79040535  0.81217228  0.18997518  1
  O  O10  1  0.02002476  0.20770297  0.19657214  1
  O  O11  1  0.18282056  0.98046156  0.19397997  1
  O  O12  1  0.87134247  0.36359090  0.64055188  1
  O  O13  1  0.49605651  0.13289758  0.63735233  1
  O  O14  1  0.64227165  0.50756603  0.63748552  1
  O  O15  1  0.86688776  0.50364735  0.13882405  1
  O  O16  1  0.63963832  0.13398765  0.13793616  1
  O  O17  1  0.49583698  0.36352083  0.13759127  1
  O  O18  1  0.46123804  0.30725673  0.02636040  1
  O  O19  1  0.84200782  0.53882203  0.02867349  1
  O  O20  1  0.68994095  0.15251060  0.02653788  1
  O  O21  1  0.46097001  0.14956815  0.52649477  1
  O  O22  1  0.69257246  0.53793009  0.52588551  1
  O  O23  1  0.83974768  0.30684961  0.52958290  1
  O  O24  1  0.53688954  0.69231877  0.97374540  1
  O  O25  1  0.16286653  0.47532092  0.96835151  1
  O  O26  1  0.30856619  0.84625012  0.97024077  1
  O  O27  1  0.53568032  0.84262808  0.47307017  1
  O  O28  1  0.30772683  0.46710559  0.47058070  1
  O  O29  1  0.15536686  0.69295457  0.46976344  1
  O  O30  1  0.12748893  0.64587800  0.36211086  1
  O  O31  1  0.51259882  0.87087810  0.36190164  1
  O  O32  1  0.34880411  0.48353287  0.35930012  1
  O  O33  1  0.12254933  0.47820600  0.85656187  1
  O  O34  1  0.35047060  0.87233800  0.86258370  1
  O  O35  1  0.51396046  0.64831059  0.86200055  1
  O  O36  1  0.03140905  0.83136331  0.41207928  1
  O  O37  1  0.80740973  0.96691080  0.40940465  1
  O  O38  1  0.16207398  0.19104203  0.40928112  1
  O  O39  1  0.03318197  0.19255999  0.91065767  1
  O  O40  1  0.16741235  0.96853660  0.91323346  1
  O  O41  1  0.80775503  0.83688311  0.91013801  1
  O  O42  1  0.98111161  0.17619177  0.59011968  1
  O  O43  1  0.18986114  0.01345662  0.58974563  1
  O  O44  1  0.81946624  0.81276493  0.58869135  1
  O  O45  1  0.98146543  0.80604854  0.09086067  1
  O  O46  1  0.81935043  0.00927807  0.08985289  1
  O  O47  1  0.18901390  0.17725039  0.09050609  1
  O  O48  1  0.70211795  0.17516711  0.74484059  1
  O  O49  1  0.47129018  0.30073293  0.74350501  1
  O  O50  1  0.82915257  0.52440567  0.74447261  1
  O  O51  1  0.70153708  0.52645967  0.24386242  1
  O  O52  1  0.83383195  0.30104262  0.24674658  1
  O  O53  1  0.47432610  0.16886095  0.24377544  1
  O  O54  1  0.64866075  0.50608669  0.92251704  1
  O  O55  1  0.85642933  0.34593702  0.92204036  1
  O  O56  1  0.48403270  0.13269320  0.92278632  1
  O  O57  1  0.65915812  0.14594720  0.42315875  1
  O  O58  1  0.49249052  0.35116963  0.42118167  1
  O  O59  1  0.86816253  0.51460798  0.42275201  1
  O  O60  1  0.36827896  0.50567087  0.07711840  1
  O  O61  1  0.14005080  0.63549155  0.07627727  1
  O  O62  1  0.49554864  0.85822176  0.07622446  1
  O  O63  1  0.36769225  0.85979113  0.57739781  1
  O  O64  1  0.49679283  0.63579857  0.57704961  1
  O  O65  1  0.13968312  0.50593651  0.57567238  1
  O  O66  1  0.31161659  0.83771019  0.25708299  1
  O  O67  1  0.52392204  0.67880973  0.25471683  1
  O  O68  1  0.14955251  0.46759260  0.25737627  1
  O  O69  1  0.31338324  0.47212223  0.75738420  1
  O  O70  1  0.15348166  0.67522178  0.75659124  1
  O  O71  1  0.52232544  0.84371299  0.75674769  1
loop_
_geom_bond_atom_site_label_1
_geom_bond_atom_site_label_2
_geom_bond_distance
_geom_bond_site_symmetry_2
Na0 O70 2.343727 1_555
Na0 O69 2.358797 1_555
Na0 O48 2.394592 1_455
Na0 O33 2.516350 1_555
Na0 O50 2.586987 1_455
Na0 O7 2.817813 1_555
Na0 O5 2.822728 1_455
Na0 O12 2.823218 1_455
Na1 O42 2.346933 1_565
Na1 O44 2.354682 1_555
Na1 O63 2.414219 1_555
Na1 O6 2.519451 1_555
Na1 O64 2.640696 1_555
Na1 O13 2.802759 1_565
Na1 O23 2.806513 1_565
Na1 O27 2.845960 1_555
Na2 O46 2.343745 1_565
Na2 O45 2.345494 1_555
Na2 O60 2.426273 1_555
Na2 O9 2.514311 1_555
Na2 O62 2.613343 1_555
Na2 O19 2.806288 1_555
Na2 O24 2.832317 1_554
Na2 O17 2.833613 1_555
Na3 O43 2.370509 1_555
Na3 O42 2.490779 1_455
Na3 O44 2.501777 1_445
Na3 O38 2.684823 1_555
Na3 O36 2.690211 1_545
Na3 O37 2.808462 1_445
Na4 O47 2.401731 1_555
Na4 O46 2.501409 1_455
Na4 O45 2.542404 1_445
Na4 O39 2.647720 1_554
Na4 O40 2.660178 1_544
Na4 O41 2.772104 1_444
Na5 O54 2.333866 1_555
Na5 O55 2.464180 1_555
Na5 O56 2.488402 1_555
Na5 O50 2.712985 1_555
Na5 O49 2.721833 1_555
Na5 O48 2.771569 1_555
Na6 O58 2.372733 1_555
Na6 O57 2.430466 1_555
Na6 O59 2.558736 1_555
Na6 O53 2.664686 1_555
Na6 O52 2.726444 1_555
Na6 O51 2.738375 1_555
Na7 O66 2.341682 1_555
Na7 O67 2.458276 1_555
Na7 O68 2.508800 1_555
Na7 O61 2.729282 1_555
Na7 O62 2.742625 1_555
Na7 O60 2.818484 1_555
Na8 O71 2.419429 1_555
Na8 O70 2.423077 1_555
Na8 O69 2.478770 1_555
Na8 O63 2.708681 1_555
Na8 O64 2.751776 1_555
Na8 O65 2.773104 1_555
Mg0 O8 1.981621 1_555
Mg0 O7 1.987452 1_565
Mg0 O43 2.039956 1_565
Mg0 O6 2.068594 1_455
Mg0 O44 2.110175 1_455
Mg0 O42 2.119489 1_465
Mg1 O11 1.969986 1_545
Mg1 O9 2.031536 1_445
Mg1 O47 2.048133 1_555
Mg1 O45 2.061396 1_445
Mg1 O10 2.072154 1_555
Mg1 O46 2.126599 1_455
Mg2 O19 1.983906 1_556
Mg2 O20 1.992387 1_556
Mg2 O18 2.021832 1_556
Mg2 O55 2.068511 1_555
Mg2 O54 2.079756 1_555
Mg2 O56 2.165730 1_555
Mg3 O21 1.977460 1_555
Mg3 O22 1.995085 1_555
Mg3 O23 2.014407 1_555
Mg3 O57 2.055848 1_555
Mg3 O58 2.087117 1_555
Mg3 O59 2.175872 1_555
Mg4 O31 1.956212 1_555
Mg4 O32 1.980517 1_555
Mg4 O67 2.045001 1_555
Mg4 O66 2.059302 1_555
Mg4 O30 2.112888 1_555
Mg4 O68 2.178009 1_555
Mg5 O35 1.963016 1_555
Mg5 O33 2.037141 1_555
Mg5 O71 2.054912 1_555
Mg5 O34 2.058816 1_555
Mg5 O69 2.063962 1_555
Mg5 O70 2.119587 1_555
Nb0 O1 1.978367 1_555
Nb0 O0 1.979022 1_665
Nb0 O37 2.009009 1_555
Nb0 O38 2.015908 1_665
Nb0 O2 2.066978 1_565
Nb0 O36 2.082670 1_655
Nb1 O5 1.975288 1_565
Nb1 O4 1.978263 1_555
Nb1 O3 2.001916 1_665
Nb1 O41 2.005186 1_555
Nb1 O39 2.031047 1_665
Nb1 O40 2.148225 1_655
Nb2 O14 1.966735 1_555
Nb2 O13 1.987642 1_555
Nb2 O49 2.008102 1_555
Nb2 O12 2.026738 1_555
Nb2 O50 2.045564 1_555
Nb2 O48 2.075364 1_555
Nb3 O17 1.976539 1_555
Nb3 O16 1.981916 1_555
Nb3 O15 2.004654 1_555
Nb3 O53 2.016898 1_555
Nb3 O51 2.023884 1_555
Nb3 O52 2.143641 1_555
Nb4 O25 1.962392 1_554
Nb4 O24 2.002390 1_554
Nb4 O60 2.014385 1_555
Nb4 O61 2.015365 1_555
Nb4 O62 2.039835 1_555
Nb4 O26 2.079639 1_554
Nb5 O28 1.947500 1_555
Nb5 O64 1.993886 1_555
Nb5 O27 2.002626 1_555
Nb5 O65 2.011943 1_555
Nb5 O63 2.071069 1_555
Nb5 O29 2.105508 1_555
O0 P0 1.606232 1_545
O1 P1 1.604349 1_555
O2 S0 1.527170 1_655
O3 P2 1.595767 1_555
O4 P3 1.596087 1_655
O5 P4 1.612964 1_545
O6 P4 1.513557 1_555
O7 P2 1.502149 1_555
O8 P3 1.489584 1_555
O9 P1 1.511212 1_555
O10 S0 1.449279 1_555
O11 P0 1.495028 1_555
O12 P5 1.603672 1_555
O13 P6 1.617666 1_555
O14 P7 1.598491 1_555
O15 P8 1.599831 1_555
O16 P9 1.597857 1_555
O17 P10 1.613362 1_555
O18 P10 1.496858 1_555
O19 P8 1.499814 1_555
O20 P9 1.487236 1_555
O21 P6 1.494867 1_555
O22 P7 1.485390 1_555
O23 P5 1.498388 1_555
O24 P11 1.610364 1_555
O25 P12 1.612636 1_555
O26 S1 1.526887 1_555
O27 P13 1.616421 1_555
O28 P14 1.621578 1_555
O29 S2 1.520810 1_555
O30 S2 1.444458 1_555
O31 P13 1.491103 1_555
O32 P14 1.490724 1_555
O33 P12 1.509725 1_555
O34 S1 1.447598 1_555
O35 P11 1.493264 1_555
O36 S2 1.544273 1_555
O37 P13 1.604795 1_555
O38 P14 1.600458 1_555
O39 P12 1.596068 1_555
O40 S1 1.524277 1_555
O41 P11 1.605300 1_555
O42 P5 1.522990 1_555
O43 P6 1.502070 1_555
O44 P7 1.518990 1_555
O45 P8 1.521378 1_555
O46 P9 1.524529 1_555
O47 P10 1.499665 1_555
O48 P4 1.598689 1_545
O49 P2 1.578426 1_555
O50 P3 1.601439 1_655
O51 P1 1.595466 1_555
O52 S0 1.522338 1_655
O53 P0 1.603085 1_545
O54 P11 1.508486 1_555
O55 P12 1.506726 1_655
O56 S1 1.455898 1_545
O57 P13 1.508783 1_545
O58 P14 1.508034 1_555
O59 S2 1.455781 1_655
O60 P10 1.616445 1_555
O61 P8 1.581061 1_455
O62 P9 1.606683 1_565
O63 P6 1.605437 1_565
O64 P7 1.615473 1_555
O65 P5 1.582392 1_455
O66 P0 1.510261 1_555
O67 P1 1.509251 1_555
O68 S0 1.456800 1_555
O69 P2 1.521152 1_555
O70 P3 1.524579 1_555
O71 P4 1.499686 1_555
