# generated using pymatgen
data_CsEu2I5
_symmetry_space_group_name_H-M   'P 1'
_cell_length_a   9.13382247
_cell_length_b   10.24977630
_cell_length_c   14.38679606
_cell_angle_alpha   89.57895600
_cell_angle_beta   90.00000000
_cell_angle_gamma   90.00000000
_symmetry_Int_Tables_number   1
_chemical_formula_structural   CsEu2I5
_chemical_formula_sum   'Cs4 Eu8 I20'
_cell_volume   1346.85025828
_cell_formula_units_Z   4
loop_
 _symmetry_equiv_pos_site_id
 _symmetry_equiv_pos_as_xyz
  1  'x, y, z'
loop_
 _atom_site_type_symbol
 _atom_site_label
 _atom_site_symmetry_multiplicity
 _atom_site_fract_x
 _atom_site_fract_y
 _atom_site_fract_z
 _atom_site_occupancy
  Cs  Cs0  1  0.94167540  0.50732848  0.16700331  1
  Cs  Cs1  1  0.44167540  0.49267152  0.33299669  1
  Cs  Cs2  1  0.05832460  0.49267152  0.83299669  1
  Cs  Cs3  1  0.55832460  0.50732848  0.66700331  1
  Eu  Eu0  1  0.52767001  0.00304417  0.68043354  1
  Eu  Eu1  1  0.02767001  0.99695583  0.81956646  1
  Eu  Eu2  1  0.47232999  0.99695583  0.31956646  1
  Eu  Eu3  1  0.97232999  0.00304417  0.18043354  1
  Eu  Eu4  1  0.57365776  0.24406213  0.99332519  1
  Eu  Eu5  1  0.07365776  0.75593787  0.50667481  1
  Eu  Eu6  1  0.42634224  0.75593787  0.00667481  1
  Eu  Eu7  1  0.92634224  0.24406213  0.49332519  1
  I  I0  1  0.84084646  0.78853868  0.68328882  1
  I  I1  1  0.34084646  0.21146132  0.81671118  1
  I  I2  1  0.15915354  0.21146132  0.31671118  1
  I  I3  1  0.65915354  0.78853868  0.18328882  1
  I  I4  1  0.81328361  0.21972209  0.71582116  1
  I  I5  1  0.31328361  0.78027791  0.78417884  1
  I  I6  1  0.18671639  0.78027791  0.28417884  1
  I  I7  1  0.68671639  0.21972209  0.21582116  1
  I  I8  1  0.67507138  0.53750649  0.92530438  1
  I  I9  1  0.17507138  0.46249351  0.57469562  1
  I  I10  1  0.32492862  0.46249351  0.07469562  1
  I  I11  1  0.82492862  0.53750649  0.42530438  1
  I  I12  1  0.83781217  0.95713496  0.40155462  1
  I  I13  1  0.33781217  0.04286504  0.09844538  1
  I  I14  1  0.16218783  0.04286504  0.59844538  1
  I  I15  1  0.66218783  0.95713496  0.90155462  1
  I  I16  1  0.95386237  0.20689091  0.99651696  1
  I  I17  1  0.45386237  0.79310909  0.50348304  1
  I  I18  1  0.04613763  0.79310909  0.00348304  1
  I  I19  1  0.54613763  0.20689091  0.49651696  1
loop_
_geom_bond_atom_site_label_1
_geom_bond_atom_site_label_2
_geom_bond_distance
_geom_bond_site_symmetry_2
Cs0 I10 3.773293 1_655
Cs0 I7 3.817858 1_555
Cs0 I18 3.863114 1_655
Cs0 I3 3.877076 1_555
Cs0 I11 3.880624 1_555
Cs0 I16 3.952494 1_554
Cs0 I6 3.968311 1_655
Cs0 I2 4.205382 1_655
Cs0 I8 4.254536 1_554
Cs1 I11 3.773293 1_555
Cs1 I6 3.817858 1_555
Cs1 I19 3.863114 1_555
Cs1 I2 3.877076 1_555
Cs1 I10 3.880624 1_555
Cs1 I17 3.952494 1_555
Cs1 I7 3.968311 1_555
Cs1 I3 4.205382 1_555
Cs1 I9 4.254536 1_555
Cs2 I8 3.773293 1_455
Cs2 I5 3.817858 1_555
Cs2 I16 3.863114 1_455
Cs2 I1 3.877076 1_555
Cs2 I9 3.880624 1_555
Cs2 I18 3.952494 1_556
Cs2 I4 3.968311 1_455
Cs2 I0 4.205382 1_455
Cs2 I10 4.254536 1_556
Cs3 I9 3.773293 1_555
Cs3 I4 3.817858 1_555
Cs3 I17 3.863114 1_555
Cs3 I0 3.877076 1_555
Cs3 I8 3.880624 1_555
Cs3 I19 3.952494 1_555
Cs3 I5 3.968311 1_555
Cs3 I1 4.205382 1_555
Cs3 I11 4.254536 1_555
Eu0 I5 3.350456 1_545
Eu0 I19 3.363612 1_555
Eu0 I1 3.373548 1_555
Eu0 I17 3.412626 1_545
Eu0 I15 3.439363 1_545
Eu0 I4 3.466087 1_555
Eu0 I14 3.562970 1_555
Eu0 I0 3.607880 1_545
Eu1 I4 3.350456 1_465
Eu1 I18 3.363612 1_556
Eu1 I0 3.373548 1_455
Eu1 I16 3.412626 1_465
Eu1 I14 3.439363 1_565
Eu1 I5 3.466087 1_555
Eu1 I15 3.562970 1_455
Eu1 I1 3.607880 1_565
Eu2 I7 3.350456 1_565
Eu2 I17 3.363612 1_555
Eu2 I3 3.373548 1_555
Eu2 I19 3.412626 1_565
Eu2 I13 3.439363 1_565
Eu2 I6 3.466087 1_555
Eu2 I12 3.562970 1_555
Eu2 I2 3.607880 1_565
Eu3 I6 3.350456 1_645
Eu3 I16 3.363612 1_554
Eu3 I2 3.373548 1_655
Eu3 I18 3.412626 1_645
Eu3 I12 3.439363 1_545
Eu3 I7 3.466087 1_555
Eu3 I13 3.562970 1_655
Eu3 I3 3.607880 1_545
Eu4 I8 3.289212 1_555
Eu4 I1 3.331993 1_555
Eu4 I15 3.332147 1_545
Eu4 I13 3.336851 1_556
Eu4 I7 3.370951 1_556
Eu4 I10 3.403353 1_556
Eu4 I16 3.493824 1_555
Eu5 I9 3.289212 1_555
Eu5 I0 3.331993 1_455
Eu5 I14 3.332147 1_565
Eu5 I12 3.336851 1_455
Eu5 I6 3.370951 1_555
Eu5 I11 3.403353 1_455
Eu5 I17 3.493824 1_555
Eu6 I10 3.289212 1_555
Eu6 I3 3.331993 1_555
Eu6 I13 3.332147 1_565
Eu6 I15 3.336851 1_554
Eu6 I5 3.370951 1_554
Eu6 I8 3.403353 1_554
Eu6 I18 3.493824 1_555
Eu7 I11 3.289212 1_555
Eu7 I2 3.331993 1_655
Eu7 I12 3.332147 1_545
Eu7 I14 3.336851 1_655
Eu7 I4 3.370951 1_555
Eu7 I9 3.403353 1_655
Eu7 I19 3.493824 1_555
