# generated using pymatgen
data_MgTe4MoW3(SeS)2
_symmetry_space_group_name_H-M   'P 1'
_cell_length_a   3.39117623
_cell_length_b   3.39281208
_cell_length_c   47.48302276
_cell_angle_alpha   89.99919794
_cell_angle_beta   89.99600985
_cell_angle_gamma   119.97808622
_symmetry_Int_Tables_number   1
_chemical_formula_structural   MgTe4MoW3(SeS)2
_chemical_formula_sum   'Mg1 Te4 Mo1 W3 Se2 S2'
_cell_volume   473.23298750
_cell_formula_units_Z   1
loop_
 _symmetry_equiv_pos_site_id
 _symmetry_equiv_pos_as_xyz
  1  'x, y, z'
loop_
 _atom_site_type_symbol
 _atom_site_label
 _atom_site_symmetry_multiplicity
 _atom_site_fract_x
 _atom_site_fract_y
 _atom_site_fract_z
 _atom_site_occupancy
  Mg  Mg0  1  0.00009274  0.00005998  0.18551714  1
  Te  Te0  1  0.33338663  0.66675904  0.32933323  1
  Te  Te1  1  0.33332503  0.66667955  0.69718104  1
  Te  Te2  1  0.33341256  0.66674308  0.24957400  1
  Te  Te3  1  0.33341467  0.66675155  0.61768981  1
  Mo  Mo0  1  0.33329732  0.66657549  0.46964316  1
  W  W0  1  0.33324983  0.66665077  0.08458186  1
  W  W1  1  0.66670664  0.33335083  0.28962358  1
  W  W2  1  0.66665752  0.33327655  0.65745289  1
  Se  Se0  1  0.66668642  0.33333832  0.04974580  1
  Se  Se1  1  0.66642997  0.33318421  0.11967049  1
  S  S0  1  0.66669701  0.33335421  0.43806667  1
  S  S1  1  0.66664265  0.33327842  0.50122533  1
loop_
_geom_bond_atom_site_label_1
_geom_bond_atom_site_label_2
_geom_bond_distance
_geom_bond_site_symmetry_2
Te0 W1 2.718469 1_555
Te0 W1 2.718658 1_455
Te0 W1 2.718954 1_565
Te1 W2 2.719093 1_555
Te1 W2 2.719241 1_455
Te1 W2 2.719575 1_565
Te2 W1 2.729688 1_555
Te2 W1 2.729691 1_455
Te2 W1 2.730359 1_565
Te3 W2 2.720294 1_555
Te3 W2 2.720341 1_455
Te3 W2 2.720726 1_565
Mo0 S0 2.466108 1_555
Mo0 S0 2.466344 1_455
Mo0 S1 2.466398 1_555
Mo0 S1 2.466424 1_455
Mo0 S0 2.467337 1_565
Mo0 S1 2.467459 1_565
Se0 W0 2.563310 1_655
Se0 W0 2.563439 1_555
Se0 W0 2.564127 1_545
Se1 W0 2.571046 1_555
Se1 W0 2.571415 1_655
Se1 W0 2.571677 1_545
