# generated using pymatgen
data_NiPO4
_symmetry_space_group_name_H-M   'P 1'
_cell_length_a   7.34686772
_cell_length_b   7.34686772
_cell_length_c   9.37397300
_cell_angle_alpha   90.00000000
_cell_angle_beta   90.00000000
_cell_angle_gamma   119.99999746
_symmetry_Int_Tables_number   1
_chemical_formula_structural   NiPO4
_chemical_formula_sum   'Ni6 P6 O24'
_cell_volume   438.18628650
_cell_formula_units_Z   6
loop_
 _symmetry_equiv_pos_site_id
 _symmetry_equiv_pos_as_xyz
  1  'x, y, z'
loop_
 _atom_site_type_symbol
 _atom_site_label
 _atom_site_symmetry_multiplicity
 _atom_site_fract_x
 _atom_site_fract_y
 _atom_site_fract_z
 _atom_site_occupancy
  Ni  Ni0  1  0.93259400  0.54275000  0.96465200  1
  Ni  Ni1  1  0.61015600  0.06740600  0.96465200  1
  Ni  Ni2  1  0.45725000  0.38984400  0.96465200  1
  Ni  Ni3  1  0.38984400  0.45725000  0.46465200  1
  Ni  Ni4  1  0.54275000  0.93259400  0.46465200  1
  Ni  Ni5  1  0.06740600  0.61015600  0.46465200  1
  P  P0  1  0.00000000  0.00000000  0.01440800  1
  P  P1  1  0.33333300  0.66666700  0.77474900  1
  P  P2  1  0.33333300  0.66666700  0.16376900  1
  P  P3  1  0.66666700  0.33333300  0.27474900  1
  P  P4  1  0.66666700  0.33333300  0.66376900  1
  P  P5  1  0.00000000  0.00000000  0.51440800  1
  O  O0  1  0.46913200  0.33785100  0.61599400  1
  O  O1  1  0.89411200  0.41983700  0.32509600  1
  O  O2  1  0.66214900  0.13128100  0.61599400  1
  O  O3  1  0.86871900  0.53086800  0.61599400  1
  O  O4  1  0.88087700  0.76915100  0.95734900  1
  O  O5  1  0.00000000  0.00000000  0.17645300  1
  O  O6  1  0.11912300  0.88827300  0.45734900  1
  O  O7  1  0.13128100  0.66214900  0.11599400  1
  O  O8  1  0.10588800  0.52572500  0.82509600  1
  O  O9  1  0.41983700  0.89411200  0.82509600  1
  O  O10  1  0.33333300  0.66666700  0.60400900  1
  O  O11  1  0.00000000  0.00000000  0.67645300  1
  O  O12  1  0.33333300  0.66666700  0.33642400  1
  O  O13  1  0.11172700  0.23084900  0.45734900  1
  O  O14  1  0.66666700  0.33333300  0.83642400  1
  O  O15  1  0.53086800  0.86871900  0.11599400  1
  O  O16  1  0.23084900  0.11172700  0.95734900  1
  O  O17  1  0.47427500  0.58016300  0.82509600  1
  O  O18  1  0.33785100  0.46913200  0.11599400  1
  O  O19  1  0.76915100  0.88087700  0.45734900  1
  O  O20  1  0.58016300  0.47427500  0.32509600  1
  O  O21  1  0.52572500  0.10588800  0.32509600  1
  O  O22  1  0.66666700  0.33333300  0.10400900  1
  O  O23  1  0.88827300  0.11912300  0.95734900  1
loop_
_geom_bond_atom_site_label_1
_geom_bond_atom_site_label_2
_geom_bond_distance
_geom_bond_site_symmetry_2
Ni0 O8 1.872758 1_655
Ni0 O4 1.883546 1_555
Ni0 O7 1.905900 1_656
Ni0 O14 2.150143 1_555
Ni0 O22 2.210157 1_556
Ni1 O9 1.872758 1_545
Ni1 O23 1.883539 1_555
Ni1 O15 1.905900 1_546
Ni1 O14 2.150141 1_555
Ni1 O22 2.210155 1_556
Ni2 O17 1.872758 1_555
Ni2 O16 1.883542 1_555
Ni2 O18 1.905900 1_556
Ni2 O14 2.150147 1_555
Ni2 O22 2.210160 1_556
Ni3 O20 1.872758 1_555
Ni3 O13 1.883542 1_555
Ni3 O0 1.905900 1_555
Ni3 O12 2.150147 1_555
Ni3 O10 2.210160 1_555
Ni4 O21 1.872758 1_565
Ni4 O19 1.883546 1_555
Ni4 O2 1.905900 1_565
Ni4 O12 2.150143 1_555
Ni4 O10 2.210157 1_555
Ni5 O1 1.872758 1_455
Ni5 O6 1.883539 1_555
Ni5 O3 1.905900 1_455
Ni5 O12 2.150141 1_555
Ni5 O10 2.210155 1_555
O0 P4 1.534927 1_555
O1 P3 1.535229 1_555
O2 P4 1.534920 1_555
O3 P4 1.534924 1_555
O4 P0 1.563387 1_666
O5 P0 1.519005 1_555
O6 P5 1.563393 1_565
O7 P2 1.534920 1_555
O8 P1 1.535230 1_555
O9 P1 1.535229 1_555
O10 P1 1.600512 1_555
O11 P5 1.519005 1_555
O12 P2 1.618463 1_555
O13 P5 1.563387 1_555
O14 P4 1.618463 1_555
O15 P2 1.534924 1_555
O16 P0 1.563387 1_556
O17 P1 1.535235 1_555
O18 P2 1.534927 1_555
O19 P5 1.563387 1_665
O20 P3 1.535235 1_555
O21 P3 1.535230 1_555
O22 P3 1.600512 1_555
O23 P0 1.563393 1_656
