# generated using pymatgen
data_NaInGaP(SO6)2
_symmetry_space_group_name_H-M   'P 1'
_cell_length_a   8.67240438
_cell_length_b   8.66700533
_cell_length_c   22.74317448
_cell_angle_alpha   90.06152881
_cell_angle_beta   89.78391424
_cell_angle_gamma   119.91993311
_symmetry_Int_Tables_number   1
_chemical_formula_structural   NaInGaP(SO6)2
_chemical_formula_sum   'Na6 In6 Ga6 P6 S12 O72'
_cell_volume   1481.62005653
_cell_formula_units_Z   6
loop_
 _symmetry_equiv_pos_site_id
 _symmetry_equiv_pos_as_xyz
  1  'x, y, z'
loop_
 _atom_site_type_symbol
 _atom_site_label
 _atom_site_symmetry_multiplicity
 _atom_site_fract_x
 _atom_site_fract_y
 _atom_site_fract_z
 _atom_site_occupancy
  Na  Na0  1  0.98873528  0.99256592  0.50010413  1
  Na  Na1  1  0.00486469  0.98988278  0.00004108  1
  Na  Na2  1  0.65970330  0.31715843  0.83145069  1
  Na  Na3  1  0.65776431  0.31884742  0.33586681  1
  Na  Na4  1  0.32267580  0.67237730  0.16594364  1
  Na  Na5  1  0.34570228  0.67116330  0.66425447  1
  In  In0  1  0.99805935  0.00057518  0.85026481  1
  In  In1  1  0.00461305  0.99241619  0.14888281  1
  In  In2  1  0.66391750  0.33127514  0.18500016  1
  In  In3  1  0.66604459  0.33139848  0.98279386  1
  In  In4  1  0.33831300  0.68106624  0.32006800  1
  In  In5  1  0.34287591  0.68071171  0.81174678  1
  Ga  Ga0  1  0.00055518  0.00120992  0.35343983  1
  Ga  Ga1  1  0.98090919  0.98561359  0.64591624  1
  Ga  Ga2  1  0.66511715  0.33065947  0.68116899  1
  Ga  Ga3  1  0.66945549  0.33284063  0.48511724  1
  Ga  Ga4  1  0.32005333  0.67368677  0.01715532  1
  Ga  Ga5  1  0.35956281  0.67493738  0.51799599  1
  P  P0  1  0.29104308  0.00265552  0.25374778  1
  P  P1  1  0.71167444  0.01153481  0.74530410  1
  P  P2  1  0.66660370  0.61750865  0.58300232  1
  P  P3  1  0.96722004  0.62695345  0.08196281  1
  P  P4  1  0.33176543  0.96116494  0.91767115  1
  P  P5  1  0.63858365  0.97236076  0.41958122  1
  S  S0  1  0.70770223  0.70825071  0.25305367  1
  S  S1  1  0.00155758  0.29101096  0.25270488  1
  S  S2  1  0.29529814  0.28927068  0.74499402  1
  S  S3  1  0.99196798  0.70103698  0.74533356  1
  S  S4  1  0.96324809  0.33612385  0.58277170  1
  S  S5  1  0.37151659  0.03963746  0.58328289  1
  S  S6  1  0.66124238  0.02566245  0.08240764  1
  S  S7  1  0.36627097  0.34384851  0.08142650  1
  S  S8  1  0.62064420  0.66653414  0.91895452  1
  S  S9  1  0.04660673  0.37809936  0.91716402  1
  S  S10  1  0.33409268  0.37055417  0.41905640  1
  S  S11  1  0.03601338  0.66477926  0.42071261  1
  O  O0  1  0.19623825  0.02305530  0.30856969  1
  O  O1  1  0.81578568  0.79814699  0.30560809  1
  O  O2  1  0.97697691  0.17990129  0.30528916  1
  O  O3  1  0.22660547  0.18982869  0.80103500  1
  O  O4  1  0.96479393  0.77284753  0.80112154  1
  O  O5  1  0.81487818  0.04235481  0.80344353  1
  O  O6  1  0.80273817  0.98103211  0.69197987  1
  O  O7  1  0.18134271  0.19853685  0.69384554  1
  O  O8  1  0.02519486  0.82023428  0.69434780  1
  O  O9  1  0.77875279  0.80968548  0.19799897  1
  O  O10  1  0.02150912  0.21398698  0.19720924  1
  O  O11  1  0.19268331  0.97775736  0.19565142  1
  O  O12  1  0.88237522  0.36576882  0.63614602  1
  O  O13  1  0.48426609  0.11684433  0.63625400  1
  O  O14  1  0.63507339  0.50305837  0.63843440  1
  O  O15  1  0.88599695  0.51749071  0.13858383  1
  O  O16  1  0.62759344  0.10194501  0.13604792  1
  O  O17  1  0.47064523  0.36979779  0.13580399  1
  O  O18  1  0.44377586  0.30579639  0.02962353  1
  O  O19  1  0.85521603  0.54498031  0.02684345  1
  O  O20  1  0.69208597  0.13473450  0.02950838  1
  O  O21  1  0.45186472  0.15059430  0.53008923  1
  O  O22  1  0.69669725  0.53325123  0.52756360  1
  O  O23  1  0.84884164  0.30001092  0.53019264  1
  O  O24  1  0.52929105  0.68258999  0.97156886  1
  O  O25  1  0.15396086  0.46339728  0.97034747  1
  O  O26  1  0.30932916  0.84890618  0.97301061  1
  O  O27  1  0.55149789  0.84710436  0.47308052  1
  O  O28  1  0.30063794  0.45570997  0.47092059  1
  O  O29  1  0.15390017  0.69323571  0.47163940  1
  O  O30  1  0.10231945  0.62573282  0.36557422  1
  O  O31  1  0.52712817  0.90359358  0.36335045  1
  O  O32  1  0.36552036  0.47579918  0.36456504  1
  O  O33  1  0.12678949  0.47676688  0.86235097  1
  O  O34  1  0.36004575  0.88511004  0.86044174  1
  O  O35  1  0.52156264  0.63974684  0.86365036  1
  O  O36  1  0.02184374  0.82852887  0.41385367  1
  O  O37  1  0.82406622  0.98715197  0.41064009  1
  O  O38  1  0.17258866  0.19204654  0.41334551  1
  O  O39  1  0.02855234  0.19882857  0.91571556  1
  O  O40  1  0.16058348  0.97494359  0.91457809  1
  O  O41  1  0.79688982  0.83207662  0.91622277  1
  O  O42  1  0.98432011  0.17589343  0.58924850  1
  O  O43  1  0.19391747  0.02439818  0.59107618  1
  O  O44  1  0.83503371  0.80626922  0.58895613  1
  O  O45  1  0.98804505  0.81436698  0.08472835  1
  O  O46  1  0.82303743  0.01144766  0.08828600  1
  O  O47  1  0.18463777  0.18825780  0.08635985  1
  O  O48  1  0.69108805  0.17832558  0.73696359  1
  O  O49  1  0.47603713  0.31154095  0.73873776  1
  O  O50  1  0.83043219  0.52498469  0.73826196  1
  O  O51  1  0.69927289  0.53355597  0.24990217  1
  O  O52  1  0.84016861  0.30916415  0.25021269  1
  O  O53  1  0.47692078  0.17348097  0.25064515  1
  O  O54  1  0.64557550  0.51022768  0.92183268  1
  O  O55  1  0.86857567  0.36115723  0.92027851  1
  O  O56  1  0.49884859  0.14751240  0.92188952  1
  O  O57  1  0.65738099  0.15791687  0.43053856  1
  O  O58  1  0.49383217  0.35201540  0.42683762  1
  O  O59  1  0.85550527  0.50778844  0.42813788  1
  O  O60  1  0.35688482  0.50777007  0.07366148  1
  O  O61  1  0.15303287  0.64279537  0.07664660  1
  O  O62  1  0.50331198  0.84647061  0.07559694  1
  O  O63  1  0.35097134  0.85862146  0.57596642  1
  O  O64  1  0.49759252  0.63766783  0.57654816  1
  O  O65  1  0.14008300  0.49857050  0.57478078  1
  O  O66  1  0.30947321  0.83456129  0.25638503  1
  O  O67  1  0.52597655  0.68163237  0.25735197  1
  O  O68  1  0.16358403  0.46766981  0.25768165  1
  O  O69  1  0.30919993  0.46729586  0.74954639  1
  O  O70  1  0.15092175  0.67920721  0.74877670  1
  O  O71  1  0.52592678  0.84115216  0.74777543  1
loop_
_geom_bond_atom_site_label_1
_geom_bond_atom_site_label_2
_geom_bond_distance
_geom_bond_site_symmetry_2
Na0 O37 2.477188 1_555
Na0 O44 2.511379 1_555
Na0 O36 2.519643 1_655
Na0 O38 2.580383 1_665
Na0 O42 2.586448 1_565
Na0 O43 2.657066 1_665
Na1 O40 2.402615 1_554
Na1 O45 2.414090 1_455
Na1 O41 2.513396 1_454
Na1 O47 2.565647 1_565
Na1 O39 2.575486 1_564
Na1 O46 2.611272 1_465
Na2 O56 2.505452 1_555
Na2 O48 2.540985 1_555
Na2 O55 2.616267 1_555
Na2 O49 2.633127 1_555
Na2 O54 2.689920 1_555
Na2 O50 2.693068 1_555
Na3 O53 2.418724 1_555
Na3 O52 2.532416 1_555
Na3 O57 2.565776 1_555
Na3 O51 2.597914 1_555
Na3 O58 2.601668 1_555
Na3 O59 2.691584 1_555
Na4 O61 2.449465 1_555
Na4 O66 2.524374 1_555
Na4 O62 2.564611 1_555
Na4 O60 2.634268 1_555
Na4 O68 2.636056 1_555
Na4 O67 2.706118 1_555
Na5 O71 2.437407 1_555
Na5 O64 2.481685 1_555
Na5 O69 2.535709 1_555
Na5 O63 2.570187 1_555
Na5 O70 2.578035 1_555
Na5 O65 2.630245 1_555
In0 O5 2.091940 1_555
In0 O40 2.122270 1_645
In0 O3 2.148619 1_655
In0 O4 2.158160 1_545
In0 O39 2.186859 1_655
In0 O41 2.206812 1_545
In1 O11 2.006951 1_555
In1 O45 2.075193 1_455
In1 O9 2.117876 1_455
In1 O10 2.152492 1_565
In1 O46 2.163835 1_465
In1 O47 2.164574 1_565
In2 O15 2.077497 1_555
In2 O53 2.122003 1_555
In2 O16 2.159304 1_555
In2 O17 2.178532 1_555
In2 O51 2.192722 1_555
In2 O52 2.209689 1_555
In3 O19 2.025004 1_556
In3 O56 2.065488 1_555
In3 O18 2.111297 1_556
In3 O20 2.115364 1_556
In3 O54 2.153353 1_555
In3 O55 2.168666 1_555
In4 O31 2.056120 1_555
In4 O66 2.066129 1_555
In4 O30 2.120325 1_555
In4 O67 2.158196 1_555
In4 O32 2.160850 1_555
In4 O68 2.223695 1_555
In5 O34 2.029988 1_555
In5 O71 2.086934 1_555
In5 O35 2.117658 1_555
In5 O33 2.155101 1_555
In5 O70 2.195159 1_555
In5 O69 2.228540 1_555
Ga0 O0 1.903687 1_555
Ga0 O37 1.961937 1_445
Ga0 O2 1.990184 1_455
Ga0 O1 2.011027 1_445
Ga0 O38 2.089648 1_555
Ga0 O36 2.108041 1_545
Ga1 O6 1.847522 1_555
Ga1 O44 1.934197 1_555
Ga1 O8 1.992736 1_655
Ga1 O42 2.082599 1_565
Ga1 O7 2.103622 1_665
Ga1 O43 2.108353 1_665
Ga2 O14 1.907484 1_555
Ga2 O48 1.925225 1_555
Ga2 O13 2.011490 1_555
Ga2 O12 2.026152 1_555
Ga2 O49 2.035634 1_555
Ga2 O50 2.044169 1_555
Ga3 O22 1.895660 1_555
Ga3 O57 1.920623 1_555
Ga3 O23 2.001594 1_555
Ga3 O21 2.029150 1_555
Ga3 O59 2.032158 1_555
Ga3 O58 2.091038 1_555
Ga4 O26 1.862190 1_554
Ga4 O61 1.897245 1_555
Ga4 O25 1.979487 1_554
Ga4 O62 2.042663 1_555
Ga4 O24 2.054244 1_554
Ga4 O60 2.070437 1_555
Ga5 O27 1.885061 1_555
Ga5 O64 1.925946 1_555
Ga5 O28 2.012148 1_555
Ga5 O63 2.095550 1_555
Ga5 O29 2.148163 1_555
Ga5 O65 2.170403 1_555
O0 P0 1.548751 1_555
O1 S0 1.480607 1_555
O2 S1 1.482838 1_655
O3 S2 1.485469 1_555
O4 S3 1.481589 1_555
O5 P1 1.546125 1_555
O6 P1 1.537770 1_565
O7 S2 1.476389 1_555
O8 S3 1.482566 1_455
O9 S0 1.475300 1_555
O10 S1 1.476608 1_555
O11 P0 1.531106 1_565
O12 S4 1.484640 1_555
O13 S5 1.486502 1_555
O14 P2 1.541943 1_555
O15 P3 1.543905 1_555
O16 S6 1.482765 1_555
O17 S7 1.484640 1_555
O18 S7 1.470700 1_555
O19 P3 1.529245 1_555
O20 S6 1.469830 1_555
O21 S5 1.483781 1_555
O22 P2 1.541689 1_555
O23 S4 1.486846 1_555
O24 S8 1.476953 1_555
O25 S9 1.481999 1_555
O26 P4 1.542879 1_555
O27 P5 1.551574 1_555
O28 S10 1.493119 1_555
O29 S11 1.484704 1_555
O30 S11 1.485105 1_555
O31 P5 1.535579 1_555
O32 S10 1.481239 1_555
O33 S9 1.473581 1_555
O34 P4 1.531596 1_555
O35 S8 1.477434 1_555
O36 S11 1.492721 1_555
O37 P5 1.561150 1_555
O38 S10 1.487101 1_555
O39 S9 1.482212 1_555
O40 P4 1.549447 1_555
O41 S8 1.486747 1_555
O42 S4 1.495808 1_555
O43 S5 1.488679 1_555
O44 P2 1.563824 1_555
O45 P3 1.543435 1_555
O46 S6 1.475055 1_555
O47 S7 1.480633 1_555
O48 P1 1.554301 1_555
O49 S2 1.486923 1_555
O50 S3 1.478306 1_555
O51 S0 1.480646 1_555
O52 S1 1.485673 1_655
O53 P0 1.553723 1_555
O54 S8 1.476064 1_555
O55 S9 1.477639 1_655
O56 P4 1.543835 1_545
O57 P5 1.553367 1_545
O58 S10 1.483314 1_555
O59 S11 1.484627 1_655
O60 S7 1.473853 1_555
O61 P3 1.551796 1_455
O62 S6 1.480200 1_565
O63 S5 1.497192 1_565
O64 P2 1.567673 1_555
O65 S4 1.487167 1_455
O66 P0 1.544078 1_565
O67 S0 1.477407 1_555
O68 S1 1.478565 1_555
O69 S2 1.490005 1_555
O70 S3 1.484335 1_455
O71 P1 1.550875 1_565
