# generated using pymatgen
data_MgTe2MoW2(SeS)2
_symmetry_space_group_name_H-M   'P 1'
_cell_length_a   3.35099100
_cell_length_b   3.35130102
_cell_length_c   37.64246618
_cell_angle_alpha   89.98902825
_cell_angle_beta   90.00000000
_cell_angle_gamma   119.99694978
_symmetry_Int_Tables_number   1
_chemical_formula_structural   MgTe2MoW2(SeS)2
_chemical_formula_sum   'Mg1 Te2 Mo1 W2 Se2 S2'
_cell_volume   366.10759454
_cell_formula_units_Z   1
loop_
 _symmetry_equiv_pos_site_id
 _symmetry_equiv_pos_as_xyz
  1  'x, y, z'
loop_
 _atom_site_type_symbol
 _atom_site_label
 _atom_site_symmetry_multiplicity
 _atom_site_fract_x
 _atom_site_fract_y
 _atom_site_fract_z
 _atom_site_occupancy
  Mg  Mg0  1  0.00001300  0.00002600  0.24679800  1
  Te  Te0  1  0.66670200  0.33340500  0.52795700  1
  Te  Te1  1  0.66657500  0.33315100  0.62905500  1
  Mo  Mo0  1  0.66667700  0.33335600  0.35303300  1
  W  W0  1  0.33331500  0.66663000  0.10670900  1
  W  W1  1  0.33333400  0.66666900  0.57851200  1
  Se  Se0  1  0.66669100  0.33338100  0.06226600  1
  Se  Se1  1  0.66657100  0.33314100  0.15130200  1
  S  S0  1  0.33330400  0.66660900  0.39279600  1
  S  S1  1  0.33341600  0.66683400  0.31191400  1
loop_
_geom_bond_atom_site_label_1
_geom_bond_atom_site_label_2
_geom_bond_distance
_geom_bond_site_symmetry_2
Mg0 S1 3.122411 1_545
Mg0 S1 3.122414 1_445
Mg0 S1 3.123408 1_555
Te0 W1 2.713777 1_545
Te0 W1 2.713884 1_655
Te0 W1 2.713884 1_555
Te1 W1 2.713530 1_655
Te1 W1 2.713530 1_555
Te1 W1 2.713535 1_545
Mo0 S0 2.446182 1_555
Mo0 S0 2.446184 1_655
Mo0 S0 2.446208 1_545
Mo0 S1 2.477736 1_655
Mo0 S1 2.477736 1_555
Mo0 S1 2.477785 1_545
Se0 W0 2.557778 1_545
Se0 W0 2.557783 1_655
Se0 W0 2.557786 1_555
Se1 W0 2.561463 1_655
Se1 W0 2.561466 1_555
Se1 W0 2.561508 1_545
