# generated using pymatgen
data_Li6Bi3P8O29
_symmetry_space_group_name_H-M   'P 1'
_cell_length_a   10.36758820
_cell_length_b   10.36758820
_cell_length_c   14.28310262
_cell_angle_alpha   89.45216572
_cell_angle_beta   89.45216572
_cell_angle_gamma   59.89563960
_symmetry_Int_Tables_number   1
_chemical_formula_structural   Li6Bi3P8O29
_chemical_formula_sum   'Li12 Bi6 P16 O58'
_cell_volume   1328.08097640
_cell_formula_units_Z   2
loop_
 _symmetry_equiv_pos_site_id
 _symmetry_equiv_pos_as_xyz
  1  'x, y, z'
loop_
 _atom_site_type_symbol
 _atom_site_label
 _atom_site_symmetry_multiplicity
 _atom_site_fract_x
 _atom_site_fract_y
 _atom_site_fract_z
 _atom_site_occupancy
  Li  Li0  1  0.69057600  0.08942200  0.44365700  1
  Li  Li1  1  0.31544700  0.78124400  0.06125400  1
  Li  Li2  1  0.31095900  0.91033000  0.55174900  1
  Li  Li3  1  0.78124400  0.31544700  0.56125400  1
  Li  Li4  1  0.91033000  0.31095900  0.05174900  1
  Li  Li5  1  0.08937000  0.21800800  0.44222300  1
  Li  Li6  1  0.79018100  0.92000900  0.05377500  1
  Li  Li7  1  0.33795000  0.33719900  0.12293100  1
  Li  Li8  1  0.33719900  0.33795000  0.62293100  1
  Li  Li9  1  0.08942200  0.69057600  0.94365700  1
  Li  Li10  1  0.92000900  0.79018100  0.55377500  1
  Li  Li11  1  0.21800800  0.08937000  0.94222300  1
  Bi  Bi0  1  0.43123200  0.57004200  0.25938400  1
  Bi  Bi1  1  0.57004200  0.43123200  0.75938400  1
  Bi  Bi2  1  0.43426500  0.99347100  0.75266200  1
  Bi  Bi3  1  0.57219000  0.99440300  0.25037400  1
  Bi  Bi4  1  0.99347100  0.43426500  0.25266200  1
  Bi  Bi5  1  0.99440300  0.57219000  0.75037400  1
  P  P0  1  0.09398200  0.23006300  0.65389100  1
  P  P1  1  0.91934500  0.30889400  0.83998600  1
  P  P2  1  0.66826300  0.66532100  0.60843000  1
  P  P3  1  0.66532100  0.66826300  0.10843000  1
  P  P4  1  0.76992800  0.30698500  0.34882200  1
  P  P5  1  0.30889400  0.91934500  0.33998600  1
  P  P6  1  0.68515400  0.22916500  0.16160700  1
  P  P7  1  0.68243000  0.09045000  0.65698800  1
  P  P8  1  0.22916500  0.68515400  0.66160700  1
  P  P9  1  0.33222600  0.32572300  0.38829800  1
  P  P10  1  0.32572300  0.33222600  0.88829800  1
  P  P11  1  0.09045000  0.68243000  0.15698800  1
  P  P12  1  0.91773300  0.77138700  0.34381000  1
  P  P13  1  0.23006300  0.09398200  0.15389100  1
  P  P14  1  0.77138700  0.91773300  0.84381000  1
  P  P15  1  0.30698500  0.76992800  0.84882200  1
  O  O0  1  0.87342100  0.65219500  0.32675900  1
  O  O1  1  0.47169900  0.65497500  0.82910700  1
  O  O2  1  0.29115200  0.92684700  0.84776400  1
  O  O3  1  0.26172700  0.99279400  0.07087600  1
  O  O4  1  0.29393700  0.77909900  0.34408200  1
  O  O5  1  0.25863300  0.76994700  0.58847400  1
  O  O6  1  0.76315400  0.20873900  0.26410200  1
  O  O7  1  0.74622300  0.24380900  0.43900900  1
  O  O8  1  0.68693600  0.23731200  0.65097300  1
  O  O9  1  0.77601900  0.00526800  0.74932500  1
  O  O10  1  0.75330700  0.00607200  0.92978800  1
  O  O11  1  0.69174600  0.07745400  0.14820700  1
  O  O12  1  0.51772300  0.34953800  0.17355600  1
  O  O13  1  0.46926900  0.31689000  0.84245200  1
  O  O14  1  0.24380900  0.74622300  0.93900900  1
  O  O15  1  0.34953800  0.51772300  0.67355600  1
  O  O16  1  0.20873900  0.76315400  0.76410200  1
  O  O17  1  0.51709900  0.13208800  0.67103000  1
  O  O18  1  0.48387500  0.18354600  0.35839800  1
  O  O19  1  0.23731200  0.68693600  0.15097300  1
  O  O20  1  0.31689000  0.46926900  0.34245200  1
  O  O21  1  0.33452300  0.33106800  0.49403800  1
  O  O22  1  0.33106800  0.33452300  0.99403800  1
  O  O23  1  0.18354600  0.48387500  0.85839800  1
  O  O24  1  0.07745400  0.69174600  0.64820700  1
  O  O25  1  0.35015000  0.13926300  0.17099800  1
  O  O26  1  0.31147200  0.19391800  0.85793100  1
  O  O27  1  0.00526800  0.77601900  0.24932500  1
  O  O28  1  0.13208800  0.51709900  0.17103000  1
  O  O29  1  0.00607200  0.75330700  0.42978800  1
  O  O30  1  0.99502200  0.75526600  0.07180400  1
  O  O31  1  0.19391800  0.31147200  0.35793100  1
  O  O32  1  0.92655700  0.77147100  0.84644700  1
  O  O33  1  0.13926300  0.35015000  0.67099800  1
  O  O34  1  0.23867500  0.07820900  0.64362500  1
  O  O35  1  0.75526600  0.99502200  0.57180400  1
  O  O36  1  0.24080600  0.01199100  0.42676900  1
  O  O37  1  0.77147100  0.92655700  0.34644700  1
  O  O38  1  0.21598300  0.01424300  0.24823000  1
  O  O39  1  0.65497500  0.47169900  0.32910700  1
  O  O40  1  0.07820900  0.23867500  0.14362500  1
  O  O41  1  0.80696000  0.67720800  0.63909000  1
  O  O42  1  0.01199100  0.24080600  0.92676900  1
  O  O43  1  0.99279400  0.26172700  0.57087600  1
  O  O44  1  0.01424300  0.21598300  0.74823000  1
  O  O45  1  0.87205100  0.47377400  0.82306200  1
  O  O46  1  0.65219500  0.87342100  0.82675900  1
  O  O47  1  0.67720800  0.80696000  0.13909000  1
  O  O48  1  0.92684700  0.29115200  0.34776400  1
  O  O49  1  0.80647300  0.51972100  0.14057300  1
  O  O50  1  0.66580000  0.66543000  0.50136900  1
  O  O51  1  0.51706800  0.67884100  0.14391800  1
  O  O52  1  0.67884100  0.51706800  0.64391800  1
  O  O53  1  0.77909900  0.29393700  0.84408200  1
  O  O54  1  0.51972100  0.80647300  0.64057300  1
  O  O55  1  0.47377400  0.87205100  0.32306200  1
  O  O56  1  0.76994700  0.25863300  0.08847400  1
  O  O57  1  0.66543000  0.66580000  0.00136900  1
loop_
_geom_bond_atom_site_label_1
_geom_bond_atom_site_label_2
_geom_bond_distance
_geom_bond_site_symmetry_2
Li0 O7 1.955204 1_555
Li0 O37 2.020958 1_545
Li0 O35 2.022017 1_545
Li0 O18 2.226430 1_555
Li1 O3 1.979495 1_555
Li1 O19 2.001272 1_555
Li1 O14 2.009861 1_554
Li1 O51 2.165095 1_555
Li2 O5 1.860040 1_555
Li2 O34 2.007344 1_565
Li2 O36 2.011544 1_565
Li2 O54 2.267589 1_555
Li3 O43 1.979495 1_555
Li3 O8 2.001272 1_555
Li3 O7 2.009861 1_555
Li3 O52 2.165095 1_555
Li4 O56 1.860040 1_555
Li4 O40 2.007344 1_655
Li4 O42 2.011544 1_654
Li4 O49 2.267589 1_555
Li5 O36 1.927218 1_555
Li5 O48 1.994132 1_455
Li5 O43 2.027336 1_455
Li5 O31 2.137678 1_555
Li6 O10 1.928468 1_564
Li6 O30 1.963927 1_555
Li6 O11 1.967199 1_565
Li6 O47 2.356464 1_555
Li7 O22 1.844068 1_554
Li7 O12 2.068751 1_555
Li7 O25 2.100684 1_555
Li7 O28 2.123456 1_555
Li8 O21 1.844068 1_555
Li8 O15 2.068751 1_555
Li8 O33 2.100684 1_555
Li8 O17 2.123456 1_555
Li9 O14 1.955204 1_555
Li9 O32 2.020958 1_455
Li9 O30 2.022017 1_456
Li9 O23 2.226430 1_555
Li10 O29 1.928468 1_655
Li10 O35 1.963927 1_555
Li10 O24 1.967199 1_655
Li10 O41 2.356464 1_555
Li11 O42 1.927218 1_555
Li11 O2 1.994132 1_545
Li11 O3 2.027336 1_546
Li11 O26 2.137678 1_555
Bi0 O39 2.250418 1_555
Bi0 O20 2.257517 1_555
Bi0 O4 2.260454 1_555
Bi0 O19 2.342624 1_555
Bi0 O12 2.347184 1_555
Bi0 O51 2.393225 1_555
Bi1 O1 2.250418 1_555
Bi1 O13 2.257517 1_555
Bi1 O53 2.260454 1_555
Bi1 O8 2.342624 1_555
Bi1 O15 2.347184 1_555
Bi1 O52 2.393225 1_555
Bi2 O46 2.230167 1_555
Bi2 O17 2.312831 1_565
Bi2 O54 2.327202 1_555
Bi2 O2 2.344208 1_555
Bi2 O34 2.357193 1_565
Bi2 O26 2.359939 1_565
Bi3 O55 2.231811 1_555
Bi3 O37 2.285669 1_555
Bi3 O18 2.300869 1_565
Bi3 O25 2.321500 1_565
Bi3 O47 2.322041 1_555
Bi3 O11 2.327923 1_565
Bi4 O0 2.230167 1_555
Bi4 O28 2.312831 1_655
Bi4 O49 2.327202 1_555
Bi4 O48 2.344208 1_555
Bi4 O40 2.357193 1_655
Bi4 O31 2.359939 1_655
Bi5 O45 2.231811 1_555
Bi5 O32 2.285669 1_555
Bi5 O23 2.300869 1_655
Bi5 O33 2.321500 1_655
Bi5 O41 2.322041 1_555
Bi5 O24 2.327923 1_655
O0 P12 1.541038 1_555
O1 P15 1.539951 1_555
O2 P15 1.550990 1_555
O3 P13 1.511657 1_565
O4 P5 1.538182 1_555
O5 P8 1.484261 1_555
O6 P4 1.613579 1_555
O6 P6 1.639163 1_555
O7 P4 1.512621 1_555
O8 P7 1.548117 1_555
O9 P7 1.613499 1_555
O9 P14 1.632858 1_545
O10 P14 1.492278 1_545
O11 P6 1.553357 1_555
O12 P6 1.557254 1_555
O13 P10 1.553987 1_555
O14 P15 1.512621 1_555
O15 P8 1.557254 1_555
O16 P15 1.613579 1_555
O16 P8 1.639163 1_555
O17 P7 1.554820 1_555
O18 P9 1.581595 1_555
O19 P11 1.548117 1_555
O20 P9 1.553987 1_555
O21 P9 1.512694 1_555
O22 P10 1.512694 1_555
O23 P10 1.581595 1_555
O24 P8 1.553357 1_555
O25 P13 1.557073 1_555
O26 P10 1.578521 1_555
O27 P11 1.613499 1_555
O27 P12 1.632858 1_455
O28 P11 1.554820 1_555
O29 P12 1.492278 1_455
O30 P11 1.511751 1_655
O31 P9 1.578521 1_555
O32 P14 1.562622 1_555
O33 P0 1.557073 1_555
O34 P0 1.543210 1_555
O35 P7 1.511751 1_565
O36 P5 1.511024 1_545
O37 P12 1.562622 1_555
O38 P13 1.617520 1_555
O38 P5 1.631627 1_545
O39 P4 1.539951 1_555
O40 P13 1.543210 1_555
O41 P2 1.570196 1_555
O42 P1 1.511024 1_455
O43 P0 1.511657 1_655
O44 P0 1.617520 1_555
O44 P1 1.631627 1_455
O45 P1 1.540936 1_555
O46 P14 1.541038 1_555
O47 P3 1.570196 1_555
O48 P4 1.550990 1_555
O49 P3 1.569249 1_555
O50 P2 1.529601 1_555
O51 P3 1.564760 1_555
O52 P2 1.564760 1_555
O53 P1 1.538182 1_555
O54 P2 1.569249 1_555
O55 P5 1.540936 1_555
O56 P6 1.484261 1_555
O57 P3 1.529601 1_555
