# generated using pymatgen
data_Na5Y2SiGe2P5O24
_symmetry_space_group_name_H-M   'P 1'
_cell_length_a   8.96968631
_cell_length_b   8.98442446
_cell_length_c   22.50170176
_cell_angle_alpha   90.11259732
_cell_angle_beta   89.69701883
_cell_angle_gamma   120.42282594
_symmetry_Int_Tables_number   1
_chemical_formula_structural   Na5Y2SiGe2P5O24
_chemical_formula_sum   'Na15 Y6 Si3 Ge6 P15 O72'
_cell_volume   1563.65555422
_cell_formula_units_Z   3
loop_
 _symmetry_equiv_pos_site_id
 _symmetry_equiv_pos_as_xyz
  1  'x, y, z'
loop_
 _atom_site_type_symbol
 _atom_site_label
 _atom_site_symmetry_multiplicity
 _atom_site_fract_x
 _atom_site_fract_y
 _atom_site_fract_z
 _atom_site_occupancy
  Na  Na0  1  0.00130748  0.64784297  0.24867429  1
  Na  Na1  1  0.62725890  0.63389273  0.74809111  1
  Na  Na2  1  0.37617303  0.99888379  0.74950687  1
  Na  Na3  1  0.66550296  0.97046786  0.58613856  1
  Na  Na4  1  0.30387136  0.97429836  0.08026804  1
  Na  Na5  1  0.67730893  0.69851630  0.07843457  1
  Na  Na6  1  0.02819062  0.33114220  0.08185842  1
  Na  Na7  1  0.96365177  0.30041326  0.41860622  1
  Na  Na8  1  0.34016792  0.03799049  0.42106164  1
  Na  Na9  1  0.00724319  0.98987880  0.50611145  1
  Na  Na10  1  0.00101108  0.99213506  0.99330421  1
  Na  Na11  1  0.68275093  0.33465350  0.83304465  1
  Na  Na12  1  0.65220133  0.33412055  0.33047573  1
  Na  Na13  1  0.34499023  0.66680833  0.16661145  1
  Na  Na14  1  0.31461689  0.64891539  0.66302305  1
  Y  Y0  1  0.99361683  0.99421855  0.35028356  1
  Y  Y1  1  0.00088318  0.00226042  0.15283921  1
  Y  Y2  1  0.66673680  0.33643618  0.97503710  1
  Y  Y3  1  0.66139420  0.33941128  0.49194462  1
  Y  Y4  1  0.34437208  0.66765956  0.31319104  1
  Y  Y5  1  0.32639328  0.66175690  0.80853041  1
  Si  Si0  1  0.73349951  0.02044251  0.74699246  1
  Si  Si1  1  0.35544598  0.02660093  0.58595336  1
  Si  Si2  1  0.96838914  0.62468708  0.08229270  1
  Ge  Ge0  1  0.99317896  0.00364210  0.85229739  1
  Ge  Ge1  1  0.00464592  0.00062677  0.64952381  1
  Ge  Ge2  1  0.67276585  0.32325906  0.68246308  1
  Ge  Ge3  1  0.67146946  0.33252920  0.18185793  1
  Ge  Ge4  1  0.32197323  0.66498132  0.01078735  1
  Ge  Ge5  1  0.32899528  0.66812442  0.52321052  1
  P  P0  1  0.32244062  0.01750169  0.24685240  1
  P  P1  1  0.69352983  0.67529463  0.24232462  1
  P  P2  1  0.98252503  0.30427524  0.24700971  1
  P  P3  1  0.28550679  0.27133808  0.74717047  1
  P  P4  1  0.98435845  0.71412943  0.74714862  1
  P  P5  1  0.97101528  0.33338478  0.58589807  1
  P  P6  1  0.66781292  0.63561183  0.59031954  1
  P  P7  1  0.65511675  0.03593185  0.08305367  1
  P  P8  1  0.38267300  0.34618199  0.08386595  1
  P  P9  1  0.63210171  0.68705102  0.91443982  1
  P  P10  1  0.04850403  0.35864365  0.91593973  1
  P  P11  1  0.30931328  0.95065715  0.91277584  1
  P  P12  1  0.62416984  0.95450454  0.42517537  1
  P  P13  1  0.33120546  0.37985686  0.42382151  1
  P  P14  1  0.04926930  0.66894070  0.42094746  1
  O  O0  1  0.23855301  0.03889121  0.30434010  1
  O  O1  1  0.81294069  0.76686876  0.29625103  1
  O  O2  1  0.96532473  0.19960171  0.30368312  1
  O  O3  1  0.20516955  0.15857434  0.80413505  1
  O  O4  1  0.95015539  0.79267350  0.80422136  1
  O  O5  1  0.84658772  0.04377996  0.80730830  1
  O  O6  1  0.81963905  0.98422248  0.68896889  1
  O  O7  1  0.17434405  0.18694386  0.69227293  1
  O  O8  1  0.01816351  0.83129781  0.69305171  1
  O  O9  1  0.77273364  0.77617730  0.18525561  1
  O  O10  1  0.00835880  0.22642196  0.19067368  1
  O  O11  1  0.20750152  0.98538231  0.19263538  1
  O  O12  1  0.87706569  0.37103145  0.63827144  1
  O  O13  1  0.50471819  0.12778061  0.64000239  1
  O  O14  1  0.63668042  0.51209074  0.64458360  1
  O  O15  1  0.88086469  0.49773127  0.14256459  1
  O  O16  1  0.62172378  0.12196550  0.13900958  1
  O  O17  1  0.50253837  0.37496405  0.13883176  1
  O  O18  1  0.44856833  0.29686701  0.02975425  1
  O  O19  1  0.83750201  0.54560704  0.02890414  1
  O  O20  1  0.69274823  0.14895608  0.02911521  1
  O  O21  1  0.42107894  0.12726930  0.52419222  1
  O  O22  1  0.70658324  0.57061662  0.53380703  1
  O  O23  1  0.86355953  0.29108568  0.52920214  1
  O  O24  1  0.53664507  0.70552320  0.97297105  1
  O  O25  1  0.15681313  0.44836833  0.97524857  1
  O  O26  1  0.28821788  0.83691903  0.97125633  1
  O  O27  1  0.53380763  0.84572329  0.48273606  1
  O  O28  1  0.31111993  0.47674700  0.47909930  1
  O  O29  1  0.17078047  0.69178961  0.47474946  1
  O  O30  1  0.12245242  0.65012173  0.36170100  1
  O  O31  1  0.51771021  0.87479856  0.36972844  1
  O  O32  1  0.34568047  0.47349420  0.36637030  1
  O  O33  1  0.13461909  0.46958039  0.86249574  1
  O  O34  1  0.33416559  0.87167575  0.85680881  1
  O  O35  1  0.53310192  0.66724559  0.85790393  1
  O  O36  1  0.04045677  0.83625870  0.42026013  1
  O  O37  1  0.80552481  0.97598625  0.42161916  1
  O  O38  1  0.16262430  0.19954893  0.42251420  1
  O  O39  1  0.04403704  0.18262850  0.91164469  1
  O  O40  1  0.13867631  0.95771518  0.90883814  1
  O  O41  1  0.81330135  0.85638855  0.91196773  1
  O  O42  1  0.98582277  0.17070721  0.59634554  1
  O  O43  1  0.16514374  0.00508793  0.59768178  1
  O  O44  1  0.82485632  0.82285048  0.59754345  1
  O  O45  1  0.01012643  0.82191912  0.08850741  1
  O  O46  1  0.80969935  0.00827597  0.09019145  1
  O  O47  1  0.19522457  0.19805352  0.09184226  1
  O  O48  1  0.70543418  0.19150108  0.73990370  1
  O  O49  1  0.47036569  0.28938901  0.74173852  1
  O  O50  1  0.81711890  0.53137146  0.74032226  1
  O  O51  1  0.69257127  0.50159170  0.23913340  1
  O  O52  1  0.81245439  0.31061267  0.24261364  1
  O  O53  1  0.49791880  0.18547530  0.23864071  1
  O  O54  1  0.65404257  0.53071147  0.91969729  1
  O  O55  1  0.86683612  0.32982471  0.92044863  1
  O  O56  1  0.46545785  0.13013573  0.91938560  1
  O  O57  1  0.64623744  0.13672697  0.42780835  1
  O  O58  1  0.48609738  0.35152947  0.42548725  1
  O  O59  1  0.87243188  0.50459859  0.42680072  1
  O  O60  1  0.37793337  0.51767318  0.07707235  1
  O  O61  1  0.15926926  0.63198144  0.07177012  1
  O  O62  1  0.48620588  0.85474557  0.07676901  1
  O  O63  1  0.35027410  0.83666359  0.58010933  1
  O  O64  1  0.50340332  0.65397288  0.58435720  1
  O  O65  1  0.15275861  0.49884794  0.57925237  1
  O  O66  1  0.33933305  0.85631379  0.25024002  1
  O  O67  1  0.51291217  0.64727286  0.24754447  1
  O  O68  1  0.13435291  0.49101633  0.25038516  1
  O  O69  1  0.31663764  0.45548824  0.74941664  1
  O  O70  1  0.14627830  0.69803590  0.74970524  1
  O  O71  1  0.53844966  0.85117924  0.74784597  1
loop_
_geom_bond_atom_site_label_1
_geom_bond_atom_site_label_2
_geom_bond_distance
_geom_bond_site_symmetry_2
Na0 O68 2.261528 1_555
Na0 O51 2.400308 1_455
Na0 O52 2.621234 1_455
Na0 O1 2.636401 1_455
Na0 O66 2.636630 1_555
Na0 O15 2.688107 1_455
Na0 O30 2.766952 1_555
Na0 O11 2.918455 1_555
Na1 O50 2.316024 1_555
Na1 O69 2.410254 1_555
Na1 O71 2.453706 1_555
Na1 O14 2.590545 1_555
Na1 O35 2.672100 1_555
Na1 O49 2.677685 1_555
Na1 O4 2.804628 1_555
Na2 O49 2.307281 1_565
Na2 O71 2.415903 1_555
Na2 O70 2.431724 1_555
Na2 O48 2.565632 1_565
Na2 O34 2.615906 1_555
Na2 O13 2.714940 1_565
Na2 O3 2.850260 1_565
Na3 O44 2.406852 1_555
Na3 O64 2.452408 1_555
Na3 O63 2.453431 1_555
Na3 O42 2.512940 1_565
Na3 O27 2.596765 1_555
Na3 O6 2.672141 1_555
Na3 O13 2.754204 1_565
Na3 O23 2.811200 1_565
Na4 O45 2.278923 1_555
Na4 O62 2.368993 1_555
Na4 O47 2.652967 1_565
Na4 O61 2.671716 1_555
Na4 O11 2.685755 1_555
Na4 O26 2.715941 1_554
Na4 O18 2.750163 1_565
Na4 O16 2.799626 1_565
Na5 O60 2.331031 1_555
Na5 O46 2.424613 1_565
Na5 O9 2.531274 1_555
Na5 O45 2.616601 1_655
Na5 O19 2.677746 1_555
Na5 O24 2.709283 1_554
Na5 O62 2.710613 1_555
Na5 O17 2.851768 1_555
Na6 O61 2.349591 1_555
Na6 O47 2.354551 1_555
Na6 O46 2.555630 1_455
Na6 O10 2.597515 1_555
Na6 O25 2.635354 1_554
Na6 O60 2.708166 1_555
Na6 O15 2.797908 1_455
Na6 O20 2.860610 1_455
Na7 O59 2.363481 1_555
Na7 O38 2.377836 1_655
Na7 O57 2.462958 1_555
Na7 O37 2.514985 1_545
Na7 O23 2.628149 1_555
Na7 O2 2.740793 1_555
Na8 O36 2.361807 1_545
Na8 O57 2.425769 1_555
Na8 O58 2.434040 1_555
Na8 O21 2.444644 1_555
Na8 O38 2.642788 1_555
Na8 O0 2.786007 1_555
Na8 O31 2.891114 1_545
Na8 O29 2.941395 1_545
Na9 O43 2.470627 1_565
Na9 O36 2.474952 1_555
Na9 O38 2.521262 1_565
Na9 O44 2.579016 1_455
Na9 O37 2.590502 1_455
Na9 O42 2.664210 1_465
Na10 O40 2.364823 1_555
Na10 O41 2.369835 1_455
Na10 O39 2.406312 1_565
Na10 O45 2.660065 1_556
Na10 O46 2.816004 1_466
Na10 O47 2.852097 1_566
Na11 O48 2.517534 1_555
Na11 O55 2.589129 1_555
Na11 O50 2.600000 1_555
Na11 O49 2.696140 1_555
Na11 O56 2.701227 1_555
Na11 O54 2.722404 1_555
Na12 O51 2.464149 1_555
Na12 O53 2.473156 1_555
Na12 O52 2.509036 1_555
Na12 O58 2.648769 1_555
Na12 O57 2.804060 1_555
Na12 O59 2.813206 1_555
Na13 O67 2.431868 1_555
Na13 O60 2.515163 1_555
Na13 O62 2.522434 1_555
Na13 O66 2.552729 1_555
Na13 O68 2.563102 1_555
Na13 O61 2.633328 1_555
Na14 O65 2.348470 1_555
Na14 O63 2.426548 1_555
Na14 O64 2.427656 1_555
Na14 O69 2.616311 1_555
Na14 O70 2.630488 1_555
Na14 O71 2.703347 1_555
Ge0 O5 1.838338 1_555
Ge0 O39 1.957665 1_655
Ge0 O41 1.994638 1_545
Ge0 O3 2.007807 1_655
Ge0 O40 2.014226 1_645
Ge0 O4 2.041427 1_545
Ge1 O6 1.816742 1_445
Ge1 O43 1.832726 1_555
Ge1 O7 1.863598 1_555
Ge1 O8 1.866112 1_545
Ge1 O44 1.980865 1_445
Ge1 O42 2.016429 1_455
Ge2 O48 1.875920 1_555
Ge2 O13 1.896568 1_555
Ge2 O12 1.927939 1_555
Ge2 O14 2.067430 1_555
Ge2 O50 2.103324 1_555
Ge2 O49 2.141033 1_555
Ge3 O15 1.917478 1_555
Ge3 O53 1.924595 1_555
Ge3 O51 1.925535 1_555
Ge3 O52 1.943828 1_555
Ge3 O16 1.962161 1_555
Ge3 O17 1.995177 1_555
Ge4 O61 1.908651 1_555
Ge4 O25 1.925661 1_554
Ge4 O26 1.936783 1_554
Ge4 O24 1.959090 1_554
Ge4 O62 2.179625 1_555
Ge4 O60 2.217353 1_555
Ge5 O29 1.889739 1_555
Ge5 O63 1.915933 1_555
Ge5 O28 1.919136 1_555
Ge5 O27 1.941577 1_555
Ge5 O65 1.988402 1_555
Ge5 O64 2.140437 1_555
O0 P0 1.552934 1_555
O0 Y0 2.267429 1_445
O1 P1 1.553673 1_555
O1 Y0 2.221583 1_555
O2 P2 1.546015 1_555
O2 Y0 2.248010 1_545
O3 P3 1.563539 1_555
O4 P4 1.566167 1_555
O5 Si0 1.647107 1_555
O6 Si0 1.627833 1_565
O7 P3 1.529289 1_555
O8 P4 1.536137 1_455
O9 P1 1.522519 1_555
O9 Y1 2.150831 1_665
O10 P2 1.519032 1_455
O10 Y1 2.154627 1_555
O11 P0 1.531379 1_565
O11 Y1 2.135957 1_565
O12 P5 1.577966 1_555
O13 Si1 1.696591 1_555
O14 P6 1.577450 1_555
O15 Si2 1.686600 1_555
O16 P7 1.580882 1_555
O17 P8 1.576007 1_555
O18 P8 1.511195 1_555
O18 Y2 2.177947 1_554
O19 Si2 1.578958 1_555
O19 Y2 2.107717 1_554
O20 P7 1.507167 1_555
O20 Y2 2.186648 1_554
O21 Si1 1.597809 1_555
O21 Y3 2.152613 1_555
O22 P6 1.508983 1_555
O22 Y3 2.123723 1_555
O23 P5 1.530067 1_555
O23 Y3 2.234837 1_555
O24 P9 1.620618 1_555
O25 P10 1.609663 1_555
O26 P11 1.618170 1_555
O27 P12 1.575223 1_555
O28 P13 1.577842 1_555
O29 P14 1.575463 1_555
O30 P14 1.529388 1_555
O30 Y4 2.199696 1_555
O31 P12 1.515864 1_555
O31 Y4 2.140199 1_555
O32 P13 1.512510 1_555
O32 Y4 2.122331 1_555
O33 P10 1.500482 1_555
O33 Y5 2.095918 1_555
O34 P11 1.514238 1_555
O34 Y5 2.145132 1_555
O35 P9 1.513145 1_555
O35 Y5 2.145560 1_555
O36 P14 1.544899 1_555
O36 Y0 2.299905 1_455
O37 P12 1.539650 1_555
O37 Y0 2.267666 1_555
O38 P13 1.559203 1_555
O38 Y0 2.350521 1_445
O39 P10 1.564297 1_555
O40 P11 1.566600 1_555
O41 P9 1.566673 1_555
O42 P5 1.551566 1_555
O43 Si1 1.637680 1_555
O44 P6 1.562704 1_555
O45 Si2 1.620950 1_455
O45 Y1 2.202989 1_565
O46 P7 1.536718 1_555
O46 Y1 2.247352 1_655
O47 P8 1.536848 1_555
O47 Y1 2.212598 1_555
O48 Si0 1.686408 1_555
O49 P3 1.586259 1_555
O50 P4 1.573805 1_555
O51 P1 1.557801 1_555
O52 P2 1.558750 1_555
O53 P0 1.543192 1_555
O54 P9 1.518731 1_555
O54 Y2 2.195793 1_555
O55 P10 1.517787 1_655
O55 Y2 2.195019 1_555
O56 P11 1.515892 1_545
O56 Y2 2.211078 1_555
O57 P12 1.547432 1_545
O57 Y3 2.271190 1_555
O58 P13 1.534637 1_555
O58 Y3 2.217944 1_555
O59 P14 1.529730 1_655
O59 Y3 2.251347 1_555
O60 P8 1.570483 1_555
O61 Si2 1.695258 1_455
O62 P7 1.571288 1_565
O63 Si1 1.688348 1_565
O64 P6 1.571151 1_555
O65 P5 1.560057 1_455
O66 P0 1.532572 1_565
O66 Y4 2.229144 1_555
O67 P1 1.512243 1_555
O67 Y4 2.180984 1_555
O68 P2 1.536840 1_455
O68 Y4 2.248599 1_555
O69 P3 1.532900 1_555
O69 Y5 2.244697 1_555
O70 P4 1.532054 1_455
O70 Y5 2.241882 1_555
O71 Si0 1.636802 1_565
O71 Y5 2.254356 1_555
