# generated using pymatgen
data_Hg6S4IBr2Cl
_symmetry_space_group_name_H-M   'P 1'
_cell_length_a   9.70192400
_cell_length_b   13.24384100
_cell_length_c   13.33467500
_cell_angle_alpha   90.00000000
_cell_angle_beta   90.00000000
_cell_angle_gamma   90.00000000
_symmetry_Int_Tables_number   1
_chemical_formula_structural   Hg6S4IBr2Cl
_chemical_formula_sum   'Hg24 S16 I4 Br8 Cl4'
_cell_volume   1713.38224308
_cell_formula_units_Z   4
loop_
 _symmetry_equiv_pos_site_id
 _symmetry_equiv_pos_as_xyz
  1  'x, y, z'
loop_
 _atom_site_type_symbol
 _atom_site_label
 _atom_site_symmetry_multiplicity
 _atom_site_fract_x
 _atom_site_fract_y
 _atom_site_fract_z
 _atom_site_occupancy
  Hg  Hg0  1  0.48553200  0.65345400  0.88268700  1
  Hg  Hg1  1  0.98553200  0.34654600  0.11731300  1
  Hg  Hg2  1  0.51446800  0.15345400  0.61731300  1
  Hg  Hg3  1  0.01446800  0.84654600  0.38268700  1
  Hg  Hg4  1  0.51446800  0.34654600  0.11731300  1
  Hg  Hg5  1  0.01446800  0.65345400  0.88268700  1
  Hg  Hg6  1  0.48553200  0.84654600  0.38268700  1
  Hg  Hg7  1  0.98553200  0.15345400  0.61731300  1
  Hg  Hg8  1  0.25000000  0.52772500  0.69192100  1
  Hg  Hg9  1  0.75000000  0.47227500  0.30807900  1
  Hg  Hg10  1  0.75000000  0.02772500  0.80807900  1
  Hg  Hg11  1  0.25000000  0.97227500  0.19192100  1
  Hg  Hg12  1  0.49272100  0.61983800  0.15434700  1
  Hg  Hg13  1  0.99272100  0.38016200  0.84565300  1
  Hg  Hg14  1  0.50727900  0.11983800  0.34565300  1
  Hg  Hg15  1  0.00727900  0.88016200  0.65434700  1
  Hg  Hg16  1  0.50727900  0.38016200  0.84565300  1
  Hg  Hg17  1  0.00727900  0.61983800  0.15434700  1
  Hg  Hg18  1  0.49272100  0.88016200  0.65434700  1
  Hg  Hg19  1  0.99272100  0.11983800  0.34565300  1
  Hg  Hg20  1  0.25000000  0.19969200  0.97640700  1
  Hg  Hg21  1  0.75000000  0.80030800  0.02359300  1
  Hg  Hg22  1  0.75000000  0.69969200  0.52359300  1
  Hg  Hg23  1  0.25000000  0.30030800  0.47640700  1
  S  S0  1  0.99725500  0.03340700  0.75653900  1
  S  S1  1  0.49725500  0.96659300  0.24346100  1
  S  S2  1  0.50274500  0.46659300  0.25653900  1
  S  S3  1  0.49725500  0.53340700  0.74346100  1
  S  S4  1  0.99725500  0.46659300  0.25653900  1
  S  S5  1  0.50274500  0.03340700  0.75653900  1
  S  S6  1  0.00274500  0.96659300  0.24346100  1
  S  S7  1  0.00112700  0.25904100  0.46684000  1
  S  S8  1  0.50112700  0.74095900  0.53316000  1
  S  S9  1  0.99887300  0.75904100  0.03316000  1
  S  S10  1  0.49887300  0.24095900  0.96684000  1
  S  S11  1  0.99887300  0.74095900  0.53316000  1
  S  S12  1  0.49887300  0.25904100  0.46684000  1
  S  S13  1  0.00112700  0.24095900  0.96684000  1
  S  S14  1  0.50112700  0.75904100  0.03316000  1
  S  S15  1  0.00274500  0.53340700  0.74346100  1
  I  I0  1  0.75000000  0.49256600  0.99169100  1
  I  I1  1  0.25000000  0.50743400  0.00830900  1
  I  I2  1  0.75000000  0.00743400  0.49169100  1
  I  I3  1  0.25000000  0.99256600  0.50830900  1
  Br  Br0  1  0.25000000  0.72880700  0.27012700  1
  Br  Br1  1  0.75000000  0.78221400  0.78432500  1
  Br  Br2  1  0.75000000  0.27119300  0.72987300  1
  Br  Br3  1  0.75000000  0.71778600  0.28432500  1
  Br  Br4  1  0.75000000  0.22880700  0.22987300  1
  Br  Br5  1  0.25000000  0.28221400  0.71567500  1
  Br  Br6  1  0.25000000  0.21778600  0.21567500  1
  Br  Br7  1  0.25000000  0.77119300  0.77012700  1
  Cl  Cl0  1  0.25000000  0.99882600  0.99716400  1
  Cl  Cl1  1  0.25000000  0.50117400  0.49716400  1
  Cl  Cl2  1  0.75000000  0.49882600  0.50283600  1
  Cl  Cl3  1  0.75000000  0.00117400  0.00283600  1
loop_
_geom_bond_atom_site_label_1
_geom_bond_atom_site_label_2
_geom_bond_distance
_geom_bond_site_symmetry_2
Hg0 S3 2.446913 1_555
Hg0 S14 2.450393 1_556
Hg0 I1 3.430399 1_556
Hg1 S4 2.446913 1_555
Hg1 S13 2.450393 1_654
Hg1 I0 3.430399 1_554
Hg2 S5 2.446913 1_555
Hg2 S12 2.450393 1_555
Hg2 I2 3.430399 1_555
Hg3 S6 2.446913 1_555
Hg3 S11 2.450393 1_455
Hg3 I3 3.430399 1_555
Hg4 S2 2.446913 1_555
Hg4 S10 2.450393 1_554
Hg4 I0 3.430399 1_554
Hg5 S15 2.446913 1_555
Hg5 S9 2.450393 1_456
Hg5 I1 3.430399 1_556
Hg6 S1 2.446913 1_555
Hg6 S8 2.450393 1_555
Hg6 I3 3.430399 1_555
Hg7 S0 2.446913 1_555
Hg7 S7 2.450393 1_655
Hg7 I2 3.430399 1_555
Hg8 S15 2.496493 1_555
Hg8 S3 2.496493 1_555
Hg9 S4 2.496493 1_555
Hg9 S2 2.496493 1_555
Hg10 S0 2.496493 1_555
Hg10 S5 2.496493 1_555
Hg11 S6 2.496493 1_555
Hg11 S1 2.496493 1_555
Hg12 S2 2.446525 1_555
Hg12 S14 2.452931 1_555
Hg12 I1 3.399077 1_555
Hg13 S15 2.446525 1_655
Hg13 S13 2.452931 1_655
Hg13 I0 3.399077 1_555
Hg14 S1 2.446525 1_545
Hg14 S12 2.452931 1_555
Hg14 I2 3.399077 1_555
Hg15 S0 2.446525 1_465
Hg15 S11 2.452931 1_455
Hg15 I3 3.399077 1_555
Hg16 S3 2.446525 1_555
Hg16 S10 2.452931 1_555
Hg16 I0 3.399077 1_555
Hg17 S4 2.446525 1_455
Hg17 S9 2.452931 1_455
Hg17 I1 3.399077 1_555
Hg18 S5 2.446525 1_565
Hg18 S8 2.452931 1_555
Hg18 I3 3.399077 1_555
Hg19 S6 2.446525 1_645
Hg19 S7 2.452931 1_655
Hg19 I2 3.399077 1_555
Hg20 S10 2.478913 1_555
Hg20 S13 2.478913 1_555
Hg21 S9 2.478913 1_555
Hg21 S14 2.478913 1_555
Hg22 S8 2.478913 1_555
Hg22 S11 2.478913 1_555
Hg23 S12 2.478913 1_555
Hg23 S7 2.478913 1_555
Br0 Hg3 3.147390 1_555
Br0 Hg6 3.147390 1_555
Br0 Hg17 3.164126 1_555
Br0 Hg12 3.164126 1_555
Br1 Hg21 3.199547 1_556
Br1 Hg10 3.266901 1_565
Br1 Hg18 3.304134 1_555
Br1 Hg15 3.304134 1_655
Br1 Hg5 3.348419 1_655
Br1 Hg0 3.348419 1_555
Br2 Hg7 3.147390 1_555
Br2 Hg2 3.147390 1_555
Br2 Hg13 3.164126 1_555
Br2 Hg16 3.164126 1_555
Br3 Hg22 3.199547 1_555
Br3 Hg9 3.266901 1_555
Br3 Hg12 3.304134 1_555
Br3 Hg17 3.304134 1_655
Br3 Hg3 3.348419 1_655
Br3 Hg6 3.348419 1_555
Br4 Hg1 3.147390 1_555
Br4 Hg4 3.147390 1_555
Br4 Hg14 3.164126 1_555
Br4 Hg19 3.164126 1_555
Br5 Hg23 3.199547 1_555
Br5 Hg8 3.266901 1_555
Br5 Hg16 3.304134 1_555
Br5 Hg13 3.304134 1_455
Br5 Hg7 3.348419 1_455
Br5 Hg2 3.348419 1_555
Br6 Hg20 3.199547 1_554
Br6 Hg11 3.266901 1_545
Br6 Hg14 3.304134 1_555
Br6 Hg19 3.304134 1_455
Br6 Hg4 3.348419 1_555
Br6 Hg1 3.348419 1_455
Br7 Hg5 3.147390 1_555
Br7 Hg0 3.147390 1_555
Br7 Hg18 3.164126 1_555
Br7 Hg15 3.164126 1_555
Cl0 Hg11 2.620719 1_556
Cl0 Hg20 2.674598 1_565
Cl1 Hg8 2.620719 1_555
Cl1 Hg23 2.674598 1_555
Cl2 Hg9 2.620719 1_555
Cl2 Hg22 2.674598 1_555
Cl3 Hg10 2.620719 1_554
Cl3 Hg21 2.674598 1_545
