# generated using pymatgen
data_Rb2LaMgNb2O8
_symmetry_space_group_name_H-M   'P 1'
_cell_length_a   3.89987102
_cell_length_b   4.01378576
_cell_length_c   16.99722470
_cell_angle_alpha   90.00000000
_cell_angle_beta   90.00000000
_cell_angle_gamma   90.00000000
_symmetry_Int_Tables_number   1
_chemical_formula_structural   Rb2LaMgNb2O8
_chemical_formula_sum   'Rb2 La1 Mg1 Nb2 O8'
_cell_volume   266.06175256
_cell_formula_units_Z   1
loop_
 _symmetry_equiv_pos_site_id
 _symmetry_equiv_pos_as_xyz
  1  'x, y, z'
loop_
 _atom_site_type_symbol
 _atom_site_label
 _atom_site_symmetry_multiplicity
 _atom_site_fract_x
 _atom_site_fract_y
 _atom_site_fract_z
 _atom_site_occupancy
  Rb  Rb0  1  0.00000000  0.00000000  0.70284513  1
  Rb  Rb1  1  0.00000000  0.00000000  0.28650994  1
  La  La0  1  0.00000000  0.00000000  0.99433656  1
  Mg  Mg0  1  0.00000000  0.50000000  0.49402723  1
  Nb  Nb0  1  0.50000000  0.50000000  0.86341732  1
  Nb  Nb1  1  0.50000000  0.50000000  0.12528677  1
  O  O0  1  0.50000000  0.50000000  0.49305393  1
  O  O1  1  0.50000000  0.50000000  0.75433959  1
  O  O2  1  0.50000000  0.50000000  0.23429284  1
  O  O3  1  0.50000000  0.50000000  0.99431182  1
  O  O4  1  0.50000000  0.00000000  0.88516058  1
  O  O5  1  0.00000000  0.50000000  0.88716907  1
  O  O6  1  0.50000000  0.00000000  0.10328985  1
  O  O7  1  0.00000000  0.50000000  0.10160237  1
loop_
_geom_bond_atom_site_label_1
_geom_bond_atom_site_label_2
_geom_bond_distance
_geom_bond_site_symmetry_2
La0 O6 2.689200 1_556
La0 O6 2.689200 1_456
La0 O4 2.691808 1_555
La0 O4 2.691808 1_455
La0 O5 2.710288 1_545
La0 O5 2.710288 1_555
La0 O7 2.711412 1_546
La0 O7 2.711412 1_556
La0 O3 2.798190 1_555
La0 O3 2.798190 1_445
La0 O3 2.798190 1_545
La0 O3 2.798190 1_455
Mg0 O0 1.950006 1_455
Mg0 O0 1.950006 1_555
Nb0 O1 1.854019 1_555
Nb0 O5 1.991289 1_655
Nb0 O5 1.991289 1_555
Nb0 O4 2.040638 1_555
Nb0 O4 2.040638 1_565
Nb0 O3 2.224843 1_555
Nb1 O2 1.852801 1_555
Nb1 O7 1.991058 1_655
Nb1 O7 1.991058 1_555
Nb1 O6 2.041424 1_555
Nb1 O6 2.041424 1_565
Nb1 O3 2.226211 1_554
O1 Rb0 2.931886 1_565
O1 Rb0 2.931886 1_655
O1 Rb0 2.931886 1_665
O1 Rb0 2.931886 1_555
O2 Rb1 2.935576 1_655
O2 Rb1 2.935576 1_565
O2 Rb1 2.935576 1_665
O2 Rb1 2.935576 1_555
