# generated using pymatgen
data_Na3Mg2Nb10Si3(P5O24)3
_symmetry_space_group_name_H-M   'P 1'
_cell_length_a   8.80561923
_cell_length_b   8.80114768
_cell_length_c   22.73725775
_cell_angle_alpha   89.88787911
_cell_angle_beta   90.00841293
_cell_angle_gamma   120.00398791
_symmetry_Int_Tables_number   1
_chemical_formula_structural   Na3Mg2Nb10Si3(P5O24)3
_chemical_formula_sum   'Na3 Mg2 Nb10 Si3 P15 O72'
_cell_volume   1525.98210830
_cell_formula_units_Z   1
loop_
 _symmetry_equiv_pos_site_id
 _symmetry_equiv_pos_as_xyz
  1  'x, y, z'
loop_
 _atom_site_type_symbol
 _atom_site_label
 _atom_site_symmetry_multiplicity
 _atom_site_fract_x
 _atom_site_fract_y
 _atom_site_fract_z
 _atom_site_occupancy
  Na  Na0  1  0.00088107  0.00100494  0.00197545  1
  Na  Na1  1  0.66670212  0.33353913  0.84001312  1
  Na  Na2  1  0.66673284  0.33335633  0.34105844  1
  Mg  Mg0  1  0.66728952  0.33378530  0.97933547  1
  Mg  Mg1  1  0.66728005  0.33399836  0.47861892  1
  Nb  Nb0  1  0.99398554  0.99804242  0.35972123  1
  Nb  Nb1  1  0.99832617  0.99556173  0.85637532  1
  Nb  Nb2  1  0.00167899  0.99656844  0.64151555  1
  Nb  Nb3  1  0.99750867  0.00137500  0.14706347  1
  Nb  Nb4  1  0.66903291  0.33559843  0.68550237  1
  Nb  Nb5  1  0.66846846  0.33541985  0.18833412  1
  Nb  Nb6  1  0.33329263  0.66581267  0.02547992  1
  Nb  Nb7  1  0.33204226  0.66627173  0.52194977  1
  Nb  Nb8  1  0.33287204  0.66470411  0.30927543  1
  Nb  Nb9  1  0.33138882  0.66606365  0.80989062  1
  Si  Si0  1  0.71506044  0.71364189  0.25161498  1
  Si  Si1  1  0.99779345  0.28440319  0.25132929  1
  Si  Si2  1  0.99702602  0.71119894  0.74959660  1
  P  P0  1  0.28473302  0.00182816  0.25126587  1
  P  P1  1  0.28584281  0.28357332  0.74980857  1
  P  P2  1  0.71590732  0.00146627  0.74987097  1
  P  P3  1  0.95176657  0.33261216  0.58063154  1
  P  P4  1  0.38337244  0.04905471  0.58067198  1
  P  P5  1  0.66555134  0.61836813  0.58046173  1
  P  P6  1  0.94979626  0.62033167  0.08070545  1
  P  P7  1  0.66981513  0.05099421  0.08081034  1
  P  P8  1  0.38068651  0.32849431  0.08063125  1
  P  P9  1  0.61755270  0.66188195  0.91699200  1
  P  P10  1  0.04404584  0.38094283  0.91707459  1
  P  P11  1  0.33855704  0.95608883  0.91702273  1
  P  P12  1  0.61671526  0.95717002  0.41655147  1
  P  P13  1  0.33853558  0.38107982  0.41650837  1
  P  P14  1  0.04325727  0.66201056  0.41627006  1
  O  O0  1  0.20365153  0.03580468  0.30535314  1
  O  O1  1  0.84003030  0.80238314  0.30839769  1
  O  O2  1  0.96647860  0.16056416  0.30804949  1
  O  O3  1  0.19926707  0.16875674  0.80502765  1
  O  O4  1  0.96742195  0.80547962  0.80759285  1
  O  O5  1  0.83153907  0.03362239  0.80521848  1
  O  O6  1  0.80078629  0.97352747  0.69567842  1
  O  O7  1  0.17205061  0.20180718  0.69545353  1
  O  O8  1  0.02682998  0.83487180  0.69310210  1
  O  O9  1  0.80685760  0.83263886  0.19302686  1
  O  O10  1  0.03025211  0.19645619  0.19273965  1
  O  O11  1  0.17279652  0.97217479  0.19545906  1
  O  O12  1  0.86550986  0.36331379  0.63786397  1
  O  O13  1  0.49569561  0.13280671  0.63793014  1
  O  O14  1  0.63702323  0.50339265  0.63783684  1
  O  O15  1  0.86683607  0.50653712  0.13737710  1
  O  O16  1  0.63974413  0.13150705  0.13720443  1
  O  O17  1  0.49225639  0.35952734  0.13720297  1
  O  O18  1  0.45761204  0.29822667  0.02668614  1
  O  O19  1  0.84096847  0.54400632  0.02709304  1
  O  O20  1  0.70301605  0.15912959  0.02681825  1
  O  O21  1  0.45954393  0.16177940  0.52800666  1
  O  O22  1  0.70391360  0.54268484  0.52823319  1
  O  O23  1  0.83868085  0.29665349  0.52820073  1
  O  O24  1  0.53229176  0.69467342  0.97157021  1
  O  O25  1  0.16270591  0.46771673  0.97145067  1
  O  O26  1  0.30430397  0.83762442  0.97146683  1
  O  O27  1  0.52930548  0.83782368  0.47180507  1
  O  O28  1  0.30734384  0.46983121  0.47149666  1
  O  O29  1  0.16238525  0.69153304  0.47162716  1
  O  O30  1  0.13928570  0.64381652  0.36209167  1
  O  O31  1  0.50432131  0.86239244  0.36222757  1
  O  O32  1  0.35729389  0.49714563  0.36202466  1
  O  O33  1  0.14176915  0.49363192  0.86161605  1
  O  O34  1  0.35308950  0.85934369  0.86169037  1
  O  O35  1  0.50821774  0.64791651  0.86175444  1
  O  O36  1  0.03748952  0.83489703  0.40846057  1
  O  O37  1  0.79767342  0.96453687  0.40935500  1
  O  O38  1  0.16853228  0.20142243  0.40795068  1
  O  O39  1  0.03334296  0.19854729  0.90898928  1
  O  O40  1  0.16614529  0.96855630  0.90915128  1
  O  O41  1  0.80175441  0.83688664  0.90973375  1
  O  O42  1  0.97838381  0.17551672  0.59638430  1
  O  O43  1  0.19740565  0.02427753  0.59472476  1
  O  O44  1  0.82371479  0.80464461  0.59516898  1
  O  O45  1  0.98329789  0.80900821  0.09172048  1
  O  O46  1  0.82849180  0.01954939  0.09104272  1
  O  O47  1  0.19241797  0.17075363  0.09105946  1
  O  O48  1  0.69192084  0.16275333  0.74226724  1
  O  O49  1  0.46876328  0.30233442  0.74232511  1
  O  O50  1  0.82484346  0.51722128  0.74178433  1
  O  O51  1  0.68935189  0.51844743  0.24069467  1
  O  O52  1  0.82437287  0.30307465  0.24064678  1
  O  O53  1  0.46880027  0.16360028  0.24095557  1
  O  O54  1  0.64171572  0.50533103  0.92081707  1
  O  O55  1  0.86518901  0.36158417  0.92041867  1
  O  O56  1  0.49650626  0.13582410  0.92031534  1
  O  O57  1  0.63985851  0.13727507  0.42164897  1
  O  O58  1  0.49861537  0.36307680  0.42139477  1
  O  O59  1  0.86402424  0.50346014  0.42163398  1
  O  O60  1  0.35868452  0.49535111  0.07348417  1
  O  O61  1  0.13672624  0.63947835  0.07378565  1
  O  O62  1  0.50432469  0.86250391  0.07349577  1
  O  O63  1  0.35797146  0.86196677  0.57439240  1
  O  O64  1  0.50243672  0.64015805  0.57458090  1
  O  O65  1  0.13727300  0.49683184  0.57461369  1
  O  O66  1  0.30570769  0.84052512  0.25989116  1
  O  O67  1  0.52513185  0.69583808  0.26085760  1
  O  O68  1  0.16571487  0.47740450  0.26081138  1
  O  O69  1  0.30908835  0.46705145  0.76045575  1
  O  O70  1  0.16853570  0.69124370  0.76090539  1
  O  O71  1  0.53455489  0.83838953  0.76044765  1
loop_
_geom_bond_atom_site_label_1
_geom_bond_atom_site_label_2
_geom_bond_distance
_geom_bond_site_symmetry_2
Na0 O47 2.582663 1_555
Na0 O46 2.584984 1_455
Na0 O45 2.601571 1_445
Na0 O41 2.652816 1_444
Na0 O39 2.657677 1_554
Na0 O40 2.659460 1_544
Na1 O56 2.447032 1_555
Na1 O55 2.455080 1_555
Na1 O54 2.460421 1_555
Na1 O50 2.697448 1_555
Na1 O49 2.751260 1_555
Na1 O48 2.755920 1_555
Na2 O57 2.443606 1_555
Na2 O58 2.446722 1_555
Na2 O59 2.454490 1_555
Na2 O51 2.749901 1_555
Na2 O52 2.753850 1_555
Na2 O53 2.803256 1_555
Mg0 O18 2.021733 1_556
Mg0 O20 2.025959 1_556
Mg0 O19 2.029453 1_556
Mg0 O54 2.105386 1_555
Mg0 O55 2.112854 1_555
Mg0 O56 2.118037 1_555
Mg1 O21 2.031141 1_555
Mg1 O23 2.037423 1_555
Mg1 O22 2.040955 1_555
Mg1 O59 2.076906 1_555
Mg1 O57 2.079541 1_555
Mg1 O58 2.083865 1_555
Nb0 O2 1.955714 1_565
Nb0 O1 1.958985 1_555
Nb0 O37 1.959141 1_555
Nb0 O36 1.995077 1_655
Nb0 O38 2.006136 1_665
Nb0 O0 2.105371 1_665
Nb1 O4 1.911786 1_555
Nb1 O41 1.998682 1_555
Nb1 O40 2.007443 1_655
Nb1 O5 2.027841 1_565
Nb1 O3 2.028199 1_665
Nb1 O39 2.043315 1_665
Nb2 O43 1.934151 1_565
Nb2 O8 1.938735 1_555
Nb2 O44 1.943858 1_455
Nb2 O42 1.972884 1_465
Nb2 O7 2.077374 1_565
Nb2 O6 2.080373 1_455
Nb3 O9 1.901843 1_545
Nb3 O10 1.902995 1_655
Nb3 O11 2.013568 1_645
Nb3 O46 2.024800 1_555
Nb3 O47 2.055190 1_655
Nb3 O45 2.064441 1_545
Nb4 O12 1.950243 1_555
Nb4 O14 1.960834 1_555
Nb4 O50 1.972127 1_555
Nb4 O13 1.991921 1_555
Nb4 O48 2.078339 1_555
Nb4 O49 2.085120 1_555
Nb5 O51 1.938355 1_555
Nb5 O52 1.941533 1_555
Nb5 O15 2.006105 1_555
Nb5 O17 2.032736 1_555
Nb5 O53 2.035690 1_555
Nb5 O16 2.047050 1_555
Nb6 O60 1.954766 1_555
Nb6 O61 1.963259 1_555
Nb6 O62 1.963745 1_555
Nb6 O24 2.047402 1_554
Nb6 O25 2.047886 1_554
Nb6 O26 2.058801 1_554
Nb7 O29 1.980189 1_555
Nb7 O27 1.991918 1_555
Nb7 O28 1.996002 1_555
Nb7 O65 2.008694 1_555
Nb7 O63 2.013721 1_555
Nb7 O64 2.019765 1_555
Nb8 O68 1.917855 1_555
Nb8 O67 1.920570 1_555
Nb8 O32 1.992405 1_555
Nb8 O30 2.016952 1_555
Nb8 O66 2.018880 1_555
Nb8 O31 2.033873 1_555
Nb9 O70 1.913756 1_555
Nb9 O33 1.983327 1_555
Nb9 O34 2.000016 1_555
Nb9 O69 2.008356 1_555
Nb9 O71 2.011193 1_555
Nb9 O35 2.021902 1_555
O0 P0 1.525385 1_555
O1 Si0 1.622287 1_555
O2 Si1 1.619020 1_555
O3 P1 1.550334 1_555
O4 Si2 1.648063 1_555
O5 P2 1.553500 1_555
O6 P2 1.524022 1_565
O7 P1 1.526846 1_555
O8 Si2 1.616347 1_455
O9 Si0 1.634936 1_555
O10 Si1 1.637345 1_455
O11 P0 1.547063 1_565
O12 P3 1.596951 1_555
O13 P4 1.578215 1_555
O14 P5 1.590483 1_555
O15 P6 1.568627 1_555
O16 P7 1.551679 1_555
O17 P8 1.557871 1_555
O18 P8 1.488709 1_555
O19 P6 1.488149 1_555
O20 P7 1.488481 1_555
O21 P4 1.482616 1_555
O22 P5 1.481988 1_555
O23 P3 1.482862 1_555
O24 P9 1.550907 1_555
O25 P10 1.552047 1_555
O26 P11 1.546286 1_555
O27 P12 1.568634 1_555
O28 P13 1.570757 1_555
O29 P14 1.574944 1_555
O30 P14 1.547469 1_555
O31 P12 1.542397 1_555
O32 P13 1.559416 1_555
O33 P10 1.567184 1_555
O34 P11 1.561223 1_555
O35 P9 1.549623 1_555
O36 P14 1.557435 1_555
O37 P12 1.570594 1_555
O38 P13 1.553320 1_555
O39 P10 1.571456 1_555
O40 P11 1.586011 1_555
O41 P9 1.590909 1_555
O42 P3 1.554670 1_555
O43 P4 1.572885 1_555
O44 P5 1.567715 1_555
O45 P6 1.555288 1_555
O46 P7 1.571434 1_555
O47 P8 1.558513 1_555
O48 P2 1.545446 1_555
O49 P1 1.544227 1_555
O50 Si2 1.630123 1_555
O51 Si0 1.636124 1_555
O52 Si1 1.633607 1_555
O53 P0 1.549197 1_555
O54 P9 1.497987 1_555
O55 P10 1.498959 1_655
O56 P11 1.497466 1_545
O57 P12 1.498414 1_545
O58 P13 1.499228 1_555
O59 P14 1.499923 1_655
O60 P8 1.582446 1_555
O61 P6 1.576433 1_455
O62 P7 1.576872 1_565
O63 P4 1.553783 1_565
O64 P5 1.546938 1_555
O65 P3 1.553728 1_455
O66 P0 1.532684 1_565
O67 Si0 1.613583 1_555
O68 Si1 1.614806 1_455
O69 P1 1.542426 1_555
O70 Si2 1.625669 1_455
O71 P2 1.540926 1_565
