# generated using pymatgen
data_Na7Al3Zn(PO4)6
_symmetry_space_group_name_H-M   'P 1'
_cell_length_a   8.73083946
_cell_length_b   8.72733842
_cell_length_c   21.51583428
_cell_angle_alpha   90.09403030
_cell_angle_beta   90.02712038
_cell_angle_gamma   120.01125869
_symmetry_Int_Tables_number   1
_chemical_formula_structural   Na7Al3Zn(PO4)6
_chemical_formula_sum   'Na21 Al9 Zn3 P18 O72'
_cell_volume   1419.63366626
_cell_formula_units_Z   3
loop_
 _symmetry_equiv_pos_site_id
 _symmetry_equiv_pos_as_xyz
  1  'x, y, z'
loop_
 _atom_site_type_symbol
 _atom_site_label
 _atom_site_symmetry_multiplicity
 _atom_site_fract_x
 _atom_site_fract_y
 _atom_site_fract_z
 _atom_site_occupancy
  Na  Na0  1  0.63857507  0.00755244  0.24719572  1
  Na  Na1  1  0.36837302  0.36073700  0.24723665  1
  Na  Na2  1  0.99219174  0.63078082  0.24683616  1
  Na  Na3  1  0.63309400  0.62617217  0.74806885  1
  Na  Na4  1  0.99378713  0.36725615  0.74844282  1
  Na  Na5  1  0.37387944  0.00640598  0.74822063  1
  Na  Na6  1  0.02732518  0.69436717  0.58418850  1
  Na  Na7  1  0.66414335  0.97120647  0.58383025  1
  Na  Na8  1  0.30741084  0.97112489  0.08382347  1
  Na  Na9  1  0.66703667  0.69338342  0.08406643  1
  Na  Na10  1  0.69806990  0.03317187  0.91838392  1
  Na  Na11  1  0.33162203  0.30064182  0.91797479  1
  Na  Na12  1  0.96683384  0.29332266  0.41457316  1
  Na  Na13  1  0.32675348  0.03403466  0.41466008  1
  Na  Na14  1  0.70729116  0.67349129  0.41448165  1
  Na  Na15  1  0.00833475  0.00930625  0.49986298  1
  Na  Na16  1  0.99992696  0.99947102  0.00060077  1
  Na  Na17  1  0.67549985  0.34332237  0.83397164  1
  Na  Na18  1  0.66679546  0.33336837  0.33001362  1
  Na  Na19  1  0.32291618  0.65556549  0.16370587  1
  Na  Na20  1  0.33212721  0.65574057  0.66457843  1
  Al  Al0  1  0.99953503  0.99518020  0.85372321  1
  Al  Al1  1  0.00557734  0.00577218  0.64738897  1
  Al  Al2  1  0.00097596  0.00641606  0.14760074  1
  Al  Al3  1  0.67385474  0.33960257  0.98262937  1
  Al  Al4  1  0.66474830  0.33249181  0.48323976  1
  Al  Al5  1  0.32848824  0.66302556  0.01652645  1
  Al  Al6  1  0.33269375  0.66266344  0.51861347  1
  Al  Al7  1  0.33325941  0.66583513  0.31459445  1
  Al  Al8  1  0.33073381  0.66478852  0.81608544  1
  Zn  Zn0  1  0.00034537  0.00086689  0.34894040  1
  Zn  Zn1  1  0.66537088  0.33404276  0.68005702  1
  Zn  Zn2  1  0.66954649  0.33456728  0.17745728  1
  P  P0  1  0.29109198  0.99561010  0.25064416  1
  P  P1  1  0.70445163  0.70901777  0.25072046  1
  P  P2  1  0.00411118  0.29458248  0.25122786  1
  P  P3  1  0.28168227  0.28744007  0.75249306  1
  P  P4  1  0.00591254  0.71801637  0.75139507  1
  P  P5  1  0.71224772  0.99417852  0.75193234  1
  P  P6  1  0.96606588  0.33439047  0.58254850  1
  P  P7  1  0.36977750  0.03862352  0.58225149  1
  P  P8  1  0.66257014  0.62727472  0.58279906  1
  P  P9  1  0.96501471  0.62751139  0.08240460  1
  P  P10  1  0.66816526  0.03766775  0.08116884  1
  P  P11  1  0.36823725  0.33500540  0.08136228  1
  P  P12  1  0.62491116  0.66618423  0.91643643  1
  P  P13  1  0.04263076  0.38042480  0.91592820  1
  P  P14  1  0.33007147  0.95388164  0.91649116  1
  P  P15  1  0.61586457  0.95581210  0.41870702  1
  P  P16  1  0.34006068  0.38445338  0.41829276  1
  P  P17  1  0.04421431  0.66016007  0.41870269  1
  O  O0  1  0.21902860  0.03223312  0.31040652  1
  O  O1  1  0.81379122  0.78157522  0.31039516  1
  O  O2  1  0.96656037  0.18830159  0.31166374  1
  O  O3  1  0.19621789  0.17301885  0.81084112  1
  O  O4  1  0.97561124  0.80946508  0.80692476  1
  O  O5  1  0.82959224  0.02365859  0.80945099  1
  O  O6  1  0.79564745  0.96361960  0.69257618  1
  O  O7  1  0.16313011  0.20082117  0.69495723  1
  O  O8  1  0.03678312  0.82982226  0.69134537  1
  O  O9  1  0.79508626  0.83031552  0.19338041  1
  O  O10  1  0.03692067  0.20094111  0.19580425  1
  O  O11  1  0.16970599  0.96474818  0.19321350  1
  O  O12  1  0.89602777  0.37770967  0.64188241  1
  O  O13  1  0.48311690  0.10557020  0.64157487  1
  O  O14  1  0.62914038  0.52322735  0.64322978  1
  O  O15  1  0.89875184  0.52718433  0.14362892  1
  O  O16  1  0.62223264  0.10401503  0.14047084  1
  O  O17  1  0.48051967  0.37821870  0.14081815  1
  O  O18  1  0.46001512  0.29857963  0.02525591  1
  O  O19  1  0.83265929  0.53435597  0.02843368  1
  O  O20  1  0.69526338  0.15774810  0.02433623  1
  O  O21  1  0.46230908  0.15849110  0.52533073  1
  O  O22  1  0.70008875  0.53724600  0.52664457  1
  O  O23  1  0.83808148  0.29815820  0.52627682  1
  O  O24  1  0.53885226  0.70130049  0.97330385  1
  O  O25  1  0.16855811  0.46759540  0.97080258  1
  O  O26  1  0.30520700  0.84099152  0.97415602  1
  O  O27  1  0.52632974  0.83925322  0.47548458  1
  O  O28  1  0.31012648  0.47645167  0.47309033  1
  O  O29  1  0.16160750  0.68902138  0.47550484  1
  O  O30  1  0.12804031  0.62937055  0.35950843  1
  O  O31  1  0.50119491  0.87155334  0.35947962  1
  O  O32  1  0.37166427  0.49664151  0.35824104  1
  O  O33  1  0.12517053  0.49076172  0.85623136  1
  O  O34  1  0.36679870  0.86993327  0.85855389  1
  O  O35  1  0.50393611  0.63041008  0.85836308  1
  O  O36  1  0.02155480  0.82387299  0.41618726  1
  O  O37  1  0.80199438  0.97805460  0.41638576  1
  O  O38  1  0.17687097  0.19772081  0.41564454  1
  O  O39  1  0.02093492  0.19026693  0.91040725  1
  O  O40  1  0.16750679  0.98026869  0.91010259  1
  O  O41  1  0.80889768  0.83533774  0.90942612  1
  O  O42  1  0.97539711  0.16192905  0.58933677  1
  O  O43  1  0.18290332  0.01700289  0.58878291  1
  O  O44  1  0.83437422  0.81493135  0.58781440  1
  O  O45  1  0.98146486  0.81571325  0.08803006  1
  O  O46  1  0.83345098  0.01579665  0.08844373  1
  O  O47  1  0.18633280  0.16247356  0.08876089  1
  O  O48  1  0.68981123  0.15824801  0.74867547  1
  O  O49  1  0.46803471  0.30973427  0.74888552  1
  O  O50  1  0.84236465  0.53114439  0.74823377  1
  O  O51  1  0.67773299  0.52180930  0.24451471  1
  O  O52  1  0.84336018  0.32042485  0.24434138  1
  O  O53  1  0.47792641  0.15634557  0.24412433  1
  O  O54  1  0.63937865  0.49687477  0.92427267  1
  O  O55  1  0.85413297  0.35424418  0.92399271  1
  O  O56  1  0.49906781  0.14294280  0.92256700  1
  O  O57  1  0.63405965  0.14352743  0.42419276  1
  O  O58  1  0.50957829  0.36634890  0.42451421  1
  O  O59  1  0.85671521  0.49062923  0.42461877  1
  O  O60  1  0.35105661  0.50103914  0.07082709  1
  O  O61  1  0.15315977  0.65639418  0.07198659  1
  O  O62  1  0.50256198  0.84827978  0.07209138  1
  O  O63  1  0.34557734  0.84919578  0.57370259  1
  O  O64  1  0.50397128  0.65736884  0.57353037  1
  O  O65  1  0.14957909  0.49973052  0.57281960  1
  O  O66  1  0.30390337  0.82298864  0.25593503  1
  O  O67  1  0.51917040  0.69651879  0.25584755  1
  O  O68  1  0.17642777  0.48050463  0.25633784  1
  O  O69  1  0.30132307  0.47591950  0.75767062  1
  O  O70  1  0.17548813  0.70005605  0.75736052  1
  O  O71  1  0.52460368  0.82481013  0.75766157  1
loop_
_geom_bond_atom_site_label_1
_geom_bond_atom_site_label_2
_geom_bond_distance
_geom_bond_site_symmetry_2
Na0 O53 2.340963 1_555
Na0 O67 2.379278 1_545
Na0 O52 2.402773 1_555
Na0 O16 2.475513 1_555
Na0 O66 2.541871 1_545
Na0 O31 2.696654 1_545
Na0 O9 2.776790 1_545
Na0 O2 2.843033 1_555
Na1 O51 2.340309 1_555
Na1 O68 2.385637 1_555
Na1 O53 2.409920 1_555
Na1 O17 2.465454 1_555
Na1 O67 2.548311 1_555
Na1 O32 2.658645 1_555
Na1 O10 2.738369 1_555
Na1 O0 2.835824 1_555
Na2 O52 2.346585 1_555
Na2 O15 2.380725 1_555
Na2 O66 2.385463 1_655
Na2 O51 2.415045 1_555
Na2 O68 2.541681 1_655
Na2 O30 2.701079 1_655
Na2 O11 2.778891 1_655
Na2 O1 2.841617 1_555
Na3 O50 2.354136 1_555
Na3 O71 2.363630 1_555
Na3 O49 2.392247 1_555
Na3 O14 2.420498 1_555
Na3 O69 2.520814 1_555
Na3 O35 2.635985 1_555
Na3 O6 2.818684 1_555
Na3 O4 2.882672 1_555
Na4 O48 2.351208 1_555
Na4 O69 2.366414 1_655
Na4 O50 2.384365 1_555
Na4 O12 2.463775 1_555
Na4 O70 2.525477 1_655
Na4 O33 2.570713 1_655
Na4 O7 2.786500 1_655
Na4 O5 2.912853 1_555
Na5 O49 2.346667 1_555
Na5 O70 2.357244 1_545
Na5 O48 2.389157 1_555
Na5 O13 2.471147 1_555
Na5 O71 2.524247 1_545
Na5 O34 2.644547 1_545
Na5 O8 2.826253 1_545
Na5 O3 2.930442 1_555
Na6 O44 2.392531 1_455
Na6 O63 2.417264 1_555
Na6 O65 2.428414 1_555
Na6 O43 2.440538 1_565
Na6 O8 2.571614 1_555
Na6 O29 2.627138 1_555
Na6 O12 2.708485 1_455
Na6 O22 2.765498 1_455
Na7 O42 2.375639 1_565
Na7 O64 2.381767 1_555
Na7 O63 2.439926 1_555
Na7 O44 2.470719 1_555
Na7 O27 2.609715 1_555
Na7 O6 2.621278 1_555
Na7 O13 2.695885 1_565
Na7 O23 2.767718 1_565
Na8 O47 2.383909 1_565
Na8 O61 2.391697 1_555
Na8 O62 2.437832 1_555
Na8 O45 2.466944 1_455
Na8 O26 2.612886 1_554
Na8 O11 2.631400 1_555
Na8 O16 2.681229 1_565
Na8 O18 2.781126 1_565
Na9 O45 2.398116 1_555
Na9 O60 2.423825 1_555
Na9 O62 2.428709 1_555
Na9 O46 2.438594 1_565
Na9 O9 2.619472 1_555
Na9 O24 2.648029 1_554
Na9 O17 2.690838 1_555
Na9 O19 2.730160 1_555
Na10 O56 2.368451 1_555
Na10 O41 2.371661 1_545
Na10 O55 2.429471 1_555
Na10 O39 2.447534 1_655
Na10 O20 2.529432 1_556
Na10 O5 2.629845 1_555
Na10 O24 2.775380 1_545
Na10 O34 2.814353 1_545
Na11 O54 2.359406 1_555
Na11 O39 2.386969 1_555
Na11 O40 2.426930 1_545
Na11 O56 2.460543 1_555
Na11 O18 2.569586 1_556
Na11 O3 2.573578 1_555
Na11 O25 2.740992 1_555
Na11 O35 2.806058 1_555
Na12 O38 2.364333 1_655
Na12 O59 2.364591 1_555
Na12 O37 2.383793 1_545
Na12 O2 2.394541 1_555
Na12 O57 2.528862 1_555
Na12 O23 2.662972 1_555
Na12 O30 2.805302 1_655
Na12 O28 2.884591 1_655
Na13 O36 2.361517 1_545
Na13 O57 2.363898 1_555
Na13 O38 2.371409 1_555
Na13 O0 2.428877 1_555
Na13 O58 2.524052 1_555
Na13 O21 2.636922 1_555
Na13 O31 2.810085 1_545
Na13 O29 2.920773 1_545
Na14 O37 2.356173 1_555
Na14 O58 2.363296 1_555
Na14 O36 2.376904 1_655
Na14 O1 2.429255 1_555
Na14 O59 2.525872 1_555
Na14 O22 2.678898 1_555
Na14 O32 2.810581 1_555
Na14 O27 2.931542 1_555
Na15 O38 2.396755 1_555
Na15 O43 2.425319 1_555
Na15 O42 2.436843 1_455
Na15 O37 2.459593 1_445
Na15 O36 2.459899 1_545
Na15 O44 2.490257 1_445
Na16 O45 2.426536 1_555
Na16 O46 2.431856 1_565
Na16 O47 2.437751 1_665
Na16 O40 2.491397 1_654
Na16 O39 2.505523 1_664
Na16 O41 2.505921 1_554
Na17 O50 2.415776 1_555
Na17 O55 2.457806 1_555
Na17 O54 2.466781 1_555
Na17 O49 2.486425 1_555
Na17 O48 2.486947 1_555
Na17 O56 2.526590 1_555
Na18 O51 2.439434 1_555
Na18 O53 2.441375 1_555
Na18 O52 2.441958 1_555
Na18 O57 2.543744 1_555
Na18 O59 2.547066 1_555
Na18 O58 2.548935 1_555
Na19 O68 2.449481 1_555
Na19 O61 2.469635 1_555
Na19 O60 2.489101 1_555
Na19 O66 2.516696 1_555
Na19 O67 2.525048 1_555
Na19 O62 2.559144 1_555
Na20 O64 2.463810 1_555
Na20 O65 2.471674 1_555
Na20 O69 2.477027 1_555
Na20 O63 2.549532 1_555
Na20 O71 2.553219 1_555
Na20 O70 2.556206 1_555
Al0 O4 1.827639 1_555
Al0 O5 1.881212 1_565
Al0 O3 1.883890 1_665
Al0 O40 1.956757 1_655
Al0 O41 1.958937 1_555
Al0 O39 2.023833 1_665
Al1 O7 1.867604 1_555
Al1 O8 1.936418 1_545
Al1 O6 1.941220 1_445
Al1 O43 1.961381 1_555
Al1 O42 1.962487 1_455
Al1 O44 2.037658 1_445
Al2 O10 1.875429 1_555
Al2 O11 1.949683 1_545
Al2 O9 1.951042 1_445
Al2 O47 1.969617 1_555
Al2 O46 1.970892 1_455
Al2 O45 2.037394 1_445
Al3 O19 1.848874 1_556
Al3 O20 1.913208 1_556
Al3 O18 1.946553 1_556
Al3 O55 1.971454 1_555
Al3 O54 1.992398 1_555
Al3 O56 2.077342 1_555
Al4 O21 1.889769 1_555
Al4 O22 1.898229 1_555
Al4 O23 1.921101 1_555
Al4 O58 1.979710 1_555
Al4 O57 1.989049 1_555
Al4 O59 1.999610 1_555
Al5 O25 1.854026 1_554
Al5 O26 1.898687 1_554
Al5 O61 1.919328 1_555
Al5 O60 1.919958 1_555
Al5 O24 1.933557 1_554
Al5 O62 1.971542 1_555
Al6 O28 1.820307 1_555
Al6 O29 1.867496 1_555
Al6 O27 1.869282 1_555
Al6 O65 1.916060 1_555
Al6 O64 1.924088 1_555
Al6 O63 1.969284 1_555
Al7 O31 1.914544 1_555
Al7 O32 1.916831 1_555
Al7 O30 1.917733 1_555
Al7 O68 1.959179 1_555
Al7 O67 1.967808 1_555
Al7 O66 1.974013 1_555
Al8 O33 1.884922 1_555
Al8 O34 1.889421 1_555
Al8 O35 1.912504 1_555
Al8 O69 1.982941 1_555
Al8 O70 1.986296 1_555
Al8 O71 2.009644 1_555
O0 P0 1.533616 1_545
O0 Zn0 1.971577 1_555
O1 P1 1.533718 1_555
O1 Zn0 1.969442 1_665
O2 P2 1.535855 1_655
O2 Zn0 1.973043 1_655
O3 P3 1.545845 1_555
O4 P4 1.530625 1_655
O5 P5 1.543198 1_545
O6 P5 1.557669 1_555
O7 P3 1.545406 1_555
O8 P4 1.560598 1_555
O9 P1 1.560809 1_555
O10 P2 1.550247 1_555
O11 P0 1.560360 1_555
O12 P6 1.541759 1_555
O12 Zn1 2.027372 1_555
O13 P7 1.538749 1_555
O13 Zn1 2.003205 1_555
O14 P8 1.529520 1_555
O14 Zn1 1.995113 1_555
O15 P9 1.527872 1_555
O15 Zn2 2.000124 1_555
O16 P10 1.534425 1_555
O16 Zn2 2.003866 1_555
O17 P11 1.538541 1_555
O17 Zn2 2.029525 1_555
O18 P11 1.566808 1_555
O19 P9 1.549388 1_555
O20 P10 1.551108 1_555
O21 P7 1.551335 1_555
O22 P8 1.561774 1_555
O23 P6 1.567952 1_555
O24 P12 1.544520 1_555
O25 P13 1.529918 1_555
O26 P14 1.532147 1_555
O27 P15 1.532232 1_555
O28 P16 1.519909 1_555
O29 P17 1.532038 1_555
O30 P17 1.557697 1_555
O31 P15 1.557639 1_555
O32 P16 1.561552 1_555
O33 P13 1.551485 1_555
O34 P14 1.557535 1_555
O35 P12 1.562658 1_555
O36 P17 1.538337 1_555
O36 Zn0 2.192488 1_565
O37 P15 1.538042 1_555
O37 Zn0 2.191555 1_665
O38 P16 1.538179 1_555
O38 Zn0 2.174346 1_555
O39 P13 1.577668 1_555
O40 P14 1.553480 1_555
O41 P12 1.552813 1_555
O42 P6 1.554592 1_555
O43 P7 1.552323 1_555
O44 P8 1.576596 1_555
O45 P9 1.580012 1_555
O46 P10 1.555266 1_555
O47 P11 1.556836 1_555
O48 P5 1.540940 1_545
O48 Zn1 2.216687 1_555
O49 P3 1.540957 1_555
O49 Zn1 2.200979 1_555
O50 P4 1.540569 1_655
O50 Zn1 2.197538 1_555
O51 P1 1.536113 1_555
O51 Zn2 2.152315 1_555
O52 P2 1.535957 1_655
O52 Zn2 2.138915 1_555
O53 P0 1.536297 1_545
O53 Zn2 2.163846 1_555
O54 P12 1.554107 1_555
O55 P13 1.554036 1_655
O56 P14 1.574919 1_545
O57 P15 1.569094 1_545
O58 P16 1.570728 1_555
O59 P17 1.569412 1_655
O60 P11 1.546627 1_555
O61 P9 1.548695 1_455
O62 P10 1.571191 1_565
O63 P7 1.568786 1_565
O64 P8 1.545918 1_555
O65 P6 1.543267 1_455
O66 P0 1.569780 1_555
O67 P1 1.569899 1_555
O68 P2 1.570233 1_555
O69 P3 1.569969 1_555
O70 P4 1.570053 1_555
O71 P5 1.569211 1_555
