# generated using pymatgen
data_Zr9S2
_symmetry_space_group_name_H-M   'P 1'
_cell_length_a   11.91430121
_cell_length_b   11.91430121
_cell_length_c   11.91430121
_cell_angle_alpha   131.47200326
_cell_angle_beta   131.47200326
_cell_angle_gamma   71.06422965
_symmetry_Int_Tables_number   1
_chemical_formula_structural   Zr9S2
_chemical_formula_sum   'Zr36 S8'
_cell_volume   929.69014713
_cell_formula_units_Z   4
loop_
 _symmetry_equiv_pos_site_id
 _symmetry_equiv_pos_as_xyz
  1  'x, y, z'
loop_
 _atom_site_type_symbol
 _atom_site_label
 _atom_site_symmetry_multiplicity
 _atom_site_fract_x
 _atom_site_fract_y
 _atom_site_fract_z
 _atom_site_occupancy
  Zr  Zr0  1  0.57467200  0.42627200  0.14840000  1
  Zr  Zr1  1  0.17627200  0.52787300  0.35160000  1
  Zr  Zr2  1  0.17627200  0.82467200  0.64840000  1
  Zr  Zr3  1  0.17532800  0.82372800  0.35160000  1
  Zr  Zr4  1  0.47212700  0.82372800  0.64840000  1
  Zr  Zr5  1  0.57372800  0.72212700  0.14840000  1
  Zr  Zr6  1  0.57372800  0.42532800  0.85160000  1
  Zr  Zr7  1  0.27787300  0.42627200  0.85160000  1
  Zr  Zr8  1  0.52144800  0.69356600  0.82788200  1
  Zr  Zr9  1  0.44356600  0.11568500  0.67211800  1
  Zr  Zr10  1  0.44356600  0.77144800  0.32788200  1
  Zr  Zr11  1  0.22855200  0.55643400  0.67211800  1
  Zr  Zr12  1  0.88431500  0.55643400  0.32788200  1
  Zr  Zr13  1  0.30643400  0.13431500  0.82788200  1
  Zr  Zr14  1  0.30643400  0.47855200  0.17211800  1
  Zr  Zr15  1  0.86568500  0.69356600  0.17211800  1
  Zr  Zr16  1  0.98792800  0.26765000  0.72027800  1
  Zr  Zr17  1  0.01765000  0.79737200  0.77972200  1
  Zr  Zr18  1  0.01765000  0.23792800  0.22027800  1
  Zr  Zr19  1  0.76207200  0.98235000  0.77972200  1
  Zr  Zr20  1  0.20262800  0.98235000  0.22027800  1
  Zr  Zr21  1  0.73235000  0.45262800  0.72027800  1
  Zr  Zr22  1  0.73235000  0.01207200  0.27972200  1
  Zr  Zr23  1  0.54737200  0.26765000  0.27972200  1
  Zr  Zr24  1  0.13499400  0.13499400  0.00000000  1
  Zr  Zr25  1  0.88499400  0.38499400  0.50000000  1
  Zr  Zr26  1  0.61500600  0.11500600  0.50000000  1
  Zr  Zr27  1  0.86500600  0.86500600  0.00000000  1
  Zr  Zr28  1  0.37500000  0.30412800  0.42912800  1
  Zr  Zr29  1  0.05412800  0.12500000  0.42912800  1
  Zr  Zr30  1  0.69587200  0.62500000  0.57087200  1
  Zr  Zr31  1  0.87500000  0.94587200  0.57087200  1
  Zr  Zr32  1  0.37500000  0.94587200  0.07087200  1
  Zr  Zr33  1  0.69587200  0.12500000  0.07087200  1
  Zr  Zr34  1  0.05412800  0.62500000  0.92912800  1
  Zr  Zr35  1  0.87500000  0.30412800  0.92912800  1
  S  S0  1  0.02211700  0.52211700  0.04423500  1
  S  S1  1  0.27211700  0.72788300  0.00000000  1
  S  S2  1  0.72788300  0.27211700  0.00000000  1
  S  S3  1  0.47788300  0.97788300  0.95576500  1
  S  S4  1  0.72788300  0.72788300  0.45576500  1
  S  S5  1  0.47788300  0.52211700  0.50000000  1
  S  S6  1  0.02211700  0.97788300  0.50000000  1
  S  S7  1  0.27211700  0.27211700  0.54423500  1
loop_
_geom_bond_atom_site_label_1
_geom_bond_atom_site_label_2
_geom_bond_distance
_geom_bond_site_symmetry_2
Zr16 Zr25 3.135350 1_555
Zr17 Zr24 3.135350 1_566
Zr18 Zr24 3.135350 1_555
Zr19 Zr27 3.135350 1_556
Zr20 Zr27 3.135350 1_455
Zr21 Zr26 3.135350 1_555
Zr22 Zr26 3.135350 1_555
Zr23 Zr25 3.135350 1_555
Zr24 Zr35 3.017807 1_454
Zr24 Zr28 3.017807 1_555
Zr24 Zr31 3.017807 1_444
Zr24 Zr32 3.017807 1_545
Zr25 Zr30 3.017807 1_555
Zr25 Zr34 3.017807 1_655
Zr25 Zr29 3.017807 1_655
Zr25 Zr33 3.017807 1_555
Zr26 Zr31 3.017807 1_545
Zr26 Zr35 3.017807 1_555
Zr26 Zr32 3.017807 1_545
Zr26 Zr28 3.017807 1_555
Zr27 Zr33 3.017807 1_565
Zr27 Zr30 3.017807 1_554
Zr27 Zr34 3.017807 1_654
Zr27 Zr29 3.017807 1_665
S0 Zr35 2.598356 1_454
S0 Zr34 2.598374 1_554
S0 Zr15 2.671289 1_455
S0 Zr14 2.671307 1_555
S0 Zr21 2.734046 1_454
S0 Zr16 2.734049 1_454
S0 Zr1 2.762090 1_555
S0 Zr3 2.762108 1_555
S1 Zr34 2.598363 1_554
S1 Zr32 2.598363 1_555
S1 Zr10 2.671305 1_555
S1 Zr11 2.671305 1_554
S1 Zr20 2.734042 1_555
S1 Zr17 2.734042 1_554
S1 Zr7 2.762109 1_554
S1 Zr5 2.762109 1_555
S2 Zr33 2.598363 1_555
S2 Zr35 2.598363 1_554
S2 Zr12 2.671303 1_555
S2 Zr9 2.671303 1_554
S2 Zr18 2.734042 1_655
S2 Zr19 2.734042 1_544
S2 Zr6 2.762108 1_554
S2 Zr0 2.762108 1_555
S3 Zr33 2.598356 1_566
S3 Zr32 2.598374 1_556
S3 Zr13 2.671289 1_565
S3 Zr8 2.671307 1_555
S3 Zr23 2.734046 1_566
S3 Zr22 2.734049 1_566
S3 Zr4 2.762090 1_555
S3 Zr2 2.762108 1_555
S4 Zr31 2.598356 1_555
S4 Zr30 2.598374 1_555
S4 Zr12 2.671289 1_555
S4 Zr10 2.671307 1_555
S4 Zr17 2.734046 1_655
S4 Zr19 2.734049 1_555
S4 Zr5 2.762090 1_555
S4 Zr0 2.762108 1_555
S5 Zr30 2.598363 1_555
S5 Zr28 2.598363 1_555
S5 Zr14 2.671305 1_555
S5 Zr8 2.671305 1_555
S5 Zr23 2.734042 1_555
S5 Zr21 2.734042 1_555
S5 Zr1 2.762109 1_555
S5 Zr4 2.762109 1_555
S6 Zr31 2.598363 1_455
S6 Zr29 2.598363 1_565
S6 Zr15 2.671303 1_455
S6 Zr13 2.671303 1_565
S6 Zr16 2.734042 1_465
S6 Zr22 2.734042 1_465
S6 Zr2 2.762108 1_555
S6 Zr3 2.762108 1_555
S7 Zr29 2.598356 1_555
S7 Zr28 2.598374 1_555
S7 Zr9 2.671289 1_555
S7 Zr11 2.671307 1_555
S7 Zr20 2.734046 1_545
S7 Zr18 2.734049 1_555
S7 Zr7 2.762090 1_555
S7 Zr6 2.762108 1_555
