# generated using pymatgen
data_Na10Hf4Al4Si7S5O48
_symmetry_space_group_name_H-M   'P 1'
_cell_length_a   17.79822624
_cell_length_b   8.88613961
_cell_length_c   22.29930924
_cell_angle_alpha   89.70669753
_cell_angle_beta   91.09601992
_cell_angle_gamma   119.80143650
_symmetry_Int_Tables_number   1
_chemical_formula_structural   Na10Hf4Al4Si7S5O48
_chemical_formula_sum   'Na30 Hf12 Al12 Si21 S15 O144'
_cell_volume   3059.79526363
_cell_formula_units_Z   3
loop_
 _symmetry_equiv_pos_site_id
 _symmetry_equiv_pos_as_xyz
  1  'x, y, z'
loop_
 _atom_site_type_symbol
 _atom_site_label
 _atom_site_symmetry_multiplicity
 _atom_site_fract_x
 _atom_site_fract_y
 _atom_site_fract_z
 _atom_site_occupancy
  Na  Na0  1  0.18276635  0.37237825  0.23928275  1
  Na  Na1  1  0.68275899  0.37319401  0.23987874  1
  Na  Na2  1  0.99477137  0.63092791  0.25518319  1
  Na  Na3  1  0.49497380  0.63032082  0.25500865  1
  Na  Na4  1  0.49443462  0.35530032  0.75962978  1
  Na  Na5  1  0.18233995  0.99218641  0.74473500  1
  Na  Na6  1  0.68445688  0.99628576  0.74276026  1
  Na  Na7  1  0.65690959  0.33451023  0.57862188  1
  Na  Na8  1  0.01763026  0.70451406  0.57764254  1
  Na  Na9  1  0.82799538  0.96086473  0.59172712  1
  Na  Na10  1  0.48835917  0.66192330  0.90989860  1
  Na  Na11  1  0.99018717  0.66439036  0.90890921  1
  Na  Na12  1  0.85057397  0.03852433  0.90347698  1
  Na  Na13  1  0.15961850  0.29309543  0.92336092  1
  Na  Na14  1  0.49042942  0.31747696  0.40962989  1
  Na  Na15  1  0.98755840  0.31290585  0.40929924  1
  Na  Na16  1  0.35359361  0.66431573  0.40342861  1
  Na  Na17  1  0.85242866  0.66569990  0.40827655  1
  Na  Na18  1  0.02406809  0.00967013  0.49552863  1
  Na  Na19  1  0.51879537  0.99250975  0.49379938  1
  Na  Na20  1  0.01474531  0.02285416  0.99789035  1
  Na  Na21  1  0.51982743  0.04782345  0.99334871  1
  Na  Na22  1  0.33884083  0.31930360  0.83149758  1
  Na  Na23  1  0.84445210  0.34035331  0.82450669  1
  Na  Na24  1  0.33377805  0.32935233  0.32721474  1
  Na  Na25  1  0.83272684  0.32881275  0.32872865  1
  Na  Na26  1  0.17761323  0.66650805  0.15856335  1
  Na  Na27  1  0.67779390  0.66806110  0.15921878  1
  Na  Na28  1  0.17804228  0.67819672  0.66475511  1
  Na  Na29  1  0.67303140  0.68586756  0.66377014  1
  Hf  Hf0  1  0.99980058  0.99225629  0.64747700  1
  Hf  Hf1  1  0.49483304  0.98276425  0.64657304  1
  Hf  Hf2  1  0.00033709  0.01288010  0.14443629  1
  Hf  Hf3  1  0.49967753  0.01185474  0.14436456  1
  Hf  Hf4  1  0.33091418  0.32040300  0.97898859  1
  Hf  Hf5  1  0.82532209  0.32296751  0.97999361  1
  Hf  Hf6  1  0.32717583  0.33013394  0.47994778  1
  Hf  Hf7  1  0.82912315  0.33986061  0.47987849  1
  Hf  Hf8  1  0.16498084  0.65761278  0.31200318  1
  Hf  Hf9  1  0.66422833  0.65697275  0.31277149  1
  Hf  Hf10  1  0.16190217  0.67050407  0.81212978  1
  Hf  Hf11  1  0.66563594  0.67297124  0.81275975  1
  Al  Al0  1  0.00038569  0.00281021  0.35319206  1
  Al  Al1  1  0.50280782  0.00219556  0.35212369  1
  Al  Al2  1  0.99728559  0.99342055  0.85126101  1
  Al  Al3  1  0.49655815  0.99497006  0.85459219  1
  Al  Al4  1  0.33293540  0.31535414  0.69079261  1
  Al  Al5  1  0.83135424  0.33250823  0.68782719  1
  Al  Al6  1  0.33734274  0.35658761  0.18637183  1
  Al  Al7  1  0.83677766  0.35751162  0.18673833  1
  Al  Al8  1  0.15919598  0.64140135  0.01540965  1
  Al  Al9  1  0.65356133  0.63634265  0.01657443  1
  Al  Al10  1  0.16100861  0.67414215  0.51584985  1
  Al  Al11  1  0.66116571  0.66431468  0.52128008  1
  Si  Si0  1  0.35780500  0.71540560  0.25104103  1
  Si  Si1  1  0.85778994  0.71606147  0.25099190  1
  Si  Si2  1  0.98927707  0.27935774  0.25232283  1
  Si  Si3  1  0.48935483  0.27898696  0.25251855  1
  Si  Si4  1  0.98940332  0.69560659  0.75245291  1
  Si  Si5  1  0.48926115  0.69713056  0.75341094  1
  Si  Si6  1  0.35690538  0.99864301  0.75140048  1
  Si  Si7  1  0.85736951  0.01051127  0.75068549  1
  Si  Si8  1  0.19227436  0.03263470  0.58720465  1
  Si  Si9  1  0.68765410  0.03498920  0.58591860  1
  Si  Si10  1  0.82757493  0.61817349  0.58451021  1
  Si  Si11  1  0.19205438  0.35080244  0.08393549  1
  Si  Si12  1  0.69020334  0.35179415  0.08616518  1
  Si  Si13  1  0.02131053  0.36423185  0.91698641  1
  Si  Si14  1  0.52170965  0.35957129  0.91542109  1
  Si  Si15  1  0.16109321  0.94582667  0.91926535  1
  Si  Si16  1  0.65900713  0.94395479  0.92091591  1
  Si  Si17  1  0.16026023  0.37393698  0.41974257  1
  Si  Si18  1  0.65933157  0.36566706  0.41978384  1
  Si  Si19  1  0.02288768  0.68220578  0.41695153  1
  Si  Si20  1  0.52561956  0.68125634  0.41809084  1
  S  S0  1  0.14612789  0.00900354  0.25155497  1
  S  S1  1  0.64634949  0.00865473  0.25135109  1
  S  S2  1  0.14886844  0.28990207  0.75224015  1
  S  S3  1  0.64547030  0.28357960  0.75065661  1
  S  S4  1  0.48027467  0.34057322  0.58608791  1
  S  S5  1  0.98289723  0.34217667  0.58347539  1
  S  S6  1  0.32672071  0.61559289  0.58401936  1
  S  S7  1  0.48210994  0.62270783  0.08526083  1
  S  S8  1  0.98234741  0.62263583  0.08476461  1
  S  S9  1  0.32653509  0.03834782  0.08632386  1
  S  S10  1  0.82780298  0.04160622  0.08538461  1
  S  S11  1  0.31273600  0.67607946  0.91999788  1
  S  S12  1  0.81173095  0.67060819  0.92002044  1
  S  S13  1  0.31020360  0.95168793  0.42016705  1
  S  S14  1  0.81210123  0.95388718  0.41982697  1
  O  O0  1  0.10400553  0.03380061  0.30408108  1
  O  O1  1  0.60406187  0.03360366  0.30387870  1
  O  O2  1  0.41795678  0.80597824  0.31104907  1
  O  O3  1  0.91820525  0.80713638  0.31065879  1
  O  O4  1  0.48064258  0.16746130  0.31292502  1
  O  O5  1  0.98134824  0.16906255  0.31282243  1
  O  O6  1  0.10764717  0.18380568  0.80602464  1
  O  O7  1  0.60319183  0.17336916  0.80203739  1
  O  O8  1  0.48121797  0.79087747  0.81324118  1
  O  O9  1  0.98565484  0.79952641  0.81182995  1
  O  O10  1  0.42360239  0.03275311  0.80627906  1
  O  O11  1  0.91496327  0.02263981  0.81024437  1
  O  O12  1  0.40136490  0.98463880  0.68947590  1
  O  O13  1  0.90258093  0.99297417  0.68968450  1
  O  O14  1  0.09562308  0.21145955  0.69743752  1
  O  O15  1  0.59308636  0.21157977  0.69375536  1
  O  O16  1  0.01277335  0.82388296  0.69384245  1
  O  O17  1  0.51568164  0.83113110  0.69626372  1
  O  O18  1  0.40720939  0.82590462  0.19250277  1
  O  O19  1  0.90701391  0.82705090  0.19214256  1
  O  O20  1  0.01836647  0.20171916  0.19655961  1
  O  O21  1  0.51761774  0.20018409  0.19679025  1
  O  O22  1  0.09315728  0.97639043  0.19609602  1
  O  O23  1  0.59322808  0.97591763  0.19602946  1
  O  O24  1  0.43556716  0.35192250  0.63922808  1
  O  O25  1  0.93783728  0.36191156  0.63429173  1
  O  O26  1  0.24889598  0.13552173  0.64709067  1
  O  O27  1  0.74759873  0.12702821  0.64592270  1
  O  O28  1  0.32200589  0.51131022  0.63592052  1
  O  O29  1  0.81412944  0.48251813  0.63736549  1
  O  O30  1  0.43845708  0.51969430  0.13967621  1
  O  O31  1  0.93783913  0.52055836  0.13913774  1
  O  O32  1  0.32346813  0.13534019  0.13843388  1
  O  O33  1  0.82514796  0.14168339  0.13662713  1
  O  O34  1  0.25029545  0.36201946  0.14428711  1
  O  O35  1  0.74796546  0.36411873  0.14688385  1
  O  O36  1  0.23776375  0.32498381  0.02447691  1
  O  O37  1  0.73913166  0.32546960  0.02909474  1
  O  O38  1  0.42992442  0.53778250  0.03045279  1
  O  O39  1  0.93071306  0.53836837  0.02967225  1
  O  O40  1  0.34027453  0.14125973  0.03022391  1
  O  O41  1  0.84123937  0.14047943  0.02821486  1
  O  O42  1  0.23976519  0.15261228  0.52876967  1
  O  O43  1  0.73716720  0.16454239  0.52924838  1
  O  O44  1  0.34033068  0.54227061  0.52743598  1
  O  O45  1  0.85195891  0.54988974  0.52279863  1
  O  O46  1  0.43080943  0.32267396  0.52988139  1
  O  O47  1  0.93195657  0.31377832  0.52631346  1
  O  O48  1  0.26959098  0.69198799  0.97304604  1
  O  O49  1  0.76822377  0.68821596  0.97214924  1
  O  O50  1  0.08585279  0.44994750  0.97462419  1
  O  O51  1  0.58039048  0.45573492  0.97415214  1
  O  O52  1  0.14918634  0.81252647  0.97381897  1
  O  O53  1  0.65033246  0.81393388  0.97561156  1
  O  O54  1  0.26472778  0.84782956  0.47261929  1
  O  O55  1  0.77091930  0.85218710  0.47377279  1
  O  O56  1  0.15129774  0.48641892  0.47384033  1
  O  O57  1  0.64767128  0.46287306  0.47805699  1
  O  O58  1  0.07761080  0.70021189  0.47849498  1
  O  O59  1  0.58645291  0.69596912  0.47477112  1
  O  O60  1  0.06821823  0.65166649  0.35839751  1
  O  O61  1  0.56324923  0.64470460  0.35621535  1
  O  O62  1  0.25966296  0.88022205  0.36421376  1
  O  O63  1  0.75889934  0.87633817  0.36515386  1
  O  O64  1  0.18256358  0.49136366  0.35814072  1
  O  O65  1  0.67924882  0.49097930  0.36056782  1
  O  O66  1  0.06552879  0.49068180  0.85983397  1
  O  O67  1  0.56386182  0.48241226  0.85566975  1
  O  O68  1  0.17876690  0.87400331  0.85675319  1
  O  O69  1  0.68223423  0.87115799  0.85960639  1
  O  O70  1  0.25800397  0.63860578  0.86527191  1
  O  O71  1  0.76094839  0.64049233  0.86389349  1
  O  O72  1  0.00745473  0.84701820  0.40884226  1
  O  O73  1  0.50855645  0.84426198  0.40898867  1
  O  O74  1  0.39533533  0.96154160  0.41769516  1
  O  O75  1  0.89796920  0.96573984  0.41502850  1
  O  O76  1  0.07376253  0.18548013  0.41018971  1
  O  O77  1  0.57268942  0.17840120  0.40869906  1
  O  O78  1  0.00870208  0.17008706  0.90718014  1
  O  O79  1  0.50975755  0.16936848  0.90628320  1
  O  O80  1  0.07420823  0.96741088  0.91128124  1
  O  O81  1  0.57235689  0.95860021  0.91050776  1
  O  O82  1  0.39880005  0.82884036  0.91471770  1
  O  O83  1  0.89796202  0.82967270  0.91576255  1
  O  O84  1  0.49295871  0.18655579  0.58807116  1
  O  O85  1  0.99347670  0.18691474  0.58815381  1
  O  O86  1  0.09411757  0.00993260  0.58902600  1
  O  O87  1  0.59345177  0.03028990  0.58769033  1
  O  O88  1  0.40586243  0.79341842  0.58650231  1
  O  O89  1  0.91191096  0.81616412  0.58958593  1
  O  O90  1  0.49127589  0.79749554  0.08846790  1
  O  O91  1  0.99148988  0.79823064  0.08760810  1
  O  O92  1  0.40496951  0.01682464  0.08889368  1
  O  O93  1  0.90676159  0.02046474  0.08815532  1
  O  O94  1  0.09508333  0.17373078  0.08784052  1
  O  O95  1  0.59377133  0.17525493  0.08888876  1
  O  O96  1  0.34476697  0.17226592  0.74570107  1
  O  O97  1  0.84056819  0.17559570  0.74406839  1
  O  O98  1  0.23438150  0.29978057  0.74655783  1
  O  O99  1  0.73151214  0.29970448  0.74506269  1
  O  O100  1  0.40714380  0.50421527  0.73875850  1
  O  O101  1  0.90445284  0.50969238  0.74061656  1
  O  O102  1  0.34506385  0.51697713  0.24481812  1
  O  O103  1  0.84583772  0.51821054  0.24492229  1
  O  O104  1  0.40703357  0.30901416  0.23863012  1
  O  O105  1  0.90681549  0.30847898  0.23835723  1
  O  O106  1  0.23229846  0.16432849  0.24608934  1
  O  O107  1  0.73243834  0.16380628  0.24621709  1
  O  O108  1  0.32572231  0.51992143  0.92483207  1
  O  O109  1  0.82927488  0.52213033  0.92423319  1
  O  O110  1  0.42751613  0.35917572  0.92154788  1
  O  O111  1  0.92597745  0.35179452  0.92382009  1
  O  O112  1  0.24301585  0.14739801  0.92360115  1
  O  O113  1  0.74660609  0.13752591  0.92534822  1
  O  O114  1  0.32735462  0.13480114  0.42395259  1
  O  O115  1  0.82803151  0.13494837  0.42313128  1
  O  O116  1  0.24796661  0.35545336  0.42404559  1
  O  O117  1  0.74747352  0.34960528  0.42085461  1
  O  O118  1  0.42786703  0.50036161  0.42401342  1
  O  O119  1  0.92739557  0.49772365  0.41875801  1
  O  O120  1  0.18352531  0.52547636  0.07546338  1
  O  O121  1  0.68158658  0.52534940  0.07591352  1
  O  O122  1  0.06818815  0.63677341  0.08184066  1
  O  O123  1  0.56809358  0.63711849  0.08201187  1
  O  O124  1  0.24857274  0.86929729  0.08054216  1
  O  O125  1  0.75023164  0.87153420  0.08114372  1
  O  O126  1  0.17894855  0.83607719  0.57745341  1
  O  O127  1  0.67937267  0.84543311  0.57606178  1
  O  O128  1  0.24913288  0.63327856  0.57782043  1
  O  O129  1  0.74096525  0.63732742  0.57500125  1
  O  O130  1  0.06909675  0.50034875  0.57911702  1
  O  O131  1  0.56747065  0.49661678  0.58379554  1
  O  O132  1  0.15522710  0.85236680  0.25735460  1
  O  O133  1  0.65531456  0.85206218  0.25752815  1
  O  O134  1  0.25950414  0.68904979  0.25360156  1
  O  O135  1  0.75912792  0.68812160  0.25414072  1
  O  O136  1  0.07591958  0.48029104  0.25630084  1
  O  O137  1  0.57623061  0.47947434  0.25618084  1
  O  O138  1  0.16208104  0.46650042  0.75670133  1
  O  O139  1  0.65453560  0.45860025  0.75557703  1
  O  O140  1  0.07896841  0.68042936  0.75428888  1
  O  O141  1  0.57701739  0.67325387  0.75543588  1
  O  O142  1  0.25970608  0.82949714  0.75487845  1
  O  O143  1  0.75914967  0.83344086  0.75365356  1
loop_
_geom_bond_atom_site_label_1
_geom_bond_atom_site_label_2
_geom_bond_distance
_geom_bond_site_symmetry_2
Na0 O106 2.414579 1_555
Na0 O134 2.461331 1_555
Na0 O34 2.479869 1_555
Na0 O102 2.511765 1_555
Na0 O136 2.554194 1_555
Na0 O20 2.695649 1_555
Na0 O64 2.859314 1_555
Na1 O35 2.416720 1_555
Na1 O107 2.427271 1_555
Na1 O135 2.447823 1_555
Na1 O103 2.523687 1_555
Na1 O137 2.535493 1_555
Na1 O21 2.709486 1_555
Na1 O65 2.905627 1_555
Na1 O1 2.989296 1_555
Na2 O103 2.328550 1_555
Na2 O136 2.407981 1_655
Na2 O105 2.516242 1_555
Na2 O132 2.537719 1_655
Na2 O60 2.586500 1_655
Na2 O31 2.760953 1_555
Na2 O3 2.836278 1_555
Na3 O102 2.343710 1_555
Na3 O137 2.411260 1_555
Na3 O104 2.506393 1_555
Na3 O61 2.515945 1_555
Na3 O133 2.536813 1_555
Na3 O30 2.745278 1_555
Na3 O2 2.844190 1_555
Na3 O23 2.987891 1_555
Na4 O96 2.346218 1_555
Na4 O67 2.434231 1_555
Na4 O141 2.454912 1_555
Na4 O139 2.525777 1_555
Na4 O100 2.528038 1_555
Na4 O10 2.704537 1_555
Na4 O24 2.858173 1_555
Na5 O98 2.411187 1_565
Na5 O142 2.449627 1_555
Na5 O140 2.459204 1_555
Na5 O96 2.513605 1_565
Na5 O26 2.517371 1_565
Na5 O68 2.694332 1_555
Na5 O16 2.834211 1_555
Na5 O6 2.979592 1_565
Na6 O99 2.393513 1_565
Na6 O143 2.411744 1_555
Na6 O97 2.420033 1_565
Na6 O27 2.458686 1_565
Na6 O141 2.555898 1_555
Na6 O17 2.786879 1_555
Na6 O69 2.820911 1_555
Na6 O7 2.944858 1_565
Na7 O129 2.342305 1_555
Na7 O87 2.364915 1_555
Na7 O84 2.548558 1_555
Na7 O57 2.550133 1_555
Na7 O131 2.628759 1_555
Na7 O29 2.737718 1_555
Na7 O43 2.784871 1_555
Na7 O15 2.815069 1_555
Na8 O86 2.367446 1_565
Na8 O130 2.404527 1_555
Na8 O58 2.482140 1_555
Na8 O126 2.504870 1_555
Na8 O89 2.544254 1_455
Na8 O45 2.816073 1_455
Na8 O16 2.823946 1_555
Na8 O25 2.934750 1_455
Na9 O127 2.332954 1_555
Na9 O89 2.408027 1_555
Na9 O13 2.476716 1_555
Na9 O129 2.523169 1_555
Na9 O85 2.615835 1_565
Na9 O55 2.798519 1_555
Na9 O27 2.805854 1_565
Na10 O81 2.295069 1_555
Na10 O110 2.363360 1_555
Na10 O8 2.466572 1_555
Na10 O108 2.546381 1_555
Na10 O82 2.666581 1_555
Na10 O67 2.832901 1_555
Na10 O53 2.875864 1_555
Na10 O38 2.908882 1_556
Na11 O80 2.342126 1_655
Na11 O111 2.445867 1_555
Na11 O9 2.489552 1_555
Na11 O109 2.520194 1_555
Na11 O83 2.698717 1_555
Na11 O66 2.740311 1_655
Na11 O52 2.827767 1_655
Na11 O39 2.919990 1_556
Na12 O83 2.402618 1_545
Na12 O11 2.431163 1_555
Na12 O78 2.452758 1_655
Na12 O111 2.456086 1_555
Na12 O113 2.468401 1_555
Na12 O69 2.760322 1_545
Na12 O41 2.962876 1_556
Na13 O78 2.363979 1_555
Na13 O112 2.406092 1_555
Na13 O80 2.525554 1_545
Na13 O36 2.567833 1_556
Na13 O50 2.620273 1_555
Na13 O108 2.622536 1_555
Na13 O6 2.772264 1_555
Na14 O77 2.339064 1_555
Na14 O118 2.408641 1_555
Na14 O4 2.498385 1_555
Na14 O114 2.551118 1_555
Na14 O74 2.754193 1_545
Na14 O61 2.798450 1_555
Na14 O57 2.844748 1_555
Na14 O46 2.911622 1_555
Na15 O76 2.315606 1_655
Na15 O119 2.376655 1_555
Na15 O5 2.480533 1_555
Na15 O115 2.494589 1_555
Na15 O75 2.681437 1_545
Na15 O47 2.809742 1_555
Na15 O60 2.853570 1_655
Na15 O56 2.887477 1_655
Na16 O74 2.382892 1_555
Na16 O2 2.402266 1_555
Na16 O73 2.405079 1_555
Na16 O118 2.442366 1_555
Na16 O116 2.483918 1_555
Na16 O64 2.809998 1_555
Na16 O44 2.935720 1_555
Na17 O75 2.374788 1_555
Na17 O72 2.406084 1_655
Na17 O119 2.455019 1_555
Na17 O117 2.500872 1_555
Na17 O3 2.509105 1_555
Na17 O45 2.747033 1_555
Na17 O65 2.859646 1_555
Na18 O72 2.344155 1_545
Na18 O76 2.346244 1_555
Na18 O86 2.408120 1_555
Na18 O75 2.719191 1_445
Na18 O85 2.823485 1_455
Na18 O89 2.837617 1_445
Na19 O73 2.262528 1_555
Na19 O77 2.390081 1_565
Na19 O87 2.391494 1_565
Na19 O74 2.654295 1_555
Na19 O88 2.833772 1_555
Na19 O84 2.909677 1_565
Na20 O80 2.387265 1_545
Na20 O94 2.424390 1_556
Na20 O78 2.432978 1_555
Na20 O83 2.638383 1_445
Na20 O91 2.706962 1_446
Na20 O93 2.802279 1_456
Na21 O79 2.264006 1_555
Na21 O81 2.394386 1_545
Na21 O95 2.447315 1_556
Na21 O82 2.687949 1_545
Na21 O92 2.897446 1_556
Na21 O90 2.928270 1_546
Na22 O96 2.355624 1_555
Na22 O110 2.445191 1_555
Na22 O100 2.555456 1_555
Na22 O98 2.573390 1_555
Na22 O112 2.640604 1_555
Na22 O108 2.834555 1_555
Na23 O97 2.299395 1_555
Na23 O101 2.313991 1_555
Na23 O99 2.541275 1_555
Na23 O111 2.598661 1_555
Na23 O109 2.849746 1_555
Na23 O113 2.885531 1_555
Na24 O102 2.417844 1_555
Na24 O106 2.440228 1_555
Na24 O104 2.443587 1_555
Na24 O118 2.671833 1_555
Na24 O114 2.725821 1_555
Na24 O116 2.744489 1_555
Na25 O103 2.444096 1_555
Na25 O107 2.453959 1_555
Na25 O105 2.484917 1_555
Na25 O119 2.551459 1_555
Na25 O117 2.637926 1_555
Na25 O115 2.689369 1_555
Na26 O120 2.275487 1_555
Na26 O124 2.378876 1_555
Na26 O122 2.481039 1_555
Na26 O134 2.500364 1_555
Na26 O136 2.810915 1_555
Na26 O132 2.909371 1_555
Na27 O121 2.275444 1_555
Na27 O125 2.387276 1_555
Na27 O123 2.488872 1_555
Na27 O135 2.497571 1_555
Na27 O137 2.802201 1_555
Na27 O133 2.891343 1_555
Na28 O126 2.389387 1_555
Na28 O142 2.435681 1_555
Na28 O128 2.474295 1_555
Na28 O130 2.597604 1_555
Na28 O140 2.695514 1_555
Na28 O138 2.697213 1_555
Na29 O127 2.381075 1_555
Na29 O143 2.449047 1_555
Na29 O129 2.486973 1_555
Na29 O131 2.510055 1_555
Na29 O141 2.655560 1_555
Na29 O139 2.775005 1_555
Hf0 O16 1.918148 1_655
Hf0 O13 1.988290 1_555
Hf0 O89 2.018017 1_555
Hf0 O86 2.088309 1_665
Hf0 O14 2.142772 1_665
Hf0 O85 2.217909 1_565
Hf1 O17 1.909726 1_555
Hf1 O12 1.942063 1_555
Hf1 O87 2.080619 1_565
Hf1 O88 2.103914 1_555
Hf1 O15 2.171753 1_565
Hf1 O84 2.239776 1_565
Hf2 O20 1.933976 1_555
Hf2 O19 1.985117 1_445
Hf2 O94 2.036307 1_555
Hf2 O93 2.093848 1_455
Hf2 O22 2.148775 1_545
Hf2 O91 2.233255 1_445
Hf3 O21 1.934921 1_555
Hf3 O18 1.984322 1_545
Hf3 O95 2.021654 1_555
Hf3 O92 2.089751 1_555
Hf3 O23 2.157082 1_545
Hf3 O90 2.222258 1_545
Hf4 O112 1.972627 1_555
Hf4 O36 1.977648 1_556
Hf4 O40 2.026060 1_556
Hf4 O110 2.050959 1_555
Hf4 O38 2.171523 1_556
Hf4 O108 2.178754 1_555
Hf5 O37 1.910765 1_556
Hf5 O113 1.955401 1_555
Hf5 O41 2.072028 1_556
Hf5 O111 2.114365 1_555
Hf5 O109 2.130786 1_555
Hf5 O39 2.186974 1_556
Hf6 O42 1.924022 1_555
Hf6 O116 1.958891 1_555
Hf6 O44 2.074117 1_555
Hf6 O118 2.104096 1_555
Hf6 O114 2.144720 1_555
Hf6 O46 2.165321 1_555
Hf7 O45 1.952916 1_555
Hf7 O43 1.958226 1_555
Hf7 O117 1.975461 1_555
Hf7 O119 2.125438 1_555
Hf7 O47 2.196003 1_555
Hf7 O115 2.214669 1_555
Hf8 O64 1.941789 1_555
Hf8 O136 2.000096 1_555
Hf8 O60 2.004056 1_555
Hf8 O134 2.053607 1_555
Hf8 O62 2.177931 1_555
Hf8 O132 2.186125 1_555
Hf9 O65 1.936019 1_555
Hf9 O137 2.005627 1_555
Hf9 O61 2.012778 1_555
Hf9 O135 2.062745 1_555
Hf9 O63 2.164857 1_555
Hf9 O133 2.189086 1_555
Hf10 O68 1.953909 1_555
Hf10 O140 1.976257 1_555
Hf10 O66 1.988751 1_555
Hf10 O142 2.068355 1_555
Hf10 O70 2.193443 1_555
Hf10 O138 2.200644 1_555
Hf11 O69 1.941642 1_555
Hf11 O141 2.012092 1_555
Hf11 O67 2.016179 1_555
Hf11 O143 2.060658 1_555
Hf11 O71 2.161133 1_555
Hf11 O139 2.221465 1_555
Al0 O3 1.870342 1_445
Al0 O5 1.892092 1_455
Al0 O72 1.903134 1_545
Al0 O76 1.950993 1_555
Al0 O0 2.060528 1_555
Al0 O75 2.197105 1_445
Al1 O2 1.872399 1_545
Al1 O77 1.901233 1_555
Al1 O4 1.904190 1_555
Al1 O73 1.925500 1_545
Al1 O1 2.013497 1_555
Al1 O74 2.311306 1_545
Al2 O11 1.837177 1_565
Al2 O9 1.854359 1_555
Al2 O78 1.937524 1_665
Al2 O80 1.990080 1_655
Al2 O6 2.119708 1_665
Al2 O83 2.197767 1_555
Al3 O10 1.826358 1_565
Al3 O79 1.852445 1_565
Al3 O8 1.931124 1_555
Al3 O81 1.960635 1_555
Al3 O82 2.126059 1_555
Al3 O7 2.136350 1_565
Al4 O26 1.823439 1_555
Al4 O96 1.844074 1_555
Al4 O100 1.861742 1_555
Al4 O24 2.061788 1_555
Al4 O98 2.117243 1_555
Al4 O28 2.207472 1_555
Al5 O101 1.865914 1_555
Al5 O29 1.874770 1_555
Al5 O27 1.920415 1_555
Al5 O97 1.935324 1_555
Al5 O99 2.107081 1_555
Al5 O25 2.162500 1_555
Al6 O34 1.817024 1_555
Al6 O104 1.880449 1_555
Al6 O102 1.888467 1_555
Al6 O30 1.971614 1_555
Al6 O32 2.144257 1_555
Al6 O106 2.254892 1_555
Al7 O35 1.824792 1_555
Al7 O103 1.879004 1_555
Al7 O105 1.883753 1_555
Al7 O31 1.981952 1_555
Al7 O33 2.142030 1_555
Al7 O107 2.250376 1_555
Al8 O50 1.785637 1_554
Al8 O120 1.857170 1_555
Al8 O52 1.858161 1_554
Al8 O48 2.035632 1_554
Al8 O122 2.201085 1_555
Al8 O124 2.341089 1_555
Al9 O51 1.748575 1_554
Al9 O53 1.844305 1_554
Al9 O121 1.850109 1_555
Al9 O49 2.120447 1_554
Al9 O123 2.130436 1_555
Al9 O125 2.400652 1_555
Al10 O58 1.800915 1_555
Al10 O56 1.847521 1_555
Al10 O126 1.899068 1_555
Al10 O54 1.984948 1_555
Al10 O130 2.146228 1_555
Al10 O128 2.231506 1_555
Al11 O59 1.799731 1_555
Al11 O127 1.916817 1_555
Al11 O57 1.942263 1_555
Al11 O129 1.944308 1_555
Al11 O131 2.131314 1_555
Al11 O55 2.131837 1_555
O0 S0 1.477493 1_555
O1 S1 1.479825 1_555
O2 Si0 1.638382 1_555
O3 Si1 1.634873 1_555
O4 Si3 1.631635 1_555
O5 Si2 1.629982 1_555
O6 S2 1.483281 1_555
O7 S3 1.458453 1_555
O8 Si5 1.622253 1_555
O9 Si4 1.639358 1_555
O10 Si6 1.609098 1_545
O11 Si7 1.632745 1_555
O12 Si6 1.640092 1_555
O13 Si7 1.640382 1_565
O14 S2 1.478244 1_555
O15 S3 1.502908 1_555
O16 Si4 1.647660 1_455
O17 Si5 1.647354 1_555
O18 Si0 1.616749 1_555
O19 Si1 1.623040 1_555
O20 Si2 1.636683 1_455
O21 Si3 1.634215 1_555
O22 S0 1.479773 1_565
O23 S1 1.478530 1_565
O24 S4 1.471256 1_555
O25 S5 1.461030 1_555
O26 Si8 1.637070 1_555
O27 Si9 1.639154 1_555
O28 S6 1.456256 1_555
O29 Si10 1.615262 1_555
O30 S7 1.493903 1_555
O31 S8 1.493880 1_555
O32 S9 1.468182 1_555
O33 S10 1.467320 1_555
O34 Si11 1.655575 1_555
O35 Si12 1.654852 1_555
O36 Si11 1.643890 1_555
O37 Si12 1.637254 1_555
O38 S7 1.481627 1_555
O39 S8 1.482143 1_555
O40 S9 1.496253 1_555
O41 S10 1.498569 1_555
O42 Si8 1.637448 1_555
O43 Si9 1.648685 1_555
O44 S6 1.500750 1_555
O45 Si10 1.656322 1_555
O46 S4 1.480526 1_555
O47 S5 1.497381 1_555
O48 S11 1.467436 1_555
O49 S12 1.460167 1_555
O50 Si13 1.623433 1_555
O51 Si14 1.615005 1_555
O52 Si15 1.635082 1_555
O53 Si16 1.631509 1_555
O54 S13 1.468878 1_555
O55 S14 1.471474 1_555
O56 Si17 1.630325 1_555
O57 Si18 1.636388 1_555
O58 Si19 1.629065 1_555
O59 Si20 1.611069 1_555
O60 Si19 1.640435 1_555
O61 Si20 1.647426 1_555
O62 S13 1.471943 1_555
O63 S14 1.474352 1_555
O64 Si17 1.651623 1_555
O65 Si18 1.649176 1_555
O66 Si13 1.628165 1_555
O67 Si14 1.655010 1_555
O68 Si15 1.635513 1_555
O69 Si16 1.659812 1_555
O70 S11 1.478285 1_555
O71 S12 1.474704 1_555
O72 Si19 1.627358 1_555
O73 Si20 1.632004 1_555
O74 S13 1.475733 1_555
O75 S14 1.484714 1_555
O76 Si17 1.627384 1_555
O77 Si18 1.627008 1_555
O78 Si13 1.640624 1_555
O79 Si14 1.608704 1_555
O80 Si15 1.656433 1_555
O81 Si16 1.623190 1_555
O82 S11 1.463333 1_555
O83 S12 1.486707 1_555
O84 S4 1.494040 1_555
O85 S5 1.485212 1_555
O86 Si8 1.657326 1_555
O87 Si9 1.657508 1_555
O88 S6 1.506524 1_555
O89 Si10 1.652825 1_555
O90 S7 1.480862 1_555
O91 S8 1.487771 1_555
O92 S9 1.500293 1_555
O93 S10 1.507657 1_555
O94 Si11 1.663483 1_555
O95 Si12 1.654428 1_555
O96 Si6 1.664762 1_545
O97 Si7 1.641739 1_555
O98 S2 1.488171 1_555
O99 S3 1.473183 1_555
O100 Si5 1.636653 1_555
O101 Si4 1.609770 1_555
O102 Si0 1.668420 1_555
O103 Si1 1.668585 1_555
O104 Si3 1.638363 1_555
O105 Si2 1.636218 1_555
O106 S0 1.474245 1_555
O107 S1 1.472056 1_555
O108 S11 1.518852 1_555
O109 S12 1.501414 1_555
O110 Si14 1.682901 1_555
O111 Si13 1.654615 1_655
O112 Si15 1.656527 1_545
O113 Si16 1.652109 1_545
O114 S13 1.501562 1_545
O115 S14 1.490458 1_545
O116 Si17 1.649825 1_555
O117 Si18 1.644103 1_555
O118 Si20 1.689695 1_555
O119 Si19 1.676345 1_655
O120 Si11 1.642589 1_555
O121 Si12 1.638421 1_555
O122 S8 1.472138 1_455
O123 S7 1.474107 1_555
O124 S9 1.456665 1_565
O125 S10 1.456553 1_565
O126 Si8 1.656630 1_565
O127 Si9 1.631895 1_565
O128 S6 1.469339 1_555
O129 Si10 1.642580 1_555
O130 S5 1.483117 1_455
O131 S4 1.482272 1_555
O132 S0 1.483828 1_565
O133 S1 1.482771 1_565
O134 Si0 1.647888 1_555
O135 Si1 1.649642 1_555
O136 Si2 1.683296 1_455
O137 Si3 1.682250 1_555
O138 S2 1.470278 1_555
O139 S3 1.486116 1_555
O140 Si4 1.664982 1_455
O141 Si5 1.677262 1_555
O142 Si6 1.636251 1_555
O143 Si7 1.674940 1_565
