# generated using pymatgen
data_Sm(Sn3Ru2)2
_symmetry_space_group_name_H-M   'P 1'
_cell_length_a   6.89316116
_cell_length_b   6.89316223
_cell_length_c   6.91511355
_cell_angle_alpha   119.89503559
_cell_angle_beta   119.89505050
_cell_angle_gamma   89.99999728
_symmetry_Int_Tables_number   1
_chemical_formula_structural   Sm(Sn3Ru2)2
_chemical_formula_sum   'Sm1 Sn6 Ru4'
_cell_volume   233.07377242
_cell_formula_units_Z   1
loop_
 _symmetry_equiv_pos_site_id
 _symmetry_equiv_pos_as_xyz
  1  'x, y, z'
loop_
 _atom_site_type_symbol
 _atom_site_label
 _atom_site_symmetry_multiplicity
 _atom_site_fract_x
 _atom_site_fract_y
 _atom_site_fract_z
 _atom_site_occupancy
  Sm  Sm0  1  0.00000000  0.00000000  -0.00000000  1
  Sn  Sn0  1  0.50000000  0.00000000  -0.00000000  1
  Sn  Sn1  1  0.47041218  0.47041218  0.58917310  1
  Sn  Sn2  1  0.88124009  0.52958782  0.41082690  1
  Sn  Sn3  1  0.52958782  0.88124009  0.41082690  1
  Sn  Sn4  1  0.11875991  0.11875991  0.58917310  1
  Sn  Sn5  1  0.00000000  0.50000000  -0.00000000  1
  Ru  Ru0  1  0.40562123  0.40562123  0.15647057  1
  Ru  Ru1  1  0.75084834  0.75084834  0.15647057  1
  Ru  Ru2  1  0.59437877  0.24915166  0.84352943  1
  Ru  Ru3  1  0.24915166  0.59437877  0.84352943  1
loop_
_geom_bond_atom_site_label_1
_geom_bond_atom_site_label_2
_geom_bond_distance
_geom_bond_site_symmetry_2
Sm0 Sn1 3.360063 1_555
Sm0 Sn3 3.360065 1_444
Sm0 Sn2 3.360066 1_444
Sm0 Sn4 3.360067 1_555
Sm0 Sn0 3.446581 1_455
Sm0 Sn0 3.446581 1_555
Sm0 Sn5 3.446581 1_555
Sm0 Sn5 3.446581 1_545
Sm0 Sn4 3.748022 1_554
Sm0 Sn3 3.748026 1_545
Sm0 Sn2 3.748027 1_455
Sm0 Sn1 3.748030 1_444
Ru0 Sn1 2.586095 1_555
Ru0 Sn5 2.664141 1_555
Ru0 Sn0 2.664142 1_555
Ru0 Sn2 2.706674 1_555
Ru0 Sn3 2.706675 1_555
Ru0 Sn4 2.782882 1_554
Ru0 Ru3 2.831850 1_554
Ru0 Ru2 2.831850 1_554
Ru0 Sm0 3.282483 1_555
Ru1 Sn4 2.586096 1_665
Ru1 Sn0 2.664144 1_565
Ru1 Sn5 2.664144 1_655
Ru1 Sn2 2.706662 1_555
Ru1 Sn3 2.706662 1_555
Ru1 Sn1 2.782882 1_554
Ru1 Ru3 2.831838 1_554
Ru1 Ru2 2.831839 1_554
Ru1 Sm0 3.282492 1_665
Ru2 Sn3 2.586096 1_545
Ru2 Sn5 2.664138 1_656
Ru2 Sn0 2.664147 1_556
Ru2 Sn1 2.706662 1_555
Ru2 Sn4 2.706674 1_555
Ru2 Sn2 2.782882 1_556
Ru2 Sm0 3.282487 1_656
Ru3 Sn2 2.586095 1_455
Ru3 Sn0 2.664138 1_566
Ru3 Sn5 2.664147 1_556
Ru3 Sn1 2.706662 1_555
Ru3 Sn4 2.706675 1_555
Ru3 Sn3 2.782882 1_556
Ru3 Sm0 3.282488 1_566
