# generated using pymatgen
data_Na3Mg(CoO2)5
_symmetry_space_group_name_H-M   'P 1'
_cell_length_a   6.00344844
_cell_length_b   7.78222051
_cell_length_c   5.16195137
_cell_angle_alpha   75.37888190
_cell_angle_beta   65.01000783
_cell_angle_gamma   75.49205488
_symmetry_Int_Tables_number   1
_chemical_formula_structural   Na3Mg(CoO2)5
_chemical_formula_sum   'Na3 Mg1 Co5 O10'
_cell_volume   208.64529451
_cell_formula_units_Z   1
loop_
 _symmetry_equiv_pos_site_id
 _symmetry_equiv_pos_as_xyz
  1  'x, y, z'
loop_
 _atom_site_type_symbol
 _atom_site_label
 _atom_site_symmetry_multiplicity
 _atom_site_fract_x
 _atom_site_fract_y
 _atom_site_fract_z
 _atom_site_occupancy
  Na  Na0  1  0.50967587  0.26710051  0.54655072  1
  Na  Na1  1  0.50210817  0.45129961  0.97719298  1
  Na  Na2  1  0.48735775  0.91517673  0.82842209  1
  Mg  Mg0  1  0.50271841  0.70092652  0.39622985  1
  Co  Co0  1  0.95848152  0.00756380  0.99948189  1
  Co  Co1  1  0.02855507  0.17575413  0.39353969  1
  Co  Co2  1  0.01746768  0.59742729  0.19198793  1
  Co  Co3  1  -0.00125273  0.39414039  0.80676605  1
  Co  Co4  1  0.99783924  0.78507583  0.60392190  1
  O  O0  1  0.18149396  0.16483972  0.98543708  1
  O  O1  1  0.21935297  0.93095342  0.58299689  1
  O  O2  1  0.81892213  0.02391667  0.41432330  1
  O  O3  1  0.17932709  0.35835257  0.39449570  1
  O  O4  1  0.78211442  0.45822158  0.18335857  1
  O  O5  1  0.24198274  0.72428454  0.19573333  1
  O  O6  1  0.81192106  0.21392624  0.78572760  1
  O  O7  1  0.22282051  0.56278247  0.75303709  1
  O  O8  1  0.77342405  0.64312144  0.60086817  1
  O  O9  1  0.78968411  0.81977752  0.03942617  1
loop_
_geom_bond_atom_site_label_1
_geom_bond_atom_site_label_2
_geom_bond_distance
_geom_bond_site_symmetry_2
Na0 O2 2.305496 1_555
Na0 O3 2.319866 1_555
Na0 O4 2.371152 1_555
Na0 O0 2.398261 1_555
Na0 O6 2.499333 1_555
Na0 O7 2.664312 1_555
Na1 O7 2.303561 1_555
Na1 O3 2.303735 1_556
Na1 O6 2.344309 1_555
Na1 O4 2.355220 1_556
Na1 O8 2.394984 1_555
Na1 O5 2.506740 1_556
Na2 O5 2.299220 1_556
Na2 O0 2.356629 1_565
Na2 O2 2.362880 1_565
Na2 O9 2.370378 1_556
Na2 O1 2.398646 1_555
Na2 O8 2.557534 1_555
Mg0 O9 2.114967 1_555
Mg0 O7 2.159205 1_555
Mg0 O5 2.164631 1_555
Mg0 O8 2.191727 1_555
Mg0 O1 2.233325 1_555
Mg0 O4 2.343414 1_555
Co0 O9 1.902214 1_546
Co0 O6 1.946394 1_555
Co0 O2 1.967735 1_556
Co0 O0 1.997510 1_655
Co0 O1 2.182801 1_645
Co0 O5 2.689315 1_646
Co1 O3 1.868257 1_555
Co1 O2 1.886437 1_455
Co1 O0 1.924847 1_554
Co1 O6 1.939986 1_455
Co1 O1 2.193262 1_545
Co1 O4 2.592472 1_455
Co2 O5 1.868178 1_555
Co2 O4 2.004098 1_455
Co2 O8 2.057389 1_455
Co2 O3 2.114022 1_555
Co2 O7 2.123272 1_554
Co2 O9 2.126215 1_455
Co3 O4 1.935822 1_456
Co3 O3 1.995087 1_555
Co3 O7 1.998623 1_555
Co3 O6 2.050518 1_455
Co3 O0 2.069241 1_555
Co3 O8 2.361292 1_455
Co4 O1 1.908426 1_655
Co4 O8 1.951466 1_555
Co4 O5 2.087634 1_655
Co4 O7 2.108300 1_655
Co4 O9 2.109997 1_556
Co4 O2 2.129772 1_565
