# generated using pymatgen
data_Ca5(GaN2)2
_symmetry_space_group_name_H-M   'P 1'
_cell_length_a   6.07498909
_cell_length_b   6.07498909
_cell_length_c   14.30456376
_cell_angle_alpha   90.00000000
_cell_angle_beta   90.00000000
_cell_angle_gamma   132.89551528
_symmetry_Int_Tables_number   1
_chemical_formula_structural   Ca5(GaN2)2
_chemical_formula_sum   'Ca10 Ga4 N8'
_cell_volume   386.74995511
_cell_formula_units_Z   2
loop_
 _symmetry_equiv_pos_site_id
 _symmetry_equiv_pos_as_xyz
  1  'x, y, z'
loop_
 _atom_site_type_symbol
 _atom_site_label
 _atom_site_symmetry_multiplicity
 _atom_site_fract_x
 _atom_site_fract_y
 _atom_site_fract_z
 _atom_site_occupancy
  Ca  Ca0  1  0.38489418  0.61510582  0.32712094  1
  Ca  Ca1  1  0.11510582  0.88489418  0.82712094  1
  Ca  Ca2  1  0.61510582  0.38489418  0.67287906  1
  Ca  Ca3  1  0.50000000  0.50000000  -0.00000000  1
  Ca  Ca4  1  0.22774686  0.77225314  0.08014004  1
  Ca  Ca5  1  0.72774686  0.27225314  0.41985996  1
  Ca  Ca6  1  0.27225314  0.72774686  0.58014004  1
  Ca  Ca7  1  0.00000000  -0.00000000  0.50000000  1
  Ca  Ca8  1  0.88489418  0.11510582  0.17287906  1
  Ca  Ca9  1  0.77225314  0.22774686  0.91985996  1
  Ga  Ga0  1  0.90719009  0.09280991  0.69174593  1
  Ga  Ga1  1  0.09280991  0.90719009  0.30825407  1
  Ga  Ga2  1  0.40719009  0.59280991  0.80825407  1
  Ga  Ga3  1  0.59280991  0.40719009  0.19174593  1
  N  N0  1  0.07934245  0.92065755  0.65753885  1
  N  N1  1  0.19460270  0.80539730  0.41873992  1
  N  N2  1  0.80539730  0.19460270  0.58126008  1
  N  N3  1  0.57934245  0.42065755  0.84246115  1
  N  N4  1  0.42065755  0.57934245  0.15753885  1
  N  N5  1  0.30539730  0.69460270  0.91873992  1
  N  N6  1  0.92065755  0.07934245  0.34246115  1
  N  N7  1  0.69460270  0.30539730  0.08126008  1
loop_
_geom_bond_atom_site_label_1
_geom_bond_atom_site_label_2
_geom_bond_distance
_geom_bond_site_symmetry_2
Ca0 N4 2.458284 1_555
Ca0 N6 2.469707 1_565
Ca0 N6 2.469707 1_455
Ca0 N1 2.491907 1_555
Ca1 N0 2.458284 1_555
Ca1 N3 2.469707 1_565
Ca1 N3 2.469707 1_455
Ca1 N5 2.491907 1_555
Ca2 N3 2.458284 1_555
Ca2 N0 2.469707 1_655
Ca2 N0 2.469707 1_545
Ca2 N2 2.491907 1_555
Ca3 N4 2.420600 1_555
Ca3 N3 2.420600 1_554
Ca3 N5 2.459472 1_554
Ca3 N7 2.459472 1_555
Ca4 N4 2.417087 1_555
Ca4 N7 2.455436 1_455
Ca4 N7 2.455436 1_565
Ca4 N5 2.465430 1_554
Ca5 N6 2.417087 1_555
Ca5 N1 2.455436 1_545
Ca5 N1 2.455436 1_655
Ca5 N2 2.465430 1_555
Ca6 N0 2.417087 1_555
Ca6 N2 2.455436 1_565
Ca6 N2 2.455436 1_455
Ca6 N1 2.465430 1_555
Ca7 N6 2.420600 1_455
Ca7 N0 2.420600 1_545
Ca7 N2 2.459472 1_455
Ca7 N1 2.459472 1_545
Ca8 N6 2.458284 1_555
Ca8 N4 2.469707 1_545
Ca8 N4 2.469707 1_655
Ca8 N7 2.491907 1_555
Ca9 N3 2.417087 1_555
Ca9 N5 2.455436 1_545
Ca9 N5 2.455436 1_655
Ca9 N7 2.465430 1_556
Ga0 N2 1.945050 1_555
Ga0 N0 1.978857 1_645
Ga1 N1 1.945050 1_555
Ga1 N6 1.978857 1_465
Ga2 N5 1.945050 1_555
Ga2 N3 1.978857 1_555
Ga3 N7 1.945050 1_555
Ga3 N4 1.978857 1_555
