# generated using pymatgen
data_MgMn4ZnS8
_symmetry_space_group_name_H-M   'P 1'
_cell_length_a   7.21049190
_cell_length_b   7.21049100
_cell_length_c   7.39305681
_cell_angle_alpha   57.75184467
_cell_angle_beta   57.75184755
_cell_angle_gamma   58.03140815
_symmetry_Int_Tables_number   1
_chemical_formula_structural   MgMn4ZnS8
_chemical_formula_sum   'Mg1 Mn4 Zn1 S8'
_cell_volume   258.34236144
_cell_formula_units_Z   1
loop_
 _symmetry_equiv_pos_site_id
 _symmetry_equiv_pos_as_xyz
  1  'x, y, z'
loop_
 _atom_site_type_symbol
 _atom_site_label
 _atom_site_symmetry_multiplicity
 _atom_site_fract_x
 _atom_site_fract_y
 _atom_site_fract_z
 _atom_site_occupancy
  Mg  Mg0  1  0.00000000  0.00000000  0.50000000  1
  Mn  Mn0  1  0.50000100  0.99999900  0.50000100  1
  Mn  Mn1  1  0.99999900  0.50000000  0.50000100  1
  Mn  Mn2  1  0.50000000  0.50000000  0.00000000  1
  Mn  Mn3  1  0.00000000  0.00000000  0.00000000  1
  Zn  Zn0  1  0.50000000  0.50000100  0.49999900  1
  S  S0  1  0.76263300  0.26327600  0.73979000  1
  S  S1  1  0.24926000  0.24926100  0.71857900  1
  S  S2  1  0.23736600  0.73672500  0.26020900  1
  S  S3  1  0.73672300  0.23736700  0.26021000  1
  S  S4  1  0.25456700  0.25456800  0.27621000  1
  S  S5  1  0.74543300  0.74543300  0.72379000  1
  S  S6  1  0.26327700  0.76263400  0.73979000  1
  S  S7  1  0.75074000  0.75074000  0.28142100  1
loop_
_geom_bond_atom_site_label_1
_geom_bond_atom_site_label_2
_geom_bond_distance
_geom_bond_site_symmetry_2
Mg0 S5 2.561594 1_445
Mg0 S4 2.561600 1_555
Mg0 S0 2.566861 1_455
Mg0 S2 2.566861 1_545
Mg0 S3 2.566866 1_455
Mg0 S6 2.566867 1_545
Mn0 S6 2.368932 1_555
Mn0 S3 2.368936 1_565
Mn0 S7 2.377196 1_555
Mn0 S1 2.377201 1_565
Mn0 S5 2.383769 1_555
Mn0 S4 2.383790 1_565
Mn1 S0 2.368937 1_555
Mn1 S2 2.368946 1_655
Mn1 S7 2.377196 1_555
Mn1 S1 2.377196 1_655
Mn1 S5 2.383774 1_555
Mn1 S4 2.383779 1_655
Mn2 S4 2.456981 1_555
Mn2 S5 2.456985 1_554
Mn2 S6 2.528657 1_554
Mn2 S3 2.528657 1_555
Mn2 S2 2.528662 1_555
Mn2 S0 2.528662 1_554
Mn3 S7 2.495723 1_445
Mn3 S1 2.495728 1_554
Mn3 S2 2.531760 1_545
Mn3 S6 2.531766 1_544
Mn3 S3 2.531770 1_455
Mn3 S0 2.531771 1_454
S0 Zn0 2.563799 1_555
S1 Zn0 2.524743 1_555
S2 Zn0 2.563800 1_555
S3 Zn0 2.563795 1_555
S6 Zn0 2.563801 1_555
S7 Zn0 2.524739 1_555
