# generated using pymatgen
data_Na3HfSi2GePO12
_symmetry_space_group_name_H-M   'P 1'
_cell_length_a   15.48566874
_cell_length_b   8.87299197
_cell_length_c   9.01995729
_cell_angle_alpha   90.22844759
_cell_angle_beta   125.46066485
_cell_angle_gamma   89.68592522
_symmetry_Int_Tables_number   1
_chemical_formula_structural   Na3HfSi2GePO12
_chemical_formula_sum   'Na12 Hf4 Si8 Ge4 P4 O48'
_cell_volume   1009.47681104
_cell_formula_units_Z   4
loop_
 _symmetry_equiv_pos_site_id
 _symmetry_equiv_pos_as_xyz
  1  'x, y, z'
loop_
 _atom_site_type_symbol
 _atom_site_label
 _atom_site_symmetry_multiplicity
 _atom_site_fract_x
 _atom_site_fract_y
 _atom_site_fract_z
 _atom_site_occupancy
  Na  Na0  1  0.24269167  0.77490807  0.99604116  1
  Na  Na1  1  0.75280283  0.72495493  0.50506130  1
  Na  Na2  1  0.75339829  0.26950930  0.00589421  1
  Na  Na3  1  0.24274459  0.22520216  0.49224073  1
  Na  Na4  1  0.50464160  0.10691749  0.75696970  1
  Na  Na5  1  0.50286427  0.90022408  0.24894969  1
  Na  Na6  1  0.00360107  0.62354172  0.75311328  1
  Na  Na7  1  0.00323460  0.36996852  0.25199195  1
  Na  Na8  1  0.81713458  0.93851411  0.24026565  1
  Na  Na9  1  0.81331204  0.06324099  0.73383585  1
  Na  Na10  1  0.30156468  0.43587771  0.21169923  1
  Na  Na11  1  0.30798235  0.55962488  0.73408160  1
  Hf  Hf0  1  0.10691779  0.75260148  0.56207879  1
  Hf  Hf1  1  0.60496498  0.25132957  0.56486882  1
  Hf  Hf2  1  0.39344684  0.75672111  0.43447864  1
  Hf  Hf3  1  0.60839340  0.74939333  0.06691224  1
  Si  Si0  1  0.35797941  0.90444023  0.76658019  1
  Si  Si1  1  0.65473988  0.88301787  0.74877698  1
  Si  Si2  1  0.65055286  0.11960760  0.24603804  1
  Si  Si3  1  0.34977763  0.11009881  0.24131929  1
  Si  Si4  1  0.86269659  0.39779737  0.75868390  1
  Si  Si5  1  0.14488461  0.38210611  0.74902113  1
  Si  Si6  1  0.14024466  0.60404871  0.23491758  1
  Si  Si7  1  0.85963137  0.59738882  0.25768675  1
  Ge  Ge0  1  0.89468656  0.73424100  0.94338142  1
  Ge  Ge1  1  0.89652332  0.26513829  0.44509398  1
  Ge  Ge2  1  0.10324737  0.25241743  0.05542267  1
  Ge  Ge3  1  0.39484573  0.24314649  0.93591588  1
  P  P0  1  -0.00004753  0.97300185  0.74751037  1
  P  P1  1  0.99818869  0.03692949  0.23182003  1
  P  P2  1  0.49545833  0.45306008  0.74856420  1
  P  P3  1  0.49518433  0.53824995  0.23635361  1
  O  O0  1  0.15138927  0.56790961  0.73782516  1
  O  O1  1  0.86178781  0.58284698  0.77073322  1
  O  O2  1  0.86107720  0.41248220  0.26762992  1
  O  O3  1  0.14345094  0.41661236  0.22622210  1
  O  O4  1  0.65896624  0.06855584  0.74204593  1
  O  O5  1  0.35467171  0.08935237  0.76379489  1
  O  O6  1  0.34746052  0.92643436  0.24925308  1
  O  O7  1  0.65999093  0.93412130  0.24071484  1
  O  O8  1  0.43182521  0.54626200  0.57169835  1
  O  O9  1  0.55321267  0.55787853  0.91382592  1
  O  O10  1  0.55284191  0.43750182  0.40496885  1
  O  O11  1  0.42913616  0.44347221  0.05806671  1
  O  O12  1  0.92787552  0.06965360  0.56995984  1
  O  O13  1  0.06704910  0.07080594  0.91944605  1
  O  O14  1  0.06385013  0.93948869  0.40347081  1
  O  O15  1  0.92624389  0.93582312  0.05962869  1
  O  O16  1  0.25997957  0.82114984  0.74979710  1
  O  O17  1  0.75995360  0.81426603  0.76799322  1
  O  O18  1  0.75779737  0.18562293  0.26965336  1
  O  O19  1  0.24676127  0.19004483  0.21887662  1
  O  O20  1  0.75961587  0.32619731  0.73763755  1
  O  O21  1  0.25229588  0.31856194  0.77164135  1
  O  O22  1  0.24328329  0.66796459  0.24904962  1
  O  O23  1  0.75868531  0.67113392  0.24164072  1
  O  O24  1  0.36521602  0.85872104  0.59693540  1
  O  O25  1  0.65247597  0.84889193  0.92319476  1
  O  O26  1  0.64800445  0.14659870  0.42195614  1
  O  O27  1  0.36649634  0.14796452  0.08152104  1
  O  O28  1  0.86802699  0.37111633  0.58373187  1
  O  O29  1  0.13798590  0.36288968  0.92261366  1
  O  O30  1  0.14692870  0.63509485  0.41969528  1
  O  O31  1  0.86575380  0.63449827  0.08535563  1
  O  O32  1  0.46405755  0.84372513  0.95307414  1
  O  O33  1  0.54768594  0.82141459  0.56063287  1
  O  O34  1  0.54122566  0.18489385  0.05854261  1
  O  O35  1  0.45351332  0.17225600  0.43495215  1
  O  O36  1  0.96344294  0.31490779  0.93983258  1
  O  O37  1  0.04040677  0.31068664  0.55965731  1
  O  O38  1  0.03532541  0.68286206  0.05573801  1
  O  O39  1  0.95980514  0.67259877  0.44148234  1
  O  O40  1  0.07767105  0.86993344  0.73884684  1
  O  O41  1  0.92104514  0.87019821  0.75278228  1
  O  O42  1  0.91937174  0.13651029  0.24272304  1
  O  O43  1  0.07805063  0.13756786  0.22583188  1
  O  O44  1  0.57750285  0.34852614  0.75500475  1
  O  O45  1  0.41193285  0.35718069  0.75099236  1
  O  O46  1  0.41294711  0.63773125  0.23812888  1
  O  O47  1  0.57763695  0.64187012  0.24563141  1
loop_
_geom_bond_atom_site_label_1
_geom_bond_atom_site_label_2
_geom_bond_distance
_geom_bond_site_symmetry_2
Na0 O6 2.314370 1_556
Na0 O40 2.395099 1_555
Na0 O16 2.423171 1_555
Na0 O22 2.470126 1_556
Na0 O46 2.550879 1_556
Na0 O0 2.640200 1_555
Na1 O1 2.342849 1_555
Na1 O17 2.438475 1_555
Na1 O47 2.453671 1_555
Na1 O23 2.474580 1_555
Na1 O41 2.588559 1_555
Na1 O7 2.687987 1_555
Na2 O2 2.322728 1_555
Na2 O44 2.423169 1_554
Na2 O18 2.458510 1_555
Na2 O42 2.485610 1_555
Na2 O20 2.529347 1_554
Na2 O4 2.634074 1_554
Na3 O5 2.351903 1_555
Na3 O43 2.404049 1_555
Na3 O19 2.520442 1_555
Na3 O45 2.568999 1_555
Na3 O21 2.571303 1_555
Na3 O3 2.594083 1_555
Na4 O5 2.364632 1_555
Na4 O44 2.432952 1_555
Na4 O4 2.491827 1_555
Na4 O34 2.529867 1_556
Na4 O35 2.596084 1_555
Na4 O45 2.621298 1_555
Na4 O24 2.829459 1_545
Na4 O25 2.952604 1_545
Na5 O6 2.418054 1_555
Na5 O32 2.422113 1_554
Na5 O7 2.496879 1_555
Na5 O47 2.570443 1_555
Na5 O33 2.573086 1_555
Na5 O46 2.692420 1_555
Na5 O27 2.801339 1_565
Na5 O26 2.867558 1_565
Na6 O1 2.322175 1_455
Na6 O0 2.419425 1_555
Na6 O40 2.512534 1_555
Na6 O39 2.518960 1_455
Na6 O41 2.527694 1_455
Na6 O38 2.530784 1_556
Na6 O28 2.839197 1_455
Na6 O29 2.881123 1_555
Na7 O2 2.314979 1_455
Na7 O3 2.352931 1_555
Na7 O42 2.426247 1_455
Na7 O43 2.436661 1_555
Na7 O37 2.542476 1_555
Na7 O36 2.554519 1_454
Na8 O42 2.362821 1_565
Na8 O7 2.436353 1_555
Na8 O18 2.444987 1_565
Na8 O23 2.546524 1_555
Na8 O25 2.618439 1_554
Na8 O12 2.686173 1_565
Na9 O41 2.320906 1_545
Na9 O4 2.434055 1_555
Na9 O17 2.445171 1_545
Na9 O20 2.479445 1_555
Na9 O26 2.579552 1_555
Na9 O15 2.648414 1_546
Na9 O12 2.894836 1_555
Na9 O36 2.975833 1_555
Na10 O22 2.344287 1_555
Na10 O19 2.359566 1_555
Na10 O46 2.406882 1_555
Na10 O29 2.444578 1_554
Na10 O3 2.533464 1_555
Na10 O8 2.822892 1_555
Na11 O45 2.350908 1_555
Na11 O21 2.408006 1_555
Na11 O0 2.445394 1_555
Na11 O16 2.461333 1_555
Na11 O30 2.549675 1_555
Na11 O11 2.600656 1_556
Hf0 O39 2.003331 1_455
Hf0 O30 2.006471 1_555
Hf0 O14 2.034952 1_555
Hf0 O16 2.050854 1_555
Hf0 O0 2.101054 1_555
Hf0 O40 2.156547 1_555
Hf1 O26 1.987458 1_555
Hf1 O10 2.028330 1_555
Hf1 O35 2.046621 1_555
Hf1 O20 2.069808 1_555
Hf1 O4 2.082920 1_555
Hf1 O44 2.167107 1_555
Hf2 O24 1.971260 1_555
Hf2 O33 2.045860 1_555
Hf2 O6 2.047904 1_555
Hf2 O22 2.078916 1_555
Hf2 O8 2.127230 1_555
Hf2 O46 2.223670 1_555
Hf3 O25 1.992086 1_554
Hf3 O32 2.018456 1_554
Hf3 O23 2.029232 1_555
Hf3 O9 2.037813 1_554
Hf3 O7 2.079225 1_555
Hf3 O47 2.154956 1_555
Ge0 O31 1.817430 1_556
Ge0 O38 1.846602 1_656
Ge0 O17 1.876969 1_555
Ge0 O1 1.886652 1_555
Ge0 O15 1.984330 1_556
Ge0 O41 2.326731 1_555
Ge1 O28 1.808066 1_555
Ge1 O37 1.879033 1_655
Ge1 O2 1.887375 1_555
Ge1 O18 1.918404 1_555
Ge1 O12 1.970969 1_555
Ge1 O42 2.342677 1_555
Ge2 O29 1.856913 1_554
Ge2 O36 1.858489 1_454
Ge2 O19 1.900081 1_555
Ge2 O13 1.900442 1_554
Ge2 O3 1.939789 1_555
Ge2 O43 2.065452 1_555
Ge3 O27 1.820106 1_556
Ge3 O5 1.879169 1_555
Ge3 O34 1.926523 1_556
Ge3 O21 1.926866 1_555
Ge3 O11 1.992806 1_556
Ge3 O45 2.098699 1_555
O0 Si5 1.659303 1_555
O1 Si4 1.645627 1_555
O2 Si7 1.642803 1_555
O3 Si6 1.666482 1_555
O4 Si1 1.650693 1_545
O5 Si0 1.641080 1_545
O6 Si3 1.633012 1_565
O7 Si2 1.654467 1_565
O8 P2 1.541928 1_555
O9 P2 1.529090 1_555
O10 P3 1.528379 1_555
O11 P3 1.558733 1_555
O12 P0 1.572413 1_645
O13 P0 1.538609 1_545
O14 P1 1.533944 1_465
O15 P1 1.565394 1_565
O16 Si0 1.617721 1_555
O17 Si1 1.648967 1_555
O18 Si2 1.657043 1_555
O19 Si3 1.644117 1_555
O20 Si4 1.626744 1_555
O21 Si5 1.650175 1_555
O22 Si6 1.630104 1_555
O23 Si7 1.618574 1_555
O24 Si0 1.646851 1_555
O25 Si1 1.623550 1_555
O26 Si2 1.626742 1_555
O27 Si3 1.641729 1_555
O28 Si4 1.643496 1_555
O29 Si5 1.639702 1_555
O30 Si6 1.631236 1_555
O31 Si7 1.645919 1_555
O32 Si0 1.615447 1_555
O33 Si1 1.632569 1_555
O34 Si2 1.654360 1_555
O35 Si3 1.637629 1_555
O36 Si4 1.638277 1_555
O37 Si5 1.653130 1_555
O38 Si6 1.640324 1_555
O39 Si7 1.618248 1_555
O40 P0 1.545128 1_555
O41 P0 1.551590 1_655
O42 P1 1.551400 1_555
O43 P1 1.555559 1_455
O44 P2 1.542648 1_555
O45 P2 1.562793 1_555
O46 P3 1.553201 1_555
O47 P3 1.539779 1_555
