# generated using pymatgen
data_Li3NiPCO7
_symmetry_space_group_name_H-M   'P 1'
_cell_length_a   8.12364749
_cell_length_b   8.12376903
_cell_length_c   9.34208301
_cell_angle_alpha   74.12812126
_cell_angle_beta   74.13004769
_cell_angle_gamma   104.44214282
_symmetry_Int_Tables_number   1
_chemical_formula_structural   Li3NiPCO7
_chemical_formula_sum   'Li12 Ni4 P4 C4 O28'
_cell_volume   534.25644215
_cell_formula_units_Z   4
loop_
 _symmetry_equiv_pos_site_id
 _symmetry_equiv_pos_as_xyz
  1  'x, y, z'
loop_
 _atom_site_type_symbol
 _atom_site_label
 _atom_site_symmetry_multiplicity
 _atom_site_fract_x
 _atom_site_fract_y
 _atom_site_fract_z
 _atom_site_occupancy
  Li  Li0  1  0.17844000  0.92843800  0.10392700  1
  Li  Li1  1  0.67842700  0.42843100  0.10391500  1
  Li  Li2  1  0.32155800  0.57156200  0.89607400  1
  Li  Li3  1  0.82157200  0.07157000  0.89608600  1
  Li  Li4  1  0.26131500  0.27717700  0.72529000  1
  Li  Li5  1  0.76131300  0.77716800  0.72527600  1
  Li  Li6  1  0.23868500  0.22282500  0.27470900  1
  Li  Li7  1  0.73868700  0.72283300  0.27472400  1
  Li  Li8  1  0.02717800  0.51130800  0.72528400  1
  Li  Li9  1  0.52716700  0.01132200  0.72528200  1
  Li  Li10  1  0.47282300  0.98869300  0.27471600  1
  Li  Li11  1  0.97283400  0.48867900  0.27471700  1
  Ni  Ni0  1  0.31267100  0.56269800  0.33249800  1
  Ni  Ni1  1  0.18733600  0.93729400  0.66750300  1
  Ni  Ni2  1  0.81291900  0.06289500  0.33271600  1
  Ni  Ni3  1  0.68709100  0.43710000  0.66727100  1
  P  P0  1  0.05400200  0.80400200  0.41362200  1
  P  P1  1  0.55399800  0.30399400  0.41362000  1
  P  P2  1  0.44599900  0.69599900  0.58637900  1
  P  P3  1  0.94600200  0.19600700  0.58638100  1
  C  C0  1  0.51184600  0.76184500  0.04185700  1
  C  C1  1  0.01183300  0.26183400  0.04184900  1
  C  C2  1  0.98815300  0.73815500  0.95814400  1
  C  C3  1  0.48816800  0.23816700  0.95815200  1
  O  O0  1  0.58252400  0.83251600  0.42034000  1
  O  O1  1  0.08249200  0.33250000  0.42031600  1
  O  O2  1  0.91747600  0.66748300  0.57966100  1
  O  O3  1  0.41750800  0.16750000  0.57968400  1
  O  O4  1  0.37127400  0.62126500  0.07305300  1
  O  O5  1  0.87126600  0.12127800  0.07303500  1
  O  O6  1  0.12872500  0.87873500  0.92694600  1
  O  O7  1  0.62873500  0.37872200  0.92696400  1
  O  O8  1  0.95691600  0.70690900  0.83617800  1
  O  O9  1  0.45693700  0.20694300  0.83616500  1
  O  O10  1  0.54308300  0.79308900  0.16382400  1
  O  O11  1  0.04306200  0.29305700  0.16383600  1
  O  O12  1  0.20008600  0.95009300  0.43707100  1
  O  O13  1  0.70006300  0.45005500  0.43709600  1
  O  O14  1  0.29991400  0.54990800  0.56292900  1
  O  O15  1  0.79993600  0.04994500  0.56290500  1
  O  O16  1  0.11846500  0.36845900  0.89676100  1
  O  O17  1  0.61845200  0.86845900  0.89676300  1
  O  O18  1  0.38153500  0.13154300  0.10324000  1
  O  O19  1  0.88154800  0.63154200  0.10323800  1
  O  O20  1  0.35124000  0.78895900  0.69238000  1
  O  O21  1  0.85122200  0.28896300  0.69235700  1
  O  O22  1  0.53896800  0.60121700  0.69236300  1
  O  O23  1  0.03895200  0.10123700  0.69237800  1
  O  O24  1  0.14876000  0.71104100  0.30762100  1
  O  O25  1  0.64877900  0.21103700  0.30764400  1
  O  O26  1  0.96103100  0.89878400  0.30763800  1
  O  O27  1  0.46104800  0.39876400  0.30762300  1
loop_
_geom_bond_atom_site_label_1
_geom_bond_atom_site_label_2
_geom_bond_distance
_geom_bond_site_symmetry_2
Li0 O6 1.925822 1_554
Li0 O18 2.018686 1_565
Li0 O24 2.120554 1_555
Li0 O26 2.120810 1_455
Li1 O7 1.925495 1_554
Li1 O19 2.018886 1_555
Li1 O27 2.120620 1_555
Li1 O25 2.120838 1_555
Li2 O4 1.925807 1_556
Li2 O16 2.018666 1_555
Li2 O20 2.120549 1_555
Li2 O22 2.120812 1_555
Li3 O5 1.925480 1_556
Li3 O17 2.018881 1_545
Li3 O23 2.120625 1_655
Li3 O21 2.120828 1_555
Li4 O16 2.127197 1_555
Li4 O3 2.130039 1_555
Li4 O23 2.157957 1_555
Li4 O14 2.205234 1_555
Li4 O9 2.225565 1_555
Li5 O17 2.127390 1_555
Li5 O2 2.130008 1_555
Li5 O22 2.157902 1_555
Li5 O15 2.205503 1_565
Li5 O8 2.225637 1_555
Li6 O18 2.127184 1_555
Li6 O1 2.130032 1_555
Li6 O27 2.157963 1_555
Li6 O12 2.205244 1_545
Li6 O11 2.225557 1_555
Li7 O19 2.127383 1_555
Li7 O0 2.130002 1_555
Li7 O26 2.157901 1_555
Li7 O13 2.205510 1_555
Li7 O10 2.225626 1_555
Li8 O16 2.127214 1_555
Li8 O2 2.130162 1_455
Li8 O21 2.158005 1_455
Li8 O14 2.205257 1_555
Li8 O8 2.225637 1_455
Li9 O17 2.127277 1_545
Li9 O3 2.129778 1_555
Li9 O20 2.157864 1_545
Li9 O15 2.205488 1_555
Li9 O9 2.225644 1_555
Li10 O18 2.127217 1_565
Li10 O0 2.130170 1_555
Li10 O25 2.158004 1_565
Li10 O12 2.205263 1_555
Li10 O10 2.225643 1_555
Li11 O19 2.127270 1_555
Li11 O1 2.129781 1_655
Li11 O24 2.157864 1_655
Li11 O13 2.205505 1_555
Li11 O11 2.225635 1_655
Ni0 O24 2.023807 1_555
Ni0 O27 2.024175 1_555
Ni0 O1 2.060177 1_555
Ni0 O14 2.099036 1_555
Ni0 O10 2.125069 1_555
Ni0 O4 2.225488 1_555
Ni1 O20 2.023712 1_555
Ni1 O23 2.024278 1_565
Ni1 O3 2.060181 1_565
Ni1 O12 2.099041 1_555
Ni1 O8 2.125078 1_455
Ni1 O6 2.225470 1_555
Ni2 O26 2.024065 1_545
Ni2 O25 2.024419 1_555
Ni2 O0 2.062203 1_545
Ni2 O15 2.096016 1_555
Ni2 O11 2.123717 1_655
Ni2 O5 2.228124 1_555
Ni3 O22 2.024189 1_555
Ni3 O21 2.024346 1_555
Ni3 O2 2.062188 1_555
Ni3 O13 2.095897 1_555
Ni3 O9 2.123774 1_555
Ni3 O7 2.228228 1_555
C0 O4 1.295635 1_555
C0 O17 1.295833 1_554
C0 O10 1.308168 1_555
C1 O5 1.295517 1_455
C1 O16 1.295859 1_554
C1 O11 1.308260 1_555
C2 O6 1.295630 1_655
C2 O19 1.295829 1_556
C2 O8 1.308165 1_555
C3 O7 1.295508 1_555
C3 O18 1.295859 1_556
C3 O9 1.308269 1_555
O0 P2 1.539716 1_555
O1 P3 1.539738 1_455
O2 P0 1.539722 1_655
O3 P1 1.539734 1_555
O12 P0 1.564193 1_555
O13 P1 1.564091 1_555
O14 P2 1.564203 1_555
O15 P3 1.564101 1_555
O20 P2 1.557442 1_555
O21 P3 1.557344 1_555
O22 P2 1.557446 1_555
O23 P3 1.557359 1_455
O24 P0 1.557445 1_555
O25 P1 1.557354 1_555
O26 P0 1.557459 1_655
O27 P1 1.557359 1_555
