# generated using pymatgen
data_Na10Ti4Al4Si7S5O48
_symmetry_space_group_name_H-M   'P 1'
_cell_length_a   17.50655127
_cell_length_b   8.74727745
_cell_length_c   21.94757052
_cell_angle_alpha   89.81775627
_cell_angle_beta   90.00574492
_cell_angle_gamma   119.89186012
_symmetry_Int_Tables_number   1
_chemical_formula_structural   Na10Ti4Al4Si7S5O48
_chemical_formula_sum   'Na30 Ti12 Al12 Si21 S15 O144'
_cell_volume   2913.80153747
_cell_formula_units_Z   3
loop_
 _symmetry_equiv_pos_site_id
 _symmetry_equiv_pos_as_xyz
  1  'x, y, z'
loop_
 _atom_site_type_symbol
 _atom_site_label
 _atom_site_symmetry_multiplicity
 _atom_site_fract_x
 _atom_site_fract_y
 _atom_site_fract_z
 _atom_site_occupancy
  Na  Na0  1  0.18414880  0.36987562  0.24457127  1
  Na  Na1  1  0.68416360  0.37047113  0.24507718  1
  Na  Na2  1  0.99601768  0.63128661  0.25231246  1
  Na  Na3  1  0.49630755  0.63108109  0.25221800  1
  Na  Na4  1  0.49607504  0.35940536  0.75501210  1
  Na  Na5  1  0.18379735  0.99792024  0.74731283  1
  Na  Na6  1  0.68514113  0.99867707  0.74659601  1
  Na  Na7  1  0.65379819  0.33593689  0.58167824  1
  Na  Na8  1  0.01819890  0.70441936  0.58019155  1
  Na  Na9  1  0.83019057  0.96389891  0.58774143  1
  Na  Na10  1  0.48658815  0.66610458  0.91504985  1
  Na  Na11  1  0.98782213  0.66865230  0.91430135  1
  Na  Na12  1  0.85205873  0.03637321  0.91099984  1
  Na  Na13  1  0.16213593  0.29783200  0.92010157  1
  Na  Na14  1  0.48736521  0.30940682  0.41431032  1
  Na  Na15  1  0.98542930  0.30603372  0.41399809  1
  Na  Na16  1  0.35313299  0.66805303  0.41084976  1
  Na  Na17  1  0.85250407  0.66774038  0.41255031  1
  Na  Na18  1  0.01404132  0.00678081  0.49844055  1
  Na  Na19  1  0.50861576  0.99269659  0.49785535  1
  Na  Na20  1  0.00717680  0.01063117  0.00138929  1
  Na  Na21  1  0.50756733  0.02383362  0.99715669  1
  Na  Na22  1  0.33752335  0.32889786  0.83230308  1
  Na  Na23  1  0.83956014  0.33925215  0.82800539  1
  Na  Na24  1  0.33358648  0.32891169  0.33014211  1
  Na  Na25  1  0.83288027  0.32778608  0.33152223  1
  Na  Na26  1  0.17302763  0.66720258  0.16153174  1
  Na  Na27  1  0.67285842  0.66759756  0.16183837  1
  Na  Na28  1  0.17285550  0.66935866  0.66726490  1
  Na  Na29  1  0.67111710  0.67835649  0.66555204  1
  Ti  Ti0  1  0.99838152  0.98229586  0.64748978  1
  Ti  Ti1  1  0.49533840  0.97816412  0.64814511  1
  Ti  Ti2  1  0.99990719  0.01726850  0.14550471  1
  Ti  Ti3  1  0.49935526  0.01608877  0.14538051  1
  Ti  Ti4  1  0.32807447  0.31358447  0.97789189  1
  Ti  Ti5  1  0.82213157  0.31820078  0.97890748  1
  Ti  Ti6  1  0.32490057  0.33108381  0.47814564  1
  Ti  Ti7  1  0.82619121  0.34321770  0.47984157  1
  Ti  Ti8  1  0.16236484  0.64333027  0.31177503  1
  Ti  Ti9  1  0.66195369  0.64406959  0.31228607  1
  Ti  Ti10  1  0.15956820  0.67725991  0.81172260  1
  Ti  Ti11  1  0.66362331  0.68281243  0.81291043  1
  Al  Al0  1  0.00189292  0.99823891  0.35267416  1
  Al  Al1  1  0.50340595  0.99858897  0.35220003  1
  Al  Al2  1  0.99984790  0.00099225  0.85135097  1
  Al  Al3  1  0.49789849  0.00320159  0.85466159  1
  Al  Al4  1  0.33322352  0.32084707  0.68886639  1
  Al  Al5  1  0.83336401  0.33036642  0.68728128  1
  Al  Al6  1  0.33585778  0.35082353  0.18588595  1
  Al  Al7  1  0.83566115  0.35068034  0.18619645  1
  Al  Al8  1  0.15888072  0.64514018  0.01785141  1
  Al  Al9  1  0.65568054  0.64325263  0.01828772  1
  Al  Al10  1  0.16274163  0.67327955  0.51678012  1
  Al  Al11  1  0.66171905  0.66723625  0.52074038  1
  Si  Si0  1  0.35743599  0.71863155  0.25088810  1
  Si  Si1  1  0.85722960  0.71858223  0.25076401  1
  Si  Si2  1  0.99030781  0.27737388  0.25201321  1
  Si  Si3  1  0.49044408  0.27755871  0.25198026  1
  Si  Si4  1  0.99065808  0.69805806  0.75297565  1
  Si  Si5  1  0.49088722  0.70192620  0.75326827  1
  Si  Si6  1  0.35593440  0.99533114  0.75187094  1
  Si  Si7  1  0.85796085  0.00503936  0.75157573  1
  Si  Si8  1  0.19166699  0.03962264  0.58638017  1
  Si  Si9  1  0.68678365  0.03807598  0.58557312  1
  Si  Si10  1  0.82908461  0.61901772  0.58562555  1
  Si  Si11  1  0.19089241  0.34346978  0.08470846  1
  Si  Si12  1  0.68877109  0.34353638  0.08649213  1
  Si  Si13  1  0.02130482  0.37110018  0.91720302  1
  Si  Si14  1  0.52265396  0.36753269  0.91673848  1
  Si  Si15  1  0.16394342  0.94854641  0.91979068  1
  Si  Si16  1  0.66085131  0.95016289  0.92106510  1
  Si  Si17  1  0.16120830  0.37149251  0.42029259  1
  Si  Si18  1  0.66090307  0.36709853  0.41971779  1
  Si  Si19  1  0.02343440  0.67600649  0.41723429  1
  Si  Si20  1  0.52532297  0.67734976  0.41837098  1
  S  S0  1  0.14638942  0.00248266  0.24975069  1
  S  S1  1  0.64636305  0.00236254  0.24947430  1
  S  S2  1  0.14582805  0.29178502  0.74972121  1
  S  S3  1  0.64528350  0.28853908  0.75010352  1
  S  S4  1  0.47714919  0.33434199  0.58386823  1
  S  S5  1  0.98084475  0.33659553  0.58294607  1
  S  S6  1  0.32989609  0.61803849  0.58370834  1
  S  S7  1  0.47945532  0.62411350  0.08340235  1
  S  S8  1  0.97938091  0.62329578  0.08313290  1
  S  S9  1  0.33018395  0.04281047  0.08488991  1
  S  S10  1  0.83017379  0.04312727  0.08414770  1
  S  S11  1  0.31062365  0.67231144  0.91781733  1
  S  S12  1  0.80912155  0.66549250  0.91812605  1
  S  S13  1  0.30896474  0.95320297  0.41764053  1
  S  S14  1  0.80974300  0.95434573  0.41731708  1
  O  O0  1  0.10657787  0.03763452  0.30463296  1
  O  O1  1  0.60672544  0.03778740  0.30448678  1
  O  O2  1  0.41970990  0.80132647  0.31070064  1
  O  O3  1  0.91992781  0.80100577  0.31036557  1
  O  O4  1  0.48290488  0.16577697  0.31252519  1
  O  O5  1  0.98338023  0.16648013  0.31255106  1
  O  O6  1  0.10766446  0.18041461  0.80573220  1
  O  O7  1  0.60410114  0.17343207  0.80357453  1
  O  O8  1  0.48315512  0.79975148  0.81270723  1
  O  O9  1  0.98566105  0.80134008  0.81249702  1
  O  O10  1  0.42453293  0.04308999  0.80682378  1
  O  O11  1  0.91628544  0.03009622  0.81177386  1
  O  O12  1  0.40583540  0.97446701  0.69022777  1
  O  O13  1  0.90482316  0.97759221  0.68980959  1
  O  O14  1  0.09018003  0.20824710  0.69556038  1
  O  O15  1  0.59041934  0.21308411  0.69357206  1
  O  O16  1  0.01754698  0.83079436  0.69180553  1
  O  O17  1  0.51841762  0.83616183  0.69308720  1
  O  O18  1  0.40802277  0.84017395  0.19123890  1
  O  O19  1  0.90834587  0.84084338  0.19111403  1
  O  O20  1  0.01984712  0.20077321  0.19327236  1
  O  O21  1  0.51954190  0.20002663  0.19326227  1
  O  O22  1  0.08938640  0.96733083  0.19537338  1
  O  O23  1  0.58934356  0.96735641  0.19536648  1
  O  O24  1  0.43552288  0.35955550  0.63884788  1
  O  O25  1  0.93845635  0.36701311  0.63617185  1
  O  O26  1  0.25050279  0.14024686  0.64504195  1
  O  O27  1  0.74961150  0.12879298  0.64451425  1
  O  O28  1  0.32012634  0.50937989  0.63734492  1
  O  O29  1  0.81391896  0.48556254  0.64036352  1
  O  O30  1  0.43805528  0.51374435  0.13940784  1
  O  O31  1  0.93766754  0.51367662  0.13904120  1
  O  O32  1  0.32071589  0.13159952  0.13873194  1
  O  O33  1  0.82138140  0.13418924  0.13777032  1
  O  O34  1  0.24865082  0.35800347  0.14486329  1
  O  O35  1  0.74813295  0.35859536  0.14561256  1
  O  O36  1  0.23848329  0.31048039  0.02413012  1
  O  O37  1  0.73858714  0.30966804  0.02710433  1
  O  O38  1  0.42588580  0.54045324  0.02867485  1
  O  O39  1  0.92592490  0.53964809  0.02807139  1
  O  O40  1  0.34669165  0.15261882  0.02852654  1
  O  O41  1  0.84654451  0.15081756  0.02693697  1
  O  O42  1  0.24098333  0.16909568  0.52623659  1
  O  O43  1  0.73775031  0.17463870  0.52686981  1
  O  O44  1  0.34631633  0.54339177  0.52648808  1
  O  O45  1  0.85302086  0.54267177  0.52284555  1
  O  O46  1  0.42490769  0.31132497  0.52794782  1
  O  O47  1  0.92674758  0.30463007  0.52658773  1
  O  O48  1  0.26971528  0.69692618  0.97295356  1
  O  O49  1  0.76888199  0.69666433  0.97236259  1
  O  O50  1  0.08697613  0.45694130  0.97423836  1
  O  O51  1  0.58253287  0.46252340  0.97496492  1
  O  O52  1  0.14927976  0.81904073  0.97646508  1
  O  O53  1  0.65210934  0.82356045  0.97713738  1
  O  O54  1  0.26790622  0.84138788  0.47257371  1
  O  O55  1  0.77088807  0.84488707  0.47308946  1
  O  O56  1  0.15154628  0.47955141  0.47618973  1
  O  O57  1  0.64802678  0.46441960  0.47825973  1
  O  O58  1  0.08032855  0.70088389  0.47818851  1
  O  O59  1  0.58627619  0.69966929  0.47568451  1
  O  O60  1  0.07032170  0.63982942  0.35733846  1
  O  O61  1  0.56700170  0.63579819  0.35636535  1
  O  O62  1  0.25571872  0.87767592  0.36260505  1
  O  O63  1  0.75546926  0.87436130  0.36279811  1
  O  O64  1  0.18606251  0.49680913  0.35752715  1
  O  O65  1  0.68422202  0.49662641  0.35823782  1
  O  O66  1  0.06893928  0.50412440  0.85843438  1
  O  O67  1  0.56667149  0.50035231  0.85595152  1
  O  O68  1  0.18338734  0.87307931  0.85604399  1
  O  O69  1  0.68639976  0.87583688  0.85805730  1
  O  O70  1  0.25515335  0.63468165  0.86311040  1
  O  O71  1  0.75638941  0.63488681  0.86250969  1
  O  O72  1  0.00699216  0.84166733  0.40941889  1
  O  O73  1  0.50663168  0.84017974  0.40974253  1
  O  O74  1  0.39752130  0.97125683  0.41387337  1
  O  O75  1  0.89869386  0.97152091  0.41257304  1
  O  O76  1  0.07465063  0.18214706  0.41001768  1
  O  O77  1  0.57357060  0.17874831  0.40916018  1
  O  O78  1  0.00938560  0.17467179  0.90855025  1
  O  O79  1  0.50986163  0.17445740  0.90824635  1
  O  O80  1  0.07840067  0.97542356  0.91034716  1
  O  O81  1  0.57423779  0.96553967  0.91003576  1
  O  O82  1  0.39986948  0.82667975  0.91248674  1
  O  O83  1  0.89908258  0.82408083  0.91365175  1
  O  O84  1  0.48842047  0.17739592  0.58821079  1
  O  O85  1  0.98938048  0.17718633  0.58883852  1
  O  O86  1  0.09306086  0.02133611  0.58942086  1
  O  O87  1  0.59159048  0.03468777  0.58895999  1
  O  O88  1  0.41138941  0.79654143  0.58734233  1
  O  O89  1  0.91804407  0.81800835  0.58816073  1
  O  O90  1  0.48764537  0.79999398  0.08911606  1
  O  O91  1  0.98742476  0.79930233  0.08854458  1
  O  O92  1  0.41143151  0.02650133  0.08826975  1
  O  O93  1  0.91185589  0.02711425  0.08779143  1
  O  O94  1  0.09265390  0.15982571  0.09002290  1
  O  O95  1  0.59195791  0.15919219  0.09041357  1
  O  O96  1  0.34343534  0.16977405  0.74383216  1
  O  O97  1  0.83929019  0.16896973  0.74309958  1
  O  O98  1  0.23389406  0.30616034  0.74333571  1
  O  O99  1  0.73253341  0.30303703  0.74418800  1
  O  O100  1  0.40911851  0.50749861  0.73900221  1
  O  O101  1  0.90711579  0.50809165  0.74125721  1
  O  O102  1  0.34347446  0.51771075  0.24376178  1
  O  O103  1  0.84353541  0.51784019  0.24361017  1
  O  O104  1  0.40894993  0.31103934  0.23893954  1
  O  O105  1  0.90900567  0.31104445  0.23882379  1
  O  O106  1  0.23407826  0.16028632  0.24342376  1
  O  O107  1  0.73414495  0.16051570  0.24322654  1
  O  O108  1  0.32209711  0.51154019  0.92335739  1
  O  O109  1  0.82351384  0.51077450  0.92403607  1
  O  O110  1  0.42657602  0.36561684  0.92527562  1
  O  O111  1  0.92484942  0.35964942  0.92454219  1
  O  O112  1  0.25056802  0.15095047  0.92262042  1
  O  O113  1  0.75261705  0.14515049  0.92442493  1
  O  O114  1  0.32302864  0.13598814  0.42366500  1
  O  O115  1  0.82349918  0.13581614  0.42294628  1
  O  O116  1  0.25309038  0.36067080  0.42355177  1
  O  O117  1  0.75292890  0.35818971  0.42099832  1
  O  O118  1  0.42631505  0.49266707  0.42513992  1
  O  O119  1  0.92678360  0.48871219  0.42120160  1
  O  O120  1  0.18167662  0.51897366  0.07634751  1
  O  O121  1  0.68137615  0.51963161  0.07631740  1
  O  O122  1  0.06787635  0.63970508  0.07921809  1
  O  O123  1  0.56819162  0.64130881  0.07973006  1
  O  O124  1  0.25174236  0.86805339  0.07793679  1
  O  O125  1  0.75227904  0.86833588  0.07824553  1
  O  O126  1  0.17831915  0.84135385  0.57685290  1
  O  O127  1  0.68024900  0.84830056  0.57579536  1
  O  O128  1  0.25174671  0.63768669  0.57686402  1
  O  O129  1  0.74283051  0.64072282  0.57535262  1
  O  O130  1  0.06914176  0.49736888  0.57802492  1
  O  O131  1  0.56676404  0.49303122  0.58033240  1
  O  O132  1  0.15372823  0.84216304  0.25652640  1
  O  O133  1  0.65379502  0.84246666  0.25648432  1
  O  O134  1  0.25799814  0.69468683  0.25593811  1
  O  O135  1  0.75772281  0.69421945  0.25590151  1
  O  O136  1  0.08158260  0.47885758  0.25565034  1
  O  O137  1  0.58170087  0.47894952  0.25551394  1
  O  O138  1  0.15604660  0.46829540  0.75588354  1
  O  O139  1  0.65329150  0.46460022  0.75562124  1
  O  O140  1  0.08445851  0.69102902  0.75452424  1
  O  O141  1  0.58240200  0.68475680  0.75493964  1
  O  O142  1  0.25791185  0.82056792  0.75491747  1
  O  O143  1  0.75840147  0.82365903  0.75645673  1
loop_
_geom_bond_atom_site_label_1
_geom_bond_atom_site_label_2
_geom_bond_distance
_geom_bond_site_symmetry_2
Na0 O106 2.392353 1_555
Na0 O102 2.420161 1_555
Na0 O136 2.428928 1_555
Na0 O134 2.479797 1_555
Na0 O34 2.488692 1_555
Na0 O64 2.712992 1_555
Na0 O20 2.738290 1_555
Na0 O0 2.840798 1_555
Na1 O107 2.396320 1_555
Na1 O103 2.421171 1_555
Na1 O137 2.422490 1_555
Na1 O135 2.470593 1_555
Na1 O35 2.479583 1_555
Na1 O65 2.720723 1_555
Na1 O21 2.747579 1_555
Na1 O1 2.837349 1_555
Na2 O103 2.346890 1_555
Na2 O132 2.441076 1_655
Na2 O105 2.450932 1_555
Na2 O136 2.452977 1_655
Na2 O60 2.629566 1_655
Na2 O31 2.692673 1_555
Na2 O3 2.754135 1_555
Na2 O22 2.839363 1_655
Na3 O102 2.352240 1_555
Na3 O133 2.439041 1_555
Na3 O137 2.448098 1_555
Na3 O104 2.449225 1_555
Na3 O61 2.589848 1_555
Na3 O30 2.682526 1_555
Na3 O2 2.768801 1_555
Na3 O23 2.839695 1_555
Na4 O96 2.353028 1_555
Na4 O139 2.428560 1_555
Na4 O100 2.466080 1_555
Na4 O141 2.469083 1_555
Na4 O67 2.540364 1_555
Na4 O10 2.653987 1_555
Na4 O24 2.761271 1_555
Na4 O15 2.881478 1_555
Na5 O140 2.366414 1_555
Na5 O98 2.384992 1_565
Na5 O96 2.426501 1_565
Na5 O142 2.474390 1_555
Na5 O26 2.546671 1_565
Na5 O68 2.619733 1_555
Na5 O16 2.803898 1_555
Na5 O6 2.846517 1_565
Na6 O97 2.345195 1_565
Na6 O99 2.361479 1_565
Na6 O141 2.425467 1_555
Na6 O143 2.447524 1_555
Na6 O27 2.508539 1_565
Na6 O69 2.673265 1_555
Na6 O17 2.791678 1_555
Na6 O7 2.843852 1_565
Na7 O87 2.300512 1_555
Na7 O129 2.326439 1_555
Na7 O131 2.509452 1_555
Na7 O84 2.514520 1_555
Na7 O57 2.553847 1_555
Na7 O15 2.685548 1_555
Na7 O29 2.753695 1_555
Na7 O43 2.770516 1_555
Na8 O130 2.385018 1_555
Na8 O86 2.413666 1_565
Na8 O89 2.414480 1_455
Na8 O126 2.439387 1_555
Na8 O58 2.496060 1_555
Na8 O16 2.693091 1_555
Na8 O45 2.807217 1_455
Na8 O25 2.835427 1_455
Na9 O127 2.310318 1_555
Na9 O89 2.439332 1_555
Na9 O85 2.462894 1_565
Na9 O129 2.469795 1_555
Na9 O13 2.566095 1_555
Na9 O55 2.726241 1_555
Na9 O27 2.768180 1_565
Na9 O47 2.914683 1_565
Na10 O81 2.284584 1_555
Na10 O110 2.303639 1_555
Na10 O108 2.504317 1_555
Na10 O82 2.530949 1_555
Na10 O8 2.543397 1_555
Na10 O38 2.715742 1_556
Na10 O67 2.790784 1_555
Na10 O53 2.860719 1_555
Na11 O80 2.340954 1_655
Na11 O111 2.365979 1_555
Na11 O109 2.503144 1_555
Na11 O83 2.523328 1_555
Na11 O9 2.523522 1_555
Na11 O39 2.728790 1_556
Na11 O66 2.764038 1_655
Na11 O52 2.808186 1_655
Na12 O83 2.377494 1_545
Na12 O113 2.382388 1_555
Na12 O78 2.393919 1_655
Na12 O11 2.464291 1_555
Na12 O111 2.474301 1_555
Na12 O41 2.756578 1_556
Na12 O69 2.771874 1_545
Na12 O49 2.902795 1_545
Na13 O78 2.346487 1_555
Na13 O80 2.455886 1_545
Na13 O112 2.456143 1_555
Na13 O108 2.474817 1_555
Na13 O36 2.620147 1_556
Na13 O50 2.629868 1_555
Na13 O6 2.702722 1_555
Na13 O70 2.844776 1_555
Na14 O77 2.305778 1_555
Na14 O118 2.340647 1_555
Na14 O114 2.503682 1_555
Na14 O4 2.548543 1_555
Na14 O74 2.566349 1_545
Na14 O46 2.726776 1_555
Na14 O61 2.778878 1_555
Na14 O57 2.815919 1_555
Na15 O119 2.295504 1_555
Na15 O76 2.304220 1_655
Na15 O115 2.466368 1_555
Na15 O5 2.534251 1_555
Na15 O75 2.537833 1_545
Na15 O47 2.673846 1_555
Na15 O60 2.816468 1_655
Na15 O56 2.870004 1_655
Na16 O73 2.335759 1_555
Na16 O74 2.364176 1_555
Na16 O116 2.382473 1_555
Na16 O118 2.459532 1_555
Na16 O2 2.485708 1_555
Na16 O44 2.738140 1_555
Na16 O64 2.794929 1_555
Na16 O54 2.937433 1_555
Na17 O72 2.352044 1_655
Na17 O75 2.360759 1_555
Na17 O117 2.386864 1_555
Na17 O119 2.491430 1_555
Na17 O3 2.528696 1_555
Na17 O45 2.655146 1_555
Na17 O65 2.820624 1_555
Na17 O55 2.903151 1_555
Na18 O76 2.367336 1_555
Na18 O86 2.396373 1_555
Na18 O72 2.399757 1_545
Na18 O89 2.577301 1_445
Na18 O85 2.646687 1_455
Na18 O75 2.665830 1_445
Na19 O73 2.343306 1_555
Na19 O87 2.390680 1_565
Na19 O77 2.422147 1_565
Na19 O88 2.601318 1_555
Na19 O74 2.617833 1_555
Na19 O84 2.694009 1_565
Na20 O94 2.407409 1_555
Na20 O80 2.455473 1_544
Na20 O78 2.477569 1_554
Na20 O91 2.556603 1_445
Na20 O93 2.577536 1_455
Na20 O83 2.625498 1_444
Na21 O79 2.340147 1_555
Na21 O81 2.424511 1_545
Na21 O95 2.458676 1_556
Na21 O82 2.600190 1_545
Na21 O92 2.621453 1_556
Na21 O90 2.706138 1_546
Na22 O96 2.424707 1_555
Na22 O110 2.490345 1_555
Na22 O100 2.496656 1_555
Na22 O112 2.507733 1_555
Na22 O98 2.604933 1_555
Na22 O108 2.658849 1_555
Na23 O101 2.333749 1_555
Na23 O97 2.387852 1_555
Na23 O99 2.531103 1_555
Na23 O111 2.546876 1_555
Na23 O113 2.660753 1_555
Na23 O109 2.685601 1_555
Na24 O104 2.445392 1_555
Na24 O102 2.459015 1_555
Na24 O106 2.507754 1_555
Na24 O116 2.580780 1_555
Na24 O118 2.595151 1_555
Na24 O114 2.600447 1_555
Na25 O105 2.476630 1_555
Na25 O103 2.488359 1_555
Na25 O117 2.502230 1_555
Na25 O119 2.503686 1_555
Na25 O107 2.525967 1_555
Na25 O115 2.564503 1_555
Na26 O120 2.326072 1_555
Na26 O124 2.432829 1_555
Na26 O134 2.491950 1_555
Na26 O122 2.504207 1_555
Na26 O136 2.625699 1_555
Na26 O132 2.709060 1_555
Na27 O121 2.329886 1_555
Na27 O125 2.434950 1_555
Na27 O135 2.486176 1_555
Na27 O123 2.497975 1_555
Na27 O137 2.617438 1_555
Na27 O133 2.700977 1_555
Na28 O142 2.391674 1_555
Na28 O126 2.459226 1_555
Na28 O128 2.511219 1_555
Na28 O140 2.528593 1_555
Na28 O138 2.534799 1_555
Na28 O130 2.586797 1_555
Na29 O127 2.420870 1_555
Na29 O143 2.451667 1_555
Na29 O129 2.453601 1_555
Na29 O141 2.520324 1_555
Na29 O131 2.555465 1_555
Na29 O139 2.626070 1_555
Al0 O3 1.854768 1_455
Al0 O5 1.874394 1_465
Al0 O72 1.883013 1_555
Al0 O76 1.940222 1_565
Al0 O0 1.989414 1_565
Al0 O75 2.150482 1_455
Al1 O2 1.855691 1_555
Al1 O4 1.881693 1_565
Al1 O73 1.893416 1_555
Al1 O77 1.907340 1_565
Al1 O1 1.966151 1_565
Al1 O74 2.209562 1_555
Al2 O11 1.824529 1_555
Al2 O9 1.848224 1_545
Al2 O78 1.916028 1_655
Al2 O80 1.980428 1_645
Al2 O6 2.016435 1_655
Al2 O83 2.154613 1_545
Al3 O10 1.821477 1_555
Al3 O79 1.835616 1_555
Al3 O8 1.906339 1_545
Al3 O81 1.951303 1_545
Al3 O7 2.039994 1_555
Al3 O82 2.070458 1_545
Al4 O26 1.801961 1_555
Al4 O96 1.859803 1_555
Al4 O100 1.868355 1_555
Al4 O24 1.980090 1_555
Al4 O98 2.060644 1_555
Al4 O28 2.101400 1_555
Al5 O29 1.863010 1_555
Al5 O101 1.870290 1_555
Al5 O27 1.890294 1_555
Al5 O97 1.907790 1_555
Al5 O25 2.038676 1_555
Al5 O99 2.076275 1_555
Al6 O34 1.800083 1_555
Al6 O104 1.885537 1_555
Al6 O102 1.892105 1_555
Al6 O30 1.929310 1_555
Al6 O32 2.079535 1_555
Al6 O106 2.138794 1_555
Al7 O35 1.803121 1_555
Al7 O105 1.882520 1_555
Al7 O103 1.885636 1_555
Al7 O31 1.935495 1_555
Al7 O33 2.078253 1_555
Al7 O107 2.129021 1_555
Al8 O50 1.776279 1_554
Al8 O52 1.847498 1_554
Al8 O120 1.858860 1_555
Al8 O48 2.015581 1_554
Al8 O122 2.068572 1_555
Al8 O124 2.245071 1_555
Al9 O51 1.742022 1_554
Al9 O53 1.842923 1_554
Al9 O121 1.862719 1_555
Al9 O123 2.034445 1_555
Al9 O49 2.058197 1_554
Al9 O125 2.272731 1_555
Al10 O58 1.789685 1_555
Al10 O56 1.839082 1_555
Al10 O126 1.893881 1_555
Al10 O54 1.945784 1_555
Al10 O130 2.081755 1_555
Al10 O128 2.178142 1_555
Al11 O59 1.781610 1_555
Al11 O127 1.890438 1_555
Al11 O57 1.913308 1_555
Al11 O129 1.957786 1_555
Al11 O55 2.047195 1_555
Al11 O131 2.063718 1_555
O0 S0 1.499110 1_555
O1 S1 1.500734 1_555
O2 Si0 1.629355 1_555
O3 Si1 1.628706 1_555
O4 Si3 1.613187 1_555
O5 Si2 1.611072 1_555
O6 S2 1.500139 1_555
O7 S3 1.476458 1_555
O8 Si5 1.604671 1_555
O9 Si4 1.617623 1_555
O10 Si6 1.604441 1_545
O11 Si7 1.617001 1_555
O12 Si6 1.669606 1_555
O12 Ti1 1.805226 1_555
O13 Si7 1.663432 1_565
O13 Ti0 1.865463 1_555
O14 S2 1.480468 1_555
O14 Ti0 2.109305 1_445
O15 S3 1.506873 1_555
O15 Ti1 2.142612 1_545
O16 Si4 1.678553 1_455
O16 Ti0 1.802697 1_455
O17 Si5 1.667875 1_555
O17 Ti1 1.780848 1_555
O18 Si0 1.637502 1_555
O18 Ti3 1.864272 1_565
O19 Si1 1.641916 1_555
O19 Ti2 1.864905 1_565
O20 Si2 1.652111 1_455
O20 Ti2 1.802681 1_455
O21 Si3 1.652352 1_555
O21 Ti3 1.806082 1_555
O22 S0 1.486936 1_565
O22 Ti2 2.126313 1_465
O23 S1 1.482515 1_565
O23 Ti3 2.129118 1_565
O24 S4 1.482502 1_555
O25 S5 1.478193 1_555
O26 Si8 1.611389 1_555
O27 Si9 1.627637 1_555
O28 S6 1.466054 1_555
O29 Si10 1.599607 1_555
O30 S7 1.504475 1_555
O31 S8 1.501041 1_555
O32 S9 1.470132 1_555
O33 S10 1.473582 1_555
O34 Si11 1.629210 1_555
O35 Si12 1.626451 1_555
O36 Si11 1.669553 1_555
O36 Ti4 1.856951 1_554
O37 Si12 1.675543 1_555
O37 Ti5 1.776132 1_554
O38 S7 1.476169 1_555
O38 Ti4 2.176976 1_554
O39 S8 1.481364 1_555
O39 Ti5 2.173219 1_554
O40 S9 1.500742 1_555
O40 Ti4 1.941932 1_554
O41 S10 1.506512 1_555
O41 Ti5 2.012804 1_554
O42 Si8 1.669303 1_555
O42 Ti6 1.787740 1_555
O43 Si9 1.676638 1_555
O43 Ti7 1.830849 1_555
O44 S6 1.509473 1_555
O44 Ti6 2.008391 1_555
O45 Si10 1.674813 1_555
O45 Ti7 1.830012 1_555
O46 S4 1.483608 1_555
O46 Ti6 2.142395 1_555
O47 S5 1.497702 1_555
O47 Ti7 2.203455 1_555
O48 S11 1.476189 1_555
O49 S12 1.476906 1_555
O50 Si13 1.611767 1_555
O51 Si14 1.600220 1_555
O52 Si15 1.611717 1_555
O53 Si16 1.608339 1_555
O54 S13 1.489573 1_555
O55 S14 1.490414 1_555
O56 Si17 1.610555 1_555
O57 Si18 1.620077 1_555
O58 Si19 1.616992 1_555
O59 Si20 1.597722 1_555
O60 Si19 1.662458 1_555
O60 Ti8 1.883712 1_555
O61 Si20 1.668577 1_555
O61 Ti9 1.893236 1_555
O62 S13 1.468135 1_555
O62 Ti8 2.189187 1_555
O63 S14 1.471918 1_555
O63 Ti9 2.166540 1_555
O64 Si17 1.674421 1_555
O64 Ti8 1.828876 1_555
O65 Si18 1.673455 1_555
O65 Ti9 1.823539 1_555
O66 Si13 1.654248 1_555
O66 Ti10 1.859413 1_555
O67 Si14 1.679732 1_555
O67 Ti11 1.900298 1_555
O68 Si15 1.655000 1_555
O68 Ti10 1.831036 1_555
O69 Si16 1.682483 1_555
O69 Ti11 1.825144 1_555
O70 S11 1.475362 1_555
O70 Ti10 2.197506 1_555
O71 S12 1.472882 1_555
O71 Ti11 2.161831 1_555
O72 Si19 1.620578 1_555
O73 Si20 1.623094 1_555
O74 S13 1.480264 1_555
O75 S14 1.491678 1_555
O76 Si17 1.609659 1_555
O77 Si18 1.611612 1_555
O78 Si13 1.636024 1_555
O79 Si14 1.600695 1_555
O80 Si15 1.640569 1_555
O81 Si16 1.605886 1_555
O82 S11 1.474549 1_555
O83 S12 1.495299 1_555
O84 S4 1.483883 1_555
O84 Ti1 2.231112 1_545
O85 S5 1.479841 1_555
O85 Ti0 2.200412 1_545
O86 Si8 1.653699 1_555
O86 Ti0 1.980330 1_445
O87 Si9 1.653608 1_555
O87 Ti1 1.984211 1_545
O88 S6 1.503394 1_555
O88 Ti1 2.037295 1_555
O89 Si10 1.660406 1_555
O89 Ti0 1.932812 1_555
O90 S7 1.478022 1_555
O90 Ti3 2.183690 1_565
O91 S8 1.479630 1_555
O91 Ti2 2.201270 1_565
O92 S9 1.500380 1_555
O92 Ti3 2.021708 1_555
O93 S10 1.506779 1_555
O93 Ti2 2.029592 1_555
O94 Si11 1.672437 1_555
O94 Ti2 1.909640 1_455
O95 Si12 1.659898 1_555
O95 Ti3 1.902249 1_555
O96 Si6 1.654829 1_545
O97 Si7 1.631900 1_555
O98 S2 1.489661 1_555
O99 S3 1.474072 1_555
O100 Si5 1.617506 1_555
O101 Si4 1.595833 1_555
O102 Si0 1.657294 1_555
O103 Si1 1.657598 1_555
O104 Si3 1.618317 1_555
O105 Si2 1.616660 1_555
O106 S0 1.472417 1_555
O107 S1 1.474474 1_555
O108 S11 1.520952 1_555
O108 Ti4 2.146919 1_555
O109 S12 1.500216 1_555
O109 Ti5 2.057889 1_555
O110 Si14 1.684173 1_555
O110 Ti4 1.931092 1_555
O111 Si13 1.648855 1_655
O111 Ti5 2.033871 1_555
O112 Si15 1.662157 1_545
O112 Ti4 1.850168 1_555
O113 Si16 1.662849 1_545
O113 Ti5 1.837740 1_555
O114 S13 1.497819 1_545
O114 Ti6 2.073735 1_555
O115 S14 1.487691 1_545
O115 Ti7 2.186779 1_555
O116 Si17 1.659269 1_555
O116 Ti6 1.845294 1_555
O117 Si18 1.651506 1_555
O117 Ti7 1.869769 1_555
O118 Si20 1.686330 1_555
O118 Ti6 1.997995 1_555
O119 Si19 1.670545 1_655
O119 Ti7 2.033089 1_555
O120 Si11 1.631428 1_555
O121 Si12 1.623541 1_555
O122 S8 1.485416 1_455
O123 S7 1.486415 1_555
O124 S9 1.467975 1_565
O125 S10 1.461890 1_565
O126 Si8 1.644543 1_565
O127 Si9 1.621042 1_565
O128 S6 1.469025 1_555
O129 Si10 1.628629 1_555
O130 S5 1.486997 1_455
O131 S4 1.490929 1_555
O132 S0 1.477663 1_565
O132 Ti8 2.183306 1_555
O133 S1 1.475411 1_565
O133 Ti9 2.183016 1_555
O134 Si0 1.650168 1_555
O134 Ti8 1.937488 1_555
O135 Si1 1.650039 1_555
O135 Ti9 1.949022 1_555
O136 Si2 1.691073 1_455
O136 Ti8 1.889479 1_555
O137 Si3 1.690361 1_555
O137 Ti9 1.897649 1_555
O138 S2 1.469764 1_555
O138 Ti10 2.179163 1_555
O139 S3 1.480566 1_555
O139 Ti11 2.219943 1_555
O140 Si4 1.673951 1_455
O140 Ti10 1.864403 1_555
O141 Si5 1.682389 1_555
O141 Ti11 1.914288 1_555
O142 Si6 1.634267 1_555
O142 Ti10 1.982223 1_555
O143 Si7 1.676081 1_565
O143 Ti11 1.938891 1_555
