# generated using pymatgen
data_Na14Mg5Zr3(PO4)12
_symmetry_space_group_name_H-M   'P 1'
_cell_length_a   18.04717101
_cell_length_b   9.02098341
_cell_length_c   22.45018137
_cell_angle_alpha   90.10517022
_cell_angle_beta   89.91518390
_cell_angle_gamma   120.13426866
_symmetry_Int_Tables_number   1
_chemical_formula_structural   Na14Mg5Zr3(PO4)12
_chemical_formula_sum   'Na42 Mg15 Zr9 P36 O144'
_cell_volume   3160.99273620
_cell_formula_units_Z   3
loop_
 _symmetry_equiv_pos_site_id
 _symmetry_equiv_pos_as_xyz
  1  'x, y, z'
loop_
 _atom_site_type_symbol
 _atom_site_label
 _atom_site_symmetry_multiplicity
 _atom_site_fract_x
 _atom_site_fract_y
 _atom_site_fract_z
 _atom_site_occupancy
  Na  Na0  1  0.18434225  0.36049058  0.24772791  1
  Na  Na1  1  0.68483650  0.36154258  0.24812682  1
  Na  Na2  1  0.99484426  0.62932742  0.24849473  1
  Na  Na3  1  0.49491745  0.62869683  0.24770462  1
  Na  Na4  1  0.31939368  0.63007522  0.74769016  1
  Na  Na5  1  0.81986242  0.63181430  0.74788489  1
  Na  Na6  1  0.18525889  0.01083192  0.74770000  1
  Na  Na7  1  0.68574461  0.01007650  0.74741829  1
  Na  Na8  1  0.15446561  0.34258445  0.57975686  1
  Na  Na9  1  0.65474382  0.34309639  0.57965403  1
  Na  Na10  1  0.01622146  0.68968599  0.58005937  1
  Na  Na11  1  0.51620284  0.68933013  0.57996708  1
  Na  Na12  1  0.32848387  0.96728407  0.57955443  1
  Na  Na13  1  0.82868853  0.96714156  0.57982192  1
  Na  Na14  1  0.15544518  0.96965280  0.08017551  1
  Na  Na15  1  0.65292586  0.96314798  0.08180574  1
  Na  Na16  1  0.32838077  0.68963338  0.07990393  1
  Na  Na17  1  0.01894297  0.34326230  0.08151891  1
  Na  Na18  1  0.51607299  0.34347736  0.07945539  1
  Na  Na19  1  0.48140481  0.66490368  0.91828220  1
  Na  Na20  1  0.98717608  0.67826300  0.91471544  1
  Na  Na21  1  0.35082829  0.03564931  0.91807221  1
  Na  Na22  1  0.16744255  0.29606628  0.91826888  1
  Na  Na23  1  0.66233142  0.30050488  0.91511785  1
  Na  Na24  1  0.48232883  0.29839525  0.41808318  1
  Na  Na25  1  0.98232188  0.29823297  0.41802069  1
  Na  Na26  1  0.16681001  0.03567923  0.41817156  1
  Na  Na27  1  0.66691385  0.03565813  0.41825519  1
  Na  Na28  1  0.35089875  0.66591903  0.41833937  1
  Na  Na29  1  0.85104433  0.66614495  0.41817820  1
  Na  Na30  1  0.99997653  0.00024426  0.49518826  1
  Na  Na31  1  0.49995689  0.00025660  0.49505484  1
  Na  Na32  1  0.99234613  0.99416369  0.99477765  1
  Na  Na33  1  0.49888908  0.99909851  0.99537495  1
  Na  Na34  1  0.33765921  0.33366469  0.83217224  1
  Na  Na35  1  0.83862766  0.32714877  0.82819078  1
  Na  Na36  1  0.33296535  0.32418513  0.33227553  1
  Na  Na37  1  0.83327365  0.32468097  0.33242278  1
  Na  Na38  1  0.17088122  0.67499812  0.16320076  1
  Na  Na39  1  0.67443911  0.67504745  0.16146034  1
  Na  Na40  1  0.16241187  0.65912325  0.66253240  1
  Na  Na41  1  0.66282918  0.65975230  0.66269208  1
  Mg  Mg0  1  0.99942617  0.00083724  0.34975657  1
  Mg  Mg1  1  0.49947984  0.00093430  0.34990488  1
  Mg  Mg2  1  0.99680987  0.00206773  0.85083742  1
  Mg  Mg3  1  0.49908487  0.00043130  0.84970262  1
  Mg  Mg4  1  0.33676022  0.33399661  0.68290190  1
  Mg  Mg5  1  0.83700279  0.33403931  0.68268153  1
  Mg  Mg6  1  0.33277573  0.32623161  0.18294375  1
  Mg  Mg7  1  0.83290886  0.32737836  0.18429895  1
  Mg  Mg8  1  0.33313370  0.33252034  0.98435112  1
  Mg  Mg9  1  0.33365136  0.33338689  0.48408971  1
  Mg  Mg10  1  0.83374970  0.33354613  0.48409384  1
  Mg  Mg11  1  0.16742361  0.66776061  0.01623037  1
  Mg  Mg12  1  0.67036132  0.66777765  0.01719431  1
  Mg  Mg13  1  0.16645784  0.66647699  0.51599869  1
  Mg  Mg14  1  0.66655618  0.66651285  0.51599903  1
  Zr  Zr0  1  0.99960417  0.00228544  0.64945068  1
  Zr  Zr1  1  0.49987889  0.00207725  0.64919600  1
  Zr  Zr2  1  0.99614047  0.99502901  0.14852731  1
  Zr  Zr3  1  0.49878692  -0.00003392  0.14933202  1
  Zr  Zr4  1  0.83355395  0.32975173  0.98185498  1
  Zr  Zr5  1  0.16900580  0.67241702  0.31595334  1
  Zr  Zr6  1  0.66916790  0.67261236  0.31601641  1
  Zr  Zr7  1  0.16432817  0.66264239  0.81564635  1
  Zr  Zr8  1  0.66469975  0.66282299  0.81603922  1
  P  P0  1  0.14798129  0.00446105  0.25134733  1
  P  P1  1  0.64848623  0.00466157  0.25180195  1
  P  P2  1  0.35338780  0.70295188  0.25191179  1
  P  P3  1  0.85339964  0.70293632  0.25266160  1
  P  P4  1  0.99720004  0.29200400  0.25212272  1
  P  P5  1  0.49728111  0.29292573  0.25250578  1
  P  P6  1  0.14831959  0.29266465  0.75214100  1
  P  P7  1  0.64854573  0.29340080  0.75198092  1
  P  P8  1  0.99773543  0.70329502  0.75194938  1
  P  P9  1  0.49775098  0.70294234  0.75186481  1
  P  P10  1  0.35364169  0.00583578  0.75249637  1
  P  P11  1  0.85414761  0.00551871  0.75208759  1
  P  P12  1  0.47950829  0.33696181  0.58230103  1
  P  P13  1  0.97960630  0.33695291  0.58219476  1
  P  P14  1  0.18830750  0.04047828  0.58340644  1
  P  P15  1  0.68837160  0.04050293  0.58332040  1
  P  P16  1  0.33158322  0.62267011  0.58347989  1
  P  P17  1  0.83164469  0.62273681  0.58345956  1
  P  P18  1  0.47982602  0.62317342  0.08332706  1
  P  P19  1  0.98111755  0.62569691  0.08496578  1
  P  P20  1  0.33158819  0.04099158  0.08228718  1
  P  P21  1  0.83061662  0.03737354  0.08525875  1
  P  P22  1  0.18804335  0.33582768  0.08355830  1
  P  P23  1  0.68800811  0.33980829  0.08574536  1
  P  P24  1  0.31516847  0.66712662  0.91849351  1
  P  P25  1  0.81481914  0.67188151  0.91826402  1
  P  P26  1  0.02053521  0.36896006  0.91940407  1
  P  P27  1  0.51814408  0.36936933  0.92000853  1
  P  P28  1  0.16644136  0.96342994  0.91864762  1
  P  P29  1  0.66455995  0.95844024  0.91836215  1
  P  P30  1  0.31574718  0.96393069  0.41991831  1
  P  P31  1  0.81577073  0.96404630  0.41995292  1
  P  P32  1  0.16639395  0.36966704  0.41849562  1
  P  P33  1  0.66637597  0.36960036  0.41851423  1
  P  P34  1  0.01840983  0.66754857  0.41857043  1
  P  P35  1  0.51842549  0.66748442  0.41851407  1
  O  O0  1  0.10489295  0.02751283  0.30613439  1
  O  O1  1  0.60494694  0.02776321  0.30626420  1
  O  O2  1  0.40893752  0.78902421  0.30596339  1
  O  O3  1  0.90814659  0.78628451  0.30738977  1
  O  O4  1  0.48842201  0.18694642  0.30694062  1
  O  O5  1  0.98838406  0.18712193  0.30694817  1
  O  O6  1  0.10544782  0.18154222  0.80609801  1
  O  O7  1  0.60574855  0.18268986  0.80629371  1
  O  O8  1  0.48626194  0.78988163  0.80645296  1
  O  O9  1  0.98654296  0.78983753  0.80664048  1
  O  O10  1  0.40637227  0.02315161  0.80707115  1
  O  O11  1  0.90906120  0.02405555  0.80425576  1
  O  O12  1  0.39403981  0.97037878  0.69582763  1
  O  O13  1  0.89239488  0.96939641  0.69410144  1
  O  O14  1  0.09285226  0.21102046  0.69486830  1
  O  O15  1  0.59289370  0.21076986  0.69504303  1
  O  O16  1  0.01480588  0.81950779  0.69530783  1
  O  O17  1  0.51495686  0.81979923  0.69536671  1
  O  O18  1  0.39459334  0.81442544  0.19481105  1
  O  O19  1  0.89633398  0.81843873  0.19710234  1
  O  O20  1  0.01446861  0.21057997  0.19545396  1
  O  O21  1  0.51484008  0.21171391  0.19566358  1
  O  O22  1  0.08956807  0.96970408  0.19486678  1
  O  O23  1  0.59025874  0.97046093  0.19510859  1
  O  O24  1  0.43762852  0.36448332  0.63651982  1
  O  O25  1  0.93773200  0.36460765  0.63646588  1
  O  O26  1  0.24139023  0.12107314  0.63968678  1
  O  O27  1  0.74129472  0.12127332  0.63967865  1
  O  O28  1  0.31855956  0.51654455  0.63971988  1
  O  O29  1  0.81845533  0.51631464  0.63971993  1
  O  O30  1  0.43920220  0.51720718  0.13955477  1
  O  O31  1  0.93890484  0.51578924  0.13943398  1
  O  O32  1  0.31788014  0.12474275  0.13647622  1
  O  O33  1  0.81796798  0.12511557  0.13833621  1
  O  O34  1  0.24179103  0.36346178  0.13956729  1
  O  O35  1  0.74009569  0.35688771  0.14063586  1
  O  O36  1  0.22556039  0.29968824  0.02773390  1
  O  O37  1  0.72790755  0.30346527  0.02895897  1
  O  O38  1  0.42404124  0.54858477  0.02754918  1
  O  O39  1  0.92580278  0.54309536  0.02786789  1
  O  O40  1  0.35104699  0.14957623  0.02568397  1
  O  O41  1  0.84899325  0.15576297  0.02916668  1
  O  O42  1  0.22577319  0.15176661  0.52773065  1
  O  O43  1  0.72569954  0.15171606  0.52767026  1
  O  O44  1  0.35023929  0.54855640  0.52772785  1
  O  O45  1  0.85003816  0.54818676  0.52772911  1
  O  O46  1  0.42517793  0.29796038  0.52576473  1
  O  O47  1  0.92517880  0.29805706  0.52573477  1
  O  O48  1  0.27255095  0.69658836  0.97260843  1
  O  O49  1  0.76931160  0.69015694  0.97079005  1
  O  O50  1  0.07424852  0.45384437  0.97476050  1
  O  O51  1  0.57511216  0.45268413  0.97426140  1
  O  O52  1  0.15116955  0.84749925  0.97250774  1
  O  O53  1  0.65175830  0.84893879  0.97286300  1
  O  O54  1  0.27389262  0.84997258  0.47432088  1
  O  O55  1  0.77382196  0.84999178  0.47432988  1
  O  O56  1  0.15177607  0.45501530  0.47268221  1
  O  O57  1  0.65167564  0.45485064  0.47271866  1
  O  O58  1  0.07594283  0.69732587  0.47258116  1
  O  O59  1  0.57593356  0.69741772  0.47257610  1
  O  O60  1  0.06225554  0.63949202  0.36177898  1
  O  O61  1  0.56227182  0.63948460  0.36179223  1
  O  O62  1  0.25586006  0.87255677  0.36464303  1
  O  O63  1  0.75588840  0.87275133  0.36469426  1
  O  O64  1  0.18043915  0.48572880  0.36192338  1
  O  O65  1  0.68035815  0.48549007  0.36196636  1
  O  O66  1  0.06289260  0.48967798  0.86431471  1
  O  O67  1  0.56429649  0.48913541  0.86467873  1
  O  O68  1  0.18024708  0.87487735  0.86194952  1
  O  O69  1  0.67922284  0.87695032  0.86116907  1
  O  O70  1  0.25710901  0.63914484  0.86197738  1
  O  O71  1  0.75842838  0.63559106  0.86041276  1
  O  O72  1  0.01017830  0.82883456  0.41102859  1
  O  O73  1  0.51008219  0.82870131  0.41092463  1
  O  O74  1  0.40434220  0.98005783  0.41129679  1
  O  O75  1  0.90436464  0.98025803  0.41135339  1
  O  O76  1  0.08572355  0.19121925  0.41104321  1
  O  O77  1  0.58566281  0.19110252  0.41109349  1
  O  O78  1  0.01362365  0.19548687  0.91064702  1
  O  O79  1  0.50999909  0.19169869  0.91107988  1
  O  O80  1  0.08617021  0.98060649  0.91087703  1
  O  O81  1  0.58537458  0.97984599  0.91115979  1
  O  O82  1  0.40441630  0.82857778  0.91109081  1
  O  O83  1  0.90639763  0.82162025  0.91098561  1
  O  O84  1  0.48977601  0.17192807  0.58976402  1
  O  O85  1  0.98993140  0.17209456  0.58957576  1
  O  O86  1  0.09549826  0.01972814  0.58966749  1
  O  O87  1  0.59553722  0.01978138  0.58963158  1
  O  O88  1  0.41429431  0.80863502  0.58990329  1
  O  O89  1  0.91441674  0.80839903  0.58976342  1
  O  O90  1  0.49001503  0.80899777  0.08953571  1
  O  O91  1  0.99281864  0.80976852  0.08839640  1
  O  O92  1  0.41408281  0.02036189  0.08956534  1
  O  O93  1  0.91547194  0.02936984  0.08903998  1
  O  O94  1  0.09538362  0.17094936  0.09018549  1
  O  O95  1  0.59662776  0.16900258  0.08879630  1
  O  O96  1  0.33825853  0.15584832  0.74470396  1
  O  O97  1  0.83794912  0.15559437  0.74441338  1
  O  O98  1  0.23794748  0.31415810  0.74450149  1
  O  O99  1  0.73800763  0.31399220  0.74469087  1
  O  O100  1  0.41765490  0.52849048  0.74369447  1
  O  O101  1  0.91757559  0.52817579  0.74373698  1
  O  O102  1  0.34307210  0.52416944  0.24440367  1
  O  O103  1  0.84318598  0.52443218  0.24439392  1
  O  O104  1  0.42206060  0.32319305  0.24458300  1
  O  O105  1  0.92230328  0.32354338  0.24453426  1
  O  O106  1  0.23547742  0.16452560  0.24339847  1
  O  O107  1  0.73577692  0.16471842  0.24388618  1
  O  O108  1  0.32214148  0.50367153  0.92135164  1
  O  O109  1  0.82116084  0.50216218  0.92222335  1
  O  O110  1  0.42949564  0.35541258  0.92189023  1
  O  O111  1  0.93185053  0.36165049  0.92233425  1
  O  O112  1  0.24858602  0.14067747  0.92160049  1
  O  O113  1  0.74514333  0.14299283  0.92193632  1
  O  O114  1  0.32233923  0.14096491  0.42207728  1
  O  O115  1  0.82229349  0.14103367  0.42210860  1
  O  O116  1  0.24817645  0.35582115  0.42143845  1
  O  O117  1  0.74812989  0.35569622  0.42145188  1
  O  O118  1  0.42958665  0.50362958  0.42151620  1
  O  O119  1  0.92959397  0.50364708  0.42152730  1
  O  O120  1  0.17536714  0.49317142  0.07782801  1
  O  O121  1  0.67166274  0.48892223  0.07821055  1
  O  O122  1  0.07110998  0.64708885  0.07782136  1
  O  O123  1  0.57116185  0.64959400  0.07770148  1
  O  O124  1  0.25326037  0.85714011  0.07723161  1
  O  O125  1  0.75110508  0.86195249  0.07665331  1
  O  O126  1  0.17530696  0.85753263  0.57782923  1
  O  O127  1  0.67526309  0.85754962  0.57782976  1
  O  O128  1  0.25322870  0.64858838  0.57791825  1
  O  O129  1  0.75321597  0.64850203  0.57792394  1
  O  O130  1  0.07146171  0.49345007  0.57721541  1
  O  O131  1  0.57142858  0.49334041  0.57726102  1
  O  O132  1  0.15191163  0.83463038  0.25513962  1
  O  O133  1  0.65210465  0.83481160  0.25533750  1
  O  O134  1  0.26174424  0.68118493  0.25518228  1
  O  O135  1  0.76171870  0.68072427  0.25551125  1
  O  O136  1  0.08232923  0.47412560  0.25524968  1
  O  O137  1  0.58234476  0.47426911  0.25552962  1
  O  O138  1  0.15942185  0.47644358  0.75543697  1
  O  O139  1  0.65938073  0.47661194  0.75533140  1
  O  O140  1  0.08256815  0.69532140  0.75536826  1
  O  O141  1  0.58269659  0.69559735  0.75550244  1
  O  O142  1  0.26286735  0.83549523  0.75552310  1
  O  O143  1  0.76286963  0.83574367  0.75568466  1
loop_
_geom_bond_atom_site_label_1
_geom_bond_atom_site_label_2
_geom_bond_distance
_geom_bond_site_symmetry_2
Na0 O106 2.371354 1_555
Na0 O102 2.478850 1_555
Na0 O134 2.507984 1_555
Na0 O136 2.522331 1_555
Na0 O34 2.633783 1_555
Na0 O64 2.814727 1_555
Na0 O20 2.906356 1_555
Na0 O0 2.912464 1_555
Na1 O107 2.375891 1_555
Na1 O103 2.473150 1_555
Na1 O135 2.496166 1_555
Na1 O137 2.523907 1_555
Na1 O35 2.618083 1_555
Na1 O65 2.805008 1_555
Na1 O21 2.909946 1_555
Na1 O1 2.915221 1_555
Na2 O105 2.388408 1_555
Na2 O103 2.407296 1_555
Na2 O132 2.493290 1_655
Na2 O136 2.587848 1_655
Na2 O31 2.650088 1_555
Na2 O60 2.802304 1_655
Na2 O3 2.900435 1_555
Na2 O22 2.921846 1_655
Na3 O104 2.385410 1_555
Na3 O102 2.410426 1_555
Na3 O133 2.497639 1_555
Na3 O137 2.582583 1_555
Na3 O30 2.626889 1_555
Na3 O61 2.817227 1_555
Na3 O2 2.906993 1_555
Na3 O23 2.922511 1_555
Na4 O100 2.371380 1_555
Na4 O98 2.465987 1_555
Na4 O138 2.503594 1_555
Na4 O142 2.530199 1_555
Na4 O28 2.626821 1_555
Na4 O70 2.817163 1_555
Na4 O12 2.907009 1_555
Na4 O8 2.921218 1_555
Na5 O101 2.376354 1_555
Na5 O99 2.480825 1_555
Na5 O139 2.510855 1_555
Na5 O143 2.524089 1_555
Na5 O29 2.635778 1_555
Na5 O71 2.764374 1_555
Na5 O13 2.907185 1_555
Na5 O9 2.918926 1_555
Na6 O96 2.390210 1_555
Na6 O98 2.405149 1_555
Na6 O140 2.503966 1_545
Na6 O142 2.592386 1_545
Na6 O26 2.624020 1_555
Na6 O68 2.826774 1_545
Na6 O6 2.894673 1_555
Na6 O16 2.915084 1_545
Na7 O97 2.377461 1_555
Na7 O99 2.411205 1_555
Na7 O141 2.498639 1_545
Na7 O143 2.577733 1_545
Na7 O27 2.617968 1_555
Na7 O69 2.801079 1_545
Na7 O7 2.915475 1_555
Na7 O17 2.916038 1_545
Na8 O128 2.420490 1_555
Na8 O130 2.479298 1_555
Na8 O86 2.560121 1_555
Na8 O85 2.577812 1_455
Na8 O56 2.620731 1_555
Na8 O14 2.828634 1_555
Na8 O42 2.862832 1_555
Na8 O28 2.895307 1_555
Na9 O129 2.415428 1_555
Na9 O131 2.479388 1_555
Na9 O87 2.563429 1_555
Na9 O84 2.585157 1_555
Na9 O57 2.616902 1_555
Na9 O15 2.836644 1_555
Na9 O43 2.861875 1_555
Na9 O29 2.891016 1_555
Na10 O130 2.429622 1_555
Na10 O126 2.484567 1_555
Na10 O89 2.558014 1_455
Na10 O86 2.584457 1_565
Na10 O58 2.628088 1_555
Na10 O25 2.836783 1_455
Na10 O16 2.843461 1_555
Na10 O45 2.857536 1_455
Na11 O131 2.427269 1_555
Na11 O127 2.484242 1_555
Na11 O88 2.564353 1_555
Na11 O87 2.587761 1_565
Na11 O59 2.625642 1_555
Na11 O24 2.836588 1_555
Na11 O17 2.848314 1_555
Na11 O44 2.853952 1_555
Na12 O126 2.424009 1_555
Na12 O128 2.488084 1_555
Na12 O84 2.557075 1_565
Na12 O54 2.573501 1_555
Na12 O88 2.593865 1_555
Na12 O46 2.860464 1_565
Na12 O12 2.861847 1_555
Na12 O26 2.897231 1_565
Na13 O127 2.428551 1_555
Na13 O129 2.487593 1_555
Na13 O85 2.555906 1_565
Na13 O55 2.579399 1_555
Na13 O89 2.592466 1_555
Na13 O13 2.808845 1_555
Na13 O47 2.864575 1_565
Na13 O27 2.900930 1_565
Na14 O124 2.439094 1_555
Na14 O122 2.517816 1_555
Na14 O91 2.545062 1_455
Na14 O94 2.548918 1_565
Na14 O52 2.639755 1_554
Na14 O22 2.834565 1_555
Na14 O32 2.834628 1_565
Na14 O36 2.842022 1_565
Na15 O125 2.368391 1_555
Na15 O123 2.448541 1_555
Na15 O95 2.529485 1_565
Na15 O90 2.549955 1_555
Na15 O53 2.648185 1_554
Na15 O23 2.796331 1_555
Na15 O33 2.872626 1_565
Na15 O37 2.915659 1_565
Na16 O120 2.419704 1_555
Na16 O124 2.486436 1_555
Na16 O90 2.561757 1_555
Na16 O92 2.589576 1_565
Na16 O48 2.625392 1_554
Na16 O18 2.828036 1_555
Na16 O38 2.859202 1_555
Na16 O34 2.878431 1_555
Na17 O122 2.411445 1_555
Na17 O120 2.443697 1_555
Na17 O93 2.495061 1_455
Na17 O94 2.551909 1_555
Na17 O50 2.595712 1_554
Na17 O20 2.809875 1_555
Na17 O31 2.905770 1_455
Na17 O41 2.905857 1_455
Na18 O123 2.420622 1_555
Na18 O121 2.430565 1_555
Na18 O92 2.559284 1_555
Na18 O51 2.574923 1_554
Na18 O95 2.633305 1_555
Na18 O40 2.856424 1_555
Na18 O21 2.864322 1_555
Na18 O30 2.893255 1_555
Na19 O110 2.460378 1_555
Na19 O108 2.486739 1_555
Na19 O82 2.489572 1_555
Na19 O81 2.503265 1_555
Na19 O38 2.664872 1_556
Na19 O8 2.737211 1_555
Na19 O67 2.927372 1_555
Na19 O53 2.930619 1_555
Na20 O83 2.387128 1_555
Na20 O80 2.397091 1_655
Na20 O111 2.514311 1_555
Na20 O109 2.597937 1_555
Na20 O9 2.630729 1_555
Na20 O39 2.795300 1_556
Na20 O52 2.870687 1_655
Na20 O66 2.892084 1_655
Na21 O112 2.462370 1_555
Na21 O79 2.489444 1_555
Na21 O110 2.496256 1_555
Na21 O82 2.502321 1_545
Na21 O40 2.622915 1_556
Na21 O10 2.707881 1_555
Na21 O48 2.918955 1_545
Na21 O68 2.947880 1_545
Na22 O78 2.455720 1_555
Na22 O108 2.461100 1_555
Na22 O80 2.466834 1_545
Na22 O112 2.485319 1_555
Na22 O36 2.667107 1_556
Na22 O6 2.738421 1_555
Na22 O70 2.962078 1_555
Na22 O50 2.975507 1_555
Na23 O79 2.412594 1_555
Na23 O81 2.503983 1_545
Na23 O109 2.513128 1_555
Na23 O113 2.531737 1_555
Na23 O7 2.655057 1_555
Na23 O37 2.812498 1_556
Na23 O51 2.877853 1_555
Na23 O71 2.897771 1_555
Na24 O118 2.471510 1_555
Na24 O74 2.488317 1_545
Na24 O114 2.498859 1_555
Na24 O77 2.500024 1_555
Na24 O46 2.626134 1_555
Na24 O4 2.711040 1_555
Na24 O57 2.917323 1_555
Na24 O61 2.949211 1_555
Na25 O119 2.472892 1_555
Na25 O75 2.485321 1_545
Na25 O76 2.499240 1_655
Na25 O115 2.499569 1_555
Na25 O47 2.627205 1_555
Na25 O5 2.708282 1_555
Na25 O56 2.919004 1_655
Na25 O60 2.949965 1_655
Na26 O114 2.472237 1_555
Na26 O76 2.489780 1_555
Na26 O72 2.490442 1_545
Na26 O116 2.498740 1_555
Na26 O42 2.675475 1_555
Na26 O0 2.739629 1_555
Na26 O58 2.912006 1_545
Na26 O62 2.924821 1_545
Na27 O115 2.469500 1_555
Na27 O77 2.491676 1_555
Na27 O73 2.493639 1_545
Na27 O117 2.497871 1_555
Na27 O43 2.671804 1_555
Na27 O1 2.739474 1_555
Na27 O59 2.910464 1_545
Na27 O63 2.922513 1_545
Na28 O116 2.461775 1_555
Na28 O73 2.490158 1_555
Na28 O74 2.498555 1_555
Na28 O118 2.500646 1_555
Na28 O44 2.673717 1_555
Na28 O2 2.744041 1_555
Na28 O54 2.927736 1_555
Na28 O64 2.948431 1_555
Na29 O117 2.464926 1_555
Na29 O72 2.488997 1_655
Na29 O75 2.498433 1_555
Na29 O119 2.500254 1_555
Na29 O45 2.677974 1_555
Na29 O3 2.702544 1_555
Na29 O55 2.930833 1_555
Na29 O65 2.949716 1_555
Na30 O75 2.499655 1_545
Na30 O76 2.501557 1_655
Na30 O72 2.503760 1_645
Na30 O85 2.682421 1_555
Na30 O86 2.684568 1_655
Na30 O89 2.684796 1_545
Na31 O77 2.497799 1_555
Na31 O74 2.497860 1_545
Na31 O73 2.503592 1_545
Na31 O87 2.686850 1_555
Na31 O84 2.688011 1_555
Na31 O88 2.689399 1_545
Na32 O83 2.437455 1_555
Na32 O78 2.514634 1_665
Na32 O80 2.574414 1_655
Na32 O93 2.633479 1_566
Na32 O91 2.685437 1_556
Na32 O94 2.758750 1_666
Na33 O82 2.493814 1_555
Na33 O79 2.510260 1_565
Na33 O81 2.510596 1_555
Na33 O92 2.671041 1_566
Na33 O95 2.672819 1_566
Na33 O90 2.678012 1_556
Na34 O96 2.536733 1_555
Na34 O110 2.554275 1_555
Na34 O100 2.564254 1_555
Na34 O98 2.614268 1_555
Na34 O112 2.615166 1_555
Na34 O108 2.618612 1_555
Na35 O97 2.429612 1_555
Na35 O101 2.514724 1_555
Na35 O99 2.572654 1_555
Na35 O111 2.622360 1_555
Na35 O113 2.687704 1_555
Na35 O109 2.744808 1_555
Na36 O104 2.542896 1_555
Na36 O114 2.554598 1_555
Na36 O106 2.570340 1_555
Na36 O118 2.615187 1_555
Na36 O116 2.618618 1_555
Na36 O102 2.619388 1_555
Na37 O105 2.545971 1_555
Na37 O115 2.553298 1_555
Na37 O107 2.565066 1_555
Na37 O119 2.609686 1_555
Na37 O117 2.618174 1_555
Na37 O103 2.621645 1_555
Na38 O124 2.487066 1_555
Na38 O120 2.547903 1_555
Na38 O122 2.555942 1_555
Na38 O134 2.621845 1_555
Na38 O132 2.633094 1_555
Na38 O136 2.684096 1_555
Na39 O125 2.458418 1_555
Na39 O121 2.493794 1_555
Na39 O123 2.577150 1_555
Na39 O135 2.621153 1_555
Na39 O133 2.692774 1_555
Na39 O137 2.735694 1_555
Na40 O130 2.476333 1_555
Na40 O128 2.539747 1_555
Na40 O126 2.542983 1_555
Na40 O140 2.643453 1_555
Na40 O138 2.644220 1_555
Na40 O142 2.698024 1_555
Na41 O131 2.483046 1_555
Na41 O129 2.539519 1_555
Na41 O127 2.544220 1_555
Na41 O139 2.639652 1_555
Na41 O141 2.644904 1_555
Na41 O143 2.694376 1_555
Mg0 O5 2.032255 1_555
Mg0 O3 2.039860 1_545
Mg0 O0 2.043353 1_655
Mg0 O75 2.136389 1_545
Mg0 O76 2.140160 1_655
Mg0 O72 2.156001 1_645
Mg1 O4 2.031909 1_555
Mg1 O2 2.039385 1_545
Mg1 O1 2.043074 1_555
Mg1 O74 2.133617 1_545
Mg1 O77 2.137232 1_555
Mg1 O73 2.152755 1_545
Mg2 O11 1.990442 1_555
Mg2 O6 2.070523 1_655
Mg2 O9 2.078858 1_545
Mg2 O78 2.097727 1_655
Mg2 O83 2.114303 1_545
Mg2 O80 2.185407 1_645
Mg3 O10 2.026674 1_555
Mg3 O8 2.038744 1_545
Mg3 O7 2.044757 1_555
Mg3 O82 2.136164 1_545
Mg3 O79 2.136681 1_555
Mg3 O81 2.158917 1_545
Mg4 O24 1.991605 1_555
Mg4 O26 2.066826 1_555
Mg4 O28 2.075921 1_555
Mg4 O100 2.120771 1_555
Mg4 O96 2.135511 1_555
Mg4 O98 2.190387 1_555
Mg5 O25 1.987302 1_555
Mg5 O27 2.066122 1_555
Mg5 O29 2.074954 1_555
Mg5 O101 2.121439 1_555
Mg5 O97 2.132637 1_555
Mg5 O99 2.198122 1_555
Mg6 O32 1.991878 1_555
Mg6 O30 2.069824 1_555
Mg6 O34 2.077731 1_555
Mg6 O106 2.117003 1_555
Mg6 O104 2.136163 1_555
Mg6 O102 2.187522 1_555
Mg7 O33 1.991631 1_555
Mg7 O35 2.071459 1_555
Mg7 O31 2.073329 1_555
Mg7 O107 2.105508 1_555
Mg7 O105 2.120225 1_555
Mg7 O103 2.162271 1_555
Mg8 O38 2.053838 1_556
Mg8 O36 2.055102 1_556
Mg8 O40 2.057031 1_556
Mg8 O112 2.157288 1_555
Mg8 O110 2.160222 1_555
Mg8 O108 2.177132 1_555
Mg9 O44 2.056086 1_555
Mg9 O42 2.057223 1_555
Mg9 O46 2.059522 1_555
Mg9 O114 2.151547 1_555
Mg9 O118 2.158835 1_555
Mg9 O116 2.172502 1_555
Mg10 O45 2.053680 1_555
Mg10 O47 2.057939 1_555
Mg10 O43 2.058839 1_555
Mg10 O115 2.150969 1_555
Mg10 O119 2.157608 1_555
Mg10 O117 2.173194 1_555
Mg11 O48 2.031330 1_554
Mg11 O50 2.039163 1_554
Mg11 O52 2.040294 1_554
Mg11 O124 2.129392 1_555
Mg11 O122 2.153228 1_555
Mg11 O120 2.156086 1_555
Mg12 O49 1.987043 1_554
Mg12 O51 2.073151 1_554
Mg12 O53 2.081313 1_554
Mg12 O125 2.099496 1_555
Mg12 O121 2.127547 1_555
Mg12 O123 2.185401 1_555
Mg13 O56 2.035008 1_555
Mg13 O54 2.037811 1_555
Mg13 O58 2.039153 1_555
Mg13 O130 2.139713 1_555
Mg13 O126 2.153681 1_555
Mg13 O128 2.161409 1_555
Mg14 O57 2.034982 1_555
Mg14 O55 2.036017 1_555
Mg14 O59 2.041174 1_555
Mg14 O131 2.141827 1_555
Mg14 O127 2.154393 1_555
Mg14 O129 2.160442 1_555
O0 P0 1.522951 1_555
O1 P1 1.521989 1_555
O2 P2 1.516246 1_555
O3 P3 1.518365 1_555
O4 P5 1.511049 1_555
O5 P4 1.512619 1_555
O6 P6 1.514530 1_555
O7 P7 1.519191 1_555
O8 P9 1.522814 1_555
O9 P8 1.520502 1_555
O10 P10 1.511509 1_555
O11 P11 1.489332 1_555
O12 P10 1.575535 1_565
O12 Zr1 2.067119 1_565
O13 P11 1.580803 1_565
O13 Zr0 2.062859 1_565
O14 P6 1.567743 1_555
O14 Zr0 2.057598 1_455
O15 P7 1.564273 1_555
O15 Zr1 2.060690 1_555
O16 P8 1.578103 1_455
O16 Zr0 2.077270 1_465
O17 P9 1.578474 1_555
O17 Zr1 2.075723 1_565
O18 P2 1.568002 1_555
O18 Zr3 2.054343 1_565
O19 P3 1.559846 1_555
O19 Zr2 2.022594 1_555
O20 P4 1.574942 1_455
O20 Zr2 2.085193 1_445
O21 P5 1.579266 1_555
O21 Zr3 2.062174 1_555
O22 P0 1.577364 1_565
O22 Zr2 2.090515 1_455
O23 P1 1.580002 1_565
O23 Zr3 2.073489 1_565
O24 P12 1.516276 1_555
O25 P13 1.517656 1_555
O26 P14 1.530905 1_555
O27 P15 1.531487 1_555
O28 P16 1.530869 1_555
O29 P17 1.532236 1_555
O30 P18 1.530608 1_555
O31 P19 1.517230 1_555
O32 P20 1.515063 1_555
O33 P21 1.508531 1_555
O34 P22 1.530944 1_555
O35 P23 1.511053 1_555
O36 P22 1.533955 1_555
O37 P23 1.576087 1_555
O37 Zr4 2.085838 1_554
O38 P18 1.534552 1_555
O39 P19 1.564724 1_555
O39 Zr4 2.079285 1_554
O40 P20 1.534763 1_555
O41 P21 1.576210 1_555
O41 Zr4 2.028646 1_554
O42 P14 1.532295 1_555
O43 P15 1.531255 1_555
O44 P16 1.532535 1_555
O45 P17 1.532218 1_555
O46 P12 1.533575 1_555
O47 P13 1.533169 1_555
O48 P24 1.529522 1_555
O49 P25 1.491512 1_555
O50 P26 1.524885 1_555
O51 P27 1.526396 1_555
O52 P28 1.531671 1_555
O53 P29 1.516802 1_555
O54 P30 1.530123 1_555
O55 P31 1.530299 1_555
O56 P32 1.530294 1_555
O57 P33 1.530724 1_555
O58 P34 1.530689 1_555
O59 P35 1.531103 1_555
O60 P34 1.585145 1_555
O60 Zr5 2.068553 1_555
O61 P35 1.583687 1_555
O61 Zr6 2.069668 1_555
O62 P30 1.578990 1_555
O62 Zr5 2.016889 1_555
O63 P31 1.578535 1_555
O63 Zr6 2.015950 1_555
O64 P32 1.584598 1_555
O64 Zr5 2.073602 1_555
O65 P33 1.583453 1_555
O65 Zr6 2.074531 1_555
O66 P26 1.570402 1_555
O66 Zr7 2.027799 1_555
O67 P27 1.581875 1_555
O67 Zr8 2.020023 1_555
O68 P28 1.586067 1_555
O68 Zr7 2.066399 1_555
O69 P29 1.565221 1_555
O69 Zr8 2.076466 1_555
O70 P24 1.583876 1_555
O70 Zr7 2.071927 1_555
O71 P25 1.580353 1_555
O71 Zr8 2.082585 1_555
O72 P34 1.544551 1_555
O73 P35 1.545202 1_555
O74 P30 1.542955 1_555
O75 P31 1.542549 1_555
O76 P32 1.544516 1_555
O77 P33 1.545020 1_555
O78 P26 1.518576 1_555
O79 P27 1.546931 1_555
O80 P28 1.542500 1_555
O81 P29 1.543876 1_555
O82 P24 1.545265 1_555
O83 P25 1.530137 1_555
O84 P12 1.599011 1_555
O84 Zr1 2.109483 1_555
O85 P13 1.597854 1_555
O85 Zr0 2.112025 1_555
O86 P14 1.595254 1_555
O86 Zr0 2.131109 1_455
O87 P15 1.595907 1_555
O87 Zr1 2.123944 1_555
O88 P16 1.596466 1_555
O88 Zr1 2.119917 1_565
O89 P17 1.595092 1_555
O89 Zr0 2.125071 1_565
O90 P18 1.597813 1_555
O90 Zr3 2.124449 1_565
O91 P19 1.566944 1_555
O91 Zr2 2.123755 1_555
O92 P20 1.599019 1_555
O92 Zr3 2.111970 1_555
O93 P21 1.571313 1_555
O93 Zr2 2.111659 1_545
O94 P22 1.591711 1_555
O94 Zr2 2.142126 1_445
O95 P23 1.596011 1_555
O95 Zr3 2.141760 1_555
O96 P10 1.522244 1_555
O97 P11 1.531791 1_555
O98 P6 1.538770 1_555
O99 P7 1.538251 1_555
O100 P9 1.521650 1_555
O101 P8 1.525618 1_555
O102 P2 1.536814 1_555
O103 P3 1.537016 1_555
O104 P5 1.523843 1_555
O105 P4 1.524464 1_555
O106 P0 1.523493 1_555
O107 P1 1.521301 1_555
O108 P24 1.543004 1_555
O109 P25 1.594219 1_555
O109 Zr4 2.149197 1_555
O110 P27 1.541020 1_555
O111 P26 1.569726 1_655
O111 Zr4 2.120662 1_555
O112 P28 1.542288 1_545
O113 P29 1.569073 1_545
O113 Zr4 2.119606 1_555
O114 P30 1.541412 1_545
O115 P31 1.541543 1_545
O116 P32 1.543953 1_555
O117 P33 1.543728 1_555
O118 P35 1.542891 1_555
O119 P34 1.542799 1_655
O120 P22 1.552533 1_555
O121 P23 1.524621 1_555
O122 P19 1.544458 1_455
O123 P18 1.547533 1_555
O124 P20 1.551652 1_565
O125 P21 1.523270 1_565
O126 P14 1.550783 1_565
O127 P15 1.549954 1_565
O128 P16 1.549989 1_555
O129 P17 1.550424 1_555
O130 P13 1.550436 1_455
O131 P12 1.550852 1_555
O132 P0 1.571316 1_565
O132 Zr5 2.135960 1_555
O133 P1 1.568174 1_565
O133 Zr6 2.133653 1_555
O134 P2 1.566197 1_555
O134 Zr5 2.128264 1_555
O135 P3 1.564844 1_555
O135 Zr6 2.123967 1_555
O136 P4 1.590605 1_455
O136 Zr5 2.166057 1_555
O137 P5 1.586137 1_555
O137 Zr6 2.164034 1_555
O138 P6 1.568506 1_555
O138 Zr7 2.121092 1_555
O139 P7 1.565425 1_555
O139 Zr8 2.125687 1_555
O140 P8 1.570330 1_455
O140 Zr7 2.130619 1_555
O141 P9 1.569590 1_555
O141 Zr8 2.138082 1_555
O142 P10 1.588122 1_565
O142 Zr7 2.152266 1_555
O143 P11 1.591436 1_565
O143 Zr8 2.152654 1_555
