# generated using pymatgen
data_Sc19(RuBr7)4
_symmetry_space_group_name_H-M   'P 1'
_cell_length_a   11.12282773
_cell_length_b   11.11296550
_cell_length_c   11.11965138
_cell_angle_alpha   89.08668945
_cell_angle_beta   89.51169938
_cell_angle_gamma   89.01999762
_symmetry_Int_Tables_number   1
_chemical_formula_structural   Sc19(RuBr7)4
_chemical_formula_sum   'Sc19 Ru4 Br28'
_cell_volume   1374.05100078
_cell_formula_units_Z   1
loop_
 _symmetry_equiv_pos_site_id
 _symmetry_equiv_pos_as_xyz
  1  'x, y, z'
loop_
 _atom_site_type_symbol
 _atom_site_label
 _atom_site_symmetry_multiplicity
 _atom_site_fract_x
 _atom_site_fract_y
 _atom_site_fract_z
 _atom_site_occupancy
  Sc  Sc0  1  0.32622378  0.11392111  0.11800800  1
  Sc  Sc1  1  0.11416096  0.32533207  0.11773236  1
  Sc  Sc2  1  0.11837158  0.11772983  0.32603015  1
  Sc  Sc3  1  0.32489815  0.88473311  0.88516878  1
  Sc  Sc4  1  0.11561654  0.67334032  0.88634633  1
  Sc  Sc5  1  0.11576392  0.88541163  0.67385101  1
  Sc  Sc6  1  0.67407692  0.88799458  0.11648450  1
  Sc  Sc7  1  0.88899037  0.67380923  0.11621271  1
  Sc  Sc8  1  0.88337926  0.88330098  0.32581572  1
  Sc  Sc9  1  0.67241308  0.11783188  0.88439598  1
  Sc  Sc10  1  0.88326370  0.32602016  0.88341880  1
  Sc  Sc11  1  0.88458746  0.11743766  0.67322874  1
  Sc  Sc12  1  0.86594597  0.86681715  0.86365667  1
  Sc  Sc13  1  0.86291453  0.13578833  0.13280884  1
  Sc  Sc14  1  0.13227896  0.13265679  0.86359536  1
  Sc  Sc15  1  0.13571127  0.86330471  0.13333104  1
  Sc  Sc16  1  0.38415952  0.61654107  0.62873475  1
  Sc  Sc17  1  0.62780590  0.61850968  0.38261360  1
  Sc  Sc18  1  0.61541955  0.39156285  0.61762386  1
  Ru  Ru0  1  0.09776194  0.09749255  0.09720377  1
  Ru  Ru1  1  0.09846763  0.89882091  0.89949622  1
  Ru  Ru2  1  0.89961641  0.89959276  0.09819520  1
  Ru  Ru3  1  0.89834524  0.09925754  0.89921961  1
  Br  Br0  1  0.60226041  0.12794225  0.12639402  1
  Br  Br1  1  0.12855778  0.60229472  0.12805056  1
  Br  Br2  1  0.12598904  0.12660725  0.60254146  1
  Br  Br3  1  0.60686892  0.87349188  0.87400247  1
  Br  Br4  1  0.12238735  0.39401725  0.87161879  1
  Br  Br5  1  0.12261063  0.87101372  0.39241140  1
  Br  Br6  1  0.39614803  0.86869068  0.12391367  1
  Br  Br7  1  0.86985816  0.39590743  0.12251644  1
  Br  Br8  1  0.87353919  0.87411376  0.60460564  1
  Br  Br9  1  0.39348072  0.12325757  0.87137236  1
  Br  Br10  1  0.87260048  0.60775364  0.87354815  1
  Br  Br11  1  0.87209472  0.12243309  0.39176898  1
  Br  Br12  1  0.63006780  0.63530098  0.62864029  1
  Br  Br13  1  0.63499251  0.38074229  0.38142614  1
  Br  Br14  1  0.37964942  0.37916500  0.63385813  1
  Br  Br15  1  0.38894374  0.63562453  0.38928925  1
  Br  Br16  1  0.10973766  0.35506648  0.35509093  1
  Br  Br17  1  0.35579748  0.10850915  0.35559586  1
  Br  Br18  1  0.35223726  0.35212859  0.11032658  1
  Br  Br19  1  0.13255752  0.63690891  0.63856288  1
  Br  Br20  1  0.36361646  0.87080545  0.63837007  1
  Br  Br21  1  0.36661522  0.63449105  0.87540918  1
  Br  Br22  1  0.87570810  0.63500391  0.36626876  1
  Br  Br23  1  0.63777049  0.87219440  0.36352025  1
  Br  Br24  1  0.64088994  0.63830830  0.13183319  1
  Br  Br25  1  0.86995736  0.36672544  0.63602148  1
  Br  Br26  1  0.63757050  0.13493312  0.63714553  1
  Br  Br27  1  0.63521745  0.36726524  0.87062356  1
loop_
_geom_bond_atom_site_label_1
_geom_bond_atom_site_label_2
_geom_bond_distance
_geom_bond_site_symmetry_2
Ru0 Sc1 2.555621 1_555
Ru0 Sc0 2.563491 1_555
Ru0 Sc2 2.570487 1_555
Ru0 Sc14 2.646438 1_554
Ru0 Sc15 2.654177 1_545
Ru0 Sc13 2.666646 1_455
Ru1 Sc4 2.516236 1_555
Ru1 Sc5 2.521407 1_555
Ru1 Sc3 2.524568 1_555
Ru1 Sc12 2.651000 1_455
Ru1 Sc14 2.655442 1_565
Ru1 Sc15 2.658623 1_556
Ru2 Sc7 2.518637 1_555
Ru2 Sc6 2.520468 1_555
Ru2 Sc8 2.539761 1_555
Ru2 Sc12 2.669479 1_554
Ru2 Sc15 2.680972 1_655
Ru2 Sc13 2.682800 1_565
Ru3 Sc11 2.523571 1_555
Ru3 Sc9 2.524520 1_555
Ru3 Sc10 2.526136 1_555
Ru3 Sc12 2.650566 1_545
Ru3 Sc14 2.660054 1_655
Ru3 Sc13 2.660349 1_556
Br0 Sc6 2.774097 1_545
Br0 Sc9 2.798832 1_554
Br0 Sc13 2.903530 1_555
Br0 Sc0 3.079200 1_555
Br1 Sc7 2.771207 1_455
Br1 Sc4 2.793329 1_554
Br1 Sc15 2.904588 1_555
Br1 Sc1 3.088780 1_555
Br2 Sc5 2.786998 1_545
Br2 Sc11 2.794393 1_455
Br2 Sc14 2.906144 1_555
Br2 Sc2 3.079796 1_555
Br3 Sc6 2.811982 1_556
Br3 Sc9 2.827912 1_565
Br3 Sc12 2.882718 1_555
Br3 Sc3 3.138142 1_555
Br4 Sc10 2.778855 1_455
Br4 Sc1 2.830553 1_556
Br4 Sc14 2.907454 1_555
Br4 Sc4 3.110623 1_555
Br5 Sc8 2.768663 1_455
Br5 Sc2 2.827703 1_565
Br5 Sc15 2.885888 1_555
Br5 Sc5 3.136355 1_555
Br6 Sc3 2.779124 1_554
Br6 Sc0 2.821134 1_565
Br6 Sc15 2.899400 1_555
Br6 Sc6 3.102755 1_555
Br7 Sc10 2.783725 1_554
Br7 Sc1 2.815644 1_655
Br7 Sc13 2.893461 1_555
Br7 Sc7 3.098903 1_555
Br8 Sc5 2.813804 1_655
Br8 Sc11 2.826305 1_565
Br8 Sc12 2.880965 1_555
Br8 Sc8 3.101161 1_555
Br9 Sc3 2.772353 1_545
Br9 Sc0 2.837311 1_556
Br9 Sc14 2.907367 1_555
Br9 Sc9 3.106638 1_555
Br10 Sc7 2.815897 1_556
Br10 Sc4 2.816930 1_655
Br10 Sc12 2.879021 1_555
Br10 Sc10 3.131322 1_555
Br11 Sc8 2.768552 1_545
Br11 Sc2 2.828959 1_655
Br11 Sc13 2.883593 1_555
Br11 Sc11 3.133566 1_555
Br12 Sc18 2.721097 1_555
Br12 Sc17 2.745412 1_555
Br12 Sc16 2.746672 1_555
Br13 Sc18 2.638077 1_555
Br13 Sc17 2.642383 1_555
Br14 Sc18 2.632909 1_555
Br14 Sc16 2.638985 1_555
Br15 Sc17 2.660864 1_555
Br15 Sc16 2.667762 1_555
Br16 Sc2 2.662349 1_555
Br16 Sc1 2.665105 1_555
Br17 Sc2 2.664043 1_555
Br17 Sc0 2.664676 1_555
Br18 Sc0 2.667810 1_555
Br18 Sc1 2.670257 1_555
Br19 Sc4 2.795534 1_555
Br19 Sc5 2.798385 1_555
Br19 Sc16 2.805144 1_555
Br20 Sc3 2.780613 1_555
Br20 Sc5 2.783930 1_555
Br20 Sc16 2.834613 1_555
Br21 Sc16 2.758359 1_555
Br21 Sc3 2.815188 1_555
Br21 Sc4 2.819587 1_555
Br22 Sc17 2.770817 1_555
Br22 Sc8 2.791287 1_555
Br22 Sc7 2.810005 1_555
Br23 Sc8 2.764861 1_555
Br23 Sc6 2.776291 1_555
Br23 Sc17 2.827790 1_555
Br24 Sc17 2.796506 1_555
Br24 Sc7 2.797852 1_555
Br24 Sc6 2.807761 1_555
Br25 Sc10 2.785562 1_555
Br25 Sc11 2.796704 1_555
Br25 Sc18 2.848677 1_555
Br26 Sc9 2.782833 1_555
Br26 Sc11 2.783114 1_555
Br26 Sc18 2.863284 1_555
Br27 Sc10 2.793498 1_555
Br27 Sc9 2.797608 1_555
Br27 Sc18 2.831994 1_555
