# generated using pymatgen
data_Ba2YMgCu3O7
_symmetry_space_group_name_H-M   'P 1'
_cell_length_a   3.76264700
_cell_length_b   4.16345000
_cell_length_c   13.17106700
_cell_angle_alpha   90.00000000
_cell_angle_beta   90.00000000
_cell_angle_gamma   90.00000000
_symmetry_Int_Tables_number   1
_chemical_formula_structural   Ba2YMgCu3O7
_chemical_formula_sum   'Ba2 Y1 Mg1 Cu3 O7'
_cell_volume   206.33257042
_cell_formula_units_Z   1
loop_
 _symmetry_equiv_pos_site_id
 _symmetry_equiv_pos_as_xyz
  1  'x, y, z'
loop_
 _atom_site_type_symbol
 _atom_site_label
 _atom_site_symmetry_multiplicity
 _atom_site_fract_x
 _atom_site_fract_y
 _atom_site_fract_z
 _atom_site_occupancy
  Ba  Ba0  1  0.50000000  0.56047600  0.77030500  1
  Ba  Ba1  1  0.50000000  0.56047600  0.22969500  1
  Y  Y0  1  0.50000000  0.53755100  0.50000000  1
  Mg  Mg0  1  0.50000000  0.26190900  0.00000000  1
  Cu  Cu0  1  0.00000000  0.03921500  0.61025800  1
  Cu  Cu1  1  0.00000000  0.03921500  0.38974200  1
  Cu  Cu2  1  0.00000000  0.86994200  0.00000000  1
  O  O0  1  0.00000000  0.39959100  0.00000000  1
  O  O1  1  0.50000000  0.03446100  0.61128400  1
  O  O2  1  0.50000000  0.03446100  0.38871600  1
  O  O3  1  0.00000000  0.53771100  0.61119400  1
  O  O4  1  0.00000000  0.53771100  0.38880600  1
  O  O5  1  0.00000000  0.92697400  0.85585400  1
  O  O6  1  0.00000000  0.92697400  0.14414600  1
loop_
_geom_bond_atom_site_label_1
_geom_bond_atom_site_label_2
_geom_bond_distance
_geom_bond_site_symmetry_2
Ba0 O5 2.671582 1_655
Ba0 O5 2.671582 1_555
Ba0 O3 2.817829 1_555
Ba0 O3 2.817829 1_655
Ba0 O1 2.877706 1_565
Ba0 O1 3.030362 1_555
Ba0 Mg0 3.270754 1_556
Ba0 O5 3.430114 1_545
Ba0 O5 3.430114 1_645
Ba1 O6 2.671582 1_655
Ba1 O6 2.671582 1_555
Ba1 O4 2.817829 1_555
Ba1 O4 2.817829 1_655
Ba1 O2 2.877706 1_565
Ba1 O2 3.030362 1_555
Ba1 Mg0 3.270754 1_555
Ba1 O6 3.430114 1_545
Ba1 O6 3.430114 1_645
Mg0 O0 1.966716 1_655
Mg0 O0 1.966716 1_555
Cu0 O1 1.881476 1_555
Cu0 O1 1.881476 1_455
Cu0 O3 2.075500 1_555
Cu0 O3 2.088023 1_545
Cu1 O2 1.881476 1_555
Cu1 O2 1.881476 1_455
Cu1 O4 2.075500 1_555
Cu1 O4 2.088023 1_545
Cu2 O6 1.913348 1_555
Cu2 O5 1.913348 1_554
Cu2 O0 1.958283 1_555
Cu2 O0 2.205167 1_565
O1 Y0 2.535457 1_545
O1 Y0 2.556495 1_555
O2 Y0 2.535457 1_545
O2 Y0 2.556495 1_555
O3 Y0 2.384170 1_455
O3 Y0 2.384170 1_555
O4 Y0 2.384170 1_455
O4 Y0 2.384170 1_555
