# generated using pymatgen
data_Li2ZnGe
_symmetry_space_group_name_H-M   'P 1'
_cell_length_a   4.24633923
_cell_length_b   4.24634012
_cell_length_c   16.47530702
_cell_angle_alpha   90.00029205
_cell_angle_beta   89.99973108
_cell_angle_gamma   120.00091134
_symmetry_Int_Tables_number   1
_chemical_formula_structural   Li2ZnGe
_chemical_formula_sum   'Li8 Zn4 Ge4'
_cell_volume   257.27028191
_cell_formula_units_Z   4
loop_
 _symmetry_equiv_pos_site_id
 _symmetry_equiv_pos_as_xyz
  1  'x, y, z'
loop_
 _atom_site_type_symbol
 _atom_site_label
 _atom_site_symmetry_multiplicity
 _atom_site_fract_x
 _atom_site_fract_y
 _atom_site_fract_z
 _atom_site_occupancy
  Li  Li0  1  0.33333566  0.66666502  0.20874320  1
  Li  Li1  1  0.33332995  0.66666985  0.04127686  1
  Li  Li2  1  0.66666643  0.33333339  0.79125958  1
  Li  Li3  1  0.66666817  0.33333252  0.45868746  1
  Li  Li4  1  0.66666961  0.33333125  0.29127754  1
  Li  Li5  1  0.33333063  0.66666972  0.70872215  1
  Li  Li6  1  0.66666713  0.33333294  0.95872499  1
  Li  Li7  1  0.33333396  0.66666677  0.54131396  1
  Zn  Zn0  1  0.00000925  -0.00001029  0.12557977  1
  Zn  Zn1  1  -0.00000882  0.00001089  0.62429227  1
  Zn  Zn2  1  -0.00000257  0.00000230  0.37570078  1
  Zn  Zn3  1  -0.00000269  -0.00000121  0.87441999  1
  Ge  Ge0  1  0.66666580  0.33333637  0.62498343  1
  Ge  Ge1  1  0.66668526  0.33331414  0.12505711  1
  Ge  Ge2  1  0.33332435  0.66667248  0.87494715  1
  Ge  Ge3  1  0.33332487  0.66667485  0.37501474  1
loop_
_geom_bond_atom_site_label_1
_geom_bond_atom_site_label_2
_geom_bond_distance
_geom_bond_site_symmetry_2
Li0 Li1 2.759059 1_555
Li0 Li4 2.803449 1_455
Li0 Li4 2.803449 1_565
Li0 Li4 2.803494 1_555
Li0 Zn0 2.808482 1_565
Li0 Zn0 2.808515 1_665
Li0 Zn0 2.808520 1_555
Li1 Li6 2.803584 1_454
Li1 Li6 2.803587 1_564
Li1 Li6 2.803641 1_554
Li1 Zn0 2.817641 1_565
Li1 Zn0 2.817745 1_665
Li1 Zn0 2.817749 1_555
Li2 Li6 2.759044 1_555
Li2 Li5 2.803465 1_545
Li2 Li5 2.803468 1_655
Li2 Li5 2.803533 1_555
Li2 Zn3 2.808464 1_665
Li2 Zn3 2.808476 1_555
Li2 Zn3 2.808504 1_655
Li3 Li4 2.758130 1_555
Li3 Li7 2.804191 1_655
Li3 Li7 2.804192 1_545
Li3 Li7 2.804219 1_555
Li3 Zn2 2.807076 1_655
Li3 Zn2 2.807090 1_665
Li3 Zn2 2.807092 1_555
Li4 Zn2 2.818684 1_655
Li4 Zn2 2.818690 1_665
Li4 Zn2 2.818694 1_555
Li5 Li7 2.758101 1_555
Li5 Zn1 2.818705 1_555
Li5 Zn1 2.818711 1_665
Li5 Zn1 2.818815 1_565
Li6 Zn3 2.817721 1_665
Li6 Zn3 2.817732 1_555
Li6 Zn3 2.817734 1_655
Li7 Zn1 2.806978 1_555
Li7 Zn1 2.806981 1_665
Li7 Zn1 2.807097 1_565
Ge0 Zn1 2.451605 1_655
Ge0 Zn1 2.451658 1_555
Ge0 Zn1 2.451658 1_665
Ge0 Li2 2.739451 1_555
Ge0 Li3 2.739777 1_555
Ge0 Li7 2.812574 1_655
Ge0 Li7 2.812578 1_545
Ge0 Li7 2.812595 1_555
Ge0 Li5 2.813129 1_655
Ge0 Li5 2.813136 1_545
Ge0 Li5 2.813160 1_555
Ge1 Zn0 2.451585 1_655
Ge1 Zn0 2.451651 1_665
Ge1 Zn0 2.451652 1_555
Ge1 Li4 2.738533 1_555
Ge1 Li6 2.740373 1_554
Ge1 Li0 2.812655 1_545
Ge1 Li0 2.812657 1_655
Ge1 Li0 2.812838 1_555
Ge1 Li1 2.813392 1_545
Ge1 Li1 2.813394 1_655
Ge1 Li1 2.813646 1_555
Ge2 Zn3 2.451603 1_565
Ge2 Zn3 2.451641 1_665
Ge2 Zn3 2.451644 1_555
Ge2 Li5 2.738608 1_555
Ge2 Li1 2.740333 1_556
Ge2 Li2 2.812693 1_455
Ge2 Li2 2.812704 1_565
Ge2 Li2 2.812788 1_555
Ge2 Li6 2.813415 1_455
Ge2 Li6 2.813425 1_565
Ge2 Li6 2.813534 1_555
Ge3 Zn2 2.451619 1_565
Ge3 Zn2 2.451650 1_665
Ge3 Zn2 2.451651 1_555
Ge3 Li0 2.739375 1_555
Ge3 Li7 2.739831 1_555
Ge3 Li3 2.812564 1_455
Ge3 Li3 2.812566 1_565
Ge3 Li3 2.812696 1_555
Ge3 Li4 2.813086 1_455
Ge3 Li4 2.813091 1_565
Ge3 Li4 2.813212 1_555
