# generated using pymatgen
data_La(SiP3)2
_symmetry_space_group_name_H-M   'P 1'
_cell_length_a   15.06258485
_cell_length_b   15.06258485
_cell_length_c   10.45976200
_cell_angle_alpha   90.00000000
_cell_angle_beta   90.00000000
_cell_angle_gamma   140.40850337
_symmetry_Int_Tables_number   1
_chemical_formula_structural   La(SiP3)2
_chemical_formula_sum   'La8 Si16 P48'
_cell_volume   1512.41611550
_cell_formula_units_Z   8
loop_
 _symmetry_equiv_pos_site_id
 _symmetry_equiv_pos_as_xyz
  1  'x, y, z'
loop_
 _atom_site_type_symbol
 _atom_site_label
 _atom_site_symmetry_multiplicity
 _atom_site_fract_x
 _atom_site_fract_y
 _atom_site_fract_z
 _atom_site_occupancy
  La  La0  1  0.54126400  0.45873600  0.57568400  1
  La  La1  1  0.45873600  0.54126400  0.07568400  1
  La  La2  1  0.26587400  0.73412600  0.61434000  1
  La  La3  1  0.73412600  0.26587400  0.11434000  1
  La  La4  1  0.18975100  0.81024900  0.09569500  1
  La  La5  1  0.81024900  0.18975100  0.59569500  1
  La  La6  1  0.08109200  0.91890800  0.50026000  1
  La  La7  1  0.91890800  0.08109200  0.00026000  1
  Si  Si0  1  0.74138400  0.58020300  0.17736600  1
  Si  Si1  1  0.48750700  0.15744400  0.71840600  1
  Si  Si2  1  0.51249300  0.84255600  0.21840600  1
  Si  Si3  1  0.84255600  0.51249300  0.71840600  1
  Si  Si4  1  0.15744400  0.48750700  0.21840600  1
  Si  Si5  1  0.49328000  0.84988500  0.88509800  1
  Si  Si6  1  0.50672000  0.15011500  0.38509800  1
  Si  Si7  1  0.15011500  0.50672000  0.88509800  1
  Si  Si8  1  0.84988500  0.49328000  0.38509800  1
  Si  Si9  1  0.25861600  0.41979700  0.67736600  1
  Si  Si10  1  0.41979700  0.25861600  0.17736600  1
  Si  Si11  1  0.58020300  0.74138400  0.67736600  1
  Si  Si12  1  0.10420900  0.23701900  0.35842500  1
  Si  Si13  1  0.89579100  0.76298100  0.85842500  1
  Si  Si14  1  0.76298100  0.89579100  0.35842500  1
  Si  Si15  1  0.23701900  0.10420900  0.85842500  1
  P  P0  1  0.39846100  0.93184100  0.38545700  1
  P  P1  1  0.72680900  0.27319100  0.40324500  1
  P  P2  1  0.27319100  0.72680900  0.90324500  1
  P  P3  1  0.54220100  0.45779900  0.27827800  1
  P  P4  1  0.45779900  0.54220100  0.77827800  1
  P  P5  1  0.42244300  0.57755700  0.35622200  1
  P  P6  1  0.57755700  0.42244300  0.85622200  1
  P  P7  1  0.65612300  0.34387700  0.85296600  1
  P  P8  1  0.00872400  0.30032600  0.35375500  1
  P  P9  1  0.99127600  0.69967400  0.85375500  1
  P  P10  1  0.69967400  0.99127600  0.35375500  1
  P  P11  1  0.30032600  0.00872400  0.85375500  1
  P  P12  1  0.17105900  0.22967100  0.17171000  1
  P  P13  1  0.82894100  0.77032900  0.67171000  1
  P  P14  1  0.77032900  0.82894100  0.17171000  1
  P  P15  1  0.22967100  0.17105900  0.67171000  1
  P  P16  1  0.86090200  0.54776500  0.17792000  1
  P  P17  1  0.13909800  0.45223500  0.67792000  1
  P  P18  1  0.45223500  0.13909800  0.17792000  1
  P  P19  1  0.54776500  0.86090200  0.67792000  1
  P  P20  1  0.05016000  0.53442100  0.18819700  1
  P  P21  1  0.94984000  0.46557900  0.68819700  1
  P  P22  1  0.46557900  0.94984000  0.18819700  1
  P  P23  1  0.53442100  0.05016000  0.68819700  1
  P  P24  1  0.17077900  0.41565100  0.03701000  1
  P  P25  1  0.82922100  0.58434900  0.53701000  1
  P  P26  1  0.58434900  0.82922100  0.03701000  1
  P  P27  1  0.41565100  0.17077900  0.53701000  1
  P  P28  1  0.06815900  0.60153900  0.38545700  1
  P  P29  1  0.93184100  0.39846100  0.88545700  1
  P  P30  1  0.34387700  0.65612300  0.35296600  1
  P  P31  1  0.60153900  0.06815900  0.88545700  1
  P  P32  1  0.88223900  0.79835900  0.25292500  1
  P  P33  1  0.11776100  0.20164100  0.75292500  1
  P  P34  1  0.20164100  0.11776100  0.25292500  1
  P  P35  1  0.79835900  0.88223900  0.75292500  1
  P  P36  1  0.29979700  0.39379600  0.47884700  1
  P  P37  1  0.70020300  0.60620400  0.97884700  1
  P  P38  1  0.18237700  0.81762300  0.37918800  1
  P  P39  1  0.39379600  0.29979700  0.97884700  1
  P  P40  1  0.96902800  0.03097200  0.46261000  1
  P  P41  1  0.03097200  0.96902800  0.96261000  1
  P  P42  1  0.92515500  0.07484500  0.63894200  1
  P  P43  1  0.07484500  0.92515500  0.13894200  1
  P  P44  1  0.84527100  0.15472900  0.20771000  1
  P  P45  1  0.15472900  0.84527100  0.70771000  1
  P  P46  1  0.81762300  0.18237700  0.87918800  1
  P  P47  1  0.60620400  0.70020300  0.47884700  1
loop_
_geom_bond_atom_site_label_1
_geom_bond_atom_site_label_2
_geom_bond_distance
_geom_bond_site_symmetry_2
La0 P6 3.109460 1_555
La0 P3 3.110909 1_555
La0 P36 3.119006 1_555
La0 P47 3.119006 1_555
La0 P25 3.147741 1_555
La0 P27 3.147741 1_555
La0 P4 3.176096 1_555
La0 P15 3.235585 1_555
La0 P13 3.235585 1_555
La1 P5 3.109460 1_555
La1 P4 3.110909 1_554
La1 P39 3.119006 1_554
La1 P37 3.119006 1_554
La1 P26 3.147741 1_555
La1 P24 3.147741 1_555
La1 P3 3.176096 1_555
La1 P12 3.235585 1_555
La1 P14 3.235585 1_555
La2 P2 3.028986 1_555
La2 P28 3.069615 1_555
La2 P0 3.069615 1_555
La2 P19 3.101780 1_555
La2 P17 3.101780 1_555
La2 P21 3.153174 1_455
La2 P23 3.153174 1_565
La2 P45 3.298305 1_555
La2 P30 3.516070 1_555
La3 P1 3.028986 1_555
La3 P31 3.069615 1_554
La3 P29 3.069615 1_554
La3 P18 3.101780 1_555
La3 P16 3.101780 1_555
La3 P22 3.153174 1_545
La3 P20 3.153174 1_655
La3 P44 3.298305 1_555
La3 P7 3.516070 1_554
La4 P38 2.972627 1_555
La4 P20 3.025717 1_555
La4 P22 3.025717 1_555
La4 P2 3.105769 1_554
La4 P11 3.231328 1_564
La4 P9 3.231328 1_454
La4 P18 3.274709 1_565
La4 P16 3.274709 1_455
La4 P43 3.288268 1_555
La5 P46 2.972627 1_555
La5 P21 3.025717 1_555
La5 P23 3.025717 1_555
La5 P1 3.105769 1_555
La5 P8 3.231328 1_655
La5 P10 3.231328 1_545
La5 P17 3.274709 1_655
La5 P19 3.274709 1_545
La5 P42 3.288268 1_555
La6 P45 3.010802 1_555
La6 P13 3.090221 1_455
La6 P15 3.090221 1_565
La6 P38 3.137818 1_555
La6 P40 3.200767 1_465
La6 P25 3.235770 1_455
La6 P27 3.235770 1_565
La6 P32 3.252572 1_455
La6 P34 3.252572 1_565
La7 P44 3.010802 1_555
La7 P14 3.090221 1_545
La7 P12 3.090221 1_655
La7 P46 3.137818 1_554
La7 P41 3.200767 1_644
La7 P26 3.235770 1_545
La7 P24 3.235770 1_655
La7 P33 3.252572 1_654
La7 P35 3.252572 1_544
P0 P38 2.219815 1_555
P0 P22 2.220431 1_555
P0 Si6 2.281596 1_565
P1 Si8 2.234027 1_555
P1 Si6 2.234027 1_555
P2 Si5 2.234027 1_555
P2 Si7 2.234027 1_555
P3 Si10 2.233690 1_555
P3 Si0 2.233690 1_555
P4 Si9 2.233690 1_555
P4 Si11 2.233690 1_555
P6 P7 2.227210 1_555
P7 Si1 2.307618 1_555
P7 Si3 2.307618 1_555
P8 Si12 2.256983 1_555
P8 Si4 2.288553 1_555
P9 Si13 2.256983 1_555
P9 Si3 2.288553 1_555
P10 P44 2.209760 1_565
P10 Si14 2.256983 1_555
P10 Si2 2.288553 1_555
P11 P45 2.209760 1_545
P11 Si15 2.256983 1_555
P11 Si1 2.288553 1_555
P12 P34 2.229795 1_555
P12 Si12 2.238776 1_555
P13 P35 2.229795 1_555
P13 Si13 2.238776 1_555
P14 P32 2.229795 1_555
P14 Si14 2.238776 1_555
P15 P33 2.229795 1_555
P15 Si15 2.238776 1_555
P16 Si0 2.198936 1_555
P16 Si8 2.277542 1_555
P17 Si9 2.198936 1_555
P17 Si7 2.277542 1_555
P18 Si10 2.198936 1_555
P18 Si6 2.277542 1_555
P19 Si11 2.198936 1_555
P19 Si5 2.277542 1_555
P20 P28 2.220431 1_555
P20 Si4 2.229465 1_555
P21 P29 2.220431 1_555
P21 Si3 2.229465 1_555
P22 Si2 2.229465 1_555
P23 P31 2.220431 1_555
P23 Si1 2.229465 1_555
P24 Si4 2.268662 1_555
P24 Si7 2.271865 1_554
P25 Si3 2.268662 1_555
P25 Si8 2.271865 1_555
P26 Si2 2.268662 1_555
P26 Si5 2.271865 1_554
P27 Si1 2.268662 1_555
P27 Si6 2.271865 1_555
P28 P38 2.219815 1_555
P28 Si8 2.281596 1_455
P29 P46 2.219815 1_555
P29 Si7 2.281596 1_655
P30 P5 2.227210 1_555
P30 Si4 2.307618 1_555
P30 Si2 2.307618 1_555
P31 P46 2.219815 1_555
P31 Si5 2.281596 1_545
P32 P43 2.223979 1_655
P32 Si0 2.275707 1_555
P33 P42 2.223979 1_455
P33 Si9 2.275707 1_555
P34 P43 2.223979 1_545
P34 Si10 2.275707 1_555
P35 P42 2.223979 1_565
P35 Si11 2.275707 1_555
P36 P5 2.199653 1_555
P36 Si12 2.262759 1_555
P36 Si9 2.285662 1_555
P37 P6 2.199653 1_555
P37 Si13 2.262759 1_555
P37 Si0 2.285662 1_556
P39 P6 2.199653 1_555
P39 Si15 2.262759 1_555
P39 Si10 2.285662 1_556
P40 P42 2.224469 1_555
P40 Si14 2.286094 1_545
P40 Si12 2.286094 1_655
P41 P43 2.224469 1_556
P41 Si13 2.286094 1_455
P41 Si15 2.286094 1_565
P44 P8 2.209760 1_655
P45 P9 2.209760 1_455
P47 P5 2.199653 1_555
P47 Si14 2.262759 1_555
P47 Si11 2.285662 1_555
