# generated using pymatgen
data_Li2FePO4F
_symmetry_space_group_name_H-M   'P 1'
_cell_length_a   5.37448807
_cell_length_b   10.89152781
_cell_length_c   7.53486711
_cell_angle_alpha   72.26505432
_cell_angle_beta   71.54185624
_cell_angle_gamma   95.00030777
_symmetry_Int_Tables_number   1
_chemical_formula_structural   Li2FePO4F
_chemical_formula_sum   'Li8 Fe4 P4 O16 F4'
_cell_volume   390.17524952
_cell_formula_units_Z   4
loop_
 _symmetry_equiv_pos_site_id
 _symmetry_equiv_pos_as_xyz
  1  'x, y, z'
loop_
 _atom_site_type_symbol
 _atom_site_label
 _atom_site_symmetry_multiplicity
 _atom_site_fract_x
 _atom_site_fract_y
 _atom_site_fract_z
 _atom_site_occupancy
  Li  Li0  1  0.84248700  0.22743100  0.11818100  1
  Li  Li1  1  0.84181900  0.72738200  0.11846700  1
  Li  Li2  1  0.48485500  0.41716400  0.86247200  1
  Li  Li3  1  0.48447000  0.91729800  0.86262500  1
  Li  Li4  1  0.51025100  0.02875700  0.47821100  1
  Li  Li5  1  0.50993500  0.52887300  0.47859300  1
  Li  Li6  1  0.22810600  0.27606500  0.70542100  1
  Li  Li7  1  0.22759800  0.77596600  0.70597200  1
  Fe  Fe0  1  0.99193700  0.00061500  0.01774200  1
  Fe  Fe1  1  0.00715600  0.00046800  0.50351800  1
  Fe  Fe2  1  0.99217700  0.50084500  0.01777800  1
  Fe  Fe3  1  0.00717600  0.50079200  0.50306200  1
  P  P0  1  0.34005700  0.31311100  0.26058100  1
  P  P1  1  0.33973200  0.81313800  0.26077000  1
  P  P2  1  0.65556700  0.18329100  0.76884100  1
  P  P3  1  0.65521900  0.68336500  0.76887800  1
  O  O0  1  0.72063800  0.09885100  0.63272100  1
  O  O1  1  0.72006700  0.59873700  0.63304900  1
  O  O2  1  0.27758900  0.38237000  0.41773800  1
  O  O3  1  0.27754400  0.88231900  0.41801400  1
  O  O4  1  0.67263300  0.33202100  0.65602200  1
  O  O5  1  0.67283200  0.83210300  0.65584900  1
  O  O6  1  0.85522300  0.17315300  0.88152700  1
  O  O7  1  0.85452300  0.67311800  0.88183600  1
  O  O8  1  0.14899600  0.33435200  0.14106600  1
  O  O9  1  0.14833000  0.83424400  0.14157500  1
  O  O10  1  0.62985000  0.37161400  0.09883600  1
  O  O11  1  0.62939300  0.87166300  0.09889600  1
  O  O12  1  0.32487900  0.16546700  0.36888600  1
  O  O13  1  0.32467600  0.66547200  0.36895000  1
  O  O14  1  0.35820500  0.13025500  0.90813900  1
  O  O15  1  0.35762600  0.63072300  0.90796000  1
  F  F0  1  0.17990200  0.44474800  0.74659800  1
  F  F1  1  0.18008900  0.94467000  0.74685300  1
  F  F2  1  0.84654900  0.05395600  0.27354000  1
  F  F3  1  0.84614900  0.55397100  0.27364700  1
loop_
_geom_bond_atom_site_label_1
_geom_bond_atom_site_label_2
_geom_bond_distance
_geom_bond_site_symmetry_2
Li0 O8 2.016769 1_655
Li0 O10 2.017974 1_555
Li0 O6 2.026277 1_554
Li1 O9 2.017310 1_655
Li1 O11 2.018114 1_555
Li1 O7 2.026063 1_554
Li2 O4 2.084743 1_555
Li2 O10 2.105513 1_556
Li2 O1 2.143593 1_555
Li2 O8 2.154445 1_556
Li3 O5 2.087837 1_555
Li3 O11 2.104644 1_556
Li3 O0 2.145994 1_565
Li3 O9 2.156879 1_556
Li4 O12 1.979704 1_555
Li4 O0 2.107445 1_555
Li4 O3 2.183109 1_545
Li4 O5 2.542221 1_545
Li5 O13 1.979301 1_555
Li5 O1 2.104963 1_555
Li5 O2 2.185557 1_555
Li5 O4 2.543529 1_555
Li6 O6 2.012895 1_455
Li6 O2 2.040164 1_555
Li6 O14 2.176257 1_555
Li6 O4 2.294051 1_555
Li7 O7 2.013153 1_455
Li7 O3 2.041409 1_555
Li7 O15 2.169470 1_555
Li7 O5 2.296622 1_555
Fe0 O14 2.079990 1_654
Fe0 O11 2.094841 1_545
Fe0 O9 2.143047 1_645
Fe0 O6 2.160532 1_554
Fe1 O3 2.102614 1_545
Fe1 O12 2.105237 1_555
Fe1 O0 2.107392 1_455
Fe1 O5 2.178539 1_445
Fe2 O15 2.077699 1_654
Fe2 O10 2.095605 1_555
Fe2 O8 2.144186 1_655
Fe2 O7 2.160567 1_554
Fe3 O13 2.102465 1_555
Fe3 O2 2.104606 1_555
Fe3 O1 2.108274 1_455
Fe3 O4 2.181969 1_455
O0 P2 1.556814 1_555
O1 P3 1.556712 1_555
O2 P0 1.555817 1_555
O3 P1 1.555719 1_555
O4 P2 1.562340 1_555
O5 P3 1.562150 1_555
O6 P2 1.557247 1_555
O7 P3 1.557085 1_555
O8 P0 1.555296 1_555
O9 P1 1.555033 1_555
O10 P0 1.571311 1_555
O11 P1 1.571157 1_555
O12 P0 1.547255 1_555
O13 P1 1.547416 1_555
O14 P2 1.548217 1_555
O15 P3 1.548483 1_555
F0 Li6 1.979416 1_555
F0 Li2 2.090675 1_555
F0 Li5 2.094029 1_555
F0 Fe3 2.257584 1_555
F0 Fe2 2.264717 1_456
F1 Li7 1.978152 1_555
F1 Li3 2.087147 1_555
F1 Li4 2.097054 1_565
F1 Fe1 2.256895 1_565
F1 Fe0 2.262325 1_466
F2 Li4 1.900278 1_555
F2 Li0 1.901729 1_555
F2 Fe0 2.114386 1_555
F2 Fe1 2.122980 1_655
F3 Li5 1.901142 1_555
F3 Li1 1.901162 1_555
F3 Fe2 2.113851 1_555
F3 Fe3 2.120678 1_655
