# generated using pymatgen
data_MgZn(FeO2)4
_symmetry_space_group_name_H-M   'P 1'
_cell_length_a   2.98523472
_cell_length_b   7.64170125
_cell_length_c   7.65613535
_cell_angle_alpha   75.28784716
_cell_angle_beta   78.75774064
_cell_angle_gamma   78.74644982
_symmetry_Int_Tables_number   1
_chemical_formula_structural   MgZn(FeO2)4
_chemical_formula_sum   'Mg1 Zn1 Fe4 O8'
_cell_volume   163.72201612
_cell_formula_units_Z   1
loop_
 _symmetry_equiv_pos_site_id
 _symmetry_equiv_pos_as_xyz
  1  'x, y, z'
loop_
 _atom_site_type_symbol
 _atom_site_label
 _atom_site_symmetry_multiplicity
 _atom_site_fract_x
 _atom_site_fract_y
 _atom_site_fract_z
 _atom_site_occupancy
  Mg  Mg0  1  0.67729900  0.82094800  0.82769500  1
  Zn  Zn0  1  0.30693600  0.16087300  0.22935100  1
  Fe  Fe0  1  0.61705800  0.18251200  0.58729800  1
  Fe  Fe1  1  0.13303300  0.52733300  0.20972000  1
  Fe  Fe2  1  0.85240400  0.45439800  0.84539400  1
  Fe  Fe3  1  0.36763900  0.79807000  0.47020000  1
  O  O0  1  0.85191200  0.67558800  0.62403100  1
  O  O1  1  0.45333100  0.31298100  0.78485700  1
  O  O2  1  0.53130500  0.67060800  0.27002600  1
  O  O3  1  0.12858900  0.31088500  0.43586900  1
  O  O4  1  0.15520900  0.99365000  0.69992200  1
  O  O5  1  0.77146000  0.34543000  0.11543200  1
  O  O6  1  0.82716200  0.98773400  0.36156400  1
  O  O7  1  0.21331700  0.63703400  0.93952600  1
loop_
_geom_bond_atom_site_label_1
_geom_bond_atom_site_label_2
_geom_bond_distance
_geom_bond_site_symmetry_2
Mg0 O4 2.064877 1_555
Mg0 O4 2.066160 1_655
Mg0 O0 2.067311 1_555
Mg0 O7 2.076759 1_555
Mg0 O7 2.077011 1_655
Fe0 O1 1.951458 1_555
Fe0 O3 1.988720 1_655
Fe0 O3 1.988964 1_555
Fe0 O4 2.099594 1_545
Fe0 O4 2.100088 1_645
Fe0 O6 2.472900 1_545
Fe1 O2 1.950472 1_555
Fe1 O2 1.950478 1_455
Fe1 O7 2.010909 1_554
Fe1 O3 2.068532 1_555
Fe1 O5 2.239980 1_455
Fe1 O5 2.241620 1_555
Fe2 O1 1.942703 1_555
Fe2 O1 1.942762 1_655
Fe2 O5 2.008839 1_556
Fe2 O0 2.067433 1_555
Fe2 O7 2.242449 1_655
Fe2 O7 2.245564 1_555
Fe3 O2 1.953633 1_555
Fe3 O0 1.982148 1_455
Fe3 O0 1.982159 1_555
Fe3 O6 2.095956 1_555
Fe3 O6 2.096159 1_455
Fe3 O4 2.501903 1_555
O3 Zn0 2.109911 1_555
O5 Zn0 2.083184 1_555
O5 Zn0 2.084208 1_655
O6 Zn0 2.077906 1_565
O6 Zn0 2.078590 1_665
