# generated using pymatgen
data_MgTiV2CrO10
_symmetry_space_group_name_H-M   'P 1'
_cell_length_a   6.67660833
_cell_length_b   6.56631800
_cell_length_c   5.45388245
_cell_angle_alpha   90.00000000
_cell_angle_beta   91.78432014
_cell_angle_gamma   90.00000000
_symmetry_Int_Tables_number   1
_chemical_formula_structural   MgTiV2CrO10
_chemical_formula_sum   'Mg1 Ti1 V2 Cr1 O10'
_cell_volume   238.98627049
_cell_formula_units_Z   1
loop_
 _symmetry_equiv_pos_site_id
 _symmetry_equiv_pos_as_xyz
  1  'x, y, z'
loop_
 _atom_site_type_symbol
 _atom_site_label
 _atom_site_symmetry_multiplicity
 _atom_site_fract_x
 _atom_site_fract_y
 _atom_site_fract_z
 _atom_site_occupancy
  Mg  Mg0  1  0.93182500  0.25000000  0.10170000  1
  Ti  Ti0  1  0.74222800  0.25000000  0.53629300  1
  V  V0  1  0.23699000  0.25000000  0.59986700  1
  V  V1  1  0.76879900  0.75000000  0.39667600  1
  Cr  Cr0  1  0.25707300  0.75000000  0.49101600  1
  O  O0  1  0.06014700  0.75000000  0.29375600  1
  O  O1  1  0.19116400  0.25000000  0.29476500  1
  O  O2  1  0.24461200  0.54648000  0.67248200  1
  O  O3  1  0.24461200  0.95352000  0.67248200  1
  O  O4  1  0.46813600  0.75000000  0.33520900  1
  O  O5  1  0.51074700  0.25000000  0.69292400  1
  O  O6  1  0.77689500  0.04600000  0.30914300  1
  O  O7  1  0.77689500  0.45400000  0.30914300  1
  O  O8  1  0.78161700  0.75000000  0.69520100  1
  O  O9  1  0.96826100  0.25000000  0.75212000  1
loop_
_geom_bond_atom_site_label_1
_geom_bond_atom_site_label_2
_geom_bond_distance
_geom_bond_site_symmetry_2
Mg0 O9 1.929525 1_554
Mg0 O1 1.998320 1_655
Mg0 O6 2.053585 1_555
Mg0 O7 2.053585 1_555
Cr0 O2 1.666568 1_555
Cr0 O3 1.666568 1_555
Cr0 O4 1.668069 1_555
Cr0 O0 1.672729 1_555
O0 V1 2.041307 1_455
O1 V0 1.682490 1_555
O2 V0 1.986992 1_555
O3 V0 1.986992 1_565
O4 V1 2.024886 1_555
O5 Ti0 1.789008 1_555
O5 V0 1.881634 1_555
O6 Ti0 1.844049 1_555
O6 V1 2.002532 1_545
O7 Ti0 1.844049 1_555
O7 V1 2.002532 1_555
O8 V1 1.627705 1_555
O9 Ti0 1.884785 1_555
O9 V0 2.000360 1_655
