# generated using pymatgen
data_Cu5P3O13
_symmetry_space_group_name_H-M   'P 1'
_cell_length_a   6.18595106
_cell_length_b   8.09309600
_cell_length_c   9.95559297
_cell_angle_alpha   92.14271597
_cell_angle_beta   90.24192313
_cell_angle_gamma   90.05829855
_symmetry_Int_Tables_number   1
_chemical_formula_structural   Cu5P3O13
_chemical_formula_sum   'Cu10 P6 O26'
_cell_volume   498.05851058
_cell_formula_units_Z   2
loop_
 _symmetry_equiv_pos_site_id
 _symmetry_equiv_pos_as_xyz
  1  'x, y, z'
loop_
 _atom_site_type_symbol
 _atom_site_label
 _atom_site_symmetry_multiplicity
 _atom_site_fract_x
 _atom_site_fract_y
 _atom_site_fract_z
 _atom_site_occupancy
  Cu  Cu0  1  0.50051800  0.13575400  0.77769700  1
  Cu  Cu1  1  0.74905600  0.22851200  0.46117800  1
  Cu  Cu2  1  0.25094400  0.77148800  0.53882200  1
  Cu  Cu3  1  0.49948200  0.86424600  0.22230300  1
  Cu  Cu4  1  0.99645400  0.86439000  0.22062800  1
  Cu  Cu5  1  0.25482000  0.84978900  0.92174400  1
  Cu  Cu6  1  0.75301800  0.42860700  0.88722000  1
  Cu  Cu7  1  0.24698200  0.57139300  0.11278000  1
  Cu  Cu8  1  0.00354600  0.13561000  0.77937200  1
  Cu  Cu9  1  0.74518000  0.15021100  0.07825600  1
  P  P0  1  0.24949000  0.13228200  0.50457400  1
  P  P1  1  0.75051000  0.86771800  0.49542600  1
  P  P2  1  0.74816700  0.51074400  0.22934400  1
  P  P3  1  0.24965200  0.15894700  0.11210300  1
  P  P4  1  0.75034800  0.84105300  0.88789700  1
  P  P5  1  0.25183300  0.48925600  0.77065600  1
  O  O0  1  0.25041800  0.95764500  0.42905600  1
  O  O1  1  0.74997000  0.91076300  0.33908200  1
  O  O2  1  0.95451600  0.62453100  0.21817700  1
  O  O3  1  0.54274200  0.90175900  0.81288100  1
  O  O4  1  0.74770700  0.38976800  0.10265700  1
  O  O5  1  0.04193600  0.09712600  0.18475500  1
  O  O6  1  0.94583500  0.76261200  0.53068900  1
  O  O7  1  0.95806400  0.90287400  0.81524500  1
  O  O8  1  0.25229300  0.61023200  0.89734300  1
  O  O9  1  0.25298400  0.08901800  0.96367300  1
  O  O10  1  0.75175800  0.65542400  0.88716000  1
  O  O11  1  0.45758100  0.37545400  0.78215800  1
  O  O12  1  0.25120200  0.57637500  0.63953100  1
  O  O13  1  0.24731700  0.80601900  0.11931600  1
  O  O14  1  0.54241900  0.62454600  0.21784200  1
  O  O15  1  0.44436000  0.23871800  0.47068600  1
  O  O16  1  0.74958200  0.04235500  0.57094400  1
  O  O17  1  0.45725800  0.09824100  0.18711900  1
  O  O18  1  0.25003000  0.08923700  0.66091800  1
  O  O19  1  0.74879800  0.42362500  0.36046900  1
  O  O20  1  0.55564000  0.76128200  0.52931400  1
  O  O21  1  0.05416500  0.23738800  0.46931100  1
  O  O22  1  0.74701600  0.91098200  0.03632700  1
  O  O23  1  0.75268300  0.19398100  0.88068400  1
  O  O24  1  0.04548400  0.37546900  0.78182300  1
  O  O25  1  0.24824200  0.34457600  0.11284000  1
loop_
_geom_bond_atom_site_label_1
_geom_bond_atom_site_label_2
_geom_bond_distance
_geom_bond_site_symmetry_2
Cu0 O23 1.911908 1_555
Cu0 O3 1.956277 1_545
Cu0 O11 1.957165 1_555
Cu0 O18 1.960923 1_555
Cu0 O9 2.447637 1_555
Cu0 O16 2.663592 1_555
Cu1 O15 1.889344 1_555
Cu1 O21 1.889961 1_655
Cu1 O16 1.893960 1_555
Cu1 O19 1.901863 1_555
Cu2 O20 1.889344 1_555
Cu2 O6 1.889961 1_455
Cu2 O0 1.893960 1_555
Cu2 O12 1.901863 1_555
Cu3 O13 1.911908 1_555
Cu3 O17 1.956277 1_565
Cu3 O14 1.957165 1_555
Cu3 O1 1.960923 1_555
Cu3 O22 2.447637 1_555
Cu3 O0 2.663592 1_555
Cu4 O13 1.904659 1_655
Cu4 O5 1.950527 1_665
Cu4 O2 1.957433 1_555
Cu4 O1 1.959498 1_555
Cu4 O22 2.432831 1_555
Cu4 O0 2.682602 1_655
Cu5 O8 1.944923 1_555
Cu5 O9 1.965330 1_565
Cu5 O13 2.012301 1_556
Cu5 O3 2.138363 1_555
Cu5 O7 2.167445 1_455
Cu6 O10 1.835699 1_555
Cu6 O23 1.897531 1_555
Cu6 O24 2.131421 1_655
Cu6 O11 2.137207 1_555
Cu6 O4 2.179690 1_556
Cu7 O25 1.835699 1_555
Cu7 O13 1.897531 1_555
Cu7 O2 2.131421 1_455
Cu7 O14 2.137207 1_555
Cu7 O8 2.179690 1_554
Cu8 O23 1.904659 1_455
Cu8 O7 1.950527 1_445
Cu8 O24 1.957433 1_555
Cu8 O18 1.959498 1_555
Cu8 O9 2.432831 1_555
Cu8 O16 2.682602 1_455
Cu9 O4 1.944923 1_555
Cu9 O22 1.965330 1_545
Cu9 O23 2.012301 1_554
Cu9 O17 2.138363 1_555
Cu9 O5 2.167445 1_655
O0 P0 1.575893 1_565
O1 P1 1.607657 1_555
O2 P2 1.579943 1_555
O3 P4 1.571313 1_555
O4 P2 1.567466 1_555
O5 P3 1.567833 1_555
O6 P1 1.525641 1_555
O7 P4 1.567833 1_555
O8 P5 1.567466 1_555
O9 P3 1.562717 1_556
O10 P4 1.502091 1_555
O11 P5 1.578068 1_555
O12 P5 1.506671 1_555
O14 P2 1.578068 1_555
O15 P0 1.527090 1_555
O16 P1 1.575893 1_545
O17 P3 1.571313 1_555
O18 P0 1.607657 1_555
O19 P2 1.506671 1_555
O20 P1 1.527090 1_555
O21 P0 1.525641 1_555
O22 P4 1.562717 1_554
O24 P5 1.579943 1_555
O25 P3 1.502091 1_555
