# generated using pymatgen
data_MgCu2H4(SeO5)2
_symmetry_space_group_name_H-M   'P 1'
_cell_length_a   5.35133690
_cell_length_b   5.90954546
_cell_length_c   7.68945172
_cell_angle_alpha   101.93477266
_cell_angle_beta   102.70756083
_cell_angle_gamma   101.68939745
_symmetry_Int_Tables_number   1
_chemical_formula_structural   MgCu2H4(SeO5)2
_chemical_formula_sum   'Mg1 Cu2 H4 Se2 O10'
_cell_volume   224.10856164
_cell_formula_units_Z   1
loop_
 _symmetry_equiv_pos_site_id
 _symmetry_equiv_pos_as_xyz
  1  'x, y, z'
loop_
 _atom_site_type_symbol
 _atom_site_label
 _atom_site_symmetry_multiplicity
 _atom_site_fract_x
 _atom_site_fract_y
 _atom_site_fract_z
 _atom_site_occupancy
  Mg  Mg0  1  0.06563100  0.96565000  0.42258600  1
  Cu  Cu0  1  0.96303300  0.00478100  0.00317700  1
  Cu  Cu1  1  0.54940000  0.49685600  0.49525500  1
  H  H0  1  0.89952600  0.47576900  0.78441900  1
  H  H1  1  0.10278000  0.53562500  0.21577200  1
  H  H2  1  0.05302200  0.66628500  0.69712800  1
  H  H3  1  0.97253200  0.34707200  0.30834600  1
  Se  Se0  1  0.53780100  0.84514900  0.22561000  1
  Se  Se1  1  0.44030300  0.12898400  0.77360700  1
  O  O0  1  0.63031200  0.82009400  0.02421400  1
  O  O1  1  0.31257000  0.19233200  0.94989800  1
  O  O2  1  0.17076700  0.89195300  0.18385700  1
  O  O3  1  0.77370300  0.18439300  0.83382400  1
  O  O4  1  0.74741000  0.11941200  0.36145300  1
  O  O5  1  0.29202200  0.84954800  0.63028400  1
  O  O6  1  0.73671700  0.68145700  0.36065400  1
  O  O7  1  0.33955800  0.28298000  0.61312700  1
  O  O8  1  0.14017500  0.41214100  0.27878300  1
  O  O9  1  0.88524000  0.61142600  0.72967100  1
loop_
_geom_bond_atom_site_label_1
_geom_bond_atom_site_label_2
_geom_bond_distance
_geom_bond_site_symmetry_2
Mg0 O2 2.024598 1_555
Mg0 O6 2.061070 1_455
Mg0 O4 2.097150 1_465
Mg0 O5 2.104265 1_555
Mg0 O7 2.148710 1_565
Cu0 O2 1.901206 1_645
Cu0 O0 1.949319 1_545
Cu0 O3 2.067832 1_554
Cu0 O1 2.140065 1_654
Cu1 O6 1.935574 1_555
Cu1 O7 2.006597 1_555
Cu1 O9 2.124709 1_555
Cu1 O8 2.329038 1_555
H0 O9 0.987930 1_555
H1 O8 0.984921 1_555
H2 O9 0.994143 1_455
H2 O5 1.740982 1_555
H3 O8 0.995209 1_655
O0 Se0 1.713885 1_555
O1 Se1 1.657236 1_555
O2 Se0 2.004193 1_555
O3 Se1 1.685787 1_555
O4 Se0 1.738913 1_545
O5 Se1 1.703741 1_565
O6 Se0 1.869106 1_555
O7 Se1 1.735565 1_555
