# generated using pymatgen
data_Na3La2Al2P3(SO8)3
_symmetry_space_group_name_H-M   'P 1'
_cell_length_a   8.90610533
_cell_length_b   8.91675608
_cell_length_c   23.43324899
_cell_angle_alpha   87.72728814
_cell_angle_beta   91.81288874
_cell_angle_gamma   119.85477351
_symmetry_Int_Tables_number   1
_chemical_formula_structural   Na3La2Al2P3(SO8)3
_chemical_formula_sum   'Na9 La6 Al6 P9 S9 O72'
_cell_volume   1612.53397847
_cell_formula_units_Z   3
loop_
 _symmetry_equiv_pos_site_id
 _symmetry_equiv_pos_as_xyz
  1  'x, y, z'
loop_
 _atom_site_type_symbol
 _atom_site_label
 _atom_site_symmetry_multiplicity
 _atom_site_fract_x
 _atom_site_fract_y
 _atom_site_fract_z
 _atom_site_occupancy
  Na  Na0  1  0.36923874  0.36736525  0.25143683  1
  Na  Na1  1  0.67837398  0.01156049  0.92248041  1
  Na  Na2  1  0.97649595  0.30573182  0.41391164  1
  Na  Na3  1  0.00717402  0.99361416  0.49039008  1
  Na  Na4  1  0.00789451  0.98661074  0.00905901  1
  Na  Na5  1  0.65592611  0.33796930  0.83851300  1
  Na  Na6  1  0.66448401  0.33272479  0.33293936  1
  Na  Na7  1  0.33715589  0.69862773  0.17550747  1
  Na  Na8  1  0.33142514  0.66868661  0.66660119  1
  La  La0  1  0.00535499  0.99062181  0.85410067  1
  La  La1  1  0.98958910  0.01519551  0.64042806  1
  La  La2  1  0.67262654  0.31957444  0.68230273  1
  La  La3  1  0.33682679  0.66876433  0.03168396  1
  La  La4  1  0.32294836  0.66421548  0.50094645  1
  La  La5  1  0.35145124  0.67971675  0.82806267  1
  Al  Al0  1  0.02172897  0.00837559  0.34096136  1
  Al  Al1  1  0.99739485  0.01359457  0.15845781  1
  Al  Al2  1  0.67028795  0.30513439  0.18653510  1
  Al  Al3  1  0.66638664  0.32763598  0.99421193  1
  Al  Al4  1  0.66787421  0.35707162  0.47497907  1
  Al  Al5  1  0.28384260  0.64724003  0.31524540  1
  P  P0  1  0.28429295  0.99430863  0.24826228  1
  P  P1  1  0.99790328  0.28633393  0.25060449  1
  P  P2  1  0.68229896  0.99038728  0.75471345  1
  P  P3  1  0.95122082  0.33432424  0.56786960  1
  P  P4  1  0.69972421  0.06603869  0.09139958  1
  P  P5  1  0.63966892  0.64196439  0.92760600  1
  P  P6  1  0.35795741  0.00225503  0.92698462  1
  P  P7  1  0.33015044  0.35816046  0.40663575  1
  P  P8  1  0.01759559  0.67344586  0.40772119  1
  S  S0  1  0.71602360  0.71958191  0.24795655  1
  S  S1  1  0.31188949  0.31847434  0.74939148  1
  S  S2  1  0.00485009  0.68962980  0.74902204  1
  S  S3  1  0.37724397  0.04735720  0.57043644  1
  S  S4  1  0.67109703  0.62584974  0.57211625  1
  S  S5  1  0.92387621  0.61214942  0.09304067  1
  S  S6  1  0.38199944  0.30278427  0.09294634  1
  S  S7  1  0.00708201  0.36153178  0.92431063  1
  S  S8  1  0.64350003  0.97239021  0.40775080  1
  O  O0  1  0.21043547  0.04376918  0.29884387  1
  O  O1  1  0.82586004  0.80581176  0.29847834  1
  O  O2  1  0.97215152  0.17132731  0.30465746  1
  O  O3  1  0.22126928  0.22344146  0.80188329  1
  O  O4  1  0.01791985  0.78491829  0.80098424  1
  O  O5  1  0.76087014  0.97452105  0.81291829  1
  O  O6  1  0.79522747  0.00561068  0.70333623  1
  O  O7  1  0.21972348  0.22006418  0.69761725  1
  O  O8  1  0.00150298  0.78609487  0.69657730  1
  O  O9  1  0.79921811  0.82806711  0.19546156  1
  O  O10  1  0.04556879  0.20899517  0.20045487  1
  O  O11  1  0.16241799  0.96459846  0.19576965  1
  O  O12  1  0.87237332  0.32457993  0.62630793  1
  O  O13  1  0.44656945  0.11742164  0.62773082  1
  O  O14  1  0.67024392  0.54782953  0.62884125  1
  O  O15  1  0.83291213  0.50812972  0.14503983  1
  O  O16  1  0.67577928  0.15747766  0.14149816  1
  O  O17  1  0.48924604  0.32188956  0.14552108  1
  O  O18  1  0.46667003  0.29405258  0.04073390  1
  O  O19  1  0.82923913  0.52554798  0.03976432  1
  O  O20  1  0.71361949  0.16749678  0.03419542  1
  O  O21  1  0.49114027  0.16016695  0.52329480  1
  O  O22  1  0.65620536  0.51249171  0.52441790  1
  O  O23  1  0.84365945  0.34838230  0.51617070  1
  O  O24  1  0.53290625  0.67860677  0.96976738  1
  O  O25  1  0.12718419  0.44993405  0.97154531  1
  O  O26  1  0.32196049  0.86539134  0.97410026  1
  O  O27  1  0.59279430  0.88213268  0.46406852  1
  O  O28  1  0.26899127  0.40985539  0.45941663  1
  O  O29  1  0.11849287  0.72631929  0.46410065  1
  O  O30  1  0.11816066  0.62286284  0.36437276  1
  O  O31  1  0.51446847  0.87435359  0.36250050  1
  O  O32  1  0.35849853  0.49217473  0.35591646  1
  O  O33  1  0.07543403  0.45217401  0.86843064  1
  O  O34  1  0.38935099  0.93567544  0.87024030  1
  O  O35  1  0.54863318  0.60752401  0.86788936  1
  O  O36  1  0.99634224  0.82618629  0.38676942  1
  O  O37  1  0.82128819  -0.00002208  0.39755367  1
  O  O38  1  0.17707568  0.17482831  0.39300113  1
  O  O39  1  0.97657707  0.18109960  0.92305869  1
  O  O40  1  0.20806348  0.04004156  0.92438013  1
  O  O41  1  0.81922623  0.81007053  0.92552596  1
  O  O42  1  0.95903748  0.16563720  0.56140691  1
  O  O43  1  0.20465472  0.03422061  0.56444734  1
  O  O44  1  0.83630754  0.79134098  0.56575018  1
  O  O45  1  0.94039760  0.78537692  0.09365708  1
  O  O46  1  0.86787010  0.05290941  0.10087093  1
  O  O47  1  0.20777476  0.14547096  0.09687111  1
  O  O48  1  0.66365521  0.15217167  0.75903580  1
  O  O49  1  0.48797993  0.34198386  0.75294281  1
  O  O50  1  0.84400771  0.52111521  0.75451516  1
  O  O51  1  0.69276594  0.54059621  0.24508723  1
  O  O52  1  0.83611615  0.30738277  0.24002604  1
  O  O53  1  0.47219467  0.15539098  0.23880859  1
  O  O54  1  0.65828202  0.48688038  0.94501396  1
  O  O55  1  0.83879995  0.35178611  0.93234505  1
  O  O56  1  0.52858100  0.16830195  0.93961668  1
  O  O57  1  0.66120835  0.14960914  0.41195034  1
  O  O58  1  0.49925696  0.35078256  0.42066890  1
  O  O59  1  0.83987114  0.50239820  0.41686006  1
  O  O60  1  0.36219544  0.45858576  0.09146677  1
  O  O61  1  0.09908556  0.62755054  0.09365353  1
  O  O62  1  0.53831260  0.88317188  0.09062164  1
  O  O63  1  0.36368853  0.87593443  0.57099409  1
  O  O64  1  0.52185600  0.65339313  0.57078667  1
  O  O65  1  0.13443348  0.49219316  0.57095956  1
  O  O66  1  0.29682060  0.82622639  0.26277847  1
  O  O67  1  0.53840097  0.69697779  0.25165777  1
  O  O68  1  0.16254686  0.47215453  0.26089119  1
  O  O69  1  0.31849279  0.48656463  0.74578554  1
  O  O70  1  0.15589103  0.66439441  0.74689387  1
  O  O71  1  0.50335474  0.82923944  0.74631215  1
loop_
_geom_bond_atom_site_label_1
_geom_bond_atom_site_label_2
_geom_bond_distance
_geom_bond_site_symmetry_2
Na0 O68 2.462815 1_555
Na0 O53 2.507577 1_555
Na0 O51 2.507610 1_555
Na0 O67 2.549546 1_555
Na0 O0 2.709665 1_555
Na0 O32 2.752953 1_555
Na0 O10 2.755738 1_555
Na0 O17 2.854117 1_555
Na1 O39 2.311067 1_555
Na1 O56 2.414353 1_555
Na1 O34 2.591231 1_545
Na1 O55 2.649057 1_555
Na1 O41 2.652296 1_545
Na1 O5 2.769225 1_545
Na1 O24 2.778664 1_545
Na1 O20 2.947396 1_556
Na2 O37 2.405803 1_555
Na2 O57 2.435143 1_555
Na2 O28 2.505966 1_655
Na2 O59 2.588421 1_555
Na2 O38 2.640155 1_655
Na2 O30 2.686262 1_655
Na2 O23 2.825936 1_555
Na2 O2 2.860633 1_555
Na3 O43 2.336395 1_565
Na3 O44 2.423243 1_455
Na3 O42 2.491648 1_465
Na3 O37 2.707849 1_465
Na3 O38 2.756900 1_565
Na3 O36 2.874613 1_455
Na4 O45 2.496072 1_455
Na4 O41 2.556531 1_454
Na4 O40 2.577940 1_564
Na4 O47 2.626512 1_565
Na4 O39 2.704700 1_464
Na4 O46 2.745549 1_465
Na5 O49 2.473290 1_555
Na5 O50 2.564631 1_555
Na5 O48 2.566002 1_555
Na5 O55 2.664137 1_555
Na5 O56 2.713963 1_555
Na5 O54 2.867683 1_555
Na6 O57 2.410622 1_555
Na6 O59 2.506970 1_555
Na6 O58 2.621288 1_555
Na6 O51 2.646221 1_555
Na6 O53 2.764096 1_555
Na6 O52 2.778768 1_555
Na7 O67 2.493724 1_555
Na7 O66 2.498741 1_555
Na7 O62 2.627712 1_555
Na7 O61 2.660375 1_555
Na7 O68 2.692475 1_555
Na8 O69 2.383654 1_555
Na8 O71 2.394116 1_555
Na8 O70 2.471111 1_555
Na8 O63 2.774998 1_555
Na8 O65 2.803518 1_555
Na8 O64 2.903724 1_555
La0 O40 2.289768 1_565
La0 O5 2.293430 1_455
La0 O4 2.306585 1_555
La0 O41 2.333657 1_455
La0 O3 2.340441 1_565
La0 O39 2.497768 1_465
La1 O6 2.276170 1_555
La1 O42 2.331719 1_555
La1 O7 2.372038 1_655
La1 O8 2.430935 1_645
La1 O44 2.514581 1_545
La1 O43 2.595367 1_655
La2 O12 2.225403 1_555
La2 O48 2.268295 1_555
La2 O13 2.311850 1_555
La2 O14 2.356144 1_555
La2 O50 2.401986 1_555
La2 O49 2.451526 1_555
La3 O26 2.223620 1_554
La3 O24 2.271571 1_554
La3 O62 2.327997 1_555
La3 O25 2.388275 1_554
La3 O60 2.391482 1_555
La3 O61 2.470723 1_555
La4 O29 2.287871 1_555
La4 O65 2.296521 1_555
La4 O28 2.320016 1_555
La4 O27 2.376367 1_555
La4 O64 2.408348 1_555
La4 O63 2.432297 1_555
La5 O35 2.311599 1_555
La5 O71 2.333082 1_555
La5 O34 2.385495 1_555
La5 O33 2.466489 1_555
La5 O70 2.498800 1_555
La5 O69 2.548321 1_555
Al0 O36 1.831354 1_445
Al0 O0 1.857523 1_555
Al0 O2 1.883303 1_455
Al0 O38 1.896447 1_555
Al0 O1 2.047500 1_445
Al0 O37 2.227068 1_455
Al1 O46 1.881810 1_555
Al1 O10 1.885035 1_655
Al1 O11 1.908683 1_645
Al1 O9 1.918294 1_545
Al1 O47 2.195235 1_655
Al1 O45 2.423307 1_545
Al2 O16 1.739898 1_555
Al2 O52 1.899513 1_555
Al2 O15 1.912842 1_555
Al2 O17 1.917337 1_555
Al2 O53 2.014335 1_555
Al2 O51 2.474552 1_555
Al3 O54 1.821400 1_555
Al3 O56 1.862875 1_555
Al3 O20 1.886999 1_556
Al3 O19 1.964809 1_556
Al3 O18 2.002095 1_556
Al3 O55 2.071922 1_555
Al4 O23 1.846057 1_555
Al4 O22 1.884637 1_555
Al4 O58 1.918041 1_555
Al4 O59 1.973893 1_555
Al4 O21 2.011393 1_555
Al4 O57 2.389324 1_555
Al5 O30 1.821587 1_555
Al5 O68 1.902148 1_555
Al5 O66 1.934376 1_555
Al5 O32 2.008205 1_555
Al5 O31 2.332124 1_555
O0 P0 1.552969 1_545
O1 S0 1.483165 1_555
O2 P1 1.545895 1_555
O3 S1 1.477060 1_555
O4 S2 1.480795 1_555
O5 P2 1.546886 1_555
O6 P2 1.551500 1_545
O7 S1 1.489978 1_555
O8 S2 1.480016 1_555
O9 S0 1.499216 1_555
O10 P1 1.556952 1_455
O11 P0 1.554510 1_555
O12 P3 1.538371 1_555
O13 S3 1.484626 1_555
O14 S4 1.474103 1_555
O15 S5 1.492006 1_555
O16 P4 1.534059 1_555
O17 S6 1.496442 1_555
O18 S6 1.481911 1_555
O19 S5 1.492374 1_555
O20 P4 1.559965 1_555
O21 S3 1.492648 1_555
O22 S4 1.495109 1_555
O23 P3 1.560492 1_555
O24 P5 1.543144 1_555
O25 S7 1.464743 1_555
O26 P6 1.528754 1_565
O27 S8 1.478139 1_555
O28 P7 1.541661 1_555
O29 P8 1.525680 1_555
O30 P8 1.591711 1_555
O31 S8 1.485056 1_555
O32 P7 1.584376 1_555
O33 S7 1.488329 1_555
O34 P6 1.565288 1_565
O35 P5 1.557004 1_555
O36 P8 1.526281 1_655
O37 S8 1.502082 1_545
O38 P7 1.558216 1_555
O39 S7 1.493718 1_655
O40 P6 1.529847 1_555
O41 P5 1.555364 1_555
O42 P3 1.553450 1_555
O43 S3 1.484751 1_555
O44 S4 1.483064 1_555
O45 S5 1.477528 1_555
O46 P4 1.567483 1_555
O47 S6 1.488475 1_555
O48 P2 1.539491 1_545
O49 S1 1.475190 1_555
O50 S2 1.476387 1_655
O51 S0 1.507664 1_555
O52 P1 1.554287 1_555
O53 P0 1.586743 1_545
O54 P5 1.511739 1_555
O55 S7 1.475161 1_655
O56 P6 1.534677 1_555
O57 S8 1.514884 1_545
O58 P7 1.564077 1_555
O59 P8 1.571449 1_655
O60 S6 1.483933 1_555
O61 S5 1.496464 1_455
O62 P4 1.546812 1_565
O63 S3 1.471719 1_565
O64 S4 1.466193 1_555
O65 P3 1.537224 1_455
O66 P0 1.580523 1_555
O67 S0 1.496825 1_555
O68 P1 1.594994 1_455
O69 S1 1.469548 1_555
O70 S2 1.472801 1_555
O71 P2 1.538178 1_555
