# generated using pymatgen
data_MgTe4Mo2(WS2)2
_symmetry_space_group_name_H-M   'P 1'
_cell_length_a   6.70856200
_cell_length_b   6.70886150
_cell_length_c   76.53825000
_cell_angle_alpha   90.00020738
_cell_angle_beta   89.99990234
_cell_angle_gamma   119.99787326
_symmetry_Int_Tables_number   1
_chemical_formula_structural   MgTe4Mo2(WS2)2
_chemical_formula_sum   'Mg8 Te32 Mo16 W16 S32'
_cell_volume   2983.29864474
_cell_formula_units_Z   8
loop_
 _symmetry_equiv_pos_site_id
 _symmetry_equiv_pos_as_xyz
  1  'x, y, z'
loop_
 _atom_site_type_symbol
 _atom_site_label
 _atom_site_symmetry_multiplicity
 _atom_site_fract_x
 _atom_site_fract_y
 _atom_site_fract_z
 _atom_site_occupancy
  Mg  Mg0_0  1  0.15166800  0.30564900  0.43694500  1
  Mg  Mg0_1  1  0.15166800  0.30564900  0.93694500  1
  Mg  Mg0_2  1  0.15166800  0.80564900  0.43694500  1
  Mg  Mg0_3  1  0.15166800  0.80564900  0.93694500  1
  Mg  Mg0_4  1  0.65166800  0.30564900  0.43694500  1
  Mg  Mg0_5  1  0.65166800  0.30564900  0.93694500  1
  Mg  Mg0_6  1  0.65166800  0.80564900  0.43694500  1
  Mg  Mg0_7  1  0.65166800  0.80564900  0.93694500  1
  Te  Te0_0  1  0.16667950  0.33335900  0.35359350  1
  Te  Te0_1  1  0.16667950  0.33335900  0.85359350  1
  Te  Te0_2  1  0.16667950  0.83335900  0.35359350  1
  Te  Te0_3  1  0.16667950  0.83335900  0.85359350  1
  Te  Te0_4  1  0.66667950  0.33335900  0.35359350  1
  Te  Te0_5  1  0.66667950  0.33335900  0.85359350  1
  Te  Te0_6  1  0.66667950  0.83335900  0.35359350  1
  Te  Te0_7  1  0.66667950  0.83335900  0.85359350  1
  Te  Te1_0  1  0.33331550  0.16663000  0.02227850  1
  Te  Te1_1  1  0.33331550  0.16663000  0.52227850  1
  Te  Te1_2  1  0.33331550  0.66663000  0.02227850  1
  Te  Te1_3  1  0.33331550  0.66663000  0.52227850  1
  Te  Te1_4  1  0.83331550  0.16663000  0.02227850  1
  Te  Te1_5  1  0.83331550  0.16663000  0.52227850  1
  Te  Te1_6  1  0.83331550  0.66663000  0.02227850  1
  Te  Te1_7  1  0.83331550  0.66663000  0.52227850  1
  Te  Te2_0  1  0.33332550  0.16664950  0.07165350  1
  Te  Te2_1  1  0.33332550  0.16664950  0.57165350  1
  Te  Te2_2  1  0.33332550  0.66664950  0.07165350  1
  Te  Te2_3  1  0.33332550  0.66664950  0.57165350  1
  Te  Te2_4  1  0.83332550  0.16664950  0.07165350  1
  Te  Te2_5  1  0.83332550  0.16664950  0.57165350  1
  Te  Te2_6  1  0.83332550  0.66664950  0.07165350  1
  Te  Te2_7  1  0.83332550  0.66664950  0.57165350  1
  Te  Te3_0  1  0.16667700  0.33335350  0.30394700  1
  Te  Te3_1  1  0.16667700  0.33335350  0.80394700  1
  Te  Te3_2  1  0.16667700  0.83335350  0.30394700  1
  Te  Te3_3  1  0.16667700  0.83335350  0.80394700  1
  Te  Te3_4  1  0.66667700  0.33335350  0.30394700  1
  Te  Te3_5  1  0.66667700  0.33335350  0.80394700  1
  Te  Te3_6  1  0.66667700  0.83335350  0.30394700  1
  Te  Te3_7  1  0.66667700  0.83335350  0.80394700  1
  Mo  Mo0_0  1  0.16665600  0.33331100  0.04694400  1
  Mo  Mo0_1  1  0.16665600  0.33331100  0.54694400  1
  Mo  Mo0_2  1  0.16665600  0.83331100  0.04694400  1
  Mo  Mo0_3  1  0.16665600  0.83331100  0.54694400  1
  Mo  Mo0_4  1  0.66665600  0.33331100  0.04694400  1
  Mo  Mo0_5  1  0.66665600  0.33331100  0.54694400  1
  Mo  Mo0_6  1  0.66665600  0.83331100  0.04694400  1
  Mo  Mo0_7  1  0.66665600  0.83331100  0.54694400  1
  Mo  Mo1_0  1  0.33334700  0.16669400  0.14090300  1
  Mo  Mo1_1  1  0.33334700  0.16669400  0.64090300  1
  Mo  Mo1_2  1  0.33334700  0.66669400  0.14090300  1
  Mo  Mo1_3  1  0.33334700  0.66669400  0.64090300  1
  Mo  Mo1_4  1  0.83334700  0.16669400  0.14090300  1
  Mo  Mo1_5  1  0.83334700  0.16669400  0.64090300  1
  Mo  Mo1_6  1  0.83334700  0.66669400  0.14090300  1
  Mo  Mo1_7  1  0.83334700  0.66669400  0.64090300  1
  W  W0_0  1  0.16665700  0.33331200  0.23482500  1
  W  W0_1  1  0.16665700  0.33331200  0.73482500  1
  W  W0_2  1  0.16665700  0.83331200  0.23482500  1
  W  W0_3  1  0.16665700  0.83331200  0.73482500  1
  W  W0_4  1  0.66665700  0.33331200  0.23482500  1
  W  W0_5  1  0.66665700  0.33331200  0.73482500  1
  W  W0_6  1  0.66665700  0.83331200  0.23482500  1
  W  W0_7  1  0.66665700  0.83331200  0.73482500  1
  W  W1_0  1  0.33334350  0.16668650  0.32879050  1
  W  W1_1  1  0.33334350  0.16668650  0.82879050  1
  W  W1_2  1  0.33334350  0.66668650  0.32879050  1
  W  W1_3  1  0.33334350  0.66668650  0.82879050  1
  W  W1_4  1  0.83334350  0.16668650  0.32879050  1
  W  W1_5  1  0.83334350  0.16668650  0.82879050  1
  W  W1_6  1  0.83334350  0.66668650  0.32879050  1
  W  W1_7  1  0.83334350  0.66668650  0.82879050  1
  S  S0_0  1  0.16667750  0.33335500  0.16064200  1
  S  S0_1  1  0.16667750  0.33335500  0.66064200  1
  S  S0_2  1  0.16667750  0.83335500  0.16064200  1
  S  S0_3  1  0.16667750  0.83335500  0.66064200  1
  S  S0_4  1  0.66667750  0.33335500  0.16064200  1
  S  S0_5  1  0.66667750  0.33335500  0.66064200  1
  S  S0_6  1  0.66667750  0.83335500  0.16064200  1
  S  S0_7  1  0.66667750  0.83335500  0.66064200  1
  S  S1_0  1  0.33332400  0.16664850  0.21499650  1
  S  S1_1  1  0.33332400  0.16664850  0.71499650  1
  S  S1_2  1  0.33332400  0.66664850  0.21499650  1
  S  S1_3  1  0.33332400  0.66664850  0.71499650  1
  S  S1_4  1  0.83332400  0.16664850  0.21499650  1
  S  S1_5  1  0.83332400  0.16664850  0.71499650  1
  S  S1_6  1  0.83332400  0.66664850  0.21499650  1
  S  S1_7  1  0.83332400  0.66664850  0.71499650  1
  S  S2_0  1  0.33332250  0.16664450  0.25464850  1
  S  S2_1  1  0.33332250  0.16664450  0.75464850  1
  S  S2_2  1  0.33332250  0.66664450  0.25464850  1
  S  S2_3  1  0.33332250  0.66664450  0.75464850  1
  S  S2_4  1  0.83332250  0.16664450  0.25464850  1
  S  S2_5  1  0.83332250  0.16664450  0.75464850  1
  S  S2_6  1  0.83332250  0.66664450  0.25464850  1
  S  S2_7  1  0.83332250  0.66664450  0.75464850  1
  S  S3_0  1  0.16667750  0.33335500  0.12115100  1
  S  S3_1  1  0.16667750  0.33335500  0.62115100  1
  S  S3_2  1  0.16667750  0.83335500  0.12115100  1
  S  S3_3  1  0.16667750  0.83335500  0.62115100  1
  S  S3_4  1  0.66667750  0.33335500  0.12115100  1
  S  S3_5  1  0.66667750  0.33335500  0.62115100  1
  S  S3_6  1  0.66667750  0.83335500  0.12115100  1
  S  S3_7  1  0.66667750  0.83335500  0.62115100  1
loop_
_geom_bond_atom_site_label_1
_geom_bond_atom_site_label_2
_geom_bond_distance
_geom_bond_site_symmetry_2
Mg0_0 Mg0_4 3.354281 1_555
Mg0_0 Mg0_4 3.354281 1_455
Mg0_0 Mg0_2 3.354431 1_555
Mg0_0 Mg0_2 3.354431 1_545
Mg0_0 Mg0_6 3.354464 1_555
Mg0_0 Mg0_6 3.354464 1_445
Mg0_1 Mg0_5 3.354281 1_555
Mg0_1 Mg0_5 3.354281 1_455
Mg0_1 Mg0_3 3.354431 1_545
Mg0_1 Mg0_3 3.354431 1_555
Mg0_1 Mg0_7 3.354464 1_555
Mg0_1 Mg0_7 3.354464 1_445
Mg0_2 Mg0_6 3.354281 1_555
Mg0_2 Mg0_6 3.354281 1_455
Mg0_2 Mg0_4 3.354464 1_565
Mg0_2 Mg0_4 3.354464 1_455
Mg0_3 Mg0_7 3.354281 1_455
Mg0_3 Mg0_7 3.354281 1_555
Mg0_3 Mg0_5 3.354464 1_565
Mg0_3 Mg0_5 3.354464 1_455
Mg0_4 Mg0_6 3.354431 1_555
Mg0_4 Mg0_6 3.354431 1_545
Mg0_5 Mg0_7 3.354431 1_555
Mg0_5 Mg0_7 3.354431 1_545
Te0_0 W1_0 2.711895 1_555
Te0_0 W1_4 2.711911 1_455
Te0_0 W1_2 2.711942 1_555
Te0_1 W1_1 2.711895 1_555
Te0_1 W1_5 2.711911 1_455
Te0_1 W1_3 2.711942 1_555
Te0_2 W1_2 2.711895 1_555
Te0_2 W1_6 2.711911 1_455
Te0_2 W1_0 2.711942 1_565
Te0_3 W1_3 2.711895 1_555
Te0_3 W1_7 2.711911 1_455
Te0_3 W1_1 2.711942 1_565
Te0_4 W1_4 2.711895 1_555
Te0_4 W1_0 2.711911 1_555
Te0_4 W1_6 2.711942 1_555
Te0_5 W1_5 2.711895 1_555
Te0_5 W1_1 2.711911 1_555
Te0_5 W1_7 2.711942 1_555
Te0_6 W1_6 2.711895 1_555
Te0_6 W1_2 2.711911 1_555
Te0_6 W1_4 2.711942 1_565
Te0_7 W1_7 2.711895 1_555
Te0_7 W1_3 2.711911 1_555
Te0_7 W1_5 2.711942 1_565
Te3_0 W1_0 2.714062 1_555
Te3_0 W1_4 2.714072 1_455
Te3_0 W1_2 2.714127 1_555
Te3_1 W1_1 2.714062 1_555
Te3_1 W1_5 2.714072 1_455
Te3_1 W1_3 2.714127 1_555
Te3_2 W1_2 2.714062 1_555
Te3_2 W1_6 2.714072 1_455
Te3_2 W1_0 2.714127 1_565
Te3_3 W1_3 2.714062 1_555
Te3_3 W1_7 2.714072 1_455
Te3_3 W1_1 2.714127 1_565
Te3_4 W1_4 2.714062 1_555
Te3_4 W1_0 2.714072 1_555
Te3_4 W1_6 2.714127 1_555
Te3_5 W1_5 2.714062 1_555
Te3_5 W1_1 2.714072 1_555
Te3_5 W1_7 2.714127 1_555
Te3_6 W1_6 2.714062 1_555
Te3_6 W1_2 2.714072 1_555
Te3_6 W1_4 2.714127 1_565
Te3_7 W1_7 2.714062 1_555
Te3_7 W1_3 2.714072 1_555
Te3_7 W1_5 2.714127 1_565
Mo0_0 Te1_2 2.704550 1_555
Mo0_0 Te1_0 2.704555 1_555
Mo0_0 Te1_4 2.704573 1_455
Mo0_0 Te2_0 2.706876 1_555
Mo0_0 Te2_4 2.706884 1_455
Mo0_0 Te2_2 2.706974 1_555
Mo0_1 Te1_3 2.704550 1_555
Mo0_1 Te1_1 2.704555 1_555
Mo0_1 Te1_5 2.704573 1_455
Mo0_1 Te2_1 2.706876 1_555
Mo0_1 Te2_5 2.706884 1_455
Mo0_1 Te2_3 2.706974 1_555
Mo0_2 Te1_0 2.704550 1_565
Mo0_2 Te1_2 2.704555 1_555
Mo0_2 Te1_6 2.704573 1_455
Mo0_2 Te2_2 2.706876 1_555
Mo0_2 Te2_6 2.706884 1_455
Mo0_2 Te2_0 2.706974 1_565
Mo0_3 Te1_1 2.704550 1_565
Mo0_3 Te1_3 2.704555 1_555
Mo0_3 Te1_7 2.704573 1_455
Mo0_3 Te2_3 2.706876 1_555
Mo0_3 Te2_7 2.706884 1_455
Mo0_3 Te2_1 2.706974 1_565
Mo0_4 Te1_6 2.704550 1_555
Mo0_4 Te1_4 2.704555 1_555
Mo0_4 Te1_0 2.704573 1_555
Mo0_4 Te2_4 2.706876 1_555
Mo0_4 Te2_0 2.706884 1_555
Mo0_4 Te2_6 2.706974 1_555
Mo0_5 Te1_7 2.704550 1_555
Mo0_5 Te1_5 2.704555 1_555
Mo0_5 Te1_1 2.704573 1_555
Mo0_5 Te2_5 2.706876 1_555
Mo0_5 Te2_1 2.706884 1_555
Mo0_5 Te2_7 2.706974 1_555
Mo0_6 Te1_4 2.704550 1_565
Mo0_6 Te1_6 2.704555 1_555
Mo0_6 Te1_2 2.704573 1_555
Mo0_6 Te2_6 2.706876 1_555
Mo0_6 Te2_2 2.706884 1_555
Mo0_6 Te2_4 2.706974 1_565
Mo0_7 Te1_5 2.704550 1_565
Mo0_7 Te1_7 2.704555 1_555
Mo0_7 Te1_3 2.704573 1_555
Mo0_7 Te2_7 2.706876 1_555
Mo0_7 Te2_3 2.706884 1_555
Mo0_7 Te2_5 2.706974 1_565
Mo1_0 S0_0 2.456194 1_555
Mo1_0 S0_4 2.456212 1_555
Mo1_0 S0_2 2.456323 1_545
Mo1_0 S3_0 2.456813 1_555
Mo1_0 S3_4 2.456825 1_555
Mo1_0 S3_2 2.456928 1_545
Mo1_1 S0_1 2.456194 1_555
Mo1_1 S0_5 2.456212 1_555
Mo1_1 S0_3 2.456323 1_545
Mo1_1 S3_1 2.456813 1_555
Mo1_1 S3_5 2.456825 1_555
Mo1_1 S3_3 2.456928 1_545
Mo1_2 S0_2 2.456194 1_555
Mo1_2 S0_6 2.456212 1_555
Mo1_2 S0_0 2.456323 1_555
Mo1_2 S3_2 2.456813 1_555
Mo1_2 S3_6 2.456825 1_555
Mo1_2 S3_0 2.456928 1_555
Mo1_3 S0_3 2.456194 1_555
Mo1_3 S0_7 2.456212 1_555
Mo1_3 S0_1 2.456323 1_555
Mo1_3 S3_3 2.456813 1_555
Mo1_3 S3_7 2.456825 1_555
Mo1_3 S3_1 2.456928 1_555
Mo1_4 S0_4 2.456194 1_555
Mo1_4 S0_0 2.456212 1_655
Mo1_4 S0_6 2.456323 1_545
Mo1_4 S3_4 2.456813 1_555
Mo1_4 S3_0 2.456825 1_655
Mo1_4 S3_6 2.456928 1_545
Mo1_5 S0_5 2.456194 1_555
Mo1_5 S0_1 2.456212 1_655
Mo1_5 S0_7 2.456323 1_545
Mo1_5 S3_5 2.456813 1_555
Mo1_5 S3_1 2.456825 1_655
Mo1_5 S3_7 2.456928 1_545
Mo1_6 S0_6 2.456194 1_555
Mo1_6 S0_2 2.456212 1_655
Mo1_6 S0_4 2.456323 1_555
Mo1_6 S3_6 2.456813 1_555
Mo1_6 S3_2 2.456825 1_655
Mo1_6 S3_4 2.456928 1_555
Mo1_7 S0_7 2.456194 1_555
Mo1_7 S0_3 2.456212 1_655
Mo1_7 S0_5 2.456323 1_555
Mo1_7 S3_7 2.456813 1_555
Mo1_7 S3_3 2.456825 1_655
Mo1_7 S3_5 2.456928 1_555
S1_0 W0_0 2.460413 1_555
S1_0 W0_4 2.460443 1_555
S1_0 W0_2 2.460531 1_545
S1_1 W0_1 2.460413 1_555
S1_1 W0_5 2.460443 1_555
S1_1 W0_3 2.460531 1_545
S1_2 W0_2 2.460413 1_555
S1_2 W0_6 2.460443 1_555
S1_2 W0_0 2.460531 1_555
S1_3 W0_3 2.460413 1_555
S1_3 W0_7 2.460443 1_555
S1_3 W0_1 2.460531 1_555
S1_4 W0_4 2.460413 1_555
S1_4 W0_0 2.460443 1_655
S1_4 W0_6 2.460531 1_545
S1_5 W0_5 2.460413 1_555
S1_5 W0_1 2.460443 1_655
S1_5 W0_7 2.460531 1_545
S1_6 W0_6 2.460413 1_555
S1_6 W0_2 2.460443 1_655
S1_6 W0_4 2.460531 1_555
S1_7 W0_7 2.460413 1_555
S1_7 W0_3 2.460443 1_655
S1_7 W0_5 2.460531 1_555
S2_0 W0_0 2.460196 1_555
S2_0 W0_4 2.460214 1_555
S2_0 W0_2 2.460269 1_545
S2_1 W0_1 2.460196 1_555
S2_1 W0_5 2.460214 1_555
S2_1 W0_3 2.460269 1_545
S2_2 W0_2 2.460196 1_555
S2_2 W0_6 2.460214 1_555
S2_2 W0_0 2.460269 1_555
S2_3 W0_3 2.460196 1_555
S2_3 W0_7 2.460214 1_555
S2_3 W0_1 2.460269 1_555
S2_4 W0_4 2.460196 1_555
S2_4 W0_0 2.460214 1_655
S2_4 W0_6 2.460269 1_545
S2_5 W0_5 2.460196 1_555
S2_5 W0_1 2.460214 1_655
S2_5 W0_7 2.460269 1_545
S2_6 W0_6 2.460196 1_555
S2_6 W0_2 2.460214 1_655
S2_6 W0_4 2.460269 1_555
S2_7 W0_7 2.460196 1_555
S2_7 W0_3 2.460214 1_655
S2_7 W0_5 2.460269 1_555
