# generated using pymatgen
data_MgMn12(O7F5)2
_symmetry_space_group_name_H-M   'P 1'
_cell_length_a   4.80619422
_cell_length_b   5.80176230
_cell_length_c   15.21711037
_cell_angle_alpha   90.39460453
_cell_angle_beta   87.65494793
_cell_angle_gamma   90.94922959
_symmetry_Int_Tables_number   1
_chemical_formula_structural   MgMn12(O7F5)2
_chemical_formula_sum   'Mg1 Mn12 O14 F10'
_cell_volume   423.89821328
_cell_formula_units_Z   1
loop_
 _symmetry_equiv_pos_site_id
 _symmetry_equiv_pos_as_xyz
  1  'x, y, z'
loop_
 _atom_site_type_symbol
 _atom_site_label
 _atom_site_symmetry_multiplicity
 _atom_site_fract_x
 _atom_site_fract_y
 _atom_site_fract_z
 _atom_site_occupancy
  Mg  Mg0  1  0.50370600  0.08350500  0.74422700  1
  Mn  Mn0  1  0.97326300  0.15827400  0.40556700  1
  Mn  Mn1  1  0.00890900  0.84460800  0.24014300  1
  Mn  Mn2  1  0.03207400  0.17541900  0.08428600  1
  Mn  Mn3  1  0.02865600  0.33860400  0.73858200  1
  Mn  Mn4  1  0.01867900  0.84079700  0.58000000  1
  Mn  Mn5  1  0.05349900  0.85114600  0.91519400  1
  Mn  Mn6  1  0.46244100  0.35422300  0.57838400  1
  Mn  Mn7  1  0.52359000  0.33029400  0.93128400  1
  Mn  Mn8  1  0.48916800  0.35133500  0.25495400  1
  Mn  Mn9  1  0.51364400  0.64094200  0.09584000  1
  Mn  Mn10  1  0.48535700  0.65870400  0.42248300  1
  Mn  Mn11  1  0.50518200  0.61233500  0.75282200  1
  O  O0  1  0.20385700  0.11756900  0.30104900  1
  O  O1  1  0.23638600  0.10853600  0.64053600  1
  O  O2  1  0.23212300  0.12585200  0.97573300  1
  O  O3  1  0.23824300  0.88555200  0.13700200  1
  O  O4  1  0.20169400  0.88726800  0.46854900  1
  O  O5  1  0.31545600  0.84083500  0.81215600  1
  O  O6  1  0.28521900  0.40411600  0.14877200  1
  O  O7  1  0.20833700  0.57001100  0.65965700  1
  O  O8  1  0.33146000  0.34642500  0.81675700  1
  O  O9  1  0.73912500  0.39104100  0.03293000  1
  O  O10  1  0.72030400  0.62197600  0.19696400  1
  O  O11  1  0.68987500  0.38297500  0.36284500  1
  O  O12  1  0.66721600  0.62183100  0.53045800  1
  O  O13  1  0.69156200  0.36558000  0.68563200  1
  F  F0  1  0.24981100  0.62565500  0.31827700  1
  F  F1  1  0.21027900  0.38964900  0.47828200  1
  F  F2  1  0.30117200  0.62019300  0.98581100  1
  F  F3  1  0.79807400  0.57999400  0.85794900  1
  F  F4  1  0.77249400  0.12732900  0.18646600  1
  F  F5  1  0.74762300  0.12060700  0.51899800  1
  F  F6  1  0.75091300  0.87951600  0.34693300  1
  F  F7  1  0.76588200  0.87409400  0.02315900  1
  F  F8  1  0.81890400  0.12431500  0.83214800  1
  F  F9  1  0.75359800  0.85603900  0.68916700  1
loop_
_geom_bond_atom_site_label_1
_geom_bond_atom_site_label_2
_geom_bond_distance
_geom_bond_site_symmetry_2
Mg0 O5 1.941811 1_545
Mg0 O8 2.043086 1_555
Mg0 O13 2.047855 1_555
Mg0 O1 2.082478 1_555
Mn0 O0 1.916474 1_655
Mn0 O11 2.029835 1_555
Mn0 O4 2.181768 1_645
Mn1 O3 1.894616 1_555
Mn1 O10 2.006904 1_455
Mn1 O0 2.060709 1_565
Mn2 O2 1.899587 1_554
Mn2 O6 2.056697 1_555
Mn2 O9 2.078448 1_455
Mn2 O3 2.143001 1_545
Mn3 O13 1.848118 1_455
Mn3 O8 1.916754 1_555
Mn3 O7 1.972209 1_555
Mn3 O1 2.213435 1_555
Mn4 O4 1.897115 1_555
Mn4 O1 2.088456 1_565
Mn4 O7 2.220912 1_555
Mn4 O12 2.248454 1_455
Mn5 O5 1.971496 1_555
Mn5 O2 2.031005 1_565
Mn6 O12 1.953788 1_555
Mn6 O1 1.997467 1_555
Mn6 O13 2.005893 1_555
Mn6 O7 2.119940 1_555
Mn7 O9 1.923873 1_556
Mn7 O2 1.924894 1_555
Mn7 O8 2.008857 1_555
Mn8 O11 1.944037 1_555
Mn8 O6 1.952365 1_555
Mn8 O0 2.021030 1_555
Mn8 O10 2.087905 1_555
Mn9 O10 1.870196 1_555
Mn9 O6 1.906533 1_555
Mn9 O3 2.034827 1_555
Mn9 O9 2.034947 1_555
Mn10 O12 1.907344 1_555
Mn10 O4 2.019268 1_555
Mn10 O11 2.075566 1_555
Mn11 O5 1.833134 1_555
Mn11 O13 1.960789 1_555
Mn11 O8 1.983749 1_555
Mn11 O7 2.062705 1_555
F0 Mn10 1.992081 1_555
F0 Mn1 2.133096 1_555
F0 Mn8 2.175717 1_555
F1 Mn6 1.998753 1_555
F1 Mn0 2.087112 1_455
F1 Mn10 2.182561 1_555
F2 Mn9 1.998433 1_556
F2 Mn5 2.131780 1_555
F2 Mn7 2.151240 1_555
F3 Mn5 2.178384 1_655
F3 Mn11 2.184747 1_555
F3 Mn7 2.218759 1_555
F3 Mn3 2.518046 1_655
F4 Mn2 1.971723 1_655
F4 Mn8 2.133851 1_555
F4 Mn1 2.192016 1_645
F5 Mn0 2.011811 1_555
F5 Mn6 2.115581 1_555
F5 Mn4 2.320352 1_645
F6 Mn1 2.014496 1_655
F6 Mn10 2.106639 1_555
F6 Mn0 2.134158 1_565
F7 Mn9 2.092662 1_555
F7 Mn5 2.108317 1_654
F7 Mn2 2.357787 1_665
F8 Mg0 2.071374 1_555
F8 Mn3 2.110587 1_655
F8 Mn7 2.361048 1_555
F8 Mn5 2.362932 1_645
F9 Mg0 1.959853 1_565
F9 Mn4 2.054043 1_655
F9 Mn11 2.056987 1_555
