# generated using pymatgen
data_MgTe2MoW2(SeS)2
_symmetry_space_group_name_H-M   'P 1'
_cell_length_a   6.67552400
_cell_length_b   6.67546652
_cell_length_c   77.15313369
_cell_angle_alpha   90.02146311
_cell_angle_beta   90.00000743
_cell_angle_gamma   120.00024787
_symmetry_Int_Tables_number   1
_chemical_formula_structural   MgTe2MoW2(SeS)2
_chemical_formula_sum   'Mg8 Te16 Mo8 W16 Se16 S16'
_cell_volume   2977.48827500
_cell_formula_units_Z   8
loop_
 _symmetry_equiv_pos_site_id
 _symmetry_equiv_pos_as_xyz
  1  'x, y, z'
loop_
 _atom_site_type_symbol
 _atom_site_label
 _atom_site_symmetry_multiplicity
 _atom_site_fract_x
 _atom_site_fract_y
 _atom_site_fract_z
 _atom_site_occupancy
  Mg  Mg0_0  1  0.00003150  0.00006300  0.11684800  1
  Mg  Mg0_1  1  0.00003150  0.00006300  0.61684800  1
  Mg  Mg0_2  1  0.00003150  0.50006300  0.11684800  1
  Mg  Mg0_3  1  0.00003150  0.50006300  0.61684800  1
  Mg  Mg0_4  1  0.50003150  0.00006300  0.11684800  1
  Mg  Mg0_5  1  0.50003150  0.00006300  0.61684800  1
  Mg  Mg0_6  1  0.50003150  0.50006300  0.11684800  1
  Mg  Mg0_7  1  0.50003150  0.50006300  0.61684800  1
  Te  Te0_0  1  0.33331450  0.16662800  0.03003750  1
  Te  Te0_1  1  0.33331450  0.16662800  0.53003750  1
  Te  Te0_2  1  0.33331450  0.66662800  0.03003750  1
  Te  Te0_3  1  0.33331450  0.66662800  0.53003750  1
  Te  Te0_4  1  0.83331450  0.16662800  0.03003750  1
  Te  Te0_5  1  0.83331450  0.16662800  0.53003750  1
  Te  Te0_6  1  0.83331450  0.66662800  0.03003750  1
  Te  Te0_7  1  0.83331450  0.66662800  0.53003750  1
  Te  Te1_0  1  0.33342450  0.16684850  0.07943700  1
  Te  Te1_1  1  0.33342450  0.16684850  0.57943700  1
  Te  Te1_2  1  0.33342450  0.66684850  0.07943700  1
  Te  Te1_3  1  0.33342450  0.66684850  0.57943700  1
  Te  Te1_4  1  0.83342450  0.16684850  0.07943700  1
  Te  Te1_5  1  0.83342450  0.16684850  0.57943700  1
  Te  Te1_6  1  0.83342450  0.66684850  0.07943700  1
  Te  Te1_7  1  0.83342450  0.66684850  0.57943700  1
  Mo  Mo0_0  1  0.16668250  0.33336300  0.05457450  1
  Mo  Mo0_1  1  0.16668250  0.33336300  0.55457450  1
  Mo  Mo0_2  1  0.16668250  0.83336300  0.05457450  1
  Mo  Mo0_3  1  0.16668250  0.83336300  0.55457450  1
  Mo  Mo0_4  1  0.66668250  0.33336300  0.05457450  1
  Mo  Mo0_5  1  0.66668250  0.33336300  0.55457450  1
  Mo  Mo0_6  1  0.66668250  0.83336300  0.05457450  1
  Mo  Mo0_7  1  0.66668250  0.83336300  0.55457450  1
  W  W0_0  1  0.16659750  0.33319550  0.28902300  1
  W  W0_1  1  0.16659750  0.33319550  0.78902300  1
  W  W0_2  1  0.16659750  0.83319550  0.28902300  1
  W  W0_3  1  0.16659750  0.83319550  0.78902300  1
  W  W0_4  1  0.66659750  0.33319550  0.28902300  1
  W  W0_5  1  0.66659750  0.33319550  0.78902300  1
  W  W0_6  1  0.66659750  0.83319550  0.28902300  1
  W  W0_7  1  0.66659750  0.83319550  0.78902300  1
  W  W1_0  1  0.33336200  0.16672500  0.17883600  1
  W  W1_1  1  0.33336200  0.16672500  0.67883600  1
  W  W1_2  1  0.33336200  0.66672500  0.17883600  1
  W  W1_3  1  0.33336200  0.66672500  0.67883600  1
  W  W1_4  1  0.83336200  0.16672500  0.17883600  1
  W  W1_5  1  0.83336200  0.16672500  0.67883600  1
  W  W1_6  1  0.83336200  0.66672500  0.17883600  1
  W  W1_7  1  0.83336200  0.66672500  0.67883600  1
  Se  Se0_0  1  0.33314250  0.16628400  0.26725600  1
  Se  Se0_1  1  0.33314250  0.16628400  0.76725600  1
  Se  Se0_2  1  0.33314250  0.66628400  0.26725600  1
  Se  Se0_3  1  0.33314250  0.66628400  0.76725600  1
  Se  Se0_4  1  0.83314250  0.16628400  0.26725600  1
  Se  Se0_5  1  0.83314250  0.16628400  0.76725600  1
  Se  Se0_6  1  0.83314250  0.66628400  0.26725600  1
  Se  Se0_7  1  0.83314250  0.66628400  0.76725600  1
  Se  Se1_0  1  0.33337200  0.16674350  0.31076400  1
  Se  Se1_1  1  0.33337200  0.16674350  0.81076400  1
  Se  Se1_2  1  0.33337200  0.66674350  0.31076400  1
  Se  Se1_3  1  0.33337200  0.66674350  0.81076400  1
  Se  Se1_4  1  0.83337200  0.16674350  0.31076400  1
  Se  Se1_5  1  0.83337200  0.16674350  0.81076400  1
  Se  Se1_6  1  0.83337200  0.66674350  0.31076400  1
  Se  Se1_7  1  0.83337200  0.66674350  0.81076400  1
  S  S0_0  1  0.16676950  0.33353900  0.19852100  1
  S  S0_1  1  0.16676950  0.33353900  0.69852100  1
  S  S0_2  1  0.16676950  0.83353900  0.19852100  1
  S  S0_3  1  0.16676950  0.83353900  0.69852100  1
  S  S0_4  1  0.66676950  0.33353900  0.19852100  1
  S  S0_5  1  0.66676950  0.33353900  0.69852100  1
  S  S0_6  1  0.66676950  0.83353900  0.19852100  1
  S  S0_7  1  0.66676950  0.83353900  0.69852100  1
  S  S1_0  1  0.16660450  0.33320950  0.15903950  1
  S  S1_1  1  0.16660450  0.33320950  0.65903950  1
  S  S1_2  1  0.16660450  0.83320950  0.15903950  1
  S  S1_3  1  0.16660450  0.83320950  0.65903950  1
  S  S1_4  1  0.66660450  0.33320950  0.15903950  1
  S  S1_5  1  0.66660450  0.33320950  0.65903950  1
  S  S1_6  1  0.66660450  0.83320950  0.15903950  1
  S  S1_7  1  0.66660450  0.83320950  0.65903950  1
loop_
_geom_bond_atom_site_label_1
_geom_bond_atom_site_label_2
_geom_bond_distance
_geom_bond_site_symmetry_2
Mg0_0 Mg0_2 3.337733 1_545
Mg0_0 Mg0_2 3.337733 1_555
Mg0_0 Mg0_6 3.337735 1_445
Mg0_0 Mg0_6 3.337735 1_555
Mg0_0 Mg0_4 3.337762 1_555
Mg0_0 Mg0_4 3.337762 1_455
Mg0_0 Te1_6 3.469463 1_445
Mg0_0 Te1_4 3.471083 1_455
Mg0_0 Te1_0 3.471086 1_555
Mg0_1 Mg0_3 3.337733 1_545
Mg0_1 Mg0_3 3.337733 1_555
Mg0_1 Mg0_7 3.337735 1_445
Mg0_1 Mg0_7 3.337735 1_555
Mg0_1 Mg0_5 3.337762 1_555
Mg0_1 Mg0_5 3.337762 1_455
Mg0_1 Te1_7 3.469463 1_445
Mg0_1 Te1_5 3.471083 1_455
Mg0_1 Te1_1 3.471086 1_555
Mg0_2 Mg0_4 3.337735 1_565
Mg0_2 Mg0_4 3.337735 1_455
Mg0_2 Mg0_6 3.337762 1_555
Mg0_2 Mg0_6 3.337762 1_455
Mg0_2 Te1_4 3.469463 1_455
Mg0_2 Te1_6 3.471083 1_455
Mg0_2 Te1_2 3.471086 1_555
Mg0_3 Mg0_5 3.337735 1_565
Mg0_3 Mg0_5 3.337735 1_455
Mg0_3 Mg0_7 3.337762 1_555
Mg0_3 Mg0_7 3.337762 1_455
Mg0_3 Te1_5 3.469463 1_455
Mg0_3 Te1_7 3.471083 1_455
Mg0_3 Te1_3 3.471086 1_555
Mg0_4 Mg0_6 3.337733 1_545
Mg0_4 Mg0_6 3.337733 1_555
Mg0_4 Te1_2 3.469463 1_545
Mg0_4 Te1_0 3.471083 1_555
Mg0_4 Te1_4 3.471086 1_555
Mg0_5 Mg0_7 3.337733 1_545
Mg0_5 Mg0_7 3.337733 1_555
Mg0_5 Te1_3 3.469463 1_545
Mg0_5 Te1_1 3.471083 1_555
Mg0_5 Te1_5 3.471086 1_555
Mg0_6 Te1_0 3.469463 1_555
Mg0_6 Te1_2 3.471083 1_555
Mg0_6 Te1_6 3.471086 1_555
Mg0_7 Te1_1 3.469463 1_555
Mg0_7 Te1_3 3.471083 1_555
Mg0_7 Te1_7 3.471086 1_555
Te1_0 Te1_2 3.337733 1_555
Te1_0 Te1_2 3.337733 1_545
Te1_0 Te1_6 3.337735 1_555
Te1_0 Te1_6 3.337735 1_445
Te1_0 Te1_4 3.337762 1_555
Te1_0 Te1_4 3.337762 1_455
Te1_1 Te1_3 3.337733 1_545
Te1_1 Te1_3 3.337733 1_555
Te1_1 Te1_7 3.337735 1_555
Te1_1 Te1_7 3.337735 1_445
Te1_1 Te1_5 3.337762 1_555
Te1_1 Te1_5 3.337762 1_455
Te1_2 Te1_4 3.337735 1_455
Te1_2 Te1_4 3.337735 1_565
Te1_2 Te1_6 3.337762 1_555
Te1_2 Te1_6 3.337762 1_455
Te1_3 Te1_5 3.337735 1_565
Te1_3 Te1_5 3.337735 1_455
Te1_3 Te1_7 3.337762 1_555
Te1_3 Te1_7 3.337762 1_455
Te1_4 Te1_6 3.337733 1_555
Te1_4 Te1_6 3.337733 1_545
Te1_5 Te1_7 3.337733 1_555
Te1_5 Te1_7 3.337733 1_545
Mo0_0 Te0_0 2.701213 1_555
Mo0_0 Te0_4 2.701218 1_455
Mo0_0 Te0_2 2.701658 1_555
Mo0_0 Te1_0 2.719004 1_555
Mo0_0 Te1_4 2.719011 1_455
Mo0_0 Te1_2 2.719049 1_555
Mo0_1 Te0_1 2.701213 1_555
Mo0_1 Te0_5 2.701218 1_455
Mo0_1 Te0_3 2.701658 1_555
Mo0_1 Te1_1 2.719004 1_555
Mo0_1 Te1_5 2.719011 1_455
Mo0_1 Te1_3 2.719049 1_555
Mo0_2 Te0_2 2.701213 1_555
Mo0_2 Te0_6 2.701218 1_455
Mo0_2 Te0_0 2.701658 1_565
Mo0_2 Te1_2 2.719004 1_555
Mo0_2 Te1_6 2.719011 1_455
Mo0_2 Te1_0 2.719049 1_565
Mo0_3 Te0_3 2.701213 1_555
Mo0_3 Te0_7 2.701218 1_455
Mo0_3 Te0_1 2.701658 1_565
Mo0_3 Te1_3 2.719004 1_555
Mo0_3 Te1_7 2.719011 1_455
Mo0_3 Te1_1 2.719049 1_565
Mo0_4 Te0_4 2.701213 1_555
Mo0_4 Te0_0 2.701218 1_555
Mo0_4 Te0_6 2.701658 1_555
Mo0_4 Te1_4 2.719004 1_555
Mo0_4 Te1_0 2.719011 1_555
Mo0_4 Te1_6 2.719049 1_555
Mo0_5 Te0_5 2.701213 1_555
Mo0_5 Te0_1 2.701218 1_555
Mo0_5 Te0_7 2.701658 1_555
Mo0_5 Te1_5 2.719004 1_555
Mo0_5 Te1_1 2.719011 1_555
Mo0_5 Te1_7 2.719049 1_555
Mo0_6 Te0_6 2.701213 1_555
Mo0_6 Te0_2 2.701218 1_555
Mo0_6 Te0_4 2.701658 1_565
Mo0_6 Te1_6 2.719004 1_555
Mo0_6 Te1_2 2.719011 1_555
Mo0_6 Te1_4 2.719049 1_565
Mo0_7 Te0_7 2.701213 1_555
Mo0_7 Te0_3 2.701218 1_555
Mo0_7 Te0_5 2.701658 1_565
Mo0_7 Te1_7 2.719004 1_555
Mo0_7 Te1_3 2.719011 1_555
Mo0_7 Te1_5 2.719049 1_565
Se0_0 W0_2 2.555616 1_545
Se0_0 W0_4 2.556404 1_555
Se0_0 W0_0 2.556410 1_555
Se0_1 W0_3 2.555616 1_545
Se0_1 W0_5 2.556404 1_555
Se0_1 W0_1 2.556410 1_555
Se0_2 W0_0 2.555616 1_555
Se0_2 W0_6 2.556404 1_555
Se0_2 W0_2 2.556410 1_555
Se0_3 W0_1 2.555616 1_555
Se0_3 W0_7 2.556404 1_555
Se0_3 W0_3 2.556410 1_555
Se0_4 W0_6 2.555616 1_545
Se0_4 W0_0 2.556404 1_655
Se0_4 W0_4 2.556410 1_555
Se0_5 W0_7 2.555616 1_545
Se0_5 W0_1 2.556404 1_655
Se0_5 W0_5 2.556410 1_555
Se0_6 W0_4 2.555616 1_555
Se0_6 W0_2 2.556404 1_655
Se0_6 W0_6 2.556410 1_555
Se0_7 W0_5 2.555616 1_555
Se0_7 W0_3 2.556404 1_655
Se0_7 W0_7 2.556410 1_555
Se1_0 W0_4 2.554634 1_555
Se1_0 W0_0 2.554637 1_555
Se1_0 W0_2 2.555206 1_545
Se1_1 W0_5 2.554634 1_555
Se1_1 W0_1 2.554637 1_555
Se1_1 W0_3 2.555206 1_545
Se1_2 W0_6 2.554634 1_555
Se1_2 W0_2 2.554637 1_555
Se1_2 W0_0 2.555206 1_555
Se1_3 W0_7 2.554634 1_555
Se1_3 W0_3 2.554637 1_555
Se1_3 W0_1 2.555206 1_555
Se1_4 W0_0 2.554634 1_655
Se1_4 W0_4 2.554637 1_555
Se1_4 W0_6 2.555206 1_545
Se1_5 W0_1 2.554634 1_655
Se1_5 W0_5 2.554637 1_555
Se1_5 W0_7 2.555206 1_545
Se1_6 W0_2 2.554634 1_655
Se1_6 W0_6 2.554637 1_555
Se1_6 W0_4 2.555206 1_555
Se1_7 W0_3 2.554634 1_655
Se1_7 W0_7 2.554637 1_555
Se1_7 W0_5 2.555206 1_555
S0_0 W1_2 2.453436 1_555
S0_0 W1_0 2.453676 1_555
S0_0 W1_4 2.453681 1_455
S0_1 W1_3 2.453436 1_555
S0_1 W1_1 2.453676 1_555
S0_1 W1_5 2.453681 1_455
S0_2 W1_0 2.453436 1_565
S0_2 W1_2 2.453676 1_555
S0_2 W1_6 2.453681 1_455
S0_3 W1_1 2.453436 1_565
S0_3 W1_3 2.453676 1_555
S0_3 W1_7 2.453681 1_455
S0_4 W1_6 2.453436 1_555
S0_4 W1_4 2.453676 1_555
S0_4 W1_0 2.453681 1_555
S0_5 W1_7 2.453436 1_555
S0_5 W1_5 2.453676 1_555
S0_5 W1_1 2.453681 1_555
S0_6 W1_4 2.453436 1_565
S0_6 W1_6 2.453676 1_555
S0_6 W1_2 2.453681 1_555
S0_7 W1_5 2.453436 1_565
S0_7 W1_7 2.453676 1_555
S0_7 W1_3 2.453681 1_555
S1_0 W1_0 2.458780 1_555
S1_0 W1_4 2.458784 1_455
S1_0 W1_2 2.459231 1_555
S1_1 W1_1 2.458780 1_555
S1_1 W1_5 2.458784 1_455
S1_1 W1_3 2.459231 1_555
S1_2 W1_2 2.458780 1_555
S1_2 W1_6 2.458784 1_455
S1_2 W1_0 2.459231 1_565
S1_3 W1_3 2.458780 1_555
S1_3 W1_7 2.458784 1_455
S1_3 W1_1 2.459231 1_565
S1_4 W1_4 2.458780 1_555
S1_4 W1_0 2.458784 1_555
S1_4 W1_6 2.459231 1_555
S1_5 W1_5 2.458780 1_555
S1_5 W1_1 2.458784 1_555
S1_5 W1_7 2.459231 1_555
S1_6 W1_6 2.458780 1_555
S1_6 W1_2 2.458784 1_555
S1_6 W1_4 2.459231 1_565
S1_7 W1_7 2.458780 1_555
S1_7 W1_3 2.458784 1_555
S1_7 W1_5 2.459231 1_565
