# generated using pymatgen
data_Ba2Lu(CuO2)3
_symmetry_space_group_name_H-M   'P 1'
_cell_length_a   3.85109900
_cell_length_b   3.85109900
_cell_length_c   12.11118000
_cell_angle_alpha   90.00000000
_cell_angle_beta   90.00000000
_cell_angle_gamma   90.00000000
_symmetry_Int_Tables_number   1
_chemical_formula_structural   Ba2Lu(CuO2)3
_chemical_formula_sum   'Ba2 Lu1 Cu3 O6'
_cell_volume   179.62046862
_cell_formula_units_Z   1
loop_
 _symmetry_equiv_pos_site_id
 _symmetry_equiv_pos_as_xyz
  1  'x, y, z'
loop_
 _atom_site_type_symbol
 _atom_site_label
 _atom_site_symmetry_multiplicity
 _atom_site_fract_x
 _atom_site_fract_y
 _atom_site_fract_z
 _atom_site_occupancy
  Ba  Ba0  1  0.50000000  0.50000000  0.19627200  1
  Ba  Ba1  1  0.50000000  0.50000000  0.80372800  1
  Lu  Lu0  1  0.50000000  0.50000000  0.50000000  1
  Cu  Cu0  1  0.00000000  0.00000000  0.00000000  1
  Cu  Cu1  1  0.00000000  0.00000000  0.36941200  1
  Cu  Cu2  1  0.00000000  0.00000000  0.63058800  1
  O  O0  1  0.50000000  0.00000000  0.61506200  1
  O  O1  1  0.00000000  0.50000000  0.61506200  1
  O  O2  1  0.50000000  0.00000000  0.38493800  1
  O  O3  1  0.00000000  0.50000000  0.38493800  1
  O  O4  1  0.00000000  0.00000000  0.14985300  1
  O  O5  1  0.00000000  0.00000000  0.85014700  1
loop_
_geom_bond_atom_site_label_1
_geom_bond_atom_site_label_2
_geom_bond_distance
_geom_bond_site_symmetry_2
Ba0 O4 2.780564 1_655
Ba0 O4 2.780564 1_665
Ba0 O4 2.780564 1_565
Ba0 O4 2.780564 1_555
Ba0 O3 2.988113 1_655
Ba0 O2 2.988113 1_565
Ba0 O2 2.988113 1_555
Ba0 O3 2.988113 1_555
Ba1 O5 2.780564 1_565
Ba1 O5 2.780564 1_655
Ba1 O5 2.780564 1_665
Ba1 O5 2.780564 1_555
Ba1 O1 2.988113 1_555
Ba1 O0 2.988113 1_555
Ba1 O0 2.988113 1_565
Ba1 O1 2.988113 1_655
Lu0 O2 2.376907 1_555
Lu0 O1 2.376907 1_655
Lu0 O3 2.376907 1_555
Lu0 O3 2.376907 1_655
Lu0 O1 2.376907 1_555
Lu0 O2 2.376907 1_565
Lu0 O0 2.376907 1_555
Lu0 O0 2.376907 1_565
Cu0 O4 1.814897 1_555
Cu0 O5 1.814897 1_554
Cu1 O3 1.934709 1_545
Cu1 O2 1.934709 1_555
Cu1 O3 1.934709 1_555
Cu1 O2 1.934709 1_455
Cu1 O4 2.659119 1_555
Cu2 O1 1.934709 1_545
Cu2 O1 1.934709 1_555
Cu2 O0 1.934709 1_555
Cu2 O0 1.934709 1_455
Cu2 O5 2.659119 1_555
