# generated using pymatgen
data_Cs3Fe2Cl9
_symmetry_space_group_name_H-M   'P 1'
_cell_length_a   7.48319751
_cell_length_b   7.48319751
_cell_length_c   18.15906000
_cell_angle_alpha   90.00000000
_cell_angle_beta   90.00000000
_cell_angle_gamma   119.99999564
_symmetry_Int_Tables_number   1
_chemical_formula_structural   Cs3Fe2Cl9
_chemical_formula_sum   'Cs6 Fe4 Cl18'
_cell_volume   880.64004508
_cell_formula_units_Z   2
loop_
 _symmetry_equiv_pos_site_id
 _symmetry_equiv_pos_as_xyz
  1  'x, y, z'
loop_
 _atom_site_type_symbol
 _atom_site_label
 _atom_site_symmetry_multiplicity
 _atom_site_fract_x
 _atom_site_fract_y
 _atom_site_fract_z
 _atom_site_occupancy
  Cs  Cs0  1  0.66666700  0.33333300  0.91670700  1
  Cs  Cs1  1  0.33333300  0.66666700  0.41670700  1
  Cs  Cs2  1  0.66666700  0.33333300  0.58329300  1
  Cs  Cs3  1  0.33333300  0.66666700  0.08329300  1
  Cs  Cs4  1  0.00000000  0.00000000  0.75000000  1
  Cs  Cs5  1  0.00000000  0.00000000  0.25000000  1
  Fe  Fe0  1  0.33333300  0.66666700  0.84550800  1
  Fe  Fe1  1  0.66666700  0.33333300  0.34550800  1
  Fe  Fe2  1  0.66666700  0.33333300  0.15449200  1
  Fe  Fe3  1  0.33333300  0.66666700  0.65449200  1
  Cl  Cl0  1  0.64044500  0.82022200  0.59163700  1
  Cl  Cl1  1  0.64044500  0.82022200  0.90836300  1
  Cl  Cl2  1  0.17977800  0.35955500  0.59163700  1
  Cl  Cl3  1  0.17977800  0.82022200  0.90836300  1
  Cl  Cl4  1  0.82022200  0.17977800  0.40836300  1
  Cl  Cl5  1  0.82022200  0.64044500  0.40836300  1
  Cl  Cl6  1  0.52070900  0.04141800  0.25000000  1
  Cl  Cl7  1  0.47929100  0.52070900  0.75000000  1
  Cl  Cl8  1  0.04141800  0.52070900  0.75000000  1
  Cl  Cl9  1  0.95858200  0.47929100  0.25000000  1
  Cl  Cl10  1  0.17977800  0.35955500  0.90836300  1
  Cl  Cl11  1  0.47929100  0.95858200  0.75000000  1
  Cl  Cl12  1  0.82022200  0.64044500  0.09163700  1
  Cl  Cl13  1  0.17977800  0.82022200  0.59163700  1
  Cl  Cl14  1  0.52070900  0.47929100  0.25000000  1
  Cl  Cl15  1  0.35955500  0.17977800  0.09163700  1
  Cl  Cl16  1  0.82022200  0.17977800  0.09163700  1
  Cl  Cl17  1  0.35955500  0.17977800  0.40836300  1
loop_
_geom_bond_atom_site_label_1
_geom_bond_atom_site_label_2
_geom_bond_distance
_geom_bond_site_symmetry_2
Cl0 Fe3 2.294338 1_555
Cl0 Cs4 3.701265 1_665
Cl0 Cs2 3.748519 1_555
Cl0 Cs2 3.748519 1_565
Cl0 Cs1 3.748571 1_555
Cl1 Fe0 2.294338 1_555
Cl1 Cs4 3.701265 1_665
Cl1 Cs0 3.748519 1_555
Cl1 Cs0 3.748519 1_565
Cl1 Cs3 3.748571 1_556
Cl2 Fe3 2.294338 1_555
Cl2 Cs4 3.701265 1_555
Cl2 Cs2 3.748519 1_555
Cl2 Cs2 3.748519 1_455
Cl2 Cs1 3.748571 1_555
Cl3 Fe0 2.294327 1_555
Cl3 Cs4 3.701269 1_565
Cl3 Cs0 3.748520 1_455
Cl3 Cs0 3.748520 1_565
Cl3 Cs3 3.748564 1_556
Cl4 Fe1 2.294327 1_555
Cl4 Cs5 3.701269 1_655
Cl4 Cs1 3.748520 1_545
Cl4 Cs1 3.748520 1_655
Cl4 Cs2 3.748564 1_555
Cl5 Fe1 2.294338 1_555
Cl5 Cs5 3.701265 1_665
Cl5 Cs1 3.748519 1_555
Cl5 Cs1 3.748519 1_655
Cl5 Cs2 3.748571 1_555
Cl6 Fe1 2.566478 1_555
Cl6 Fe2 2.566478 1_555
Cl6 Cs5 3.751214 1_655
Cl6 Cs5 3.751214 1_555
Cl6 Cs1 3.881034 1_545
Cl6 Cs3 3.881034 1_545
Cl7 Fe0 2.566483 1_555
Cl7 Fe3 2.566483 1_555
Cl7 Cs4 3.751214 1_555
Cl7 Cs4 3.751214 1_665
Cl7 Cs0 3.881038 1_555
Cl7 Cs2 3.881038 1_555
Cl8 Fe0 2.566478 1_555
Cl8 Fe3 2.566478 1_555
Cl8 Cs4 3.751214 1_565
Cl8 Cs4 3.751214 1_555
Cl8 Cs0 3.881034 1_455
Cl8 Cs2 3.881034 1_455
Cl9 Fe1 2.566478 1_555
Cl9 Fe2 2.566478 1_555
Cl9 Cs5 3.751214 1_655
Cl9 Cs5 3.751214 1_665
Cl9 Cs1 3.881034 1_655
Cl9 Cs3 3.881034 1_655
Cl10 Fe0 2.294338 1_555
Cl10 Cs4 3.701265 1_555
Cl10 Cs0 3.748519 1_555
Cl10 Cs0 3.748519 1_455
Cl10 Cs3 3.748571 1_556
Cl11 Fe0 2.566478 1_555
Cl11 Fe3 2.566478 1_555
Cl11 Cs4 3.751214 1_565
Cl11 Cs4 3.751214 1_665
Cl11 Cs0 3.881034 1_565
Cl11 Cs2 3.881034 1_565
Cl12 Fe2 2.294338 1_555
Cl12 Cs5 3.701265 1_665
Cl12 Cs3 3.748519 1_555
Cl12 Cs3 3.748519 1_655
Cl12 Cs0 3.748571 1_554
Cl13 Fe3 2.294327 1_555
Cl13 Cs4 3.701269 1_565
Cl13 Cs2 3.748520 1_455
Cl13 Cs2 3.748520 1_565
Cl13 Cs1 3.748564 1_555
Cl14 Fe1 2.566483 1_555
Cl14 Fe2 2.566483 1_555
Cl14 Cs5 3.751214 1_555
Cl14 Cs5 3.751214 1_665
Cl14 Cs1 3.881038 1_555
Cl14 Cs3 3.881038 1_555
Cl15 Fe2 2.294338 1_555
Cl15 Cs5 3.701265 1_555
Cl15 Cs3 3.748519 1_555
Cl15 Cs3 3.748519 1_545
Cl15 Cs0 3.748571 1_554
Cl16 Fe2 2.294327 1_555
Cl16 Cs5 3.701269 1_655
Cl16 Cs3 3.748520 1_545
Cl16 Cs3 3.748520 1_655
Cl16 Cs0 3.748564 1_554
Cl17 Fe1 2.294338 1_555
Cl17 Cs5 3.701265 1_555
Cl17 Cs1 3.748519 1_555
Cl17 Cs1 3.748519 1_545
Cl17 Cs2 3.748571 1_555
