# generated using pymatgen
data_K2Na2Nd2MgNb2O10
_symmetry_space_group_name_H-M   'P 1'
_cell_length_a   5.95361842
_cell_length_b   5.95214107
_cell_length_c   8.72299166
_cell_angle_alpha   89.66900006
_cell_angle_beta   89.90346211
_cell_angle_gamma   86.69533757
_symmetry_Int_Tables_number   1
_chemical_formula_structural   K2Na2Nd2MgNb2O10
_chemical_formula_sum   'K2 Na2 Nd2 Mg1 Nb2 O10'
_cell_volume   308.59525748
_cell_formula_units_Z   1
loop_
 _symmetry_equiv_pos_site_id
 _symmetry_equiv_pos_as_xyz
  1  'x, y, z'
loop_
 _atom_site_type_symbol
 _atom_site_label
 _atom_site_symmetry_multiplicity
 _atom_site_fract_x
 _atom_site_fract_y
 _atom_site_fract_z
 _atom_site_occupancy
  K  K0  1  0.14116557  0.74812921  0.04227787  1
  K  K1  1  0.75277708  0.36259390  0.04875074  1
  Na  Na0  1  0.21076351  0.28522320  0.73712428  1
  Na  Na1  1  0.74968451  0.75281179  0.28071687  1
  Nd  Nd0  1  0.28637272  0.77039489  0.51559688  1
  Nd  Nd1  1  0.72854579  0.21236438  0.51607926  1
  Mg  Mg0  1  0.50170151  0.00664465  0.90886396  1
  Nb  Nb0  1  0.25549806  0.24630678  0.26179890  1
  Nb  Nb1  1  0.79079000  0.70592514  0.71300887  1
  O  O0  1  0.98929100  0.95730249  0.67449517  1
  O  O1  1  0.53973563  0.50887315  0.67460695  1
  O  O2  1  0.72223876  0.77790467  0.95205358  1
  O  O3  1  0.48759276  0.01282340  0.35478603  1
  O  O4  1  0.46678083  0.46074670  0.34416252  1
  O  O5  1  0.31122015  0.19146051  0.04427505  1
  O  O6  1  0.50103563  0.99666635  0.69140067  1
  O  O7  1  0.98953342  0.50877810  0.58906145  1
  O  O8  1  0.03889773  0.03632048  0.34420778  1
  O  O9  1  0.02595833  0.47956320  0.25204516  1
loop_
_geom_bond_atom_site_label_1
_geom_bond_atom_site_label_2
_geom_bond_distance
_geom_bond_site_symmetry_2
K0 O9 2.542114 1_555
K0 O2 2.612575 1_454
K0 O8 3.189998 1_565
K1 O9 2.535587 1_655
K1 O2 2.603817 1_554
K1 O4 3.125499 1_555
Na0 O7 2.226500 1_455
Na0 O6 2.399781 1_545
Na0 O0 2.481566 1_445
Na0 O1 2.488794 1_555
Na0 O5 2.792367 1_556
Na1 O3 2.230957 1_565
Na1 O9 2.260117 1_655
Na1 O8 2.543256 1_665
Na1 O4 2.547264 1_555
Na1 O2 2.874386 1_554
Nd0 O3 2.378086 1_565
Nd0 O6 2.455167 1_555
Nd0 O0 2.463713 1_455
Nd0 O7 2.502127 1_455
Nd0 O1 2.516681 1_555
Nd0 O4 2.566133 1_555
Nd0 O8 2.573418 1_565
Nd1 O3 2.381304 1_555
Nd1 O6 2.447993 1_545
Nd1 O1 2.466742 1_555
Nd1 O7 2.502950 1_555
Nd1 O0 2.517045 1_545
Nd1 O8 2.558383 1_655
Nd1 O4 2.565144 1_555
Mg0 O2 1.873285 1_545
Mg0 O6 1.898221 1_545
Mg0 O5 1.938574 1_556
Nb0 O9 1.892797 1_555
Nb0 O5 1.951801 1_555
Nb0 O8 1.978431 1_555
Nb0 O4 1.981507 1_555
Nb0 O3 2.065914 1_555
Nb1 O7 1.948406 1_555
Nb1 O1 1.982493 1_555
Nb1 O0 1.986189 1_555
Nb1 O2 2.164582 1_555
Nb1 O6 2.378938 1_555
