# generated using pymatgen
data_LaFe3(BO3)4
_symmetry_space_group_name_H-M   'P 1'
_cell_length_a   6.17918970
_cell_length_b   6.17918970
_cell_length_c   6.17919034
_cell_angle_alpha   103.67164444
_cell_angle_beta   103.67164444
_cell_angle_gamma   103.67164489
_symmetry_Int_Tables_number   1
_chemical_formula_structural   LaFe3(BO3)4
_chemical_formula_sum   'La1 Fe3 B4 O12'
_cell_volume   211.81733484
_cell_formula_units_Z   1
loop_
 _symmetry_equiv_pos_site_id
 _symmetry_equiv_pos_as_xyz
  1  'x, y, z'
loop_
 _atom_site_type_symbol
 _atom_site_label
 _atom_site_symmetry_multiplicity
 _atom_site_fract_x
 _atom_site_fract_y
 _atom_site_fract_z
 _atom_site_occupancy
  La  La0  1  0.00000000  0.00000000  0.00000000  1
  Fe  Fe0  1  0.00000000  0.44850100  0.55149900  1
  Fe  Fe1  1  0.55149900  0.00000000  0.44850100  1
  Fe  Fe2  1  0.44850100  0.55149900  0.00000000  1
  B  B0  1  0.50000000  0.05470000  0.94530000  1
  B  B1  1  0.94530000  0.50000000  0.05470000  1
  B  B2  1  0.05470000  0.94530000  0.50000000  1
  B  B3  1  0.50000000  0.50000000  0.50000000  1
  O  O0  1  0.37706400  0.21323300  0.97098900  1
  O  O1  1  0.02901100  0.78676700  0.62293600  1
  O  O2  1  0.78676700  0.62293600  0.02901100  1
  O  O3  1  0.62293600  0.02901100  0.78676700  1
  O  O4  1  0.64325800  0.35674200  0.50000000  1
  O  O5  1  0.35674200  0.50000000  0.64325800  1
  O  O6  1  0.50000000  0.64325800  0.35674200  1
  O  O7  1  0.91133200  0.08866800  0.50000000  1
  O  O8  1  0.08866800  0.50000000  0.91133200  1
  O  O9  1  0.50000000  0.91133200  0.08866800  1
  O  O10  1  0.21323300  0.97098900  0.37706400  1
  O  O11  1  0.97098900  0.37706400  0.21323300  1
loop_
_geom_bond_atom_site_label_1
_geom_bond_atom_site_label_2
_geom_bond_distance
_geom_bond_site_symmetry_2
La0 O2 2.460645 1_445
La0 O0 2.460645 1_554
La0 O3 2.460645 1_454
La0 O11 2.460645 1_455
La0 O1 2.460645 1_544
La0 O10 2.460645 1_545
Fe0 O1 1.986272 1_555
Fe0 O11 1.986272 1_455
Fe0 O4 2.067438 1_455
Fe0 O5 2.067438 1_555
Fe0 O7 2.086272 1_455
Fe0 O8 2.086273 1_555
Fe1 O10 1.986272 1_545
Fe1 O3 1.986272 1_555
Fe1 O4 2.067438 1_555
Fe1 O6 2.067438 1_545
Fe1 O7 2.086272 1_555
Fe1 O9 2.086273 1_545
Fe2 O0 1.986272 1_554
Fe2 O2 1.986272 1_555
Fe2 O6 2.067438 1_555
Fe2 O5 2.067438 1_554
Fe2 O8 2.086272 1_554
Fe2 O9 2.086272 1_555
B0 O0 1.377371 1_555
B0 O3 1.377371 1_555
B0 O9 1.393063 1_546
B1 O2 1.377371 1_555
B1 O11 1.377371 1_555
B1 O8 1.393063 1_654
B2 O10 1.377371 1_555
B2 O1 1.377371 1_555
B2 O7 1.393063 1_465
B3 O4 1.391994 1_555
B3 O5 1.391994 1_555
B3 O6 1.391994 1_555
