# generated using pymatgen
data_Sr2Ni(NO2)6
_symmetry_space_group_name_H-M   'P 1'
_cell_length_a   7.14090733
_cell_length_b   7.14090733
_cell_length_c   7.14090733
_cell_angle_alpha   60.00000000
_cell_angle_beta   60.00000000
_cell_angle_gamma   60.00000000
_symmetry_Int_Tables_number   1
_chemical_formula_structural   Sr2Ni(NO2)6
_chemical_formula_sum   'Sr2 Ni1 N6 O12'
_cell_volume   257.48100426
_cell_formula_units_Z   1
loop_
 _symmetry_equiv_pos_site_id
 _symmetry_equiv_pos_as_xyz
  1  'x, y, z'
loop_
 _atom_site_type_symbol
 _atom_site_label
 _atom_site_symmetry_multiplicity
 _atom_site_fract_x
 _atom_site_fract_y
 _atom_site_fract_z
 _atom_site_occupancy
  Sr  Sr0  1  0.25000000  0.25000000  0.25000000  1
  Sr  Sr1  1  0.75000000  0.75000000  0.75000000  1
  Ni  Ni0  1  0.00000000  0.00000000  0.00000000  1
  N  N0  1  0.18890700  0.18890700  0.81109300  1
  N  N1  1  0.81109300  0.18890700  0.18890700  1
  N  N2  1  0.18890700  0.81109300  0.18890700  1
  N  N3  1  0.18890700  0.81109300  0.81109300  1
  N  N4  1  0.81109300  0.18890700  0.81109300  1
  N  N5  1  0.81109300  0.81109300  0.18890700  1
  O  O0  1  0.34140500  0.00000000  0.00000000  1
  O  O1  1  0.34140500  0.00000000  0.65859500  1
  O  O2  1  0.00000000  0.34140500  0.00000000  1
  O  O3  1  0.34140500  0.65859500  0.00000000  1
  O  O4  1  0.65859500  0.00000000  0.34140500  1
  O  O5  1  0.00000000  0.00000000  0.65859500  1
  O  O6  1  0.00000000  0.65859500  0.34140500  1
  O  O7  1  0.65859500  0.34140500  0.00000000  1
  O  O8  1  0.65859500  0.00000000  0.00000000  1
  O  O9  1  0.00000000  0.34140500  0.65859500  1
  O  O10  1  0.00000000  0.00000000  0.34140500  1
  O  O11  1  0.00000000  0.65859500  0.00000000  1
loop_
_geom_bond_atom_site_label_1
_geom_bond_atom_site_label_2
_geom_bond_distance
_geom_bond_site_symmetry_2
N0 O9 1.733660 1_555
N0 O1 1.733660 1_555
N0 O0 1.733660 1_556
N0 O2 1.733660 1_556
N0 Ni0 1.907728 1_556
N1 O7 1.733660 1_555
N1 O4 1.733660 1_555
N1 O10 1.733660 1_655
N1 O2 1.733660 1_655
N1 Ni0 1.907728 1_655
N2 O6 1.733660 1_555
N2 O3 1.733660 1_555
N2 O0 1.733660 1_565
N2 O10 1.733660 1_565
N2 Ni0 1.907728 1_565
N3 O5 1.733660 1_565
N3 O11 1.733660 1_556
N3 O1 1.733660 1_565
N3 O3 1.733660 1_556
N3 Ni0 1.907728 1_566
N4 O5 1.733660 1_655
N4 O8 1.733660 1_556
N4 O7 1.733660 1_556
N4 O9 1.733660 1_655
N4 Ni0 1.907728 1_656
N5 O8 1.733660 1_565
N5 O11 1.733660 1_655
N5 O6 1.733660 1_655
N5 O4 1.733660 1_565
N5 Ni0 1.907728 1_665
O0 Sr1 2.767066 1_544
O0 Sr0 2.767066 1_555
O1 Sr1 2.767066 1_545
O1 Sr0 2.767066 1_555
O2 Sr0 2.767066 1_555
O2 Sr1 2.767066 1_454
O3 Sr1 2.767066 1_554
O3 Sr0 2.767066 1_555
O4 Sr1 2.767066 1_545
O4 Sr0 2.767066 1_555
O5 Sr1 2.767066 1_445
O5 Sr0 2.767066 1_555
O6 Sr1 2.767066 1_455
O6 Sr0 2.767066 1_555
O7 Sr1 2.767066 1_554
O7 Sr0 2.767066 1_555
O8 Sr1 2.767066 1_544
O8 Sr0 2.767066 1_555
O9 Sr1 2.767066 1_455
O9 Sr0 2.767066 1_555
O10 Sr1 2.767066 1_445
O10 Sr0 2.767066 1_555
O11 Sr0 2.767066 1_555
O11 Sr1 2.767066 1_454
