# generated using pymatgen
data_MgFe6O11F
_symmetry_space_group_name_H-M   'P 1'
_cell_length_a   10.72458286
_cell_length_b   7.42811630
_cell_length_c   2.91956402
_cell_angle_alpha   90.01819115
_cell_angle_beta   89.99985990
_cell_angle_gamma   71.38581448
_symmetry_Int_Tables_number   1
_chemical_formula_structural   MgFe6O11F
_chemical_formula_sum   'Mg1 Fe6 O11 F1'
_cell_volume   220.41599682
_cell_formula_units_Z   1
loop_
 _symmetry_equiv_pos_site_id
 _symmetry_equiv_pos_as_xyz
  1  'x, y, z'
loop_
 _atom_site_type_symbol
 _atom_site_label
 _atom_site_symmetry_multiplicity
 _atom_site_fract_x
 _atom_site_fract_y
 _atom_site_fract_z
 _atom_site_occupancy
  Mg  Mg0  1  0.16672800  0.66749000  0.48497400  1
  Fe  Fe0  1  0.98385400  0.05229900  0.98821100  1
  Fe  Fe1  1  0.98210800  0.48650300  0.48799900  1
  Fe  Fe2  1  0.34923800  0.28160500  0.98840400  1
  Fe  Fe3  1  0.66687500  0.14567400  0.49236400  1
  Fe  Fe4  1  0.35137100  0.84779500  0.48804300  1
  Fe  Fe5  1  0.66739900  0.70717200  0.99152600  1
  O  O0  1  0.98467800  0.31362000  0.98867000  1
  O  O1  1  0.34541200  0.02154300  0.98861300  1
  O  O2  1  0.03212600  0.64056200  0.98588800  1
  O  O3  1  0.22695400  0.37801600  0.48741100  1
  O  O4  1  0.46967600  0.25876500  0.48963700  1
  O  O5  1  0.10620700  0.95736500  0.48753700  1
  O  O6  1  0.30247300  0.69274200  0.98634400  1
  O  O7  1  0.86409000  0.06702200  0.48918900  1
  O  O8  1  0.54488800  0.72752300  0.49125300  1
  O  O9  1  0.79017600  0.61617100  0.49106900  1
  O  O10  1  0.66655500  0.97388000  0.99215700  1
  F  F0  1  0.66794200  0.33425300  0.99237900  1
loop_
_geom_bond_atom_site_label_1
_geom_bond_atom_site_label_2
_geom_bond_distance
_geom_bond_site_symmetry_2
Mg0 O3 2.038182 1_555
Mg0 O5 2.040958 1_555
Mg0 O2 2.105038 1_554
Mg0 O2 2.108819 1_555
Mg0 O6 2.109112 1_554
Mg0 O6 2.114564 1_555
Fe0 O7 1.922177 1_555
Fe0 O7 1.926452 1_556
Fe0 O5 1.937595 1_646
Fe0 O5 1.940216 1_645
Fe0 O0 1.943962 1_555
Fe1 O0 1.936848 1_554
Fe1 O0 1.940412 1_555
Fe1 O9 1.974614 1_555
Fe1 O2 2.025134 1_655
Fe1 O2 2.034519 1_654
Fe1 O3 2.488720 1_655
Fe2 O4 1.917692 1_555
Fe2 O4 1.923251 1_556
Fe2 O3 1.937789 1_556
Fe2 O3 1.942499 1_555
Fe2 O1 1.945257 1_555
Fe3 O10 1.939494 1_545
Fe3 O10 1.939793 1_544
Fe3 O7 2.006489 1_555
Fe3 O4 2.011044 1_555
Fe4 O1 1.935054 1_564
Fe4 O1 1.936945 1_565
Fe4 O8 1.980360 1_555
Fe4 O6 2.026002 1_555
Fe4 O6 2.032614 1_554
Fe4 O5 2.491872 1_555
Fe5 O9 1.936546 1_556
Fe5 O8 1.936704 1_556
Fe5 O8 1.937983 1_555
Fe5 O9 1.938229 1_555
Fe5 O10 1.978268 1_555
F0 Fe3 2.025428 1_555
F0 Fe3 2.026006 1_556
