# generated using pymatgen
data_Pr2MgNb2O8
_symmetry_space_group_name_H-M   'P 1'
_cell_length_a   5.50823672
_cell_length_b   5.71863070
_cell_length_c   6.66390675
_cell_angle_alpha   114.40984648
_cell_angle_beta   102.01949566
_cell_angle_gamma   100.38652980
_symmetry_Int_Tables_number   1
_chemical_formula_structural   Pr2MgNb2O8
_chemical_formula_sum   'Pr2 Mg1 Nb2 O8'
_cell_volume   178.40083133
_cell_formula_units_Z   1
loop_
 _symmetry_equiv_pos_site_id
 _symmetry_equiv_pos_as_xyz
  1  'x, y, z'
loop_
 _atom_site_type_symbol
 _atom_site_label
 _atom_site_symmetry_multiplicity
 _atom_site_fract_x
 _atom_site_fract_y
 _atom_site_fract_z
 _atom_site_occupancy
  Pr  Pr0  1  0.84688388  0.11607833  0.72261506  1
  Pr  Pr1  1  0.12030035  0.82915191  0.22477000  1
  Mg  Mg0  1  0.41612638  0.27475549  0.88535117  1
  Nb  Nb0  1  0.34870521  0.59437454  0.63625482  1
  Nb  Nb1  1  0.64609209  0.38168858  0.35396329  1
  O  O0  1  0.33858228  0.14282465  0.11270555  1
  O  O1  1  0.77613570  0.43294252  0.09075006  1
  O  O2  1  0.65936464  0.82754806  0.86960769  1
  O  O3  1  0.20362501  0.51377702  0.89253345  1
  O  O4  1  0.49834912  0.71054137  0.40835610  1
  O  O5  1  0.95725976  0.25069377  0.42707985  1
  O  O6  1  0.48676421  0.25246277  0.58411515  1
  O  O7  1  0.10181136  0.82792299  0.59745381  1
loop_
_geom_bond_atom_site_label_1
_geom_bond_atom_site_label_2
_geom_bond_distance
_geom_bond_site_symmetry_2
Mg0 O3 1.945993 1_555
Mg0 O1 1.955376 1_556
Mg0 O0 2.035972 1_556
Mg0 O6 2.080626 1_555
Mg0 O7 2.485383 1_545
Nb0 O2 1.865347 1_555
Nb0 O7 2.119901 1_555
Nb0 O4 2.141256 1_555
Nb0 O6 2.146340 1_555
Nb0 O3 2.203155 1_555
Nb0 O5 2.326095 1_455
Nb1 O0 1.880462 1_555
Nb1 O5 2.037926 1_555
Nb1 O4 2.107500 1_555
Nb1 O1 2.132636 1_555
Nb1 O6 2.220837 1_555
Nb1 O7 2.831515 1_655
O0 Pr1 2.434020 1_545
O1 Pr1 2.366165 1_655
O1 Pr0 2.536186 1_554
O2 Pr0 2.427266 1_565
O2 Pr1 3.085263 1_656
O3 Pr0 2.376812 1_455
O3 Pr1 2.405514 1_556
O4 Pr0 2.481051 1_565
O4 Pr1 2.535197 1_555
O5 Pr0 2.534536 1_555
O5 Pr1 2.652170 1_645
O6 Pr0 2.405245 1_555
O6 Pr1 2.665077 1_545
O7 Pr0 2.359875 1_465
O7 Pr1 2.509552 1_555
