# generated using pymatgen
data_Na6Hf4In4Si5S7O48
_symmetry_space_group_name_H-M   'P 1'
_cell_length_a   18.05946985
_cell_length_b   9.00155186
_cell_length_c   23.31876107
_cell_angle_alpha   90.01026222
_cell_angle_beta   89.79646514
_cell_angle_gamma   119.96028527
_symmetry_Int_Tables_number   1
_chemical_formula_structural   Na6Hf4In4Si5S7O48
_chemical_formula_sum   'Na18 Hf12 In12 Si15 S21 O144'
_cell_volume   3284.19303222
_cell_formula_units_Z   3
loop_
 _symmetry_equiv_pos_site_id
 _symmetry_equiv_pos_as_xyz
  1  'x, y, z'
loop_
 _atom_site_type_symbol
 _atom_site_label
 _atom_site_symmetry_multiplicity
 _atom_site_fract_x
 _atom_site_fract_y
 _atom_site_fract_z
 _atom_site_occupancy
  Na  Na0  1  0.00023060  0.63161389  0.25477837  1
  Na  Na1  1  0.49572790  0.62754845  0.25055084  1
  Na  Na2  1  0.99572205  0.36721280  0.74964807  1
  Na  Na3  1  0.50315095  0.36431307  0.75297316  1
  Na  Na4  1  0.66314482  0.29980935  0.91628804  1
  Na  Na5  1  0.16490173  0.02410797  0.42531797  1
  Na  Na6  1  0.00309630  0.99618797  0.50377144  1
  Na  Na7  1  0.50345243  0.99492654  0.50303196  1
  Na  Na8  1  0.00424132  0.00972508  0.99732915  1
  Na  Na9  1  0.50418930  0.01237329  0.99933996  1
  Na  Na10  1  0.33148726  0.32319732  0.83641587  1
  Na  Na11  1  0.82935153  0.32820691  0.82262285  1
  Na  Na12  1  0.33846803  0.34444016  0.32823166  1
  Na  Na13  1  0.82830980  0.33663181  0.33950878  1
  Na  Na14  1  0.18001983  0.66108945  0.16705032  1
  Na  Na15  1  0.67132314  0.65816026  0.16353936  1
  Na  Na16  1  0.17238263  0.68564253  0.66581713  1
  Na  Na17  1  0.67788599  0.68428606  0.67330072  1
  Hf  Hf0  1  0.49860558  0.01169986  0.35126811  1
  Hf  Hf1  1  0.99858530  0.98476136  0.85044764  1
  Hf  Hf2  1  0.99927987  0.98743034  0.64968131  1
  Hf  Hf3  1  0.50729492  -0.00001595  0.64386685  1
  Hf  Hf4  1  0.00132985  0.01294551  0.14065861  1
  Hf  Hf5  1  0.49884913  0.01106037  0.14884534  1
  Hf  Hf6  1  0.32789589  0.32236322  0.97779431  1
  Hf  Hf7  1  0.82835637  0.33542783  0.47927009  1
  Hf  Hf8  1  0.16537032  0.66508288  0.01722220  1
  Hf  Hf9  1  0.66610904  0.65649732  0.02169176  1
  Hf  Hf10  1  0.16519848  0.67451739  0.52413459  1
  Hf  Hf11  1  0.66445313  0.66205000  0.51938734  1
  In  In0  1  0.99601951  0.99169254  0.35395530  1
  In  In1  1  0.50099657  0.01038472  0.85121165  1
  In  In2  1  0.32423581  0.33136941  0.67783032  1
  In  In3  1  0.82420118  0.31521297  0.69084897  1
  In  In4  1  0.33221344  0.34449822  0.18637019  1
  In  In5  1  0.82153040  0.31558575  0.17620997  1
  In  In6  1  0.82950862  0.31743578  0.98796265  1
  In  In7  1  0.33146805  0.34357311  0.49180658  1
  In  In8  1  0.17089733  0.66683804  0.31683577  1
  In  In9  1  0.66417113  0.64512986  0.31641616  1
  In  In10  1  0.16626690  0.68596714  0.81513391  1
  In  In11  1  0.66869896  0.66131202  0.81233393  1
  Si  Si0  1  0.35283646  0.71195571  0.25133653  1
  Si  Si1  1  0.49923337  0.29736683  0.24896420  1
  Si  Si2  1  0.64493544  0.29156784  0.75061571  1
  Si  Si3  1  0.00101849  0.70213471  0.74871387  1
  Si  Si4  1  0.85427969  0.99567839  0.75129392  1
  Si  Si5  1  0.18302534  0.04035965  0.58233178  1
  Si  Si6  1  0.69058904  0.04176786  0.58267960  1
  Si  Si7  1  0.33397845  0.63449829  0.58344792  1
  Si  Si8  1  0.83116931  0.03519256  0.08288287  1
  Si  Si9  1  0.19087929  0.34017969  0.08344458  1
  Si  Si10  1  0.68311139  0.32868838  0.08213567  1
  Si  Si11  1  0.51991486  0.37712708  0.91545796  1
  Si  Si12  1  0.16336692  0.95862388  0.91760866  1
  Si  Si13  1  0.66458252  0.36919068  0.41731571  1
  Si  Si14  1  0.02110915  0.66189177  0.41415258  1
  S  S0  1  0.14389802  -0.00005347  0.24993966  1
  S  S1  1  0.64624822  0.00219091  0.25164462  1
  S  S2  1  0.85534073  0.70788223  0.24818697  1
  S  S3  1  0.99739873  0.28848387  0.24987079  1
  S  S4  1  0.14615641  0.29023697  0.75164820  1
  S  S5  1  0.49601790  0.70479442  0.74999764  1
  S  S6  1  0.35394360  0.00139434  0.74801667  1
  S  S7  1  0.48192146  0.33333505  0.58402004  1
  S  S8  1  0.97811277  0.33099155  0.58254004  1
  S  S9  1  0.83297923  0.62638495  0.58225135  1
  S  S10  1  0.47968919  0.62754537  0.08220720  1
  S  S11  1  0.98241515  0.62932510  0.08490318  1
  S  S12  1  0.33221661  0.04025942  0.08284334  1
  S  S13  1  0.31189123  0.66609048  0.91574209  1
  S  S14  1  0.81447437  0.66600221  0.91846018  1
  S  S15  1  0.01865152  0.37329863  0.91664086  1
  S  S16  1  0.66692939  0.95655446  0.91667474  1
  S  S17  1  0.31405448  0.96285183  0.41821437  1
  S  S18  1  0.81076363  0.95760412  0.41621063  1
  S  S19  1  0.16740892  0.37297758  0.41683083  1
  S  S20  1  0.51839156  0.66406005  0.41674799  1
  O  O0  1  0.10653785  0.02540728  0.30354616  1
  O  O1  1  0.60312268  0.02223620  0.30314658  1
  O  O2  1  0.41575801  0.80651571  0.30685000  1
  O  O3  1  0.90717450  0.78343063  0.30098216  1
  O  O4  1  0.48959062  0.18046022  0.30575080  1
  O  O5  1  0.98635632  0.18705222  0.30234042  1
  O  O6  1  0.10332115  0.18406973  0.80334015  1
  O  O7  1  0.60790477  0.18452894  0.81095742  1
  O  O8  1  0.48127235  0.77799572  0.80241742  1
  O  O9  1  0.99146812  0.80023301  0.80571999  1
  O  O10  1  0.40307666  0.02673195  0.80160870  1
  O  O11  1  0.91735103  0.02451538  0.80701276  1
  O  O12  1  0.39681119  0.98146774  0.69720462  1
  O  O13  1  0.90447567  0.97790011  0.69442241  1
  O  O14  1  0.09366986  0.21099478  0.69949193  1
  O  O15  1  0.57850191  0.18784636  0.69745159  1
  O  O16  1  0.01685933  0.82913086  0.69387685  1
  O  O17  1  0.50432618  0.81022426  0.69860051  1
  O  O18  1  0.40274704  0.82690391  0.19421382  1
  O  O19  1  0.90103650  0.81562827  0.19765628  1
  O  O20  1  0.00699584  0.19863321  0.19894219  1
  O  O21  1  0.51471810  0.20315141  0.19386511  1
  O  O22  1  0.08707304  0.97614785  0.20029700  1
  O  O23  1  0.59350497  0.97614723  0.19943217  1
  O  O24  1  0.44680817  0.36495651  0.63673356  1
  O  O25  1  0.94569773  0.36683387  0.63545493  1
  O  O26  1  0.24330319  0.11178857  0.63825520  1
  O  O27  1  0.74761142  0.11685858  0.63864778  1
  O  O28  1  0.31462528  0.52136496  0.64125772  1
  O  O29  1  0.81853445  0.52605209  0.63405386  1
  O  O30  1  0.44787298  0.52732255  0.13613167  1
  O  O31  1  0.94742955  0.52896244  0.13833767  1
  O  O32  1  0.31736358  0.11056494  0.13515156  1
  O  O33  1  0.81696582  0.10783224  0.14302569  1
  O  O34  1  0.24375594  0.36948444  0.14153793  1
  O  O35  1  0.74204542  0.37905207  0.13937067  1
  O  O36  1  0.23585221  0.31014908  0.02787529  1
  O  O37  1  0.72176800  0.30225153  0.02197687  1
  O  O38  1  0.42448098  0.54052202  0.03292734  1
  O  O39  1  0.92995078  0.55673280  0.03392921  1
  O  O40  1  0.34615129  0.14835345  0.03183433  1
  O  O41  1  0.86028059  0.15786759  0.02697890  1
  O  O42  1  0.22059091  0.13842263  0.52040886  1
  O  O43  1  0.73603295  0.16166514  0.52630290  1
  O  O44  1  0.35996827  0.56831159  0.52569185  1
  O  O45  1  0.84673895  0.54602653  0.53058445  1
  O  O46  1  0.43035703  0.30518708  0.53217960  1
  O  O47  1  0.92458392  0.30967923  0.53185025  1
  O  O48  1  0.26837466  0.68913120  0.96732245  1
  O  O49  1  0.77387219  0.69267100  0.96987129  1
  O  O50  1  0.07479148  0.46258968  0.96773346  1
  O  O51  1  0.58575052  0.47575211  0.96887294  1
  O  O52  1  0.15275920  0.83619350  0.97340082  1
  O  O53  1  0.66019614  0.85637685  0.96866470  1
  O  O54  1  0.27292467  0.85382679  0.46853482  1
  O  O55  1  0.76812927  0.84742946  0.46690700  1
  O  O56  1  0.15753541  0.45694143  0.46724438  1
  O  O57  1  0.65266009  0.46929921  0.47218913  1
  O  O58  1  0.08779019  0.69828483  0.46661182  1
  O  O59  1  0.57416473  0.68664819  0.46692002  1
  O  O60  1  0.05946594  0.63726749  0.35247318  1
  O  O61  1  0.55700665  0.64472798  0.36272730  1
  O  O62  1  0.26135004  0.89110613  0.36584509  1
  O  O63  1  0.76096057  0.88652801  0.36330007  1
  O  O64  1  0.18010413  0.47136370  0.36338868  1
  O  O65  1  0.68939115  0.48699626  0.36021977  1
  O  O66  1  0.05823616  0.47110476  0.86363912  1
  O  O67  1  0.55766777  0.48413971  0.85598222  1
  O  O68  1  0.18820957  0.88842504  0.86169353  1
  O  O69  1  0.67893376  0.88093549  0.86459308  1
  O  O70  1  0.26014644  0.63404418  0.86395344  1
  O  O71  1  0.76216136  0.63429832  0.86715155  1
  O  O72  1  0.01722515  0.84403792  0.41206762  1
  O  O73  1  0.51094435  0.82033127  0.41270173  1
  O  O74  1  0.39908897  0.97568871  0.41140768  1
  O  O75  1  0.89724704  0.97493423  0.41236214  1
  O  O76  1  0.08826278  0.19867824  0.41203364  1
  O  O77  1  0.57978008  0.17791009  0.41068148  1
  O  O78  1  0.01126624  0.20233299  0.91368765  1
  O  O79  1  0.51306342  0.18578355  0.91582368  1
  O  O80  1  0.07916097  0.98130395  0.91238692  1
  O  O81  1  0.58788529  0.97155676  0.91499437  1
  O  O82  1  0.39741504  0.82044368  0.91176206  1
  O  O83  1  0.90001752  0.82341399  0.91273709  1
  O  O84  1  0.49187899  0.18071379  0.59013879  1
  O  O85  1  0.98777377  0.17726836  0.58770599  1
  O  O86  1  0.08904598  0.02542006  0.58925786  1
  O  O87  1  0.59451063  0.02100816  0.58884459  1
  O  O88  1  0.41573412  0.82747501  0.59329428  1
  O  O89  1  0.90997492  0.80107292  0.58656453  1
  O  O90  1  0.48813487  0.79943554  0.08869473  1
  O  O91  1  0.99366925  0.80427140  0.09326549  1
  O  O92  1  0.40920529  0.01963261  0.08789674  1
  O  O93  1  0.91520316  0.00774929  0.09268469  1
  O  O94  1  0.09441732  0.16703264  0.09134642  1
  O  O95  1  0.58929402  0.15417127  0.09063503  1
  O  O96  1  0.34877733  0.16304660  0.74347581  1
  O  O97  1  0.85582288  0.17672150  0.74904146  1
  O  O98  1  0.23156915  0.30688123  0.74839478  1
  O  O99  1  0.73925729  0.31852845  0.74792381  1
  O  O100  1  0.42137921  0.52548376  0.74398245  1
  O  O101  1  0.91796470  0.51532274  0.74337344  1
  O  O102  1  0.34969137  0.52731071  0.24958850  1
  O  O103  1  0.85014143  0.53677113  0.24357804  1
  O  O104  1  0.41355521  0.31355042  0.24398941  1
  O  O105  1  0.92242389  0.31405247  0.24452974  1
  O  O106  1  0.22978581  0.14752322  0.24463719  1
  O  O107  1  0.73174678  0.15648376  0.24833210  1
  O  O108  1  0.32183824  0.51388738  0.92517402  1
  O  O109  1  0.82436109  0.51202643  0.92522051  1
  O  O110  1  0.42613678  0.35838458  0.92739564  1
  O  O111  1  0.93486199  0.36296968  0.92365377  1
  O  O112  1  0.24864490  0.14940231  0.92576695  1
  O  O113  1  0.74211029  0.13648487  0.92014705  1
  O  O114  1  0.32400481  0.13658867  0.42422314  1
  O  O115  1  0.82224283  0.13091215  0.42449274  1
  O  O116  1  0.24201739  0.34402187  0.42003226  1
  O  O117  1  0.74966628  0.34868338  0.42530667  1
  O  O118  1  0.43386581  0.50643937  0.42277901  1
  O  O119  1  0.92715997  0.49487865  0.42471170  1
  O  O120  1  0.17494175  0.50384556  0.07306919  1
  O  O121  1  0.67116492  0.49781711  0.07600541  1
  O  O122  1  0.06924389  0.64891891  0.07673240  1
  O  O123  1  0.56655826  0.65087215  0.07326528  1
  O  O124  1  0.25612681  0.86488983  0.07376475  1
  O  O125  1  0.74651352  0.84891848  0.07323915  1
  O  O126  1  0.17119759  0.84671539  0.57603715  1
  O  O127  1  0.67499971  0.84694252  0.57047880  1
  O  O128  1  0.24692479  0.64466498  0.57180445  1
  O  O129  1  0.75688914  0.64841554  0.57252337  1
  O  O130  1  0.06571309  0.48247597  0.57281400  1
  O  O131  1  0.56859763  0.48907876  0.57578220  1
  O  O132  1  0.14699258  0.83757248  0.25271373  1
  O  O133  1  0.65240346  0.84397594  0.25736751  1
  O  O134  1  0.25777342  0.69418643  0.25499981  1
  O  O135  1  0.77130999  0.69569068  0.25229350  1
  O  O136  1  0.07543569  0.46067468  0.25171025  1
  O  O137  1  0.58140129  0.49452588  0.25192863  1
  O  O138  1  0.15222366  0.46047828  0.75743782  1
  O  O139  1  0.64406694  0.47339461  0.75001628  1
  O  O140  1  0.08438721  0.67326361  0.75141663  1
  O  O141  1  0.57432980  0.69257048  0.75226049  1
  O  O142  1  0.26867940  0.84560450  0.75201455  1
  O  O143  1  0.75967543  0.82941724  0.75539613  1
loop_
_geom_bond_atom_site_label_1
_geom_bond_atom_site_label_2
_geom_bond_distance
_geom_bond_site_symmetry_2
Na0 O132 2.357018 1_555
Na0 O103 2.416136 1_455
Na0 O105 2.488599 1_455
Na0 O60 2.509922 1_555
Na0 O136 2.510772 1_555
Na0 O3 2.851853 1_455
Na0 O31 2.876306 1_455
Na0 O22 2.970043 1_555
Na1 O102 2.322461 1_555
Na1 O137 2.383169 1_555
Na1 O104 2.454915 1_555
Na1 O133 2.514755 1_555
Na1 O30 2.813615 1_555
Na1 O61 2.817907 1_555
Na1 O2 2.951968 1_555
Na1 O23 2.972820 1_555
Na2 O97 2.235372 1_555
Na2 O101 2.375349 1_555
Na2 O140 2.397862 1_655
Na2 O138 2.521830 1_655
Na2 O25 2.814411 1_555
Na2 O66 2.860194 1_655
Na2 O11 2.989284 1_555
Na2 O14 2.990556 1_655
Na3 O139 2.224456 1_555
Na3 O96 2.462355 1_555
Na3 O100 2.543959 1_555
Na3 O141 2.567061 1_555
Na3 O67 2.618734 1_555
Na3 O15 2.863040 1_555
Na3 O10 2.878873 1_555
Na3 O24 2.899659 1_555
Na4 O79 2.370955 1_555
Na4 O113 2.509625 1_555
Na4 O81 2.562817 1_545
Na4 O109 2.572621 1_555
Na4 O7 2.662214 1_555
Na4 O37 2.681516 1_556
Na4 O51 2.857192 1_555
Na4 O71 2.860974 1_555
Na5 O72 2.350205 1_545
Na5 O42 2.443067 1_555
Na5 O116 2.498147 1_555
Na5 O114 2.524977 1_555
Na5 O76 2.580002 1_555
Na5 O58 2.716717 1_545
Na5 O62 2.907852 1_545
Na5 O0 3.034441 1_555
Na6 O86 2.462970 1_565
Na6 O89 2.582301 1_455
Na6 O72 2.618746 1_555
Na6 O85 2.647608 1_465
Na6 O76 2.728024 1_565
Na6 O75 2.810299 1_455
Na7 O87 2.530050 1_565
Na7 O88 2.608494 1_555
Na7 O77 2.638775 1_565
Na7 O73 2.671025 1_555
Na7 O84 2.703937 1_565
Na7 O74 2.801725 1_555
Na8 O80 2.479104 1_545
Na8 O78 2.570202 1_555
Na8 O83 2.668109 1_445
Na8 O94 2.680425 1_556
Na8 O93 2.734273 1_456
Na8 O91 2.847315 1_446
Na9 O79 2.450313 1_555
Na9 O95 2.566405 1_556
Na9 O81 2.611776 1_545
Na9 O92 2.701452 1_556
Na9 O90 2.746216 1_546
Na9 O82 2.751910 1_545
Na10 O112 2.582291 1_555
Na10 O110 2.647220 1_555
Na10 O98 2.692974 1_555
Na10 O96 2.704877 1_555
Na10 O108 2.748720 1_555
Na10 O100 2.760621 1_555
Na11 O99 2.359571 1_555
Na11 O97 2.382530 1_555
Na11 O101 2.470010 1_555
Na11 O113 2.809371 1_555
Na11 O109 2.935275 1_555
Na11 O111 2.952141 1_555
Na12 O102 2.403961 1_555
Na12 O104 2.476406 1_555
Na12 O106 2.710206 1_555
Na12 O118 2.733494 1_555
Na12 O116 2.753816 1_555
Na12 O114 2.844028 1_555
Na13 O117 2.483009 1_555
Na13 O119 2.578326 1_555
Na13 O115 2.676844 1_555
Na13 O107 2.718779 1_555
Na13 O103 2.773251 1_555
Na13 O105 2.855445 1_555
Na14 O134 2.422599 1_555
Na14 O120 2.585598 1_555
Na14 O136 2.700136 1_555
Na14 O124 2.729154 1_555
Na14 O132 2.794019 1_555
Na14 O122 2.874167 1_555
Na15 O121 2.498905 1_555
Na15 O137 2.577446 1_555
Na15 O125 2.622675 1_555
Na15 O135 2.659910 1_555
Na15 O123 2.814177 1_555
Na15 O133 2.875027 1_555
Na16 O140 2.514519 1_555
Na16 O126 2.553051 1_555
Na16 O142 2.580807 1_555
Na16 O128 2.688679 1_555
Na16 O138 2.839744 1_555
Na16 O130 2.875477 1_555
Na17 O143 2.375938 1_555
Na17 O139 2.452016 1_555
Na17 O141 2.647274 1_555
Na17 O127 2.823778 1_555
Na17 O129 2.845776 1_555
Na17 O131 2.953089 1_555
Hf0 O4 1.926032 1_555
Hf0 O2 1.993224 1_545
Hf0 O77 2.032241 1_555
Hf0 O1 2.153395 1_555
Hf0 O74 2.168436 1_545
Hf0 O73 2.335768 1_545
Hf1 O9 1.910630 1_555
Hf1 O11 1.959893 1_565
Hf1 O80 2.065130 1_655
Hf1 O6 2.144678 1_665
Hf1 O83 2.188155 1_555
Hf1 O78 2.369845 1_665
Hf2 O16 1.909986 1_655
Hf2 O13 1.966678 1_555
Hf2 O86 2.039735 1_665
Hf2 O14 2.211712 1_665
Hf2 O89 2.212489 1_555
Hf2 O85 2.325843 1_565
Hf3 O87 1.962367 1_555
Hf3 O15 1.978212 1_555
Hf3 O88 1.996207 1_545
Hf3 O17 2.111495 1_545
Hf3 O84 2.179315 1_555
Hf3 O12 2.281700 1_545
Hf4 O93 1.900688 1_455
Hf4 O94 1.931355 1_555
Hf4 O20 2.116792 1_555
Hf4 O91 2.123589 1_445
Hf4 O22 2.229189 1_545
Hf4 O19 2.229898 1_445
Hf5 O21 1.918492 1_555
Hf5 O18 1.998336 1_545
Hf5 O95 2.013260 1_555
Hf5 O92 2.188140 1_555
Hf5 O23 2.227888 1_545
Hf5 O90 2.294884 1_545
Hf6 O112 1.931405 1_555
Hf6 O36 1.985631 1_556
Hf6 O110 2.011159 1_555
Hf6 O40 2.160920 1_556
Hf6 O108 2.163310 1_555
Hf6 O38 2.268375 1_556
Hf7 O117 1.949194 1_555
Hf7 O43 1.952474 1_555
Hf7 O119 2.071009 1_555
Hf7 O45 2.123486 1_555
Hf7 O115 2.197741 1_555
Hf7 O47 2.234862 1_555
Hf8 O52 1.954754 1_554
Hf8 O120 2.021186 1_555
Hf8 O50 2.089165 1_554
Hf8 O48 2.108008 1_554
Hf8 O122 2.165926 1_555
Hf8 O124 2.174819 1_555
Hf9 O121 1.945352 1_555
Hf9 O51 1.980872 1_554
Hf9 O125 2.013218 1_555
Hf9 O123 2.138885 1_555
Hf9 O49 2.168918 1_554
Hf9 O53 2.229629 1_554
Hf10 O126 1.926591 1_555
Hf10 O128 1.973359 1_555
Hf10 O58 2.027668 1_555
Hf10 O130 2.094979 1_555
Hf10 O54 2.217548 1_555
Hf10 O56 2.311819 1_555
Hf11 O57 1.974590 1_555
Hf11 O127 1.977355 1_555
Hf11 O131 2.107800 1_555
Hf11 O129 2.134584 1_555
Hf11 O59 2.139981 1_555
Hf11 O55 2.156774 1_555
In0 O72 2.064525 1_655
In0 O3 2.150271 1_555
In0 O75 2.184868 1_555
In0 O0 2.199077 1_665
In0 O5 2.209146 1_565
In0 O76 2.235125 1_665
In1 O7 2.007681 1_555
In1 O79 2.113808 1_555
In1 O10 2.182025 1_555
In1 O8 2.248375 1_545
In1 O82 2.281180 1_545
In1 O81 2.315415 1_545
In2 O28 1.995109 1_555
In2 O26 2.004540 1_555
In2 O98 2.273529 1_555
In2 O24 2.286126 1_555
In2 O100 2.338163 1_555
In2 O96 2.347722 1_555
In3 O27 2.031601 1_555
In3 O99 2.038803 1_555
In3 O97 2.106844 1_555
In3 O101 2.139998 1_555
In3 O29 2.358450 1_555
In3 O25 2.379192 1_555
In4 O34 2.016514 1_555
In4 O104 2.112750 1_555
In4 O102 2.112923 1_555
In4 O30 2.234636 1_555
In4 O106 2.262467 1_555
In4 O32 2.317319 1_555
In5 O33 1.987168 1_555
In5 O35 1.988189 1_555
In5 O107 2.273923 1_555
In5 O31 2.294162 1_555
In5 O103 2.382454 1_555
In5 O105 2.429814 1_555
In6 O41 2.000261 1_556
In6 O37 2.038908 1_556
In6 O113 2.257012 1_555
In6 O39 2.278065 1_556
In6 O111 2.288633 1_555
In6 O109 2.319892 1_555
In7 O44 1.985980 1_555
In7 O42 2.040155 1_555
In7 O46 2.196247 1_555
In7 O118 2.330626 1_555
In7 O116 2.331651 1_555
In7 O114 2.392259 1_555
In8 O134 2.049300 1_555
In8 O60 2.065030 1_555
In8 O64 2.143911 1_555
In8 O62 2.183708 1_555
In8 O132 2.334997 1_555
In8 O136 2.354666 1_555
In9 O65 1.982012 1_555
In9 O137 2.079609 1_555
In9 O61 2.211315 1_555
In9 O63 2.278467 1_555
In9 O135 2.299306 1_555
In9 O133 2.351139 1_555
In10 O68 1.984467 1_555
In10 O140 2.062505 1_555
In10 O142 2.231345 1_555
In10 O66 2.245583 1_555
In10 O70 2.279085 1_555
In10 O138 2.341282 1_555
In11 O143 2.062539 1_555
In11 O67 2.095746 1_555
In11 O139 2.103109 1_555
In11 O71 2.228778 1_555
In11 O69 2.250178 1_555
In11 O141 2.332825 1_555
O0 S0 1.489530 1_555
O1 S1 1.488312 1_555
O2 Si0 1.653934 1_555
O3 S2 1.492130 1_555
O4 Si1 1.645314 1_555
O5 S3 1.478932 1_555
O6 S4 1.489997 1_555
O7 Si2 1.644910 1_555
O8 S5 1.473747 1_555
O9 Si3 1.651255 1_655
O10 S6 1.485511 1_555
O11 Si4 1.663739 1_545
O12 S6 1.472255 1_565
O13 Si4 1.656017 1_555
O14 S4 1.489642 1_555
O15 Si2 1.655105 1_555
O16 Si3 1.641676 1_555
O17 S5 1.488800 1_555
O18 Si0 1.648581 1_555
O19 S2 1.484652 1_555
O20 S3 1.494245 1_455
O21 Si1 1.637744 1_555
O22 S0 1.492602 1_565
O23 S1 1.493227 1_565
O24 S7 1.472659 1_555
O25 S8 1.467204 1_555
O26 Si5 1.615461 1_555
O27 Si6 1.592064 1_555
O28 Si7 1.618064 1_555
O29 S9 1.451124 1_555
O30 S10 1.484168 1_555
O31 S11 1.480757 1_555
O32 S12 1.458504 1_555
O33 Si8 1.620142 1_555
O34 Si9 1.604384 1_555
O35 Si10 1.627124 1_555
O36 Si9 1.619729 1_555
O37 Si10 1.634253 1_555
O38 S10 1.468323 1_555
O39 S11 1.458402 1_555
O40 S12 1.476021 1_555
O41 Si8 1.615857 1_555
O42 Si5 1.649195 1_555
O43 Si6 1.635473 1_555
O44 Si7 1.632070 1_555
O45 S9 1.487831 1_555
O46 S7 1.471371 1_555
O47 S8 1.480304 1_555
O48 S13 1.504437 1_555
O49 S14 1.483907 1_555
O50 S15 1.512524 1_555
O51 Si11 1.645928 1_555
O52 Si12 1.652794 1_555
O53 S16 1.479034 1_555
O54 S17 1.468975 1_555
O55 S18 1.484991 1_555
O56 S19 1.455275 1_555
O57 Si13 1.639252 1_555
O58 Si14 1.634074 1_555
O59 S20 1.492775 1_555
O60 Si14 1.656443 1_555
O61 S20 1.489405 1_555
O62 S17 1.486050 1_555
O63 S18 1.474253 1_555
O64 S19 1.478340 1_555
O65 Si13 1.618526 1_555
O66 S15 1.476207 1_555
O67 Si11 1.629121 1_555
O68 Si12 1.606040 1_555
O69 S16 1.459630 1_555
O70 S13 1.467492 1_555
O71 S14 1.464277 1_555
O72 Si14 1.676451 1_555
O73 S20 1.481502 1_555
O74 S17 1.489258 1_555
O75 S18 1.492449 1_555
O76 S19 1.509422 1_555
O77 Si13 1.643734 1_555
O78 S15 1.478490 1_555
O79 Si11 1.664074 1_555
O80 Si12 1.637221 1_555
O81 S16 1.500152 1_555
O82 S13 1.476567 1_555
O83 S14 1.491442 1_555
O84 S7 1.478887 1_555
O85 S8 1.483595 1_555
O86 Si5 1.641588 1_555
O87 Si6 1.655485 1_555
O88 Si7 1.640348 1_555
O89 S9 1.494423 1_555
O90 S10 1.484785 1_555
O91 S11 1.496590 1_555
O92 S12 1.496837 1_555
O93 Si8 1.671326 1_555
O94 Si9 1.668485 1_555
O95 Si10 1.648341 1_555
O96 S6 1.507654 1_555
O97 Si4 1.616791 1_545
O98 S4 1.475087 1_555
O99 Si2 1.597112 1_555
O100 S5 1.506667 1_555
O101 Si3 1.604693 1_655
O102 Si0 1.634973 1_555
O103 S2 1.499448 1_555
O104 Si1 1.629491 1_555
O105 S3 1.488047 1_555
O106 S0 1.458265 1_555
O107 S1 1.475235 1_555
O108 S13 1.484563 1_555
O109 S14 1.491723 1_555
O110 Si11 1.638737 1_555
O111 S15 1.477454 1_655
O112 Si12 1.648489 1_545
O113 S16 1.509166 1_545
O114 S17 1.488999 1_545
O115 S18 1.480257 1_545
O116 S19 1.496817 1_555
O117 Si13 1.647784 1_555
O118 S20 1.482682 1_555
O119 Si14 1.627561 1_655
O120 Si9 1.654081 1_555
O121 Si10 1.647151 1_555
O122 S11 1.499313 1_455
O123 S10 1.489095 1_555
O124 S12 1.503459 1_565
O125 Si8 1.625215 1_565
O126 Si5 1.653424 1_565
O127 Si6 1.656208 1_565
O128 Si7 1.643311 1_555
O129 S9 1.501158 1_555
O130 S8 1.502174 1_455
O131 S7 1.502890 1_555
O132 S0 1.491738 1_565
O133 S1 1.488876 1_565
O134 Si0 1.644668 1_555
O135 S2 1.468606 1_555
O136 S3 1.486291 1_455
O137 Si1 1.651289 1_555
O138 S4 1.486914 1_555
O139 Si2 1.644675 1_555
O140 Si3 1.652217 1_555
O141 S5 1.473438 1_555
O142 S6 1.479387 1_565
O143 Si4 1.616468 1_555
