# generated using pymatgen
data_MgFe6(OF)6
_symmetry_space_group_name_H-M   'P 1'
_cell_length_a   5.02298789
_cell_length_b   14.44894609
_cell_length_c   3.07698739
_cell_angle_alpha   89.97251161
_cell_angle_beta   89.93617117
_cell_angle_gamma   93.62448159
_symmetry_Int_Tables_number   1
_chemical_formula_structural   MgFe6(OF)6
_chemical_formula_sum   'Mg1 Fe6 O6 F6'
_cell_volume   222.87129714
_cell_formula_units_Z   1
loop_
 _symmetry_equiv_pos_site_id
 _symmetry_equiv_pos_as_xyz
  1  'x, y, z'
loop_
 _atom_site_type_symbol
 _atom_site_label
 _atom_site_symmetry_multiplicity
 _atom_site_fract_x
 _atom_site_fract_y
 _atom_site_fract_z
 _atom_site_occupancy
  Mg  Mg0  1  0.99843700  0.16532600  0.48997100  1
  Fe  Fe0  1  0.08392200  0.98093200  0.99017600  1
  Fe  Fe1  1  0.96049300  0.35199200  0.99134600  1
  Fe  Fe2  1  0.02902200  0.66395500  0.99281300  1
  Fe  Fe3  1  0.50003400  0.17040800  0.48980200  1
  Fe  Fe4  1  0.42991400  0.50480800  0.49242900  1
  Fe  Fe5  1  0.48819200  0.82359900  0.49116400  1
  O  O0  1  0.17145700  0.60520200  0.49272500  1
  O  O1  1  0.25334600  0.93146500  0.49009900  1
  O  O2  1  0.24031800  0.11105000  0.98917300  1
  O  O3  1  0.31760100  0.76665300  0.99156600  1
  O  O4  1  0.27146200  0.44528900  0.99279800  1
  O  O5  1  0.76344400  0.21574500  0.99056200  1
  F  F0  1  0.21991800  0.27982200  0.49064500  1
  F  F1  1  0.67023500  0.57622200  0.99296700  1
  F  F2  1  0.73697100  0.88827500  0.99087900  1
  F  F3  1  0.82534600  0.03891400  0.49012400  1
  F  F4  1  0.73975400  0.41266700  0.49207900  1
  F  F5  1  0.81402500  0.73434200  0.49201500  1
loop_
_geom_bond_atom_site_label_1
_geom_bond_atom_site_label_2
_geom_bond_distance
_geom_bond_site_symmetry_2
Mg0 O5 2.096912 1_554
Mg0 O5 2.098163 1_555
Mg0 O2 2.138701 1_655
Mg0 O2 2.140827 1_654
Fe0 O1 1.917765 1_555
Fe0 O1 1.918356 1_556
Fe0 O2 1.991243 1_565
Fe1 O4 1.997714 1_655
Fe1 O5 2.146812 1_555
Fe2 O0 1.917268 1_555
Fe2 O0 1.917459 1_556
Fe2 O3 2.007754 1_555
Fe3 O5 2.103431 1_554
Fe3 O5 2.109459 1_555
Fe3 O2 2.156676 1_555
Fe3 O2 2.162091 1_554
Fe4 O4 1.911271 1_555
Fe4 O4 1.911534 1_554
Fe4 O0 2.006912 1_555
Fe5 O3 1.920606 1_555
Fe5 O3 1.920786 1_554
Fe5 O1 2.013223 1_555
F0 Mg0 1.934380 1_455
F0 Fe3 2.181798 1_555
F0 Fe1 2.306618 1_454
F0 Fe1 2.308226 1_455
F1 Fe2 2.136809 1_655
F1 Fe4 2.172700 1_556
F1 Fe4 2.177644 1_555
F2 Fe0 2.129434 1_655
F2 Fe5 2.156659 1_556
F2 Fe5 2.158033 1_555
F3 Mg0 1.972640 1_555
F3 Fe0 2.211255 1_644
F3 Fe0 2.212931 1_645
F3 Fe3 2.583102 1_555
F4 Fe4 2.111060 1_555
F4 Fe1 2.117401 1_555
F4 Fe1 2.119493 1_554
F5 Fe5 2.146805 1_555
F5 Fe2 2.167175 1_654
F5 Fe2 2.171672 1_655
