# generated using pymatgen
data_Na9Mg4Nb2(PO4)9
_symmetry_space_group_name_H-M   'P 1'
_cell_length_a   15.55399234
_cell_length_b   26.85672243
_cell_length_c   8.91523361
_cell_angle_alpha   89.88037634
_cell_angle_beta   125.02380083
_cell_angle_gamma   90.06060021
_symmetry_Int_Tables_number   1
_chemical_formula_structural   Na9Mg4Nb2(PO4)9
_chemical_formula_sum   'Na36 Mg16 Nb8 P36 O144'
_cell_volume   3049.75398165
_cell_formula_units_Z   4
loop_
 _symmetry_equiv_pos_site_id
 _symmetry_equiv_pos_as_xyz
  1  'x, y, z'
loop_
 _atom_site_type_symbol
 _atom_site_label
 _atom_site_symmetry_multiplicity
 _atom_site_fract_x
 _atom_site_fract_y
 _atom_site_fract_z
 _atom_site_occupancy
  Na  Na0  1  0.26087247  0.24915651  0.02846784  1
  Na  Na1  1  0.24725618  0.58223038  0.00023985  1
  Na  Na2  1  0.24987128  0.91797747  0.00389324  1
  Na  Na3  1  0.75555420  0.25135375  0.51589525  1
  Na  Na4  1  0.76207900  0.58983993  0.53072857  1
  Na  Na5  1  0.75261624  0.90907166  0.52252067  1
  Na  Na6  1  0.74725618  0.08223038  0.00023985  1
  Na  Na7  1  0.74987128  0.41797747  0.00389324  1
  Na  Na8  1  0.76087247  0.74915651  0.02846784  1
  Na  Na9  1  0.26207900  0.08983993  0.53072857  1
  Na  Na10  1  0.25261624  0.40907166  0.52252067  1
  Na  Na11  1  0.25555420  0.75135375  0.51589525  1
  Na  Na12  1  0.49396683  0.04017936  0.73751231  1
  Na  Na13  1  0.49598722  0.37519547  0.73864478  1
  Na  Na14  1  0.49623007  0.70228968  0.75521622  1
  Na  Na15  1  0.50114503  0.29963018  0.26933253  1
  Na  Na16  1  0.49250462  0.62921672  0.24868334  1
  Na  Na17  1  0.49853809  0.96778382  0.26539857  1
  Na  Na18  1  0.99623007  0.20228968  0.75521622  1
  Na  Na19  1  0.99396683  0.54017936  0.73751231  1
  Na  Na20  1  0.99598722  0.87519547  0.73864478  1
  Na  Na21  1  0.99250462  0.12921672  0.24868334  1
  Na  Na22  1  0.99853809  0.46778382  0.26539857  1
  Na  Na23  1  0.00114503  0.79963018  0.26933253  1
  Na  Na24  1  0.82211628  0.97625683  0.21566194  1
  Na  Na25  1  0.18684295  0.63814760  0.29879429  1
  Na  Na26  1  0.19585915  0.97319871  0.30573141  1
  Na  Na27  1  0.18452916  0.68857965  0.75578146  1
  Na  Na28  1  0.80547733  0.02004209  0.71281267  1
  Na  Na29  1  0.80479000  0.35608246  0.70494664  1
  Na  Na30  1  0.32211628  0.47625683  0.21566194  1
  Na  Na31  1  0.68684295  0.13814760  0.29879429  1
  Na  Na32  1  0.69585915  0.47319871  0.30573141  1
  Na  Na33  1  0.68452916  0.18857965  0.75578146  1
  Na  Na34  1  0.30547733  0.52004209  0.71281267  1
  Na  Na35  1  0.30479000  0.85608246  0.70494664  1
  Mg  Mg0  1  0.09672107  0.58460046  0.55704328  1
  Mg  Mg1  1  0.10343501  0.92004466  0.56405363  1
  Mg  Mg2  1  0.89783764  0.25114435  0.94578494  1
  Mg  Mg3  1  0.89697223  0.58430427  0.94712237  1
  Mg  Mg4  1  0.89727132  0.91629259  0.94607983  1
  Mg  Mg5  1  0.89838018  0.08206602  0.44235583  1
  Mg  Mg6  1  0.89680800  0.41565696  0.43780420  1
  Mg  Mg7  1  0.89561119  0.74820563  0.43888418  1
  Mg  Mg8  1  0.59672107  0.08460046  0.55704328  1
  Mg  Mg9  1  0.60343501  0.42004466  0.56405363  1
  Mg  Mg10  1  0.39697223  0.08430427  0.94712237  1
  Mg  Mg11  1  0.39727132  0.41629259  0.94607983  1
  Mg  Mg12  1  0.39783764  0.75114435  0.94578494  1
  Mg  Mg13  1  0.39561119  0.24820563  0.43888418  1
  Mg  Mg14  1  0.39838018  0.58206602  0.44235583  1
  Mg  Mg15  1  0.39680800  0.91565696  0.43780420  1
  Nb  Nb0  1  0.10873095  0.25176617  0.56180164  1
  Nb  Nb1  1  0.10699094  0.08371382  0.05885218  1
  Nb  Nb2  1  0.10627638  0.41316585  0.06024133  1
  Nb  Nb3  1  0.10358816  0.74924368  0.06143238  1
  Nb  Nb4  1  0.60873095  0.75176617  0.56180164  1
  Nb  Nb5  1  0.60358816  0.24924368  0.06143238  1
  Nb  Nb6  1  0.60699094  0.58371382  0.05885218  1
  Nb  Nb7  1  0.60627638  0.91316585  0.06024133  1
  P  P0  1  0.99711478  0.31797839  0.73909583  1
  P  P1  1  0.99764178  0.65070370  0.74563101  1
  P  P2  1  0.99865781  0.98431191  0.74291918  1
  P  P3  1  0.99922557  0.01569652  0.24394418  1
  P  P4  1  0.99486637  0.34885144  0.23705408  1
  P  P5  1  0.99957136  0.68170170  0.25404385  1
  P  P6  1  0.49764178  0.15070370  0.74563101  1
  P  P7  1  0.49865781  0.48431191  0.74291918  1
  P  P8  1  0.49711478  0.81797839  0.73909583  1
  P  P9  1  0.49957136  0.18170170  0.25404385  1
  P  P10  1  0.49922557  0.51569652  0.24394418  1
  P  P11  1  0.49486637  0.84885144  0.23705408  1
  P  P12  1  0.35472128  0.29842213  0.74619744  1
  P  P13  1  0.34985917  0.63250273  0.74884423  1
  P  P14  1  0.35179639  0.96524758  0.75046913  1
  P  P15  1  0.64518994  0.30001775  0.73842431  1
  P  P16  1  0.64431664  0.63249337  0.73334080  1
  P  P17  1  0.64602367  0.96556118  0.73818654  1
  P  P18  1  0.64768709  0.03255661  0.24401275  1
  P  P19  1  0.64553616  0.36778825  0.24300478  1
  P  P20  1  0.64374628  0.70159083  0.23543799  1
  P  P21  1  0.35443305  0.03502383  0.25664789  1
  P  P22  1  0.35573440  0.36750187  0.25955991  1
  P  P23  1  0.35065579  0.70184590  0.24857793  1
  P  P24  1  0.84985917  0.13250273  0.74884423  1
  P  P25  1  0.85179639  0.46524758  0.75046913  1
  P  P26  1  0.85472128  0.79842213  0.74619744  1
  P  P27  1  0.14431664  0.13249337  0.73334080  1
  P  P28  1  0.14602367  0.46556118  0.73818654  1
  P  P29  1  0.14518994  0.80001775  0.73842431  1
  P  P30  1  0.14374628  0.20159083  0.23543799  1
  P  P31  1  0.14768709  0.53255661  0.24401275  1
  P  P32  1  0.14553616  0.86778825  0.24300478  1
  P  P33  1  0.85065579  0.20184590  0.24857793  1
  P  P34  1  0.85443305  0.53502383  0.25664789  1
  P  P35  1  0.85573440  0.86750187  0.25955991  1
  O  O0  1  0.14891495  0.19209592  0.73884908  1
  O  O1  1  0.15489132  0.52294331  0.75892223  1
  O  O2  1  0.15545548  0.85675539  0.75730466  1
  O  O3  1  0.84163500  0.18965665  0.75537790  1
  O  O4  1  0.85126356  0.52170936  0.76467358  1
  O  O5  1  0.84750277  0.85423724  0.76353876  1
  O  O6  1  0.84202128  0.14535666  0.26355070  1
  O  O7  1  0.83608179  0.47843656  0.25837114  1
  O  O8  1  0.84554197  0.81089510  0.25682223  1
  O  O9  1  0.15024401  0.14275415  0.24693889  1
  O  O10  1  0.15652741  0.47295557  0.23663463  1
  O  O11  1  0.15221787  0.80821613  0.23221550  1
  O  O12  1  0.65489132  0.02294331  0.75892223  1
  O  O13  1  0.65545548  0.35675539  0.75730466  1
  O  O14  1  0.64891495  0.69209592  0.73884908  1
  O  O15  1  0.35126356  0.02170936  0.76467358  1
  O  O16  1  0.34750277  0.35423724  0.76353876  1
  O  O17  1  0.34163500  0.68965665  0.75537790  1
  O  O18  1  0.34554197  0.31089510  0.25682223  1
  O  O19  1  0.34202128  0.64535666  0.26355070  1
  O  O20  1  0.33608179  0.97843656  0.25837114  1
  O  O21  1  0.65221787  0.30821613  0.23221550  1
  O  O22  1  0.65024401  0.64275415  0.24693889  1
  O  O23  1  0.65652741  0.97295557  0.23663463  1
  O  O24  1  0.44095692  0.18432480  0.58068742  1
  O  O25  1  0.43433302  0.51683282  0.57298411  1
  O  O26  1  0.43478928  0.85148973  0.57585081  1
  O  O27  1  0.56032433  0.18694766  0.92464492  1
  O  O28  1  0.55868791  0.52306827  0.91494943  1
  O  O29  1  0.56470158  0.85058279  0.91831040  1
  O  O30  1  0.57676341  0.15303270  0.43426516  1
  O  O31  1  0.57186616  0.48308482  0.41105227  1
  O  O32  1  0.55963297  0.81167721  0.40954067  1
  O  O33  1  0.44315849  0.14861217  0.08818942  1
  O  O34  1  0.43114072  0.48574250  0.06753155  1
  O  O35  1  0.43380342  0.81822284  0.06462519  1
  O  O36  1  0.93433302  0.01683282  0.57298411  1
  O  O37  1  0.93478928  0.35148973  0.57585081  1
  O  O38  1  0.94095692  0.68432480  0.58068742  1
  O  O39  1  0.05868791  0.02306827  0.91494943  1
  O  O40  1  0.06470158  0.35058279  0.91831040  1
  O  O41  1  0.06032433  0.68694766  0.92464492  1
  O  O42  1  0.05963297  0.31167721  0.40954067  1
  O  O43  1  0.07676341  0.65303270  0.43426516  1
  O  O44  1  0.07186616  0.98308482  0.41105227  1
  O  O45  1  0.93380342  0.31822284  0.06462519  1
  O  O46  1  0.94315849  0.64861217  0.08818942  1
  O  O47  1  0.93114072  0.98574250  0.06753155  1
  O  O48  1  0.25758964  0.27273047  0.73305979  1
  O  O49  1  0.26680057  0.60622238  0.76226944  1
  O  O50  1  0.27000711  0.93732888  0.76229095  1
  O  O51  1  0.74128963  0.27632943  0.75696272  1
  O  O52  1  0.74039336  0.61073348  0.75805480  1
  O  O53  1  0.74162359  0.94431220  0.75228037  1
  O  O54  1  0.74291526  0.05366270  0.25206465  1
  O  O55  1  0.73913860  0.39089863  0.25499616  1
  O  O56  1  0.73960033  0.72360057  0.25783107  1
  O  O57  1  0.25150078  0.05951846  0.23127671  1
  O  O58  1  0.25314081  0.39069246  0.23697707  1
  O  O59  1  0.25902411  0.72589068  0.25088614  1
  O  O60  1  0.76680057  0.10622238  0.76226944  1
  O  O61  1  0.77000711  0.43732888  0.76229095  1
  O  O62  1  0.75758964  0.77273047  0.73305979  1
  O  O63  1  0.24039336  0.11073348  0.75805480  1
  O  O64  1  0.24162359  0.44431220  0.75228037  1
  O  O65  1  0.24128963  0.77632943  0.75696272  1
  O  O66  1  0.23960033  0.22360057  0.25783107  1
  O  O67  1  0.24291526  0.55366270  0.25206465  1
  O  O68  1  0.23913860  0.89089863  0.25499616  1
  O  O69  1  0.75902411  0.22589068  0.25088614  1
  O  O70  1  0.75150078  0.55951846  0.23127671  1
  O  O71  1  0.75314081  0.89069246  0.23697707  1
  O  O72  1  0.35511049  0.28454234  0.58410832  1
  O  O73  1  0.34501170  0.61842598  0.57773029  1
  O  O74  1  0.34785715  0.95045878  0.58075725  1
  O  O75  1  0.63933864  0.27982881  0.90375755  1
  O  O76  1  0.63839187  0.61992559  0.90307041  1
  O  O77  1  0.64733319  0.94642878  0.91270771  1
  O  O78  1  0.65189143  0.04276544  0.41886511  1
  O  O79  1  0.64703250  0.37584802  0.41665258  1
  O  O80  1  0.63701764  0.71563348  0.40444567  1
  O  O81  1  0.35795675  0.04770433  0.09529449  1
  O  O82  1  0.35452715  0.38606005  0.09700952  1
  O  O83  1  0.34379168  0.71431790  0.07587956  1
  O  O84  1  0.84501170  0.11842598  0.57773029  1
  O  O85  1  0.84785715  0.45045878  0.58075725  1
  O  O86  1  0.85511049  0.78454234  0.58410832  1
  O  O87  1  0.13839187  0.11992559  0.90307041  1
  O  O88  1  0.14733319  0.44642878  0.91270771  1
  O  O89  1  0.13933864  0.77982881  0.90375755  1
  O  O90  1  0.13701764  0.21563348  0.40444567  1
  O  O91  1  0.15189143  0.54276544  0.41886511  1
  O  O92  1  0.14703250  0.87584802  0.41665258  1
  O  O93  1  0.84379168  0.21431790  0.07587956  1
  O  O94  1  0.85795675  0.54770433  0.09529449  1
  O  O95  1  0.85452715  0.88606005  0.09700952  1
  O  O96  1  0.45668775  0.27707896  0.92896364  1
  O  O97  1  0.46190022  0.61488760  0.92172847  1
  O  O98  1  0.46484043  0.94315962  0.92167842  1
  O  O99  1  0.54506483  0.28171736  0.56363464  1
  O  O100  1  0.54057174  0.61767356  0.55967556  1
  O  O101  1  0.54289508  0.94908597  0.56583086  1
  O  O102  1  0.54590013  0.05050715  0.07134595  1
  O  O103  1  0.54260365  0.38473687  0.06832180  1
  O  O104  1  0.54030834  0.71675720  0.06191253  1
  O  O105  1  0.44860434  0.05462836  0.43984331  1
  O  O106  1  0.44805621  0.39009595  0.44003968  1
  O  O107  1  0.45718503  0.72287177  0.42251976  1
  O  O108  1  0.96190022  0.11488760  0.92172847  1
  O  O109  1  0.96484043  0.44315962  0.92167842  1
  O  O110  1  0.95668775  0.77707896  0.92896364  1
  O  O111  1  0.04057174  0.11767356  0.55967556  1
  O  O112  1  0.04289508  0.44908597  0.56583086  1
  O  O113  1  0.04506483  0.78171736  0.56363464  1
  O  O114  1  0.04030834  0.21675720  0.06191253  1
  O  O115  1  0.04590013  0.55050715  0.07134595  1
  O  O116  1  0.04260365  0.88473687  0.06832180  1
  O  O117  1  0.95718503  0.22287177  0.42251976  1
  O  O118  1  0.94860434  0.55462836  0.43984331  1
  O  O119  1  0.94805621  0.89009595  0.44003968  1
  O  O120  1  0.07984579  0.28447208  0.73643664  1
  O  O121  1  0.08810189  0.62062190  0.76203823  1
  O  O122  1  0.08356485  0.95213144  0.75733085  1
  O  O123  1  0.92497587  0.28241934  0.75375936  1
  O  O124  1  0.92634351  0.61560162  0.76176074  1
  O  O125  1  0.92282563  0.95212429  0.76098359  1
  O  O126  1  0.92645764  0.05183144  0.25693269  1
  O  O127  1  0.92915970  0.38587289  0.25837048  1
  O  O128  1  0.92795227  0.72011417  0.25708925  1
  O  O129  1  0.07780701  0.05148849  0.23090347  1
  O  O130  1  0.08382462  0.38008637  0.24509511  1
  O  O131  1  0.08214718  0.71697994  0.24163680  1
  O  O132  1  0.58810189  0.12062190  0.76203823  1
  O  O133  1  0.58356485  0.45213144  0.75733085  1
  O  O134  1  0.57984579  0.78447208  0.73643664  1
  O  O135  1  0.42634351  0.11560162  0.76176074  1
  O  O136  1  0.42282563  0.45212429  0.76098359  1
  O  O137  1  0.42497587  0.78241934  0.75375936  1
  O  O138  1  0.42795227  0.22011417  0.25708925  1
  O  O139  1  0.42645764  0.55183144  0.25693269  1
  O  O140  1  0.42915970  0.88587289  0.25837048  1
  O  O141  1  0.58214718  0.21697994  0.24163680  1
  O  O142  1  0.57780701  0.55148849  0.23090347  1
  O  O143  1  0.58382462  0.88008637  0.24509511  1
loop_
_geom_bond_atom_site_label_1
_geom_bond_atom_site_label_2
_geom_bond_distance
_geom_bond_site_symmetry_2
Na0 O138 2.331096 1_555
Na0 O66 2.352043 1_555
Na0 O18 2.358026 1_555
Na0 O0 2.626322 1_554
Na0 O48 2.679219 1_554
Na0 O120 2.680843 1_554
Na1 O121 2.379707 1_554
Na1 O1 2.385268 1_554
Na1 O49 2.396410 1_554
Na1 O67 2.408375 1_555
Na1 O139 2.519535 1_555
Na1 O19 2.568502 1_555
Na2 O50 2.403531 1_554
Na2 O122 2.415454 1_554
Na2 O68 2.447483 1_555
Na2 O2 2.448941 1_554
Na2 O20 2.469932 1_555
Na2 O140 2.530229 1_555
Na3 O51 2.381546 1_555
Na3 O123 2.392842 1_555
Na3 O3 2.409433 1_555
Na3 O69 2.491129 1_555
Na3 O141 2.557306 1_555
Na3 O21 2.575832 1_555
Na4 O124 2.282696 1_555
Na4 O52 2.307773 1_555
Na4 O4 2.508158 1_555
Na4 O22 2.526878 1_555
Na4 O70 2.705925 1_555
Na4 O142 2.762634 1_555
Na5 O5 2.305499 1_555
Na5 O53 2.351854 1_555
Na5 O143 2.483200 1_555
Na5 O125 2.531585 1_555
Na5 O71 2.598718 1_555
Na5 O23 2.699675 1_555
Na6 O132 2.379707 1_554
Na6 O12 2.385268 1_554
Na6 O60 2.396410 1_554
Na6 O54 2.408375 1_555
Na6 O126 2.519535 1_555
Na6 O6 2.568502 1_555
Na7 O61 2.403531 1_554
Na7 O133 2.415454 1_554
Na7 O55 2.447483 1_555
Na7 O13 2.448941 1_554
Na7 O7 2.469932 1_555
Na7 O127 2.530229 1_555
Na8 O128 2.331096 1_555
Na8 O56 2.352043 1_555
Na8 O8 2.358026 1_555
Na8 O14 2.626322 1_554
Na8 O62 2.679219 1_554
Na8 O134 2.680843 1_554
Na9 O135 2.282696 1_555
Na9 O63 2.307773 1_555
Na9 O15 2.508158 1_555
Na9 O9 2.526878 1_555
Na9 O57 2.705925 1_555
Na9 O129 2.762634 1_555
Na10 O16 2.305499 1_555
Na10 O64 2.351854 1_555
Na10 O130 2.483200 1_555
Na10 O136 2.531585 1_555
Na10 O58 2.598718 1_555
Na10 O10 2.699675 1_555
Na11 O65 2.381546 1_555
Na11 O137 2.392842 1_555
Na11 O17 2.409433 1_555
Na11 O59 2.491129 1_555
Na11 O131 2.557306 1_555
Na11 O11 2.575832 1_555
Na12 O135 2.350193 1_555
Na12 O105 2.353306 1_555
Na12 O15 2.417736 1_555
Na12 O12 2.443257 1_555
Na12 O132 2.546930 1_555
Na12 O102 2.613561 1_556
Na13 O106 2.349683 1_555
Na13 O136 2.422812 1_555
Na13 O133 2.426455 1_555
Na13 O13 2.440039 1_555
Na13 O16 2.507002 1_555
Na13 O103 2.605109 1_556
Na14 O137 2.418277 1_555
Na14 O17 2.428852 1_555
Na14 O104 2.439136 1_556
Na14 O14 2.476995 1_555
Na14 O134 2.614061 1_555
Na14 O107 2.719960 1_555
Na14 O76 2.858766 1_555
Na15 O99 2.349545 1_555
Na15 O18 2.377633 1_555
Na15 O138 2.392004 1_555
Na15 O21 2.564217 1_555
Na15 O141 2.634530 1_555
Na15 O79 2.764882 1_555
Na15 O96 2.766091 1_554
Na16 O139 2.337029 1_555
Na16 O100 2.441269 1_555
Na16 O19 2.458137 1_555
Na16 O22 2.488747 1_555
Na16 O142 2.528223 1_555
Na16 O97 2.698674 1_554
Na17 O101 2.403359 1_555
Na17 O140 2.434282 1_555
Na17 O20 2.508079 1_555
Na17 O23 2.616513 1_555
Na17 O143 2.761118 1_555
Na17 O78 2.805714 1_565
Na17 O81 2.806812 1_565
Na17 O98 2.875143 1_554
Na18 O123 2.418277 1_555
Na18 O3 2.428852 1_555
Na18 O114 2.439136 1_656
Na18 O0 2.476995 1_655
Na18 O120 2.614061 1_655
Na18 O117 2.719960 1_555
Na18 O87 2.858766 1_655
Na19 O124 2.350193 1_555
Na19 O118 2.353306 1_555
Na19 O4 2.417736 1_555
Na19 O1 2.443257 1_655
Na19 O121 2.546930 1_655
Na19 O115 2.613561 1_656
Na20 O119 2.349683 1_555
Na20 O125 2.422812 1_555
Na20 O122 2.426455 1_655
Na20 O2 2.440039 1_655
Na20 O5 2.507002 1_555
Na20 O116 2.605109 1_656
Na21 O126 2.337029 1_555
Na21 O111 2.441269 1_655
Na21 O6 2.458137 1_555
Na21 O9 2.488747 1_655
Na21 O129 2.528223 1_655
Na21 O108 2.698674 1_554
Na22 O112 2.403359 1_655
Na22 O127 2.434282 1_555
Na22 O7 2.508079 1_555
Na22 O10 2.616513 1_655
Na22 O130 2.761118 1_655
Na22 O91 2.805714 1_655
Na22 O94 2.806812 1_555
Na22 O109 2.875143 1_554
Na23 O113 2.349545 1_555
Na23 O8 2.377633 1_455
Na23 O128 2.392004 1_455
Na23 O11 2.564217 1_555
Na23 O131 2.634530 1_555
Na23 O92 2.764882 1_555
Na23 O110 2.766091 1_454
Na24 O126 2.489905 1_565
Na24 O54 2.532135 1_565
Na24 O71 2.587428 1_555
Na24 O77 2.627472 1_554
Na24 O23 2.688602 1_555
Na24 O47 2.693094 1_555
Na24 O95 2.804721 1_555
Na24 O36 2.830264 1_565
Na24 O119 2.947164 1_555
Na25 O73 2.343490 1_555
Na25 O131 2.538548 1_555
Na25 O67 2.551019 1_555
Na25 O19 2.613643 1_555
Na25 O43 2.631936 1_555
Na25 O59 2.745279 1_555
Na26 O74 2.305926 1_555
Na26 O68 2.428999 1_555
Na26 O20 2.451744 1_555
Na26 O44 2.598515 1_555
Na26 O129 2.614162 1_565
Na26 O57 2.685645 1_565
Na27 O121 2.381908 1_555
Na27 O17 2.445830 1_555
Na27 O65 2.513657 1_555
Na27 O43 2.535816 1_555
Na27 O49 2.540395 1_555
Na27 O83 2.578449 1_556
Na28 O53 2.375006 1_545
Na28 O78 2.399452 1_555
Na28 O125 2.438669 1_545
Na28 O60 2.494990 1_555
Na28 O12 2.601290 1_555
Na28 O47 2.750713 1_546
Na28 O36 2.906371 1_555
Na29 O61 2.374841 1_555
Na29 O79 2.380493 1_555
Na29 O51 2.509072 1_555
Na29 O123 2.582296 1_555
Na29 O13 2.618779 1_555
Na29 O45 2.819185 1_556
Na29 O37 2.846167 1_555
Na30 O139 2.489905 1_555
Na30 O67 2.532135 1_555
Na30 O58 2.587428 1_555
Na30 O88 2.627472 1_554
Na30 O10 2.688602 1_555
Na30 O34 2.693094 1_555
Na30 O82 2.804721 1_555
Na30 O25 2.830264 1_555
Na30 O106 2.947164 1_555
Na31 O84 2.343490 1_555
Na31 O141 2.538548 1_555
Na31 O54 2.551019 1_555
Na31 O6 2.613643 1_555
Na31 O30 2.631936 1_555
Na31 O69 2.745279 1_555
Na32 O85 2.305926 1_555
Na32 O55 2.428999 1_555
Na32 O7 2.451744 1_555
Na32 O31 2.598515 1_555
Na32 O142 2.614162 1_555
Na32 O70 2.685645 1_555
Na33 O132 2.381908 1_555
Na33 O3 2.445830 1_555
Na33 O51 2.513657 1_555
Na33 O30 2.535816 1_555
Na33 O60 2.540395 1_555
Na33 O93 2.578449 1_556
Na34 O64 2.375006 1_555
Na34 O91 2.399452 1_555
Na34 O136 2.438669 1_555
Na34 O49 2.494990 1_555
Na34 O1 2.601290 1_555
Na34 O34 2.750713 1_556
Na34 O25 2.906371 1_555
Na35 O50 2.374841 1_555
Na35 O92 2.380493 1_555
Na35 O65 2.509072 1_555
Na35 O137 2.582296 1_555
Na35 O2 2.618779 1_555
Na35 O35 2.819185 1_556
Na35 O26 2.846167 1_555
Mg0 O43 2.067617 1_555
Mg0 O118 2.069729 1_455
Mg0 O121 2.140747 1_555
Mg0 O91 2.176579 1_555
Mg0 O1 2.218446 1_555
Mg0 O49 2.264620 1_555
Mg1 O44 2.047307 1_555
Mg1 O122 2.103634 1_555
Mg1 O92 2.150983 1_555
Mg1 O119 2.154678 1_455
Mg1 O50 2.190104 1_555
Mg1 O2 2.214202 1_555
Mg2 O45 2.001604 1_556
Mg2 O93 2.035342 1_556
Mg2 O114 2.049954 1_656
Mg2 O51 2.124635 1_555
Mg2 O123 2.153408 1_555
Mg2 O3 2.162890 1_555
Mg3 O94 1.998233 1_556
Mg3 O46 2.012469 1_556
Mg3 O115 2.114667 1_656
Mg3 O124 2.122747 1_555
Mg3 O52 2.136115 1_555
Mg3 O4 2.158423 1_555
Mg4 O95 1.983175 1_556
Mg4 O116 2.046523 1_656
Mg4 O47 2.068936 1_556
Mg4 O125 2.133671 1_555
Mg4 O5 2.141917 1_555
Mg4 O53 2.147013 1_555
Mg5 O36 1.996078 1_555
Mg5 O111 2.060186 1_655
Mg5 O84 2.062958 1_555
Mg5 O126 2.101854 1_555
Mg5 O6 2.141653 1_555
Mg5 O54 2.144749 1_555
Mg6 O37 1.998063 1_555
Mg6 O85 2.048859 1_555
Mg6 O112 2.072418 1_655
Mg6 O127 2.093378 1_555
Mg6 O55 2.127410 1_555
Mg6 O7 2.133472 1_555
Mg7 O86 1.992034 1_555
Mg7 O38 2.002273 1_555
Mg7 O128 2.095415 1_555
Mg7 O56 2.106092 1_555
Mg7 O113 2.117290 1_655
Mg7 O8 2.148509 1_555
Mg8 O30 2.067617 1_555
Mg8 O105 2.069729 1_555
Mg8 O132 2.140747 1_555
Mg8 O78 2.176579 1_555
Mg8 O12 2.218446 1_555
Mg8 O60 2.264620 1_555
Mg9 O31 2.047307 1_555
Mg9 O133 2.103634 1_555
Mg9 O79 2.150983 1_555
Mg9 O106 2.154678 1_555
Mg9 O61 2.190104 1_555
Mg9 O13 2.214202 1_555
Mg10 O81 1.998233 1_556
Mg10 O33 2.012469 1_556
Mg10 O102 2.114667 1_556
Mg10 O135 2.122747 1_555
Mg10 O63 2.136115 1_555
Mg10 O15 2.158423 1_555
Mg11 O82 1.983175 1_556
Mg11 O103 2.046523 1_556
Mg11 O34 2.068936 1_556
Mg11 O136 2.133671 1_555
Mg11 O16 2.141917 1_555
Mg11 O64 2.147013 1_555
Mg12 O35 2.001604 1_556
Mg12 O83 2.035342 1_556
Mg12 O104 2.049954 1_556
Mg12 O65 2.124635 1_555
Mg12 O137 2.153408 1_555
Mg12 O17 2.162890 1_555
Mg13 O72 1.992034 1_555
Mg13 O24 2.002273 1_555
Mg13 O138 2.095415 1_555
Mg13 O66 2.106092 1_555
Mg13 O99 2.117290 1_555
Mg13 O18 2.148509 1_555
Mg14 O25 1.996078 1_555
Mg14 O100 2.060186 1_555
Mg14 O73 2.062958 1_555
Mg14 O139 2.101854 1_555
Mg14 O19 2.141653 1_555
Mg14 O67 2.144749 1_555
Mg15 O26 1.998063 1_555
Mg15 O74 2.048859 1_555
Mg15 O101 2.072418 1_555
Mg15 O140 2.093378 1_555
Mg15 O68 2.127410 1_555
Mg15 O20 2.133472 1_555
Nb0 O90 1.954059 1_555
Nb0 O42 1.954062 1_555
Nb0 O48 1.987993 1_555
Nb0 O120 2.051051 1_555
Nb0 O0 2.075905 1_555
Nb0 O117 2.083442 1_455
Nb1 O39 1.939828 1_554
Nb1 O57 1.967326 1_555
Nb1 O87 1.971081 1_554
Nb1 O129 2.025015 1_555
Nb1 O108 2.030107 1_454
Nb1 O9 2.119570 1_555
Nb2 O88 1.973287 1_554
Nb2 O109 1.973501 1_454
Nb2 O40 1.977789 1_554
Nb2 O58 1.983093 1_555
Nb2 O10 2.063838 1_555
Nb2 O130 2.069055 1_555
Nb3 O41 1.950215 1_554
Nb3 O89 1.962492 1_554
Nb3 O131 2.012870 1_555
Nb3 O110 2.019129 1_454
Nb3 O11 2.020994 1_555
Nb3 O59 2.098294 1_555
Nb4 O80 1.954059 1_555
Nb4 O32 1.954062 1_555
Nb4 O62 1.987993 1_555
Nb4 O134 2.051051 1_555
Nb4 O14 2.075905 1_555
Nb4 O107 2.083442 1_555
Nb5 O27 1.950215 1_554
Nb5 O75 1.962492 1_554
Nb5 O141 2.012870 1_555
Nb5 O96 2.019129 1_554
Nb5 O21 2.020994 1_555
Nb5 O69 2.098294 1_555
Nb6 O28 1.939828 1_554
Nb6 O70 1.967326 1_555
Nb6 O76 1.971081 1_554
Nb6 O142 2.025015 1_555
Nb6 O97 2.030107 1_554
Nb6 O22 2.119570 1_555
Nb7 O77 1.973287 1_554
Nb7 O98 1.973501 1_554
Nb7 O29 1.977789 1_554
Nb7 O71 1.983093 1_555
Nb7 O23 2.063838 1_555
Nb7 O143 2.069055 1_555
O0 P27 1.601847 1_555
O1 P28 1.549080 1_555
O2 P29 1.531490 1_555
O3 P24 1.544416 1_555
O4 P25 1.522347 1_555
O5 P26 1.518153 1_555
O6 P33 1.535186 1_555
O7 P34 1.547696 1_555
O8 P35 1.527141 1_555
O9 P30 1.582846 1_555
O10 P31 1.611436 1_555
O11 P32 1.610044 1_555
O12 P17 1.549080 1_545
O13 P15 1.531490 1_555
O14 P16 1.601847 1_555
O15 P14 1.522347 1_545
O16 P12 1.518153 1_555
O17 P13 1.544416 1_555
O18 P22 1.527141 1_555
O19 P23 1.535186 1_555
O20 P21 1.547696 1_565
O21 P19 1.610044 1_555
O22 P20 1.582846 1_555
O23 P18 1.611436 1_565
O24 P6 1.504339 1_555
O25 P7 1.521700 1_555
O26 P8 1.498271 1_555
O27 P6 1.632044 1_555
O28 P7 1.633498 1_555
O29 P8 1.581336 1_555
O30 P9 1.548685 1_555
O31 P10 1.525691 1_555
O32 P11 1.610551 1_555
O33 P9 1.503537 1_555
O34 P10 1.527718 1_555
O35 P11 1.506514 1_555
O36 P2 1.521700 1_545
O37 P0 1.498271 1_555
O38 P1 1.504339 1_555
O39 P2 1.633498 1_445
O40 P0 1.581336 1_455
O41 P1 1.632044 1_455
O42 P4 1.610551 1_455
O43 P5 1.548685 1_455
O44 P3 1.525691 1_465
O45 P4 1.506514 1_555
O46 P5 1.503537 1_555
O47 P3 1.527718 1_565
O48 P12 1.602280 1_555
O49 P13 1.535146 1_555
O50 P14 1.530762 1_555
O51 P15 1.544116 1_555
O52 P16 1.498868 1_555
O53 P17 1.529559 1_555
O54 P18 1.548128 1_555
O55 P19 1.528395 1_555
O56 P20 1.506343 1_555
O57 P21 1.622679 1_555
O58 P22 1.614819 1_555
O59 P23 1.576200 1_555
O60 P24 1.535146 1_555
O61 P25 1.530762 1_555
O62 P26 1.602280 1_555
O63 P27 1.498868 1_555
O64 P28 1.529559 1_555
O65 P29 1.544116 1_555
O66 P30 1.506343 1_555
O67 P31 1.548128 1_555
O68 P32 1.528395 1_555
O69 P33 1.576200 1_555
O70 P34 1.622679 1_555
O71 P35 1.614819 1_555
O72 P12 1.496493 1_555
O73 P13 1.531714 1_555
O74 P14 1.531923 1_555
O75 P15 1.620322 1_555
O76 P16 1.603119 1_555
O77 P17 1.626519 1_555
O78 P18 1.547320 1_555
O79 P19 1.550508 1_555
O80 P20 1.614596 1_555
O81 P21 1.508869 1_555
O82 P22 1.521395 1_555
O83 P23 1.517678 1_555
O84 P24 1.531714 1_555
O85 P25 1.531923 1_555
O86 P26 1.496493 1_555
O87 P27 1.603119 1_555
O88 P28 1.626519 1_555
O89 P29 1.620322 1_555
O90 P30 1.614596 1_555
O91 P31 1.547320 1_555
O92 P32 1.550508 1_555
O93 P33 1.517678 1_555
O94 P34 1.508869 1_555
O95 P35 1.521395 1_555
O96 P12 1.590803 1_555
O97 P13 1.597495 1_555
O98 P14 1.640473 1_555
O99 P15 1.520255 1_555
O100 P16 1.514238 1_555
O101 P17 1.517260 1_555
O102 P18 1.519762 1_555
O103 P19 1.527221 1_555
O104 P20 1.513108 1_555
O105 P21 1.531720 1_555
O106 P22 1.539262 1_555
O107 P23 1.587913 1_555
O108 P24 1.597495 1_555
O109 P25 1.640473 1_555
O110 P26 1.590803 1_555
O111 P27 1.514238 1_555
O112 P28 1.517260 1_555
O113 P29 1.520255 1_555
O114 P30 1.513108 1_555
O115 P31 1.519762 1_555
O116 P32 1.527221 1_555
O117 P33 1.587913 1_555
O118 P34 1.531720 1_555
O119 P35 1.539262 1_555
O120 P0 1.582318 1_455
O121 P1 1.555463 1_455
O122 P2 1.521427 1_455
O123 P0 1.534173 1_555
O124 P1 1.522991 1_555
O125 P2 1.542634 1_555
O126 P3 1.545796 1_555
O127 P4 1.514944 1_555
O128 P5 1.530745 1_555
O129 P3 1.609842 1_455
O130 P4 1.583440 1_455
O131 P5 1.649124 1_455
O132 P6 1.555463 1_555
O133 P7 1.521427 1_555
O134 P8 1.582318 1_555
O135 P6 1.522991 1_555
O136 P7 1.542634 1_555
O137 P8 1.534173 1_555
O138 P9 1.530745 1_555
O139 P10 1.545796 1_555
O140 P11 1.514944 1_555
O141 P9 1.649124 1_555
O142 P10 1.609842 1_555
O143 P11 1.583440 1_555
