# generated using pymatgen
data_P2PdO6
_symmetry_space_group_name_H-M   'P 1'
_cell_length_a   4.25828849
_cell_length_b   4.57741509
_cell_length_c   12.48821285
_cell_angle_alpha   90.00000000
_cell_angle_beta   90.00000000
_cell_angle_gamma   90.00000000
_symmetry_Int_Tables_number   1
_chemical_formula_structural   P2PdO6
_chemical_formula_sum   'P4 Pd2 O12'
_cell_volume   243.41967031
_cell_formula_units_Z   2
loop_
 _symmetry_equiv_pos_site_id
 _symmetry_equiv_pos_as_xyz
  1  'x, y, z'
loop_
 _atom_site_type_symbol
 _atom_site_label
 _atom_site_symmetry_multiplicity
 _atom_site_fract_x
 _atom_site_fract_y
 _atom_site_fract_z
 _atom_site_occupancy
  P  P0  1  0.50000000  0.50000000  0.67219355  1
  P  P1  1  0.00000000  0.50000000  0.82780645  1
  P  P2  1  0.50000000  0.50000000  0.32780645  1
  P  P3  1  0.00000000  0.50000000  0.17219355  1
  Pd  Pd0  1  0.50000000  -0.00000000  0.50000000  1
  Pd  Pd1  1  0.00000000  -0.00000000  -0.00000000  1
  O  O0  1  0.75000000  0.64654595  0.75000000  1
  O  O1  1  0.25000000  0.35345405  0.75000000  1
  O  O2  1  0.25000000  0.35345405  0.25000000  1
  O  O3  1  0.75000000  0.64654595  0.25000000  1
  O  O4  1  0.82925217  0.26422434  0.88639977  1
  O  O5  1  0.32925217  0.73577566  0.61360023  1
  O  O6  1  0.82925217  0.26422434  0.11360023  1
  O  O7  1  0.32925217  0.73577566  0.38639977  1
  O  O8  1  0.67074783  0.26422434  0.38639977  1
  O  O9  1  0.17074783  0.73577566  0.11360023  1
  O  O10  1  0.17074783  0.73577566  0.88639977  1
  O  O11  1  0.67074783  0.26422434  0.61360023  1
loop_
_geom_bond_atom_site_label_1
_geom_bond_atom_site_label_2
_geom_bond_distance
_geom_bond_site_symmetry_2
O0 P0 1.589786 1_555
O0 P1 1.589786 1_655
O1 P0 1.589786 1_555
O1 P1 1.589786 1_555
O2 P3 1.589786 1_555
O2 P2 1.589786 1_555
O3 P3 1.589786 1_655
O3 P2 1.589786 1_555
O4 P1 1.492934 1_655
O4 Pd1 2.001019 1_656
O5 P0 1.492934 1_555
O5 Pd0 2.001019 1_565
O6 P3 1.492934 1_655
O6 Pd1 2.001019 1_655
O7 P2 1.492934 1_555
O7 Pd0 2.001019 1_565
O8 P2 1.492934 1_555
O8 Pd0 2.001019 1_555
O9 P3 1.492934 1_555
O9 Pd1 2.001019 1_565
O10 P1 1.492934 1_555
O10 Pd1 2.001019 1_566
O11 P0 1.492934 1_555
O11 Pd0 2.001019 1_555
