# generated using pymatgen
data_NaHfGe(PO4)3
_symmetry_space_group_name_H-M   'P 1'
_cell_length_a   8.61649668
_cell_length_b   8.61649641
_cell_length_c   22.32697078
_cell_angle_alpha   90.00000000
_cell_angle_beta   90.00000000
_cell_angle_gamma   120.00000102
_symmetry_Int_Tables_number   1
_chemical_formula_structural   NaHfGe(PO4)3
_chemical_formula_sum   'Na6 Hf6 Ge6 P18 O72'
_cell_volume   1435.56171590
_cell_formula_units_Z   6
loop_
 _symmetry_equiv_pos_site_id
 _symmetry_equiv_pos_as_xyz
  1  'x, y, z'
loop_
 _atom_site_type_symbol
 _atom_site_label
 _atom_site_symmetry_multiplicity
 _atom_site_fract_x
 _atom_site_fract_y
 _atom_site_fract_z
 _atom_site_occupancy
  Na  Na0  1  -0.00000000  -0.00000000  0.50422905  1
  Na  Na1  1  -0.00000000  -0.00000000  0.00220747  1
  Na  Na2  1  0.66666700  0.33333300  0.82943723  1
  Na  Na3  1  0.66666700  0.33333300  0.33859435  1
  Na  Na4  1  0.33333300  0.66666700  0.17073932  1
  Na  Na5  1  0.33333300  0.66666700  0.66132825  1
  Hf  Hf0  1  -0.00000000  -0.00000000  0.36209640  1
  Hf  Hf1  1  -0.00000000  -0.00000000  0.84915945  1
  Hf  Hf2  1  0.66666700  0.33333300  0.19300009  1
  Hf  Hf3  1  0.66666700  0.33333300  0.98191878  1
  Hf  Hf4  1  0.33333300  0.66666700  0.02364544  1
  Hf  Hf5  1  0.33333300  0.66666700  0.80538253  1
  Ge  Ge0  1  -0.00000000  -0.00000000  0.64183028  1
  Ge  Ge1  1  -0.00000000  -0.00000000  0.15192915  1
  Ge  Ge2  1  0.66666700  0.33333300  0.68006680  1
  Ge  Ge3  1  0.66666700  0.33333300  0.48185329  1
  Ge  Ge4  1  0.33333300  0.66666700  0.52245110  1
  Ge  Ge5  1  0.33333300  0.66666700  0.31675702  1
  P  P0  1  0.27745120  0.98204666  0.25328133  1
  P  P1  1  0.70459546  0.72254880  0.25328133  1
  P  P2  1  0.01795334  0.29540454  0.25328133  1
  P  P3  1  0.29490910  0.28196000  0.74005614  1
  P  P4  1  0.98705090  0.70509090  0.74005614  1
  P  P5  1  0.71804000  0.01294910  0.74005614  1
  P  P6  1  0.95384706  0.33291393  0.58130156  1
  P  P7  1  0.37906787  0.04615294  0.58130156  1
  P  P8  1  0.66708607  0.62093213  0.58130156  1
  P  P9  1  0.95693043  0.63896702  0.08812090  1
  P  P10  1  0.68203759  0.04306957  0.08812090  1
  P  P11  1  0.36103298  0.31796241  0.08812090  1
  P  P12  1  0.62318446  0.66540236  0.91481338  1
  P  P13  1  0.04221690  0.37681554  0.91481338  1
  P  P14  1  0.33459764  0.95778310  0.91481338  1
  P  P15  1  0.60321215  0.95307984  0.42121446  1
  P  P16  1  0.34986670  0.39678785  0.42121446  1
  P  P17  1  0.04692016  0.65013330  0.42121446  1
  O  O0  1  0.19558729  0.01321248  0.30928305  1
  O  O1  1  0.81762519  0.80441271  0.30928305  1
  O  O2  1  0.98678752  0.18237481  0.30928305  1
  O  O3  1  0.21259315  0.17375323  0.79778692  1
  O  O4  1  0.96116008  0.78740685  0.79778692  1
  O  O5  1  0.82624677  0.03883992  0.79778692  1
  O  O6  1  0.80263918  0.97504475  0.68503038  1
  O  O7  1  0.17240556  0.19736082  0.68503038  1
  O  O8  1  0.02495525  0.82759444  0.68503038  1
  O  O9  1  0.79147013  0.83611158  0.19594311  1
  O  O10  1  0.04464145  0.20852987  0.19594311  1
  O  O11  1  0.16388842  0.95535855  0.19594311  1
  O  O12  1  0.87246942  0.37247455  0.63700047  1
  O  O13  1  0.50000613  0.12753058  0.63700047  1
  O  O14  1  0.62752545  0.49999387  0.63700047  1
  O  O15  1  0.86870983  0.52000788  0.14272735  1
  O  O16  1  0.65129905  0.13129017  0.14272735  1
  O  O17  1  0.47999212  0.34870095  0.14272735  1
  O  O18  1  0.44933814  0.29706642  0.03065122  1
  O  O19  1  0.84772928  0.55066186  0.03065122  1
  O  O20  1  0.70293358  0.15227072  0.03065122  1
  O  O21  1  0.46038742  0.16762513  0.52550311  1
  O  O22  1  0.70723871  0.53961258  0.52550311  1
  O  O23  1  0.83237487  0.29276129  0.52550311  1
  O  O24  1  0.53450301  0.68369586  0.97203222  1
  O  O25  1  0.14919185  0.46549699  0.97203222  1
  O  O26  1  0.31630414  0.85080815  0.97203222  1
  O  O27  1  0.52593554  0.83709089  0.47776673  1
  O  O28  1  0.31115435  0.47406446  0.47776673  1
  O  O29  1  0.16290911  0.68884565  0.47776673  1
  O  O30  1  0.12808921  0.61900441  0.36332107  1
  O  O31  1  0.49091420  0.87191079  0.36332107  1
  O  O32  1  0.38099559  0.50908580  0.36332107  1
  O  O33  1  0.13272835  0.48441150  0.85779122  1
  O  O34  1  0.35168215  0.86727165  0.85779122  1
  O  O35  1  0.51558850  0.64831785  0.85779122  1
  O  O36  1  0.02235241  0.81548897  0.41554786  1
  O  O37  1  0.79313657  0.97764759  0.41554786  1
  O  O38  1  0.18451103  0.20686343  0.41554786  1
  O  O39  1  0.02340038  0.19039266  0.91001892  1
  O  O40  1  0.16699228  0.97659962  0.91001892  1
  O  O41  1  0.80960734  0.83300772  0.91001892  1
  O  O42  1  0.97521065  0.16393330  0.58752604  1
  O  O43  1  0.18872265  0.02478935  0.58752604  1
  O  O44  1  0.83606670  0.81127735  0.58752604  1
  O  O45  1  0.96513620  0.82052648  0.09476173  1
  O  O46  1  0.85539028  0.03486380  0.09476173  1
  O  O47  1  0.17947352  0.14460972  0.09476173  1
  O  O48  1  0.70565863  0.18554720  0.73432652  1
  O  O49  1  0.47988957  0.29434137  0.73432652  1
  O  O50  1  0.81445280  0.52011043  0.73432652  1
  O  O51  1  0.67832791  0.53218232  0.24773302  1
  O  O52  1  0.85385541  0.32167209  0.24773302  1
  O  O53  1  0.46781768  0.14614459  0.24773302  1
  O  O54  1  0.64065947  0.49707369  0.91964545  1
  O  O55  1  0.85641523  0.35934053  0.91964545  1
  O  O56  1  0.50292631  0.14358477  0.91964545  1
  O  O57  1  0.61793775  0.14026165  0.42683992  1
  O  O58  1  0.52232490  0.38206225  0.42683992  1
  O  O59  1  0.85973835  0.47767510  0.42683992  1
  O  O60  1  0.33302075  0.48043457  0.08231125  1
  O  O61  1  0.14741282  0.66697925  0.08231125  1
  O  O62  1  0.51956543  0.85258718  0.08231125  1
  O  O63  1  0.35816488  0.85569817  0.57566977  1
  O  O64  1  0.49753229  0.64183512  0.57566977  1
  O  O65  1  0.14430183  0.50246771  0.57566977  1
  O  O66  1  0.28815877  0.80823940  0.25971088  1
  O  O67  1  0.52007962  0.71184123  0.25971088  1
  O  O68  1  0.19176060  0.47992038  0.25971088  1
  O  O69  1  0.31923889  0.47111657  0.74674202  1
  O  O70  1  0.15187668  0.68076111  0.74674202  1
  O  O71  1  0.52888343  0.84812332  0.74674202  1
loop_
_geom_bond_atom_site_label_1
_geom_bond_atom_site_label_2
_geom_bond_distance
_geom_bond_site_symmetry_2
Na0 O44 2.408593 1_445
Na0 O42 2.408593 1_455
Na0 O43 2.408593 1_555
Na0 O38 2.605996 1_555
Na0 O37 2.605996 1_445
Na0 O36 2.605996 1_545
Na1 O45 2.507466 1_445
Na1 O47 2.507466 1_555
Na1 O46 2.507466 1_455
Na1 O39 2.576381 1_554
Na1 O41 2.576381 1_444
Na1 O40 2.576381 1_544
Na2 O54 2.532478 1_555
Na2 O56 2.532478 1_555
Na2 O55 2.532478 1_555
Na2 O50 2.582951 1_555
Na2 O48 2.582951 1_555
Na2 O49 2.582951 1_555
Na3 O57 2.475331 1_555
Na3 O59 2.475331 1_555
Na3 O58 2.475331 1_555
Na3 O51 2.624706 1_555
Na3 O53 2.624706 1_555
Na3 O52 2.624706 1_555
Na4 O68 2.461794 1_555
Na4 O67 2.461794 1_555
Na4 O66 2.461794 1_555
Na4 O60 2.543352 1_555
Na4 O62 2.543352 1_555
Na4 O61 2.543352 1_555
Na5 O63 2.451093 1_555
Na5 O65 2.451093 1_555
Na5 O64 2.451093 1_555
Na5 O69 2.507185 1_555
Na5 O71 2.507185 1_555
Na5 O70 2.507185 1_555
Hf0 O1 2.012879 1_445
Hf0 O2 2.012879 1_455
Hf0 O0 2.012879 1_555
Hf0 O38 2.072464 1_555
Hf0 O37 2.072464 1_445
Hf0 O36 2.072464 1_545
Hf1 O4 2.042076 1_445
Hf1 O3 2.042076 1_555
Hf1 O5 2.042076 1_455
Hf1 O39 2.060955 1_555
Hf1 O41 2.060955 1_445
Hf1 O40 2.060955 1_545
Hf2 O16 2.019310 1_555
Hf2 O15 2.019310 1_555
Hf2 O17 2.019310 1_555
Hf2 O51 2.065663 1_555
Hf2 O53 2.065663 1_555
Hf2 O52 2.065663 1_555
Hf3 O19 2.050123 1_556
Hf3 O20 2.050123 1_556
Hf3 O18 2.050123 1_556
Hf3 O54 2.071252 1_555
Hf3 O56 2.071252 1_555
Hf3 O55 2.071252 1_555
Hf4 O25 2.024784 1_554
Hf4 O26 2.024784 1_554
Hf4 O24 2.024784 1_554
Hf4 O60 2.070341 1_555
Hf4 O62 2.070341 1_555
Hf4 O61 2.070341 1_555
Hf5 O34 2.026981 1_555
Hf5 O33 2.026981 1_555
Hf5 O35 2.026981 1_555
Hf5 O69 2.088872 1_555
Hf5 O71 2.088872 1_555
Hf5 O70 2.088872 1_555
Ge0 O8 1.871573 1_545
Ge0 O7 1.871573 1_555
Ge0 O6 1.871573 1_445
Ge0 O44 1.952591 1_445
Ge0 O42 1.952591 1_455
Ge0 O43 1.952591 1_555
Ge1 O45 1.909523 1_445
Ge1 O47 1.909523 1_555
Ge1 O46 1.909523 1_455
Ge1 O10 1.910756 1_555
Ge1 O9 1.910756 1_445
Ge1 O11 1.910756 1_545
Ge2 O13 1.893361 1_555
Ge2 O14 1.893362 1_555
Ge2 O12 1.893362 1_555
Ge2 O50 1.905220 1_555
Ge2 O48 1.905220 1_555
Ge2 O49 1.905220 1_555
Ge3 O22 1.899951 1_555
Ge3 O21 1.899951 1_555
Ge3 O23 1.899951 1_555
Ge3 O57 1.937531 1_555
Ge3 O59 1.937531 1_555
Ge3 O58 1.937531 1_555
Ge4 O28 1.862485 1_555
Ge4 O27 1.862485 1_555
Ge4 O29 1.862485 1_555
Ge4 O63 1.939606 1_555
Ge4 O65 1.939606 1_555
Ge4 O64 1.939606 1_555
Ge5 O31 1.910692 1_555
Ge5 O32 1.910692 1_555
Ge5 O30 1.910692 1_555
Ge5 O68 1.933033 1_555
Ge5 O67 1.933033 1_555
Ge5 O66 1.933033 1_555
O0 P0 1.523965 1_545
O1 P1 1.523965 1_555
O2 P2 1.523965 1_655
O3 P3 1.540283 1_555
O4 P4 1.540283 1_555
O5 P5 1.540283 1_555
O6 P5 1.544496 1_565
O7 P3 1.544496 1_555
O8 P4 1.544496 1_455
O9 P1 1.556996 1_555
O10 P2 1.556996 1_555
O11 P0 1.556996 1_555
O12 P6 1.547059 1_555
O13 P7 1.547059 1_555
O14 P8 1.547059 1_555
O15 P9 1.528318 1_555
O16 P10 1.528318 1_555
O17 P11 1.528318 1_555
O18 P11 1.547502 1_555
O19 P9 1.547502 1_555
O20 P10 1.547502 1_555
O21 P7 1.550848 1_555
O22 P8 1.550848 1_555
O23 P6 1.550848 1_555
O24 P12 1.536633 1_555
O25 P13 1.536633 1_555
O26 P14 1.536633 1_555
O27 P15 1.539803 1_555
O28 P16 1.539803 1_555
O29 P17 1.539803 1_555
O30 P17 1.555461 1_555
O31 P15 1.555461 1_555
O32 P16 1.555461 1_555
O33 P13 1.538042 1_555
O34 P14 1.538042 1_555
O35 P12 1.538042 1_555
O36 P17 1.546753 1_555
O37 P15 1.546762 1_555
O38 P16 1.546758 1_555
O39 P13 1.535431 1_555
O40 P14 1.535423 1_555
O41 P12 1.535428 1_555
O42 P6 1.562440 1_555
O43 P7 1.562449 1_555
O44 P8 1.562445 1_555
O45 P9 1.537446 1_555
O46 P10 1.537437 1_555
O47 P11 1.537442 1_555
O48 P5 1.548594 1_555
O49 P3 1.548602 1_555
O50 P4 1.548598 1_555
O51 P1 1.544628 1_555
O52 P2 1.544620 1_655
O53 P0 1.544625 1_545
O54 P12 1.535048 1_555
O55 P13 1.535031 1_655
O56 P14 1.535039 1_545
O57 P15 1.558371 1_545
O58 P16 1.558388 1_555
O59 P17 1.558379 1_655
O60 P11 1.540395 1_555
O61 P9 1.540378 1_455
O62 P10 1.540385 1_565
O63 P7 1.563884 1_565
O64 P8 1.563901 1_555
O65 P6 1.563891 1_455
O66 P0 1.552458 1_555
O67 P1 1.552467 1_555
O68 P2 1.552463 1_555
O69 P3 1.543054 1_555
O70 P4 1.543046 1_455
O71 P5 1.543051 1_565
