# generated using pymatgen
data_LiNiP2O7
_symmetry_space_group_name_H-M   'P 1'
_cell_length_a   7.88422000
_cell_length_b   6.81908300
_cell_length_c   9.35756244
_cell_angle_alpha   69.11652284
_cell_angle_beta   90.00000000
_cell_angle_gamma   90.00000000
_symmetry_Int_Tables_number   1
_chemical_formula_structural   LiNiP2O7
_chemical_formula_sum   'Li4 Ni4 P8 O28'
_cell_volume   470.04256957
_cell_formula_units_Z   4
loop_
 _symmetry_equiv_pos_site_id
 _symmetry_equiv_pos_as_xyz
  1  'x, y, z'
loop_
 _atom_site_type_symbol
 _atom_site_label
 _atom_site_symmetry_multiplicity
 _atom_site_fract_x
 _atom_site_fract_y
 _atom_site_fract_z
 _atom_site_occupancy
  Li  Li0  1  0.12612600  0.66586800  0.53006200  1
  Li  Li1  1  0.37387400  0.16586800  0.03006200  1
  Li  Li2  1  0.62612600  0.83413200  0.96993800  1
  Li  Li3  1  0.87387400  0.33413200  0.46993800  1
  Ni  Ni0  1  0.76772700  0.27495500  0.99815000  1
  Ni  Ni1  1  0.73227300  0.77495500  0.49815000  1
  Ni  Ni2  1  0.26772700  0.22504500  0.50185000  1
  Ni  Ni3  1  0.23227300  0.72504500  0.00185000  1
  P  P0  1  0.45927000  0.65537900  0.29798100  1
  P  P1  1  0.04073000  0.15537900  0.79798100  1
  P  P2  1  0.58471200  0.24102700  0.30083000  1
  P  P3  1  0.08471200  0.25897300  0.19917000  1
  P  P4  1  0.54073000  0.34462100  0.70201900  1
  P  P5  1  0.95927000  0.84462100  0.20201900  1
  P  P6  1  0.41528800  0.75897300  0.69917000  1
  P  P7  1  0.91528800  0.74102700  0.80083000  1
  O  O0  1  0.40799200  0.78595400  0.12967300  1
  O  O1  1  0.06008400  0.69270500  0.14777100  1
  O  O2  1  0.31160900  0.54854200  0.40198000  1
  O  O3  1  0.59768200  0.48485400  0.28933300  1
  O  O4  1  0.59200800  0.21404600  0.87032700  1
  O  O5  1  0.93991600  0.30729500  0.85222900  1
  O  O6  1  0.68839100  0.45145800  0.59802000  1
  O  O7  1  0.40231800  0.51514600  0.71066700  1
  O  O8  1  0.90799200  0.71404600  0.37032700  1
  O  O9  1  0.56008400  0.80729500  0.35222900  1
  O  O10  1  0.81160900  0.95145800  0.09802000  1
  O  O11  1  0.91785300  0.75030600  0.63246800  1
  O  O12  1  0.76500400  0.63271900  0.89843600  1
  O  O13  1  0.09768200  0.01514600  0.21066700  1
  O  O14  1  0.09157200  0.66134500  0.86374300  1
  O  O15  1  0.59157200  0.83865500  0.63625700  1
  O  O16  1  0.26500400  0.86728100  0.60156400  1
  O  O17  1  0.41785300  0.74969400  0.86753200  1
  O  O18  1  0.58214700  0.25030600  0.13246800  1
  O  O19  1  0.73499600  0.13271900  0.39843600  1
  O  O20  1  0.40842800  0.16134500  0.36374300  1
  O  O21  1  0.90842800  0.33865500  0.13625700  1
  O  O22  1  0.90231800  0.98485400  0.78933300  1
  O  O23  1  0.23499600  0.36728100  0.10156400  1
  O  O24  1  0.08214700  0.24969400  0.36753200  1
  O  O25  1  0.18839100  0.04854200  0.90198000  1
  O  O26  1  0.43991600  0.19270500  0.64777100  1
  O  O27  1  0.09200800  0.28595400  0.62967300  1
loop_
_geom_bond_atom_site_label_1
_geom_bond_atom_site_label_2
_geom_bond_distance
_geom_bond_site_symmetry_2
Li0 O16 2.046486 1_555
Li0 O11 2.083166 1_455
Li0 O2 2.213321 1_555
Li0 O8 2.224819 1_455
Li0 O27 2.435394 1_555
Li1 O23 2.046486 1_555
Li1 O18 2.083166 1_555
Li1 O25 2.213321 1_554
Li1 O4 2.224819 1_554
Li1 O0 2.435394 1_545
Li2 O12 2.046486 1_555
Li2 O17 2.083166 1_555
Li2 O10 2.213321 1_556
Li2 O0 2.224819 1_556
Li2 O4 2.435394 1_565
Li3 O19 2.046486 1_555
Li3 O24 2.083166 1_655
Li3 O6 2.213321 1_555
Li3 O27 2.224819 1_655
Li3 O8 2.435394 1_555
Ni0 O21 1.868058 1_556
Ni0 O5 1.881876 1_555
Ni0 O18 1.896898 1_556
Ni0 O4 1.968942 1_555
Ni0 O10 2.095122 1_546
Ni0 O12 2.280341 1_555
Ni1 O15 1.868058 1_555
Ni1 O9 1.881876 1_555
Ni1 O11 1.896898 1_555
Ni1 O8 1.968942 1_555
Ni1 O6 2.095122 1_555
Ni1 O19 2.280341 1_565
Ni2 O20 1.868058 1_555
Ni2 O26 1.881876 1_555
Ni2 O24 1.896898 1_555
Ni2 O27 1.968942 1_555
Ni2 O2 2.095122 1_555
Ni2 O16 2.280341 1_545
Ni3 O14 1.868058 1_554
Ni3 O1 1.881876 1_555
Ni3 O17 1.896898 1_554
Ni3 O0 1.968942 1_555
Ni3 O25 2.095122 1_564
Ni3 O23 2.280341 1_555
O0 P0 1.561076 1_555
O1 P5 1.528893 1_455
O2 P0 1.525683 1_555
O3 P0 1.617612 1_555
O3 P2 1.630643 1_555
O4 P4 1.561076 1_555
O5 P1 1.528893 1_655
O6 P4 1.525683 1_555
O7 P4 1.617612 1_555
O7 P6 1.630643 1_555
O8 P5 1.561076 1_555
O9 P0 1.528893 1_555
O10 P5 1.525683 1_555
O11 P7 1.554159 1_555
O12 P7 1.517460 1_555
O13 P5 1.617612 1_445
O13 P3 1.630643 1_555
O14 P7 1.531496 1_455
O15 P6 1.531496 1_555
O16 P6 1.517460 1_555
O17 P6 1.554159 1_555
O18 P2 1.554159 1_555
O19 P2 1.517460 1_555
O20 P2 1.531496 1_555
O21 P3 1.531496 1_655
O22 P1 1.617612 1_665
O22 P7 1.630643 1_555
O23 P3 1.517460 1_555
O24 P3 1.554159 1_555
O25 P1 1.525683 1_555
O26 P4 1.528893 1_555
O27 P1 1.561076 1_555
