# generated using pymatgen
data_PrCo2
_symmetry_space_group_name_H-M   'P 1'
_cell_length_a   5.18469784
_cell_length_b   5.18469784
_cell_length_c   5.18469784
_cell_angle_alpha   60.00000000
_cell_angle_beta   60.00000000
_cell_angle_gamma   60.00000000
_symmetry_Int_Tables_number   1
_chemical_formula_structural   PrCo2
_chemical_formula_sum   'Pr2 Co4'
_cell_volume   98.54971103
_cell_formula_units_Z   2
loop_
 _symmetry_equiv_pos_site_id
 _symmetry_equiv_pos_as_xyz
  1  'x, y, z'
loop_
 _atom_site_type_symbol
 _atom_site_label
 _atom_site_symmetry_multiplicity
 _atom_site_fract_x
 _atom_site_fract_y
 _atom_site_fract_z
 _atom_site_occupancy
  Pr  Pr0  1  0.75000000  0.75000000  0.75000000  1
  Pr  Pr1  1  0.00000000  0.00000000  0.00000000  1
  Co  Co0  1  0.87500000  0.37500000  0.37500000  1
  Co  Co1  1  0.37500000  0.87500000  0.37500000  1
  Co  Co2  1  0.37500000  0.37500000  0.87500000  1
  Co  Co3  1  0.37500000  0.37500000  0.37500000  1
loop_
_geom_bond_atom_site_label_1
_geom_bond_atom_site_label_2
_geom_bond_distance
_geom_bond_site_symmetry_2
Pr0 Pr1 3.174966 1_566
Pr0 Pr1 3.174966 1_666
Pr0 Pr1 3.174966 1_656
Pr0 Pr1 3.174966 1_665
Co0 Co3 2.592349 1_555
Co0 Co1 2.592349 1_645
Co0 Co2 2.592349 1_654
Co0 Co3 2.592349 1_655
Co0 Co1 2.592349 1_555
Co0 Co2 2.592349 1_555
Co0 Pr1 3.039799 1_655
Co0 Pr1 3.039799 1_665
Co0 Pr0 3.039799 1_555
Co0 Pr0 3.039799 1_554
Co0 Pr0 3.039799 1_545
Co0 Pr1 3.039799 1_656
Co1 Co3 2.592349 1_555
Co1 Co2 2.592349 1_564
Co1 Co3 2.592349 1_565
Co1 Co2 2.592349 1_555
Co1 Pr0 3.039799 1_455
Co1 Pr1 3.039799 1_665
Co1 Pr0 3.039799 1_555
Co1 Pr0 3.039799 1_554
Co1 Pr1 3.039799 1_565
Co1 Pr1 3.039799 1_566
Co2 Co3 2.592349 1_555
Co2 Co3 2.592349 1_556
Co2 Pr0 3.039799 1_455
Co2 Pr1 3.039799 1_656
Co2 Pr1 3.039799 1_566
Co2 Pr0 3.039799 1_555
Co2 Pr1 3.039799 1_556
Co2 Pr0 3.039799 1_545
Co3 Pr0 3.039799 1_455
Co3 Pr0 3.039799 1_554
Co3 Pr1 3.039799 1_556
Co3 Pr1 3.039799 1_655
Co3 Pr1 3.039799 1_565
Co3 Pr0 3.039799 1_545
