# generated using pymatgen
data_MgCo4NiO8
_symmetry_space_group_name_H-M   'P 1'
_cell_length_a   5.84608640
_cell_length_b   5.88902902
_cell_length_c   5.76301484
_cell_angle_alpha   91.29336025
_cell_angle_beta   62.24871037
_cell_angle_gamma   59.39514768
_symmetry_Int_Tables_number   1
_chemical_formula_structural   MgCo4NiO8
_chemical_formula_sum   'Mg1 Co4 Ni1 O8'
_cell_volume   142.07659460
_cell_formula_units_Z   1
loop_
 _symmetry_equiv_pos_site_id
 _symmetry_equiv_pos_as_xyz
  1  'x, y, z'
loop_
 _atom_site_type_symbol
 _atom_site_label
 _atom_site_symmetry_multiplicity
 _atom_site_fract_x
 _atom_site_fract_y
 _atom_site_fract_z
 _atom_site_occupancy
  Mg  Mg0  1  0.50000000  0.00000000  0.50000000  1
  Co  Co0  1  0.00000000  0.50000000  0.50000000  1
  Co  Co1  1  0.00000000  0.00000000  0.00000000  1
  Co  Co2  1  0.50000000  0.00000000  0.00000000  1
  Co  Co3  1  0.00000000  0.50000000  0.00000000  1
  Ni  Ni0  1  0.50000000  0.50000000  0.00000000  1
  O  O0  1  0.44917900  0.25379600  0.79944700  1
  O  O1  1  0.00161700  0.27281300  0.75416100  1
  O  O2  1  0.50587600  0.76362400  0.76096800  1
  O  O3  1  0.96079300  0.74947600  0.78411700  1
  O  O4  1  0.03920700  0.25052400  0.21588300  1
  O  O5  1  0.49412400  0.23637600  0.23903200  1
  O  O6  1  0.99838300  0.72718700  0.24583900  1
  O  O7  1  0.55082100  0.74620400  0.20055300  1
loop_
_geom_bond_atom_site_label_1
_geom_bond_atom_site_label_2
_geom_bond_distance
_geom_bond_site_symmetry_2
Mg0 O0 2.062565 1_555
Mg0 O7 2.062565 1_545
Mg0 O2 2.072378 1_545
Mg0 O5 2.072378 1_555
Mg0 O6 2.090160 1_545
Mg0 O1 2.090160 1_555
Co0 O6 2.005996 1_455
Co0 O1 2.005996 1_555
Co0 O3 2.022622 1_455
Co0 O4 2.022622 1_555
Co0 O5 2.073395 1_555
Co0 O2 2.073395 1_455
Co1 O4 2.074627 1_555
Co1 O3 2.074627 1_444
Co1 O2 2.123496 1_544
Co1 O5 2.123496 1_455
Co1 O1 2.166624 1_554
Co1 O6 2.166624 1_445
Co2 O0 1.898317 1_554
Co2 O7 1.898317 1_545
Co2 O5 1.912386 1_555
Co2 O2 1.912386 1_544
Co2 O4 1.931444 1_555
Co2 O3 1.931444 1_544
Co3 O7 1.885413 1_455
Co3 O0 1.885413 1_554
Co3 O6 1.920006 1_455
Co3 O1 1.920006 1_554
Co3 O3 1.940122 1_454
Co3 O4 1.940122 1_555
Ni0 O7 2.051609 1_555
Ni0 O0 2.051609 1_554
Ni0 O2 2.101383 1_554
Ni0 O5 2.101383 1_555
Ni0 O1 2.108828 1_654
Ni0 O6 2.108828 1_455
