# generated using pymatgen
data_Na9Nb4Zn2Si6(PO12)3
_symmetry_space_group_name_H-M   'P 1'
_cell_length_a   15.77329255
_cell_length_b   27.15514539
_cell_length_c   9.03662619
_cell_angle_alpha   89.92404863
_cell_angle_beta   125.01618247
_cell_angle_gamma   90.03671148
_symmetry_Int_Tables_number   1
_chemical_formula_structural   Na9Nb4Zn2Si6(PO12)3
_chemical_formula_sum   'Na36 Nb16 Zn8 Si24 P12 O144'
_cell_volume   3169.99828605
_cell_formula_units_Z   4
loop_
 _symmetry_equiv_pos_site_id
 _symmetry_equiv_pos_as_xyz
  1  'x, y, z'
loop_
 _atom_site_type_symbol
 _atom_site_label
 _atom_site_symmetry_multiplicity
 _atom_site_fract_x
 _atom_site_fract_y
 _atom_site_fract_z
 _atom_site_occupancy
  Na  Na0  1  0.25873758  0.24516135  0.03024850  1
  Na  Na1  1  0.25100517  0.59027983  0.02004739  1
  Na  Na2  1  0.26048141  0.91291767  0.02648767  1
  Na  Na3  1  0.75023089  0.25161040  0.50369091  1
  Na  Na4  1  0.74655463  0.58158265  0.50114217  1
  Na  Na5  1  0.75858774  0.91664448  0.52318050  1
  Na  Na6  1  0.75100517  0.09027983  0.02004739  1
  Na  Na7  1  0.76048141  0.41291767  0.02648767  1
  Na  Na8  1  0.75873758  0.74516135  0.03024850  1
  Na  Na9  1  0.24655463  0.08158265  0.50114217  1
  Na  Na10  1  0.25858774  0.41664448  0.52318050  1
  Na  Na11  1  0.25023089  0.75161040  0.50369091  1
  Na  Na12  1  0.48622469  0.02664744  0.71684407  1
  Na  Na13  1  0.49084161  0.36999785  0.74934829  1
  Na  Na14  1  0.48596697  0.69620641  0.72412810  1
  Na  Na15  1  0.49067806  0.29492448  0.25570926  1
  Na  Na16  1  0.49926553  0.62616952  0.26766407  1
  Na  Na17  1  0.50047850  0.95708534  0.27713437  1
  Na  Na18  1  0.98596697  0.19620641  0.72412810  1
  Na  Na19  1  0.98622469  0.52664744  0.71684407  1
  Na  Na20  1  0.99084161  0.86999785  0.74934829  1
  Na  Na21  1  0.99926553  0.12616952  0.26766407  1
  Na  Na22  1  0.00047850  0.45708534  0.27713437  1
  Na  Na23  1  0.99067806  0.79492448  0.25570926  1
  Na  Na24  1  0.81730335  0.98107819  0.21167051  1
  Na  Na25  1  0.20732518  0.30864680  0.29613056  1
  Na  Na26  1  0.19854439  0.97398659  0.27830482  1
  Na  Na27  1  0.20053178  0.35919132  0.78784713  1
  Na  Na28  1  0.81983379  0.01894197  0.71666217  1
  Na  Na29  1  0.81585417  0.69531670  0.68308199  1
  Na  Na30  1  0.31730335  0.48107819  0.21167051  1
  Na  Na31  1  0.69854439  0.47398659  0.27830482  1
  Na  Na32  1  0.70732518  0.80864680  0.29613056  1
  Na  Na33  1  0.70053178  0.85919132  0.78784713  1
  Na  Na34  1  0.31585417  0.19531670  0.68308199  1
  Na  Na35  1  0.31983379  0.51894197  0.71666217  1
  Nb  Nb0  1  0.10513885  0.24987673  0.57821133  1
  Nb  Nb1  1  0.10667151  0.58416041  0.56807442  1
  Nb  Nb2  1  0.10608662  0.91573438  0.56763940  1
  Nb  Nb3  1  0.89122043  0.24977417  0.93292697  1
  Nb  Nb4  1  0.89573703  0.58231352  0.94101650  1
  Nb  Nb5  1  0.10585400  0.08427219  0.06020654  1
  Nb  Nb6  1  0.10530959  0.41708333  0.06169006  1
  Nb  Nb7  1  0.10592709  0.75032263  0.06204860  1
  Nb  Nb8  1  0.60667151  0.08416041  0.56807442  1
  Nb  Nb9  1  0.60608662  0.41573438  0.56763940  1
  Nb  Nb10  1  0.60513885  0.74987673  0.57821133  1
  Nb  Nb11  1  0.39573703  0.08231352  0.94101650  1
  Nb  Nb12  1  0.39122043  0.74977417  0.93292697  1
  Nb  Nb13  1  0.60592709  0.25032263  0.06204860  1
  Nb  Nb14  1  0.60585400  0.58427219  0.06020654  1
  Nb  Nb15  1  0.60530959  0.91708333  0.06169006  1
  Zn  Zn0  1  0.89726962  0.91598300  0.94588664  1
  Zn  Zn1  1  0.89497155  0.08716462  0.43750473  1
  Zn  Zn2  1  0.90108792  0.41701306  0.45970996  1
  Zn  Zn3  1  0.89924848  0.74981866  0.44312483  1
  Zn  Zn4  1  0.39726962  0.41598300  0.94588664  1
  Zn  Zn5  1  0.39924848  0.24981866  0.44312483  1
  Zn  Zn6  1  0.39497155  0.58716462  0.43750473  1
  Zn  Zn7  1  0.40108792  0.91701306  0.45970996  1
  Si  Si0  1  0.99415055  0.32080152  0.74204204  1
  Si  Si1  1  0.49415055  0.82080152  0.74204204  1
  Si  Si2  1  0.35258439  0.29879097  0.75326214  1
  Si  Si3  1  0.35261055  0.63084531  0.75152244  1
  Si  Si4  1  0.35074020  0.96408473  0.74653889  1
  Si  Si5  1  0.64031119  0.29773757  0.73156460  1
  Si  Si6  1  0.64554389  0.63101130  0.73571863  1
  Si  Si7  1  0.64613191  0.96729524  0.73912850  1
  Si  Si8  1  0.64798256  0.03427614  0.24759920  1
  Si  Si9  1  0.64340794  0.70036131  0.24722070  1
  Si  Si10  1  0.35308686  0.03574437  0.25672644  1
  Si  Si11  1  0.34958408  0.36946594  0.24827308  1
  Si  Si12  1  0.35259307  0.70360364  0.25688831  1
  Si  Si13  1  0.85261055  0.13084531  0.75152244  1
  Si  Si14  1  0.85074020  0.46408473  0.74653889  1
  Si  Si15  1  0.85258439  0.79879097  0.75326214  1
  Si  Si16  1  0.14554389  0.13101130  0.73571863  1
  Si  Si17  1  0.14613191  0.46729524  0.73912850  1
  Si  Si18  1  0.14031119  0.79773757  0.73156460  1
  Si  Si19  1  0.14340794  0.20036131  0.24722070  1
  Si  Si20  1  0.14798256  0.53427614  0.24759920  1
  Si  Si21  1  0.85259307  0.20360364  0.25688831  1
  Si  Si22  1  0.85308686  0.53574437  0.25672644  1
  Si  Si23  1  0.84958408  0.86946594  0.24827308  1
  P  P0  1  0.00094956  0.65348695  0.74675321  1
  P  P1  1  0.00157696  0.98668793  0.74130955  1
  P  P2  1  0.00217827  0.01285047  0.24250931  1
  P  P3  1  0.00143181  0.34613557  0.24958126  1
  P  P4  1  0.00194753  0.68060198  0.24716622  1
  P  P5  1  0.50094956  0.15348695  0.74675321  1
  P  P6  1  0.50157696  0.48668793  0.74130955  1
  P  P7  1  0.50194753  0.18060198  0.24716622  1
  P  P8  1  0.50217827  0.51285047  0.24250931  1
  P  P9  1  0.50143181  0.84613557  0.24958126  1
  P  P10  1  0.64026113  0.36636649  0.23926938  1
  P  P11  1  0.14026113  0.86636649  0.23926938  1
  O  O0  1  0.15015187  0.19240579  0.74963378  1
  O  O1  1  0.14728204  0.52930300  0.74650366  1
  O  O2  1  0.14493353  0.85926500  0.73919724  1
  O  O3  1  0.84554526  0.19052969  0.77360836  1
  O  O4  1  0.84758105  0.52478354  0.77976037  1
  O  O5  1  0.84146062  0.85772408  0.75466110  1
  O  O6  1  0.84892421  0.14505265  0.24586908  1
  O  O7  1  0.84235103  0.47707589  0.24051381  1
  O  O8  1  0.84038626  0.81077756  0.25277394  1
  O  O9  1  0.14393909  0.13880058  0.24133185  1
  O  O10  1  0.14005005  0.47327260  0.24434302  1
  O  O11  1  0.14715145  0.80815655  0.24979886  1
  O  O12  1  0.64728204  0.02930300  0.74650366  1
  O  O13  1  0.64493353  0.35926500  0.73919724  1
  O  O14  1  0.65015187  0.69240579  0.74963378  1
  O  O15  1  0.34758105  0.02478354  0.77976037  1
  O  O16  1  0.34146062  0.35772408  0.75466110  1
  O  O17  1  0.34554526  0.69052969  0.77360836  1
  O  O18  1  0.34038626  0.31077756  0.25277394  1
  O  O19  1  0.34892421  0.64505265  0.24586908  1
  O  O20  1  0.34235103  0.97707589  0.24051381  1
  O  O21  1  0.64715145  0.30815655  0.24979886  1
  O  O22  1  0.64393909  0.63880058  0.24133185  1
  O  O23  1  0.64005005  0.97327260  0.24434302  1
  O  O24  1  0.42870882  0.18315929  0.57910079  1
  O  O25  1  0.43543532  0.51806726  0.57378207  1
  O  O26  1  0.42605250  0.85274983  0.56675538  1
  O  O27  1  0.56348856  0.18741833  0.91868369  1
  O  O28  1  0.56577718  0.52010576  0.91709877  1
  O  O29  1  0.56958318  0.85640848  0.92661618  1
  O  O30  1  0.56136647  0.14552378  0.41631214  1
  O  O31  1  0.56420719  0.47719949  0.41095393  1
  O  O32  1  0.56570148  0.81290088  0.42411530  1
  O  O33  1  0.44706411  0.14705204  0.07701626  1
  O  O34  1  0.44103629  0.48287845  0.06885149  1
  O  O35  1  0.45016266  0.81173995  0.08379379  1
  O  O36  1  0.93543532  0.01806726  0.57378207  1
  O  O37  1  0.92605250  0.35274983  0.56675538  1
  O  O38  1  0.92870882  0.68315929  0.57910079  1
  O  O39  1  0.06577718  0.02010576  0.91709877  1
  O  O40  1  0.06958318  0.35640848  0.92661618  1
  O  O41  1  0.06348856  0.68741833  0.91868369  1
  O  O42  1  0.06570148  0.31290088  0.42411530  1
  O  O43  1  0.06136647  0.64552378  0.41631214  1
  O  O44  1  0.06420719  0.97719949  0.41095393  1
  O  O45  1  0.95016266  0.31173995  0.08379379  1
  O  O46  1  0.94706411  0.64705204  0.07701626  1
  O  O47  1  0.94103629  0.98287845  0.06885149  1
  O  O48  1  0.25479224  0.27259088  0.74903660  1
  O  O49  1  0.25513272  0.60464198  0.74180059  1
  O  O50  1  0.25306273  0.93812784  0.73298035  1
  O  O51  1  0.74960224  0.27841367  0.76942984  1
  O  O52  1  0.75509685  0.61493238  0.76531011  1
  O  O53  1  0.74651587  0.94899513  0.75077330  1
  O  O54  1  0.74428017  0.05169185  0.24761197  1
  O  O55  1  0.73242224  0.39082988  0.25628536  1
  O  O56  1  0.73535126  0.72587903  0.25194997  1
  O  O57  1  0.25275223  0.05998948  0.24251508  1
  O  O58  1  0.25545896  0.39690097  0.25348875  1
  O  O59  1  0.25199887  0.72955345  0.23852825  1
  O  O60  1  0.75513272  0.10464198  0.74180059  1
  O  O61  1  0.75306273  0.43812784  0.73298035  1
  O  O62  1  0.75479224  0.77259088  0.74903660  1
  O  O63  1  0.25509685  0.11493238  0.76531011  1
  O  O64  1  0.24651587  0.44899513  0.75077330  1
  O  O65  1  0.24960224  0.77841367  0.76942984  1
  O  O66  1  0.23535126  0.22587903  0.25194997  1
  O  O67  1  0.24428017  0.55169185  0.24761197  1
  O  O68  1  0.23242224  0.89082988  0.25628536  1
  O  O69  1  0.75199887  0.22955345  0.23852825  1
  O  O70  1  0.75275223  0.55998948  0.24251508  1
  O  O71  1  0.75545896  0.89690097  0.25348875  1
  O  O72  1  0.34758548  0.28034746  0.58041910  1
  O  O73  1  0.35780255  0.62265681  0.58322578  1
  O  O74  1  0.34912371  0.96337251  0.56785533  1
  O  O75  1  0.63155619  0.28342473  0.90514946  1
  O  O76  1  0.63790280  0.61562813  0.90943637  1
  O  O77  1  0.64471708  0.95259167  0.92249197  1
  O  O78  1  0.64578305  0.04988238  0.42660710  1
  O  O79  1  0.63531088  0.38114619  0.40525583  1
  O  O80  1  0.64146623  0.71408814  0.42749009  1
  O  O81  1  0.35691680  0.05802275  0.08895966  1
  O  O82  1  0.33742979  0.38847776  0.06834657  1
  O  O83  1  0.35697537  0.72531884  0.09098380  1
  O  O84  1  0.85780255  0.12265681  0.58322578  1
  O  O85  1  0.84912371  0.46337251  0.56785533  1
  O  O86  1  0.84758548  0.78034746  0.58041910  1
  O  O87  1  0.13790280  0.11562813  0.90943637  1
  O  O88  1  0.14471708  0.45259167  0.92249197  1
  O  O89  1  0.13155619  0.78342473  0.90514946  1
  O  O90  1  0.14146623  0.21408814  0.42749009  1
  O  O91  1  0.14578305  0.54988238  0.42660710  1
  O  O92  1  0.13531088  0.88114619  0.40525583  1
  O  O93  1  0.85697537  0.22531884  0.09098380  1
  O  O94  1  0.85691680  0.55802275  0.08895966  1
  O  O95  1  0.83742979  0.88847776  0.06834657  1
  O  O96  1  0.46159262  0.27466857  0.93771888  1
  O  O97  1  0.46064580  0.60667412  0.93515535  1
  O  O98  1  0.46118255  0.94203074  0.92457922  1
  O  O99  1  0.54301831  0.27763300  0.54712363  1
  O  O100  1  0.54665551  0.61146665  0.55262796  1
  O  O101  1  0.54030013  0.94845535  0.56385942  1
  O  O102  1  0.53525839  0.05481222  0.07405308  1
  O  O103  1  0.53956117  0.38105351  0.06375592  1
  O  O104  1  0.52970196  0.71767689  0.07193011  1
  O  O105  1  0.46261601  0.05718974  0.43876536  1
  O  O106  1  0.46173153  0.39194048  0.42961251  1
  O  O107  1  0.46147139  0.72475503  0.44451152  1
  O  O108  1  0.96064580  0.10667412  0.93515535  1
  O  O109  1  0.96118255  0.44203074  0.92457922  1
  O  O110  1  0.96159262  0.77466857  0.93771888  1
  O  O111  1  0.04665551  0.11146665  0.55262796  1
  O  O112  1  0.04030013  0.44845535  0.56385942  1
  O  O113  1  0.04301831  0.77763300  0.54712363  1
  O  O114  1  0.02970196  0.21767689  0.07193011  1
  O  O115  1  0.03525839  0.55481222  0.07405308  1
  O  O116  1  0.03956117  0.88105351  0.06375592  1
  O  O117  1  0.96147139  0.22475503  0.44451152  1
  O  O118  1  0.96261601  0.55718974  0.43876536  1
  O  O119  1  0.96173153  0.89194048  0.42961251  1
  O  O120  1  0.08465322  0.28769337  0.74406673  1
  O  O121  1  0.08197565  0.62161474  0.74483013  1
  O  O122  1  0.08460474  0.95455708  0.73991009  1
  O  O123  1  0.92709380  0.27991772  0.76826387  1
  O  O124  1  0.93087024  0.61702449  0.76784562  1
  O  O125  1  0.93169167  0.95072594  0.75701539  1
  O  O126  1  0.92900332  0.04715751  0.25218086  1
  O  O127  1  0.92450429  0.38019845  0.24389373  1
  O  O128  1  0.92318282  0.71350026  0.24326602  1
  O  O129  1  0.08999257  0.04334080  0.25007631  1
  O  O130  1  0.08676577  0.37698818  0.25044243  1
  O  O131  1  0.08450947  0.71235166  0.24707339  1
  O  O132  1  0.58197565  0.12161474  0.74483013  1
  O  O133  1  0.58460474  0.45455708  0.73991009  1
  O  O134  1  0.58465322  0.78769337  0.74406673  1
  O  O135  1  0.43087024  0.11702449  0.76784562  1
  O  O136  1  0.43169167  0.45072594  0.75701539  1
  O  O137  1  0.42709380  0.77991772  0.76826387  1
  O  O138  1  0.42318282  0.21350026  0.24326602  1
  O  O139  1  0.42900332  0.54715751  0.25218086  1
  O  O140  1  0.42450429  0.88019845  0.24389373  1
  O  O141  1  0.58450947  0.21235166  0.24707339  1
  O  O142  1  0.58999257  0.54334080  0.25007631  1
  O  O143  1  0.58676577  0.87698818  0.25044243  1
loop_
_geom_bond_atom_site_label_1
_geom_bond_atom_site_label_2
_geom_bond_distance
_geom_bond_site_symmetry_2
Na0 O66 2.295447 1_555
Na0 O138 2.332607 1_555
Na0 O18 2.431386 1_555
Na0 O0 2.537381 1_554
Na0 O48 2.613420 1_554
Na0 O120 2.721864 1_554
Na1 O19 2.269382 1_555
Na1 O67 2.362751 1_555
Na1 O121 2.530893 1_554
Na1 O49 2.581443 1_554
Na1 O139 2.625464 1_555
Na1 O1 2.625838 1_554
Na2 O140 2.346880 1_555
Na2 O20 2.362919 1_555
Na2 O68 2.432897 1_555
Na2 O2 2.600173 1_554
Na2 O50 2.675115 1_554
Na2 O122 2.726267 1_554
Na3 O21 2.445028 1_555
Na3 O69 2.486303 1_555
Na3 O51 2.515645 1_555
Na3 O141 2.528523 1_555
Na3 O123 2.537185 1_555
Na3 O3 2.597100 1_555
Na4 O142 2.428449 1_555
Na4 O70 2.466048 1_555
Na4 O52 2.484634 1_555
Na4 O22 2.485692 1_555
Na4 O4 2.577967 1_555
Na4 O124 2.673666 1_555
Na5 O53 2.343570 1_555
Na5 O5 2.345239 1_555
Na5 O71 2.468756 1_555
Na5 O125 2.481429 1_555
Na5 O23 2.606990 1_555
Na5 O143 2.629995 1_555
Na6 O6 2.269382 1_555
Na6 O54 2.362751 1_555
Na6 O132 2.530893 1_554
Na6 O60 2.581443 1_554
Na6 O126 2.625464 1_555
Na6 O12 2.625838 1_554
Na7 O127 2.346880 1_555
Na7 O7 2.362919 1_555
Na7 O55 2.432897 1_555
Na7 O13 2.600173 1_554
Na7 O61 2.675115 1_554
Na7 O133 2.726267 1_554
Na8 O56 2.295447 1_555
Na8 O128 2.332607 1_555
Na8 O8 2.431386 1_555
Na8 O14 2.537381 1_554
Na8 O62 2.613420 1_554
Na8 O134 2.721864 1_554
Na9 O129 2.428449 1_555
Na9 O57 2.466048 1_555
Na9 O63 2.484634 1_555
Na9 O9 2.485692 1_555
Na9 O15 2.577967 1_555
Na9 O135 2.673666 1_555
Na10 O64 2.343570 1_555
Na10 O16 2.345239 1_555
Na10 O58 2.468756 1_555
Na10 O136 2.481429 1_555
Na10 O10 2.606990 1_555
Na10 O130 2.629995 1_555
Na11 O11 2.445028 1_555
Na11 O59 2.486303 1_555
Na11 O65 2.515645 1_555
Na11 O131 2.528523 1_555
Na11 O137 2.537185 1_555
Na11 O17 2.597100 1_555
Na12 O12 2.397731 1_555
Na12 O105 2.462142 1_555
Na12 O74 2.470145 1_545
Na12 O15 2.556338 1_555
Na12 O135 2.732291 1_555
Na12 O77 2.900393 1_545
Na12 O101 2.917284 1_545
Na12 O132 2.924698 1_555
Na12 O102 2.956950 1_556
Na13 O136 2.399613 1_555
Na13 O16 2.407069 1_555
Na13 O103 2.499862 1_556
Na13 O13 2.501543 1_555
Na13 O106 2.717976 1_555
Na13 O133 2.758094 1_555
Na13 O75 2.974394 1_555
Na14 O107 2.451477 1_555
Na14 O14 2.466938 1_555
Na14 O17 2.503092 1_555
Na14 O137 2.572736 1_555
Na14 O73 2.597034 1_555
Na14 O104 2.865332 1_556
Na14 O134 2.881286 1_555
Na14 O76 2.954119 1_555
Na15 O99 2.310645 1_555
Na15 O18 2.394759 1_555
Na15 O138 2.428009 1_555
Na15 O21 2.524594 1_555
Na15 O96 2.694685 1_554
Na15 O141 2.713236 1_555
Na16 O100 2.266713 1_555
Na16 O19 2.321736 1_555
Na16 O139 2.381418 1_555
Na16 O22 2.450232 1_555
Na16 O142 2.719984 1_555
Na16 O97 2.753750 1_554
Na17 O101 2.300813 1_555
Na17 O140 2.338991 1_555
Na17 O20 2.383109 1_555
Na17 O23 2.423780 1_555
Na17 O143 2.650164 1_555
Na17 O98 2.904866 1_554
Na18 O117 2.451477 1_555
Na18 O0 2.466938 1_655
Na18 O3 2.503092 1_555
Na18 O123 2.572736 1_555
Na18 O84 2.597034 1_555
Na18 O114 2.865332 1_656
Na18 O120 2.881286 1_655
Na18 O87 2.954119 1_655
Na19 O1 2.397731 1_655
Na19 O118 2.462142 1_555
Na19 O85 2.470145 1_555
Na19 O4 2.556338 1_555
Na19 O124 2.732291 1_555
Na19 O88 2.900393 1_655
Na19 O112 2.917284 1_655
Na19 O121 2.924698 1_655
Na19 O115 2.956950 1_656
Na20 O125 2.399613 1_555
Na20 O5 2.407069 1_555
Na20 O116 2.499862 1_656
Na20 O2 2.501543 1_655
Na20 O119 2.717976 1_555
Na20 O122 2.758094 1_655
Na20 O89 2.974394 1_655
Na21 O111 2.266713 1_655
Na21 O6 2.321736 1_555
Na21 O126 2.381418 1_555
Na21 O9 2.450232 1_655
Na21 O129 2.719984 1_655
Na21 O108 2.753750 1_554
Na22 O112 2.300813 1_555
Na22 O127 2.338991 1_455
Na22 O7 2.383109 1_455
Na22 O10 2.423780 1_555
Na22 O130 2.650164 1_555
Na22 O109 2.904866 1_454
Na23 O113 2.310645 1_655
Na23 O8 2.394759 1_555
Na23 O128 2.428009 1_555
Na23 O11 2.524594 1_655
Na23 O110 2.694685 1_554
Na23 O131 2.713236 1_655
Na24 O54 2.354330 1_565
Na24 O126 2.390725 1_565
Na24 O77 2.583917 1_554
Na24 O71 2.595645 1_555
Na25 O18 2.346346 1_555
Na25 O72 2.357815 1_555
Na25 O66 2.369090 1_555
Na25 O130 2.516379 1_555
Na25 O58 2.607557 1_555
Na26 O74 2.331852 1_555
Na26 O68 2.355645 1_555
Na26 O129 2.458717 1_565
Na26 O20 2.481437 1_555
Na26 O57 2.569566 1_565
Na27 O82 2.332812 1_556
Na27 O16 2.407911 1_555
Na27 O120 2.536634 1_555
Na27 O48 2.595187 1_555
Na27 O64 2.619105 1_555
Na28 O53 2.333441 1_545
Na28 O125 2.437508 1_545
Na28 O60 2.603741 1_555
Na28 O78 2.617660 1_555
Na28 O36 2.773891 1_555
Na28 O47 2.784682 1_546
Na28 O12 2.898803 1_555
Na29 O80 2.422466 1_555
Na29 O38 2.466122 1_555
Na29 O62 2.520082 1_555
Na29 O124 2.608425 1_555
Na29 O86 2.639789 1_555
Na29 O52 2.654362 1_555
Na30 O67 2.354330 1_555
Na30 O139 2.390725 1_555
Na30 O88 2.583917 1_554
Na30 O58 2.595645 1_555
Na31 O85 2.331852 1_555
Na31 O55 2.355645 1_555
Na31 O142 2.458717 1_555
Na31 O7 2.481437 1_555
Na31 O70 2.569566 1_555
Na32 O8 2.346346 1_555
Na32 O86 2.357815 1_555
Na32 O56 2.369090 1_555
Na32 O143 2.516379 1_555
Na32 O71 2.607557 1_555
Na33 O95 2.332812 1_556
Na33 O5 2.407911 1_555
Na33 O134 2.536634 1_555
Na33 O62 2.595187 1_555
Na33 O53 2.619105 1_555
Na34 O90 2.422466 1_555
Na34 O24 2.466122 1_555
Na34 O48 2.520082 1_555
Na34 O135 2.608425 1_555
Na34 O72 2.639789 1_555
Na34 O63 2.654362 1_555
Na35 O64 2.333441 1_555
Na35 O136 2.437508 1_555
Na35 O49 2.603741 1_555
Na35 O91 2.617660 1_555
Na35 O25 2.773891 1_555
Na35 O34 2.784682 1_556
Na35 O1 2.898803 1_555
Nb0 O117 1.979521 1_455
Nb0 O120 1.991375 1_555
Nb0 O90 2.006926 1_555
Nb0 O0 2.017952 1_555
Nb0 O48 2.038222 1_555
Nb0 O42 2.063004 1_555
Nb1 O91 1.946860 1_555
Nb1 O118 2.004474 1_455
Nb1 O1 2.009674 1_555
Nb1 O43 2.009698 1_555
Nb1 O49 2.009797 1_555
Nb1 O121 2.111002 1_555
Nb2 O119 1.974521 1_455
Nb2 O50 2.000539 1_555
Nb2 O92 2.007090 1_555
Nb2 O2 2.008745 1_555
Nb2 O44 2.036859 1_555
Nb2 O122 2.063939 1_555
Nb3 O93 1.911869 1_556
Nb3 O114 1.989850 1_656
Nb3 O51 1.997296 1_555
Nb3 O3 1.998578 1_555
Nb3 O45 2.025819 1_556
Nb3 O123 2.041270 1_555
Nb4 O94 1.879883 1_556
Nb4 O115 1.951823 1_656
Nb4 O4 1.968568 1_555
Nb4 O46 2.029383 1_556
Nb4 O52 2.045321 1_555
Nb4 O124 2.152916 1_555
Nb5 O87 1.903580 1_554
Nb5 O108 1.980575 1_454
Nb5 O9 2.027143 1_555
Nb5 O57 2.033728 1_555
Nb5 O39 2.043165 1_554
Nb5 O129 2.174661 1_555
Nb6 O40 1.933110 1_554
Nb6 O88 1.947228 1_554
Nb6 O109 1.982293 1_454
Nb6 O58 2.049835 1_555
Nb6 O10 2.078563 1_555
Nb6 O130 2.178899 1_555
Nb7 O89 1.906733 1_554
Nb7 O110 1.986696 1_454
Nb7 O59 1.988072 1_555
Nb7 O41 2.013337 1_554
Nb7 O11 2.123083 1_555
Nb7 O131 2.148511 1_555
Nb8 O78 1.946860 1_555
Nb8 O105 2.004474 1_555
Nb8 O12 2.009674 1_555
Nb8 O30 2.009698 1_555
Nb8 O60 2.009797 1_555
Nb8 O132 2.111002 1_555
Nb9 O106 1.974521 1_555
Nb9 O61 2.000539 1_555
Nb9 O79 2.007090 1_555
Nb9 O13 2.008745 1_555
Nb9 O31 2.036859 1_555
Nb9 O133 2.063939 1_555
Nb10 O107 1.979521 1_555
Nb10 O134 1.991375 1_555
Nb10 O80 2.006926 1_555
Nb10 O14 2.017952 1_555
Nb10 O62 2.038222 1_555
Nb10 O32 2.063004 1_555
Nb11 O81 1.879883 1_556
Nb11 O102 1.951823 1_556
Nb11 O15 1.968568 1_555
Nb11 O33 2.029383 1_556
Nb11 O63 2.045321 1_555
Nb11 O135 2.152916 1_555
Nb12 O83 1.911869 1_556
Nb12 O104 1.989850 1_556
Nb12 O65 1.997296 1_555
Nb12 O17 1.998578 1_555
Nb12 O35 2.025819 1_556
Nb12 O137 2.041270 1_555
Nb13 O75 1.906733 1_554
Nb13 O96 1.986696 1_554
Nb13 O69 1.988072 1_555
Nb13 O27 2.013337 1_554
Nb13 O21 2.123083 1_555
Nb13 O141 2.148511 1_555
Nb14 O76 1.903580 1_554
Nb14 O97 1.980575 1_554
Nb14 O22 2.027143 1_555
Nb14 O70 2.033728 1_555
Nb14 O28 2.043165 1_554
Nb14 O142 2.174661 1_555
Nb15 O29 1.933110 1_554
Nb15 O77 1.947228 1_554
Nb15 O98 1.982293 1_554
Nb15 O71 2.049835 1_555
Nb15 O23 2.078563 1_555
Nb15 O143 2.178899 1_555
O0 Si16 1.670474 1_555
O1 Si17 1.684911 1_555
O2 Si18 1.672118 1_555
O3 Si13 1.644889 1_555
O4 Si14 1.681677 1_555
O5 Si15 1.610895 1_555
O5 Zn0 2.126869 1_555
O6 Si21 1.592146 1_555
O6 Zn1 2.132673 1_555
O7 Si22 1.600023 1_555
O7 Zn2 2.308555 1_555
O8 Si23 1.602766 1_555
O8 Zn3 2.173168 1_555
O9 Si19 1.672787 1_555
O10 Si20 1.660226 1_555
O11 P11 1.583487 1_555
O12 Si7 1.684911 1_545
O13 Si5 1.672118 1_555
O14 Si6 1.670474 1_555
O15 Si4 1.681677 1_545
O16 Si2 1.610895 1_555
O16 Zn4 2.126869 1_555
O17 Si3 1.644889 1_555
O18 Si11 1.602766 1_555
O18 Zn5 2.173168 1_555
O19 Si12 1.592146 1_555
O19 Zn6 2.132673 1_555
O20 Si10 1.600023 1_565
O20 Zn7 2.308555 1_555
O21 P10 1.583487 1_555
O22 Si9 1.672787 1_555
O23 Si8 1.660226 1_565
O24 P5 1.503230 1_555
O24 Zn5 2.083824 1_555
O25 P6 1.513782 1_555
O25 Zn6 2.130257 1_555
O26 Si1 1.568581 1_555
O26 Zn7 1.922329 1_555
O27 P5 1.574722 1_555
O28 P6 1.590272 1_555
O29 Si1 1.690530 1_555
O30 P7 1.573324 1_555
O31 P8 1.581036 1_555
O32 P9 1.578680 1_555
O33 P7 1.555231 1_555
O34 P8 1.523384 1_555
O34 Zn4 2.033370 1_554
O35 P9 1.543763 1_555
O36 P1 1.513782 1_645
O36 Zn1 2.130257 1_555
O37 Si0 1.568581 1_555
O37 Zn2 1.922329 1_555
O38 P0 1.503230 1_655
O38 Zn3 2.083824 1_555
O39 P1 1.590272 1_545
O40 Si0 1.690530 1_455
O41 P0 1.574722 1_555
O42 P3 1.578680 1_555
O43 P4 1.573324 1_555
O44 P2 1.581036 1_565
O45 P3 1.543763 1_655
O46 P4 1.555231 1_655
O47 P2 1.523384 1_665
O47 Zn0 2.033370 1_554
O48 Si2 1.678700 1_555
O49 Si3 1.649795 1_555
O50 Si4 1.633336 1_555
O51 Si5 1.639495 1_555
O52 Si6 1.648798 1_555
O53 Si7 1.604615 1_555
O53 Zn0 2.180309 1_555
O54 Si8 1.590499 1_555
O54 Zn1 2.200633 1_555
O55 P10 1.523369 1_555
O55 Zn2 2.313251 1_555
O56 Si9 1.585205 1_555
O56 Zn3 2.228409 1_555
O57 Si10 1.649991 1_555
O58 Si11 1.686206 1_555
O59 Si12 1.655512 1_555
O60 Si13 1.649795 1_555
O61 Si14 1.633336 1_555
O62 Si15 1.678700 1_555
O63 Si16 1.648798 1_555
O64 Si17 1.604615 1_555
O64 Zn4 2.180309 1_555
O65 Si18 1.639495 1_555
O66 Si19 1.585205 1_555
O66 Zn5 2.228409 1_555
O67 Si20 1.590499 1_555
O67 Zn6 2.200633 1_555
O68 P11 1.523369 1_555
O68 Zn7 2.313251 1_555
O69 Si21 1.655512 1_555
O70 Si22 1.649991 1_555
O71 Si23 1.686206 1_555
O72 Si2 1.599165 1_555
O72 Zn5 2.013568 1_555
O73 Si3 1.585226 1_555
O73 Zn6 1.974015 1_555
O74 Si4 1.600345 1_555
O74 Zn7 2.033603 1_555
O75 Si5 1.696354 1_555
O76 Si6 1.693723 1_555
O77 Si7 1.716449 1_555
O78 Si8 1.692265 1_555
O79 P10 1.597840 1_555
O80 Si9 1.688933 1_555
O81 Si10 1.664531 1_555
O82 Si11 1.608449 1_555
O82 Zn4 1.966974 1_554
O83 Si12 1.648237 1_555
O84 Si13 1.585226 1_555
O84 Zn1 1.974015 1_555
O85 Si14 1.600345 1_555
O85 Zn2 2.033603 1_555
O86 Si15 1.599165 1_555
O86 Zn3 2.013568 1_555
O87 Si16 1.693723 1_555
O88 Si17 1.716449 1_555
O89 Si18 1.696354 1_555
O90 Si19 1.688933 1_555
O91 Si20 1.692265 1_555
O92 P11 1.597840 1_555
O93 Si21 1.648237 1_555
O94 Si22 1.664531 1_555
O95 Si23 1.608449 1_555
O95 Zn0 1.966974 1_554
O96 Si2 1.695101 1_555
O97 Si3 1.685738 1_555
O98 Si4 1.662583 1_555
O99 Si5 1.580213 1_555
O99 Zn5 2.037194 1_555
O100 Si6 1.578507 1_555
O100 Zn6 2.094144 1_555
O101 Si7 1.588628 1_555
O101 Zn7 2.016063 1_555
O102 Si8 1.652500 1_555
O103 P10 1.518407 1_555
O103 Zn4 2.080412 1_554
O104 Si9 1.638812 1_555
O105 Si10 1.664235 1_555
O106 Si11 1.691609 1_555
O107 Si12 1.677391 1_555
O108 Si13 1.685738 1_555
O109 Si14 1.662583 1_555
O110 Si15 1.695101 1_555
O111 Si16 1.578507 1_555
O111 Zn1 2.094144 1_455
O112 Si17 1.588628 1_555
O112 Zn2 2.016063 1_455
O113 Si18 1.580213 1_555
O113 Zn3 2.037194 1_455
O114 Si19 1.638812 1_555
O115 Si20 1.652500 1_555
O116 P11 1.518407 1_555
O116 Zn0 2.080412 1_454
O117 Si21 1.677391 1_555
O118 Si22 1.664235 1_555
O119 Si23 1.691609 1_555
O120 Si0 1.678718 1_455
O121 P0 1.552332 1_555
O122 P1 1.580208 1_555
O123 Si0 1.640997 1_555
O124 P0 1.574316 1_655
O125 P1 1.538411 1_655
O125 Zn0 2.270786 1_555
O126 P2 1.524828 1_655
O126 Zn1 2.304404 1_555
O127 P3 1.503435 1_655
O127 Zn2 2.402419 1_555
O128 P4 1.514570 1_655
O128 Zn3 2.272590 1_555
O129 P2 1.580744 1_555
O130 P3 1.581215 1_555
O131 P4 1.561750 1_555
O132 P5 1.552332 1_555
O133 P6 1.580208 1_555
O134 Si1 1.678718 1_555
O135 P5 1.574316 1_555
O136 P6 1.538411 1_555
O136 Zn4 2.270786 1_555
O137 Si1 1.640997 1_555
O138 P7 1.514570 1_555
O138 Zn5 2.272590 1_555
O139 P8 1.524828 1_555
O139 Zn6 2.304404 1_555
O140 P9 1.503435 1_555
O140 Zn7 2.402419 1_555
O141 P7 1.561750 1_555
O142 P8 1.580744 1_555
O143 P9 1.581215 1_555
