# generated using pymatgen
data_Nd(Cu2P)2
_symmetry_space_group_name_H-M   'P 1'
_cell_length_a   3.86133202
_cell_length_b   10.95811599
_cell_length_c   14.56931029
_cell_angle_alpha   90.00000000
_cell_angle_beta   90.00000000
_cell_angle_gamma   90.00000000
_symmetry_Int_Tables_number   1
_chemical_formula_structural   Nd(Cu2P)2
_chemical_formula_sum   'Nd6 Cu24 P12'
_cell_volume   616.47012123
_cell_formula_units_Z   6
loop_
 _symmetry_equiv_pos_site_id
 _symmetry_equiv_pos_as_xyz
  1  'x, y, z'
loop_
 _atom_site_type_symbol
 _atom_site_label
 _atom_site_symmetry_multiplicity
 _atom_site_fract_x
 _atom_site_fract_y
 _atom_site_fract_z
 _atom_site_occupancy
  Nd  Nd0  1  0.50000000  0.37720157  0.22598925  1
  Nd  Nd1  1  0.50000000  0.62279843  0.77401075  1
  Nd  Nd2  1  -0.00000000  0.87720157  0.27401075  1
  Nd  Nd3  1  -0.00000000  0.12279843  0.72598925  1
  Nd  Nd4  1  0.50000000  0.50000000  0.50000000  1
  Nd  Nd5  1  -0.00000000  0.00000000  -0.00000000  1
  Cu  Cu0  1  -0.00000000  0.06811607  0.43637594  1
  Cu  Cu1  1  0.50000000  0.56811607  0.06362406  1
  Cu  Cu2  1  -0.00000000  0.59952697  0.94761911  1
  Cu  Cu3  1  -0.00000000  0.40047303  0.05238089  1
  Cu  Cu4  1  0.50000000  0.09952697  0.55238089  1
  Cu  Cu5  1  0.50000000  0.43188393  0.93637594  1
  Cu  Cu6  1  -0.00000000  0.26423319  0.53518715  1
  Cu  Cu7  1  0.00000000  0.73576681  0.46481285  1
  Cu  Cu8  1  0.50000000  0.76423319  0.96481285  1
  Cu  Cu9  1  0.50000000  0.23576681  0.03518715  1
  Cu  Cu10  1  -0.00000000  0.42555143  0.66839735  1
  Cu  Cu11  1  -0.00000000  0.57444857  0.33160265  1
  Cu  Cu12  1  0.50000000  0.92555143  0.83160265  1
  Cu  Cu13  1  0.50000000  0.07444857  0.16839735  1
  Cu  Cu14  1  -0.00000000  0.82938689  0.71557237  1
  Cu  Cu15  1  0.00000000  0.17061311  0.28442763  1
  Cu  Cu16  1  0.50000000  0.32938689  0.78442763  1
  Cu  Cu17  1  0.50000000  0.67061311  0.21557237  1
  Cu  Cu18  1  0.50000000  0.24188772  0.41109900  1
  Cu  Cu19  1  0.50000000  0.75811228  0.58890100  1
  Cu  Cu20  1  -0.00000000  0.74188772  0.08890100  1
  Cu  Cu21  1  -0.00000000  0.25811228  0.91109900  1
  Cu  Cu22  1  0.50000000  0.90047303  0.44761911  1
  Cu  Cu23  1  -0.00000000  0.93188393  0.56362406  1
  P  P0  1  0.50000000  0.86520004  0.11436572  1
  P  P1  1  0.50000000  0.13479996  0.88563428  1
  P  P2  1  0.00000000  0.36520004  0.38563428  1
  P  P3  1  0.00000000  0.63479996  0.61436572  1
  P  P4  1  0.50000000  0.70658628  0.37135653  1
  P  P5  1  0.50000000  0.29341372  0.62864347  1
  P  P6  1  0.50000000  0.05911242  0.33553707  1
  P  P7  1  0.50000000  0.94088758  0.66446293  1
  P  P8  1  0.00000000  0.55911242  0.16446293  1
  P  P9  1  -0.00000000  0.44088758  0.83553707  1
  P  P10  1  0.00000000  0.20658628  0.12864347  1
  P  P11  1  -0.00000000  0.79341372  0.87135653  1
loop_
_geom_bond_atom_site_label_1
_geom_bond_atom_site_label_2
_geom_bond_distance
_geom_bond_site_symmetry_2
Nd0 P8 2.916272 1_555
Nd0 P8 2.916272 1_655
Nd0 P2 3.025667 1_555
Nd0 P2 3.025667 1_655
Nd0 P10 3.038819 1_555
Nd0 P10 3.038819 1_655
Nd1 P9 2.916272 1_555
Nd1 P9 2.916272 1_655
Nd1 P3 3.025667 1_555
Nd1 P3 3.025667 1_655
Nd1 P11 3.038819 1_655
Nd1 P11 3.038819 1_555
Nd2 P6 2.916272 1_565
Nd2 P6 2.916272 1_465
Nd2 P0 3.025667 1_555
Nd2 P0 3.025667 1_455
Nd2 P4 3.038819 1_455
Nd2 P4 3.038819 1_555
Nd3 P7 2.916272 1_445
Nd3 P7 2.916272 1_545
Nd3 P1 3.025667 1_555
Nd3 P1 3.025667 1_455
Nd3 P5 3.038819 1_555
Nd3 P5 3.038819 1_455
Nd4 P4 2.938975 1_555
Nd4 P5 2.938975 1_555
Nd4 P3 2.947164 1_655
Nd4 P2 2.947164 1_655
Nd4 P2 2.947164 1_555
Nd4 P3 2.947164 1_555
Nd5 P11 2.938975 1_544
Nd5 P10 2.938975 1_555
Nd5 P0 2.947164 1_545
Nd5 P0 2.947164 1_445
Nd5 P1 2.947164 1_554
Nd5 P1 2.947164 1_454
Cu0 Cu23 2.380253 1_545
Cu0 P6 2.428089 1_555
Cu0 P6 2.428089 1_455
Cu0 Cu15 2.482408 1_555
Cu0 Cu6 2.586697 1_555
Cu0 Cu4 2.588905 1_555
Cu0 Cu4 2.588905 1_455
Cu0 Cu22 2.670031 1_545
Cu0 Cu22 2.670031 1_445
Cu0 Cu18 2.736623 1_455
Cu0 Cu18 2.736623 1_555
Cu0 Nd2 3.157934 1_545
Cu1 Cu5 2.380253 1_554
Cu1 P8 2.428089 1_555
Cu1 P8 2.428089 1_655
Cu1 Cu17 2.482408 1_555
Cu1 Cu8 2.586697 1_554
Cu1 Cu2 2.588905 1_654
Cu1 Cu2 2.588905 1_554
Cu1 Cu3 2.670031 1_555
Cu1 Cu3 2.670031 1_655
Cu1 Cu20 2.736623 1_655
Cu1 Cu20 2.736623 1_555
Cu1 Nd0 3.157934 1_555
Cu2 P9 2.385068 1_555
Cu2 P11 2.397623 1_555
Cu2 Cu5 2.670031 1_555
Cu2 Cu5 2.670031 1_455
Cu2 Nd1 3.192199 1_555
Cu2 Nd1 3.192199 1_455
Cu3 P8 2.385068 1_555
Cu3 P10 2.397623 1_555
Cu3 Cu5 2.588905 1_454
Cu3 Cu5 2.588905 1_554
Cu3 Nd0 3.192199 1_455
Cu3 Nd0 3.192199 1_555
Cu4 P7 2.385068 1_545
Cu4 P5 2.397623 1_555
Cu4 Nd3 3.192199 1_655
Cu4 Nd3 3.192199 1_555
Cu5 P9 2.428089 1_555
Cu5 P9 2.428089 1_655
Cu5 Cu9 2.586697 1_556
Cu5 Nd1 3.157934 1_555
Cu6 P5 2.384042 1_455
Cu6 P5 2.384042 1_555
Cu6 P2 2.443699 1_555
Cu6 Nd3 3.182712 1_555
Cu6 Nd4 3.265741 1_555
Cu6 Nd4 3.265741 1_455
Cu7 P4 2.384042 1_555
Cu7 P4 2.384042 1_455
Cu7 P3 2.443699 1_555
Cu7 Nd2 3.182712 1_555
Cu7 Nd4 3.265741 1_555
Cu7 Nd4 3.265741 1_455
Cu8 P11 2.384042 1_555
Cu8 P11 2.384042 1_655
Cu8 P0 2.443699 1_556
Cu8 Nd1 3.182712 1_555
Cu8 Nd5 3.265741 1_666
Cu8 Nd5 3.265741 1_566
Cu9 P10 2.384042 1_555
Cu9 P10 2.384042 1_655
Cu9 P1 2.443699 1_554
Cu9 Nd0 3.182712 1_555
Cu9 Nd5 3.265741 1_555
Cu9 Nd5 3.265741 1_655
Cu10 P3 2.424335 1_555
Cu10 P9 2.440903 1_555
Cu10 P5 2.481849 1_555
Cu10 P5 2.481849 1_455
Cu10 Nd4 3.226819 1_555
Cu10 Nd4 3.226819 1_455
Cu10 Nd1 3.281311 1_555
Cu10 Nd1 3.281311 1_455
Cu10 Nd3 3.422065 1_555
Cu11 P2 2.424335 1_555
Cu11 P8 2.440903 1_555
Cu11 P4 2.481849 1_555
Cu11 P4 2.481849 1_455
Cu11 Nd4 3.226819 1_555
Cu11 Nd4 3.226819 1_455
Cu11 Nd0 3.281311 1_455
Cu11 Nd0 3.281311 1_555
Cu11 Nd2 3.422065 1_555
Cu12 P1 2.424335 1_565
Cu12 P7 2.440903 1_555
Cu12 P11 2.481849 1_555
Cu12 P11 2.481849 1_655
Cu12 Nd5 3.226819 1_666
Cu12 Nd5 3.226819 1_566
Cu12 Nd3 3.281311 1_665
Cu12 Nd3 3.281311 1_565
Cu12 Nd1 3.422065 1_555
Cu13 P0 2.424335 1_545
Cu13 P6 2.440903 1_555
Cu13 P10 2.481849 1_655
Cu13 P10 2.481849 1_555
Cu13 Nd5 3.226819 1_555
Cu13 Nd5 3.226819 1_655
Cu13 Nd2 3.281311 1_545
Cu13 Nd2 3.281311 1_645
Cu13 Nd0 3.422065 1_555
Cu14 P11 2.303646 1_555
Cu14 P7 2.403088 1_455
Cu14 P7 2.403088 1_555
Cu14 Cu23 2.482408 1_555
Cu14 P3 2.592472 1_555
Cu14 Nd1 3.094713 1_555
Cu14 Nd1 3.094713 1_455
Cu14 Nd3 3.218818 1_565
Cu15 P10 2.303646 1_555
Cu15 P6 2.403088 1_455
Cu15 P6 2.403088 1_555
Cu15 P2 2.592472 1_555
Cu15 Nd0 3.094713 1_455
Cu15 Nd0 3.094713 1_555
Cu15 Nd2 3.218818 1_545
Cu16 P5 2.303646 1_555
Cu16 P9 2.403088 1_655
Cu16 P9 2.403088 1_555
Cu16 Cu5 2.482408 1_555
Cu16 P1 2.592472 1_555
Cu16 Nd3 3.094713 1_555
Cu16 Nd3 3.094713 1_655
Cu16 Nd1 3.218818 1_555
Cu17 P4 2.303646 1_555
Cu17 P8 2.403088 1_555
Cu17 P8 2.403088 1_655
Cu17 P0 2.592472 1_555
Cu17 Nd2 3.094713 1_555
Cu17 Nd2 3.094713 1_655
Cu17 Nd0 3.218818 1_555
Cu18 P6 2.285486 1_555
Cu18 P2 2.385592 1_655
Cu18 P2 2.385592 1_555
Cu18 Nd0 3.077667 1_555
Cu18 Nd4 3.110883 1_555
Cu19 P7 2.285486 1_555
Cu19 P3 2.385592 1_555
Cu19 P3 2.385592 1_655
Cu19 Cu23 2.736623 1_655
Cu19 Cu23 2.736623 1_555
Cu19 Nd1 3.077667 1_555
Cu19 Nd4 3.110883 1_555
Cu20 P8 2.285486 1_555
Cu20 P0 2.385592 1_455
Cu20 P0 2.385592 1_555
Cu20 Nd2 3.077667 1_555
Cu20 Nd5 3.110883 1_565
Cu21 P9 2.285486 1_555
Cu21 P1 2.385592 1_555
Cu21 P1 2.385592 1_455
Cu21 Cu5 2.736623 1_555
Cu21 Cu5 2.736623 1_455
Cu21 Nd3 3.077667 1_555
Cu21 Nd5 3.110883 1_556
Cu22 P6 2.385068 1_565
Cu22 P4 2.397623 1_555
Cu22 Cu23 2.588905 1_655
Cu22 Cu23 2.588905 1_555
Cu22 Nd2 3.192199 1_555
Cu22 Nd2 3.192199 1_655
Cu23 P7 2.428089 1_455
Cu23 P7 2.428089 1_555
Cu23 Cu7 2.586697 1_555
Cu23 Cu4 2.670031 1_565
Cu23 Cu4 2.670031 1_465
Cu23 Nd3 3.157934 1_565
