# generated using pymatgen
data_BaPrMgMn2O5
_symmetry_space_group_name_H-M   'P 1'
_cell_length_a   4.04673984
_cell_length_b   4.04673388
_cell_length_c   11.24391446
_cell_angle_alpha   90.00000000
_cell_angle_beta   90.00000000
_cell_angle_gamma   90.00000000
_symmetry_Int_Tables_number   1
_chemical_formula_structural   BaPrMgMn2O5
_chemical_formula_sum   'Ba1 Pr1 Mg1 Mn2 O5'
_cell_volume   184.13123387
_cell_formula_units_Z   1
loop_
 _symmetry_equiv_pos_site_id
 _symmetry_equiv_pos_as_xyz
  1  'x, y, z'
loop_
 _atom_site_type_symbol
 _atom_site_label
 _atom_site_symmetry_multiplicity
 _atom_site_fract_x
 _atom_site_fract_y
 _atom_site_fract_z
 _atom_site_occupancy
  Ba  Ba0  1  -0.00000000  0.00000000  0.57205396  1
  Pr  Pr0  1  -0.00000000  0.00000000  0.94116852  1
  Mg  Mg0  1  -0.00000000  0.00000000  0.21668118  1
  Mn  Mn0  1  0.50000000  0.50000000  0.77070949  1
  Mn  Mn1  1  0.50000000  0.50000000  0.18230629  1
  O  O0  1  0.50000000  0.00000000  0.14787596  1
  O  O1  1  -0.00000000  0.50000000  0.84065923  1
  O  O2  1  0.50000000  0.00000000  0.84065723  1
  O  O3  1  -0.00000000  0.50000000  0.14787796  1
  O  O4  1  0.50000000  0.50000000  0.59000819  1
loop_
_geom_bond_atom_site_label_1
_geom_bond_atom_site_label_2
_geom_bond_distance
_geom_bond_site_symmetry_2
Ba0 O4 2.868587 1_545
Ba0 O4 2.868587 1_555
Ba0 O4 2.868587 1_455
Ba0 O4 2.868587 1_445
Mg0 O3 2.166217 1_555
Mg0 O3 2.166217 1_545
Mg0 O0 2.166228 1_555
Mg0 O0 2.166228 1_455
Mn0 O4 2.031790 1_555
Mn0 O2 2.170847 1_555
Mn0 O2 2.170847 1_565
Mn0 O1 2.170857 1_655
Mn0 O1 2.170857 1_555
Mn1 O3 2.060068 1_555
Mn1 O3 2.060068 1_655
Mn1 O0 2.060069 1_565
Mn1 O0 2.060069 1_555
O1 Pr0 2.317581 1_555
O1 Pr0 2.317581 1_565
O2 Pr0 2.317594 1_555
O2 Pr0 2.317594 1_655
