# generated using pymatgen
data_Li3Fe3(PO4)4
_symmetry_space_group_name_H-M   'P 1'
_cell_length_a   10.10666923
_cell_length_b   10.10666923
_cell_length_c   10.61628770
_cell_angle_alpha   88.95794134
_cell_angle_beta   88.95794134
_cell_angle_gamma   36.94197969
_symmetry_Int_Tables_number   1
_chemical_formula_structural   Li3Fe3(PO4)4
_chemical_formula_sum   'Li6 Fe6 P8 O32'
_cell_volume   651.60998296
_cell_formula_units_Z   2
loop_
 _symmetry_equiv_pos_site_id
 _symmetry_equiv_pos_as_xyz
  1  'x, y, z'
loop_
 _atom_site_type_symbol
 _atom_site_label
 _atom_site_symmetry_multiplicity
 _atom_site_fract_x
 _atom_site_fract_y
 _atom_site_fract_z
 _atom_site_occupancy
  Li  Li0  1  0.58854800  0.41145200  0.75000000  1
  Li  Li1  1  0.21049300  0.93089100  0.53344600  1
  Li  Li2  1  0.41145200  0.58854800  0.25000000  1
  Li  Li3  1  0.93089100  0.21049300  0.03344600  1
  Li  Li4  1  0.78950700  0.06910900  0.46655400  1
  Li  Li5  1  0.06910900  0.78950700  0.96655400  1
  Fe  Fe0  1  0.67588200  0.63020600  0.25099200  1
  Fe  Fe1  1  0.63020600  0.67588200  0.75099200  1
  Fe  Fe2  1  0.00000000  0.50000000  0.50000000  1
  Fe  Fe3  1  0.32411800  0.36979400  0.74900800  1
  Fe  Fe4  1  0.36979400  0.32411800  0.24900800  1
  Fe  Fe5  1  0.50000000  0.00000000  0.00000000  1
  P  P0  1  0.22011500  0.17916600  0.25619000  1
  P  P1  1  0.74443200  0.41711600  0.50784400  1
  P  P2  1  0.82083400  0.77988500  0.24381000  1
  P  P3  1  0.25556800  0.58288400  0.49215600  1
  P  P4  1  0.41711600  0.74443200  0.00784400  1
  P  P5  1  0.77988500  0.82083400  0.74381000  1
  P  P6  1  0.58288400  0.25556800  0.99215600  1
  P  P7  1  0.17916600  0.22011500  0.75619000  1
  O  O0  1  0.98835400  0.31822200  0.22243800  1
  O  O1  1  0.05333300  0.65087500  0.49394800  1
  O  O2  1  0.78285700  0.17971300  0.95965300  1
  O  O3  1  0.36584500  0.94339100  0.28560300  1
  O  O4  1  0.59703900  0.57567600  0.11239000  1
  O  O5  1  0.65087500  0.05333300  0.99394800  1
  O  O6  1  0.79684200  0.69101600  0.35417800  1
  O  O7  1  0.42432400  0.40296100  0.38761000  1
  O  O8  1  0.30898400  0.20315800  0.14582200  1
  O  O9  1  0.63415500  0.05660900  0.71439700  1
  O  O10  1  0.23353100  0.27369800  0.36439700  1
  O  O11  1  0.17971300  0.78285700  0.45965300  1
  O  O12  1  0.72630200  0.76646900  0.13560300  1
  O  O13  1  0.34912500  0.94666700  0.00605200  1
  O  O14  1  0.05660900  0.63415500  0.21439700  1
  O  O15  1  0.21714300  0.82028700  0.04034700  1
  O  O16  1  0.57567600  0.59703900  0.61239000  1
  O  O17  1  0.01164600  0.68177700  0.77756200  1
  O  O18  1  0.82028700  0.21714300  0.54034700  1
  O  O19  1  0.37627400  0.47187000  0.62177500  1
  O  O20  1  0.94339100  0.36584500  0.78560300  1
  O  O21  1  0.27369800  0.23353100  0.86439700  1
  O  O22  1  0.47187000  0.37627400  0.12177500  1
  O  O23  1  0.76646900  0.72630200  0.63560300  1
  O  O24  1  0.31822200  0.98835400  0.72243800  1
  O  O25  1  0.52813000  0.62372600  0.87822500  1
  O  O26  1  0.69101600  0.79684200  0.85417800  1
  O  O27  1  0.62372600  0.52813000  0.37822500  1
  O  O28  1  0.94666700  0.34912500  0.50605200  1
  O  O29  1  0.68177700  0.01164600  0.27756200  1
  O  O30  1  0.20315800  0.30898400  0.64582200  1
  O  O31  1  0.40296100  0.42432400  0.88761000  1
loop_
_geom_bond_atom_site_label_1
_geom_bond_atom_site_label_2
_geom_bond_distance
_geom_bond_site_symmetry_2
Li0 O25 2.193292 1_555
Li0 O19 2.193292 1_555
Li0 O16 2.277388 1_555
Li0 O31 2.277388 1_555
Li1 O11 1.935039 1_555
Li1 O18 2.384815 1_465
Li1 O16 2.410894 1_555
Li1 O24 2.584751 1_555
Li1 O28 2.651173 1_465
Li2 O22 2.193292 1_555
Li2 O27 2.193292 1_555
Li2 O4 2.277388 1_555
Li2 O7 2.277388 1_555
Li3 O2 1.935039 1_554
Li3 O15 2.384815 1_645
Li3 O4 2.410894 1_555
Li3 O0 2.584751 1_555
Li3 O13 2.651173 1_645
Li4 O18 1.935039 1_555
Li4 O11 2.384815 1_645
Li4 O7 2.410894 1_555
Li4 O29 2.584757 1_555
Li4 O1 2.651173 1_645
Li5 O15 1.935039 1_556
Li5 O2 2.384815 1_465
Li5 O31 2.410894 1_555
Li5 O17 2.584757 1_555
Li5 O5 2.651173 1_465
Fe0 O4 1.969248 1_555
Fe0 O27 1.989811 1_555
Fe0 O0 2.022373 1_555
Fe0 O3 2.029457 1_555
Fe0 O6 2.084812 1_555
Fe0 O12 2.166702 1_555
Fe1 O16 1.969248 1_555
Fe1 O25 1.989811 1_555
Fe1 O24 2.022373 1_555
Fe1 O20 2.029457 1_555
Fe1 O26 2.084812 1_555
Fe1 O23 2.166702 1_555
Fe2 O1 1.982126 1_555
Fe2 O28 1.982126 1_455
Fe2 O30 2.002520 1_555
Fe2 O6 2.002520 1_455
Fe2 O23 2.059466 1_455
Fe2 O10 2.059466 1_555
Fe3 O31 1.969248 1_555
Fe3 O19 1.989811 1_555
Fe3 O17 2.022370 1_555
Fe3 O9 2.029457 1_555
Fe3 O30 2.084812 1_555
Fe3 O21 2.166702 1_555
Fe4 O7 1.969248 1_555
Fe4 O22 1.989811 1_555
Fe4 O29 2.022370 1_555
Fe4 O14 2.029457 1_555
Fe4 O8 2.084812 1_555
Fe4 O10 2.166702 1_555
Fe5 O5 1.982126 1_554
Fe5 O13 1.982126 1_545
Fe5 O8 2.002520 1_555
Fe5 O26 2.002520 1_544
Fe5 O12 2.059466 1_545
Fe5 O21 2.059466 1_554
O0 P0 1.529769 1_655
O1 P3 1.550531 1_555
O2 P6 1.516247 1_555
O3 P0 1.524640 1_565
O4 P4 1.579370 1_555
O5 P6 1.550531 1_555
O6 P2 1.593079 1_555
O7 P3 1.579370 1_555
O8 P0 1.593079 1_555
O9 P5 1.524640 1_545
O10 P0 1.582240 1_555
O11 P3 1.516247 1_555
O12 P2 1.582240 1_555
O13 P4 1.550531 1_555
O14 P2 1.524640 1_455
O15 P4 1.516247 1_555
O16 P1 1.579370 1_555
O17 P5 1.529765 1_455
O18 P1 1.516247 1_555
O19 P3 1.567686 1_555
O20 P7 1.524640 1_655
O21 P7 1.582240 1_555
O22 P6 1.567686 1_554
O23 P5 1.582240 1_555
O24 P7 1.529769 1_565
O25 P4 1.567686 1_556
O26 P5 1.593079 1_555
O27 P1 1.567686 1_555
O28 P1 1.550531 1_555
O29 P2 1.529765 1_545
O30 P7 1.593079 1_555
O31 P6 1.579370 1_555
