# generated using pymatgen
data_Na14Mg5Zr3Si6(SO8)6
_symmetry_space_group_name_H-M   'P 1'
_cell_length_a   18.36570521
_cell_length_b   9.16519627
_cell_length_c   22.49626018
_cell_angle_alpha   90.03032791
_cell_angle_beta   90.21502781
_cell_angle_gamma   120.13687671
_symmetry_Int_Tables_number   1
_chemical_formula_structural   Na14Mg5Zr3Si6(SO8)6
_chemical_formula_sum   'Na42 Mg15 Zr9 Si18 S18 O144'
_cell_volume   3274.80110439
_cell_formula_units_Z   3
loop_
 _symmetry_equiv_pos_site_id
 _symmetry_equiv_pos_as_xyz
  1  'x, y, z'
loop_
 _atom_site_type_symbol
 _atom_site_label
 _atom_site_symmetry_multiplicity
 _atom_site_fract_x
 _atom_site_fract_y
 _atom_site_fract_z
 _atom_site_occupancy
  Na  Na0  1  0.19552807  0.36113231  0.24647493  1
  Na  Na1  1  0.68923142  0.35602530  0.24578686  1
  Na  Na2  1  0.99700866  0.64684196  0.25234722  1
  Na  Na3  1  0.49474650  0.63675111  0.24089139  1
  Na  Na4  1  0.31686606  0.63197678  0.74612497  1
  Na  Na5  1  0.81508843  0.62514504  0.73483716  1
  Na  Na6  1  0.19134447  0.02670706  0.74625422  1
  Na  Na7  1  0.69406784  0.02779908  0.74587774  1
  Na  Na8  1  0.15419388  0.32479407  0.57597207  1
  Na  Na9  1  0.66763806  0.34565546  0.57677474  1
  Na  Na10  1  0.01120924  0.69802245  0.57718250  1
  Na  Na11  1  0.52274777  0.70348086  0.57957896  1
  Na  Na12  1  0.32177423  0.97042604  0.59149962  1
  Na  Na13  1  0.82049877  0.95238101  0.58931301  1
  Na  Na14  1  0.15626109  0.98064830  0.07806456  1
  Na  Na15  1  0.64819826  0.96458851  0.07342697  1
  Na  Na16  1  0.82079554  0.67435968  0.09044296  1
  Na  Na17  1  0.02051246  0.34090252  0.07871841  1
  Na  Na18  1  0.52481950  0.35387400  0.08724955  1
  Na  Na19  1  0.49525527  0.68432795  0.92440576  1
  Na  Na20  1  0.98938207  0.67826201  0.91836230  1
  Na  Na21  1  0.84522338  0.03282143  0.90603590  1
  Na  Na22  1  0.16108127  0.27956313  0.90684066  1
  Na  Na23  1  0.66559815  0.27875221  0.91655537  1
  Na  Na24  1  0.49366541  0.30727503  0.41903697  1
  Na  Na25  1  0.98931493  0.29989985  0.42232077  1
  Na  Na26  1  0.16543307  0.05294055  0.41664621  1
  Na  Na27  1  0.66697317  0.05267610  0.41616272  1
  Na  Na28  1  0.34854129  0.65727260  0.40551673  1
  Na  Na29  1  0.84693202  0.65307626  0.41853388  1
  Na  Na30  1  0.00465528  0.99731546  0.49952591  1
  Na  Na31  1  0.51551373  0.01795923  0.49575166  1
  Na  Na32  1  0.00937916  0.00812731  0.99517858  1
  Na  Na33  1  0.50368547  0.99605699  0.99884201  1
  Na  Na34  1  0.33063513  0.30001230  0.82704283  1
  Na  Na35  1  0.82644810  0.30954177  0.82595679  1
  Na  Na36  1  0.32377577  0.32613499  0.32533544  1
  Na  Na37  1  0.81891345  0.32383589  0.32854302  1
  Na  Na38  1  0.18962147  0.68069804  0.16251219  1
  Na  Na39  1  0.66623214  0.67061777  0.16063250  1
  Na  Na40  1  0.16356071  0.66759383  0.66389177  1
  Na  Na41  1  0.67471183  0.66969612  0.66006981  1
  Mg  Mg0  1  0.00644566  0.00295599  0.34783917  1
  Mg  Mg1  1  0.50692009  0.00448639  0.34634508  1
  Mg  Mg2  1  0.00604569  0.01140029  0.84571053  1
  Mg  Mg3  1  0.50523573  0.01416273  0.84956987  1
  Mg  Mg4  1  0.32671643  0.30800015  0.68628358  1
  Mg  Mg5  1  0.82352307  0.31844212  0.68268464  1
  Mg  Mg6  1  0.32903998  0.34475959  0.18451889  1
  Mg  Mg7  1  0.82213662  0.33044139  0.18617200  1
  Mg  Mg8  1  0.81846719  0.31146129  0.98387158  1
  Mg  Mg9  1  0.32041834  0.32554860  0.48301220  1
  Mg  Mg10  1  0.81866941  0.33777185  0.48772893  1
  Mg  Mg11  1  0.17186861  0.67256057  0.01652016  1
  Mg  Mg12  1  0.65901693  0.66501180  0.01982248  1
  Mg  Mg13  1  0.16427172  0.66352484  0.51607534  1
  Mg  Mg14  1  0.67159345  0.66225713  0.51936934  1
  Zr  Zr0  1  0.00016328  0.00743592  0.64960686  1
  Zr  Zr1  1  0.50495660  0.01867140  0.65264322  1
  Zr  Zr2  1  0.00357693  0.99627976  0.15240247  1
  Zr  Zr3  1  0.50046825  0.98121647  0.14768001  1
  Zr  Zr4  1  0.32616074  0.32778646  0.98499233  1
  Zr  Zr5  1  0.17654649  0.67349253  0.31227989  1
  Zr  Zr6  1  0.67506575  0.67023543  0.31122343  1
  Zr  Zr7  1  0.17113583  0.67882284  0.81187577  1
  Zr  Zr8  1  0.67095834  0.67672464  0.81182227  1
  Si  Si0  1  0.15383280  0.00390721  0.25332421  1
  Si  Si1  1  0.65124682  0.00146512  0.25313962  1
  Si  Si2  1  0.35663699  0.70764617  0.25520395  1
  Si  Si3  1  0.85577415  0.70357725  0.25245724  1
  Si  Si4  1  0.15185254  0.30094693  0.75160099  1
  Si  Si5  1  0.65240044  0.30116950  0.75548746  1
  Si  Si6  1  0.35736039  0.00743637  0.75184381  1
  Si  Si7  1  0.85721068  0.01355888  0.75457169  1
  Si  Si8  1  0.18432720  0.02738056  0.58175919  1
  Si  Si9  1  0.68196588  0.02804935  0.58197738  1
  Si  Si10  1  0.83518680  0.63071100  0.58336605  1
  Si  Si11  1  0.48002399  0.62185692  0.08508837  1
  Si  Si12  1  0.18201883  0.34227236  0.08614741  1
  Si  Si13  1  0.68401992  0.33841086  0.08212674  1
  Si  Si14  1  0.16317598  0.96079479  0.92028349  1
  Si  Si15  1  0.66550142  0.96532923  0.91936473  1
  Si  Si16  1  0.16442669  0.36684729  0.42048524  1
  Si  Si17  1  0.66339827  0.36435656  0.41921725  1
  S  S0  1  0.99825900  0.29417677  0.25151618  1
  S  S1  1  0.49740355  0.29043114  0.25216081  1
  S  S2  1  0.99931262  0.70480524  0.75202469  1
  S  S3  1  0.49840389  0.70320685  0.75092127  1
  S  S4  1  0.47536773  0.33381935  0.58196365  1
  S  S5  1  0.97861063  0.33703275  0.58172804  1
  S  S6  1  0.33469973  0.62697845  0.58281429  1
  S  S7  1  0.97865615  0.62199040  0.08260443  1
  S  S8  1  0.33162845  0.03874085  0.08513392  1
  S  S9  1  0.83687400  0.04813661  0.08244037  1
  S  S10  1  0.31429557  0.66836684  0.91752577  1
  S  S11  1  0.81567341  0.66772512  0.91958410  1
  S  S12  1  0.01960836  0.37574186  0.91988658  1
  S  S13  1  0.51890917  0.37184235  0.91779735  1
  S  S14  1  0.31588263  0.96518685  0.42052456  1
  S  S15  1  0.81618579  0.96523975  0.41881310  1
  S  S16  1  0.01908960  0.66298559  0.41711291  1
  S  S17  1  0.51865087  0.66221770  0.41962360  1
  O  O0  1  0.10880752  0.03313921  0.30993221  1
  O  O1  1  0.60950525  0.03224851  0.31113879  1
  O  O2  1  0.40601797  0.79749619  0.31577690  1
  O  O3  1  0.91105886  0.80128087  0.30996741  1
  O  O4  1  0.49033743  0.19469856  0.30617533  1
  O  O5  1  0.98744314  0.19415567  0.30494931  1
  O  O6  1  0.11099738  0.18311906  0.80953480  1
  O  O7  1  0.60882269  0.18126637  0.81151947  1
  O  O8  1  0.48675168  0.77880333  0.80507144  1
  O  O9  1  0.98945144  0.78431568  0.80600274  1
  O  O10  1  0.41046853  0.00055499  0.80643199  1
  O  O11  1  0.90560389  0.01392535  0.81462843  1
  O  O12  1  0.39274821  0.96650600  0.68837082  1
  O  O13  1  0.89848362  0.97188285  0.69592860  1
  O  O14  1  0.09474771  0.21137899  0.69115308  1
  O  O15  1  0.59389960  0.21159441  0.69386124  1
  O  O16  1  0.01410031  0.81439378  0.69886315  1
  O  O17  1  0.51313961  0.81634841  0.69777659  1
  O  O18  1  0.40105577  0.82817548  0.19740862  1
  O  O19  1  0.89749099  0.81723770  0.19050620  1
  O  O20  1  0.01307749  0.21291200  0.19776363  1
  O  O21  1  0.51158489  0.21436718  0.19827699  1
  O  O22  1  0.08996601  0.96938803  0.19306908  1
  O  O23  1  0.58994911  0.96982897  0.19351171  1
  O  O24  1  0.43381913  0.35478757  0.63403990  1
  O  O25  1  0.93659528  0.35534171  0.63388134  1
  O  O26  1  0.24363107  0.11130786  0.64012539  1
  O  O27  1  0.73766551  0.10859457  0.64154486  1
  O  O28  1  0.32715899  0.52854984  0.63671893  1
  O  O29  1  0.82599665  0.51842321  0.64165098  1
  O  O30  1  0.43541475  0.50306047  0.14158521  1
  O  O31  1  0.93900968  0.52217588  0.13630236  1
  O  O32  1  0.31838075  0.11994615  0.13700560  1
  O  O33  1  0.82947355  0.13614739  0.13427410  1
  O  O34  1  0.23245497  0.35222258  0.14517491  1
  O  O35  1  0.74320247  0.37191252  0.14052083  1
  O  O36  1  0.22602813  0.30291522  0.02701540  1
  O  O37  1  0.72103259  0.29226314  0.02345256  1
  O  O38  1  0.42476180  0.53034129  0.02292997  1
  O  O39  1  0.92863977  0.54052207  0.02834796  1
  O  O40  1  0.34192440  0.14285695  0.03028618  1
  O  O41  1  0.85128683  0.14834886  0.02732326  1
  O  O42  1  0.22324598  0.14411655  0.52252415  1
  O  O43  1  0.71909613  0.14562013  0.52292966  1
  O  O44  1  0.34712570  0.54810149  0.52918997  1
  O  O45  1  0.85705325  0.55904887  0.52341964  1
  O  O46  1  0.42665685  0.31052510  0.52684123  1
  O  O47  1  0.93065763  0.31332024  0.52607809  1
  O  O48  1  0.27118252  0.68303881  0.96937531  1
  O  O49  1  0.77380434  0.68784347  0.97211745  1
  O  O50  1  0.07116888  0.45443884  0.97376465  1
  O  O51  1  0.56848391  0.45027426  0.97243963  1
  O  O52  1  0.15247688  0.84836753  0.97888763  1
  O  O53  1  0.65510710  0.84826274  0.97631718  1
  O  O54  1  0.27394818  0.86167602  0.47331076  1
  O  O55  1  0.77509941  0.86309365  0.47204322  1
  O  O56  1  0.15261699  0.45870758  0.47851494  1
  O  O57  1  0.64870405  0.45393275  0.47668478  1
  O  O58  1  0.07171207  0.68746335  0.47030069  1
  O  O59  1  0.57157029  0.68530244  0.47251661  1
  O  O60  1  0.06270199  0.65031505  0.36284765  1
  O  O61  1  0.55941653  0.64313962  0.36510937  1
  O  O62  1  0.26023590  0.88239370  0.36694251  1
  O  O63  1  0.76025112  0.88081442  0.36555631  1
  O  O64  1  0.17453285  0.49030982  0.36194135  1
  O  O65  1  0.67369790  0.48737947  0.36054378  1
  O  O66  1  0.06294870  0.47984828  0.86703904  1
  O  O67  1  0.56258306  0.48092132  0.86583732  1
  O  O68  1  0.17196103  0.86301565  0.86090916  1
  O  O69  1  0.67469049  0.86438139  0.85990507  1
  O  O70  1  0.26285266  0.64269366  0.86253862  1
  O  O71  1  0.76210229  0.64116943  0.86522692  1
  O  O72  1  0.00739047  0.81236080  0.41375135  1
  O  O73  1  0.50724394  0.81184779  0.41600963  1
  O  O74  1  0.39879829  0.97771508  0.41415756  1
  O  O75  1  0.89916640  0.97630930  0.41199057  1
  O  O76  1  0.07839230  0.17955011  0.41414293  1
  O  O77  1  0.57774192  0.17728283  0.41262385  1
  O  O78  1  0.00815426  0.20298508  0.91512908  1
  O  O79  1  0.50977349  0.20260497  0.91245447  1
  O  O80  1  0.07819304  0.97894201  0.91449179  1
  O  O81  1  0.57921126  0.97892719  0.91464115  1
  O  O82  1  0.40075233  0.81232506  0.91300220  1
  O  O83  1  0.90005679  0.82129660  0.91383513  1
  O  O84  1  0.48224765  0.17420709  0.58689761  1
  O  O85  1  0.98815580  0.18136347  0.58643129  1
  O  O86  1  0.08924192  0.00958959  0.58903289  1
  O  O87  1  0.58325651  0.00646984  0.58856899  1
  O  O88  1  0.41126348  0.80137955  0.58635749  1
  O  O89  1  0.91791284  0.82794283  0.58912134  1
  O  O90  1  0.48900061  0.81256085  0.08455472  1
  O  O91  1  0.98419600  0.79485793  0.08563542  1
  O  O92  1  0.41000379  0.03146681  0.08838355  1
  O  O93  1  0.91365860  0.02722327  0.08764000  1
  O  O94  1  0.08538031  0.16164613  0.08575392  1
  O  O95  1  0.58575908  0.17382462  0.09007198  1
  O  O96  1  0.34234723  0.16575153  0.74705934  1
  O  O97  1  0.84215111  0.17061694  0.74649716  1
  O  O98  1  0.24785382  0.33455516  0.74394623  1
  O  O99  1  0.74618611  0.32908258  0.74754205  1
  O  O100  1  0.42387630  0.53804629  0.74031896  1
  O  O101  1  0.92532308  0.53686431  0.74452492  1
  O  O102  1  0.34725320  0.52181974  0.24958208  1
  O  O103  1  0.84973466  0.52056598  0.24665123  1
  O  O104  1  0.42476338  0.31567184  0.24682381  1
  O  O105  1  0.92709725  0.32068731  0.24176684  1
  O  O106  1  0.24529549  0.16454403  0.24341415  1
  O  O107  1  0.74378958  0.16310115  0.24409587  1
  O  O108  1  0.31984389  0.50844906  0.92023306  1
  O  O109  1  0.82700613  0.51769106  0.92299439  1
  O  O110  1  0.43451344  0.36045154  0.92026500  1
  O  O111  1  0.93568036  0.36428114  0.92377835  1
  O  O112  1  0.24829337  0.15427787  0.92030679  1
  O  O113  1  0.75372692  0.14985329  0.91776359  1
  O  O114  1  0.32686185  0.13712283  0.42313632  1
  O  O115  1  0.82769085  0.13705075  0.42171472  1
  O  O116  1  0.25216045  0.35800045  0.41870348  1
  O  O117  1  0.75072163  0.35459117  0.41812186  1
  O  O118  1  0.43426467  0.50542510  0.42414000  1
  O  O119  1  0.93665206  0.50430778  0.41968688  1
  O  O120  1  0.16578465  0.49965169  0.07643972  1
  O  O121  1  0.67619854  0.50928959  0.07504109  1
  O  O122  1  0.06547594  0.65177649  0.07929626  1
  O  O123  1  0.57581463  0.65397108  0.08085385  1
  O  O124  1  0.25644418  0.86890912  0.07783427  1
  O  O125  1  0.76170332  0.87661118  0.07814291  1
  O  O126  1  0.17045865  0.83427902  0.57612656  1
  O  O127  1  0.66677868  0.83586463  0.57529826  1
  O  O128  1  0.25840359  0.64434114  0.57852606  1
  O  O129  1  0.75033148  0.64904678  0.57946895  1
  O  O130  1  0.06538042  0.48657381  0.57886733  1
  O  O131  1  0.56186173  0.48033699  0.57906695  1
  O  O132  1  0.14850473  0.81749121  0.25614348  1
  O  O133  1  0.64799879  0.81676636  0.25671965  1
  O  O134  1  0.25752314  0.67509233  0.25393642  1
  O  O135  1  0.75786913  0.67289204  0.25307149  1
  O  O136  1  0.07725660  0.46429509  0.25525833  1
  O  O137  1  0.57631332  0.46538031  0.25589800  1
  O  O138  1  0.15902534  0.48841554  0.75707930  1
  O  O139  1  0.65921008  0.48758132  0.75701721  1
  O  O140  1  0.07783508  0.69268435  0.75521918  1
  O  O141  1  0.57630226  0.69063224  0.75408821  1
  O  O142  1  0.25851611  0.83282599  0.75408163  1
  O  O143  1  0.75961703  0.83459416  0.75513990  1
loop_
_geom_bond_atom_site_label_1
_geom_bond_atom_site_label_2
_geom_bond_distance
_geom_bond_site_symmetry_2
Na0 O34 2.393089 1_555
Na0 O106 2.395941 1_555
Na0 O102 2.411692 1_555
Na0 O134 2.512531 1_555
Na0 O136 2.777860 1_555
Na0 O64 2.959795 1_555
Na0 O0 2.970744 1_555
Na1 O107 2.431296 1_555
Na1 O135 2.524258 1_555
Na1 O35 2.546493 1_555
Na1 O103 2.549441 1_555
Na1 O137 2.728992 1_555
Na1 O65 2.922756 1_555
Na1 O1 2.961257 1_555
Na1 O21 3.031745 1_555
Na2 O103 2.350677 1_555
Na2 O132 2.413149 1_655
Na2 O105 2.604596 1_555
Na2 O136 2.729648 1_655
Na2 O60 2.752261 1_655
Na2 O31 2.830037 1_555
Na2 O22 2.895780 1_655
Na2 O3 2.903881 1_555
Na3 O102 2.371606 1_555
Na3 O133 2.469760 1_555
Na3 O30 2.513506 1_555
Na3 O104 2.556043 1_555
Na3 O137 2.680369 1_555
Na3 O23 2.858339 1_555
Na4 O98 2.360009 1_555
Na4 O100 2.514239 1_555
Na4 O138 2.524094 1_555
Na4 O142 2.559496 1_555
Na4 O28 2.678226 1_555
Na4 O70 2.822987 1_555
Na4 O12 2.959394 1_555
Na4 O8 3.009192 1_555
Na5 O29 2.364161 1_555
Na5 O99 2.366760 1_555
Na5 O139 2.534033 1_555
Na5 O101 2.538233 1_555
Na5 O143 2.626377 1_555
Na5 O13 2.887334 1_555
Na6 O96 2.401290 1_555
Na6 O98 2.469981 1_555
Na6 O26 2.548534 1_555
Na6 O142 2.628765 1_545
Na6 O140 2.711835 1_545
Na6 O6 2.897732 1_555
Na6 O68 2.916342 1_545
Na6 O16 3.021721 1_545
Na7 O97 2.352689 1_555
Na7 O99 2.426541 1_555
Na7 O27 2.473645 1_555
Na7 O143 2.601413 1_545
Na7 O141 2.748399 1_545
Na7 O69 2.902724 1_545
Na8 O56 2.520314 1_555
Na8 O86 2.529476 1_555
Na8 O128 2.571811 1_555
Na8 O85 2.657596 1_455
Na8 O130 2.700474 1_555
Na8 O14 2.805532 1_555
Na8 O42 2.813228 1_555
Na9 O129 2.408486 1_555
Na9 O57 2.553169 1_555
Na9 O87 2.702311 1_555
Na9 O43 2.732708 1_555
Na9 O131 2.776483 1_555
Na9 O29 2.904715 1_555
Na9 O15 2.939568 1_555
Na9 O84 2.957658 1_555
Na10 O86 2.483190 1_565
Na10 O126 2.539122 1_555
Na10 O89 2.545148 1_455
Na10 O130 2.585112 1_555
Na10 O58 2.674548 1_555
Na10 O45 2.729906 1_455
Na10 O16 2.927879 1_555
Na11 O127 2.293014 1_555
Na11 O87 2.426169 1_565
Na11 O131 2.484773 1_555
Na11 O59 2.607381 1_555
Na11 O88 2.620584 1_555
Na11 O17 2.890578 1_555
Na12 O126 2.431023 1_555
Na12 O12 2.544650 1_555
Na12 O84 2.580752 1_565
Na12 O26 2.606633 1_565
Na12 O128 2.622113 1_555
Na12 O88 2.770057 1_555
Na12 O54 2.816875 1_555
Na13 O129 2.416300 1_555
Na13 O127 2.485110 1_555
Na13 O89 2.559393 1_555
Na13 O85 2.720761 1_565
Na13 O13 2.748192 1_555
Na13 O55 2.760558 1_555
Na13 O27 2.818433 1_565
Na14 O124 2.515221 1_555
Na14 O52 2.522679 1_554
Na14 O94 2.578029 1_565
Na14 O122 2.611520 1_555
Na14 O91 2.741502 1_455
Na14 O36 2.810526 1_565
Na14 O22 2.843291 1_555
Na14 O32 2.899109 1_565
Na15 O53 2.461856 1_554
Na15 O123 2.470179 1_555
Na15 O90 2.543174 1_555
Na15 O125 2.587129 1_555
Na15 O95 2.709872 1_565
Na15 O37 2.837861 1_565
Na15 O23 2.918522 1_555
Na16 O121 2.327981 1_555
Na16 O125 2.590141 1_555
Na16 O19 2.624311 1_555
Na16 O91 2.629028 1_555
Na16 O35 2.651911 1_555
Na16 O93 2.798999 1_565
Na16 O49 2.817073 1_554
Na17 O120 2.311079 1_555
Na17 O94 2.471391 1_555
Na17 O122 2.537214 1_555
Na17 O93 2.548539 1_455
Na17 O50 2.563196 1_554
Na18 O95 2.415338 1_555
Na18 O121 2.421454 1_555
Na18 O123 2.424383 1_555
Na18 O92 2.631061 1_555
Na18 O51 2.720485 1_554
Na18 O21 2.761938 1_555
Na18 O30 2.885743 1_555
Na19 O81 2.353459 1_555
Na19 O82 2.548695 1_555
Na19 O110 2.595825 1_555
Na19 O38 2.602043 1_556
Na19 O108 2.787242 1_555
Na19 O53 2.789858 1_555
Na19 O8 2.848894 1_555
Na20 O80 2.397958 1_655
Na20 O111 2.533784 1_555
Na20 O83 2.564889 1_555
Na20 O109 2.581761 1_555
Na20 O9 2.708374 1_555
Na20 O39 2.751376 1_556
Na20 O52 2.921409 1_655
Na20 O66 2.990336 1_655
Na21 O11 2.387003 1_555
Na21 O113 2.420075 1_555
Na21 O78 2.595614 1_655
Na21 O83 2.600542 1_545
Na21 O111 2.659708 1_555
Na21 O69 2.896246 1_545
Na21 O41 2.907674 1_556
Na22 O6 2.363393 1_555
Na22 O80 2.393583 1_545
Na22 O112 2.412319 1_555
Na22 O78 2.537785 1_555
Na22 O108 2.616111 1_555
Na22 O36 2.914828 1_556
Na23 O81 2.385754 1_545
Na23 O113 2.436357 1_555
Na23 O7 2.552001 1_555
Na23 O79 2.584194 1_555
Na23 O37 2.586419 1_556
Na23 O109 2.661220 1_555
Na24 O77 2.381880 1_555
Na24 O118 2.547867 1_555
Na24 O74 2.623897 1_545
Na24 O114 2.651491 1_555
Na24 O4 2.728992 1_555
Na24 O46 2.730587 1_555
Na24 O57 2.779123 1_555
Na24 O61 2.947555 1_555
Na25 O76 2.396026 1_655
Na25 O119 2.503576 1_555
Na25 O115 2.567079 1_555
Na25 O75 2.580073 1_545
Na25 O47 2.602990 1_555
Na25 O5 2.806320 1_555
Na25 O56 2.880589 1_655
Na26 O76 2.401490 1_555
Na26 O116 2.425682 1_555
Na26 O42 2.566494 1_555
Na26 O0 2.582431 1_555
Na26 O72 2.619713 1_545
Na26 O114 2.665725 1_555
Na27 O117 2.397971 1_555
Na27 O77 2.423775 1_555
Na27 O1 2.552155 1_555
Na27 O43 2.563726 1_555
Na27 O73 2.641153 1_545
Na27 O115 2.651645 1_555
Na28 O2 2.344796 1_555
Na28 O116 2.423682 1_555
Na28 O73 2.531072 1_555
Na28 O118 2.605153 1_555
Na28 O74 2.606005 1_555
Na28 O64 2.929164 1_555
Na28 O44 2.952922 1_555
Na29 O117 2.398373 1_555
Na29 O45 2.550362 1_555
Na29 O72 2.551436 1_655
Na29 O119 2.613554 1_555
Na29 O75 2.620329 1_555
Na29 O3 2.759686 1_555
Na30 O76 2.462669 1_565
Na30 O86 2.506246 1_565
Na30 O89 2.560144 1_455
Na30 O72 2.584994 1_555
Na30 O75 2.695319 1_455
Na30 O85 2.696974 1_465
Na31 O77 2.297552 1_555
Na31 O87 2.455849 1_555
Na31 O73 2.552631 1_545
Na31 O74 2.697411 1_545
Na31 O84 2.741013 1_555
Na31 O88 2.824531 1_545
Na32 O80 2.306450 1_545
Na32 O94 2.466458 1_556
Na32 O78 2.544868 1_555
Na32 O83 2.613198 1_445
Na32 O91 2.697975 1_446
Na32 O93 2.789923 1_456
Na33 O81 2.403068 1_555
Na33 O90 2.484153 1_556
Na33 O95 2.577964 1_566
Na33 O82 2.628892 1_555
Na33 O79 2.676925 1_565
Na33 O92 2.776538 1_566
Na34 O96 2.250421 1_555
Na34 O98 2.523645 1_555
Na34 O112 2.543915 1_555
Na34 O110 2.692981 1_555
Na34 O100 2.788626 1_555
Na34 O108 2.909098 1_555
Na35 O97 2.295626 1_555
Na35 O99 2.358536 1_555
Na35 O113 2.500485 1_555
Na35 O101 2.687790 1_555
Na35 O111 2.841485 1_555
Na35 O109 2.894951 1_555
Na36 O106 2.345407 1_555
Na36 O102 2.353496 1_555
Na36 O116 2.575429 1_555
Na36 O104 2.602244 1_555
Na36 O114 2.818964 1_555
Na36 O118 2.893521 1_555
Na37 O107 2.370497 1_555
Na37 O103 2.439649 1_555
Na37 O117 2.466120 1_555
Na37 O115 2.761940 1_555
Na37 O105 2.801065 1_555
Na37 O119 2.826214 1_555
Na38 O134 2.415166 1_555
Na38 O120 2.440311 1_555
Na38 O124 2.450672 1_555
Na38 O132 2.745654 1_555
Na38 O122 2.851997 1_555
Na38 O136 2.910751 1_555
Na39 O123 2.392649 1_555
Na39 O121 2.489712 1_555
Na39 O125 2.605103 1_555
Na39 O133 2.651724 1_555
Na39 O135 2.663787 1_555
Na39 O137 2.787483 1_555
Na40 O126 2.461477 1_555
Na40 O130 2.574735 1_555
Na40 O142 2.601827 1_555
Na40 O138 2.639346 1_555
Na40 O140 2.672088 1_555
Na40 O128 2.676729 1_555
Na41 O129 2.352622 1_555
Na41 O127 2.490235 1_555
Na41 O143 2.625816 1_555
Na41 O131 2.642849 1_555
Na41 O139 2.674868 1_555
Na41 O141 2.855409 1_555
Mg0 O0 1.956530 1_555
Mg0 O3 1.986710 1_445
Mg0 O76 2.103706 1_555
Mg0 O5 2.176457 1_455
Mg0 O72 2.298559 1_545
Mg0 O75 2.358567 1_445
Mg1 O1 1.942088 1_555
Mg1 O2 1.991216 1_545
Mg1 O77 2.082692 1_555
Mg1 O4 2.116910 1_555
Mg1 O73 2.363635 1_545
Mg1 O74 2.421666 1_545
Mg2 O6 1.954881 1_555
Mg2 O11 1.981293 1_455
Mg2 O9 2.140466 1_445
Mg2 O80 2.149263 1_545
Mg2 O78 2.334923 1_555
Mg2 O83 2.406901 1_445
Mg3 O10 1.937979 1_555
Mg3 O7 1.945644 1_555
Mg3 O81 2.125828 1_545
Mg3 O79 2.200713 1_555
Mg3 O8 2.242842 1_545
Mg3 O82 2.366325 1_545
Mg4 O26 1.969881 1_555
Mg4 O96 2.006540 1_555
Mg4 O98 2.051206 1_555
Mg4 O24 2.145984 1_555
Mg4 O100 2.304426 1_555
Mg4 O28 2.305487 1_555
Mg5 O27 1.995973 1_555
Mg5 O29 2.032751 1_555
Mg5 O99 2.076106 1_555
Mg5 O97 2.115950 1_555
Mg5 O25 2.223626 1_555
Mg5 O101 2.378590 1_555
Mg6 O30 2.006004 1_555
Mg6 O34 2.011151 1_555
Mg6 O106 2.077457 1_555
Mg6 O102 2.082412 1_555
Mg6 O32 2.239948 1_555
Mg6 O104 2.361951 1_555
Mg7 O35 1.960424 1_555
Mg7 O107 1.980124 1_555
Mg7 O103 2.061522 1_555
Mg7 O33 2.189110 1_555
Mg7 O31 2.277404 1_555
Mg7 O105 2.333063 1_555
Mg8 O37 1.929229 1_556
Mg8 O113 2.008805 1_555
Mg8 O41 2.110844 1_556
Mg8 O109 2.275846 1_555
Mg8 O39 2.284686 1_556
Mg8 O111 2.381626 1_555
Mg9 O42 1.942608 1_555
Mg9 O116 2.028345 1_555
Mg9 O44 2.114142 1_555
Mg9 O114 2.239353 1_555
Mg9 O46 2.248016 1_555
Mg9 O118 2.324973 1_555
Mg10 O45 1.952700 1_555
Mg10 O43 1.962468 1_555
Mg10 O117 2.052274 1_555
Mg10 O47 2.339744 1_555
Mg10 O115 2.433560 1_555
Mg10 O119 2.464602 1_555
Mg11 O52 2.003813 1_554
Mg11 O120 2.041200 1_555
Mg11 O48 2.073563 1_554
Mg11 O50 2.148046 1_554
Mg11 O124 2.174447 1_555
Mg11 O122 2.344342 1_555
Mg12 O53 1.976401 1_554
Mg12 O123 2.022605 1_555
Mg12 O121 2.032436 1_555
Mg12 O51 2.114906 1_554
Mg12 O49 2.283433 1_554
Mg12 O125 2.311974 1_555
Mg13 O56 1.969042 1_555
Mg13 O126 2.026124 1_555
Mg13 O58 2.088034 1_555
Mg13 O54 2.150397 1_555
Mg13 O130 2.233429 1_555
Mg13 O128 2.297971 1_555
Mg14 O57 1.983282 1_555
Mg14 O129 2.023626 1_555
Mg14 O127 2.064609 1_555
Mg14 O55 2.153843 1_555
Mg14 O59 2.214817 1_555
Mg14 O131 2.300788 1_555
O0 Si0 1.614715 1_555
O1 Si1 1.610593 1_555
O2 Si2 1.611553 1_555
O3 Si3 1.607034 1_555
O4 S1 1.466694 1_555
O5 S0 1.464528 1_555
O6 Si4 1.619560 1_555
O7 Si5 1.600927 1_555
O8 S3 1.469608 1_555
O9 S2 1.473641 1_555
O10 Si6 1.586266 1_555
O11 Si7 1.613462 1_555
O12 Si6 1.689157 1_565
O12 Zr1 2.035905 1_565
O13 Si7 1.660903 1_565
O13 Zr0 2.020713 1_665
O14 Si4 1.657292 1_555
O14 Zr0 2.027434 1_555
O15 Si5 1.688861 1_555
O15 Zr1 1.934219 1_555
O16 S2 1.497545 1_455
O16 Zr0 2.208702 1_565
O17 S3 1.516522 1_555
O17 Zr1 2.184652 1_565
O18 Si2 1.637331 1_555
O18 Zr3 1.999470 1_555
O19 Si3 1.680064 1_555
O19 Zr2 2.006792 1_655
O20 S0 1.515289 1_455
O20 Zr2 2.159293 1_545
O21 S1 1.485607 1_555
O21 Zr3 2.336901 1_545
O22 Si0 1.711236 1_565
O22 Zr2 1.948585 1_555
O23 Si1 1.676691 1_565
O23 Zr3 1.983496 1_555
O24 S4 1.464715 1_555
O25 S5 1.461753 1_555
O26 Si8 1.627549 1_555
O27 Si9 1.617872 1_555
O28 S6 1.476648 1_555
O29 Si10 1.623426 1_555
O30 Si11 1.607985 1_555
O31 S7 1.471479 1_555
O32 S8 1.468967 1_555
O33 S9 1.462574 1_555
O34 Si12 1.592315 1_555
O35 Si13 1.629448 1_555
O36 Si12 1.689167 1_555
O36 Zr4 1.979888 1_554
O37 Si13 1.636483 1_555
O38 Si11 1.679951 1_555
O38 Zr4 2.016209 1_554
O39 S7 1.480880 1_555
O40 S8 1.513467 1_555
O40 Zr4 2.118286 1_554
O41 S9 1.486813 1_555
O42 Si8 1.634654 1_555
O43 Si9 1.631299 1_555
O44 S6 1.482152 1_555
O45 Si10 1.636852 1_555
O46 S4 1.477577 1_555
O47 S5 1.479657 1_555
O48 S10 1.455765 1_555
O49 S11 1.473402 1_555
O50 S12 1.480084 1_555
O51 S13 1.479938 1_555
O52 Si14 1.624363 1_555
O53 Si15 1.620733 1_555
O54 S14 1.475702 1_555
O55 S15 1.475945 1_555
O56 Si16 1.626159 1_555
O57 Si17 1.625471 1_555
O58 S16 1.479646 1_555
O59 S17 1.479791 1_555
O60 S16 1.498633 1_555
O60 Zr5 2.298464 1_555
O61 S17 1.494390 1_555
O61 Zr6 2.352119 1_555
O62 S14 1.511397 1_555
O62 Zr5 2.137454 1_555
O63 S15 1.510309 1_555
O63 Zr6 2.148885 1_555
O64 Si16 1.685803 1_555
O64 Zr5 2.002042 1_555
O65 Si17 1.684818 1_555
O65 Zr6 2.000063 1_555
O66 S12 1.484280 1_555
O66 Zr7 2.279482 1_555
O67 S13 1.487361 1_555
O67 Zr8 2.256656 1_555
O68 Si14 1.660957 1_555
O68 Zr7 2.009750 1_555
O69 Si15 1.682524 1_555
O69 Zr8 2.002980 1_555
O70 S10 1.498619 1_555
O70 Zr7 2.189073 1_555
O71 S11 1.507569 1_555
O71 Zr8 2.210122 1_555
O72 S16 1.490488 1_555
O73 S17 1.489861 1_555
O74 S14 1.476046 1_555
O75 S15 1.484228 1_555
O76 Si16 1.654758 1_555
O77 Si17 1.651085 1_555
O78 S12 1.492615 1_555
O79 S13 1.478789 1_555
O80 Si14 1.655237 1_555
O81 Si15 1.653912 1_555
O82 S10 1.473129 1_555
O83 S11 1.486925 1_555
O84 S4 1.534265 1_555
O84 Zr1 2.233419 1_555
O85 S5 1.526001 1_555
O85 Zr0 2.227691 1_655
O86 Si8 1.679048 1_555
O86 Zr0 2.125585 1_555
O87 Si9 1.729049 1_555
O87 Zr1 2.082075 1_555
O88 S6 1.510188 1_555
O88 Zr1 2.384798 1_565
O89 Si10 1.683228 1_555
O89 Zr0 2.080040 1_665
O90 Si11 1.671215 1_555
O90 Zr3 2.029508 1_555
O91 S7 1.537264 1_555
O91 Zr2 2.263612 1_655
O92 S8 1.475564 1_555
O92 Zr3 2.346122 1_545
O93 S9 1.519638 1_555
O93 Zr2 2.320098 1_645
O94 Si12 1.714712 1_555
O94 Zr2 2.129584 1_545
O95 Si13 1.683250 1_555
O95 Zr3 2.119079 1_545
O96 Si6 1.610793 1_555
O97 Si7 1.606622 1_555
O98 Si4 1.640172 1_555
O99 Si5 1.619902 1_555
O100 S3 1.462336 1_555
O101 S2 1.463534 1_555
O102 Si2 1.628264 1_555
O103 Si3 1.629618 1_555
O104 S1 1.468485 1_555
O105 S0 1.460134 1_555
O106 Si0 1.599617 1_555
O107 Si1 1.612251 1_555
O108 S10 1.520632 1_555
O108 Zr4 2.252048 1_555
O109 S11 1.492468 1_555
O110 S13 1.501535 1_555
O110 Zr4 2.365144 1_555
O111 S12 1.494339 1_655
O112 Si14 1.674745 1_545
O112 Zr4 2.095213 1_555
O113 Si15 1.654020 1_545
O114 S14 1.485964 1_545
O115 S15 1.481288 1_545
O116 Si16 1.654120 1_555
O117 Si17 1.650780 1_555
O118 S17 1.497432 1_555
O119 S16 1.483383 1_655
O120 Si12 1.627520 1_555
O121 Si13 1.650702 1_555
O122 S7 1.478626 1_455
O123 Si11 1.634640 1_555
O124 S8 1.481985 1_565
O125 S9 1.485333 1_565
O126 Si8 1.661339 1_565
O127 Si9 1.645909 1_565
O128 S6 1.490298 1_555
O129 Si10 1.651240 1_555
O130 S5 1.493264 1_455
O131 S4 1.479802 1_555
O132 Si0 1.662825 1_565
O132 Zr5 2.069116 1_555
O133 Si1 1.665653 1_565
O133 Zr6 2.054665 1_555
O134 Si2 1.690431 1_555
O134 Zr5 1.981771 1_555
O135 Si3 1.674766 1_555
O135 Zr6 2.000606 1_555
O136 S0 1.506826 1_455
O136 Zr5 2.261858 1_555
O137 S1 1.530996 1_555
O137 Zr6 2.219203 1_555
O138 Si4 1.660447 1_555
O138 Zr7 2.054365 1_555
O139 Si5 1.649591 1_555
O139 Zr8 2.047418 1_555
O140 S2 1.502436 1_455
O140 Zr7 2.186142 1_555
O141 S3 1.493301 1_555
O141 Zr8 2.220583 1_555
O142 Si6 1.715426 1_565
O142 Zr7 2.000284 1_555
O143 Si7 1.717930 1_565
O143 Zr8 2.005653 1_555
