# generated using pymatgen
data_Na3Zr2Nb2Si3(PO8)3
_symmetry_space_group_name_H-M   'P 1'
_cell_length_a   9.01391223
_cell_length_b   8.97141144
_cell_length_c   22.87446185
_cell_angle_alpha   89.91478102
_cell_angle_beta   90.14017750
_cell_angle_gamma   119.98314321
_symmetry_Int_Tables_number   1
_chemical_formula_structural   Na3Zr2Nb2Si3(PO8)3
_chemical_formula_sum   'Na9 Zr6 Nb6 Si9 P9 O72'
_cell_volume   1602.24173695
_cell_formula_units_Z   3
loop_
 _symmetry_equiv_pos_site_id
 _symmetry_equiv_pos_as_xyz
  1  'x, y, z'
loop_
 _atom_site_type_symbol
 _atom_site_label
 _atom_site_symmetry_multiplicity
 _atom_site_fract_x
 _atom_site_fract_y
 _atom_site_fract_z
 _atom_site_occupancy
  Na  Na0  1  0.99858151  0.62999364  0.25365418  1
  Na  Na1  1  0.66514512  0.95685314  0.58532662  1
  Na  Na2  1  0.66780672  0.70411348  0.07956023  1
  Na  Na3  1  0.02386690  0.00136160  0.50010342  1
  Na  Na4  1  0.01981439  0.01708679  0.99663815  1
  Na  Na5  1  0.66453881  0.33266933  0.83316694  1
  Na  Na6  1  0.65232518  0.32024356  0.33460436  1
  Na  Na7  1  0.33317944  0.66646393  0.16675514  1
  Na  Na8  1  0.31669915  0.65674367  0.66894316  1
  Zr  Zr0  1  0.00754946  0.99683869  0.64647855  1
  Zr  Zr1  1  0.00069297  0.00224505  0.14323150  1
  Zr  Zr2  1  0.66587962  0.33101366  0.18938071  1
  Zr  Zr3  1  0.32463382  0.66482790  0.01846047  1
  Zr  Zr4  1  0.32912258  0.66846336  0.52051641  1
  Zr  Zr5  1  0.34085796  0.67000752  0.31558115  1
  Nb  Nb0  1  0.99128747  0.99449459  0.35562059  1
  Nb  Nb1  1  0.98935225  0.99196302  0.85250933  1
  Nb  Nb2  1  0.66474612  0.33074679  0.69150744  1
  Nb  Nb3  1  0.67513915  0.33834779  0.97592036  1
  Nb  Nb4  1  0.66540392  0.33485063  0.47759475  1
  Nb  Nb5  1  0.33319364  0.66577592  0.81364424  1
  Si  Si0  1  0.70442274  0.70975513  0.24723593  1
  Si  Si1  1  0.00294927  0.70751348  0.74996521  1
  Si  Si2  1  0.70706438  0.99483746  0.74680155  1
  Si  Si3  1  0.37742280  0.04826848  0.58357817  1
  Si  Si4  1  0.96025916  0.62294822  0.08513502  1
  Si  Si5  1  0.62303705  0.66686553  0.91942087  1
  Si  Si6  1  0.04419837  0.37215317  0.91550686  1
  Si  Si7  1  0.62712424  0.96056917  0.42032904  1
  Si  Si8  1  0.04080526  0.66640171  0.41402121  1
  P  P0  1  0.28498835  0.00046600  0.25155190  1
  P  P1  1  0.00160921  0.28875657  0.25066513  1
  P  P2  1  0.28825326  0.28913378  0.75120988  1
  P  P3  1  0.94957650  0.33673007  0.58459843  1
  P  P4  1  0.66481230  0.61707237  0.58448052  1
  P  P5  1  0.66632782  0.04631111  0.08175136  1
  P  P6  1  0.38250797  0.33283425  0.08080281  1
  P  P7  1  0.33272067  0.95935237  0.91470667  1
  P  P8  1  0.33105534  0.37208919  0.41779889  1
  O  O0  1  0.19408511  0.01766649  0.30616691  1
  O  O1  1  0.83135091  0.82217665  0.30319950  1
  O  O2  1  0.99570532  0.18524118  0.30561544  1
  O  O3  1  0.20279844  0.17473628  0.80456699  1
  O  O4  1  0.98049145  0.80713101  0.80615812  1
  O  O5  1  0.83573989  0.02223592  0.80236285  1
  O  O6  1  0.78743538  0.97072222  0.68684088  1
  O  O7  1  0.18093186  0.20997178  0.69561037  1
  O  O8  1  0.03541896  0.82491372  0.69211739  1
  O  O9  1  0.79641191  0.81411293  0.18709345  1
  O  O10  1  0.01644776  0.20149254  0.19489971  1
  O  O11  1  0.17807157  0.98352500  0.19618118  1
  O  O12  1  0.85896471  0.35114839  0.64055211  1
  O  O13  1  0.49534155  0.15193089  0.64132298  1
  O  O14  1  0.65936578  0.51489153  0.63984939  1
  O  O15  1  0.86844572  0.51838317  0.14511779  1
  O  O16  1  0.65054859  0.13279144  0.13745758  1
  O  O17  1  0.48944249  0.34933926  0.13606368  1
  O  O18  1  0.47352764  0.31563971  0.02592373  1
  O  O19  1  0.83497334  0.51083495  0.02840624  1
  O  O20  1  0.67205295  0.14955572  0.02652653  1
  O  O21  1  0.48439783  0.16305750  0.52647834  1
  O  O22  1  0.67890780  0.52794521  0.52876515  1
  O  O23  1  0.84215688  0.32612562  0.52990968  1
  O  O24  1  0.55101988  0.69904390  0.97975379  1
  O  O25  1  0.15591696  0.45954667  0.97369057  1
  O  O26  1  0.30296062  0.84889152  0.96961382  1
  O  O27  1  0.55065032  0.84827191  0.47976735  1
  O  O28  1  0.30478785  0.45545983  0.47232755  1
  O  O29  1  0.16578462  0.69482770  0.46943309  1
  O  O30  1  0.11357601  0.63109932  0.35414614  1
  O  O31  1  0.50478957  0.86779521  0.36452632  1
  O  O32  1  0.36090238  0.48451346  0.36357882  1
  O  O33  1  0.13814720  0.49882886  0.85970976  1
  O  O34  1  0.35739579  0.86893642  0.86083938  1
  O  O35  1  0.49681768  0.64613838  0.86451439  1
  O  O36  1  0.02071830  0.83942907  0.40787048  1
  O  O37  1  0.82081197  0.99050830  0.40818631  1
  O  O38  1  0.17462728  0.19012287  0.40972089  1
  O  O39  1  0.02266960  0.18249642  0.90605712  1
  O  O40  1  0.17628283  0.98379363  0.90670875  1
  O  O41  1  0.81660060  0.83034742  0.90681808  1
  O  O42  1  0.95341245  0.16666833  0.58600343  1
  O  O43  1  0.19127539  0.03451083  0.58412227  1
  O  O44  1  0.82394351  0.80121643  0.58598629  1
  O  O45  1  0.96252858  0.80726341  0.08281300  1
  O  O46  1  0.83381178  0.03619409  0.08282521  1
  O  O47  1  0.20207788  0.17441286  0.08409516  1
  O  O48  1  0.68771695  0.16909504  0.74330284  1
  O  O49  1  0.47054996  0.31050332  0.74408942  1
  O  O50  1  0.82675219  0.51964968  0.74386196  1
  O  O51  1  0.70204831  0.52532654  0.24958504  1
  O  O52  1  0.83419499  0.29930232  0.24966870  1
  O  O53  1  0.46586703  0.15809579  0.24832414  1
  O  O54  1  0.64055704  0.49192634  0.92323766  1
  O  O55  1  0.85031159  0.34828694  0.92329594  1
  O  O56  1  0.49690116  0.13773127  0.92124044  1
  O  O57  1  0.65390946  0.15562000  0.42608159  1
  O  O58  1  0.49251936  0.35202161  0.42461600  1
  O  O59  1  0.84624724  0.50694722  0.42669722  1
  O  O60  1  0.37562966  0.50173569  0.07829004  1
  O  O61  1  0.15010684  0.64743623  0.08085377  1
  O  O62  1  0.51245614  0.86155985  0.07946616  1
  O  O63  1  0.37175207  0.86263461  0.58227084  1
  O  O64  1  0.50081151  0.63125675  0.58304359  1
  O  O65  1  0.12934894  0.49500874  0.58148552  1
  O  O66  1  0.29232586  0.83184537  0.25467849  1
  O  O67  1  0.51550697  0.68665874  0.25294201  1
  O  O68  1  0.15514686  0.47357903  0.25321849  1
  O  O69  1  0.31350835  0.47222948  0.75875945  1
  O  O70  1  0.16778735  0.68055609  0.75903804  1
  O  O71  1  0.51790445  0.82931127  0.75956752  1
loop_
_geom_bond_atom_site_label_1
_geom_bond_atom_site_label_2
_geom_bond_distance
_geom_bond_site_symmetry_2
Na0 O66 2.344795 1_655
Na0 O51 2.350605 1_555
Na0 O68 2.437290 1_655
Na0 O30 2.517278 1_655
Na0 O52 2.571377 1_555
Na0 O15 2.713236 1_555
Na1 O42 2.325186 1_565
Na1 O63 2.340591 1_555
Na1 O44 2.448706 1_555
Na1 O64 2.530786 1_555
Na1 O6 2.544386 1_555
Na1 O27 2.614261 1_555
Na2 O60 2.335373 1_555
Na2 O45 2.336982 1_555
Na2 O62 2.435781 1_555
Na2 O24 2.502624 1_554
Na2 O46 2.581642 1_565
Na2 O9 2.686634 1_555
Na3 O43 2.366042 1_555
Na3 O36 2.555408 1_545
Na3 O38 2.586903 1_555
Na3 O44 2.665274 1_445
Na3 O42 2.723918 1_455
Na3 O37 2.753895 1_445
Na4 O47 2.523503 1_556
Na4 O39 2.539466 1_555
Na4 O45 2.591944 1_446
Na4 O40 2.597518 1_545
Na4 O46 2.651715 1_456
Na4 O41 2.703321 1_445
Na5 O54 2.579270 1_555
Na5 O50 2.584152 1_555
Na5 O48 2.596182 1_555
Na5 O56 2.600716 1_555
Na5 O55 2.612200 1_555
Na5 O49 2.623962 1_555
Na6 O53 2.526801 1_555
Na6 O51 2.556872 1_555
Na6 O57 2.563537 1_555
Na6 O52 2.611894 1_555
Na6 O58 2.611957 1_555
Na6 O59 2.713824 1_555
Na7 O67 2.511612 1_555
Na7 O61 2.513344 1_555
Na7 O68 2.590606 1_555
Na7 O62 2.615353 1_555
Na7 O66 2.634485 1_555
Na7 O60 2.646365 1_555
Na8 O70 2.529030 1_555
Na8 O65 2.549989 1_555
Na8 O63 2.581966 1_555
Na8 O69 2.627655 1_555
Na8 O64 2.657798 1_555
Na8 O71 2.677342 1_555
Nb0 O1 1.917191 1_555
Nb0 O37 1.939680 1_555
Nb0 O36 1.948471 1_655
Nb0 O2 2.040754 1_565
Nb0 O0 2.072214 1_665
Nb0 O38 2.107203 1_665
Nb1 O5 1.916757 1_565
Nb1 O4 1.937166 1_555
Nb1 O41 1.953919 1_555
Nb1 O39 2.000935 1_665
Nb1 O3 2.108283 1_665
Nb1 O40 2.120027 1_655
Nb2 O13 1.942046 1_555
Nb2 O48 1.960518 1_555
Nb2 O50 1.990657 1_555
Nb2 O12 2.036172 1_555
Nb2 O14 2.049847 1_555
Nb2 O49 2.058086 1_555
Nb3 O19 1.918453 1_556
Nb3 O55 1.954083 1_555
Nb3 O54 1.967303 1_555
Nb3 O20 2.038809 1_556
Nb3 O18 2.071673 1_556
Nb3 O56 2.119366 1_555
Nb4 O21 1.943761 1_555
Nb4 O57 1.955311 1_555
Nb4 O59 1.971023 1_555
Nb4 O23 2.022770 1_555
Nb4 O58 2.037397 1_555
Nb4 O22 2.044609 1_555
Nb5 O35 1.952198 1_555
Nb5 O33 1.953737 1_555
Nb5 O70 1.997186 1_555
Nb5 O71 2.004473 1_555
Nb5 O34 2.035273 1_555
Nb5 O69 2.078495 1_555
O0 P0 1.545284 1_555
O1 Si0 1.675804 1_555
O2 P1 1.546829 1_655
O3 P2 1.532002 1_555
O4 Si1 1.636282 1_655
O5 Si2 1.652197 1_545
O6 Si2 1.617171 1_555
O6 Zr0 2.094662 1_655
O7 P2 1.538731 1_555
O7 Zr0 2.091102 1_545
O8 Si1 1.623450 1_555
O8 Zr0 1.978181 1_555
O9 Si0 1.637847 1_555
O9 Zr1 2.035608 1_665
O10 P1 1.538319 1_555
O10 Zr1 2.089024 1_555
O11 P0 1.550582 1_565
O11 Zr1 2.076032 1_565
O12 P3 1.559877 1_555
O13 Si3 1.657765 1_555
O14 P4 1.548785 1_555
O15 Si4 1.635018 1_555
O15 Zr2 2.030024 1_555
O16 P5 1.536232 1_555
O16 Zr2 2.086164 1_555
O17 P6 1.549458 1_555
O17 Zr2 2.072447 1_555
O18 P6 1.550770 1_555
O19 Si4 1.682942 1_555
O20 P5 1.550947 1_555
O21 Si3 1.644978 1_555
O22 P4 1.544380 1_555
O23 P3 1.553672 1_555
O24 Si5 1.613148 1_555
O24 Zr3 2.103390 1_556
O25 Si6 1.614796 1_555
O25 Zr3 1.987945 1_556
O26 P7 1.537443 1_555
O26 Zr3 2.080702 1_556
O27 Si7 1.626381 1_555
O27 Zr4 2.059974 1_555
O28 P8 1.533790 1_555
O28 Zr4 2.121555 1_555
O29 Si8 1.627139 1_555
O29 Zr4 1.981887 1_555
O30 Si8 1.618560 1_555
O30 Zr5 2.095323 1_555
O31 Si7 1.617716 1_555
O31 Zr5 1.990662 1_555
O32 P8 1.534468 1_555
O32 Zr5 2.074021 1_555
O33 Si6 1.636081 1_555
O34 P7 1.552536 1_555
O35 Si5 1.639720 1_555
O36 Si8 1.656007 1_555
O37 Si7 1.652531 1_555
O38 P8 1.544764 1_555
O39 Si6 1.627979 1_555
O40 P7 1.541960 1_555
O41 Si5 1.649829 1_555
O42 P3 1.543550 1_555
O42 Zr0 2.281817 1_645
O43 Si3 1.619845 1_555
O43 Zr0 2.083765 1_545
O44 P4 1.555427 1_555
O44 Zr0 2.196987 1_655
O45 Si4 1.644220 1_555
O45 Zr1 2.119363 1_665
O46 P5 1.557164 1_555
O46 Zr1 2.170553 1_655
O47 P6 1.536463 1_555
O47 Zr1 2.171212 1_555
O48 Si2 1.659187 1_545
O49 P2 1.565171 1_555
O50 Si1 1.645209 1_655
O51 Si0 1.644793 1_555
O51 Zr2 2.116285 1_555
O52 P1 1.558605 1_655
O52 Zr2 2.169003 1_555
O53 P0 1.536020 1_555
O53 Zr2 2.164524 1_555
O54 Si5 1.656198 1_555
O55 Si6 1.661135 1_655
O56 P7 1.551123 1_545
O57 Si7 1.648013 1_545
O58 P8 1.560667 1_555
O59 Si8 1.643116 1_655
O60 P6 1.548179 1_555
O60 Zr3 2.210959 1_555
O61 Si4 1.615951 1_455
O61 Zr3 2.073919 1_555
O62 P5 1.541387 1_565
O62 Zr3 2.222142 1_555
O63 Si3 1.640766 1_565
O63 Zr4 2.124442 1_555
O64 P4 1.546086 1_555
O64 Zr4 2.248600 1_555
O65 P3 1.532224 1_455
O65 Zr4 2.194151 1_555
O66 P0 1.548420 1_565
O66 Zr5 2.205910 1_555
O67 Si0 1.614954 1_555
O67 Zr5 2.080628 1_555
O68 P1 1.540916 1_555
O68 Zr5 2.233828 1_555
O69 P2 1.551377 1_555
O70 Si1 1.633025 1_555
O71 Si2 1.633455 1_555
