# generated using pymatgen
data_MgTe4Mo2WS2
_symmetry_space_group_name_H-M   'P 1'
_cell_length_a   6.82347800
_cell_length_b   6.82351720
_cell_length_c   63.27670000
_cell_angle_alpha   89.99984495
_cell_angle_beta   90.00010471
_cell_angle_gamma   119.99881166
_symmetry_Int_Tables_number   1
_chemical_formula_structural   MgTe4Mo2WS2
_chemical_formula_sum   'Mg8 Te32 Mo16 W8 S16'
_cell_volume   2551.48923401
_cell_formula_units_Z   8
loop_
 _symmetry_equiv_pos_site_id
 _symmetry_equiv_pos_as_xyz
  1  'x, y, z'
loop_
 _atom_site_type_symbol
 _atom_site_label
 _atom_site_symmetry_multiplicity
 _atom_site_fract_x
 _atom_site_fract_y
 _atom_site_fract_z
 _atom_site_occupancy
  Mg  Mg0_0  1  0.31840400  0.17052750  0.42433400  1
  Mg  Mg0_1  1  0.31840400  0.17052750  0.92433400  1
  Mg  Mg0_2  1  0.31840400  0.67052750  0.42433400  1
  Mg  Mg0_3  1  0.31840400  0.67052750  0.92433400  1
  Mg  Mg0_4  1  0.81840400  0.17052750  0.42433400  1
  Mg  Mg0_5  1  0.81840400  0.17052750  0.92433400  1
  Mg  Mg0_6  1  0.81840400  0.67052750  0.42433400  1
  Mg  Mg0_7  1  0.81840400  0.67052750  0.92433400  1
  Te  Te0_0  1  0.33332550  0.16664600  0.02835700  1
  Te  Te0_1  1  0.33332550  0.16664600  0.52835700  1
  Te  Te0_2  1  0.33332550  0.66664600  0.02835700  1
  Te  Te0_3  1  0.33332550  0.66664600  0.52835700  1
  Te  Te0_4  1  0.83332550  0.16664600  0.02835700  1
  Te  Te0_5  1  0.83332550  0.16664600  0.52835700  1
  Te  Te0_6  1  0.83332550  0.66664600  0.02835700  1
  Te  Te0_7  1  0.83332550  0.66664600  0.52835700  1
  Te  Te1_0  1  0.33332150  0.16663800  0.25950700  1
  Te  Te1_1  1  0.33332150  0.16663800  0.75950700  1
  Te  Te1_2  1  0.33332150  0.66663800  0.25950700  1
  Te  Te1_3  1  0.33332150  0.66663800  0.75950700  1
  Te  Te1_4  1  0.83332150  0.16663800  0.25950700  1
  Te  Te1_5  1  0.83332150  0.16663800  0.75950700  1
  Te  Te1_6  1  0.83332150  0.66663800  0.25950700  1
  Te  Te1_7  1  0.83332150  0.66663800  0.75950700  1
  Te  Te2_0  1  0.33332450  0.16664500  0.08733150  1
  Te  Te2_1  1  0.33332450  0.16664500  0.58733150  1
  Te  Te2_2  1  0.33332450  0.66664500  0.08733150  1
  Te  Te2_3  1  0.33332450  0.66664500  0.58733150  1
  Te  Te2_4  1  0.83332450  0.16664500  0.08733150  1
  Te  Te2_5  1  0.83332450  0.16664500  0.58733150  1
  Te  Te2_6  1  0.83332450  0.66664500  0.08733150  1
  Te  Te2_7  1  0.83332450  0.66664500  0.58733150  1
  Te  Te3_0  1  0.33332650  0.16664950  0.31876500  1
  Te  Te3_1  1  0.33332650  0.16664950  0.81876500  1
  Te  Te3_2  1  0.33332650  0.66664950  0.31876500  1
  Te  Te3_3  1  0.33332650  0.66664950  0.81876500  1
  Te  Te3_4  1  0.83332650  0.16664950  0.31876500  1
  Te  Te3_5  1  0.83332650  0.16664950  0.81876500  1
  Te  Te3_6  1  0.83332650  0.66664950  0.31876500  1
  Te  Te3_7  1  0.83332650  0.66664950  0.81876500  1
  Mo  Mo0_0  1  0.16665750  0.33331200  0.05779800  1
  Mo  Mo0_1  1  0.16665750  0.33331200  0.55779800  1
  Mo  Mo0_2  1  0.16665750  0.83331200  0.05779800  1
  Mo  Mo0_3  1  0.16665750  0.83331200  0.55779800  1
  Mo  Mo0_4  1  0.66665750  0.33331200  0.05779800  1
  Mo  Mo0_5  1  0.66665750  0.33331200  0.55779800  1
  Mo  Mo0_6  1  0.66665750  0.83331200  0.05779800  1
  Mo  Mo0_7  1  0.66665750  0.83331200  0.55779800  1
  Mo  Mo1_0  1  0.33334500  0.16669250  0.17349700  1
  Mo  Mo1_1  1  0.33334500  0.16669250  0.67349700  1
  Mo  Mo1_2  1  0.33334500  0.66669250  0.17349700  1
  Mo  Mo1_3  1  0.33334500  0.66669250  0.67349700  1
  Mo  Mo1_4  1  0.83334500  0.16669250  0.17349700  1
  Mo  Mo1_5  1  0.83334500  0.16669250  0.67349700  1
  Mo  Mo1_6  1  0.83334500  0.66669250  0.17349700  1
  Mo  Mo1_7  1  0.83334500  0.66669250  0.67349700  1
  W  W0_0  1  0.16665750  0.33331300  0.28917450  1
  W  W0_1  1  0.16665750  0.33331300  0.78917450  1
  W  W0_2  1  0.16665750  0.83331300  0.28917450  1
  W  W0_3  1  0.16665750  0.83331300  0.78917450  1
  W  W0_4  1  0.66665750  0.33331300  0.28917450  1
  W  W0_5  1  0.66665750  0.33331300  0.78917450  1
  W  W0_6  1  0.66665750  0.83331300  0.28917450  1
  W  W0_7  1  0.66665750  0.83331300  0.78917450  1
  S  S0_0  1  0.16667550  0.33335100  0.19715500  1
  S  S0_1  1  0.16667550  0.33335100  0.69715500  1
  S  S0_2  1  0.16667550  0.83335100  0.19715500  1
  S  S0_3  1  0.16667550  0.83335100  0.69715500  1
  S  S0_4  1  0.66667550  0.33335100  0.19715500  1
  S  S0_5  1  0.66667550  0.33335100  0.69715500  1
  S  S0_6  1  0.66667550  0.83335100  0.19715500  1
  S  S0_7  1  0.66667550  0.83335100  0.69715500  1
  S  S1_0  1  0.16667550  0.33334650  0.14983700  1
  S  S1_1  1  0.16667550  0.33334650  0.64983700  1
  S  S1_2  1  0.16667550  0.83334650  0.14983700  1
  S  S1_3  1  0.16667550  0.83334650  0.64983700  1
  S  S1_4  1  0.66667550  0.33334650  0.14983700  1
  S  S1_5  1  0.66667550  0.33334650  0.64983700  1
  S  S1_6  1  0.66667550  0.83334650  0.14983700  1
  S  S1_7  1  0.66667550  0.83334650  0.64983700  1
loop_
_geom_bond_atom_site_label_1
_geom_bond_atom_site_label_2
_geom_bond_distance
_geom_bond_site_symmetry_2
Mg0_0 Mg0_4 3.411739 1_455
Mg0_0 Mg0_4 3.411739 1_555
Mg0_0 Mg0_2 3.411759 1_555
Mg0_0 Mg0_2 3.411759 1_545
Mg0_0 Mg0_6 3.411810 1_445
Mg0_0 Mg0_6 3.411810 1_555
Mg0_1 Mg0_5 3.411739 1_555
Mg0_1 Mg0_5 3.411739 1_455
Mg0_1 Mg0_3 3.411759 1_555
Mg0_1 Mg0_3 3.411759 1_545
Mg0_1 Mg0_7 3.411810 1_555
Mg0_1 Mg0_7 3.411810 1_445
Mg0_2 Mg0_6 3.411739 1_555
Mg0_2 Mg0_6 3.411739 1_455
Mg0_2 Mg0_4 3.411810 1_455
Mg0_2 Mg0_4 3.411810 1_565
Mg0_3 Mg0_7 3.411739 1_455
Mg0_3 Mg0_7 3.411739 1_555
Mg0_3 Mg0_5 3.411810 1_455
Mg0_3 Mg0_5 3.411810 1_565
Mg0_4 Mg0_6 3.411759 1_545
Mg0_4 Mg0_6 3.411759 1_555
Mg0_5 Mg0_7 3.411759 1_555
Mg0_5 Mg0_7 3.411759 1_545
Te1_0 W0_2 2.721034 1_545
Te1_0 W0_0 2.721071 1_555
Te1_0 W0_4 2.721075 1_555
Te1_1 W0_3 2.721034 1_545
Te1_1 W0_1 2.721071 1_555
Te1_1 W0_5 2.721075 1_555
Te1_2 W0_0 2.721034 1_555
Te1_2 W0_2 2.721071 1_555
Te1_2 W0_6 2.721075 1_555
Te1_3 W0_1 2.721034 1_555
Te1_3 W0_3 2.721071 1_555
Te1_3 W0_7 2.721075 1_555
Te1_4 W0_6 2.721034 1_545
Te1_4 W0_4 2.721071 1_555
Te1_4 W0_0 2.721075 1_655
Te1_5 W0_7 2.721034 1_545
Te1_5 W0_5 2.721071 1_555
Te1_5 W0_1 2.721075 1_655
Te1_6 W0_4 2.721034 1_555
Te1_6 W0_6 2.721071 1_555
Te1_6 W0_2 2.721075 1_655
Te1_7 W0_5 2.721034 1_555
Te1_7 W0_7 2.721071 1_555
Te1_7 W0_3 2.721075 1_655
Te3_0 W0_0 2.717677 1_555
Te3_0 W0_4 2.717696 1_555
Te3_0 W0_2 2.717730 1_545
Te3_1 W0_1 2.717677 1_555
Te3_1 W0_5 2.717696 1_555
Te3_1 W0_3 2.717730 1_545
Te3_2 W0_2 2.717677 1_555
Te3_2 W0_6 2.717696 1_555
Te3_2 W0_0 2.717730 1_555
Te3_3 W0_3 2.717677 1_555
Te3_3 W0_7 2.717696 1_555
Te3_3 W0_1 2.717730 1_555
Te3_4 W0_4 2.717677 1_555
Te3_4 W0_0 2.717696 1_655
Te3_4 W0_6 2.717730 1_545
Te3_5 W0_5 2.717677 1_555
Te3_5 W0_1 2.717696 1_655
Te3_5 W0_7 2.717730 1_545
Te3_6 W0_6 2.717677 1_555
Te3_6 W0_2 2.717696 1_655
Te3_6 W0_4 2.717730 1_555
Te3_7 W0_7 2.717677 1_555
Te3_7 W0_3 2.717696 1_655
Te3_7 W0_5 2.717730 1_555
Mo0_0 Te0_0 2.711181 1_555
Mo0_0 Te0_4 2.711190 1_455
Mo0_0 Te0_2 2.711205 1_555
Mo0_0 Te2_0 2.715199 1_555
Mo0_0 Te2_4 2.715221 1_455
Mo0_0 Te2_2 2.715231 1_555
Mo0_1 Te0_1 2.711181 1_555
Mo0_1 Te0_5 2.711190 1_455
Mo0_1 Te0_3 2.711205 1_555
Mo0_1 Te2_1 2.715199 1_555
Mo0_1 Te2_5 2.715221 1_455
Mo0_1 Te2_3 2.715231 1_555
Mo0_2 Te0_2 2.711181 1_555
Mo0_2 Te0_6 2.711190 1_455
Mo0_2 Te0_0 2.711205 1_565
Mo0_2 Te2_2 2.715199 1_555
Mo0_2 Te2_6 2.715221 1_455
Mo0_2 Te2_0 2.715231 1_565
Mo0_3 Te0_3 2.711181 1_555
Mo0_3 Te0_7 2.711190 1_455
Mo0_3 Te0_1 2.711205 1_565
Mo0_3 Te2_3 2.715199 1_555
Mo0_3 Te2_7 2.715221 1_455
Mo0_3 Te2_1 2.715231 1_565
Mo0_4 Te0_4 2.711181 1_555
Mo0_4 Te0_0 2.711190 1_555
Mo0_4 Te0_6 2.711205 1_555
Mo0_4 Te2_4 2.715199 1_555
Mo0_4 Te2_0 2.715221 1_555
Mo0_4 Te2_6 2.715231 1_555
Mo0_5 Te0_5 2.711181 1_555
Mo0_5 Te0_1 2.711190 1_555
Mo0_5 Te0_7 2.711205 1_555
Mo0_5 Te2_5 2.715199 1_555
Mo0_5 Te2_1 2.715221 1_555
Mo0_5 Te2_7 2.715231 1_555
Mo0_6 Te0_6 2.711181 1_555
Mo0_6 Te0_2 2.711190 1_555
Mo0_6 Te0_4 2.711205 1_565
Mo0_6 Te2_6 2.715199 1_555
Mo0_6 Te2_2 2.715221 1_555
Mo0_6 Te2_4 2.715231 1_565
Mo0_7 Te0_7 2.711181 1_555
Mo0_7 Te0_3 2.711190 1_555
Mo0_7 Te0_5 2.711205 1_565
Mo0_7 Te2_7 2.715199 1_555
Mo0_7 Te2_3 2.715221 1_555
Mo0_7 Te2_5 2.715231 1_565
Mo1_0 S0_0 2.474038 1_555
Mo1_0 S0_4 2.474070 1_555
Mo1_0 S1_0 2.474087 1_555
Mo1_0 S0_2 2.474129 1_545
Mo1_0 S1_4 2.474148 1_555
Mo1_0 S1_2 2.474231 1_545
Mo1_1 S0_1 2.474038 1_555
Mo1_1 S0_5 2.474070 1_555
Mo1_1 S1_1 2.474087 1_555
Mo1_1 S0_3 2.474129 1_545
Mo1_1 S1_5 2.474148 1_555
Mo1_1 S1_3 2.474231 1_545
Mo1_2 S0_2 2.474038 1_555
Mo1_2 S0_6 2.474070 1_555
Mo1_2 S1_2 2.474087 1_555
Mo1_2 S0_0 2.474129 1_555
Mo1_2 S1_6 2.474148 1_555
Mo1_2 S1_0 2.474231 1_555
Mo1_3 S0_3 2.474038 1_555
Mo1_3 S0_7 2.474070 1_555
Mo1_3 S1_3 2.474087 1_555
Mo1_3 S0_1 2.474129 1_555
Mo1_3 S1_7 2.474148 1_555
Mo1_3 S1_1 2.474231 1_555
Mo1_4 S0_4 2.474038 1_555
Mo1_4 S0_0 2.474070 1_655
Mo1_4 S1_4 2.474087 1_555
Mo1_4 S0_6 2.474129 1_545
Mo1_4 S1_0 2.474148 1_655
Mo1_4 S1_6 2.474231 1_545
Mo1_5 S0_5 2.474038 1_555
Mo1_5 S0_1 2.474070 1_655
Mo1_5 S1_5 2.474087 1_555
Mo1_5 S0_7 2.474129 1_545
Mo1_5 S1_1 2.474148 1_655
Mo1_5 S1_7 2.474231 1_545
Mo1_6 S0_6 2.474038 1_555
Mo1_6 S0_2 2.474070 1_655
Mo1_6 S1_6 2.474087 1_555
Mo1_6 S0_4 2.474129 1_555
Mo1_6 S1_2 2.474148 1_655
Mo1_6 S1_4 2.474231 1_555
Mo1_7 S0_7 2.474038 1_555
Mo1_7 S0_3 2.474070 1_655
Mo1_7 S1_7 2.474087 1_555
Mo1_7 S0_5 2.474129 1_555
Mo1_7 S1_3 2.474148 1_655
Mo1_7 S1_5 2.474231 1_555
