# generated using pymatgen
data_AlPd5I2
_symmetry_space_group_name_H-M   'P 1'
_cell_length_a   4.07830993
_cell_length_b   4.07831037
_cell_length_c   10.53546241
_cell_angle_alpha   101.16011680
_cell_angle_beta   101.16011891
_cell_angle_gamma   90.00000777
_symmetry_Int_Tables_number   1
_chemical_formula_structural   AlPd5I2
_chemical_formula_sum   'Al1 Pd5 I2'
_cell_volume   168.53989651
_cell_formula_units_Z   1
loop_
 _symmetry_equiv_pos_site_id
 _symmetry_equiv_pos_as_xyz
  1  'x, y, z'
loop_
 _atom_site_type_symbol
 _atom_site_label
 _atom_site_symmetry_multiplicity
 _atom_site_fract_x
 _atom_site_fract_y
 _atom_site_fract_z
 _atom_site_occupancy
  Al  Al0  1  0.50000000  0.50000000  0.00000000  1
  Pd  Pd0  1  0.08524822  0.58524822  0.17049444  1
  Pd  Pd1  1  0.58524822  0.08524822  0.17049444  1
  Pd  Pd2  1  0.41475178  0.91475178  0.82950556  1
  Pd  Pd3  1  0.91475178  0.41475178  0.82950556  1
  Pd  Pd4  1  -0.00000000  0.00000000  0.00000000  1
  I  I0  1  0.17734735  0.17734735  0.35469470  1
  I  I1  1  0.82265265  0.82265265  0.64530530  1
loop_
_geom_bond_atom_site_label_1
_geom_bond_atom_site_label_2
_geom_bond_distance
_geom_bond_site_symmetry_2
Al0 Pd0 2.672614 1_555
Al0 Pd3 2.672614 1_554
Al0 Pd2 2.672614 1_554
Al0 Pd1 2.672614 1_555
Al0 Pd3 2.672620 1_454
Al0 Pd0 2.672620 1_655
Al0 Pd1 2.672620 1_565
Al0 Pd2 2.672620 1_544
Al0 Pd4 2.883801 1_555
Al0 Pd4 2.883801 1_665
Al0 Pd4 2.883801 1_565
Al0 Pd4 2.883801 1_655
Pd0 Pd4 2.672614 1_565
Pd0 Pd4 2.672620 1_555
Pd1 Pd4 2.672614 1_655
Pd1 Pd4 2.672620 1_555
Pd2 Pd4 2.672614 1_566
Pd2 Pd4 2.672620 1_666
Pd3 Pd4 2.672614 1_656
Pd3 Pd4 2.672620 1_666
I0 Pd1 2.764422 1_455
I0 Pd0 2.764422 1_545
I0 Pd1 2.764428 1_555
I0 Pd0 2.764428 1_555
I1 Pd2 2.764422 1_655
I1 Pd3 2.764422 1_565
I1 Pd2 2.764428 1_555
I1 Pd3 2.764428 1_555
