# generated using pymatgen
data_Na2ScGaSi(SO6)2
_symmetry_space_group_name_H-M   'P 1'
_cell_length_a   8.81207221
_cell_length_b   8.85508597
_cell_length_c   22.55583606
_cell_angle_alpha   89.44826753
_cell_angle_beta   89.60282103
_cell_angle_gamma   119.83335339
_symmetry_Int_Tables_number   1
_chemical_formula_structural   Na2ScGaSi(SO6)2
_chemical_formula_sum   'Na12 Sc6 Ga6 Si6 S12 O72'
_cell_volume   1526.60764559
_cell_formula_units_Z   6
loop_
 _symmetry_equiv_pos_site_id
 _symmetry_equiv_pos_as_xyz
  1  'x, y, z'
loop_
 _atom_site_type_symbol
 _atom_site_label
 _atom_site_symmetry_multiplicity
 _atom_site_fract_x
 _atom_site_fract_y
 _atom_site_fract_z
 _atom_site_occupancy
  Na  Na0  1  -0.00007397  0.62760574  0.25034127  1
  Na  Na1  1  0.37386270  0.00227044  0.74948039  1
  Na  Na2  1  0.66236558  0.96730647  0.58883454  1
  Na  Na3  1  0.03051754  0.33887754  0.09010474  1
  Na  Na4  1  0.98008334  0.67395299  0.92248374  1
  Na  Na5  1  0.32742568  0.02458778  0.42047553  1
  Na  Na6  1  0.00719173  0.99330818  0.50018914  1
  Na  Na7  1  0.00934430  0.98924101  0.00082212  1
  Na  Na8  1  0.66179023  0.31581958  0.83251373  1
  Na  Na9  1  0.68035808  0.33642601  0.33451314  1
  Na  Na10  1  0.33507745  0.66412832  0.16876981  1
  Na  Na11  1  0.33421203  0.66394728  0.66648233  1
  Sc  Sc0  1  0.99663303  0.00756050  0.85080063  1
  Sc  Sc1  1  0.00118705  0.99602645  0.15026961  1
  Sc  Sc2  1  0.66004286  0.33021893  0.98119509  1
  Sc  Sc3  1  0.32618478  0.68002754  0.02018245  1
  Sc  Sc4  1  0.31787678  0.67776447  0.51807267  1
  Sc  Sc5  1  0.35254340  0.68655981  0.81245146  1
  Ga  Ga0  1  0.98564442  0.99413618  0.35018391  1
  Ga  Ga1  1  0.00868621  0.00056286  0.64922067  1
  Ga  Ga2  1  0.66535814  0.31660428  0.68259342  1
  Ga  Ga3  1  0.68690872  0.32919509  0.18624772  1
  Ga  Ga4  1  0.66861189  0.34599885  0.48378081  1
  Ga  Ga5  1  0.30253480  0.63416365  0.31750547  1
  Si  Si0  1  -0.00002252  0.28751880  0.25088456  1
  Si  Si1  1  0.71738816  0.00800059  0.74411002  1
  Si  Si2  1  0.37246028  0.05168486  0.58308646  1
  Si  Si3  1  0.95428984  0.62825059  0.08323790  1
  Si  Si4  1  0.33534782  0.96982679  0.91411505  1
  Si  Si5  1  0.02515561  0.66518353  0.41417953  1
  S  S0  1  0.30258703  0.00520473  0.25146142  1
  S  S1  1  0.69807288  0.70408667  0.25259316  1
  S  S2  1  0.29445947  0.29480777  0.74719096  1
  S  S3  1  0.99086972  0.70048995  0.74836735  1
  S  S4  1  0.95521171  0.33316886  0.58350344  1
  S  S5  1  0.66947831  0.62036442  0.58495903  1
  S  S6  1  0.66437003  0.04125473  0.08547417  1
  S  S7  1  0.38040432  0.33392746  0.08661782  1
  S  S8  1  0.62449766  0.66571023  0.91697166  1
  S  S9  1  0.04427696  0.37406551  0.91731378  1
  S  S10  1  0.62530030  0.95537280  0.41494384  1
  S  S11  1  0.33352506  0.37555193  0.41650294  1
  O  O0  1  0.22381524  0.03097714  0.30605163  1
  O  O1  1  0.81750631  0.78061563  0.30415283  1
  O  O2  1  0.97252900  0.16349742  0.30832802  1
  O  O3  1  0.21844886  0.18144093  0.80085193  1
  O  O4  1  0.96788837  0.77783937  0.80342576  1
  O  O5  1  0.82878109  0.03039530  0.80327333  1
  O  O6  1  0.80848443  0.97901890  0.68461746  1
  O  O7  1  0.18724130  0.21231114  0.69446888  1
  O  O8  1  0.03342481  0.82181170  0.69652541  1
  O  O9  1  0.78007571  0.81145882  0.19844114  1
  O  O10  1  0.02686896  0.20939828  0.18914807  1
  O  O11  1  0.18367599  0.96797056  0.20012579  1
  O  O12  1  0.87989386  0.36604336  0.63764604  1
  O  O13  1  0.49596266  0.13179954  0.64132762  1
  O  O14  1  0.64765665  0.51382370  0.63876518  1
  O  O15  1  0.86604749  0.50177642  0.14257005  1
  O  O16  1  0.63186939  0.11772877  0.13891755  1
  O  O17  1  0.48406330  0.35083199  0.13955628  1
  O  O18  1  0.45707079  0.30773683  0.03190873  1
  O  O19  1  0.84770257  0.53881825  0.02270642  1
  O  O20  1  0.69200421  0.14947800  0.03187936  1
  O  O21  1  0.46698099  0.16655901  0.52175340  1
  O  O22  1  0.69874533  0.54519688  0.53053394  1
  O  O23  1  0.84425370  0.30468932  0.53081765  1
  O  O24  1  0.54067486  0.68358791  0.97062061  1
  O  O25  1  0.14462389  0.44982859  0.97219176  1
  O  O26  1  0.29806922  0.83807933  0.97086053  1
  O  O27  1  0.54987914  0.85333347  0.47117651  1
  O  O28  1  0.31110717  0.45893665  0.46928824  1
  O  O29  1  0.15922809  0.71270254  0.46997997  1
  O  O30  1  0.11570698  0.63594393  0.35472444  1
  O  O31  1  0.51132231  0.86819949  0.36371245  1
  O  O32  1  0.36600564  0.48510149  0.36198128  1
  O  O33  1  0.13107076  0.48431600  0.86458432  1
  O  O34  1  0.35754860  0.87747853  0.85416855  1
  O  O35  1  0.52023270  0.64137410  0.86346355  1
  O  O36  1  0.02050217  0.85062150  0.40484695  1
  O  O37  1  0.80257540  0.97562454  0.41018983  1
  O  O38  1  0.17720848  0.19897035  0.41108699  1
  O  O39  1  0.02137848  0.19795064  0.91284298  1
  O  O40  1  0.15185587  0.97364321  0.90970125  1
  O  O41  1  0.80155984  0.82239913  0.91148461  1
  O  O42  1  0.96727622  0.17182635  0.58861011  1
  O  O43  1  0.17521107  0.02667237  0.59180691  1
  O  O44  1  0.82449039  0.79985317  0.58834080  1
  O  O45  1  0.97968330  0.82175191  0.08981567  1
  O  O46  1  0.82791606  0.03237223  0.09033987  1
  O  O47  1  0.19943370  0.17985908  0.09008357  1
  O  O48  1  0.68782311  0.17959985  0.74204744  1
  O  O49  1  0.47263643  0.31403744  0.74141275  1
  O  O50  1  0.83237747  0.53022995  0.74018186  1
  O  O51  1  0.68037381  0.52834975  0.24600631  1
  O  O52  1  0.82625201  0.31657937  0.24752314  1
  O  O53  1  0.47426215  0.16516374  0.24135619  1
  O  O54  1  0.65137804  0.51273302  0.92012726  1
  O  O55  1  0.86966794  0.36237351  0.92142610  1
  O  O56  1  0.50811304  0.15864240  0.92069707  1
  O  O57  1  0.63723466  0.12942421  0.41986516  1
  O  O58  1  0.49014572  0.35174792  0.42023599  1
  O  O59  1  0.83533592  0.48888532  0.42636482  1
  O  O60  1  0.36071856  0.49081833  0.08051192  1
  O  O61  1  0.14542308  0.63335808  0.08109494  1
  O  O62  1  0.51365982  0.86461036  0.08010359  1
  O  O63  1  0.36350945  0.86006407  0.57792550  1
  O  O64  1  0.51099994  0.63931607  0.57950014  1
  O  O65  1  0.13306339  0.48512857  0.57715303  1
  O  O66  1  0.32245518  0.84766576  0.25681813  1
  O  O67  1  0.52639706  0.69323172  0.26111218  1
  O  O68  1  0.17216912  0.48857656  0.25570929  1
  O  O69  1  0.30755416  0.46568200  0.75438609  1
  O  O70  1  0.14896246  0.68003668  0.75351496  1
  O  O71  1  0.51719668  0.83604138  0.74820442  1
loop_
_geom_bond_atom_site_label_1
_geom_bond_atom_site_label_2
_geom_bond_distance
_geom_bond_site_symmetry_2
Na0 O68 2.385989 1_555
Na0 O52 2.396372 1_455
Na0 O51 2.500887 1_455
Na0 O66 2.529270 1_555
Na0 O30 2.559597 1_555
Na0 O15 2.706747 1_455
Na0 O11 2.835824 1_555
Na0 O1 2.839846 1_455
Na1 O71 2.369181 1_545
Na1 O48 2.411263 1_555
Na1 O49 2.451451 1_555
Na1 O70 2.538487 1_545
Na1 O34 2.569950 1_545
Na1 O13 2.665735 1_555
Na1 O3 2.812600 1_555
Na1 O8 2.880407 1_545
Na2 O63 2.328751 1_555
Na2 O42 2.378527 1_565
Na2 O6 2.499262 1_555
Na2 O44 2.519477 1_555
Na2 O64 2.533795 1_555
Na2 O13 2.794291 1_565
Na2 O27 2.852521 1_555
Na2 O23 2.887603 1_565
Na3 O61 2.286104 1_555
Na3 O46 2.394232 1_455
Na3 O10 2.493870 1_555
Na3 O47 2.506765 1_555
Na3 O60 2.532628 1_555
Na3 O15 2.769640 1_455
Na3 O25 2.824822 1_554
Na3 O20 2.924889 1_455
Na4 O40 2.323662 1_655
Na4 O55 2.426993 1_555
Na4 O54 2.514022 1_555
Na4 O41 2.514148 1_555
Na4 O19 2.534867 1_556
Na4 O26 2.678760 1_655
Na4 O4 2.850306 1_555
Na4 O33 2.921789 1_655
Na5 O36 2.385505 1_545
Na5 O57 2.406828 1_555
Na5 O38 2.492570 1_555
Na5 O58 2.513040 1_555
Na5 O21 2.620562 1_555
Na5 O29 2.629814 1_545
Na5 O0 2.753044 1_555
Na5 O31 2.901944 1_545
Na6 O43 2.483726 1_565
Na6 O36 2.535987 1_555
Na6 O44 2.574105 1_455
Na6 O38 2.602589 1_565
Na6 O37 2.678162 1_455
Na6 O42 2.684122 1_465
Na7 O45 2.418064 1_455
Na7 O40 2.441868 1_554
Na7 O47 2.647208 1_565
Na7 O41 2.648181 1_454
Na7 O39 2.663895 1_564
Na7 O46 2.712285 1_465
Na8 O56 2.400290 1_555
Na8 O48 2.446974 1_555
Na8 O55 2.619745 1_555
Na8 O49 2.650090 1_555
Na8 O54 2.679037 1_555
Na8 O50 2.691198 1_555
Na9 O52 2.393775 1_555
Na9 O59 2.497733 1_555
Na9 O57 2.537627 1_555
Na9 O58 2.598643 1_555
Na9 O51 2.609238 1_555
Na9 O53 2.717966 1_555
Na10 O68 2.450464 1_555
Na10 O61 2.526115 1_555
Na10 O62 2.595422 1_555
Na10 O60 2.601327 1_555
Na10 O66 2.614756 1_555
Na10 O67 2.621790 1_555
Na11 O71 2.443480 1_555
Na11 O63 2.559765 1_555
Na11 O69 2.566114 1_555
Na11 O64 2.574439 1_555
Na11 O70 2.594462 1_555
Na11 O65 2.650925 1_555
Ga0 O2 1.816727 1_565
Ga0 O36 1.895536 1_655
Ga0 O1 2.029787 1_555
Ga0 O37 2.040492 1_555
Ga0 O0 2.187635 1_665
Ga0 O38 2.249526 1_665
Ga1 O6 1.851727 1_445
Ga1 O43 1.874618 1_555
Ga1 O8 2.001365 1_545
Ga1 O7 2.038845 1_555
Ga1 O42 2.195384 1_455
Ga1 O44 2.210589 1_445
Ga2 O13 1.841391 1_555
Ga2 O48 1.876350 1_555
Ga2 O12 1.983663 1_555
Ga2 O14 2.071582 1_555
Ga2 O49 2.138837 1_555
Ga2 O50 2.176142 1_555
Ga3 O15 1.829525 1_555
Ga3 O52 1.894073 1_555
Ga3 O16 2.005853 1_555
Ga3 O53 2.095491 1_555
Ga3 O17 2.168858 1_555
Ga3 O51 2.252988 1_555
Ga4 O59 1.878598 1_555
Ga4 O21 1.886541 1_555
Ga4 O22 1.966641 1_555
Ga4 O23 2.057579 1_555
Ga4 O58 2.153999 1_555
Ga4 O57 2.316022 1_555
Ga5 O30 1.849965 1_555
Ga5 O68 1.872925 1_555
Ga5 O32 1.943792 1_555
Ga5 O67 2.169988 1_555
Ga5 O31 2.245143 1_555
Ga5 O66 2.257320 1_555
O0 S0 1.483666 1_555
O1 S1 1.497307 1_555
O2 Si0 1.627067 1_655
O3 S2 1.489209 1_555
O3 Sc0 2.098177 1_455
O4 S3 1.484365 1_555
O4 Sc0 2.208381 1_565
O5 Si1 1.616564 1_555
O5 Sc0 1.921796 1_555
O6 Si1 1.645492 1_565
O7 S2 1.478542 1_555
O8 S3 1.493660 1_455
O9 S1 1.483208 1_555
O9 Sc1 2.101479 1_655
O10 Si0 1.628151 1_555
O10 Sc1 1.999846 1_545
O11 S0 1.492617 1_565
O11 Sc1 2.080751 1_555
O12 S4 1.484756 1_555
O13 Si2 1.638000 1_555
O14 S5 1.481274 1_555
O15 Si3 1.655346 1_555
O16 S6 1.482443 1_555
O17 S7 1.471436 1_555
O18 S7 1.477442 1_555
O18 Sc2 2.039654 1_554
O19 Si3 1.634635 1_555
O19 Sc2 2.009706 1_554
O20 S6 1.476647 1_555
O20 Sc2 2.089386 1_554
O21 Si2 1.660203 1_555
O22 S5 1.482806 1_555
O23 S4 1.486070 1_555
O24 S8 1.463778 1_555
O24 Sc3 2.175761 1_556
O25 S9 1.484967 1_555
O25 Sc3 2.169866 1_556
O26 Si4 1.640520 1_555
O26 Sc3 1.891202 1_556
O27 S10 1.495215 1_555
O27 Sc4 2.119326 1_555
O28 S11 1.469897 1_555
O28 Sc4 2.212731 1_555
O29 Si5 1.641103 1_555
O29 Sc4 1.916198 1_555
O30 Si5 1.643049 1_555
O31 S10 1.483866 1_555
O32 S11 1.493724 1_555
O33 S9 1.474707 1_555
O33 Sc5 2.202040 1_555
O34 Si4 1.646841 1_555
O34 Sc5 1.924192 1_555
O35 S8 1.473314 1_555
O35 Sc5 2.066538 1_555
O36 Si5 1.674169 1_555
O37 S10 1.484109 1_555
O38 S11 1.490078 1_555
O39 S9 1.474170 1_555
O39 Sc0 2.128882 1_455
O40 Si4 1.637711 1_555
O40 Sc0 2.037764 1_465
O41 S8 1.488284 1_555
O41 Sc0 2.153306 1_565
O42 S4 1.487913 1_555
O43 Si2 1.649356 1_555
O44 S5 1.497173 1_555
O45 Si3 1.622324 1_555
O45 Sc1 2.007474 1_655
O46 S6 1.486621 1_555
O46 Sc1 2.184349 1_645
O47 S7 1.497353 1_555
O47 Sc1 2.154024 1_545
O48 Si1 1.664840 1_555
O49 S2 1.497313 1_555
O50 S3 1.473649 1_555
O51 S1 1.493767 1_555
O52 Si0 1.675936 1_655
O53 S0 1.484544 1_555
O54 S8 1.487891 1_555
O54 Sc2 2.143958 1_555
O55 S9 1.492031 1_655
O55 Sc2 2.178436 1_555
O56 Si4 1.615738 1_545
O56 Sc2 2.001070 1_555
O57 S10 1.496994 1_545
O58 S11 1.499020 1_555
O59 Si5 1.642510 1_655
O60 S7 1.488489 1_555
O60 Sc3 2.284872 1_555
O61 Si3 1.662594 1_455
O61 Sc3 1.974721 1_555
O62 S6 1.471106 1_565
O62 Sc3 2.148122 1_555
O63 Si2 1.664252 1_565
O63 Sc4 1.998454 1_555
O64 S5 1.492905 1_555
O64 Sc4 2.352004 1_555
O65 S4 1.477278 1_455
O65 Sc4 2.121321 1_555
O66 S0 1.493784 1_565
O67 S1 1.478418 1_555
O68 Si0 1.673964 1_555
O69 S2 1.469835 1_555
O69 Sc5 2.232278 1_555
O70 S3 1.496650 1_455
O70 Sc5 2.218177 1_555
O71 Si1 1.661805 1_565
O71 Sc5 1.995088 1_555
