# generated using pymatgen
data_TlV5S8
_symmetry_space_group_name_H-M   'P 1'
_cell_length_a   17.87418396
_cell_length_b   17.87418396
_cell_length_c   17.10344974
_cell_angle_alpha   75.54709790
_cell_angle_beta   75.54709790
_cell_angle_gamma   21.03118486
_symmetry_Int_Tables_number   1
_chemical_formula_structural   TlV5S8
_chemical_formula_sum   'Tl8 V40 S64'
_cell_volume   1896.77920294
_cell_formula_units_Z   8
loop_
 _symmetry_equiv_pos_site_id
 _symmetry_equiv_pos_as_xyz
  1  'x, y, z'
loop_
 _atom_site_type_symbol
 _atom_site_label
 _atom_site_symmetry_multiplicity
 _atom_site_fract_x
 _atom_site_fract_y
 _atom_site_fract_z
 _atom_site_occupancy
  Tl  Tl0_0  1  0.49273450  0.00726550  0.00000000  1
  Tl  Tl0_1  1  0.49273450  0.00726550  0.50000000  1
  Tl  Tl0_2  1  0.49273450  0.50726550  0.00000000  1
  Tl  Tl0_3  1  0.49273450  0.50726550  0.50000000  1
  Tl  Tl0_4  1  0.99273450  0.00726550  0.00000000  1
  Tl  Tl0_5  1  0.99273450  0.00726550  0.50000000  1
  Tl  Tl0_6  1  0.99273450  0.50726550  0.00000000  1
  Tl  Tl0_7  1  0.99273450  0.50726550  0.50000000  1
  V  V0_0  1  0.40767600  0.44410200  0.24841150  1
  V  V0_1  1  0.40767600  0.44410200  0.74841150  1
  V  V0_2  1  0.40767600  0.94410200  0.24841150  1
  V  V0_3  1  0.40767600  0.94410200  0.74841150  1
  V  V0_4  1  0.90767600  0.44410200  0.24841150  1
  V  V0_5  1  0.90767600  0.44410200  0.74841150  1
  V  V0_6  1  0.90767600  0.94410200  0.24841150  1
  V  V0_7  1  0.90767600  0.94410200  0.74841150  1
  V  V1_0  1  0.05589800  0.09232400  0.25158850  1
  V  V1_1  1  0.05589800  0.09232400  0.75158850  1
  V  V1_2  1  0.05589800  0.59232400  0.25158850  1
  V  V1_3  1  0.05589800  0.59232400  0.75158850  1
  V  V1_4  1  0.55589800  0.09232400  0.25158850  1
  V  V1_5  1  0.55589800  0.09232400  0.75158850  1
  V  V1_6  1  0.55589800  0.59232400  0.25158850  1
  V  V1_7  1  0.55589800  0.59232400  0.75158850  1
  V  V2_0  1  0.23163100  0.26836900  0.25000000  1
  V  V2_1  1  0.23163100  0.26836900  0.75000000  1
  V  V2_2  1  0.23163100  0.76836900  0.25000000  1
  V  V2_3  1  0.23163100  0.76836900  0.75000000  1
  V  V2_4  1  0.73163100  0.26836900  0.25000000  1
  V  V2_5  1  0.73163100  0.26836900  0.75000000  1
  V  V2_6  1  0.73163100  0.76836900  0.25000000  1
  V  V2_7  1  0.73163100  0.76836900  0.75000000  1
  V  V3_0  1  0.08700500  0.12389400  0.07069750  1
  V  V3_1  1  0.08700500  0.12389400  0.57069750  1
  V  V3_2  1  0.08700500  0.62389400  0.07069750  1
  V  V3_3  1  0.08700500  0.62389400  0.57069750  1
  V  V3_4  1  0.58700500  0.12389400  0.07069750  1
  V  V3_5  1  0.58700500  0.12389400  0.57069750  1
  V  V3_6  1  0.58700500  0.62389400  0.07069750  1
  V  V3_7  1  0.58700500  0.62389400  0.57069750  1
  V  V4_0  1  0.37610600  0.41299500  0.42930250  1
  V  V4_1  1  0.37610600  0.41299500  0.92930250  1
  V  V4_2  1  0.37610600  0.91299500  0.42930250  1
  V  V4_3  1  0.37610600  0.91299500  0.92930250  1
  V  V4_4  1  0.87610600  0.41299500  0.42930250  1
  V  V4_5  1  0.87610600  0.41299500  0.92930250  1
  V  V4_6  1  0.87610600  0.91299500  0.42930250  1
  V  V4_7  1  0.87610600  0.91299500  0.92930250  1
  S  S0_0  1  0.01866950  0.05559200  0.16031300  1
  S  S0_1  1  0.01866950  0.05559200  0.66031300  1
  S  S0_2  1  0.01866950  0.55559200  0.16031300  1
  S  S0_3  1  0.01866950  0.55559200  0.66031300  1
  S  S0_4  1  0.51866950  0.05559200  0.16031300  1
  S  S0_5  1  0.51866950  0.05559200  0.66031300  1
  S  S0_6  1  0.51866950  0.55559200  0.16031300  1
  S  S0_7  1  0.51866950  0.55559200  0.66031300  1
  S  S1_0  1  0.44440800  0.48133050  0.33968700  1
  S  S1_1  1  0.44440800  0.48133050  0.83968700  1
  S  S1_2  1  0.44440800  0.98133050  0.33968700  1
  S  S1_3  1  0.44440800  0.98133050  0.83968700  1
  S  S1_4  1  0.94440800  0.48133050  0.33968700  1
  S  S1_5  1  0.94440800  0.48133050  0.83968700  1
  S  S1_6  1  0.94440800  0.98133050  0.33968700  1
  S  S1_7  1  0.94440800  0.98133050  0.83968700  1
  S  S2_0  1  0.18945750  0.22565150  0.16001800  1
  S  S2_1  1  0.18945750  0.22565150  0.66001800  1
  S  S2_2  1  0.18945750  0.72565150  0.16001800  1
  S  S2_3  1  0.18945750  0.72565150  0.66001800  1
  S  S2_4  1  0.68945750  0.22565150  0.16001800  1
  S  S2_5  1  0.68945750  0.22565150  0.66001800  1
  S  S2_6  1  0.68945750  0.72565150  0.16001800  1
  S  S2_7  1  0.68945750  0.72565150  0.66001800  1
  S  S3_0  1  0.27434850  0.31054250  0.33998200  1
  S  S3_1  1  0.27434850  0.31054250  0.83998200  1
  S  S3_2  1  0.27434850  0.81054250  0.33998200  1
  S  S3_3  1  0.27434850  0.81054250  0.83998200  1
  S  S3_4  1  0.77434850  0.31054250  0.33998200  1
  S  S3_5  1  0.77434850  0.31054250  0.83998200  1
  S  S3_6  1  0.77434850  0.81054250  0.33998200  1
  S  S3_7  1  0.77434850  0.81054250  0.83998200  1
  S  S4_0  1  0.35216700  0.38894400  0.16998050  1
  S  S4_1  1  0.35216700  0.38894400  0.66998050  1
  S  S4_2  1  0.35216700  0.88894400  0.16998050  1
  S  S4_3  1  0.35216700  0.88894400  0.66998050  1
  S  S4_4  1  0.85216700  0.38894400  0.16998050  1
  S  S4_5  1  0.85216700  0.38894400  0.66998050  1
  S  S4_6  1  0.85216700  0.88894400  0.16998050  1
  S  S4_7  1  0.85216700  0.88894400  0.66998050  1
  S  S5_0  1  0.11105600  0.14783300  0.33001950  1
  S  S5_1  1  0.11105600  0.14783300  0.83001950  1
  S  S5_2  1  0.11105600  0.64783300  0.33001950  1
  S  S5_3  1  0.11105600  0.64783300  0.83001950  1
  S  S5_4  1  0.61105600  0.14783300  0.33001950  1
  S  S5_5  1  0.61105600  0.14783300  0.83001950  1
  S  S5_6  1  0.61105600  0.64783300  0.33001950  1
  S  S5_7  1  0.61105600  0.64783300  0.83001950  1
  S  S6_0  1  0.31204200  0.34869900  0.49990750  1
  S  S6_1  1  0.31204200  0.34869900  0.99990750  1
  S  S6_2  1  0.31204200  0.84869900  0.49990750  1
  S  S6_3  1  0.31204200  0.84869900  0.99990750  1
  S  S6_4  1  0.81204200  0.34869900  0.49990750  1
  S  S6_5  1  0.81204200  0.34869900  0.99990750  1
  S  S6_6  1  0.81204200  0.84869900  0.49990750  1
  S  S6_7  1  0.81204200  0.84869900  0.99990750  1
  S  S7_0  1  0.15130100  0.18795800  0.00009250  1
  S  S7_1  1  0.15130100  0.18795800  0.50009250  1
  S  S7_2  1  0.15130100  0.68795800  0.00009250  1
  S  S7_3  1  0.15130100  0.68795800  0.50009250  1
  S  S7_4  1  0.65130100  0.18795800  0.00009250  1
  S  S7_5  1  0.65130100  0.18795800  0.50009250  1
  S  S7_6  1  0.65130100  0.68795800  0.00009250  1
  S  S7_7  1  0.65130100  0.68795800  0.50009250  1
loop_
_geom_bond_atom_site_label_1
_geom_bond_atom_site_label_2
_geom_bond_distance
_geom_bond_site_symmetry_2
Tl0_0 Tl0_6 3.262094 1_455
Tl0_0 Tl0_6 3.262094 1_545
Tl0_1 Tl0_7 3.262094 1_545
Tl0_1 Tl0_7 3.262094 1_455
Tl0_2 Tl0_4 3.262094 1_555
Tl0_2 Tl0_4 3.262094 1_465
Tl0_3 Tl0_5 3.262094 1_465
Tl0_3 Tl0_5 3.262094 1_555
S0_0 V1_0 2.270842 1_555
S0_0 V2_4 2.387095 1_455
S0_0 V2_2 2.387917 1_545
S0_0 V3_0 2.499356 1_555
S0_0 Tl0_4 3.323148 1_455
S0_1 V1_1 2.270842 1_555
S0_1 V2_5 2.387095 1_455
S0_1 V2_3 2.387917 1_545
S0_1 V3_1 2.499356 1_555
S0_1 Tl0_5 3.323148 1_455
S0_2 V1_2 2.270842 1_555
S0_2 V2_6 2.387095 1_455
S0_2 V2_0 2.387917 1_555
S0_2 V3_2 2.499356 1_555
S0_2 Tl0_6 3.323148 1_455
S0_3 V1_3 2.270842 1_555
S0_3 V2_7 2.387095 1_455
S0_3 V2_1 2.387917 1_555
S0_3 V3_3 2.499356 1_555
S0_3 Tl0_7 3.323148 1_455
S0_4 V1_4 2.270842 1_555
S0_4 V2_0 2.387095 1_555
S0_4 V2_6 2.387917 1_545
S0_4 V3_4 2.499356 1_555
S0_4 Tl0_0 3.323148 1_555
S0_5 V1_5 2.270842 1_555
S0_5 V2_1 2.387095 1_555
S0_5 V2_7 2.387917 1_545
S0_5 V3_5 2.499356 1_555
S0_5 Tl0_1 3.323148 1_555
S0_6 V1_6 2.270842 1_555
S0_6 V2_2 2.387095 1_555
S0_6 V2_4 2.387917 1_555
S0_6 V3_6 2.499356 1_555
S0_6 Tl0_2 3.323148 1_555
S0_7 V1_7 2.270842 1_555
S0_7 V2_3 2.387095 1_555
S0_7 V2_5 2.387917 1_555
S0_7 V3_7 2.499356 1_555
S0_7 Tl0_3 3.323148 1_555
S1_0 V0_0 2.270842 1_555
S1_0 V2_2 2.387095 1_555
S1_0 V2_4 2.387917 1_555
S1_0 V4_0 2.499356 1_555
S1_0 Tl0_3 3.323148 1_555
S1_1 V0_1 2.270842 1_555
S1_1 V2_3 2.387095 1_555
S1_1 V2_5 2.387917 1_555
S1_1 V4_1 2.499356 1_555
S1_1 Tl0_2 3.323148 1_556
S1_2 V0_2 2.270842 1_555
S1_2 V2_0 2.387095 1_565
S1_2 V2_6 2.387917 1_555
S1_2 V4_2 2.499356 1_555
S1_2 Tl0_1 3.323148 1_565
S1_3 V0_3 2.270842 1_555
S1_3 V2_1 2.387095 1_565
S1_3 V2_7 2.387917 1_555
S1_3 V4_3 2.499356 1_555
S1_3 Tl0_0 3.323148 1_566
S1_4 V0_4 2.270842 1_555
S1_4 V2_6 2.387095 1_555
S1_4 V2_0 2.387917 1_655
S1_4 V4_4 2.499356 1_555
S1_4 Tl0_7 3.323148 1_555
S1_5 V0_5 2.270842 1_555
S1_5 V2_7 2.387095 1_555
S1_5 V2_1 2.387917 1_655
S1_5 V4_5 2.499356 1_555
S1_5 Tl0_6 3.323148 1_556
S1_6 V0_6 2.270842 1_555
S1_6 V2_4 2.387095 1_565
S1_6 V2_2 2.387917 1_655
S1_6 V4_6 2.499356 1_555
S1_6 Tl0_5 3.323148 1_565
S1_7 V0_7 2.270842 1_555
S1_7 V2_5 2.387095 1_565
S1_7 V2_3 2.387917 1_655
S1_7 V4_7 2.499356 1_555
S1_7 Tl0_4 3.323148 1_566
S2_0 V0_2 2.308233 1_545
S2_0 V0_4 2.309303 1_455
S2_0 V2_0 2.399976 1_555
S2_0 Tl0_6 3.174576 1_455
S2_0 Tl0_0 3.246379 1_555
S2_1 V0_3 2.308233 1_545
S2_1 V0_5 2.309303 1_455
S2_1 V2_1 2.399976 1_555
S2_1 Tl0_7 3.174576 1_455
S2_1 Tl0_1 3.246379 1_555
S2_2 V0_0 2.308233 1_555
S2_2 V0_6 2.309303 1_455
S2_2 V2_2 2.399976 1_555
S2_2 Tl0_4 3.174576 1_465
S2_2 Tl0_2 3.246379 1_555
S2_3 V0_1 2.308233 1_555
S2_3 V0_7 2.309303 1_455
S2_3 V2_3 2.399976 1_555
S2_3 Tl0_5 3.174576 1_465
S2_3 Tl0_3 3.246379 1_555
S2_4 V0_6 2.308233 1_545
S2_4 V0_0 2.309303 1_555
S2_4 V2_4 2.399976 1_555
S2_4 Tl0_2 3.174576 1_555
S2_4 Tl0_4 3.246379 1_555
S2_5 V0_7 2.308233 1_545
S2_5 V0_1 2.309303 1_555
S2_5 V2_5 2.399976 1_555
S2_5 Tl0_3 3.174576 1_555
S2_5 Tl0_5 3.246379 1_555
S2_6 V0_4 2.308233 1_555
S2_6 V0_2 2.309303 1_555
S2_6 V2_6 2.399976 1_555
S2_6 Tl0_0 3.174576 1_565
S2_6 Tl0_6 3.246379 1_555
S2_7 V0_5 2.308233 1_555
S2_7 V0_3 2.309303 1_555
S2_7 V2_7 2.399976 1_555
S2_7 Tl0_1 3.174576 1_565
S2_7 Tl0_7 3.246379 1_555
S3_0 V1_4 2.308233 1_555
S3_0 V1_2 2.309303 1_555
S3_0 V2_0 2.399976 1_555
S3_0 Tl0_7 3.174576 1_455
S3_0 Tl0_1 3.246379 1_555
S3_1 V1_5 2.308233 1_555
S3_1 V1_3 2.309303 1_555
S3_1 V2_1 2.399976 1_555
S3_1 Tl0_6 3.174576 1_456
S3_1 Tl0_0 3.246379 1_556
S3_2 V1_6 2.308233 1_555
S3_2 V1_0 2.309303 1_565
S3_2 V2_2 2.399976 1_555
S3_2 Tl0_5 3.174576 1_465
S3_2 Tl0_3 3.246379 1_555
S3_3 V1_7 2.308233 1_555
S3_3 V1_1 2.309303 1_565
S3_3 V2_3 2.399976 1_555
S3_3 Tl0_4 3.174576 1_466
S3_3 Tl0_2 3.246379 1_556
S3_4 V1_0 2.308233 1_655
S3_4 V1_6 2.309303 1_555
S3_4 V2_4 2.399976 1_555
S3_4 Tl0_3 3.174576 1_555
S3_4 Tl0_5 3.246379 1_555
S3_5 V1_1 2.308233 1_655
S3_5 V1_7 2.309303 1_555
S3_5 V2_5 2.399976 1_555
S3_5 Tl0_2 3.174576 1_556
S3_5 Tl0_4 3.246379 1_556
S3_6 V1_2 2.308233 1_655
S3_6 V1_4 2.309303 1_565
S3_6 V2_6 2.399976 1_555
S3_6 Tl0_1 3.174576 1_565
S3_6 Tl0_7 3.246379 1_555
S3_7 V1_3 2.308233 1_655
S3_7 V1_5 2.309303 1_565
S3_7 V2_7 2.399976 1_555
S3_7 Tl0_0 3.174576 1_566
S3_7 Tl0_6 3.246379 1_556
S4_0 V1_2 2.472412 1_555
S4_0 V1_4 2.473922 1_555
S4_0 V3_4 2.506440 1_555
S4_0 V3_2 2.506915 1_555
S4_0 V0_0 2.628019 1_555
S4_1 V1_3 2.472412 1_555
S4_1 V1_5 2.473922 1_555
S4_1 V3_5 2.506440 1_555
S4_1 V3_3 2.506915 1_555
S4_1 V0_1 2.628019 1_555
S4_2 V1_0 2.472412 1_565
S4_2 V1_6 2.473922 1_555
S4_2 V3_6 2.506440 1_555
S4_2 V3_0 2.506915 1_565
S4_2 V0_2 2.628019 1_555
S4_3 V1_1 2.472412 1_565
S4_3 V1_7 2.473922 1_555
S4_3 V3_7 2.506440 1_555
S4_3 V3_1 2.506915 1_565
S4_3 V0_3 2.628019 1_555
S4_4 V1_6 2.472412 1_555
S4_4 V1_0 2.473922 1_655
S4_4 V3_0 2.506440 1_655
S4_4 V3_6 2.506915 1_555
S4_4 V0_4 2.628019 1_555
S4_5 V1_7 2.472412 1_555
S4_5 V1_1 2.473922 1_655
S4_5 V3_1 2.506440 1_655
S4_5 V3_7 2.506915 1_555
S4_5 V0_5 2.628019 1_555
S4_6 V1_4 2.472412 1_565
S4_6 V1_2 2.473922 1_655
S4_6 V3_2 2.506440 1_655
S4_6 V3_4 2.506915 1_565
S4_6 V0_6 2.628019 1_555
S4_7 V1_5 2.472412 1_565
S4_7 V1_3 2.473922 1_655
S4_7 V3_3 2.506440 1_655
S4_7 V3_5 2.506915 1_565
S4_7 V0_7 2.628019 1_555
S5_0 V0_4 2.472412 1_455
S5_0 V0_2 2.473922 1_545
S5_0 V4_2 2.506440 1_545
S5_0 V4_4 2.506915 1_455
S5_0 V1_0 2.628019 1_555
S5_1 V0_5 2.472412 1_455
S5_1 V0_3 2.473922 1_545
S5_1 V4_3 2.506440 1_545
S5_1 V4_5 2.506915 1_455
S5_1 V1_1 2.628019 1_555
S5_2 V0_6 2.472412 1_455
S5_2 V0_0 2.473922 1_555
S5_2 V4_0 2.506440 1_555
S5_2 V4_6 2.506915 1_455
S5_2 V1_2 2.628019 1_555
S5_3 V0_7 2.472412 1_455
S5_3 V0_1 2.473922 1_555
S5_3 V4_1 2.506440 1_555
S5_3 V4_7 2.506915 1_455
S5_3 V1_3 2.628019 1_555
S5_4 V0_0 2.472412 1_555
S5_4 V0_6 2.473922 1_545
S5_4 V4_6 2.506440 1_545
S5_4 V4_0 2.506915 1_555
S5_4 V1_4 2.628019 1_555
S5_5 V0_1 2.472412 1_555
S5_5 V0_7 2.473922 1_545
S5_5 V4_7 2.506440 1_545
S5_5 V4_1 2.506915 1_555
S5_5 V1_5 2.628019 1_555
S5_6 V0_2 2.472412 1_555
S5_6 V0_4 2.473922 1_555
S5_6 V4_4 2.506440 1_555
S5_6 V4_2 2.506915 1_555
S5_6 V1_6 2.628019 1_555
S5_7 V0_3 2.472412 1_555
S5_7 V0_5 2.473922 1_555
S5_7 V4_5 2.506440 1_555
S5_7 V4_3 2.506915 1_555
S5_7 V1_7 2.628019 1_555
S6_0 V4_0 2.272421 1_555
S6_0 V3_5 2.332940 1_555
S6_0 V3_3 2.333998 1_555
S6_0 Tl0_7 3.226089 1_455
S6_0 Tl0_1 3.298264 1_555
S6_1 V4_1 2.272421 1_555
S6_1 V3_4 2.332940 1_556
S6_1 V3_2 2.333998 1_556
S6_1 Tl0_6 3.226089 1_456
S6_1 Tl0_0 3.298264 1_556
S6_2 V4_2 2.272421 1_555
S6_2 V3_7 2.332940 1_555
S6_2 V3_1 2.333998 1_565
S6_2 Tl0_5 3.226089 1_465
S6_2 Tl0_3 3.298264 1_555
S6_3 V4_3 2.272421 1_555
S6_3 V3_6 2.332940 1_556
S6_3 V3_0 2.333998 1_566
S6_3 Tl0_4 3.226089 1_466
S6_3 Tl0_2 3.298264 1_556
S6_4 V4_4 2.272421 1_555
S6_4 V3_1 2.332940 1_655
S6_4 V3_7 2.333998 1_555
S6_4 Tl0_3 3.226089 1_555
S6_4 Tl0_5 3.298264 1_555
S6_5 V4_5 2.272421 1_555
S6_5 V3_0 2.332940 1_656
S6_5 V3_6 2.333998 1_556
S6_5 Tl0_2 3.226089 1_556
S6_5 Tl0_4 3.298264 1_556
S6_6 V4_6 2.272421 1_555
S6_6 V3_3 2.332940 1_655
S6_6 V3_5 2.333998 1_565
S6_6 Tl0_1 3.226089 1_565
S6_6 Tl0_7 3.298264 1_555
S6_7 V4_7 2.272421 1_555
S6_7 V3_2 2.332940 1_656
S6_7 V3_4 2.333998 1_566
S6_7 Tl0_0 3.226089 1_566
S6_7 Tl0_6 3.298264 1_556
S7_0 V3_0 2.272421 1_555
S7_0 V4_3 2.332940 1_544
S7_0 V4_5 2.333998 1_454
S7_0 Tl0_6 3.226089 1_455
S7_0 Tl0_0 3.298264 1_555
S7_1 V3_1 2.272421 1_555
S7_1 V4_2 2.332940 1_545
S7_1 V4_4 2.333998 1_455
S7_1 Tl0_7 3.226089 1_455
S7_1 Tl0_1 3.298264 1_555
S7_2 V3_2 2.272421 1_555
S7_2 V4_1 2.332940 1_554
S7_2 V4_7 2.333998 1_454
S7_2 Tl0_4 3.226089 1_465
S7_2 Tl0_2 3.298264 1_555
S7_3 V3_3 2.272421 1_555
S7_3 V4_0 2.332940 1_555
S7_3 V4_6 2.333998 1_455
S7_3 Tl0_5 3.226089 1_465
S7_3 Tl0_3 3.298264 1_555
S7_4 V3_4 2.272421 1_555
S7_4 V4_7 2.332940 1_544
S7_4 V4_1 2.333998 1_554
S7_4 Tl0_2 3.226089 1_555
S7_4 Tl0_4 3.298264 1_555
S7_5 V3_5 2.272421 1_555
S7_5 V4_6 2.332940 1_545
S7_5 V4_0 2.333998 1_555
S7_5 Tl0_3 3.226089 1_555
S7_5 Tl0_5 3.298264 1_555
S7_6 V3_6 2.272421 1_555
S7_6 V4_5 2.332940 1_554
S7_6 V4_3 2.333998 1_554
S7_6 Tl0_0 3.226089 1_565
S7_6 Tl0_6 3.298264 1_555
S7_7 V3_7 2.272421 1_555
S7_7 V4_4 2.332940 1_555
S7_7 V4_2 2.333998 1_555
S7_7 Tl0_1 3.226089 1_565
S7_7 Tl0_7 3.298264 1_555
