# generated using pymatgen
data_Dy5Si3
_symmetry_space_group_name_H-M   'P 1'
_cell_length_a   8.42133240
_cell_length_b   8.42133258
_cell_length_c   6.36616790
_cell_angle_alpha   90.00000000
_cell_angle_beta   90.00000000
_cell_angle_gamma   120.00000328
_symmetry_Int_Tables_number   1
_chemical_formula_structural   Dy5Si3
_chemical_formula_sum   'Dy10 Si6'
_cell_volume   390.99421776
_cell_formula_units_Z   2
loop_
 _symmetry_equiv_pos_site_id
 _symmetry_equiv_pos_as_xyz
  1  'x, y, z'
loop_
 _atom_site_type_symbol
 _atom_site_label
 _atom_site_symmetry_multiplicity
 _atom_site_fract_x
 _atom_site_fract_y
 _atom_site_fract_z
 _atom_site_occupancy
  Dy  Dy0  1  0.99999900  0.75723066  0.75000000  1
  Dy  Dy1  1  0.99999900  0.24276834  0.25000000  1
  Dy  Dy2  1  0.75723166  0.75723066  0.25000000  1
  Dy  Dy3  1  0.75723166  0.00000100  0.75000000  1
  Dy  Dy4  1  0.24276934  0.24276834  0.75000000  1
  Dy  Dy5  1  0.24276934  0.00000100  0.25000000  1
  Dy  Dy6  1  0.66666700  0.33333300  -0.00000000  1
  Dy  Dy7  1  0.33333300  0.66666700  0.50000000  1
  Dy  Dy8  1  0.33333300  0.66666700  -0.00000000  1
  Dy  Dy9  1  0.66666700  0.33333300  0.50000000  1
  Si  Si0  1  0.39410525  0.00000100  0.75000000  1
  Si  Si1  1  0.39410525  0.39410425  0.25000000  1
  Si  Si2  1  0.99999900  0.60589475  0.25000000  1
  Si  Si3  1  0.99999900  0.39410425  0.75000000  1
  Si  Si4  1  0.60589575  0.60589475  0.75000000  1
  Si  Si5  1  0.60589575  0.00000100  0.25000000  1
loop_
_geom_bond_atom_site_label_1
_geom_bond_atom_site_label_2
_geom_bond_distance
_geom_bond_site_symmetry_2
Dy0 Si4 2.899898 1_555
Dy0 Si0 2.899922 1_665
Dy0 Si3 3.058008 1_555
Dy0 Si2 3.428738 1_555
Dy0 Si2 3.428738 1_556
Dy1 Si5 2.899898 1_555
Dy1 Si1 2.899922 1_655
Dy1 Si2 3.058008 1_555
Dy1 Si3 3.428738 1_554
Dy1 Si3 3.428738 1_555
Dy2 Si2 2.899899 1_555
Dy2 Si5 2.899922 1_565
Dy2 Si1 3.058008 1_555
Dy2 Si4 3.428738 1_555
Dy2 Si4 3.428738 1_554
Dy3 Si3 2.899898 1_555
Dy3 Si4 2.899922 1_545
Dy3 Si0 3.058008 1_555
Dy3 Si5 3.428738 1_555
Dy3 Si5 3.428738 1_556
Dy4 Si0 2.899899 1_555
Dy4 Si3 2.899922 1_455
Dy4 Si4 3.058008 1_555
Dy4 Si1 3.428738 1_555
Dy4 Si1 3.428738 1_556
Dy5 Si1 2.899898 1_555
Dy5 Si2 2.899922 1_445
Dy5 Si5 3.058008 1_555
Dy5 Si0 3.428738 1_554
Dy5 Si0 3.428738 1_555
Dy6 Si3 3.039428 1_554
Dy6 Si5 3.039428 1_555
Dy6 Si2 3.039431 1_555
Dy6 Si0 3.039431 1_554
Dy6 Si1 3.039435 1_555
Dy6 Si4 3.039435 1_554
Dy7 Si2 3.039440 1_455
Dy7 Si0 3.039440 1_565
Dy7 Si3 3.039442 1_455
Dy7 Si5 3.039442 1_565
Dy7 Si4 3.039447 1_555
Dy7 Si1 3.039447 1_555
Dy8 Si2 3.039440 1_455
Dy8 Si0 3.039440 1_564
Dy8 Si3 3.039442 1_454
Dy8 Si5 3.039442 1_565
Dy8 Si4 3.039447 1_554
Dy8 Si1 3.039447 1_555
Dy9 Si3 3.039428 1_555
Dy9 Si5 3.039428 1_555
Dy9 Si2 3.039431 1_555
Dy9 Si0 3.039431 1_555
Dy9 Si1 3.039435 1_555
Dy9 Si4 3.039435 1_555
