# generated using pymatgen
data_MgCr2O4
_symmetry_space_group_name_H-M   'P 1'
_cell_length_a   3.01193000
_cell_length_b   5.23491571
_cell_length_c   5.23491571
_cell_angle_alpha   104.14197974
_cell_angle_beta   90.00000000
_cell_angle_gamma   90.00000000
_symmetry_Int_Tables_number   1
_chemical_formula_structural   MgCr2O4
_chemical_formula_sum   'Mg1 Cr2 O4'
_cell_volume   80.03844437
_cell_formula_units_Z   1
loop_
 _symmetry_equiv_pos_site_id
 _symmetry_equiv_pos_as_xyz
  1  'x, y, z'
loop_
 _atom_site_type_symbol
 _atom_site_label
 _atom_site_symmetry_multiplicity
 _atom_site_fract_x
 _atom_site_fract_y
 _atom_site_fract_z
 _atom_site_occupancy
  Mg  Mg0  1  0.00000000  0.29575300  0.70424700  1
  Cr  Cr0  1  0.50000000  0.58163700  0.41836300  1
  Cr  Cr1  1  0.00000000  0.97201000  0.02799000  1
  O  O0  1  0.50000000  0.14805600  0.85194400  1
  O  O1  1  0.50000000  0.81336200  0.18663800  1
  O  O2  1  0.00000000  0.31101600  0.31627700  1
  O  O3  1  0.00000000  0.68372300  0.68898400  1
loop_
_geom_bond_atom_site_label_1
_geom_bond_atom_site_label_2
_geom_bond_distance
_geom_bond_site_symmetry_2
Mg0 O0 1.937955 1_455
Mg0 O0 1.937955 1_555
Mg0 O3 2.051975 1_555
Mg0 O2 2.051975 1_555
Cr0 O1 1.913659 1_555
Cr0 O2 2.047083 1_555
Cr0 O2 2.047083 1_655
Cr0 O3 2.047083 1_655
Cr0 O3 2.047083 1_555
Cr1 O1 1.996113 1_455
Cr1 O1 1.996113 1_555
Cr1 O2 2.029353 1_565
Cr1 O3 2.029353 1_554
Cr1 O0 2.093226 1_564
Cr1 O0 2.093226 1_464
