# generated using pymatgen
data_Na2TaSi2GePO12
_symmetry_space_group_name_H-M   'P 1'
_cell_length_a   8.78632114
_cell_length_b   8.78632085
_cell_length_c   22.10746741
_cell_angle_alpha   89.25789935
_cell_angle_beta   90.74210071
_cell_angle_gamma   120.03131004
_symmetry_Int_Tables_number   1
_chemical_formula_structural   Na2TaSi2GePO12
_chemical_formula_sum   'Na12 Ta6 Si12 Ge6 P6 O72'
_cell_volume   1477.39998959
_cell_formula_units_Z   6
loop_
 _symmetry_equiv_pos_site_id
 _symmetry_equiv_pos_as_xyz
  1  'x, y, z'
loop_
 _atom_site_type_symbol
 _atom_site_label
 _atom_site_symmetry_multiplicity
 _atom_site_fract_x
 _atom_site_fract_y
 _atom_site_fract_z
 _atom_site_occupancy
  Na  Na0  1  0.99499737  0.62960008  0.24970136  1
  Na  Na1  1  0.37039992  0.00500263  0.74970136  1
  Na  Na2  1  0.66166437  0.96293308  0.58303436  1
  Na  Na3  1  0.03706692  0.33833563  0.08303436  1
  Na  Na4  1  0.32833037  0.29626708  0.91636836  1
  Na  Na5  1  0.70373292  0.67166963  0.41636836  1
  Na  Na6  1  0.02169380  0.00782378  0.49561457  1
  Na  Na7  1  0.99217622  0.97830620  0.99561457  1
  Na  Na8  1  0.68836080  0.34115678  0.82894757  1
  Na  Na9  1  0.65884322  0.31163920  0.32894757  1
  Na  Na10  1  0.35502680  0.67449078  0.16228157  1
  Na  Na11  1  0.32550922  0.64497320  0.66228157  1
  Ta  Ta0  1  0.00027829  0.00019345  0.64354387  1
  Ta  Ta1  1  0.99980655  -0.00027829  0.14354387  1
  Ta  Ta2  1  0.66694529  0.33352645  0.97687687  1
  Ta  Ta3  1  0.66647355  0.33305471  0.47687687  1
  Ta  Ta4  1  0.33361129  0.66686045  0.31021087  1
  Ta  Ta5  1  0.33313955  0.66638871  0.81021087  1
  Si  Si0  1  0.71131782  0.70669073  0.25110799  1
  Si  Si1  1  0.98739859  0.27696641  0.25022765  1
  Si  Si2  1  0.29330927  0.28868218  0.75110799  1
  Si  Si3  1  0.72303359  0.01260141  0.75022765  1
  Si  Si4  1  0.37798482  0.04002373  0.58444099  1
  Si  Si5  1  0.65406559  0.61029941  0.58356065  1
  Si  Si6  1  0.95997627  0.62201518  0.08444099  1
  Si  Si7  1  0.38970059  0.34593441  0.08356065  1
  Si  Si8  1  0.04465082  0.37335773  0.91777499  1
  Si  Si9  1  0.32073159  0.94363341  0.91689465  1
  Si  Si10  1  0.62664227  0.95534918  0.41777499  1
  Si  Si11  1  0.05636659  0.67926841  0.41689465  1
  Ge  Ge0  1  0.99377468  0.99620524  0.35387284  1
  Ge  Ge1  1  0.00379476  0.00622532  0.85387284  1
  Ge  Ge2  1  0.66044168  0.32953824  0.68720584  1
  Ge  Ge3  1  0.67046176  0.33955832  0.18720584  1
  Ge  Ge4  1  0.32710768  0.66287224  0.02053984  1
  Ge  Ge5  1  0.33712776  0.67289232  0.52053984  1
  P  P0  1  0.29233703  0.01362992  0.25206573  1
  P  P1  1  0.98637008  0.70766297  0.75206573  1
  P  P2  1  0.95900403  0.34696292  0.58539873  1
  P  P3  1  0.65303708  0.04099597  0.08539873  1
  P  P4  1  0.62567003  0.68029692  0.91873273  1
  P  P5  1  0.31970308  0.37432997  0.41873273  1
  O  O0  1  0.20675155  0.03659062  0.30843482  1
  O  O1  1  0.83522002  0.78923889  0.31181491  1
  O  O2  1  0.96537390  0.15560704  0.30897054  1
  O  O3  1  0.21076111  0.16477998  0.81181491  1
  O  O4  1  0.96340938  0.79324845  0.80843482  1
  O  O5  1  0.84439296  0.03462610  0.80897054  1
  O  O6  1  0.79930182  0.97420688  0.68872979  1
  O  O7  1  0.16696936  0.19035911  0.69284029  1
  O  O8  1  0.02348483  0.82752083  0.69518609  1
  O  O9  1  0.80964089  0.83303064  0.19284029  1
  O  O10  1  0.02579312  0.20069818  0.18872979  1
  O  O11  1  0.17247917  0.97651517  0.19518609  1
  O  O12  1  0.87341855  0.36992362  0.64176782  1
  O  O13  1  0.50188702  0.12257189  0.64514791  1
  O  O14  1  0.63204090  0.48894004  0.64230354  1
  O  O15  1  0.87742811  0.49811298  0.14514791  1
  O  O16  1  0.63007638  0.12658145  0.14176782  1
  O  O17  1  0.51105996  0.36795910  0.14230354  1
  O  O18  1  0.46596882  0.30753988  0.02206279  1
  O  O19  1  0.83363636  0.52369211  0.02617329  1
  O  O20  1  0.69015183  0.16085383  0.02851909  1
  O  O21  1  0.47630789  0.16636364  0.52617329  1
  O  O22  1  0.69246012  0.53403118  0.52206279  1
  O  O23  1  0.83914617  0.30984817  0.52851909  1
  O  O24  1  0.54008455  0.70325762  0.97510182  1
  O  O25  1  0.16855302  0.45590589  0.97848191  1
  O  O26  1  0.29870690  0.82227404  0.97563754  1
  O  O27  1  0.54409411  0.83144698  0.47848191  1
  O  O28  1  0.29674238  0.45991545  0.47510182  1
  O  O29  1  0.17772596  0.70129310  0.47563754  1
  O  O30  1  0.13263482  0.64087388  0.35539679  1
  O  O31  1  0.50030236  0.85702611  0.35950729  1
  O  O32  1  0.35681783  0.49418783  0.36185309  1
  O  O33  1  0.14297389  0.49969764  0.85950729  1
  O  O34  1  0.35912612  0.86736518  0.85539679  1
  O  O35  1  0.50581217  0.64318217  0.86185309  1
  O  O36  1  0.03396016  0.85346850  0.41022459  1
  O  O37  1  0.81833049  0.96943549  0.41043281  1
  O  O38  1  0.16175163  0.19050273  0.41034323  1
  O  O39  1  0.03056451  0.18166951  0.91043281  1
  O  O40  1  0.14653150  0.96603984  0.91022459  1
  O  O41  1  0.80949727  0.83824837  0.91034323  1
  O  O42  1  0.96884060  0.17345799  0.58908868  1
  O  O43  1  0.18454572  0.02235575  0.58821831  1
  O  O44  1  0.82513480  0.81230900  0.58958192  1
  O  O45  1  0.97764425  0.81545428  0.08821831  1
  O  O46  1  0.82654201  0.03115940  0.08908868  1
  O  O47  1  0.18769100  0.17486520  0.08958192  1
  O  O48  1  0.70062716  0.18680150  0.74355759  1
  O  O49  1  0.48499749  0.30276849  0.74376581  1
  O  O50  1  0.82841863  0.52383573  0.74367623  1
  O  O51  1  0.69723151  0.51500251  0.24376581  1
  O  O52  1  0.81319850  0.29937284  0.24355759  1
  O  O53  1  0.47616427  0.17158137  0.24367623  1
  O  O54  1  0.63550760  0.50679099  0.92242168  1
  O  O55  1  0.85121272  0.35568875  0.92155131  1
  O  O56  1  0.49180180  0.14564200  0.92291492  1
  O  O57  1  0.64431125  0.14878728  0.42155131  1
  O  O58  1  0.49320901  0.36449240  0.42242168  1
  O  O59  1  0.85435800  0.50819820  0.42291492  1
  O  O60  1  0.36729316  0.52013550  0.07689159  1
  O  O61  1  0.15166349  0.63610249  0.07709981  1
  O  O62  1  0.49508463  0.85716973  0.07701023  1
  O  O63  1  0.36389751  0.84833651  0.57709981  1
  O  O64  1  0.47986450  0.63270684  0.57689159  1
  O  O65  1  0.14283027  0.50491537  0.57701023  1
  O  O66  1  0.30217360  0.84012499  0.25575568  1
  O  O67  1  0.51787872  0.68902275  0.25488531  1
  O  O68  1  0.15846780  0.47897600  0.25624892  1
  O  O69  1  0.31097725  0.48212128  0.75488531  1
  O  O70  1  0.15987501  0.69782640  0.75575568  1
  O  O71  1  0.52102400  0.84153220  0.75624892  1
loop_
_geom_bond_atom_site_label_1
_geom_bond_atom_site_label_2
_geom_bond_distance
_geom_bond_site_symmetry_2
Na0 O51 2.287715 1_555
Na0 O66 2.392437 1_655
Na0 O68 2.393260 1_655
Na0 O52 2.520733 1_555
Na0 O15 2.560700 1_555
Na0 O30 2.597143 1_655
Na0 O1 2.809733 1_555
Na0 O11 2.893266 1_655
Na1 O49 2.287715 1_555
Na1 O70 2.392437 1_545
Na1 O71 2.393260 1_545
Na1 O48 2.520733 1_555
Na1 O13 2.560700 1_555
Na1 O34 2.597143 1_545
Na1 O3 2.809733 1_555
Na1 O8 2.893266 1_545
Na2 O63 2.287723 1_555
Na2 O42 2.392437 1_565
Na2 O44 2.393260 1_555
Na2 O64 2.520724 1_555
Na2 O27 2.560679 1_555
Na2 O6 2.597143 1_555
Na2 O13 2.809733 1_565
Na2 O23 2.893266 1_565
Na3 O61 2.287723 1_555
Na3 O46 2.392437 1_455
Na3 O47 2.393260 1_555
Na3 O60 2.520725 1_555
Na3 O25 2.560679 1_554
Na3 O10 2.597143 1_555
Na3 O15 2.809733 1_455
Na3 O20 2.893266 1_455
Na4 O39 2.287715 1_555
Na4 O54 2.392441 1_555
Na4 O56 2.393274 1_555
Na4 O40 2.520733 1_545
Na4 O3 2.560700 1_555
Na4 O18 2.597128 1_556
Na4 O25 2.809733 1_555
Na4 O35 2.893266 1_555
Na5 O37 2.287715 1_555
Na5 O58 2.392441 1_555
Na5 O59 2.393274 1_555
Na5 O36 2.520733 1_655
Na5 O1 2.560700 1_555
Na5 O22 2.597128 1_555
Na5 O27 2.809733 1_555
Na5 O32 2.893266 1_555
Na6 O36 2.373279 1_545
Na6 O38 2.376763 1_555
Na6 O43 2.450077 1_555
Na6 O37 2.485716 1_445
Na6 O44 2.698160 1_445
Na6 O42 2.717194 1_455
Na7 O40 2.373279 1_655
Na7 O41 2.376763 1_555
Na7 O45 2.450077 1_556
Na7 O39 2.485716 1_665
Na7 O47 2.698160 1_666
Na7 O46 2.717194 1_566
Na8 O48 2.373279 1_555
Na8 O50 2.376763 1_555
Na8 O55 2.450077 1_555
Na8 O49 2.485716 1_555
Na8 O56 2.698160 1_555
Na8 O54 2.717194 1_555
Na9 O52 2.373279 1_555
Na9 O53 2.376763 1_555
Na9 O57 2.450077 1_555
Na9 O51 2.485716 1_555
Na9 O59 2.698160 1_555
Na9 O58 2.717194 1_555
Na10 O60 2.373279 1_555
Na10 O62 2.376763 1_555
Na10 O67 2.450077 1_555
Na10 O61 2.485716 1_555
Na10 O68 2.698160 1_555
Na10 O66 2.717194 1_555
Na11 O64 2.373279 1_555
Na11 O65 2.376763 1_555
Na11 O69 2.450077 1_555
Na11 O63 2.485716 1_555
Na11 O71 2.698160 1_555
Na11 O70 2.717194 1_555
Ge0 O2 1.821160 1_565
Ge0 O1 1.893841 1_555
Ge0 O36 1.908109 1_655
Ge0 O37 1.916888 1_555
Ge0 O0 2.002872 1_665
Ge0 O38 2.033892 1_665
Ge1 O5 1.821160 1_455
Ge1 O3 1.893841 1_555
Ge1 O40 1.908109 1_545
Ge1 O39 1.916888 1_555
Ge1 O4 2.002872 1_445
Ge1 O41 2.033892 1_445
Ge2 O14 1.821160 1_555
Ge2 O13 1.893841 1_555
Ge2 O48 1.908109 1_555
Ge2 O49 1.916888 1_555
Ge2 O12 2.002872 1_555
Ge2 O50 2.033892 1_555
Ge3 O17 1.821160 1_555
Ge3 O15 1.893841 1_555
Ge3 O52 1.908109 1_555
Ge3 O51 1.916888 1_555
Ge3 O16 2.002872 1_555
Ge3 O53 2.033892 1_555
Ge4 O26 1.821160 1_554
Ge4 O25 1.893841 1_554
Ge4 O60 1.908109 1_555
Ge4 O61 1.916888 1_555
Ge4 O24 2.002872 1_554
Ge4 O62 2.033892 1_555
Ge5 O29 1.821160 1_555
Ge5 O27 1.893841 1_555
Ge5 O64 1.908109 1_555
Ge5 O63 1.916888 1_555
Ge5 O28 2.002872 1_555
Ge5 O65 2.033892 1_555
O0 P0 1.530284 1_555
O1 Si0 1.646026 1_555
O2 Si1 1.620202 1_555
O3 Si2 1.646026 1_555
O4 P1 1.530284 1_555
O5 Si3 1.620202 1_555
O6 Si3 1.634939 1_565
O6 Ta0 1.950499 1_665
O7 Si2 1.633949 1_555
O7 Ta0 1.918565 1_555
O8 P1 1.558581 1_455
O8 Ta0 1.976237 1_565
O9 Si0 1.633949 1_555
O9 Ta1 1.918565 1_565
O10 Si1 1.634939 1_455
O10 Ta1 1.950499 1_455
O11 P0 1.558581 1_565
O11 Ta1 1.976238 1_465
O12 P2 1.530284 1_555
O13 Si4 1.646026 1_555
O14 Si5 1.620202 1_555
O15 Si6 1.646026 1_555
O16 P3 1.530284 1_555
O17 Si7 1.620202 1_555
O18 Si7 1.634939 1_555
O18 Ta2 1.950499 1_554
O19 Si6 1.633949 1_555
O19 Ta2 1.918565 1_554
O20 P3 1.558581 1_555
O20 Ta2 1.976237 1_554
O21 Si4 1.633949 1_555
O21 Ta3 1.918565 1_555
O22 Si5 1.634939 1_555
O22 Ta3 1.950499 1_555
O23 P2 1.558581 1_555
O23 Ta3 1.976238 1_555
O24 P4 1.530284 1_555
O25 Si8 1.646026 1_555
O26 Si9 1.620202 1_555
O27 Si10 1.646026 1_555
O28 P5 1.530284 1_555
O29 Si11 1.620202 1_555
O30 Si11 1.634939 1_555
O30 Ta4 1.950499 1_555
O31 Si10 1.633949 1_555
O31 Ta4 1.918565 1_555
O32 P5 1.558581 1_555
O32 Ta4 1.976237 1_555
O33 Si8 1.633949 1_555
O33 Ta5 1.918565 1_555
O34 Si9 1.634939 1_555
O34 Ta5 1.950499 1_555
O35 P4 1.558581 1_555
O35 Ta5 1.976238 1_555
O36 Si11 1.642614 1_555
O37 Si10 1.635916 1_555
O38 P5 1.525321 1_555
O39 Si8 1.635916 1_555
O40 Si9 1.642615 1_555
O41 P4 1.525321 1_555
O42 P2 1.570544 1_555
O42 Ta0 2.051337 1_655
O43 Si4 1.630651 1_555
O43 Ta0 1.970974 1_555
O44 Si5 1.660682 1_555
O44 Ta0 1.994274 1_665
O45 Si6 1.630651 1_555
O45 Ta1 1.970974 1_565
O46 P3 1.570544 1_555
O46 Ta1 2.051337 1_555
O47 Si7 1.660682 1_555
O47 Ta1 1.994274 1_455
O48 Si3 1.642614 1_555
O49 Si2 1.635916 1_555
O50 P1 1.525321 1_555
O51 Si0 1.635916 1_555
O52 Si1 1.642615 1_555
O53 P0 1.525321 1_555
O54 P4 1.570557 1_555
O54 Ta2 2.051337 1_555
O55 Si8 1.630637 1_655
O55 Ta2 1.970974 1_555
O56 Si9 1.660678 1_545
O56 Ta2 1.994274 1_555
O57 Si10 1.630637 1_545
O57 Ta3 1.970974 1_555
O58 P5 1.570557 1_555
O58 Ta3 2.051337 1_555
O59 Si11 1.660678 1_655
O59 Ta3 1.994274 1_555
O60 Si7 1.642627 1_555
O61 Si6 1.635901 1_455
O62 P3 1.525317 1_565
O63 Si4 1.635901 1_565
O64 Si5 1.642627 1_555
O65 P2 1.525317 1_455
O66 P0 1.570544 1_565
O66 Ta4 2.051337 1_555
O67 Si0 1.630651 1_555
O67 Ta4 1.970974 1_555
O68 Si1 1.660682 1_455
O68 Ta4 1.994274 1_555
O69 Si2 1.630651 1_555
O69 Ta5 1.970974 1_555
O70 P1 1.570544 1_455
O70 Ta5 2.051337 1_555
O71 Si3 1.660682 1_565
O71 Ta5 1.994274 1_555
