# generated using pymatgen
data_Na3Mg4Nb8P15(SO24)3
_symmetry_space_group_name_H-M   'P 1'
_cell_length_a   8.75346094
_cell_length_b   8.74625468
_cell_length_c   22.74619957
_cell_angle_alpha   90.02112902
_cell_angle_beta   90.05481202
_cell_angle_gamma   119.85508309
_symmetry_Int_Tables_number   1
_chemical_formula_structural   Na3Mg4Nb8P15(SO24)3
_chemical_formula_sum   'Na3 Mg4 Nb8 P15 S3 O72'
_cell_volume   1510.33515069
_cell_formula_units_Z   1
loop_
 _symmetry_equiv_pos_site_id
 _symmetry_equiv_pos_as_xyz
  1  'x, y, z'
loop_
 _atom_site_type_symbol
 _atom_site_label
 _atom_site_symmetry_multiplicity
 _atom_site_fract_x
 _atom_site_fract_y
 _atom_site_fract_z
 _atom_site_occupancy
  Na  Na0  1  0.99980210  0.99577767  0.99200867  1
  Na  Na1  1  0.66240996  0.33306975  0.84097557  1
  Na  Na2  1  0.66164426  0.33457727  0.33840094  1
  Mg  Mg0  1  0.99921333  0.99487728  0.85450560  1
  Mg  Mg1  1  0.66132543  0.33249692  0.97872880  1
  Mg  Mg2  1  0.66186581  0.33278371  0.48153100  1
  Mg  Mg3  1  0.33517716  0.66260721  0.30850573  1
  Nb  Nb0  1  0.00492557  0.00604769  0.35688627  1
  Nb  Nb1  1  0.00267241  0.00043078  0.64494487  1
  Nb  Nb2  1  0.00002736  0.99880039  0.14614121  1
  Nb  Nb3  1  0.66466811  0.33239986  0.68753949  1
  Nb  Nb4  1  0.66649446  0.33555192  0.18758351  1
  Nb  Nb5  1  0.34005831  0.67501880  0.02304052  1
  Nb  Nb6  1  0.33044418  0.65662161  0.52440611  1
  Nb  Nb7  1  0.34215715  0.67387118  0.81021413  1
  P  P0  1  0.28833090  0.99687484  0.25119033  1
  P  P1  1  0.71170455  0.71456718  0.25146290  1
  P  P2  1  0.00144131  0.29004732  0.25075647  1
  P  P3  1  0.28373987  0.28340227  0.75257739  1
  P  P4  1  0.99857604  0.71346213  0.75198920  1
  P  P5  1  0.72003270  0.00392549  0.75185522  1
  P  P6  1  0.94653671  0.32893961  0.58114709  1
  P  P7  1  0.38142814  0.04767959  0.58083846  1
  P  P8  1  0.67114649  0.61989853  0.58140538  1
  P  P9  1  0.95078539  0.61755248  0.08070495  1
  P  P10  1  0.67056225  0.05242696  0.08130734  1
  P  P11  1  0.37932053  0.33180191  0.08115422  1
  P  P12  1  0.62709104  0.66694763  0.91673825  1
  P  P13  1  0.33340071  0.96042015  0.91661281  1
  P  P14  1  0.34368019  0.38508122  0.41392302  1
  S  S0  1  0.04467682  0.37804056  0.91654920  1
  S  S1  1  0.61751311  0.95553372  0.41531200  1
  S  S2  1  0.04391344  0.66167448  0.41520396  1
  O  O0  1  0.19959001  0.03493485  0.30531565  1
  O  O1  1  0.83649104  0.80106591  0.30527288  1
  O  O2  1  0.96459540  0.16464430  0.30503718  1
  O  O3  1  0.21112275  0.17175130  0.80607557  1
  O  O4  1  0.95798332  0.78526891  0.80549120  1
  O  O5  1  0.82833304  0.04036545  0.80610527  1
  O  O6  1  0.80130496  0.97453441  0.69535469  1
  O  O7  1  0.17356777  0.19974545  0.69570343  1
  O  O8  1  0.02709436  0.82581908  0.69552496  1
  O  O9  1  0.80819900  0.82571456  0.19594450  1
  O  O10  1  0.01859989  0.19276792  0.19599409  1
  O  O11  1  0.17500714  0.97989746  0.19613815  1
  O  O12  1  0.86636512  0.36317076  0.63728522  1
  O  O13  1  0.49567877  0.13059459  0.63724343  1
  O  O14  1  0.63516847  0.50434338  0.63739683  1
  O  O15  1  0.86522798  0.50497754  0.13787691  1
  O  O16  1  0.64035473  0.13531591  0.13814169  1
  O  O17  1  0.49402718  0.36107768  0.13804030  1
  O  O18  1  0.45311434  0.29201412  0.02805594  1
  O  O19  1  0.83807544  0.54284362  0.02747080  1
  O  O20  1  0.70591721  0.16191133  0.02748060  1
  O  O21  1  0.45542094  0.15853814  0.52749647  1
  O  O22  1  0.70499448  0.54581000  0.52737144  1
  O  O23  1  0.84052526  0.29806413  0.52678197  1
  O  O24  1  0.52206263  0.68366613  0.97133338  1
  O  O25  1  0.15560176  0.46675394  0.97028925  1
  O  O26  1  0.31309675  0.83837547  0.97163454  1
  O  O27  1  0.53826391  0.84494584  0.46949215  1
  O  O28  1  0.30904034  0.47051206  0.47131855  1
  O  O29  1  0.15495691  0.69491889  0.46974905  1
  O  O30  1  0.12773193  0.64119731  0.36337097  1
  O  O31  1  0.51208277  0.87452843  0.36337359  1
  O  O32  1  0.36086889  0.49455724  0.36146684  1
  O  O33  1  0.13308375  0.48864843  0.86308122  1
  O  O34  1  0.35014294  0.85542562  0.86193401  1
  O  O35  1  0.50516350  0.64662781  0.86160317  1
  O  O36  1  0.02933097  0.82778628  0.40892861  1
  O  O37  1  0.79698000  0.96730093  0.40871935  1
  O  O38  1  0.16668464  0.19808980  0.40727071  1
  O  O39  1  0.03424146  0.20642024  0.91202789  1
  O  O40  1  0.16476401  0.96723225  0.91335959  1
  O  O41  1  0.79914719  0.83841343  0.91350759  1
  O  O42  1  0.97984675  0.17458993  0.59541122  1
  O  O43  1  0.19537016  0.01941932  0.59581180  1
  O  O44  1  0.82615818  0.80624384  0.59589865  1
  O  O45  1  0.98032774  0.80688075  0.09357662  1
  O  O46  1  0.82809837  0.01987651  0.09348579  1
  O  O47  1  0.19145697  0.17202734  0.09421691  1
  O  O48  1  0.68751326  0.16235882  0.73953239  1
  O  O49  1  0.47360322  0.31276963  0.73941062  1
  O  O50  1  0.83777259  0.52455240  0.73862885  1
  O  O51  1  0.70126248  0.53084500  0.24227824  1
  O  O52  1  0.82747535  0.29793334  0.24239504  1
  O  O53  1  0.46950169  0.17051114  0.24241986  1
  O  O54  1  0.63382159  0.49812482  0.91994494  1
  O  O55  1  0.87323291  0.36744568  0.92138950  1
  O  O56  1  0.50482565  0.13247834  0.91988469  1
  O  O57  1  0.64810459  0.13445396  0.42337503  1
  O  O58  1  0.49498814  0.35128874  0.42318896  1
  O  O59  1  0.86727544  0.51092094  0.42326569  1
  O  O60  1  0.35577665  0.49533314  0.07439246  1
  O  O61  1  0.13742175  0.63993504  0.07434696  1
  O  O62  1  0.50525546  0.86422311  0.07549319  1
  O  O63  1  0.35661718  0.85900554  0.57218433  1
  O  O64  1  0.50519363  0.64438486  0.57366719  1
  O  O65  1  0.13629995  0.49630553  0.57378040  1
  O  O66  1  0.30668041  0.83872329  0.25996373  1
  O  O67  1  0.53454405  0.69616395  0.25764338  1
  O  O68  1  0.15837641  0.46745774  0.25813198  1
  O  O69  1  0.30787396  0.47125129  0.75902356  1
  O  O70  1  0.16129765  0.68799336  0.75893937  1
  O  O71  1  0.53059305  0.83938959  0.75778441  1
loop_
_geom_bond_atom_site_label_1
_geom_bond_atom_site_label_2
_geom_bond_distance
_geom_bond_site_symmetry_2
Na0 O40 2.389850 1_655
Na0 O41 2.398555 1_555
Na0 O39 2.499067 1_665
Na0 O45 2.796285 1_556
Na0 O46 2.820106 1_566
Na0 O47 2.830338 1_666
Na1 O54 2.394116 1_555
Na1 O56 2.408314 1_555
Na1 O55 2.506467 1_555
Na1 O49 2.792906 1_555
Na1 O48 2.815488 1_555
Na1 O50 2.833882 1_555
Na2 O58 2.467083 1_555
Na2 O59 2.563622 1_555
Na2 O57 2.570984 1_555
Na2 O53 2.691114 1_555
Na2 O51 2.694250 1_555
Na2 O52 2.729000 1_555
Mg0 O4 2.018207 1_555
Mg0 O3 2.048334 1_665
Mg0 O5 2.048752 1_565
Mg0 O40 2.072675 1_655
Mg0 O41 2.088208 1_555
Mg0 O39 2.159134 1_665
Mg1 O18 2.016861 1_556
Mg1 O19 2.041789 1_556
Mg1 O20 2.046531 1_556
Mg1 O54 2.071806 1_555
Mg1 O56 2.082634 1_555
Mg1 O55 2.162328 1_555
Mg2 O21 1.985999 1_555
Mg2 O22 1.999672 1_555
Mg2 O23 2.016770 1_555
Mg2 O58 2.037874 1_555
Mg2 O57 2.136196 1_555
Mg2 O59 2.152636 1_555
Mg3 O67 1.991062 1_555
Mg3 O68 1.996620 1_555
Mg3 O32 1.998002 1_555
Mg3 O66 2.009312 1_555
Mg3 O31 2.127915 1_555
Mg3 O30 2.134440 1_555
Nb0 O38 1.940923 1_555
Nb0 O0 1.979604 1_555
Nb0 O2 1.981822 1_455
Nb0 O1 2.032175 1_445
Nb0 O37 2.051446 1_445
Nb0 O36 2.051899 1_545
Nb1 O43 1.961282 1_555
Nb1 O44 1.974623 1_445
Nb1 O42 1.983303 1_455
Nb1 O7 2.002153 1_555
Nb1 O8 2.006881 1_545
Nb1 O6 2.019806 1_445
Nb2 O9 1.966900 1_455
Nb2 O10 1.978386 1_565
Nb2 O11 1.978792 1_555
Nb2 O47 1.993932 1_565
Nb2 O45 1.996714 1_455
Nb2 O46 2.001589 1_465
Nb3 O50 1.982604 1_555
Nb3 O49 1.984136 1_555
Nb3 O48 1.986808 1_555
Nb3 O13 2.002039 1_555
Nb3 O14 2.004115 1_555
Nb3 O12 2.006803 1_555
Nb4 O17 1.982786 1_555
Nb4 O15 1.984666 1_555
Nb4 O16 1.995822 1_555
Nb4 O51 2.009502 1_555
Nb4 O52 2.026542 1_555
Nb4 O53 2.034738 1_555
Nb5 O26 1.949542 1_554
Nb5 O24 1.952152 1_554
Nb5 O62 1.966156 1_555
Nb5 O61 2.016110 1_555
Nb5 O60 2.017296 1_555
Nb5 O25 2.105051 1_554
Nb6 O65 1.935928 1_555
Nb6 O64 1.940786 1_555
Nb6 O28 1.958914 1_555
Nb6 O63 1.990268 1_555
Nb6 O29 2.127544 1_555
Nb6 O27 2.145965 1_555
Nb7 O35 1.947970 1_555
Nb7 O34 1.948928 1_555
Nb7 O71 1.966302 1_555
Nb7 O69 2.013642 1_555
Nb7 O70 2.018202 1_555
Nb7 O33 2.115102 1_555
O0 P0 1.577627 1_545
O1 P1 1.561286 1_555
O2 P2 1.575120 1_655
O3 P3 1.490907 1_555
O4 P4 1.491357 1_555
O5 P5 1.489851 1_555
O6 P5 1.551592 1_565
O7 P3 1.559923 1_555
O8 P4 1.560408 1_455
O9 P1 1.561619 1_555
O10 P2 1.557205 1_555
O11 P0 1.557233 1_555
O12 P6 1.556695 1_555
O13 P7 1.564273 1_555
O14 P8 1.558044 1_555
O15 P9 1.578018 1_555
O16 P10 1.567660 1_555
O17 P11 1.577760 1_555
O18 P11 1.490664 1_555
O19 P9 1.490587 1_555
O20 P10 1.489401 1_555
O21 P7 1.486241 1_555
O22 P8 1.486456 1_555
O23 P6 1.487041 1_555
O24 P12 1.595195 1_555
O25 S0 1.511950 1_555
O26 P13 1.596832 1_555
O27 S1 1.506664 1_555
O28 P14 1.606321 1_555
O29 S2 1.511527 1_555
O30 S2 1.446642 1_555
O31 S1 1.447649 1_555
O32 P14 1.490262 1_555
O33 S0 1.507042 1_555
O34 P13 1.595350 1_555
O35 P12 1.597471 1_555
O36 S2 1.527160 1_555
O37 S1 1.529861 1_555
O38 P14 1.604579 1_555
O39 S0 1.461295 1_555
O40 P13 1.508449 1_555
O41 P12 1.508075 1_555
O42 P6 1.550735 1_555
O43 P7 1.558823 1_555
O44 P8 1.550195 1_555
O45 P9 1.570924 1_555
O46 P10 1.565116 1_555
O47 P11 1.568003 1_555
O48 P5 1.572454 1_555
O49 P3 1.579172 1_555
O50 P4 1.576994 1_555
O51 P1 1.577197 1_555
O52 P2 1.569678 1_655
O53 P0 1.569749 1_545
O54 P12 1.508551 1_555
O55 S0 1.461082 1_655
O56 P13 1.507748 1_545
O57 S1 1.461740 1_545
O58 P14 1.508391 1_555
O59 S2 1.460759 1_655
O60 P11 1.550943 1_555
O61 P9 1.552518 1_455
O62 P10 1.564903 1_565
O63 P7 1.565857 1_565
O64 P8 1.579986 1_555
O65 P6 1.584267 1_455
O66 P0 1.483343 1_555
O67 P1 1.484072 1_555
O68 P2 1.483274 1_555
O69 P3 1.555536 1_555
O70 P4 1.555300 1_455
O71 P5 1.569588 1_565
