# generated using pymatgen
data_MgZn2(NiO2)4
_symmetry_space_group_name_H-M   'P 1'
_cell_length_a   6.28259845
_cell_length_b   6.16528337
_cell_length_c   6.16115902
_cell_angle_alpha   57.44283697
_cell_angle_beta   55.92100105
_cell_angle_gamma   55.90428050
_symmetry_Int_Tables_number   1
_chemical_formula_structural   MgZn2(NiO2)4
_chemical_formula_sum   'Mg1 Zn2 Ni4 O8'
_cell_volume   154.70727810
_cell_formula_units_Z   1
loop_
 _symmetry_equiv_pos_site_id
 _symmetry_equiv_pos_as_xyz
  1  'x, y, z'
loop_
 _atom_site_type_symbol
 _atom_site_label
 _atom_site_symmetry_multiplicity
 _atom_site_fract_x
 _atom_site_fract_y
 _atom_site_fract_z
 _atom_site_occupancy
  Mg  Mg0  1  0.12510600  0.12448900  0.12448200  1
  Zn  Zn0  1  0.94732900  0.98080400  0.98076400  1
  Zn  Zn1  1  0.12789100  0.62317800  0.62325200  1
  Ni  Ni0  1  0.29744300  0.26804600  0.26900300  1
  Ni  Ni1  1  0.62588700  0.12518900  0.62515200  1
  Ni  Ni2  1  0.62602700  0.62526900  0.12506600  1
  Ni  Ni3  1  0.62574300  0.62523100  0.62527700  1
  O  O0  1  0.42833900  0.38701800  0.38620700  1
  O  O1  1  0.38863200  0.35736000  0.86396700  1
  O  O2  1  0.38840900  0.86364300  0.35766100  1
  O  O3  1  0.89197600  0.36957700  0.36959600  1
  O  O4  1  0.36028900  0.87924800  0.87881300  1
  O  O5  1  0.86236500  0.38968600  0.89088400  1
  O  O6  1  0.86213200  0.89113300  0.38961700  1
  O  O7  1  0.82785300  0.85991800  0.86005000  1
loop_
_geom_bond_atom_site_label_1
_geom_bond_atom_site_label_2
_geom_bond_distance
_geom_bond_site_symmetry_2
Mg0 O3 2.050617 1_455
Mg0 O4 2.052404 1_544
Mg0 O5 2.138532 1_454
Mg0 O6 2.139839 1_445
Mg0 O2 2.140274 1_545
Mg0 O1 2.141343 1_554
Ni0 O0 1.909871 1_555
Ni0 O3 2.031157 1_455
Ni0 O2 2.031709 1_545
Ni0 O1 2.032595 1_554
Ni1 O0 1.886043 1_555
Ni1 O7 1.887638 1_545
Ni1 O6 1.957015 1_545
Ni1 O1 1.962779 1_555
Ni1 O3 2.205646 1_555
Ni1 O4 2.211264 1_545
Ni2 O0 1.884456 1_555
Ni2 O7 1.887008 1_554
Ni2 O5 1.957742 1_554
Ni2 O2 1.962543 1_555
Ni2 O3 2.204186 1_555
Ni2 O4 2.211762 1_554
Ni3 O4 2.111697 1_555
Ni3 O3 2.127749 1_555
Ni3 O5 2.178304 1_555
Ni3 O6 2.180036 1_555
Ni3 O2 2.189060 1_555
Ni3 O1 2.190541 1_555
O0 Zn1 1.983385 1_555
O1 Zn1 2.160006 1_555
O2 Zn1 2.159277 1_555
O4 Zn0 2.072081 1_455
O5 Zn0 2.065562 1_545
O5 Zn1 2.151526 1_655
O6 Zn0 2.063839 1_554
O6 Zn1 2.151860 1_655
O7 Zn0 1.876559 1_555
O7 Zn1 1.984285 1_655
