# generated using pymatgen
data_Er(CuTe)3
_symmetry_space_group_name_H-M   'P 1'
_cell_length_a   6.91657004
_cell_length_b   7.57151435
_cell_length_c   12.71881973
_cell_angle_alpha   90.00000000
_cell_angle_beta   90.00000000
_cell_angle_gamma   90.00000000
_symmetry_Int_Tables_number   1
_chemical_formula_structural   Er(CuTe)3
_chemical_formula_sum   'Er4 Cu12 Te12'
_cell_volume   666.07071698
_cell_formula_units_Z   4
loop_
 _symmetry_equiv_pos_site_id
 _symmetry_equiv_pos_as_xyz
  1  'x, y, z'
loop_
 _atom_site_type_symbol
 _atom_site_label
 _atom_site_symmetry_multiplicity
 _atom_site_fract_x
 _atom_site_fract_y
 _atom_site_fract_z
 _atom_site_occupancy
  Er  Er0  1  0.24474103  0.74939322  0.83771367  1
  Er  Er1  1  0.74474103  0.25060678  0.33771367  1
  Er  Er2  1  0.74474103  0.25060678  0.66228633  1
  Er  Er3  1  0.24474103  0.74939322  0.16228633  1
  Cu  Cu0  1  0.36415426  0.11808770  0.82631310  1
  Cu  Cu1  1  0.62104029  0.62128396  0.00000000  1
  Cu  Cu2  1  0.86415426  0.88191230  0.67368690  1
  Cu  Cu3  1  0.62150146  0.61898785  0.67382015  1
  Cu  Cu4  1  0.87014949  0.87845629  0.00000000  1
  Cu  Cu5  1  0.12104029  0.37871604  0.50000000  1
  Cu  Cu6  1  0.62150146  0.61898785  0.32617985  1
  Cu  Cu7  1  0.37014949  0.12154371  0.50000000  1
  Cu  Cu8  1  0.86415426  0.88191230  0.32631310  1
  Cu  Cu9  1  0.36415426  0.11808770  0.17368690  1
  Cu  Cu10  1  0.12150146  0.38101215  0.82617985  1
  Cu  Cu11  1  0.12150146  0.38101215  0.17382015  1
  Te  Te0  1  0.00803053  0.56733756  0.33699856  1
  Te  Te1  1  0.50803053  0.43266244  0.16300144  1
  Te  Te2  1  0.98018934  0.06589530  0.16324739  1
  Te  Te3  1  0.00803053  0.56733756  0.66300144  1
  Te  Te4  1  0.99717308  0.55214096  0.00000000  1
  Te  Te5  1  0.50803053  0.43266244  0.83699856  1
  Te  Te6  1  0.48018934  0.93410470  0.33675261  1
  Te  Te7  1  0.48018934  0.93410470  0.66324739  1
  Te  Te8  1  0.99240489  0.05360468  0.50000000  1
  Te  Te9  1  0.49240489  0.94639532  0.00000000  1
  Te  Te10  1  0.98018934  0.06589530  0.83675261  1
  Te  Te11  1  0.49717308  0.44785904  0.50000000  1
loop_
_geom_bond_atom_site_label_1
_geom_bond_atom_site_label_2
_geom_bond_distance
_geom_bond_site_symmetry_2
Er0 Te5 3.011209 1_555
Er0 Te10 3.015131 1_465
Er0 Te9 3.069148 1_556
Er0 Te4 3.069699 1_456
Er0 Te3 3.085202 1_555
Er0 Te7 3.087379 1_555
Er1 Te0 3.011209 1_655
Er1 Te6 3.015131 1_545
Er1 Te8 3.069148 1_555
Er1 Te11 3.069699 1_555
Er1 Te1 3.085202 1_555
Er1 Te2 3.087379 1_555
Er2 Te3 3.011209 1_655
Er2 Te7 3.015131 1_545
Er2 Te8 3.069148 1_555
Er2 Te11 3.069699 1_555
Er2 Te5 3.085202 1_555
Er2 Te10 3.087379 1_555
Er3 Te1 3.011209 1_555
Er3 Te2 3.015131 1_465
Er3 Te9 3.069148 1_555
Er3 Te4 3.069699 1_455
Er3 Te0 3.085202 1_555
Er3 Te6 3.087379 1_555
Cu0 Te5 2.584910 1_555
Cu0 Cu10 2.603807 1_555
Cu0 Te7 2.624144 1_545
Cu0 Te10 2.688242 1_455
Cu0 Te9 2.712357 1_546
Cu0 Er0 2.914804 1_545
Cu0 Er2 3.505480 1_555
Cu1 Cu4 2.600036 1_555
Cu1 Te9 2.617441 1_555
Cu1 Te5 2.636034 1_554
Cu1 Te1 2.636034 1_555
Cu1 Te4 2.653701 1_555
Cu1 Er3 3.460546 1_555
Cu1 Er0 3.460546 1_554
Cu2 Te3 2.584910 1_655
Cu2 Cu3 2.603807 1_555
Cu2 Te10 2.624144 1_565
Cu2 Te7 2.688242 1_555
Cu2 Te8 2.712357 1_565
Cu2 Er2 2.914804 1_565
Cu2 Er0 3.505480 1_655
Cu3 Te7 2.581852 1_555
Cu3 Te5 2.629383 1_555
Cu3 Te11 2.702943 1_555
Cu3 Te3 2.705408 1_655
Cu3 Er2 2.920231 1_555
Cu3 Er0 3.480062 1_555
Cu4 Te4 2.622260 1_555
Cu4 Te2 2.627636 1_565
Cu4 Te10 2.627636 1_564
Cu4 Te9 2.662855 1_555
Cu4 Er3 3.453708 1_655
Cu4 Er0 3.453708 1_654
Cu5 Cu7 2.600036 1_555
Cu5 Te8 2.617441 1_455
Cu5 Te0 2.636034 1_555
Cu5 Te3 2.636034 1_555
Cu5 Te11 2.653701 1_555
Cu5 Er1 3.460546 1_455
Cu5 Er2 3.460546 1_455
Cu6 Te6 2.581852 1_555
Cu6 Cu8 2.603807 1_555
Cu6 Te1 2.629383 1_555
Cu6 Te11 2.702943 1_555
Cu6 Te0 2.705408 1_655
Cu6 Er1 2.920231 1_555
Cu6 Er3 3.480062 1_555
Cu7 Te11 2.622260 1_555
Cu7 Te7 2.627636 1_545
Cu7 Te6 2.627636 1_545
Cu7 Te8 2.662855 1_455
Cu7 Er1 3.453708 1_555
Cu7 Er2 3.453708 1_555
Cu8 Te0 2.584910 1_655
Cu8 Te2 2.624144 1_565
Cu8 Te6 2.688242 1_555
Cu8 Te8 2.712357 1_565
Cu8 Er1 2.914804 1_565
Cu8 Er3 3.505480 1_655
Cu9 Te1 2.584910 1_555
Cu9 Te6 2.624144 1_545
Cu9 Te2 2.688242 1_455
Cu9 Te9 2.712357 1_545
Cu9 Er3 2.914804 1_545
Cu9 Er1 3.505480 1_555
Cu10 Te10 2.581852 1_455
Cu10 Te3 2.629383 1_555
Cu10 Te4 2.702943 1_456
Cu10 Te5 2.705408 1_555
Cu10 Er0 2.920231 1_555
Cu10 Er2 3.480062 1_455
Cu11 Te2 2.581852 1_455
Cu11 Cu9 2.603807 1_555
Cu11 Te0 2.629383 1_555
Cu11 Te4 2.702943 1_455
Cu11 Te1 2.705408 1_555
Cu11 Er3 2.920231 1_555
Cu11 Er1 3.480062 1_455
