# generated using pymatgen
data_MgMn4ZnS8
_symmetry_space_group_name_H-M   'P 1'
_cell_length_a   7.40231625
_cell_length_b   7.40919370
_cell_length_c   7.40919493
_cell_angle_alpha   55.24020881
_cell_angle_beta   55.22391190
_cell_angle_gamma   55.22390747
_symmetry_Int_Tables_number   1
_chemical_formula_structural   MgMn4ZnS8
_chemical_formula_sum   'Mg1 Mn4 Zn1 S8'
_cell_volume   255.47498277
_cell_formula_units_Z   1
loop_
 _symmetry_equiv_pos_site_id
 _symmetry_equiv_pos_as_xyz
  1  'x, y, z'
loop_
 _atom_site_type_symbol
 _atom_site_label
 _atom_site_symmetry_multiplicity
 _atom_site_fract_x
 _atom_site_fract_y
 _atom_site_fract_z
 _atom_site_occupancy
  Mg  Mg0  1  0.85371500  0.85679800  0.85679800  1
  Mn  Mn0  1  0.48924800  0.01652600  0.48987600  1
  Mn  Mn1  1  0.01641500  0.48968800  0.48968900  1
  Mn  Mn2  1  0.48924700  0.48987500  0.01652700  1
  Mn  Mn3  1  0.01347200  0.01306000  0.01306000  1
  Zn  Zn0  1  0.50207700  0.50238900  0.50238700  1
  S  S0  1  0.75223600  0.27569700  0.75333800  1
  S  S1  1  0.25157400  0.25167400  0.71630500  1
  S  S2  1  0.25157400  0.71630600  0.25167300  1
  S  S3  1  0.71660600  0.25117000  0.25117000  1
  S  S4  1  0.26143700  0.26204500  0.26204400  1
  S  S5  1  0.72830800  0.72851100  0.72851100  1
  S  S6  1  0.27370500  0.75403800  0.75403700  1
  S  S7  1  0.75223700  0.75333900  0.27569700  1
loop_
_geom_bond_atom_site_label_1
_geom_bond_atom_site_label_2
_geom_bond_distance
_geom_bond_site_symmetry_2
Mg0 S5 2.389963 1_555
Mg0 S0 2.463585 1_565
Mg0 S7 2.463589 1_556
Mg0 S6 2.466838 1_655
Mn0 S4 2.291021 1_555
Mn0 S1 2.326926 1_555
Mn0 S3 2.327876 1_555
Mn0 S5 2.402198 1_545
Mn0 S7 2.405115 1_545
Mn0 S6 2.407441 1_545
Mn1 S4 2.289921 1_555
Mn1 S1 2.327053 1_555
Mn1 S2 2.327063 1_555
Mn1 S5 2.402292 1_455
Mn1 S7 2.408618 1_455
Mn1 S0 2.408619 1_455
Mn2 S4 2.291006 1_555
Mn2 S2 2.326926 1_555
Mn2 S3 2.327876 1_555
Mn2 S5 2.402208 1_554
Mn2 S0 2.405121 1_554
Mn2 S6 2.407446 1_554
Mn3 S3 2.399562 1_455
Mn3 S2 2.401621 1_545
Mn3 S1 2.401626 1_554
Mn3 S6 2.615787 1_544
Mn3 S7 2.628973 1_445
Mn3 S0 2.628984 1_454
S0 Zn0 2.554580 1_555
S1 Zn0 2.573070 1_555
S2 Zn0 2.573065 1_555
S3 Zn0 2.580256 1_555
S6 Zn0 2.565852 1_555
S7 Zn0 2.554582 1_555
