# generated using pymatgen
data_Nb3FeS6
_symmetry_space_group_name_H-M   'P 1'
_cell_length_a   5.78613440
_cell_length_b   5.78613438
_cell_length_c   11.78133023
_cell_angle_alpha   89.99999725
_cell_angle_beta   90.00000834
_cell_angle_gamma   119.99983681
_symmetry_Int_Tables_number   1
_chemical_formula_structural   Nb3FeS6
_chemical_formula_sum   'Nb6 Fe2 S12'
_cell_volume   341.58808051
_cell_formula_units_Z   2
loop_
 _symmetry_equiv_pos_site_id
 _symmetry_equiv_pos_as_xyz
  1  'x, y, z'
loop_
 _atom_site_type_symbol
 _atom_site_label
 _atom_site_symmetry_multiplicity
 _atom_site_fract_x
 _atom_site_fract_y
 _atom_site_fract_z
 _atom_site_occupancy
  Nb  Nb0  1  0.99999989  0.00000001  0.50006150  1
  Nb  Nb1  1  0.00000010  -0.00000020  -0.00005936  1
  Nb  Nb2  1  0.33333343  0.66666648  0.99445014  1
  Nb  Nb3  1  0.66666661  0.33333324  0.00543583  1
  Nb  Nb4  1  0.66666659  0.33333358  0.49456581  1
  Nb  Nb5  1  0.33333334  0.66666675  0.50554640  1
  Fe  Fe0  1  0.33333320  0.66666666  0.25002144  1
  Fe  Fe1  1  0.66666678  0.33333355  0.74997841  1
  S  S0  1  0.33097742  0.33894006  0.36631508  1
  S  S1  1  0.66105998  0.99203794  0.36631536  1
  S  S2  1  0.00796228  0.66902211  0.36631506  1
  S  S3  1  0.33894903  0.33098188  0.63379250  1
  S  S4  1  0.99203300  0.66105108  0.63379221  1
  S  S5  1  0.66901792  0.00796734  0.63379252  1
  S  S6  1  0.66901434  0.66104961  0.86617877  1
  S  S7  1  0.33895040  0.00796431  0.86617902  1
  S  S8  1  0.99203549  0.33098601  0.86617878  1
  S  S9  1  0.66105957  0.66901854  0.13371365  1
  S  S10  1  0.00795888  0.33894021  0.13371330  1
  S  S11  1  0.33098174  0.99204083  0.13371359  1
loop_
_geom_bond_atom_site_label_1
_geom_bond_atom_site_label_2
_geom_bond_distance
_geom_bond_site_symmetry_2
Nb0 S4 2.498063 1_545
Nb0 S5 2.498067 1_555
Nb0 S3 2.498069 1_655
Nb0 S1 2.498148 1_545
Nb0 S2 2.498151 1_645
Nb0 S0 2.498154 1_655
Nb1 S7 2.498305 1_554
Nb1 S8 2.498308 1_454
Nb1 S6 2.498310 1_444
Nb1 S10 2.498355 1_555
Nb1 S11 2.498357 1_545
Nb1 S9 2.498360 1_445
Nb2 S7 2.473950 1_565
Nb2 S6 2.473952 1_555
Nb2 S8 2.473955 1_455
Nb2 S9 2.502426 1_556
Nb2 S11 2.502426 1_556
Nb2 S10 2.502428 1_556
Nb3 S10 2.473993 1_655
Nb3 S9 2.473995 1_555
Nb3 S11 2.473998 1_545
Nb3 S6 2.502343 1_554
Nb3 S8 2.502343 1_554
Nb3 S7 2.502345 1_554
Nb4 S1 2.473815 1_545
Nb4 S0 2.473817 1_555
Nb4 S2 2.473820 1_655
Nb4 S3 2.502105 1_555
Nb4 S5 2.502106 1_555
Nb4 S4 2.502107 1_555
Nb5 S4 2.473783 1_455
Nb5 S3 2.473785 1_555
Nb5 S5 2.473789 1_565
Nb5 S2 2.502171 1_555
Nb5 S0 2.502172 1_555
Nb5 S1 2.502174 1_555
Fe0 S2 2.333952 1_555
Fe0 S0 2.333953 1_555
Fe0 S1 2.333960 1_555
Fe0 S11 2.334056 1_555
Fe0 S9 2.334059 1_555
Fe0 S10 2.334064 1_555
Fe1 S5 2.333175 1_555
Fe1 S3 2.333176 1_555
Fe1 S4 2.333182 1_555
Fe1 S6 2.333278 1_555
Fe1 S8 2.333278 1_555
Fe1 S7 2.333286 1_555
