# generated using pymatgen
data_Na7Mg2Zn2P3(SO8)3
_symmetry_space_group_name_H-M   'P 1'
_cell_length_a   9.00824530
_cell_length_b   8.99808857
_cell_length_c   21.92492239
_cell_angle_alpha   89.26456137
_cell_angle_beta   90.56182767
_cell_angle_gamma   119.93312262
_symmetry_Int_Tables_number   1
_chemical_formula_structural   Na7Mg2Zn2P3(SO8)3
_chemical_formula_sum   'Na21 Mg6 Zn6 P9 S9 O72'
_cell_volume   1539.97020472
_cell_formula_units_Z   3
loop_
 _symmetry_equiv_pos_site_id
 _symmetry_equiv_pos_as_xyz
  1  'x, y, z'
loop_
 _atom_site_type_symbol
 _atom_site_label
 _atom_site_symmetry_multiplicity
 _atom_site_fract_x
 _atom_site_fract_y
 _atom_site_fract_z
 _atom_site_occupancy
  Na  Na0  1  0.63460205  0.00590173  0.25394039  1
  Na  Na1  1  0.35534604  0.35485629  0.24546986  1
  Na  Na2  1  0.00870533  0.63520154  0.25106800  1
  Na  Na3  1  0.63457913  0.63891156  0.74478585  1
  Na  Na4  1  0.99686745  0.35997583  0.75376994  1
  Na  Na5  1  0.02688813  0.69866493  0.57958155  1
  Na  Na6  1  0.66467460  0.95791308  0.58347251  1
  Na  Na7  1  0.30131553  0.97419522  0.08185557  1
  Na  Na8  1  0.04269493  0.33533133  0.08314634  1
  Na  Na9  1  0.97846222  0.66802079  0.91678042  1
  Na  Na10  1  0.69833414  0.03636607  0.91210156  1
  Na  Na11  1  0.32617058  0.29349706  0.92061534  1
  Na  Na12  1  0.96215022  0.30092282  0.41241920  1
  Na  Na13  1  0.33171082  0.02083660  0.41412676  1
  Na  Na14  1  0.70636986  0.67460050  0.42157268  1
  Na  Na15  1  0.99773860  0.99664694  0.50095167  1
  Na  Na16  1  0.00435073  0.00290606  0.00018520  1
  Na  Na17  1  0.65548779  0.30893480  0.83151984  1
  Na  Na18  1  0.67153105  0.32598217  0.33299793  1
  Na  Na19  1  0.33827433  0.66021233  0.16502863  1
  Na  Na20  1  0.34585007  0.67097188  0.66632902  1
  Mg  Mg0  1  0.00072012  0.00088182  0.34846248  1
  Mg  Mg1  1  0.00837385  0.00785273  0.15109232  1
  Mg  Mg2  1  0.65996296  0.33050761  0.18282860  1
  Mg  Mg3  1  0.66086671  0.32930134  0.98439182  1
  Mg  Mg4  1  0.66942023  0.33772867  0.48405414  1
  Mg  Mg5  1  0.32696193  0.67132064  0.31760667  1
  Zn  Zn0  1  0.00455050  0.01168660  0.84729384  1
  Zn  Zn1  1  0.98855918  0.99430173  0.65266653  1
  Zn  Zn2  1  0.65533074  0.32516356  0.68026968  1
  Zn  Zn3  1  0.33225117  0.65790910  0.01282947  1
  Zn  Zn4  1  0.34333195  0.66876792  0.51252487  1
  Zn  Zn5  1  0.33486604  0.68426731  0.81999938  1
  P  P0  1  0.29683481  0.99941252  0.25014002  1
  P  P1  1  0.00000843  0.29806442  0.24954501  1
  P  P2  1  0.69887984  0.99977213  0.74971604  1
  P  P3  1  0.66456273  0.62804028  0.58394394  1
  P  P4  1  0.37077187  0.33680180  0.08327622  1
  P  P5  1  0.03448304  0.36964951  0.91599354  1
  P  P6  1  0.33367791  0.96391803  0.91884162  1
  P  P7  1  0.63327648  0.96567184  0.41630414  1
  P  P8  1  0.03542157  0.66584153  0.41747671  1
  S  S0  1  0.70708141  0.70647656  0.25033384  1
  S  S1  1  0.29697307  0.29513433  0.74989409  1
  S  S2  1  0.00195965  0.70399266  0.74998337  1
  S  S3  1  0.96497068  0.33430823  0.58348784  1
  S  S4  1  0.36897351  0.03890182  0.58225966  1
  S  S5  1  0.95710735  0.62899927  0.08387399  1
  S  S6  1  0.66837081  0.03669302  0.08405870  1
  S  S7  1  0.63011888  0.66490130  0.91594243  1
  S  S8  1  0.33319162  0.37143174  0.41552497  1
  O  O0  1  0.21365139  0.02707414  0.30699638  1
  O  O1  1  0.80865639  0.78118083  0.30642379  1
  O  O2  1  0.96810767  0.18449720  0.30689240  1
  O  O3  1  0.22434534  0.19797324  0.80758402  1
  O  O4  1  0.97992720  0.78597175  0.80490392  1
  O  O5  1  0.81258338  0.02989007  0.80755112  1
  O  O6  1  0.78106798  0.97073758  0.69221531  1
  O  O7  1  0.18705141  0.20813199  0.69676597  1
  O  O8  1  0.02371124  0.80634037  0.69384446  1
  O  O9  1  0.79021056  0.81800367  0.19682417  1
  O  O10  1  0.02503225  0.21359003  0.19252770  1
  O  O11  1  0.18282819  0.96813594  0.19307968  1
  O  O12  1  0.88631511  0.35909856  0.63928755  1
  O  O13  1  0.47829620  0.11770659  0.63628163  1
  O  O14  1  0.64769939  0.52620938  0.64355950  1
  O  O15  1  0.87352997  0.52153456  0.13846618  1
  O  O16  1  0.64559436  0.12018981  0.13849096  1
  O  O17  1  0.47445174  0.35445622  0.14161823  1
  O  O18  1  0.45545989  0.31121661  0.02641943  1
  O  O19  1  0.85994299  0.54675360  0.02772960  1
  O  O20  1  0.69571096  0.14475266  0.02859860  1
  O  O21  1  0.44962634  0.13789149  0.52597770  1
  O  O22  1  0.68896719  0.54211178  0.52753382  1
  O  O23  1  0.85507164  0.30845035  0.52916199  1
  O  O24  1  0.55063364  0.69721308  0.96913957  1
  O  O25  1  0.14655857  0.44830533  0.97356978  1
  O  O26  1  0.30195045  0.85303545  0.97780596  1
  O  O27  1  0.55683392  0.85451516  0.47479020  1
  O  O28  1  0.30187607  0.44855765  0.46967536  1
  O  O29  1  0.14720638  0.69519257  0.47567392  1
  O  O30  1  0.11737929  0.63440748  0.36129712  1
  O  O31  1  0.52022901  0.87934086  0.35991848  1
  O  O32  1  0.36144608  0.47791588  0.36034731  1
  O  O33  1  0.11748670  0.48019022  0.85810805  1
  O  O34  1  0.37242342  0.88506309  0.86418110  1
  O  O35  1  0.52599464  0.63367502  0.85992242  1
  O  O36  1  0.01753246  0.82953826  0.41130696  1
  O  O37  1  0.81642806  0.98874571  0.41119658  1
  O  O38  1  0.17911973  0.19624368  0.41022621  1
  O  O39  1  0.01216281  0.18560554  0.91256973  1
  O  O40  1  0.16772556  0.97851994  0.91154106  1
  O  O41  1  0.80580593  0.81899669  0.91084309  1
  O  O42  1  0.98064180  0.17712840  0.58801803  1
  O  O43  1  0.19491984  0.01935796  0.58748467  1
  O  O44  1  0.83276011  0.81146958  0.58618799  1
  O  O45  1  0.97745280  0.80360426  0.08788831  1
  O  O46  1  0.82363071  0.01914251  0.08980606  1
  O  O47  1  0.18730140  0.17020074  0.08625216  1
  O  O48  1  0.68902792  0.16789708  0.74359398  1
  O  O49  1  0.47399871  0.32160127  0.74577368  1
  O  O50  1  0.84228736  0.53019312  0.74677218  1
  O  O51  1  0.68987847  0.53270736  0.24454770  1
  O  O52  1  0.84020863  0.32307201  0.24361551  1
  O  O53  1  0.47866975  0.16300418  0.24484739  1
  O  O54  1  0.65023882  0.51048828  0.92394825  1
  O  O55  1  0.85406917  0.35341447  0.92205319  1
  O  O56  1  0.49297139  0.14777851  0.92378575  1
  O  O57  1  0.64724427  0.14567058  0.42199688  1
  O  O58  1  0.48802027  0.35190419  0.42241231  1
  O  O59  1  0.85250828  0.50481811  0.42264680  1
  O  O60  1  0.34417879  0.49593642  0.07924999  1
  O  O61  1  0.13307449  0.64808837  0.08213215  1
  O  O62  1  0.50935032  0.86674072  0.07900817  1
  O  O63  1  0.34813006  0.86185324  0.57979578  1
  O  O64  1  0.50675598  0.65564025  0.58013458  1
  O  O65  1  0.13574576  0.49235090  0.57759067  1
  O  O66  1  0.32037582  0.83904805  0.25498164  1
  O  O67  1  0.53131313  0.68423731  0.25512178  1
  O  O68  1  0.16589296  0.47764138  0.25506780  1
  O  O69  1  0.31101445  0.46889932  0.75271466  1
  O  O70  1  0.15175130  0.67666322  0.75352038  1
  O  O71  1  0.52265915  0.83197262  0.75520433  1
loop_
_geom_bond_atom_site_label_1
_geom_bond_atom_site_label_2
_geom_bond_distance
_geom_bond_site_symmetry_2
Na0 O53 2.445430 1_555
Na0 O66 2.454841 1_545
Na0 O52 2.518538 1_555
Na0 O67 2.560212 1_545
Na0 O31 2.562307 1_545
Na0 O16 2.703868 1_555
Na0 O2 2.849117 1_555
Na0 O9 2.974159 1_545
Na1 O68 2.464204 1_555
Na1 O53 2.475742 1_555
Na1 O17 2.527375 1_555
Na1 O67 2.581191 1_555
Na1 O51 2.613502 1_555
Na1 O32 2.753368 1_555
Na1 O10 2.830634 1_555
Na1 O0 2.884882 1_555
Na2 O52 2.443600 1_455
Na2 O68 2.453671 1_555
Na2 O66 2.472719 1_555
Na2 O51 2.543952 1_455
Na2 O30 2.599867 1_555
Na2 O15 2.717851 1_455
Na2 O11 2.881537 1_555
Na2 O1 2.981952 1_455
Na3 O71 2.418478 1_555
Na3 O49 2.474323 1_555
Na3 O14 2.480032 1_555
Na3 O50 2.506764 1_555
Na3 O69 2.533657 1_555
Na3 O35 2.707541 1_555
Na3 O6 2.827407 1_555
Na4 O48 2.437539 1_555
Na4 O70 2.469571 1_655
Na4 O69 2.490432 1_655
Na4 O33 2.534887 1_655
Na4 O50 2.535099 1_555
Na4 O12 2.689921 1_555
Na4 O5 2.827680 1_555
Na4 O7 2.964089 1_655
Na5 O44 2.426845 1_455
Na5 O65 2.495904 1_555
Na5 O63 2.507919 1_555
Na5 O43 2.509321 1_565
Na5 O29 2.539648 1_555
Na5 O8 2.703142 1_555
Na5 O22 2.871701 1_455
Na5 O12 2.953206 1_455
Na6 O64 2.359761 1_555
Na6 O44 2.453564 1_555
Na6 O42 2.529561 1_565
Na6 O63 2.534220 1_555
Na6 O27 2.568431 1_555
Na6 O6 2.575706 1_555
Na7 O47 2.447195 1_565
Na7 O62 2.502578 1_555
Na7 O45 2.533435 1_455
Na7 O26 2.542271 1_554
Na7 O61 2.543394 1_555
Na7 O11 2.660538 1_555
Na7 O18 2.887532 1_565
Na7 O16 2.964189 1_565
Na8 O60 2.357131 1_555
Na8 O47 2.415910 1_555
Na8 O61 2.509047 1_555
Na8 O46 2.530219 1_455
Na8 O25 2.590903 1_554
Na8 O10 2.596663 1_555
Na9 O40 2.442885 1_655
Na9 O55 2.472078 1_555
Na9 O41 2.526189 1_555
Na9 O54 2.568444 1_555
Na9 O4 2.657643 1_555
Na9 O19 2.658572 1_556
Na9 O26 2.862288 1_655
Na9 O33 2.877408 1_655
Na10 O39 2.450857 1_655
Na10 O55 2.483990 1_555
Na10 O56 2.521843 1_555
Na10 O5 2.535078 1_555
Na10 O41 2.579783 1_545
Na10 O20 2.750222 1_556
Na10 O34 2.750288 1_545
Na10 O24 2.920565 1_545
Na11 O56 2.437950 1_555
Na11 O40 2.466021 1_545
Na11 O39 2.495790 1_555
Na11 O18 2.556226 1_556
Na11 O54 2.578941 1_555
Na11 O3 2.635325 1_555
Na11 O25 2.869473 1_555
Na11 O35 2.970527 1_555
Na12 O37 2.436328 1_545
Na12 O57 2.468215 1_555
Na12 O59 2.493013 1_555
Na12 O38 2.559277 1_655
Na12 O2 2.564017 1_555
Na12 O23 2.757631 1_555
Na12 O30 2.823624 1_655
Na12 O28 2.935386 1_655
Na13 O36 2.472701 1_545
Na13 O57 2.485919 1_555
Na13 O38 2.558765 1_555
Na13 O0 2.580383 1_555
Na13 O58 2.590890 1_555
Na13 O21 2.673995 1_555
Na13 O31 2.855474 1_545
Na13 O29 2.872541 1_545
Na14 O36 2.440423 1_655
Na14 O59 2.464362 1_555
Na14 O37 2.493202 1_555
Na14 O22 2.567592 1_555
Na14 O58 2.569040 1_555
Na14 O1 2.691484 1_555
Na14 O27 2.837674 1_555
Na15 O44 2.445545 1_555
Na15 O37 2.523864 1_555
Na15 O43 2.525458 1_665
Na15 O36 2.550706 1_655
Na15 O42 2.576820 1_565
Na15 O38 2.625920 1_665
Na16 O47 2.465566 1_555
Na16 O39 2.490730 1_554
Na16 O40 2.526003 1_544
Na16 O45 2.541497 1_445
Na16 O41 2.614398 1_444
Na16 O46 2.615348 1_455
Na17 O48 2.423840 1_555
Na17 O56 2.490463 1_555
Na17 O49 2.518011 1_555
Na17 O55 2.556650 1_555
Na17 O50 2.621210 1_555
Na17 O54 2.753147 1_555
Na18 O57 2.461838 1_555
Na18 O52 2.499878 1_555
Na18 O53 2.523593 1_555
Na18 O59 2.551646 1_555
Na18 O51 2.618209 1_555
Na18 O58 2.662792 1_555
Na19 O60 2.424169 1_555
Na19 O68 2.537362 1_555
Na19 O61 2.543634 1_555
Na19 O62 2.548402 1_555
Na19 O67 2.557506 1_555
Na19 O66 2.617578 1_555
Na20 O64 2.439542 1_555
Na20 O71 2.478184 1_555
Na20 O69 2.519051 1_555
Na20 O63 2.536112 1_555
Na20 O70 2.621397 1_555
Na20 O65 2.631151 1_555
Mg0 O2 2.021685 1_455
Mg0 O0 2.034423 1_555
Mg0 O1 2.086419 1_445
Mg0 O36 2.114917 1_545
Mg0 O37 2.125995 1_445
Mg0 O38 2.169260 1_555
Mg1 O11 1.992119 1_545
Mg1 O10 2.009525 1_555
Mg1 O47 2.096370 1_555
Mg1 O9 2.104774 1_445
Mg1 O46 2.169516 1_455
Mg1 O45 2.218664 1_445
Mg2 O17 1.995060 1_555
Mg2 O15 2.072536 1_555
Mg2 O53 2.078988 1_555
Mg2 O16 2.084090 1_555
Mg2 O52 2.116784 1_555
Mg2 O51 2.186488 1_555
Mg3 O18 2.007103 1_556
Mg3 O20 2.066004 1_556
Mg3 O56 2.066868 1_555
Mg3 O19 2.111834 1_556
Mg3 O54 2.126309 1_555
Mg3 O55 2.146243 1_555
Mg4 O22 2.010084 1_555
Mg4 O23 2.060333 1_555
Mg4 O59 2.076108 1_555
Mg4 O21 2.106812 1_555
Mg4 O57 2.142000 1_555
Mg4 O58 2.161792 1_555
Mg5 O30 1.998458 1_555
Mg5 O31 2.038618 1_555
Mg5 O66 2.049662 1_555
Mg5 O32 2.120168 1_555
Mg5 O68 2.126334 1_555
Mg5 O67 2.260731 1_555
O0 P0 1.545903 1_545
O1 S0 1.478767 1_555
O2 P1 1.545564 1_655
O3 S1 1.486348 1_555
O3 Zn0 2.042593 1_555
O4 S2 1.485615 1_655
O4 Zn0 2.152387 1_665
O5 P2 1.561026 1_545
O5 Zn0 2.006486 1_655
O6 P2 1.557421 1_555
O6 Zn1 1.980412 1_555
O7 S1 1.475589 1_555
O7 Zn1 2.101073 1_445
O8 S2 1.482238 1_555
O8 Zn1 2.065311 1_455
O9 S0 1.476912 1_555
O10 P1 1.546689 1_555
O11 P0 1.547397 1_555
O12 S3 1.493404 1_555
O12 Zn2 2.150748 1_555
O13 S4 1.475568 1_555
O13 Zn2 2.000786 1_555
O14 P3 1.550907 1_555
O14 Zn2 2.002690 1_555
O15 S5 1.481868 1_555
O16 S6 1.487442 1_555
O17 P4 1.538659 1_555
O18 P4 1.546046 1_555
O19 S5 1.478131 1_555
O20 S6 1.490360 1_555
O21 S4 1.479011 1_555
O22 P3 1.541206 1_555
O23 S3 1.485610 1_555
O24 S7 1.480006 1_555
O24 Zn3 2.060732 1_556
O25 P5 1.548738 1_555
O25 Zn3 1.990253 1_556
O26 P6 1.561412 1_555
O26 Zn3 2.046075 1_556
O27 P7 1.554323 1_555
O27 Zn4 1.991143 1_555
O28 S8 1.481161 1_555
O28 Zn4 2.061730 1_555
O29 P8 1.558817 1_555
O29 Zn4 2.053540 1_555
O30 P8 1.541891 1_555
O31 P7 1.542498 1_555
O32 S8 1.476238 1_555
O33 P5 1.550197 1_555
O33 Zn5 2.075766 1_555
O34 P6 1.529276 1_555
O34 Zn5 1.935384 1_555
O35 S7 1.480053 1_555
O35 Zn5 2.163375 1_555
O36 P8 1.563719 1_555
O37 P7 1.561699 1_555
O38 S8 1.497606 1_555
O39 P5 1.568164 1_555
O39 Zn0 2.109609 1_555
O40 P6 1.571151 1_555
O40 Zn0 2.149494 1_565
O41 S7 1.499764 1_555
O41 Zn0 2.245408 1_665
O42 S3 1.491799 1_555
O42 Zn1 2.185343 1_545
O43 S4 1.493402 1_555
O43 Zn1 2.274736 1_445
O44 P3 1.589722 1_555
O44 Zn1 2.125520 1_555
O45 S5 1.491843 1_555
O46 S6 1.487754 1_555
O47 P4 1.584330 1_555
O48 P2 1.563012 1_545
O48 Zn2 2.095765 1_555
O49 S1 1.493713 1_555
O49 Zn2 2.173580 1_555
O50 S2 1.508478 1_655
O50 Zn2 2.299131 1_555
O51 S0 1.499271 1_555
O52 P1 1.567988 1_655
O53 P0 1.567296 1_545
O54 S7 1.496190 1_555
O55 P5 1.564323 1_655
O56 P6 1.562126 1_545
O57 P7 1.567214 1_545
O58 S8 1.496236 1_555
O59 P8 1.563347 1_655
O60 P4 1.566592 1_555
O60 Zn3 2.086893 1_555
O61 S5 1.507638 1_455
O61 Zn3 2.329723 1_555
O62 S6 1.489271 1_565
O62 Zn3 2.283475 1_555
O63 S4 1.509843 1_565
O63 Zn4 2.277141 1_555
O64 P3 1.561716 1_555
O64 Zn4 2.122451 1_555
O65 S3 1.490489 1_455
O65 Zn4 2.254675 1_555
O66 P0 1.561865 1_555
O67 S0 1.498205 1_555
O68 P1 1.565374 1_555
O69 S1 1.506479 1_555
O69 Zn5 2.372659 1_555
O70 S2 1.488580 1_555
O70 Zn5 2.166307 1_555
O71 P2 1.556040 1_555
O71 Zn5 2.097914 1_555
