# generated using pymatgen
data_Na2CaLaP(SO6)2
_symmetry_space_group_name_H-M   'P 1'
_cell_length_a   9.49373141
_cell_length_b   9.43465402
_cell_length_c   24.50383397
_cell_angle_alpha   89.86389081
_cell_angle_beta   90.00000000
_cell_angle_gamma   120.20735387
_symmetry_Int_Tables_number   1
_chemical_formula_structural   Na2CaLaP(SO6)2
_chemical_formula_sum   'Na12 Ca6 La6 P6 S12 O72'
_cell_volume   1896.77022754
_cell_formula_units_Z   6
loop_
 _symmetry_equiv_pos_site_id
 _symmetry_equiv_pos_as_xyz
  1  'x, y, z'
loop_
 _atom_site_type_symbol
 _atom_site_label
 _atom_site_symmetry_multiplicity
 _atom_site_fract_x
 _atom_site_fract_y
 _atom_site_fract_z
 _atom_site_occupancy
  Na  Na0  1  0.00459993  0.64202646  0.24200493  1
  Na  Na1  1  0.63742652  0.64202646  0.74200493  1
  Na  Na2  1  0.65679970  0.95355531  0.57828222  1
  Na  Na3  1  0.29675660  0.95355531  0.07828222  1
  Na  Na4  1  0.69002971  0.02728622  0.90989944  1
  Na  Na5  1  0.33725551  0.02728622  0.40989944  1
  Na  Na6  1  0.97382901  0.98639024  0.49263059  1
  Na  Na7  1  0.01256123  0.98639024  0.99263059  1
  Na  Na8  1  0.65477319  0.30659920  0.82592287  1
  Na  Na9  1  0.65182701  0.30659920  0.32592287  1
  Na  Na10  1  0.32845623  0.65846542  0.15983327  1
  Na  Na11  1  0.33000819  0.65846542  0.65983327  1
  Ca  Ca0  1  0.99178738  0.00532514  0.34929531  1
  Ca  Ca1  1  0.01353777  0.00532514  0.84929531  1
  Ca  Ca2  1  0.66612515  0.32750491  0.68247380  1
  Ca  Ca3  1  0.66138076  0.32750491  0.18247380  1
  Ca  Ca4  1  0.32023172  0.65918246  0.01525146  1
  Ca  Ca5  1  0.33894974  0.65918246  0.51525146  1
  La  La0  1  0.00110752  0.99941333  0.65081819  1
  La  La1  1  0.99830582  0.99941333  0.15081819  1
  La  La2  1  0.67609722  0.35195651  0.98453142  1
  La  La3  1  0.67586030  0.35195651  0.48453142  1
  La  La4  1  0.35082729  0.67929078  0.31724482  1
  La  La5  1  0.32846249  0.67929078  0.81724482  1
  P  P0  1  0.29923555  0.00245258  0.25252671  1
  P  P1  1  0.70321703  0.00245258  0.75252671  1
  P  P2  1  0.65998572  0.63703367  0.58829954  1
  P  P3  1  0.97704896  0.63703367  0.08829954  1
  P  P4  1  0.33438831  0.97163103  0.92186609  1
  P  P5  1  0.63724172  0.97163103  0.42186609  1
  S  S0  1  0.70575001  0.69477948  0.25113001  1
  S  S1  1  0.99419581  0.30358081  0.25099762  1
  S  S2  1  0.30938500  0.30358081  0.75099762  1
  S  S3  1  0.98902947  0.69477948  0.75113001  1
  S  S4  1  0.96741974  0.33764349  0.58454980  1
  S  S5  1  0.37131736  0.03033972  0.58187605  1
  S  S6  1  0.65902336  0.03033972  0.08187605  1
  S  S7  1  0.37022475  0.33764349  0.08454980  1
  S  S8  1  0.63404158  0.67657492  0.91551000  1
  S  S9  1  0.03139079  0.35699460  0.91711140  1
  S  S10  1  0.32560281  0.35699460  0.41711140  1
  S  S11  1  0.04253234  0.67657492  0.41551000  1
  O  O0  1  0.21303711  0.01309226  0.30444362  1
  O  O1  1  0.80216969  0.78205949  0.29927717  1
  O  O2  1  0.98058083  0.20626778  0.29922275  1
  O  O3  1  0.22568695  0.20626778  0.79922275  1
  O  O4  1  0.97988980  0.78205949  0.79927717  1
  O  O5  1  0.80005514  0.01309226  0.80444362  1
  O  O6  1  0.78885233  0.98215930  0.70038755  1
  O  O7  1  0.21584767  0.22509924  0.70046867  1
  O  O8  1  0.01300018  0.79308902  0.70077164  1
  O  O9  1  0.78008884  0.79308902  0.20077164  1
  O  O10  1  0.00925157  0.22509924  0.20046867  1
  O  O11  1  0.19330696  0.98215930  0.20038755  1
  O  O12  1  0.88517067  0.35159822  0.63340869  1
  O  O13  1  0.47612403  0.11911753  0.62900859  1
  O  O14  1  0.65344166  0.54603412  0.64135914  1
  O  O15  1  0.89259345  0.54603412  0.14135914  1
  O  O16  1  0.64299449  0.11911753  0.12900859  1
  O  O17  1  0.46642855  0.35159822  0.13340869  1
  O  O18  1  0.44774477  0.31507884  0.03482017  1
  O  O19  1  0.87216008  0.54723722  0.03743565  1
  O  O20  1  0.67841294  0.12342460  0.03037470  1
  O  O21  1  0.44501267  0.12342460  0.53037470  1
  O  O22  1  0.67507814  0.54723722  0.53743565  1
  O  O23  1  0.86733507  0.31507884  0.53482017  1
  O  O24  1  0.54342025  0.68563037  0.96321741  1
  O  O25  1  0.12674371  0.44059403  0.96610924  1
  O  O26  1  0.31964742  0.87475314  0.97458920  1
  O  O27  1  0.55510473  0.87475314  0.47458920  1
  O  O28  1  0.31384931  0.44059403  0.46610924  1
  O  O29  1  0.14220913  0.68563037  0.46321741  1
  O  O30  1  0.11534544  0.65648790  0.36417481  1
  O  O31  1  0.52442589  0.88128629  0.37148895  1
  O  O32  1  0.34210210  0.45311242  0.36721935  1
  O  O33  1  0.11100932  0.45311242  0.86721935  1
  O  O34  1  0.35685939  0.88128629  0.87148895  1
  O  O35  1  0.54114146  0.65648790  0.86417481  1
  O  O36  1  0.03798342  0.83251574  0.41304973  1
  O  O37  1  0.80748054  0.99246637  0.41479821  1
  O  O38  1  0.18174227  0.18856805  0.41409656  1
  O  O39  1  0.00682579  0.18856805  0.91409656  1
  O  O40  1  0.18498583  0.99246637  0.91479821  1
  O  O41  1  0.79453233  0.83251574  0.91304973  1
  O  O42  1  0.97642866  0.18283357  0.58748186  1
  O  O43  1  0.20619262  0.00984391  0.58719904  1
  O  O44  1  0.81414817  0.81661429  0.58667769  1
  O  O45  1  0.00246612  0.81661429  0.08667769  1
  O  O46  1  0.80365129  0.00984391  0.08719904  1
  O  O47  1  0.20640490  0.18283357  0.08748186  1
  O  O48  1  0.67757922  0.15060708  0.74724541  1
  O  O49  1  0.47730729  0.32685831  0.74768047  1
  O  O50  1  0.83303297  0.53526742  0.74716952  1
  O  O51  1  0.70223545  0.53526742  0.24716952  1
  O  O52  1  0.84955202  0.32685831  0.24768047  1
  O  O53  1  0.47302886  0.15060708  0.24724541  1
  O  O54  1  0.65969802  0.53368110  0.91908445  1
  O  O55  1  0.86314933  0.33673281  0.91970685  1
  O  O56  1  0.50066081  0.14021154  0.92236078  1
  O  O57  1  0.63955173  0.14021154  0.42236078  1
  O  O58  1  0.47358447  0.33673281  0.41970685  1
  O  O59  1  0.87398407  0.53368110  0.41908445  1
  O  O60  1  0.35035027  0.48263133  0.07939243  1
  O  O61  1  0.15145174  0.66054859  0.08390054  1
  O  O62  1  0.50639680  0.86683038  0.07917534  1
  O  O63  1  0.36043258  0.86683038  0.57917534  1
  O  O64  1  0.50909585  0.66054859  0.58390054  1
  O  O65  1  0.13228006  0.48263133  0.57939243  1
  O  O66  1  0.30114236  0.83487100  0.25360498  1
  O  O67  1  0.53662668  0.66667135  0.25383120  1
  O  O68  1  0.14264881  0.47279910  0.25371210  1
  O  O69  1  0.33014929  0.47279910  0.75371210  1
  O  O70  1  0.13004367  0.66667135  0.75383120  1
  O  O71  1  0.53372764  0.83487100  0.75360498  1
loop_
_geom_bond_atom_site_label_1
_geom_bond_atom_site_label_2
_geom_bond_distance
_geom_bond_site_symmetry_2
Na0 O66 2.482972 1_555
Na0 O51 2.522032 1_455
Na0 O68 2.540183 1_555
Na0 O52 2.573223 1_455
Na0 O15 2.659825 1_455
Na1 O71 2.482979 1_555
Na1 O50 2.522041 1_555
Na1 O69 2.540191 1_555
Na1 O49 2.573223 1_555
Na1 O14 2.659827 1_555
Na2 O64 2.392650 1_555
Na2 O44 2.425676 1_555
Na2 O63 2.503958 1_555
Na2 O27 2.688422 1_555
Na2 O42 2.708369 1_565
Na3 O61 2.392650 1_555
Na3 O45 2.425684 1_555
Na3 O62 2.503940 1_555
Na3 O26 2.688417 1_554
Na3 O47 2.708376 1_565
Na4 O41 2.490152 1_545
Na4 O56 2.527735 1_555
Na4 O55 2.541166 1_555
Na4 O39 2.601369 1_655
Na4 O5 2.815822 1_555
Na4 O34 2.899991 1_545
Na5 O36 2.490145 1_545
Na5 O57 2.527752 1_555
Na5 O58 2.541165 1_555
Na5 O38 2.601361 1_555
Na5 O0 2.815818 1_555
Na5 O31 2.899991 1_545
Na6 O37 2.495062 1_555
Na6 O36 2.680370 1_655
Na6 O38 2.726127 1_665
Na6 O44 2.777346 1_555
Na6 O42 2.968508 1_565
Na7 O40 2.495062 1_555
Na7 O41 2.680370 1_455
Na7 O39 2.726127 1_565
Na7 O45 2.777346 1_556
Na7 O47 2.968508 1_566
Na8 O48 2.502758 1_555
Na8 O49 2.621687 1_555
Na8 O50 2.747488 1_555
Na8 O56 2.803642 1_555
Na8 O55 2.951718 1_555
Na9 O53 2.502758 1_555
Na9 O52 2.621687 1_555
Na9 O51 2.747488 1_555
Na9 O57 2.803642 1_555
Na9 O58 2.951718 1_555
Na10 O61 2.513821 1_555
Na10 O60 2.653875 1_555
Na10 O62 2.695262 1_555
Na10 O68 2.888505 1_555
Na10 O66 2.927354 1_555
Na10 O67 3.010636 1_555
Na11 O64 2.513821 1_555
Na11 O65 2.653875 1_555
Na11 O63 2.695262 1_555
Na11 O69 2.888505 1_555
Na11 O71 2.927354 1_555
Na11 O70 3.010636 1_555
Ca0 O2 2.302789 1_555
Ca0 O1 2.318719 1_545
Ca0 O37 2.331974 1_545
Ca0 O0 2.338808 1_655
Ca0 O38 2.374486 1_655
Ca0 O36 2.449188 1_645
Ca1 O3 2.302789 1_555
Ca1 O4 2.318719 1_445
Ca1 O40 2.331974 1_545
Ca1 O5 2.338809 1_455
Ca1 O39 2.374486 1_555
Ca1 O41 2.449188 1_445
Ca2 O13 2.297639 1_555
Ca2 O12 2.311873 1_555
Ca2 O48 2.342302 1_555
Ca2 O14 2.349519 1_555
Ca2 O49 2.399033 1_555
Ca2 O50 2.399078 1_555
Ca3 O16 2.297639 1_555
Ca3 O17 2.311873 1_555
Ca3 O53 2.342302 1_555
Ca3 O15 2.349519 1_555
Ca3 O52 2.399033 1_555
Ca3 O51 2.399078 1_555
Ca4 O26 2.265174 1_554
Ca4 O25 2.297217 1_554
Ca4 O61 2.327716 1_555
Ca4 O24 2.375739 1_554
Ca4 O60 2.406945 1_555
Ca4 O62 2.438376 1_555
Ca5 O27 2.265174 1_555
Ca5 O28 2.297217 1_555
Ca5 O64 2.327716 1_555
Ca5 O29 2.375739 1_555
Ca5 O65 2.406945 1_555
Ca5 O63 2.438376 1_555
La0 O6 2.287232 1_455
La0 O8 2.347367 1_555
La0 O44 2.351083 1_455
La0 O7 2.411311 1_565
La0 O42 2.419385 1_465
La0 O43 2.457083 1_565
La1 O11 2.287232 1_655
La1 O9 2.347367 1_555
La1 O45 2.351083 1_655
La1 O10 2.411311 1_665
La1 O47 2.419385 1_665
La1 O46 2.457084 1_565
La2 O19 2.258355 1_556
La2 O18 2.361855 1_556
La2 O56 2.398356 1_555
La2 O54 2.406487 1_555
La2 O20 2.438731 1_556
La2 O55 2.440306 1_555
La3 O22 2.258355 1_555
La3 O23 2.361855 1_555
La3 O57 2.398356 1_555
La3 O59 2.406486 1_555
La3 O21 2.438731 1_555
La3 O58 2.440306 1_555
La4 O31 2.228537 1_555
La4 O66 2.344076 1_555
La4 O67 2.398408 1_555
La4 O32 2.422754 1_555
La4 O30 2.425174 1_555
La4 O68 2.503012 1_555
La5 O34 2.228537 1_555
La5 O71 2.344076 1_555
La5 O70 2.398408 1_555
La5 O33 2.422754 1_555
La5 O35 2.425174 1_555
La5 O69 2.503012 1_555
O0 P0 1.543189 1_555
O1 S0 1.467661 1_555
O2 S1 1.459962 1_555
O3 S2 1.459962 1_555
O4 S3 1.467661 1_555
O5 P1 1.543189 1_555
O6 P1 1.577245 1_565
O7 S2 1.487471 1_555
O8 S3 1.488936 1_455
O9 S0 1.488936 1_555
O10 S1 1.487471 1_455
O11 P0 1.577245 1_565
O12 S4 1.471265 1_555
O13 S5 1.480345 1_555
O14 P2 1.540265 1_555
O15 P3 1.540265 1_555
O16 S6 1.480345 1_555
O17 S7 1.471265 1_555
O18 S7 1.493568 1_555
O19 P3 1.555267 1_555
O20 S6 1.493257 1_555
O21 S5 1.493257 1_555
O22 P2 1.555267 1_555
O23 S4 1.493568 1_555
O24 S8 1.479360 1_555
O25 S9 1.472798 1_555
O26 P4 1.545874 1_555
O27 P5 1.545874 1_555
O28 S10 1.472798 1_555
O29 S11 1.479360 1_555
O30 S11 1.493004 1_555
O31 P5 1.576024 1_555
O32 S10 1.480982 1_555
O33 S9 1.480982 1_555
O34 P4 1.576024 1_555
O35 S8 1.493004 1_555
O36 S11 1.494518 1_555
O37 P5 1.536519 1_555
O38 S10 1.487465 1_555
O39 S9 1.487469 1_555
O40 P4 1.536509 1_555
O41 S8 1.494523 1_555
O42 S4 1.506974 1_555
O43 S5 1.485522 1_555
O44 P2 1.587031 1_555
O45 P3 1.587035 1_455
O46 S6 1.485513 1_555
O47 S7 1.506979 1_555
O48 P1 1.539898 1_555
O49 S2 1.497982 1_555
O50 S3 1.491821 1_555
O51 S0 1.491826 1_555
O52 S1 1.497973 1_555
O53 P0 1.539904 1_555
O54 S8 1.488083 1_555
O55 S9 1.511443 1_655
O56 P4 1.579663 1_545
O57 P5 1.579654 1_545
O58 S10 1.511461 1_555
O59 S11 1.488071 1_655
O60 S7 1.477040 1_555
O61 P3 1.559662 1_455
O62 S6 1.494971 1_565
O63 S5 1.494963 1_565
O64 P2 1.559681 1_555
O65 S4 1.477028 1_455
O66 P0 1.590416 1_565
O67 S0 1.491359 1_555
O68 S1 1.508625 1_455
O69 S2 1.508628 1_555
O70 S3 1.491350 1_455
O71 P1 1.590421 1_565
