# generated using pymatgen
data_Li6Cr9(PO4)8
_symmetry_space_group_name_H-M   'P 1'
_cell_length_a   9.20535400
_cell_length_b   9.05217541
_cell_length_c   8.94903498
_cell_angle_alpha   103.55691940
_cell_angle_beta   99.51191338
_cell_angle_gamma   111.74642969
_symmetry_Int_Tables_number   1
_chemical_formula_structural   Li6Cr9(PO4)8
_chemical_formula_sum   'Li6 Cr9 P8 O32'
_cell_volume   646.56445707
_cell_formula_units_Z   1
loop_
 _symmetry_equiv_pos_site_id
 _symmetry_equiv_pos_as_xyz
  1  'x, y, z'
loop_
 _atom_site_type_symbol
 _atom_site_label
 _atom_site_symmetry_multiplicity
 _atom_site_fract_x
 _atom_site_fract_y
 _atom_site_fract_z
 _atom_site_occupancy
  Li  Li0  1  0.00439600  0.89747900  0.64411000  1
  Li  Li1  1  0.99560400  0.10252100  0.35589000  1
  Li  Li2  1  0.73219100  0.24945900  0.95989400  1
  Li  Li3  1  0.65020700  0.68543600  0.69419500  1
  Li  Li4  1  0.34979300  0.31456400  0.30580500  1
  Li  Li5  1  0.26780900  0.75054100  0.04010600  1
  Cr  Cr0  1  0.93512400  0.72478600  0.21020100  1
  Cr  Cr1  1  0.57003300  0.12507700  0.28567900  1
  Cr  Cr2  1  0.56342200  0.30805900  0.65825400  1
  Cr  Cr3  1  0.50000000  0.50000000  0.00000000  1
  Cr  Cr4  1  0.43657800  0.69194100  0.34174600  1
  Cr  Cr5  1  0.00000000  0.00000000  0.00000000  1
  Cr  Cr6  1  0.42996700  0.87492300  0.71432100  1
  Cr  Cr7  1  0.06487600  0.27521400  0.78979900  1
  Cr  Cr8  1  0.00000000  0.50000000  0.50000000  1
  P  P0  1  0.27947800  0.95383200  0.40797700  1
  P  P1  1  0.08878100  0.37220200  0.16131000  1
  P  P2  1  0.28100500  0.44254700  0.65448800  1
  P  P3  1  0.34867300  0.11505400  0.96138200  1
  P  P4  1  0.65132700  0.88494600  0.03861800  1
  P  P5  1  0.71899500  0.55745300  0.34551200  1
  P  P6  1  0.91121900  0.62779800  0.83869000  1
  P  P7  1  0.72052200  0.04616800  0.59202300  1
  O  O0  1  0.90907900  0.78696300  0.79690900  1
  O  O1  1  0.68345400  0.17331600  0.71149300  1
  O  O2  1  0.88056400  0.04495900  0.67625300  1
  O  O3  1  0.59837900  0.83117200  0.85250900  1
  O  O4  1  0.75520600  0.42416000  0.40503200  1
  O  O5  1  0.86874200  0.73237500  0.42173300  1
  O  O6  1  0.66243700  0.06466900  0.10519800  1
  O  O7  1  0.73289700  0.08387100  0.43434800  1
  O  O8  1  0.97882500  0.53468100  0.72346300  1
  O  O9  1  0.11943600  0.95504100  0.32374700  1
  O  O10  1  0.02113300  0.68813900  0.01289100  1
  O  O11  1  0.02117500  0.46531900  0.27653700  1
  O  O12  1  0.26710300  0.91612900  0.56565200  1
  O  O13  1  0.33756300  0.93533100  0.89480200  1
  O  O14  1  0.13125800  0.26762500  0.57826700  1
  O  O15  1  0.24479400  0.57584000  0.59496800  1
  O  O16  1  0.70382300  0.52482400  0.16020700  1
  O  O17  1  0.31654600  0.82668400  0.28850700  1
  O  O18  1  0.29617700  0.47517600  0.83979300  1
  O  O19  1  0.17613900  0.10859900  0.90260400  1
  O  O20  1  0.26854300  0.48228500  0.17080700  1
  O  O21  1  0.09092100  0.21303700  0.20309100  1
  O  O22  1  0.57561800  0.86703900  0.55644800  1
  O  O23  1  0.43958800  0.44532700  0.61826500  1
  O  O24  1  0.47072800  0.25031800  0.90655400  1
  O  O25  1  0.52927200  0.74968200  0.09344600  1
  O  O26  1  0.56041200  0.55467300  0.38173500  1
  O  O27  1  0.42438200  0.13296100  0.44355200  1
  O  O28  1  0.40162100  0.16882800  0.14749100  1
  O  O29  1  0.73145700  0.51771500  0.82919300  1
  O  O30  1  0.82386100  0.89140100  0.09739600  1
  O  O31  1  0.97886700  0.31186100  0.98710900  1
loop_
_geom_bond_atom_site_label_1
_geom_bond_atom_site_label_2
_geom_bond_distance
_geom_bond_site_symmetry_2
Li0 O0 2.006969 1_455
Li0 O5 2.038313 1_455
Li0 O2 2.054364 1_465
Li0 O19 2.445973 1_565
Li0 O12 2.585331 1_555
Li1 O21 2.006969 1_655
Li1 O14 2.038313 1_655
Li1 O9 2.054364 1_645
Li1 O30 2.445973 1_545
Li1 O7 2.585331 1_555
Li2 O31 2.082526 1_555
Li2 O1 2.083454 1_555
Li2 O6 2.324020 1_556
Li2 O24 2.378399 1_555
Li3 O3 1.946464 1_555
Li3 O0 2.150681 1_555
Li3 O23 2.166672 1_555
Li3 O29 2.393048 1_555
Li3 O22 2.490002 1_555
Li3 O26 2.619645 1_555
Li4 O28 1.946464 1_555
Li4 O21 2.150681 1_555
Li4 O26 2.166672 1_555
Li4 O20 2.393048 1_555
Li4 O27 2.490002 1_555
Li4 O23 2.619645 1_555
Li5 O10 2.082526 1_555
Li5 O17 2.083454 1_555
Li5 O13 2.324020 1_554
Li5 O25 2.378399 1_555
Cr0 O9 2.018003 1_655
Cr0 O10 2.058344 1_655
Cr0 O5 2.077031 1_555
Cr0 O16 2.111814 1_555
Cr0 O30 2.420660 1_555
Cr1 O6 2.003964 1_555
Cr1 O28 2.034820 1_555
Cr1 O7 2.035848 1_555
Cr1 O27 2.109143 1_555
Cr1 O4 2.449308 1_555
Cr2 O29 2.004029 1_555
Cr2 O1 2.008157 1_555
Cr2 O23 2.023548 1_555
Cr2 O27 2.024439 1_555
Cr2 O24 2.603735 1_555
Cr3 O16 2.067325 1_555
Cr3 O18 2.067325 1_554
Cr3 O24 2.113861 1_554
Cr3 O25 2.113861 1_555
Cr4 O20 2.004029 1_555
Cr4 O17 2.008157 1_555
Cr4 O26 2.023548 1_555
Cr4 O22 2.024439 1_555
Cr4 O25 2.603735 1_555
Cr5 O19 2.010663 1_554
Cr5 O30 2.010663 1_445
Cr5 O21 2.093009 1_555
Cr5 O0 2.093009 1_444
Cr6 O13 2.003964 1_555
Cr6 O3 2.034820 1_555
Cr6 O12 2.035848 1_555
Cr6 O22 2.109143 1_555
Cr6 O15 2.449308 1_555
Cr7 O2 2.018003 1_455
Cr7 O31 2.058344 1_455
Cr7 O14 2.077031 1_555
Cr7 O18 2.111814 1_555
Cr7 O19 2.420660 1_555
Cr8 O8 2.003874 1_455
Cr8 O11 2.003874 1_555
Cr8 O4 2.053934 1_455
Cr8 O15 2.053934 1_555
O0 P6 1.577092 1_555
O1 P7 1.555283 1_555
O2 P7 1.545165 1_555
O3 P4 1.556986 1_556
O4 P5 1.546397 1_555
O5 P5 1.561469 1_555
O6 P4 1.553815 1_545
O7 P7 1.539669 1_555
O8 P6 1.534415 1_555
O9 P0 1.545165 1_555
O10 P6 1.556377 1_454
O11 P1 1.534415 1_555
O12 P0 1.539669 1_555
O13 P3 1.553815 1_565
O14 P2 1.561469 1_555
O15 P2 1.546397 1_555
O16 P5 1.587439 1_555
O17 P0 1.555283 1_555
O18 P2 1.587439 1_555
O19 P3 1.563107 1_555
O20 P1 1.558981 1_555
O21 P1 1.577092 1_555
O22 P7 1.588968 1_565
O23 P2 1.539405 1_555
O24 P3 1.564231 1_555
O25 P4 1.564231 1_555
O26 P5 1.539405 1_555
O27 P0 1.588968 1_545
O28 P3 1.556986 1_554
O29 P6 1.558981 1_555
O30 P4 1.563107 1_555
O31 P1 1.556377 1_656
