# generated using pymatgen
data_Na2TiSi2GeSO12
_symmetry_space_group_name_H-M   'P 1'
_cell_length_a   8.69361273
_cell_length_b   8.70489248
_cell_length_c   22.02869709
_cell_angle_alpha   89.35891261
_cell_angle_beta   90.73648263
_cell_angle_gamma   119.86789844
_symmetry_Int_Tables_number   1
_chemical_formula_structural   Na2TiSi2GeSO12
_chemical_formula_sum   'Na12 Ti6 Si12 Ge6 S6 O72'
_cell_volume   1445.49706741
_cell_formula_units_Z   6
loop_
 _symmetry_equiv_pos_site_id
 _symmetry_equiv_pos_as_xyz
  1  'x, y, z'
loop_
 _atom_site_type_symbol
 _atom_site_label
 _atom_site_symmetry_multiplicity
 _atom_site_fract_x
 _atom_site_fract_y
 _atom_site_fract_z
 _atom_site_occupancy
  Na  Na0  1  0.99861614  0.63568450  0.25383082  1
  Na  Na1  1  0.37116402  0.00585730  0.75523159  1
  Na  Na2  1  0.66484711  0.96927376  0.58794897  1
  Na  Na3  1  0.03726297  0.33453193  0.08768029  1
  Na  Na4  1  0.33151091  0.29845398  0.92242081  1
  Na  Na5  1  0.70608516  0.67121892  0.42079683  1
  Na  Na6  1  0.02009628  0.99725519  0.50057957  1
  Na  Na7  1  0.00169935  0.97997559  -0.00032065  1
  Na  Na8  1  0.68850606  0.33254318  0.83385799  1
  Na  Na9  1  0.66748466  0.31295719  0.33274357  1
  Na  Na10  1  0.35130051  0.66514602  0.16563867  1
  Na  Na11  1  0.33194190  0.64673669  0.66793445  1
  Ti  Ti0  1  0.97989555  0.99200388  0.35415864  1
  Ti  Ti1  1  0.99668400  0.00271145  0.64665897  1
  Ti  Ti2  1  0.00077644  0.99916620  0.14301660  1
  Ti  Ti3  1  0.64586100  0.32497932  0.68876459  1
  Ti  Ti4  1  0.66569756  0.33464464  0.47818710  1
  Ti  Ti5  1  0.33073554  0.66696429  0.31081992  1
  Si  Si0  1  0.70494202  0.71038988  0.24855592  1
  Si  Si1  1  0.99113357  0.28478119  0.24544852  1
  Si  Si2  1  0.28292384  0.29860645  0.75296787  1
  Si  Si3  1  0.71253567  0.99573659  0.75292997  1
  Si  Si4  1  0.37001550  0.04294060  0.58320712  1
  Si  Si5  1  0.65917160  0.61984598  0.58044721  1
  Si  Si6  1  0.95034194  0.62099024  0.08049725  1
  Si  Si7  1  0.39029792  0.34039152  0.07983560  1
  Si  Si8  1  0.03865563  0.38170686  0.91621994  1
  Si  Si9  1  0.33199180  0.94890269  0.91602368  1
  Si  Si10  1  0.61635864  0.95863353  0.41734097  1
  Si  Si11  1  0.05311130  0.66938643  0.41719400  1
  Ge  Ge0  1  0.01570019  0.02404870  0.85574428  1
  Ge  Ge1  1  0.68095059  0.35980252  0.18607502  1
  Ge  Ge2  1  0.66610210  0.32958866  0.97813406  1
  Ge  Ge3  1  0.30880811  0.65146865  0.02027101  1
  Ge  Ge4  1  0.34755480  0.69089937  0.52164551  1
  Ge  Ge5  1  0.33315233  0.66852367  0.81418005  1
  S  S0  1  0.29463427  0.01051368  0.24937535  1
  S  S1  1  0.99634146  0.71040078  0.75184543  1
  S  S2  1  0.96056052  0.34300406  0.58398407  1
  S  S3  1  0.65706617  0.04098880  0.08230640  1
  S  S4  1  0.62542315  0.67213663  0.91678784  1
  S  S5  1  0.32605304  0.37720238  0.41755287  1
  O  O0  1  0.21168535  0.02810902  0.30442167  1
  O  O1  1  0.82726117  0.79110860  0.31060483  1
  O  O2  1  0.97144939  0.15960319  0.30430781  1
  O  O3  1  0.21479303  0.17064879  0.81364276  1
  O  O4  1  0.97380642  0.78974578  0.80770042  1
  O  O5  1  0.84129597  0.02045236  0.81089849  1
  O  O6  1  0.79576767  0.96797144  0.69019937  1
  O  O7  1  0.15806579  0.19074533  0.69506341  1
  O  O8  1  0.02267516  0.82098512  0.69685586  1
  O  O9  1  0.81747526  0.83670064  0.19197411  1
  O  O10  1  0.02332392  0.20014439  0.18471205  1
  O  O11  1  0.18505522  0.98220196  0.19400644  1
  O  O12  1  0.87699797  0.36045800  0.63871914  1
  O  O13  1  0.49349471  0.12517544  0.64488809  1
  O  O14  1  0.64052388  0.49352976  0.63869023  1
  O  O15  1  0.87999604  0.50119281  0.14347254  1
  O  O16  1  0.63528165  0.12356118  0.13726600  1
  O  O17  1  0.51267225  0.36691149  0.14029045  1
  O  O18  1  0.46807195  0.30372328  0.01769870  1
  O  O19  1  0.82415012  0.51844958  0.02305556  1
  O  O20  1  0.69312681  0.15239029  0.02627029  1
  O  O21  1  0.48043216  0.16908601  0.52625842  1
  O  O22  1  0.69106734  0.53613531  0.51932100  1
  O  O23  1  0.85166668  0.31527969  0.52836806  1
  O  O24  1  0.54303669  0.69485933  0.97181354  1
  O  O25  1  0.16394481  0.45233658  0.97803480  1
  O  O26  1  0.30435318  0.82329952  0.97516363  1
  O  O27  1  0.54672674  0.83622767  0.47932027  1
  O  O28  1  0.30517079  0.45701141  0.47317139  1
  O  O29  1  0.17603364  0.69030114  0.47668281  1
  O  O30  1  0.13380889  0.64031364  0.35434598  1
  O  O31  1  0.49422568  0.84979232  0.35946016  1
  O  O32  1  0.35266561  0.48536047  0.36196988  1
  O  O33  1  0.14003926  0.51087412  0.85889674  1
  O  O34  1  0.36521731  0.86907492  0.85369044  1
  O  O35  1  0.51267906  0.63939179  0.86112973  1
  O  O36  1  0.03279674  0.84664472  0.41144303  1
  O  O37  1  0.81328054  0.97556798  0.41061866  1
  O  O38  1  0.17281343  0.19860325  0.41149327  1
  O  O39  1  0.02727760  0.18554557  0.91158090  1
  O  O40  1  0.14965427  0.96864871  0.91085059  1
  O  O41  1  0.80392485  0.82660825  0.91172774  1
  O  O42  1  0.97192227  0.17638581  0.58675798  1
  O  O43  1  0.17698756  0.02275989  0.59092057  1
  O  O44  1  0.82722677  0.82063003  0.58923430  1
  O  O45  1  0.97410660  0.81689584  0.08800102  1
  O  O46  1  0.82148631  0.02636302  0.08590907  1
  O  O47  1  0.18728708  0.17198724  0.08783590  1
  O  O48  1  0.69282329  0.17365723  0.74601155  1
  O  O49  1  0.47896737  0.31426916  0.74421780  1
  O  O50  1  0.84456502  0.53206417  0.74531492  1
  O  O51  1  0.69594536  0.51706909  0.24408799  1
  O  O52  1  0.80744785  0.29830253  0.24097514  1
  O  O53  1  0.47307244  0.16626666  0.24381478  1
  O  O54  1  0.63664287  0.50551782  0.91907295  1
  O  O55  1  0.84142393  0.35768983  0.92391610  1
  O  O56  1  0.50304389  0.15353148  0.92291293  1
  O  O57  1  0.63746228  0.15228031  0.42272028  1
  O  O58  1  0.49213782  0.36514287  0.41970895  1
  O  O59  1  0.85096145  0.49943542  0.42314759  1
  O  O60  1  0.37195410  0.52281048  0.07501344  1
  O  O61  1  0.14761791  0.63501006  0.07693162  1
  O  O62  1  0.50146101  0.86375709  0.07662275  1
  O  O63  1  0.36128820  0.84978225  0.57888723  1
  O  O64  1  0.47478418  0.63197853  0.57625614  1
  O  O65  1  0.13995245  0.49730925  0.57899530  1
  O  O66  1  0.30744866  0.84503196  0.25216399  1
  O  O67  1  0.51121604  0.68921100  0.25500471  1
  O  O68  1  0.15965721  0.48561484  0.25430436  1
  O  O69  1  0.30123781  0.49171355  0.76011451  1
  O  O70  1  0.16502491  0.70180557  0.75380620  1
  O  O71  1  0.50897103  0.82406230  0.75874197  1
loop_
_geom_bond_atom_site_label_1
_geom_bond_atom_site_label_2
_geom_bond_distance
_geom_bond_site_symmetry_2
Na0 O51 2.306584 1_555
Na0 O68 2.342571 1_655
Na0 O66 2.378792 1_655
Na0 O30 2.484687 1_655
Na0 O52 2.571494 1_555
Na0 O15 2.672233 1_555
Na0 O1 2.776147 1_555
Na0 O11 2.925561 1_655
Na1 O70 2.343922 1_545
Na1 O49 2.372764 1_555
Na1 O71 2.414294 1_545
Na1 O48 2.436032 1_555
Na1 O34 2.451200 1_545
Na1 O13 2.651039 1_555
Na1 O3 2.755002 1_555
Na1 O8 2.917566 1_545
Na2 O63 2.311556 1_555
Na2 O44 2.342071 1_555
Na2 O42 2.363222 1_565
Na2 O6 2.513054 1_555
Na2 O64 2.567346 1_555
Na2 O27 2.633691 1_555
Na2 O13 2.780972 1_565
Na2 O23 2.919989 1_565
Na3 O61 2.304478 1_555
Na3 O47 2.353923 1_555
Na3 O46 2.388523 1_455
Na3 O10 2.400318 1_555
Na3 O60 2.547765 1_555
Na3 O25 2.643200 1_554
Na3 O15 2.746489 1_455
Na3 O20 2.917885 1_455
Na4 O39 2.327727 1_555
Na4 O54 2.351786 1_555
Na4 O56 2.385037 1_555
Na4 O18 2.387591 1_556
Na4 O40 2.508372 1_545
Na4 O3 2.623371 1_555
Na4 O25 2.728284 1_555
Na4 O35 2.901881 1_555
Na5 O37 2.338945 1_555
Na5 O58 2.371357 1_555
Na5 O59 2.386959 1_555
Na5 O22 2.430531 1_555
Na5 O36 2.475827 1_655
Na5 O1 2.646726 1_555
Na5 O27 2.777395 1_555
Na5 O32 2.954751 1_555
Na6 O43 2.347047 1_565
Na6 O36 2.407067 1_555
Na6 O38 2.521551 1_565
Na6 O44 2.537452 1_455
Na6 O37 2.602744 1_455
Na6 O42 2.635885 1_465
Na7 O45 2.338633 1_455
Na7 O40 2.385064 1_554
Na7 O41 2.485623 1_454
Na7 O47 2.544453 1_565
Na7 O39 2.560269 1_564
Na7 O46 2.636207 1_465
Na8 O55 2.324442 1_555
Na8 O48 2.402618 1_555
Na8 O50 2.511348 1_555
Na8 O56 2.527223 1_555
Na8 O54 2.599131 1_555
Na8 O49 2.620861 1_555
Na9 O57 2.353864 1_555
Na9 O52 2.409786 1_555
Na9 O53 2.479122 1_555
Na9 O51 2.555216 1_555
Na9 O59 2.560677 1_555
Na9 O58 2.642812 1_555
Na10 O67 2.345403 1_555
Na10 O60 2.416399 1_555
Na10 O62 2.506067 1_555
Na10 O68 2.540690 1_555
Na10 O61 2.546114 1_555
Na10 O66 2.628760 1_555
Na11 O69 2.368438 1_555
Na11 O64 2.422061 1_555
Na11 O65 2.475254 1_555
Na11 O71 2.525191 1_555
Na11 O63 2.554038 1_555
Na11 O70 2.587958 1_555
Ge0 O5 1.786252 1_455
Ge0 O3 1.816395 1_555
Ge0 O39 1.842266 1_555
Ge0 O40 1.890040 1_545
Ge0 O4 2.170521 1_445
Ge0 O41 2.173415 1_445
Ge1 O17 1.792235 1_555
Ge1 O15 1.812339 1_555
Ge1 O51 1.838858 1_555
Ge1 O52 1.869834 1_555
Ge1 O53 2.168121 1_555
Ge1 O16 2.183573 1_555
Ge2 O19 1.822499 1_556
Ge2 O18 1.849948 1_556
Ge2 O55 1.865032 1_555
Ge2 O56 1.916128 1_555
Ge2 O20 1.968966 1_556
Ge2 O54 2.107394 1_555
Ge3 O26 1.802673 1_554
Ge3 O25 1.813315 1_554
Ge3 O61 1.839331 1_555
Ge3 O60 1.890765 1_555
Ge3 O62 2.162456 1_555
Ge3 O24 2.170118 1_554
Ge4 O29 1.777348 1_555
Ge4 O27 1.816934 1_555
Ge4 O63 1.840602 1_555
Ge4 O64 1.857613 1_555
Ge4 O65 2.162154 1_555
Ge4 O28 2.170835 1_555
Ge5 O33 1.841108 1_555
Ge5 O34 1.850954 1_555
Ge5 O69 1.863200 1_555
Ge5 O71 1.900166 1_555
Ge5 O35 1.979065 1_555
Ge5 O70 2.086209 1_555
O0 S0 1.466466 1_555
O0 Ti0 2.185876 1_445
O1 Si0 1.653100 1_555
O1 Ti0 1.852853 1_555
O2 Si1 1.638952 1_555
O2 Ti0 1.846235 1_545
O3 Si2 1.645571 1_555
O4 S1 1.479640 1_555
O5 Si3 1.630801 1_545
O6 Si3 1.642843 1_555
O6 Ti1 1.890184 1_565
O7 Si2 1.631862 1_555
O7 Ti1 1.870254 1_455
O8 S1 1.485921 1_455
O8 Ti1 2.021551 1_465
O9 Si0 1.627552 1_555
O9 Ti2 1.862249 1_655
O10 Si1 1.627348 1_455
O10 Ti2 1.905926 1_545
O11 S0 1.482887 1_565
O11 Ti2 2.008904 1_555
O12 S2 1.463282 1_555
O12 Ti3 2.186257 1_555
O13 Si4 1.652239 1_555
O13 Ti3 1.850384 1_555
O14 Si5 1.636368 1_555
O14 Ti3 1.844427 1_555
O15 Si6 1.655362 1_555
O16 S3 1.476223 1_555
O17 Si7 1.638444 1_555
O18 Si7 1.637428 1_555
O19 Si6 1.617312 1_555
O20 S3 1.497594 1_555
O21 Si4 1.628277 1_555
O21 Ti4 1.868219 1_555
O22 Si5 1.629059 1_555
O22 Ti4 1.895045 1_555
O23 S2 1.484817 1_555
O23 Ti4 2.021277 1_555
O24 S4 1.479933 1_555
O25 Si8 1.652947 1_555
O26 Si9 1.632455 1_555
O27 Si10 1.646864 1_555
O28 S5 1.472112 1_555
O29 Si11 1.633402 1_555
O30 Si11 1.637864 1_555
O30 Ti5 1.883018 1_555
O31 Si10 1.625123 1_555
O31 Ti5 1.856639 1_555
O32 S5 1.484485 1_555
O32 Ti5 2.014898 1_555
O33 Si8 1.626475 1_555
O34 Si9 1.638058 1_555
O35 S4 1.497955 1_555
O36 Si11 1.641524 1_555
O36 Ti0 1.983415 1_455
O37 Si10 1.652013 1_555
O37 Ti0 1.871201 1_555
O38 S5 1.465205 1_555
O38 Ti0 2.152802 1_445
O39 Si8 1.664756 1_555
O40 Si9 1.679762 1_555
O41 S4 1.466782 1_555
O42 S2 1.502559 1_555
O42 Ti1 2.084543 1_555
O43 Si4 1.608984 1_555
O43 Ti1 1.940953 1_455
O44 Si5 1.638224 1_555
O44 Ti1 1.988468 1_565
O45 Si6 1.622559 1_555
O45 Ti2 1.925968 1_655
O46 S3 1.497939 1_555
O46 Ti2 2.092503 1_645
O47 Si7 1.649310 1_555
O47 Ti2 1.987479 1_545
O48 Si3 1.646122 1_545
O48 Ti3 1.994333 1_555
O49 Si2 1.654354 1_555
O49 Ti3 1.874654 1_555
O50 S1 1.460006 1_555
O50 Ti3 2.163070 1_555
O51 Si0 1.649290 1_555
O52 Si1 1.660280 1_555
O53 S0 1.471739 1_555
O54 S4 1.501616 1_555
O55 Si8 1.631604 1_655
O56 Si9 1.664116 1_545
O57 Si10 1.607819 1_545
O57 Ti4 1.928942 1_555
O58 S5 1.499049 1_555
O58 Ti4 2.085175 1_555
O59 Si11 1.645110 1_655
O59 Ti4 1.957541 1_555
O60 Si7 1.675194 1_555
O61 Si6 1.660484 1_455
O62 S3 1.465306 1_565
O63 Si4 1.648735 1_565
O64 Si5 1.659476 1_555
O65 S2 1.470776 1_455
O66 S0 1.499635 1_565
O66 Ti5 2.091467 1_555
O67 Si0 1.608396 1_555
O67 Ti5 1.937199 1_555
O68 Si1 1.640139 1_455
O68 Ti5 1.977856 1_555
O69 Si2 1.616950 1_555
O70 S1 1.505183 1_455
O71 Si3 1.658000 1_555
