# generated using pymatgen
data_MgZn2(WO4)2
_symmetry_space_group_name_H-M   'P 1'
_cell_length_a   5.08335979
_cell_length_b   5.14875662
_cell_length_c   6.41097163
_cell_angle_alpha   90.00000000
_cell_angle_beta   90.00000000
_cell_angle_gamma   77.91663337
_symmetry_Int_Tables_number   1
_chemical_formula_structural   MgZn2(WO4)2
_chemical_formula_sum   'Mg1 Zn2 W2 O8'
_cell_volume   164.07660631
_cell_formula_units_Z   1
loop_
 _symmetry_equiv_pos_site_id
 _symmetry_equiv_pos_as_xyz
  1  'x, y, z'
loop_
 _atom_site_type_symbol
 _atom_site_label
 _atom_site_symmetry_multiplicity
 _atom_site_fract_x
 _atom_site_fract_y
 _atom_site_fract_z
 _atom_site_occupancy
  Mg  Mg0  1  0.00000000  0.25000000  0.58986740  1
  Zn  Zn0  1  0.50000000  0.25000000  0.81202438  1
  Zn  Zn1  1  0.50000000  0.75000000  0.41225785  1
  W  W0  1  0.00000000  0.25000000  0.13128398  1
  W  W1  1  0.00000000  0.75000000  0.83685919  1
  O  O0  1  0.78685212  0.98774164  0.06624510  1
  O  O1  1  0.21314788  0.51225836  0.06624510  1
  O  O2  1  0.21028079  0.04396366  0.85970055  1
  O  O3  1  0.78971921  0.45603634  0.85970055  1
  O  O4  1  0.77915656  0.44612657  0.35651732  1
  O  O5  1  0.22084344  0.05387343  0.35651732  1
  O  O6  1  0.24886923  0.53858759  0.63889063  1
  O  O7  1  0.75113077  0.96141241  0.63889063  1
loop_
_geom_bond_atom_site_label_1
_geom_bond_atom_site_label_2
_geom_bond_distance
_geom_bond_site_symmetry_2
Mg0 O4 2.010821 1_455
Mg0 O5 2.010821 1_555
Mg0 O6 2.166572 1_555
Mg0 O7 2.166572 1_445
Mg0 O3 2.187637 1_455
Mg0 O2 2.187637 1_555
O0 W0 1.945176 1_665
O0 W1 2.068742 1_654
O0 Zn0 2.404474 1_564
O1 W0 1.945176 1_555
O1 W1 2.068742 1_554
O1 Zn0 2.404474 1_554
O2 Zn0 2.010440 1_555
O2 W1 2.032792 1_545
O2 W0 2.196521 1_556
O3 Zn0 2.010440 1_555
O3 W1 2.032792 1_655
O3 W0 2.196521 1_656
O4 Zn1 1.913050 1_555
O4 W0 1.972414 1_655
O5 Zn1 1.913050 1_545
O5 W0 1.972414 1_555
O6 W1 1.954373 1_555
O6 Zn0 2.067687 1_555
O6 Zn1 2.346771 1_555
O7 W1 1.954373 1_655
O7 Zn0 2.067687 1_565
O7 Zn1 2.346771 1_555
