# generated using pymatgen
data_Na6CaSi2Ge3(PO6)4
_symmetry_space_group_name_H-M   'P 1'
_cell_length_a   15.32279726
_cell_length_b   8.81856081
_cell_length_c   8.89690890
_cell_angle_alpha   89.62788391
_cell_angle_beta   125.05712206
_cell_angle_gamma   90.16062901
_symmetry_Int_Tables_number   1
_chemical_formula_structural   Na6CaSi2Ge3(PO6)4
_chemical_formula_sum   'Na12 Ca2 Si4 Ge6 P8 O48'
_cell_volume   984.07114710
_cell_formula_units_Z   2
loop_
 _symmetry_equiv_pos_site_id
 _symmetry_equiv_pos_as_xyz
  1  'x, y, z'
loop_
 _atom_site_type_symbol
 _atom_site_label
 _atom_site_symmetry_multiplicity
 _atom_site_fract_x
 _atom_site_fract_y
 _atom_site_fract_z
 _atom_site_occupancy
  Na  Na0  1  0.25042324  0.74631612  0.99666384  1
  Na  Na1  1  0.74962300  0.74668319  0.49321384  1
  Na  Na2  1  0.75042324  0.24631612  0.99666384  1
  Na  Na3  1  0.24962300  0.24668319  0.49321384  1
  Na  Na4  1  0.50668877  0.09570241  0.75840827  1
  Na  Na5  1  0.50105031  0.88739034  0.24050724  1
  Na  Na6  1  0.00668877  0.59570241  0.75840827  1
  Na  Na7  1  0.00105031  0.38739034  0.24050724  1
  Na  Na8  1  0.80290487  0.92455847  0.22061908  1
  Na  Na9  1  0.18235322  0.07614755  0.78655131  1
  Na  Na10  1  0.30290487  0.42455847  0.22061908  1
  Na  Na11  1  0.68235322  0.57614755  0.78655131  1
  Ca  Ca0  1  0.10068885  0.24311046  0.05927722  1
  Ca  Ca1  1  0.60068885  0.74311046  0.05927722  1
  Si  Si0  1  0.65211996  0.90266574  0.74487838  1
  Si  Si1  1  0.36261453  0.09773184  0.25866147  1
  Si  Si2  1  0.15211996  0.40266574  0.74487838  1
  Si  Si3  1  0.86261453  0.59773184  0.25866147  1
  Ge  Ge0  1  0.10365195  0.74715813  0.55668054  1
  Ge  Ge1  1  0.89511751  0.75371814  0.93906482  1
  Ge  Ge2  1  0.89871361  0.25383351  0.44209983  1
  Ge  Ge3  1  0.60365195  0.24715813  0.55668054  1
  Ge  Ge4  1  0.39511751  0.25371814  0.93906482  1
  Ge  Ge5  1  0.39871361  0.75383351  0.44209983  1
  P  P0  1  0.99367980  0.94759131  0.73787126  1
  P  P1  1  0.99645586  0.03411156  0.26030310  1
  P  P2  1  0.49367980  0.44759131  0.73787126  1
  P  P3  1  0.49645586  0.53411156  0.26030310  1
  P  P4  1  0.34786320  0.89850442  0.74872935  1
  P  P5  1  0.64768650  0.12711205  0.25298188  1
  P  P6  1  0.84786320  0.39850442  0.74872935  1
  P  P7  1  0.14768650  0.62711205  0.25298188  1
  O  O0  1  0.16088683  0.58674789  0.72103635  1
  O  O1  1  0.84937211  0.57709634  0.75298212  1
  O  O2  1  0.86044675  0.40899179  0.26806141  1
  O  O3  1  0.15530069  0.45349697  0.25833329  1
  O  O4  1  0.66088683  0.08674789  0.72103635  1
  O  O5  1  0.34937211  0.07709634  0.75298212  1
  O  O6  1  0.36044675  0.90899179  0.26806141  1
  O  O7  1  0.65530069  0.95349697  0.25833329  1
  O  O8  1  0.42054090  0.54906472  0.56201293  1
  O  O9  1  0.57047792  0.53887953  0.90616289  1
  O  O10  1  0.55728374  0.43639981  0.43508318  1
  O  O11  1  0.43201052  0.43413741  0.08377342  1
  O  O12  1  0.92054090  0.04906472  0.56201293  1
  O  O13  1  0.07047792  0.03887953  0.90616289  1
  O  O14  1  0.05728374  0.93639981  0.43508318  1
  O  O15  1  0.93201052  0.93413741  0.08377342  1
  O  O16  1  0.24028804  0.84935896  0.71633042  1
  O  O17  1  0.75305251  0.81236215  0.76396745  1
  O  O18  1  0.74489326  0.19553359  0.26224240  1
  O  O19  1  0.27130998  0.17975502  0.26089319  1
  O  O20  1  0.74028804  0.34935896  0.71633042  1
  O  O21  1  0.25305251  0.31236215  0.76396745  1
  O  O22  1  0.24489326  0.69553359  0.26224240  1
  O  O23  1  0.77130998  0.67975502  0.26089319  1
  O  O24  1  0.36256616  0.85942431  0.59237432  1
  O  O25  1  0.65271251  0.89191085  0.92449072  1
  O  O26  1  0.64833468  0.17845110  0.41662707  1
  O  O27  1  0.35930260  0.13135946  0.06862791  1
  O  O28  1  0.86256616  0.35942431  0.59237432  1
  O  O29  1  0.15271251  0.39191085  0.92449072  1
  O  O30  1  0.14833468  0.67845110  0.41662707  1
  O  O31  1  0.85930260  0.63135946  0.06862791  1
  O  O32  1  0.43653519  0.83567990  0.93429752  1
  O  O33  1  0.54362602  0.81009716  0.57071749  1
  O  O34  1  0.54342827  0.18035463  0.06535193  1
  O  O35  1  0.47611340  0.15456956  0.43686378  1
  O  O36  1  0.93653519  0.33567990  0.93429752  1
  O  O37  1  0.04362602  0.31009716  0.57071749  1
  O  O38  1  0.04342827  0.68035463  0.06535193  1
  O  O39  1  0.97611340  0.65456956  0.43686378  1
  O  O40  1  0.07030444  0.83978262  0.72194073  1
  O  O41  1  0.91909172  0.84069048  0.75726816  1
  O  O42  1  0.90754692  0.12642085  0.25886788  1
  O  O43  1  0.07293967  0.14709961  0.26518200  1
  O  O44  1  0.57030444  0.33978262  0.72194073  1
  O  O45  1  0.41909172  0.34069048  0.75726816  1
  O  O46  1  0.40754692  0.62642085  0.25886788  1
  O  O47  1  0.57293967  0.64709961  0.26518200  1
loop_
_geom_bond_atom_site_label_1
_geom_bond_atom_site_label_2
_geom_bond_distance
_geom_bond_site_symmetry_2
Na0 O46 2.426207 1_556
Na0 O22 2.450864 1_556
Na0 O0 2.458635 1_555
Na0 O6 2.466880 1_556
Na0 O40 2.551028 1_555
Na0 O16 2.568417 1_555
Na1 O23 2.353081 1_555
Na1 O1 2.413285 1_555
Na1 O47 2.432419 1_555
Na1 O41 2.440183 1_555
Na1 O17 2.452227 1_555
Na1 O7 2.505527 1_555
Na2 O42 2.426207 1_556
Na2 O18 2.450864 1_556
Na2 O4 2.458635 1_555
Na2 O2 2.466880 1_556
Na2 O44 2.551028 1_555
Na2 O20 2.568417 1_555
Na3 O19 2.353081 1_555
Na3 O5 2.413285 1_555
Na3 O43 2.432419 1_555
Na3 O45 2.440183 1_555
Na3 O21 2.452227 1_555
Na3 O3 2.505527 1_555
Na4 O5 2.388329 1_555
Na4 O44 2.455791 1_555
Na4 O45 2.543528 1_555
Na4 O34 2.567058 1_556
Na4 O4 2.569675 1_555
Na4 O25 2.570886 1_545
Na4 O35 2.667449 1_555
Na4 O24 2.768957 1_545
Na5 O6 2.312496 1_555
Na5 O47 2.341171 1_555
Na5 O7 2.348235 1_555
Na5 O32 2.350931 1_554
Na5 O33 2.701091 1_555
Na5 O46 2.760658 1_555
Na5 O27 2.802247 1_565
Na6 O1 2.388329 1_455
Na6 O40 2.455791 1_555
Na6 O41 2.543528 1_455
Na6 O38 2.567058 1_556
Na6 O0 2.569675 1_555
Na6 O29 2.570886 1_555
Na6 O39 2.667449 1_455
Na6 O28 2.768957 1_455
Na7 O2 2.312496 1_455
Na7 O43 2.341171 1_555
Na7 O3 2.348235 1_555
Na7 O36 2.350931 1_454
Na7 O37 2.701091 1_555
Na7 O42 2.760658 1_455
Na7 O31 2.802247 1_455
Na8 O23 2.281800 1_555
Na8 O42 2.284875 1_565
Na8 O25 2.315429 1_554
Na8 O7 2.483786 1_555
Na8 O18 2.653126 1_565
Na8 O12 2.724492 1_565
Na8 O15 2.857898 1_555
Na9 O21 2.405221 1_555
Na9 O16 2.416912 1_545
Na9 O27 2.465417 1_556
Na9 O13 2.503413 1_555
Na9 O40 2.546492 1_545
Na9 O5 2.741653 1_555
Na9 O37 2.783209 1_555
Na9 O14 2.849913 1_545
Na10 O19 2.281800 1_555
Na10 O46 2.284875 1_555
Na10 O29 2.315429 1_554
Na10 O3 2.483786 1_555
Na10 O22 2.653126 1_555
Na10 O8 2.724492 1_555
Na10 O11 2.857898 1_555
Na11 O17 2.405221 1_555
Na11 O20 2.416912 1_555
Na11 O31 2.465417 1_556
Na11 O9 2.503413 1_555
Na11 O44 2.546492 1_555
Na11 O1 2.741653 1_555
Na11 O33 2.783209 1_555
Na11 O10 2.849913 1_555
Ca0 O13 2.148592 1_554
Ca0 O29 2.206177 1_554
Ca0 O19 2.229935 1_555
Ca0 O36 2.239697 1_454
Ca0 O43 2.264115 1_555
Ca0 O3 2.368607 1_555
Ca1 O9 2.148592 1_554
Ca1 O25 2.206177 1_554
Ca1 O23 2.229935 1_555
Ca1 O32 2.239697 1_554
Ca1 O47 2.264115 1_555
Ca1 O7 2.368607 1_555
Ge0 O39 1.797577 1_455
Ge0 O30 1.838664 1_555
Ge0 O0 1.848045 1_555
Ge0 O14 1.886902 1_555
Ge0 O16 1.950112 1_555
Ge0 O40 1.992760 1_555
Ge1 O31 1.871214 1_556
Ge1 O17 1.879639 1_555
Ge1 O15 1.921977 1_556
Ge1 O38 1.977608 1_656
Ge1 O41 2.001035 1_555
Ge1 O1 2.086246 1_555
Ge2 O2 1.883485 1_555
Ge2 O37 1.889004 1_655
Ge2 O28 1.957325 1_555
Ge2 O18 2.012791 1_555
Ge2 O12 2.019725 1_555
Ge2 O42 2.053401 1_555
Ge3 O35 1.797577 1_555
Ge3 O26 1.838664 1_555
Ge3 O4 1.848045 1_555
Ge3 O10 1.886902 1_555
Ge3 O20 1.950112 1_555
Ge3 O44 1.992760 1_555
Ge4 O27 1.871214 1_556
Ge4 O21 1.879639 1_555
Ge4 O11 1.921977 1_556
Ge4 O34 1.977608 1_556
Ge4 O45 2.001035 1_555
Ge4 O5 2.086246 1_555
Ge5 O6 1.883485 1_555
Ge5 O33 1.889004 1_555
Ge5 O24 1.957325 1_555
Ge5 O22 2.012791 1_555
Ge5 O8 2.019725 1_555
Ge5 O46 2.053401 1_555
O0 Si2 1.650852 1_555
O1 P6 1.575410 1_555
O2 Si3 1.667168 1_555
O3 P7 1.534152 1_555
O4 Si0 1.650852 1_545
O5 P4 1.575410 1_545
O6 Si1 1.667168 1_565
O7 P5 1.534152 1_565
O8 P2 1.574099 1_555
O9 P2 1.503640 1_555
O10 P3 1.533413 1_555
O11 P3 1.565413 1_555
O12 P0 1.574099 1_545
O13 P0 1.503640 1_445
O14 P1 1.533413 1_465
O15 P1 1.565413 1_565
O16 P4 1.561976 1_555
O17 Si0 1.660813 1_555
O18 P5 1.563341 1_555
O19 Si1 1.587036 1_555
O20 P6 1.561976 1_555
O21 Si2 1.660813 1_555
O22 P7 1.563341 1_555
O23 Si3 1.587036 1_555
O24 P4 1.572039 1_555
O25 Si0 1.595002 1_555
O26 P5 1.522086 1_555
O27 Si1 1.686424 1_555
O28 P6 1.572039 1_555
O29 Si2 1.595002 1_555
O30 P7 1.522086 1_555
O31 Si3 1.686424 1_555
O32 P4 1.514644 1_555
O33 Si0 1.697239 1_555
O34 P5 1.577861 1_555
O35 Si1 1.620901 1_555
O36 P6 1.514644 1_555
O37 Si2 1.697239 1_555
O38 P7 1.577861 1_555
O39 Si3 1.620901 1_555
O40 P0 1.581660 1_455
O41 P0 1.563050 1_555
O42 P1 1.582678 1_555
O43 P1 1.517799 1_455
O44 P2 1.581660 1_555
O45 P2 1.563050 1_555
O46 P3 1.582678 1_555
O47 P3 1.517799 1_555
