# generated using pymatgen
data_Pu2O3
_symmetry_space_group_name_H-M   'P 1'
_cell_length_a   3.76126745
_cell_length_b   3.76126745
_cell_length_c   5.97268900
_cell_angle_alpha   90.00000000
_cell_angle_beta   90.00000000
_cell_angle_gamma   119.99999027
_symmetry_Int_Tables_number   1
_chemical_formula_structural   Pu2O3
_chemical_formula_sum   'Pu2 O3'
_cell_volume   73.17605732
_cell_formula_units_Z   1
loop_
 _symmetry_equiv_pos_site_id
 _symmetry_equiv_pos_as_xyz
  1  'x, y, z'
loop_
 _atom_site_type_symbol
 _atom_site_label
 _atom_site_symmetry_multiplicity
 _atom_site_fract_x
 _atom_site_fract_y
 _atom_site_fract_z
 _atom_site_occupancy
  Pu  Pu0  1  0.33333300  0.66666700  0.24363400  1
  Pu  Pu1  1  0.66666700  0.33333300  0.75636600  1
  O  O0  1  0.00000000  0.00000000  0.00000000  1
  O  O1  1  0.33333300  0.66666700  0.64150300  1
  O  O2  1  0.66666700  0.33333300  0.35849700  1
loop_
_geom_bond_atom_site_label_1
_geom_bond_atom_site_label_2
_geom_bond_distance
_geom_bond_site_symmetry_2
O0 Pu0 2.614032 1_545
O0 Pu1 2.614032 1_454
O0 Pu1 2.614035 1_554
O0 Pu0 2.614035 1_555
O0 Pu1 2.614035 1_444
O0 Pu0 2.614035 1_445
O1 Pu1 2.277357 1_565
O1 Pu1 2.277357 1_455
O1 Pu1 2.277363 1_555
O1 Pu0 2.376348 1_555
O2 Pu0 2.277357 1_655
O2 Pu0 2.277357 1_545
O2 Pu0 2.277363 1_555
O2 Pu1 2.376348 1_555
