# generated using pymatgen
data_MgMn3O6
_symmetry_space_group_name_H-M   'P 1'
_cell_length_a   2.90450700
_cell_length_b   5.55888566
_cell_length_c   7.84823802
_cell_angle_alpha   92.11702739
_cell_angle_beta   100.66357620
_cell_angle_gamma   90.00000000
_symmetry_Int_Tables_number   1
_chemical_formula_structural   MgMn3O6
_chemical_formula_sum   'Mg1 Mn3 O6'
_cell_volume   124.43993671
_cell_formula_units_Z   1
loop_
 _symmetry_equiv_pos_site_id
 _symmetry_equiv_pos_as_xyz
  1  'x, y, z'
loop_
 _atom_site_type_symbol
 _atom_site_label
 _atom_site_symmetry_multiplicity
 _atom_site_fract_x
 _atom_site_fract_y
 _atom_site_fract_z
 _atom_site_occupancy
  Mg  Mg0  1  0.50000000  0.50000000  0.00000000  1
  Mn  Mn0  1  0.00000000  0.00000000  0.00000000  1
  Mn  Mn1  1  0.66665700  0.44168800  0.33331500  1
  Mn  Mn2  1  0.33334300  0.55831200  0.66668500  1
  O  O0  1  0.90512300  0.41155200  0.81024500  1
  O  O1  1  0.09487700  0.58844800  0.18975500  1
  O  O2  1  0.55768300  0.17781400  0.11536800  1
  O  O3  1  0.44231700  0.82218600  0.88463200  1
  O  O4  1  0.76905200  0.68986400  0.53810300  1
  O  O5  1  0.23094800  0.31013600  0.46189600  1
loop_
_geom_bond_atom_site_label_1
_geom_bond_atom_site_label_2
_geom_bond_distance
_geom_bond_site_symmetry_2
Mg0 O2 2.029585 1_555
Mg0 O3 2.029585 1_554
Mg0 O1 2.106795 1_655
Mg0 O0 2.106795 1_454
Mg0 O1 2.106796 1_555
Mg0 O0 2.106796 1_554
Mn0 O2 1.952353 1_555
Mn0 O3 1.952353 1_444
Mn0 O3 1.952357 1_544
Mn0 O2 1.952357 1_455
Mn1 O5 1.918806 1_555
Mn1 O5 1.918808 1_655
Mn1 O1 2.017049 1_655
Mn1 O1 2.017049 1_555
Mn1 O4 2.057706 1_555
Mn1 O2 2.189039 1_555
Mn2 O4 1.918811 1_555
Mn2 O4 1.918811 1_455
Mn2 O0 2.017049 1_455
Mn2 O0 2.017049 1_555
Mn2 O5 2.057711 1_555
Mn2 O3 2.189039 1_555
