# generated using pymatgen
data_Na24Mg10Nb2Si9(SO8)9
_symmetry_space_group_name_H-M   'P 1'
_cell_length_a   9.14399375
_cell_length_b   9.12127189
_cell_length_c   22.21889457
_cell_angle_alpha   90.09308931
_cell_angle_beta   89.86995761
_cell_angle_gamma   119.85041788
_symmetry_Int_Tables_number   1
_chemical_formula_structural   Na24Mg10Nb2Si9(SO8)9
_chemical_formula_sum   'Na24 Mg10 Nb2 Si9 S9 O72'
_cell_volume   1607.29594365
_cell_formula_units_Z   1
loop_
 _symmetry_equiv_pos_site_id
 _symmetry_equiv_pos_as_xyz
  1  'x, y, z'
loop_
 _atom_site_type_symbol
 _atom_site_label
 _atom_site_symmetry_multiplicity
 _atom_site_fract_x
 _atom_site_fract_y
 _atom_site_fract_z
 _atom_site_occupancy
  Na  Na0  1  0.63930453  0.00564530  0.24654289  1
  Na  Na1  1  0.37599609  0.35268302  0.25373569  1
  Na  Na2  1  0.99408783  0.64998366  0.24961570  1
  Na  Na3  1  0.64357715  0.63430156  0.75087015  1
  Na  Na4  1  0.98497435  0.34684442  0.75232233  1
  Na  Na5  1  0.36725720  0.01850988  0.75267954  1
  Na  Na6  1  0.29334172  0.32966735  0.58863264  1
  Na  Na7  1  0.03160528  0.70481797  0.59407897  1
  Na  Na8  1  0.67048196  0.96435296  0.58942117  1
  Na  Na9  1  0.29588400  0.96191407  0.07889574  1
  Na  Na10  1  0.66941256  0.70387055  0.08560538  1
  Na  Na11  1  0.03702294  0.33565495  0.07273234  1
  Na  Na12  1  0.97741044  0.67377401  0.90749360  1
  Na  Na13  1  0.71048592  0.04788386  0.90485031  1
  Na  Na14  1  0.31499737  0.27935955  0.90768418  1
  Na  Na15  1  0.96855129  0.28779427  0.42038183  1
  Na  Na16  1  0.33926768  0.05035935  0.41140067  1
  Na  Na17  1  0.69574332  0.67214735  0.41480035  1
  Na  Na18  1  0.99965113  0.01013746  0.49617368  1
  Na  Na19  1  0.00979443  0.00819115  0.98796647  1
  Na  Na20  1  0.66681288  0.32555942  0.82827703  1
  Na  Na21  1  0.64877667  0.32732622  0.33427037  1
  Na  Na22  1  0.33723437  0.67558976  0.16548051  1
  Na  Na23  1  0.33707447  0.66583381  0.67135737  1
  Mg  Mg0  1  0.00310181  0.99865406  0.35064745  1
  Mg  Mg1  1  0.00822471  0.00797844  0.84673060  1
  Mg  Mg2  1  0.00116240  0.00441687  0.66647040  1
  Mg  Mg3  1  0.99745335  0.98632005  0.15648672  1
  Mg  Mg4  1  0.66773881  0.33233643  0.69144204  1
  Mg  Mg5  1  0.65748484  0.33144874  0.18638682  1
  Mg  Mg6  1  0.66782015  0.32655781  0.97465199  1
  Mg  Mg7  1  0.65617055  0.32724842  0.47929865  1
  Mg  Mg8  1  0.32585535  0.66371036  0.00595575  1
  Mg  Mg9  1  0.34128374  0.66447791  0.51366154  1
  Nb  Nb0  1  0.35526930  0.67978320  0.31600771  1
  Nb  Nb1  1  0.32030302  0.66990690  0.81205916  1
  Si  Si0  1  0.29443370  0.00006871  0.24948618  1
  Si  Si1  1  0.71219665  0.70559008  0.24955022  1
  Si  Si2  1  0.29692264  0.29649729  0.74908534  1
  Si  Si3  1  0.99326668  0.70765297  0.74921665  1
  Si  Si4  1  0.70635970  0.99832914  0.74981523  1
  Si  Si5  1  0.03626747  0.36649169  0.92115216  1
  Si  Si6  1  0.33058944  0.96455914  0.92162901  1
  Si  Si7  1  0.63962976  0.97045125  0.42223527  1
  Si  Si8  1  0.32859053  0.36638719  0.42066792  1
  S  S0  1  0.00069884  0.29384265  0.24850106  1
  S  S1  1  0.95924684  0.33650588  0.58113329  1
  S  S2  1  0.37108828  0.03745732  0.58146900  1
  S  S3  1  0.66731566  0.62509157  0.58153423  1
  S  S4  1  0.95651013  0.62380049  0.08446849  1
  S  S5  1  0.67116518  0.04199112  0.08428299  1
  S  S6  1  0.37348518  0.33555814  0.08409252  1
  S  S7  1  0.62509563  0.66577723  0.92001830  1
  S  S8  1  0.04318169  0.66595903  0.41863645  1
  O  O0  1  0.21244868  0.03395952  0.30835533  1
  O  O1  1  0.82199074  0.79102883  0.30892004  1
  O  O2  1  0.97330514  0.19135604  0.30279550  1
  O  O3  1  0.21629719  0.18010157  0.80761028  1
  O  O4  1  0.96296937  0.78852722  0.80879234  1
  O  O5  1  0.82116344  0.03001727  0.80850407  1
  O  O6  1  0.77329932  0.95202865  0.68814155  1
  O  O7  1  0.18035745  0.23126274  0.68827943  1
  O  O8  1  0.04452926  0.82252240  0.68838958  1
  O  O9  1  0.77504658  0.82334476  0.18969028  1
  O  O10  1  0.03144472  0.21768255  0.19440294  1
  O  O11  1  0.18118077  0.95882604  0.18886789  1
  O  O12  1  0.87585760  0.35495178  0.63485796  1
  O  O13  1  0.47508867  0.11747099  0.63488867  1
  O  O14  1  0.64773326  0.52235596  0.63496800  1
  O  O15  1  0.87484247  0.52033681  0.13932021  1
  O  O16  1  0.64747688  0.12218764  0.13928382  1
  O  O17  1  0.47539199  0.35533814  0.13902010  1
  O  O18  1  0.45507971  0.31229729  0.03065068  1
  O  O19  1  0.85282344  0.54145094  0.03111244  1
  O  O20  1  0.68952579  0.14516363  0.03096088  1
  O  O21  1  0.45442726  0.14055811  0.52665984  1
  O  O22  1  0.68686342  0.54182264  0.52645463  1
  O  O23  1  0.85725569  0.31778980  0.52609995  1
  O  O24  1  0.54544636  0.69052571  0.97510660  1
  O  O25  1  0.15244020  0.44631790  0.98088568  1
  O  O26  1  0.30906122  0.85504232  0.98208719  1
  O  O27  1  0.54265233  0.84753720  0.47736370  1
  O  O28  1  0.29212843  0.45226615  0.47749437  1
  O  O29  1  0.14876838  0.69081655  0.47164472  1
  O  O30  1  0.12386188  0.63982588  0.36292377  1
  O  O31  1  0.50796695  0.86667006  0.36014517  1
  O  O32  1  0.35010929  0.49728663  0.36037321  1
  O  O33  1  0.14555910  0.49838703  0.86344903  1
  O  O34  1  0.35847690  0.86006124  0.86318469  1
  O  O35  1  0.51786068  0.63876898  0.86615785  1
  O  O36  1  0.02571550  0.81793658  0.41238573  1
  O  O37  1  0.81925255  0.98064944  0.41111330  1
  O  O38  1  0.16528876  0.18058146  0.41103857  1
  O  O39  1  0.01018336  0.17847555  0.91353626  1
  O  O40  1  0.15832938  0.97215914  0.91386439  1
  O  O41  1  0.79282112  0.81667500  0.91475203  1
  O  O42  1  0.97860160  0.18280881  0.58325251  1
  O  O43  1  0.20032973  0.02209115  0.58425088  1
  O  O44  1  0.82036803  0.79734208  0.58357271  1
  O  O45  1  0.97379612  0.79654290  0.08847155  1
  O  O46  1  0.82812927  0.02836317  0.08831134  1
  O  O47  1  0.19969198  0.18463098  0.08931325  1
  O  O48  1  0.67405827  0.15749674  0.74259005  1
  O  O49  1  0.48648024  0.32693818  0.74107265  1
  O  O50  1  0.84060724  0.51514430  0.74209953  1
  O  O51  1  0.68276665  0.51438432  0.24325771  1
  O  O52  1  0.85117636  0.31634107  0.24118591  1
  O  O53  1  0.48994966  0.15502021  0.24361090  1
  O  O54  1  0.63975100  0.51118668  0.92598630  1
  O  O55  1  0.85886549  0.36936875  0.92120595  1
  O  O56  1  0.50109388  0.15056342  0.92050837  1
  O  O57  1  0.65048936  0.15383372  0.41941675  1
  O  O58  1  0.50765734  0.36667898  0.41902292  1
  O  O59  1  0.87413873  0.51218291  0.42271445  1
  O  O60  1  0.36040593  0.49368906  0.08132891  1
  O  O61  1  0.12929809  0.64270949  0.08184301  1
  O  O62  1  0.52038243  0.86715278  0.08113479  1
  O  O63  1  0.34907672  0.86239216  0.57676573  1
  O  O64  1  0.51167426  0.64263336  0.57862636  1
  O  O65  1  0.13078608  0.49332867  0.57784607  1
  O  O66  1  0.30333209  0.81663740  0.25839039  1
  O  O67  1  0.51089850  0.68023166  0.25693106  1
  O  O68  1  0.15421305  0.46788553  0.25449475  1
  O  O69  1  0.31754945  0.48988975  0.75985242  1
  O  O70  1  0.17105551  0.68952412  0.75670352  1
  O  O71  1  0.51439816  0.82359158  0.75966451  1
loop_
_geom_bond_atom_site_label_1
_geom_bond_atom_site_label_2
_geom_bond_distance
_geom_bond_site_symmetry_2
Na0 O53 2.361944 1_555
Na0 O52 2.516600 1_555
Na0 O16 2.596819 1_555
Na0 O67 2.602635 1_545
Na0 O66 2.684189 1_545
Na0 O31 2.810961 1_545
Na0 O9 2.818139 1_545
Na0 O2 2.935903 1_555
Na1 O51 2.444951 1_555
Na1 O53 2.500938 1_555
Na1 O67 2.604565 1_555
Na1 O17 2.700198 1_555
Na1 O68 2.708930 1_555
Na1 O32 2.776277 1_555
Na1 O0 2.799313 1_555
Na2 O66 2.463193 1_655
Na2 O51 2.479878 1_555
Na2 O52 2.654147 1_555
Na2 O15 2.704093 1_555
Na2 O68 2.708627 1_655
Na2 O1 2.805034 1_555
Na2 O30 2.806903 1_655
Na2 O11 2.808671 1_655
Na3 O49 2.441547 1_555
Na3 O50 2.532226 1_555
Na3 O71 2.538216 1_555
Na3 O69 2.598357 1_555
Na3 O14 2.775869 1_555
Na3 O35 2.813835 1_555
Na3 O4 2.843589 1_555
Na3 O6 2.886515 1_555
Na4 O50 2.484070 1_555
Na4 O48 2.495193 1_555
Na4 O69 2.651446 1_655
Na4 O70 2.716601 1_655
Na4 O5 2.801315 1_555
Na4 O12 2.810449 1_555
Na4 O33 2.854502 1_655
Na4 O7 2.861243 1_655
Na5 O48 2.446483 1_555
Na5 O49 2.473344 1_555
Na5 O70 2.621490 1_545
Na5 O71 2.716319 1_545
Na5 O3 2.753067 1_555
Na5 O13 2.783273 1_555
Na5 O34 2.831755 1_545
Na5 O8 2.950257 1_545
Na6 O7 2.418250 1_555
Na6 O43 2.495556 1_555
Na6 O42 2.500950 1_455
Na6 O64 2.551649 1_555
Na6 O65 2.589777 1_555
Na6 O28 2.714748 1_555
Na7 O8 2.329195 1_555
Na7 O44 2.474477 1_455
Na7 O43 2.521655 1_565
Na7 O65 2.532118 1_555
Na7 O63 2.546401 1_555
Na7 O12 2.917600 1_455
Na7 O29 2.947244 1_555
Na8 O6 2.413124 1_555
Na8 O44 2.508556 1_555
Na8 O42 2.517484 1_565
Na8 O64 2.556319 1_555
Na8 O63 2.619793 1_555
Na8 O27 2.732293 1_555
Na8 O13 2.938473 1_565
Na9 O26 2.387553 1_554
Na9 O61 2.527237 1_555
Na9 O45 2.563273 1_455
Na9 O47 2.594295 1_565
Na9 O62 2.594323 1_555
Na9 O11 2.651518 1_555
Na10 O62 2.471138 1_555
Na10 O45 2.474636 1_555
Na10 O60 2.505265 1_555
Na10 O9 2.534368 1_555
Na10 O46 2.567866 1_565
Na10 O24 2.683629 1_554
Na11 O25 2.287732 1_554
Na11 O61 2.498693 1_555
Na11 O47 2.507922 1_555
Na11 O46 2.509004 1_455
Na11 O60 2.572305 1_555
Na11 O10 2.902239 1_555
Na11 O20 2.913605 1_455
Na12 O40 2.383675 1_655
Na12 O55 2.445869 1_555
Na12 O4 2.463486 1_555
Na12 O41 2.600402 1_555
Na12 O54 2.709098 1_555
Na12 O33 2.884028 1_655
Na12 O19 2.987739 1_556
Na13 O39 2.391277 1_655
Na13 O5 2.405538 1_555
Na13 O56 2.538745 1_555
Na13 O55 2.570957 1_555
Na13 O41 2.577902 1_545
Na13 O34 2.944740 1_545
Na13 O20 2.972247 1_556
Na14 O3 2.401555 1_555
Na14 O40 2.434548 1_545
Na14 O39 2.465323 1_555
Na14 O56 2.519981 1_555
Na14 O54 2.684539 1_555
Na15 O37 2.438627 1_545
Na15 O38 2.446349 1_655
Na15 O57 2.532706 1_555
Na15 O59 2.587548 1_555
Na15 O23 2.625318 1_555
Na15 O2 2.762538 1_555
Na15 O28 2.864873 1_655
Na16 O38 2.413070 1_555
Na16 O58 2.510232 1_555
Na16 O57 2.519748 1_555
Na16 O0 2.539180 1_555
Na16 O36 2.581534 1_545
Na16 O21 2.736250 1_555
Na17 O58 2.441268 1_555
Na17 O37 2.457059 1_555
Na17 O1 2.606295 1_555
Na17 O36 2.623057 1_655
Na17 O59 2.681843 1_555
Na17 O22 2.736200 1_555
Na17 O27 2.943558 1_555
Na17 O32 2.997999 1_555
Na18 O37 2.436418 1_545
Na18 O38 2.437555 1_655
Na18 O42 2.559538 1_555
Na18 O36 2.645632 1_645
Na18 O43 2.650533 1_655
Na18 O44 2.656336 1_545
Na19 O40 2.257440 1_545
Na19 O39 2.269407 1_555
Na19 O41 2.487855 1_445
Na19 O47 2.810685 1_556
Na19 O46 2.837300 1_456
Na19 O45 2.863575 1_446
Na20 O48 2.463753 1_555
Na20 O50 2.538392 1_555
Na20 O49 2.551213 1_555
Na20 O56 2.575328 1_555
Na20 O55 2.611931 1_555
Na20 O54 2.836180 1_555
Na21 O58 2.405809 1_555
Na21 O57 2.473484 1_555
Na21 O53 2.523432 1_555
Na21 O51 2.564664 1_555
Na21 O59 2.738614 1_555
Na21 O52 2.807032 1_555
Na22 O66 2.529490 1_555
Na22 O62 2.540324 1_555
Na22 O67 2.568981 1_555
Na22 O61 2.570042 1_555
Na22 O60 2.575225 1_555
Na22 O68 2.672563 1_555
Na23 O69 2.489375 1_555
Na23 O71 2.496417 1_555
Na23 O70 2.501868 1_555
Na23 O64 2.675606 1_555
Na23 O65 2.720920 1_555
Na23 O63 2.731109 1_555
Mg0 O0 2.007556 1_565
Mg0 O1 2.016890 1_455
Mg0 O38 2.074969 1_565
Mg0 O37 2.091341 1_455
Mg0 O2 2.185921 1_465
Mg0 O36 2.233730 1_555
Mg1 O3 1.965625 1_555
Mg1 O5 2.009232 1_455
Mg1 O4 2.014951 1_445
Mg1 O39 2.141727 1_555
Mg1 O40 2.161695 1_545
Mg1 O41 2.404625 1_445
Mg2 O8 1.950774 1_545
Mg2 O6 1.951040 1_445
Mg2 O7 1.956084 1_555
Mg2 O43 2.524596 1_555
Mg2 O42 2.540613 1_455
Mg2 O44 2.566562 1_445
Mg3 O11 1.956635 1_655
Mg3 O9 1.969068 1_555
Mg3 O10 2.145285 1_665
Mg3 O45 2.224231 1_555
Mg3 O46 2.332906 1_565
Mg3 O47 2.363404 1_665
Mg4 O49 1.968796 1_555
Mg4 O50 1.980917 1_555
Mg4 O48 1.983947 1_555
Mg4 O12 2.200896 1_555
Mg4 O14 2.221654 1_555
Mg4 O13 2.255737 1_555
Mg5 O51 2.011186 1_555
Mg5 O53 2.024060 1_555
Mg5 O17 2.073015 1_555
Mg5 O16 2.137054 1_555
Mg5 O15 2.144729 1_555
Mg5 O52 2.211700 1_555
Mg6 O56 1.978439 1_555
Mg6 O55 1.981770 1_555
Mg6 O54 2.123338 1_555
Mg6 O20 2.162631 1_556
Mg6 O19 2.231207 1_556
Mg6 O18 2.255406 1_556
Mg7 O57 2.046119 1_555
Mg7 O58 2.064745 1_555
Mg7 O21 2.068826 1_555
Mg7 O22 2.110689 1_555
Mg7 O23 2.153268 1_555
Mg7 O59 2.246600 1_555
Mg8 O26 1.902812 1_554
Mg8 O25 1.904464 1_554
Mg8 O24 2.016646 1_554
Mg8 O61 2.398885 1_555
Mg8 O60 2.409989 1_555
Mg8 O62 2.472901 1_555
Mg9 O28 1.930025 1_555
Mg9 O27 1.940600 1_555
Mg9 O29 2.111236 1_555
Mg9 O64 2.207020 1_555
Mg9 O63 2.256990 1_555
Mg9 O65 2.275789 1_555
Nb0 O31 1.857023 1_555
Nb0 O32 1.916185 1_555
Nb0 O67 1.932320 1_555
Nb0 O66 2.005180 1_555
Nb0 O30 2.218197 1_555
Nb0 O68 2.334337 1_555
Nb1 O70 1.912760 1_555
Nb1 O34 1.952756 1_555
Nb1 O33 1.952826 1_555
Nb1 O71 1.997369 1_555
Nb1 O69 1.998770 1_555
Nb1 O35 2.304459 1_555
O0 Si0 1.610397 1_555
O1 Si1 1.605982 1_555
O2 S0 1.470073 1_655
O3 Si2 1.607041 1_555
O4 Si3 1.603657 1_555
O5 Si4 1.609009 1_545
O6 Si4 1.637814 1_555
O7 Si2 1.639518 1_555
O8 Si3 1.630003 1_455
O9 Si1 1.624674 1_555
O10 S0 1.482090 1_555
O11 Si0 1.626311 1_565
O12 S1 1.468872 1_555
O13 S2 1.468741 1_555
O14 S3 1.468105 1_555
O15 S4 1.493876 1_555
O16 S5 1.493000 1_555
O17 S6 1.492449 1_555
O18 S6 1.471185 1_555
O19 S4 1.470316 1_555
O20 S5 1.470674 1_555
O21 S2 1.494737 1_555
O22 S3 1.495880 1_555
O23 S1 1.496696 1_555
O24 S7 1.496093 1_555
O25 Si5 1.628922 1_555
O26 Si6 1.627426 1_555
O27 Si7 1.597967 1_555
O28 Si8 1.604317 1_555
O29 S8 1.468715 1_555
O30 S8 1.517684 1_555
O31 Si7 1.765655 1_555
O32 Si8 1.740448 1_555
O33 Si5 1.700645 1_555
O34 Si6 1.701834 1_555
O35 S7 1.489368 1_555
O36 S8 1.479035 1_555
O37 Si7 1.616653 1_555
O38 Si8 1.621366 1_555
O39 Si5 1.618214 1_555
O40 Si6 1.620377 1_555
O41 S7 1.469225 1_555
O42 S1 1.498712 1_555
O43 S2 1.497737 1_555
O44 S3 1.496779 1_555
O45 S4 1.505720 1_555
O46 S5 1.503899 1_555
O47 S6 1.501972 1_555
O48 Si4 1.627456 1_545
O49 Si2 1.622601 1_555
O50 Si3 1.617692 1_555
O51 Si1 1.632730 1_555
O52 S0 1.489389 1_655
O53 Si0 1.641650 1_555
O54 S7 1.487485 1_555
O55 Si5 1.635381 1_655
O56 Si6 1.636034 1_545
O57 Si7 1.626841 1_545
O58 Si8 1.636388 1_555
O59 S8 1.485384 1_655
O60 S6 1.506819 1_555
O61 S4 1.502599 1_455
O62 S5 1.503443 1_565
O63 S2 1.510254 1_565
O64 S3 1.510749 1_555
O65 S1 1.509332 1_455
O66 Si0 1.726785 1_565
O67 Si1 1.744531 1_555
O68 S0 1.513329 1_555
O69 Si2 1.694722 1_555
O70 Si3 1.722452 1_455
O71 Si4 1.698132 1_555
