# generated using pymatgen
data_Na3Y3TaP5SO24
_symmetry_space_group_name_H-M   'P 1'
_cell_length_a   9.11300639
_cell_length_b   9.12047336
_cell_length_c   23.73359139
_cell_angle_alpha   89.93533129
_cell_angle_beta   90.15024789
_cell_angle_gamma   120.24633117
_symmetry_Int_Tables_number   1
_chemical_formula_structural   Na3Y3TaP5SO24
_chemical_formula_sum   'Na9 Y9 Ta3 P15 S3 O72'
_cell_volume   1704.07332580
_cell_formula_units_Z   3
loop_
 _symmetry_equiv_pos_site_id
 _symmetry_equiv_pos_as_xyz
  1  'x, y, z'
loop_
 _atom_site_type_symbol
 _atom_site_label
 _atom_site_symmetry_multiplicity
 _atom_site_fract_x
 _atom_site_fract_y
 _atom_site_fract_z
 _atom_site_occupancy
  Na  Na0  1  0.64747128  0.64380954  0.74966801  1
  Na  Na1  1  0.30127597  0.96149208  0.08369421  1
  Na  Na2  1  0.33212159  0.02222658  0.41470535  1
  Na  Na3  1  0.98144073  0.99933152  0.50104013  1
  Na  Na4  1  0.98802056  0.99960948  0.99838188  1
  Na  Na5  1  0.66558406  0.32138914  0.83245514  1
  Na  Na6  1  0.66494875  0.33321059  0.32925969  1
  Na  Na7  1  0.33162697  0.66230357  0.16783516  1
  Na  Na8  1  0.31978404  0.65766444  0.66321284  1
  Y  Y0  1  0.99945621  0.00222896  0.35192707  1
  Y  Y1  1  0.00452545  0.00350958  0.85276247  1
  Y  Y2  1  0.99585514  0.00187317  0.64908517  1
  Y  Y3  1  0.99830433  0.99939681  0.14429124  1
  Y  Y4  1  0.67071204  0.33011441  0.68664533  1
  Y  Y5  1  0.66349212  0.33046634  0.18510450  1
  Y  Y6  1  0.33463990  0.65966691  0.01771663  1
  Y  Y7  1  0.33501932  0.65880785  0.51774048  1
  Y  Y8  1  0.33373142  0.67107753  0.31921240  1
  Ta  Ta0  1  0.66926859  0.33668741  0.97867809  1
  Ta  Ta1  1  0.67906424  0.34568083  0.48257364  1
  Ta  Ta2  1  0.32762170  0.66554844  0.81870573  1
  P  P0  1  0.29700163  0.99699048  0.25004826  1
  P  P1  1  0.29647917  0.30633925  0.75259663  1
  P  P2  1  0.00910425  0.70722685  0.75236643  1
  P  P3  1  0.69340729  0.98965107  0.75389264  1
  P  P4  1  0.95635533  0.33052614  0.58198072  1
  P  P5  1  0.67051107  0.62487682  0.58396080  1
  P  P6  1  0.95351366  0.62192088  0.08042866  1
  P  P7  1  0.66960980  0.05038095  0.07928085  1
  P  P8  1  0.38113609  0.33145493  0.08010971  1
  P  P9  1  0.62225039  0.65724969  0.91612767  1
  P  P10  1  0.03377573  0.37778472  0.91707767  1
  P  P11  1  0.34380894  0.96379236  0.91875875  1
  P  P12  1  0.63229017  0.97430310  0.42056109  1
  P  P13  1  0.34264203  0.36816460  0.41862539  1
  P  P14  1  0.03375926  0.66383065  0.41887619  1
  S  S0  1  0.70119871  0.70354672  0.25008348  1
  S  S1  1  0.00244123  0.29913082  0.24974469  1
  S  S2  1  0.37593406  0.04489034  0.58012657  1
  O  O0  1  0.20815500  0.01110207  0.30369351  1
  O  O1  1  0.80014289  0.78833666  0.30104077  1
  O  O2  1  0.98288213  0.19806914  0.30056013  1
  O  O3  1  0.21680520  0.19565246  0.80372888  1
  O  O4  1  0.97466886  0.78845297  0.80260813  1
  O  O5  1  0.80522334  0.01613694  0.80447722  1
  O  O6  1  0.76247983  0.94505636  0.70067698  1
  O  O7  1  0.19066141  0.23286903  0.69851370  1
  O  O8  1  0.04472516  0.81344241  0.69836954  1
  O  O9  1  0.78473553  0.80498606  0.19892993  1
  O  O10  1  0.01481954  0.21289235  0.19853606  1
  O  O11  1  0.19355982  0.98375591  0.19571837  1
  O  O12  1  0.87034785  0.34472209  0.63467782  1
  O  O13  1  0.47479555  0.12596351  0.63108897  1
  O  O14  1  0.65219268  0.52725619  0.63819096  1
  O  O15  1  0.87256033  0.52177512  0.13372660  1
  O  O16  1  0.64491360  0.12892044  0.13251643  1
  O  O17  1  0.47977921  0.34961886  0.13380807  1
  O  O18  1  0.48437182  0.31931185  0.02723238  1
  O  O19  1  0.83991578  0.51928759  0.02691936  1
  O  O20  1  0.68212422  0.16550418  0.02635348  1
  O  O21  1  0.46847347  0.14946988  0.52836108  1
  O  O22  1  0.67670026  0.51334354  0.53176035  1
  O  O23  1  0.83963666  0.32102270  0.52903497  1
  O  O24  1  0.54239613  0.68306119  0.96823883  1
  O  O25  1  0.13789638  0.45700859  0.96957227  1
  O  O26  1  0.31905021  0.86468735  0.97267087  1
  O  O27  1  0.54702764  0.86380336  0.47153502  1
  O  O28  1  0.31168709  0.44745229  0.46996201  1
  O  O29  1  0.14871845  0.69663575  0.46947415  1
  O  O30  1  0.10077865  0.62299110  0.36559351  1
  O  O31  1  0.51643867  0.90392776  0.36785879  1
  O  O32  1  0.37659901  0.47490714  0.36529216  1
  O  O33  1  0.13269006  0.49806541  0.86486792  1
  O  O34  1  0.36409613  0.86205166  0.86702397  1
  O  O35  1  0.50397796  0.63258278  0.86300995  1
  O  O36  1  0.01126594  0.81855626  0.41182837  1
  O  O37  1  0.81056516  0.00317709  0.41258860  1
  O  O38  1  0.19526767  0.18324430  0.41270134  1
  O  O39  1  0.00544497  0.20125515  0.90859070  1
  O  O40  1  0.19484856  0.99095747  0.90909470  1
  O  O41  1  0.80020137  0.80557432  0.90818059  1
  O  O42  1  0.96499021  0.16672548  0.58099714  1
  O  O43  1  0.20954431  0.03491353  0.58174008  1
  O  O44  1  0.83684622  0.79624464  0.58200682  1
  O  O45  1  0.96807885  0.79879183  0.08032994  1
  O  O46  1  0.83023095  0.03678208  0.08026567  1
  O  O47  1  0.21060002  0.16011728  0.07989410  1
  O  O48  1  0.66184741  0.13771536  0.74662376  1
  O  O49  1  0.48222278  0.34669058  0.74639977  1
  O  O50  1  0.85137655  0.52833053  0.74626705  1
  O  O51  1  0.68763669  0.53520741  0.24733678  1
  O  O52  1  0.85153370  0.31954674  0.24703295  1
  O  O53  1  0.47545788  0.15832389  0.24850520  1
  O  O54  1  0.63211302  0.48910409  0.92428455  1
  O  O55  1  0.85677916  0.36921553  0.92333097  1
  O  O56  1  0.51235387  0.14296434  0.92399137  1
  O  O57  1  0.64384537  0.15363115  0.43125421  1
  O  O58  1  0.50436717  0.34656323  0.43021192  1
  O  O59  1  0.85057992  0.50315563  0.43055979  1
  O  O60  1  0.35540488  0.48322494  0.07591992  1
  O  O61  1  0.13471752  0.65135132  0.07567377  1
  O  O62  1  0.50572295  0.87697814  0.07406333  1
  O  O63  1  0.35750194  0.87577115  0.57565272  1
  O  O64  1  0.51372242  0.64301650  0.57717056  1
  O  O65  1  0.12980427  0.49082587  0.57651193  1
  O  O66  1  0.31339300  0.83572735  0.25315640  1
  O  O67  1  0.52972386  0.68388776  0.25347557  1
  O  O68  1  0.15880244  0.46775260  0.25325932  1
  O  O69  1  0.31449732  0.48874923  0.76459709  1
  O  O70  1  0.16924580  0.68657440  0.76589299  1
  O  O71  1  0.51365607  0.82177458  0.76564555  1
loop_
_geom_bond_atom_site_label_1
_geom_bond_atom_site_label_2
_geom_bond_distance
_geom_bond_site_symmetry_2
Na0 O49 2.346455 1_555
Na0 O71 2.502655 1_555
Na0 O50 2.557594 1_555
Na0 O69 2.648471 1_555
Na0 O6 2.664095 1_555
Na0 O14 2.860924 1_555
Na0 O4 2.868996 1_555
Na0 O35 2.973137 1_555
Na1 O47 2.340942 1_565
Na1 O62 2.359461 1_555
Na1 O61 2.452669 1_555
Na1 O45 2.624492 1_455
Na1 O26 2.810775 1_554
Na1 O11 2.879131 1_555
Na1 O16 2.940851 1_565
Na2 O38 2.357748 1_555
Na2 O57 2.495145 1_555
Na2 O36 2.555808 1_545
Na2 O58 2.582893 1_555
Na2 O31 2.657045 1_545
Na2 O0 2.845655 1_555
Na2 O29 2.881641 1_545
Na2 O21 2.950222 1_555
Na3 O42 2.488589 1_565
Na3 O44 2.531047 1_555
Na3 O37 2.621207 1_565
Na3 O43 2.719492 1_665
Na3 O38 2.779749 1_665
Na3 O36 2.781664 1_655
Na4 O46 2.542965 1_566
Na4 O45 2.613201 1_556
Na4 O47 2.644670 1_666
Na4 O41 2.753581 1_555
Na4 O39 2.765446 1_665
Na4 O40 2.867152 1_655
Na5 O48 2.628121 1_555
Na5 O56 2.652623 1_555
Na5 O55 2.663582 1_555
Na5 O49 2.717777 1_555
Na5 O50 2.720906 1_555
Na5 O54 2.768367 1_555
Na6 O53 2.532615 1_555
Na6 O51 2.612953 1_555
Na6 O52 2.635648 1_555
Na6 O58 2.845263 1_555
Na6 O57 2.873234 1_555
Na6 O59 2.896539 1_555
Na7 O66 2.627494 1_555
Na7 O68 2.632992 1_555
Na7 O67 2.655678 1_555
Na7 O61 2.795297 1_555
Na7 O60 2.800086 1_555
Na7 O62 2.860575 1_555
Na8 O65 2.623238 1_555
Na8 O64 2.751176 1_555
Na8 O63 2.774771 1_555
Na8 O69 2.843071 1_555
Na8 O70 2.876408 1_555
Na8 O71 2.931478 1_555
O0 P0 1.550450 1_545
O0 Y0 2.188673 1_455
O1 S0 1.472283 1_555
O1 Y0 2.233257 1_565
O2 S1 1.472745 1_655
O2 Y0 2.228301 1_555
O3 P1 1.510772 1_555
O3 Y1 2.181636 1_555
O4 P2 1.518983 1_655
O4 Y1 2.191812 1_665
O5 P3 1.511378 1_545
O5 Y1 2.196539 1_655
O6 P3 1.555654 1_555
O6 Y2 2.278783 1_565
O7 P1 1.539797 1_555
O7 Y2 2.278832 1_455
O8 P2 1.539073 1_555
O8 Y2 2.298659 1_465
O9 S0 1.483975 1_555
O9 Y3 2.268240 1_555
O10 S1 1.483488 1_555
O10 Y3 2.276188 1_445
O11 P0 1.563713 1_555
O11 Y3 2.218145 1_455
O12 P4 1.517582 1_555
O12 Y4 2.148480 1_555
O13 S2 1.465107 1_555
O13 Y4 2.244376 1_555
O14 P5 1.525108 1_555
O14 Y4 2.209953 1_555
O15 P6 1.517252 1_555
O15 Y5 2.195358 1_555
O16 P7 1.525145 1_555
O16 Y5 2.157759 1_555
O17 P8 1.517961 1_555
O17 Y5 2.144531 1_555
O18 P8 1.607410 1_555
O18 Ta0 1.983163 1_554
O19 P6 1.606319 1_555
O19 Ta0 1.971961 1_554
O20 P7 1.603287 1_555
O20 Ta0 1.977673 1_554
O21 S2 1.524071 1_555
O21 Ta1 2.147799 1_555
O22 P5 1.622913 1_555
O22 Ta1 1.933630 1_555
O23 P4 1.618105 1_555
O23 Ta1 1.931389 1_555
O24 P9 1.514129 1_555
O24 Y6 2.147818 1_556
O25 P10 1.509892 1_555
O25 Y6 2.142896 1_556
O26 P11 1.516098 1_555
O26 Y6 2.218544 1_556
O27 P12 1.515354 1_555
O27 Y7 2.190508 1_555
O28 P13 1.515360 1_555
O28 Y7 2.153531 1_555
O29 P14 1.519066 1_555
O29 Y7 2.211939 1_555
O30 P14 1.531415 1_555
O30 Y8 2.232485 1_555
O31 P12 1.550271 1_555
O31 Y8 2.246896 1_555
O32 P13 1.530208 1_555
O32 Y8 2.290689 1_555
O33 P10 1.599371 1_555
O33 Ta2 1.990486 1_555
O34 P11 1.606061 1_555
O34 Ta2 2.009985 1_555
O35 P9 1.597133 1_555
O35 Ta2 2.063045 1_555
O36 P14 1.533657 1_555
O36 Y0 2.239290 1_465
O37 P12 1.521522 1_545
O37 Y0 2.250328 1_555
O38 P13 1.544531 1_555
O38 Y0 2.239258 1_455
O39 P10 1.510340 1_555
O39 Y1 2.235744 1_555
O40 P11 1.514530 1_555
O40 Y1 2.235243 1_565
O41 P9 1.512072 1_555
O41 Y1 2.253232 1_665
O42 P4 1.535289 1_555
O42 Y2 2.317168 1_555
O43 S2 1.473174 1_555
O43 Y2 2.421100 1_455
O44 P5 1.534962 1_555
O44 Y2 2.325579 1_565
O45 P6 1.550532 1_555
O45 Y3 2.285638 1_555
O46 P7 1.530091 1_555
O46 Y3 2.298703 1_545
O47 P8 1.552601 1_555
O47 Y3 2.319692 1_445
O48 P3 1.525317 1_545
O48 Y4 2.228062 1_555
O49 P1 1.547853 1_555
O49 Y4 2.293359 1_555
O50 P2 1.544646 1_655
O50 Y4 2.230741 1_555
O51 S0 1.478443 1_555
O51 Y5 2.303794 1_555
O52 S1 1.479030 1_655
O52 Y5 2.294577 1_555
O53 P0 1.549409 1_545
O53 Y5 2.227848 1_555
O54 P9 1.592320 1_555
O54 Ta0 2.044865 1_555
O55 P10 1.582416 1_655
O55 Ta0 2.057582 1_555
O56 P11 1.586128 1_545
O56 Ta0 2.073944 1_555
O57 P12 1.605562 1_545
O57 Ta1 2.022617 1_555
O58 P13 1.605241 1_555
O58 Ta1 2.020265 1_555
O59 P14 1.596259 1_655
O59 Ta1 1.942758 1_555
O60 P8 1.519041 1_555
O60 Y6 2.198642 1_555
O61 P6 1.538175 1_455
O61 Y6 2.256289 1_555
O62 P7 1.538500 1_565
O62 Y6 2.242627 1_555
O63 S2 1.468977 1_565
O63 Y7 2.333031 1_555
O64 P5 1.527002 1_555
O64 Y7 2.210451 1_555
O65 P4 1.524891 1_455
O65 Y7 2.216445 1_555
O66 P0 1.553070 1_555
O66 Y8 2.240713 1_555
O67 S0 1.482859 1_555
O67 Y8 2.332775 1_555
O68 S1 1.481382 1_555
O68 Y8 2.333579 1_555
O69 P1 1.612911 1_555
O69 Ta2 2.018208 1_555
O70 P2 1.594567 1_555
O70 Ta2 1.989909 1_555
O71 P3 1.606270 1_555
O71 Ta2 2.015887 1_555
