# generated using pymatgen
data_KHoH8RuC6(N3O2)2
_symmetry_space_group_name_H-M   'P 1'
_cell_length_a   7.45880000
_cell_length_b   7.45880000
_cell_length_c   14.19037700
_cell_angle_alpha   90.00000000
_cell_angle_beta   90.00000000
_cell_angle_gamma   120.01520261
_symmetry_Int_Tables_number   1
_chemical_formula_structural   KHoH8RuC6(N3O2)2
_chemical_formula_sum   'K2 Ho2 H16 Ru2 C12 N12 O8'
_cell_volume   683.59037543
_cell_formula_units_Z   2
loop_
 _symmetry_equiv_pos_site_id
 _symmetry_equiv_pos_as_xyz
  1  'x, y, z'
loop_
 _atom_site_type_symbol
 _atom_site_label
 _atom_site_symmetry_multiplicity
 _atom_site_fract_x
 _atom_site_fract_y
 _atom_site_fract_z
 _atom_site_occupancy
  K  K0  1  0.53851000  0.46149000  0.25000000  1
  K  K1  1  0.46149000  0.53851000  0.75000000  1
  Ho  Ho0  1  0.83089200  0.16910800  0.25000000  1
  Ho  Ho1  1  0.16910800  0.83089200  0.75000000  1
  H  H0  1  0.79028800  0.20971200  0.54704900  1
  H  H1  1  0.20971200  0.79028800  0.45295100  1
  H  H2  1  0.79028800  0.20971200  0.95295100  1
  H  H3  1  0.89972900  0.10027100  0.59394300  1
  H  H4  1  0.10027100  0.89972900  0.09394300  1
  H  H5  1  0.10027100  0.89972900  0.40605700  1
  H  H6  1  0.89972900  0.10027100  0.90605700  1
  H  H7  1  0.20971200  0.79028800  0.04704900  1
  H  H8  1  0.03256200  0.62169100  0.19363400  1
  H  H9  1  0.96743800  0.37830900  0.69363400  1
  H  H10  1  0.62169100  0.03256200  0.69363400  1
  H  H11  1  0.37830900  0.96743800  0.19363400  1
  H  H12  1  0.03256200  0.62169100  0.30636600  1
  H  H13  1  0.96743800  0.37830900  0.80636600  1
  H  H14  1  0.37830900  0.96743800  0.30636600  1
  H  H15  1  0.62169100  0.03256200  0.80636600  1
  Ru  Ru0  1  0.50000000  0.50000000  0.50000000  1
  Ru  Ru1  1  0.50000000  0.50000000  0.00000000  1
  C  C0  1  0.25709200  0.35537800  0.08943100  1
  C  C1  1  0.35537800  0.25709200  0.58943100  1
  C  C2  1  0.74290800  0.64462200  0.58943100  1
  C  C3  1  0.64462200  0.74290800  0.08943100  1
  C  C4  1  0.35840400  0.64159600  0.56174900  1
  C  C5  1  0.64159600  0.35840400  0.06174900  1
  C  C6  1  0.64159600  0.35840400  0.43825100  1
  C  C7  1  0.35840400  0.64159600  0.93825100  1
  C  C8  1  0.25709200  0.35537800  0.41056900  1
  C  C9  1  0.74290800  0.64462200  0.91056900  1
  C  C10  1  0.64462200  0.74290800  0.41056900  1
  C  C11  1  0.35537800  0.25709200  0.91056900  1
  N  N0  1  0.27509800  0.12190700  0.85504900  1
  N  N1  1  0.87809300  0.72490200  0.64495100  1
  N  N2  1  0.12190700  0.27509800  0.14495100  1
  N  N3  1  0.27509800  0.12190700  0.64495100  1
  N  N4  1  0.72490200  0.87809300  0.14495100  1
  N  N5  1  0.27920000  0.72080000  0.89670800  1
  N  N6  1  0.72080000  0.27920000  0.39670800  1
  N  N7  1  0.72080000  0.27920000  0.10329200  1
  N  N8  1  0.27920000  0.72080000  0.60329200  1
  N  N9  1  0.87809300  0.72490200  0.85504900  1
  N  N10  1  0.72490200  0.87809300  0.35504900  1
  N  N11  1  0.12190700  0.27509800  0.35504900  1
  O  O0  1  0.82576400  0.17423600  0.89166400  1
  O  O1  1  0.53603000  0.96317400  0.75000000  1
  O  O2  1  0.17423600  0.82576400  0.10833600  1
  O  O3  1  0.82576400  0.17423600  0.60833600  1
  O  O4  1  0.96317400  0.53603000  0.25000000  1
  O  O5  1  0.46397000  0.03682600  0.25000000  1
  O  O6  1  0.03682600  0.46397000  0.75000000  1
  O  O7  1  0.17423600  0.82576400  0.39166400  1
loop_
_geom_bond_atom_site_label_1
_geom_bond_atom_site_label_2
_geom_bond_distance
_geom_bond_site_symmetry_2
K0 O4 2.929198 1_555
K0 O5 2.929198 1_555
K0 N4 3.080360 1_555
K0 N10 3.080360 1_555
K0 N2 3.080360 1_555
K0 N11 3.080360 1_555
K0 N7 3.143402 1_555
K0 N6 3.143402 1_555
K1 O1 2.929198 1_555
K1 O6 2.929198 1_555
K1 N9 3.080360 1_555
K1 N0 3.080360 1_555
K1 N1 3.080360 1_555
K1 N3 3.080360 1_555
K1 N5 3.143402 1_555
K1 N8 3.143402 1_555
Ho0 O5 2.400422 1_555
Ho0 O4 2.400422 1_555
Ho0 N10 2.417009 1_545
Ho0 N4 2.417009 1_545
Ho0 N11 2.417009 1_655
Ho0 N2 2.417009 1_655
Ho0 N6 2.521360 1_555
Ho0 N7 2.521360 1_555
Ho1 O6 2.400422 1_555
Ho1 O1 2.400422 1_555
Ho1 N9 2.417009 1_455
Ho1 N0 2.417009 1_565
Ho1 N1 2.417009 1_455
Ho1 N3 2.417009 1_565
Ho1 N5 2.521360 1_555
Ho1 N8 2.521360 1_555
H0 O3 0.983076 1_555
H1 O7 0.983076 1_555
H2 O0 0.983076 1_555
H3 O3 0.977211 1_555
H4 O2 0.977211 1_555
H5 O7 0.977211 1_555
H6 O0 0.977211 1_555
H7 O2 0.983076 1_555
H8 O4 0.992485 1_455
H9 O6 0.992485 1_655
H10 O1 0.992485 1_545
H11 O5 0.992485 1_565
H12 O4 0.992485 1_455
H13 O6 0.992485 1_655
H14 O5 0.992485 1_565
H15 O1 0.992485 1_545
C0 N2 1.179794 1_555
C0 Ru1 2.025203 1_555
C0 K0 2.926094 1_555
C1 N3 1.179794 1_555
C1 Ru0 2.025203 1_555
C1 K1 2.926094 1_555
C2 N1 1.179794 1_555
C2 Ru0 2.025203 1_555
C2 K1 2.926094 1_555
C3 N4 1.179794 1_555
C3 Ru1 2.025203 1_555
C3 K0 2.926094 1_555
C4 N8 1.180974 1_555
C4 Ru0 2.028444 1_555
C4 K1 2.984964 1_555
C5 N7 1.180974 1_555
C5 Ru1 2.028444 1_555
C5 K0 2.984964 1_555
C6 N6 1.180974 1_555
C6 Ru0 2.028444 1_555
C6 K0 2.984964 1_555
C7 N5 1.180974 1_555
C7 Ru1 2.028444 1_556
C7 K1 2.984964 1_555
C8 N11 1.179794 1_555
C8 Ru0 2.025203 1_555
C8 K0 2.926094 1_555
C9 N9 1.179794 1_555
C9 Ru1 2.025203 1_556
C9 K1 2.926094 1_555
C10 N10 1.179794 1_555
C10 Ru0 2.025203 1_555
C10 K0 2.926094 1_555
C11 N0 1.179794 1_555
C11 Ru1 2.025203 1_556
C11 K1 2.926094 1_555
