# generated using pymatgen
data_Tm4MgTi2O10
_symmetry_space_group_name_H-M   'P 1'
_cell_length_a   5.45070493
_cell_length_b   6.24443811
_cell_length_c   7.90776961
_cell_angle_alpha   69.36804202
_cell_angle_beta   88.32131130
_cell_angle_gamma   64.02907969
_symmetry_Int_Tables_number   1
_chemical_formula_structural   Tm4MgTi2O10
_chemical_formula_sum   'Tm4 Mg1 Ti2 O10'
_cell_volume   223.94037097
_cell_formula_units_Z   1
loop_
 _symmetry_equiv_pos_site_id
 _symmetry_equiv_pos_as_xyz
  1  'x, y, z'
loop_
 _atom_site_type_symbol
 _atom_site_label
 _atom_site_symmetry_multiplicity
 _atom_site_fract_x
 _atom_site_fract_y
 _atom_site_fract_z
 _atom_site_occupancy
  Tm  Tm0  1  0.61631300  0.77311700  0.73252100  1
  Tm  Tm1  1  0.61900600  0.74952300  0.21228000  1
  Tm  Tm2  1  0.36481100  0.27882200  0.80248900  1
  Tm  Tm3  1  0.35327200  0.27617000  0.28471700  1
  Mg  Mg0  1  0.85739800  0.32719100  0.60484200  1
  Ti  Ti0  1  0.00512000  0.95024700  0.45350600  1
  Ti  Ti1  1  0.00162100  0.00647800  0.01339100  1
  O  O0  1  0.73973800  0.87191900  0.94404800  1
  O  O1  1  0.40565400  0.83576200  0.45758000  1
  O  O2  1  0.00547900  0.61219100  0.61572700  1
  O  O3  1  0.69462600  0.37189500  0.83219600  1
  O  O4  1  0.30020500  0.66108500  0.14277000  1
  O  O5  1  0.94504400  0.35632200  0.35518200  1
  O  O6  1  0.62664700  0.15104500  0.55220700  1
  O  O7  1  0.19328600  0.02684900  0.76463000  1
  O  O8  1  0.24827300  0.16362600  0.06803600  1
  O  O9  1  0.78600700  0.01484100  0.23530600  1
loop_
_geom_bond_atom_site_label_1
_geom_bond_atom_site_label_2
_geom_bond_distance
_geom_bond_site_symmetry_2
Mg0 O7 1.980933 1_655
Mg0 O5 1.981606 1_555
Mg0 O3 2.034875 1_555
Mg0 O6 2.128384 1_555
Mg0 O2 2.279520 1_655
O0 Ti1 2.113135 1_666
O0 Tm1 2.175454 1_556
O0 Tm0 2.188132 1_555
O0 Tm2 2.338223 1_565
O1 Ti0 1.974684 1_555
O1 Tm0 2.313437 1_555
O1 Tm1 2.336795 1_555
O1 Tm3 2.489789 1_565
O2 Ti0 2.046935 1_555
O2 Tm2 2.186933 1_555
O2 Tm0 2.243829 1_455
O3 Ti1 2.133554 1_656
O3 Tm2 2.158893 1_555
O3 Tm0 2.184469 1_555
O4 Ti1 1.953303 1_565
O4 Tm3 2.151649 1_555
O4 Tm1 2.176473 1_555
O5 Tm3 2.158866 1_655
O5 Tm1 2.191913 1_555
O5 Ti0 2.244963 1_645
O6 Ti0 2.183343 1_645
O6 Tm3 2.303341 1_555
O6 Tm0 2.312136 1_545
O6 Tm2 2.557475 1_555
O7 Ti1 2.190182 1_556
O7 Tm0 2.222845 1_545
O7 Tm2 2.253034 1_555
O8 Ti1 2.108437 1_555
O8 Tm2 2.141960 1_554
O8 Tm3 2.239584 1_555
O8 Tm1 2.356059 1_545
O9 Ti0 1.942861 1_645
O9 Ti1 2.086490 1_655
O9 Tm1 2.269309 1_545
O9 Tm3 2.324511 1_555
