# generated using pymatgen
data_MgCuH4Pb2(ClO2)2
_symmetry_space_group_name_H-M   'P 1'
_cell_length_a   5.83211142
_cell_length_b   5.87145567
_cell_length_c   6.65166031
_cell_angle_alpha   90.00067780
_cell_angle_beta   90.06263046
_cell_angle_gamma   90.01336849
_symmetry_Int_Tables_number   1
_chemical_formula_structural   MgCuH4Pb2(ClO2)2
_chemical_formula_sum   'Mg1 Cu1 H4 Pb2 Cl2 O4'
_cell_volume   227.77255298
_cell_formula_units_Z   1
loop_
 _symmetry_equiv_pos_site_id
 _symmetry_equiv_pos_as_xyz
  1  'x, y, z'
loop_
 _atom_site_type_symbol
 _atom_site_label
 _atom_site_symmetry_multiplicity
 _atom_site_fract_x
 _atom_site_fract_y
 _atom_site_fract_z
 _atom_site_occupancy
  Mg  Mg0  1  0.50008063  0.00014041  0.97700361  1
  Cu  Cu0  1  0.00079282  0.00006922  0.16519373  1
  H  H0  1  0.30397385  0.66552813  0.12993735  1
  H  H1  1  0.69663909  0.33424166  0.13069681  1
  H  H2  1  0.69633003  0.66569581  0.13011023  1
  H  H3  1  0.30372825  0.33426805  0.13020843  1
  Pb  Pb0  1  0.99961541  0.50005206  0.83346939  1
  Pb  Pb1  1  0.49927395  0.99988752  0.48966273  1
  Cl  Cl0  1  0.99949852  -0.00001247  0.50967612  1
  Cl  Cl1  1  0.49984898  0.49979915  0.42546454  1
  O  O0  1  0.24654347  0.76026652  0.01980662  1
  O  O1  1  0.75361409  0.23987770  0.02039007  1
  O  O2  1  0.75358282  0.76036309  0.02013418  1
  O  O3  1  0.24647810  0.23982315  0.02004819  1
loop_
_geom_bond_atom_site_label_1
_geom_bond_atom_site_label_2
_geom_bond_distance
_geom_bond_site_symmetry_2
Mg0 O1 2.061332 1_556
Mg0 O2 2.061602 1_546
Mg0 O0 2.061810 1_546
Mg0 O3 2.062008 1_556
Mg0 Pb1 3.241625 1_545
Cu0 O3 2.229116 1_555
Cu0 O0 2.230647 1_545
Cu0 O1 2.233011 1_455
Cu0 O2 2.233045 1_445
H0 O0 0.978670 1_555
H1 O1 0.977930 1_555
H2 O2 0.977767 1_555
H3 O3 0.977381 1_555
Cl0 Cu0 2.291401 1_655
Cl0 Pb1 2.917930 1_645
Cl0 Pb1 2.920256 1_545
Cl1 Pb1 2.966115 1_545
Cl1 Pb1 2.967134 1_555
O0 Pb0 2.437104 1_454
O1 Pb0 2.437366 1_554
O2 Pb0 2.437509 1_554
O3 Pb0 2.438189 1_454
