# generated using pymatgen
data_MgTe2Mo2W(SeS)2
_symmetry_space_group_name_H-M   'P 1'
_cell_length_a   3.36377076
_cell_length_b   3.36414178
_cell_length_c   35.28258401
_cell_angle_alpha   88.80032723
_cell_angle_beta   91.15268847
_cell_angle_gamma   120.03915632
_symmetry_Int_Tables_number   1
_chemical_formula_structural   MgTe2Mo2W(SeS)2
_chemical_formula_sum   'Mg1 Te2 Mo2 W1 Se2 S2'
_cell_volume   345.53980171
_cell_formula_units_Z   1
loop_
 _symmetry_equiv_pos_site_id
 _symmetry_equiv_pos_as_xyz
  1  'x, y, z'
loop_
 _atom_site_type_symbol
 _atom_site_label
 _atom_site_symmetry_multiplicity
 _atom_site_fract_x
 _atom_site_fract_y
 _atom_site_fract_z
 _atom_site_occupancy
  Mg  Mg0  1  0.66214900  0.34006600  0.24076700  1
  Te  Te0  1  0.66009200  0.34059300  0.52418700  1
  Te  Te1  1  0.67403300  0.32490600  0.63188600  1
  Mo  Mo0  1  0.33370600  0.66612100  0.11123600  1
  Mo  Mo1  1  0.65937000  0.34217000  0.35374800  1
  W  W0  1  0.33383800  0.66606900  0.57806200  1
  Se  Se0  1  0.66075600  0.33989400  0.06424300  1
  Se  Se1  1  0.67331200  0.32552100  0.15852000  1
  S  S0  1  0.33183500  0.66904300  0.39624700  1
  S  S1  1  0.32036800  0.68191200  0.31047200  1
loop_
_geom_bond_atom_site_label_1
_geom_bond_atom_site_label_2
_geom_bond_distance
_geom_bond_site_symmetry_2
Mg0 Se1 2.904638 1_555
Mg0 S1 3.099971 1_545
Mg0 S1 3.102155 1_655
Mg0 S1 3.201360 1_555
Te0 W0 2.716046 1_545
Te0 W0 2.716203 1_655
Te0 W0 2.718578 1_555
Te1 W0 2.714663 1_555
Te1 W0 2.716163 1_655
Te1 W0 2.716229 1_545
Mo0 Se0 2.552565 1_455
Mo0 Se0 2.552761 1_565
Mo0 Se0 2.553852 1_555
Mo0 Se1 2.559358 1_565
Mo0 Se1 2.559594 1_455
Mo0 Se1 2.560254 1_555
Mo1 S0 2.452873 1_655
Mo1 S0 2.452884 1_545
Mo1 S0 2.453567 1_555
Mo1 S1 2.469774 1_555
Mo1 S1 2.469951 1_655
Mo1 S1 2.470130 1_545
