# generated using pymatgen
data_Na9Ta5Zn(SiO4)9
_symmetry_space_group_name_H-M   'P 1'
_cell_length_a   9.07336467
_cell_length_b   27.18488094
_cell_length_c   22.41600312
_cell_angle_alpha   90.05095318
_cell_angle_beta   89.96601786
_cell_angle_gamma   120.08076941
_symmetry_Int_Tables_number   1
_chemical_formula_structural   Na9Ta5Zn(SiO4)9
_chemical_formula_sum   'Na54 Ta30 Zn6 Si54 O216'
_cell_volume   4784.43205629
_cell_formula_units_Z   6
loop_
 _symmetry_equiv_pos_site_id
 _symmetry_equiv_pos_as_xyz
  1  'x, y, z'
loop_
 _atom_site_type_symbol
 _atom_site_label
 _atom_site_symmetry_multiplicity
 _atom_site_fract_x
 _atom_site_fract_y
 _atom_site_fract_z
 _atom_site_occupancy
  Na  Na0  1  0.00150965  0.00189170  0.49591671  1
  Na  Na1  1  0.98667224  0.32794032  0.49875348  1
  Na  Na2  1  0.00586738  0.66883405  0.50597879  1
  Na  Na3  1  0.98350204  0.99564449  0.99879068  1
  Na  Na4  1  0.99607398  0.32736016  0.99921792  1
  Na  Na5  1  0.01197722  0.66870102  0.00908914  1
  Na  Na6  1  0.66605324  0.11027508  0.82945377  1
  Na  Na7  1  0.66899035  0.44203888  0.83850181  1
  Na  Na8  1  0.66651740  0.78891176  0.83296488  1
  Na  Na9  1  0.66345154  0.10954248  0.32800766  1
  Na  Na10  1  0.65990252  0.44314058  0.33871709  1
  Na  Na11  1  0.68583994  0.78353224  0.33377216  1
  Na  Na12  1  0.34462468  0.22643535  0.16777707  1
  Na  Na13  1  0.34110610  0.55169136  0.16911948  1
  Na  Na14  1  0.33485034  0.88945431  0.16689313  1
  Na  Na15  1  0.33589957  0.22700288  0.66786311  1
  Na  Na16  1  0.31545371  0.55139726  0.66716969  1
  Na  Na17  1  0.34674722  0.88795686  0.66873093  1
  Na  Na18  1  0.62243570  0.00628804  0.24223231  1
  Na  Na19  1  0.64800805  0.66485373  0.24602158  1
  Na  Na20  1  0.38984744  0.12377449  0.24135079  1
  Na  Na21  1  0.35134714  0.78560269  0.24440572  1
  Na  Na22  1  0.97899289  0.20088366  0.24198435  1
  Na  Na23  1  0.00765061  0.55028921  0.24381977  1
  Na  Na24  1  0.62520493  0.20156989  0.74197551  1
  Na  Na25  1  0.64080069  0.54963981  0.74124805  1
  Na  Na26  1  0.98125077  0.12447476  0.74311582  1
  Na  Na27  1  0.00604733  0.78680084  0.74443727  1
  Na  Na28  1  0.39728179  0.00663063  0.74301218  1
  Na  Na29  1  0.34628304  0.66428966  0.74306067  1
  Na  Na30  1  0.32077405  0.11286703  0.58750722  1
  Na  Na31  1  0.31925778  0.44210575  0.57471671  1
  Na  Na32  1  0.26883295  0.77013147  0.59134641  1
  Na  Na33  1  0.01764924  0.22629244  0.59044858  1
  Na  Na34  1  0.03243568  0.57463464  0.58920230  1
  Na  Na35  1  0.02841689  0.89965632  0.57916434  1
  Na  Na36  1  0.67345519  0.32873929  0.57406638  1
  Na  Na37  1  0.68487002  0.65322141  0.59484123  1
  Na  Na38  1  0.66017268  0.99432250  0.58781623  1
  Na  Na39  1  0.31194872  0.32813787  0.07501194  1
  Na  Na40  1  0.27945279  0.65431107  0.09648576  1
  Na  Na41  1  0.31716873  0.99308410  0.08862107  1
  Na  Na42  1  0.66080482  0.22547759  0.09098809  1
  Na  Na43  1  0.69239293  0.57532396  0.09154383  1
  Na  Na44  1  0.02008221  0.11269038  0.09001303  1
  Na  Na45  1  0.00572331  0.44173642  0.07671410  1
  Na  Na46  1  0.04452508  0.77124985  0.09215797  1
  Na  Na47  1  0.93584483  0.54810375  0.92851085  1
  Na  Na48  1  0.70453553  0.35122508  0.92464371  1
  Na  Na49  1  0.70392048  0.68009441  0.91951550  1
  Na  Na50  1  0.35198570  0.43074617  0.92489114  1
  Na  Na51  1  0.94254161  0.43172155  0.42488519  1
  Na  Na52  1  0.35052305  0.35195715  0.42421635  1
  Na  Na53  1  0.71098734  0.54906627  0.42720890  1
  Ta  Ta0  1  0.99697047  0.99781443  0.35777277  1
  Ta  Ta1  1  0.99945185  0.33399371  0.35595279  1
  Ta  Ta2  1  0.00426223  0.66790922  0.35433871  1
  Ta  Ta3  1  0.99854731  0.99850835  0.85854583  1
  Ta  Ta4  1  0.00197926  0.33360467  0.85615660  1
  Ta  Ta5  1  0.00276916  0.66818547  0.85346153  1
  Ta  Ta6  1  0.99708947  0.99985600  0.64623195  1
  Ta  Ta7  1  0.00188756  0.33338548  0.64813573  1
  Ta  Ta8  1  0.99667652  0.99822158  0.14510684  1
  Ta  Ta9  1  0.99805010  0.33329252  0.14828661  1
  Ta  Ta10  1  0.66401657  0.44279250  0.68688209  1
  Ta  Ta11  1  0.66687817  0.77913019  0.68862970  1
  Ta  Ta12  1  0.66443257  0.44294997  0.18719282  1
  Ta  Ta13  1  0.67070330  0.77980977  0.18838939  1
  Ta  Ta14  1  0.66730774  0.11077465  0.97857404  1
  Ta  Ta15  1  0.66987376  0.78215733  0.97614980  1
  Ta  Ta16  1  0.66525549  0.11118015  0.47801951  1
  Ta  Ta17  1  0.66979462  0.77922711  0.47438737  1
  Ta  Ta18  1  0.32944430  0.22164010  0.01849603  1
  Ta  Ta19  1  0.33216075  0.55625312  0.02255209  1
  Ta  Ta20  1  0.33843889  0.88836037  0.02148430  1
  Ta  Ta21  1  0.33630842  0.22195183  0.51833179  1
  Ta  Ta22  1  0.33566945  0.55658447  0.52148672  1
  Ta  Ta23  1  0.32893343  0.88796588  0.51965262  1
  Ta  Ta24  1  0.33299698  0.22063653  0.31085843  1
  Ta  Ta25  1  0.33551123  0.55545243  0.31270564  1
  Ta  Ta26  1  0.33058426  0.89056059  0.31206213  1
  Ta  Ta27  1  0.32911439  0.22075834  0.81102491  1
  Ta  Ta28  1  0.32969352  0.55461944  0.81213642  1
  Ta  Ta29  1  0.34107356  0.89095772  0.81241154  1
  Zn  Zn0  1  0.99817563  0.66541537  0.64948327  1
  Zn  Zn1  1  0.00204567  0.66603770  0.15104135  1
  Zn  Zn2  1  0.66928391  0.11145992  0.68518702  1
  Zn  Zn3  1  0.66400197  0.11096464  0.18457763  1
  Zn  Zn4  1  0.65968084  0.44070812  0.98279102  1
  Zn  Zn5  1  0.66526359  0.44183310  0.48198421  1
  Si  Si0  1  0.28397705  0.99812943  0.25098825  1
  Si  Si1  1  0.29093904  0.33361703  0.25147014  1
  Si  Si2  1  0.29453551  0.66671432  0.24843390  1
  Si  Si3  1  0.70729157  0.23647807  0.25148340  1
  Si  Si4  1  0.71009255  0.56968715  0.24746431  1
  Si  Si5  1  0.70927929  0.90372662  0.25215200  1
  Si  Si6  1  0.00103449  0.09498069  0.25078732  1
  Si  Si7  1  0.99854755  0.43095826  0.25237558  1
  Si  Si8  1  0.00148151  0.76360418  0.24705964  1
  Si  Si9  1  0.28642935  0.09571159  0.75155259  1
  Si  Si10  1  0.29398953  0.43056332  0.75249251  1
  Si  Si11  1  0.29018585  0.76455854  0.74620280  1
  Si  Si12  1  0.00249523  0.23659074  0.75124474  1
  Si  Si13  1  0.99771669  0.56939407  0.74730490  1
  Si  Si14  1  0.00258734  0.90394365  0.75081403  1
  Si  Si15  1  0.71013834  0.99859316  0.75233211  1
  Si  Si16  1  0.71024802  0.33377810  0.75155868  1
  Si  Si17  1  0.70573622  0.66666318  0.74863442  1
  Si  Si18  1  0.95758425  0.11177857  0.58532028  1
  Si  Si19  1  0.95634532  0.44435672  0.58093848  1
  Si  Si20  1  0.95649781  0.77892892  0.58190903  1
  Si  Si21  1  0.37795979  0.01493263  0.58628811  1
  Si  Si22  1  0.37134731  0.34581812  0.58014525  1
  Si  Si23  1  0.38327036  0.68223672  0.58223384  1
  Si  Si24  1  0.66623272  0.20799020  0.58609441  1
  Si  Si25  1  0.66895064  0.54067742  0.58019838  1
  Si  Si26  1  0.66108708  0.87364237  0.58166310  1
  Si  Si27  1  0.95774269  0.20793577  0.08592019  1
  Si  Si28  1  0.95200737  0.54050597  0.08026876  1
  Si  Si29  1  0.96004569  0.87461669  0.08193609  1
  Si  Si30  1  0.66682059  0.01473580  0.08625910  1
  Si  Si31  1  0.66601940  0.34568048  0.08038599  1
  Si  Si32  1  0.66433903  0.68262238  0.08079821  1
  Si  Si33  1  0.37681659  0.11162905  0.08534052  1
  Si  Si34  1  0.37719565  0.44416849  0.08078333  1
  Si  Si35  1  0.38323048  0.78058856  0.08337608  1
  Si  Si36  1  0.62088602  0.22070739  0.91545126  1
  Si  Si37  1  0.62534871  0.55707380  0.91487969  1
  Si  Si38  1  0.62518021  0.88943902  0.91643022  1
  Si  Si39  1  0.03744612  0.12393799  0.91440950  1
  Si  Si40  1  0.04551788  0.45740351  0.91876950  1
  Si  Si41  1  0.04573976  0.79401200  0.91524171  1
  Si  Si42  1  0.33050154  0.31836818  0.91552310  1
  Si  Si43  1  0.32925438  0.65276024  0.91633537  1
  Si  Si44  1  0.33267075  0.98542753  0.91841222  1
  Si  Si45  1  0.62528281  0.31864769  0.41514280  1
  Si  Si46  1  0.62802009  0.65287541  0.41587163  1
  Si  Si47  1  0.62475543  0.98607235  0.41724101  1
  Si  Si48  1  0.33375469  0.12394154  0.41437607  1
  Si  Si49  1  0.32784381  0.45776412  0.41861258  1
  Si  Si50  1  0.33459804  0.79303888  0.41446652  1
  Si  Si51  1  0.04214497  0.22120638  0.41553865  1
  Si  Si52  1  0.04815328  0.55845754  0.41521025  1
  Si  Si53  1  0.04059914  0.88930195  0.41717945  1
  O  O0  1  0.17009532  0.99680292  0.30814771  1
  O  O1  1  0.19845153  0.34192790  0.31084794  1
  O  O2  1  0.19393609  0.67536921  0.30547263  1
  O  O3  1  0.83194253  0.27657890  0.30617272  1
  O  O4  1  0.83536483  0.60098296  0.30576753  1
  O  O5  1  0.81490525  0.93396066  0.31234856  1
  O  O6  1  0.99394664  0.05504989  0.30663795  1
  O  O7  1  0.99031607  0.39602804  0.31318395  1
  O  O8  1  0.96718055  0.71971189  0.30339258  1
  O  O9  1  0.17309531  0.05586865  0.80713546  1
  O  O10  1  0.19809984  0.39614573  0.81355447  1
  O  O11  1  0.18819461  0.72093560  0.80303448  1
  O  O12  1  0.99787053  0.27657974  0.80612318  1
  O  O13  1  0.96802214  0.60198942  0.80547870  1
  O  O14  1  0.98883655  0.93554199  0.80996385  1
  O  O15  1  0.82141676  0.99752351  0.80870338  1
  O  O16  1  0.82776553  0.34198108  0.81092069  1
  O  O17  1  0.82469662  0.67481537  0.80836869  1
  O  O18  1  0.80760993  0.32547044  0.69333571  1
  O  O19  1  0.78025400  0.65197113  0.69105738  1
  O  O20  1  0.80544560  0.99348478  0.69043194  1
  O  O21  1  0.17137650  0.06356035  0.69037248  1
  O  O22  1  0.17412233  0.39541681  0.69519164  1
  O  O23  1  0.17834854  0.74113776  0.68685143  1
  O  O24  1  0.01159781  0.27204249  0.68998385  1
  O  O25  1  0.05672620  0.60920494  0.68920517  1
  O  O26  1  0.01900780  0.94187141  0.69065373  1
  O  O27  1  0.80497514  0.27204578  0.19019140  1
  O  O28  1  0.77307414  0.60961444  0.18912007  1
  O  O29  1  0.81305090  0.94435269  0.19456502  1
  O  O30  1  0.02436077  0.06468220  0.18958566  1
  O  O31  1  0.01267068  0.39562755  0.19491265  1
  O  O32  1  0.04718384  0.74118273  0.18738924  1
  O  O33  1  0.16900330  0.32549290  0.19317510  1
  O  O34  1  0.17767470  0.65123583  0.19003635  1
  O  O35  1  0.17449629  0.99320426  0.18952799  1
  O  O36  1  0.89660151  0.12903794  0.64523675  1
  O  O37  1  0.85510559  0.45205292  0.63823014  1
  O  O38  1  0.86102454  0.78626662  0.64234227  1
  O  O39  1  0.49051460  0.03690394  0.64592628  1
  O  O40  1  0.49886989  0.38011932  0.63657789  1
  O  O41  1  0.49757347  0.71242981  0.64381300  1
  O  O42  1  0.61912041  0.17034233  0.64564627  1
  O  O43  1  0.63637840  0.49950399  0.64032484  1
  O  O44  1  0.64077946  0.83324075  0.63975044  1
  O  O45  1  0.89160855  0.17053047  0.14557847  1
  O  O46  1  0.86218323  0.49918838  0.13995143  1
  O  O47  1  0.85513620  0.83404447  0.13899592  1
  O  O48  1  0.61995169  0.03687909  0.14584681  1
  O  O49  1  0.64089286  0.38006302  0.13642137  1
  O  O50  1  0.64136133  0.71405245  0.14077084  1
  O  O51  1  0.49314096  0.13025461  0.14456420  1
  O  O52  1  0.50154407  0.45230191  0.13786429  1
  O  O53  1  0.49256067  0.78508239  0.14427710  1
  O  O54  1  0.47557823  0.10202334  0.02902563  1
  O  O55  1  0.43348683  0.42415515  0.02179486  1
  O  O56  1  0.50014386  0.78223067  0.02616712  1
  O  O57  1  0.83041211  0.17679709  0.02911337  1
  O  O58  1  0.84388914  0.51029979  0.02146575  1
  O  O59  1  0.85347417  0.84263971  0.02151257  1
  O  O60  1  0.70099225  0.05863523  0.03017890  1
  O  O61  1  0.71086649  0.38173658  0.01989913  1
  O  O62  1  0.67016560  0.72007928  0.02208992  1
  O  O63  1  0.47332543  0.05850953  0.53024726  1
  O  O64  1  0.43645810  0.38193866  0.51982208  1
  O  O65  1  0.49625656  0.72332217  0.52708853  1
  O  O66  1  0.69997748  0.17648190  0.52951361  1
  O  O67  1  0.68722761  0.51058938  0.52149991  1
  O  O68  1  0.68723059  0.84424439  0.52285149  1
  O  O69  1  0.82825580  0.10097975  0.52941371  1
  O  O70  1  0.83929042  0.42411421  0.52218273  1
  O  O71  1  0.84959541  0.78197713  0.52487220  1
  O  O72  1  0.52639496  0.23075816  0.97354738  1
  O  O73  1  0.52381116  0.56488906  0.97314773  1
  O  O74  1  0.51833971  0.89141012  0.97446295  1
  O  O75  1  0.15996320  0.16051693  0.97143690  1
  O  O76  1  0.15850449  0.48896741  0.97962925  1
  O  O77  1  0.15676493  0.82424525  0.97562461  1
  O  O78  1  0.32124682  0.28373899  0.97729285  1
  O  O79  1  0.30475754  0.61156049  0.97445895  1
  O  O80  1  0.31014823  0.94529817  0.97670123  1
  O  O81  1  0.52981990  0.28377731  0.47704702  1
  O  O82  1  0.52637309  0.61135537  0.47374267  1
  O  O83  1  0.52282660  0.94621529  0.47624368  1
  O  O84  1  0.32156134  0.16027967  0.47187285  1
  O  O85  1  0.30910224  0.48890998  0.47987062  1
  O  O86  1  0.31288075  0.82456363  0.47482062  1
  O  O87  1  0.16541925  0.23054944  0.47389824  1
  O  O88  1  0.16507433  0.56292035  0.47486937  1
  O  O89  1  0.14880191  0.89195625  0.47791262  1
  O  O90  1  0.13548710  0.21336918  0.35623446  1
  O  O91  1  0.15364376  0.55798958  0.35547952  1
  O  O92  1  0.15237493  0.88639542  0.36096293  1
  O  O93  1  0.50034153  0.27916548  0.36037591  1
  O  O94  1  0.51645661  0.62087428  0.35616195  1
  O  O95  1  0.51089399  0.95469558  0.35726328  1
  O  O96  1  0.34813582  0.16058740  0.35399592  1
  O  O97  1  0.32404640  0.49743128  0.36369134  1
  O  O98  1  0.35963853  0.83291076  0.35602341  1
  O  O99  1  0.13333437  0.16018061  0.85364694  1
  O  O100  1  0.16837671  0.49711329  0.86358788  1
  O  O101  1  0.13977256  0.83247461  0.85595796  1
  O  O102  1  0.33684307  0.27908825  0.86050007  1
  O  O103  1  0.35015400  0.62056779  0.85769314  1
  O  O104  1  0.35350169  0.95420577  0.85792278  1
  O  O105  1  0.50466235  0.21340199  0.85602803  1
  O  O106  1  0.52232870  0.55798164  0.85462460  1
  O  O107  1  0.50921635  0.88551091  0.85841870  1
  O  O108  1  0.03473852  0.28045453  0.41081605  1
  O  O109  1  0.02675314  0.61503427  0.41248759  1
  O  O110  1  0.02276056  0.94577339  0.41623050  1
  O  O111  1  0.81429463  0.32403760  0.41330020  1
  O  O112  1  0.81105884  0.65489540  0.41119678  1
  O  O113  1  0.81338913  0.99304163  0.41384680  1
  O  O114  1  0.16513554  0.06115584  0.41266761  1
  O  O115  1  0.15146815  0.39501582  0.41748934  1
  O  O116  1  0.16092922  0.73133680  0.40737008  1
  O  O117  1  0.01802789  0.06104058  0.91282656  1
  O  O118  1  0.03388832  0.39481991  0.91760814  1
  O  O119  1  0.02599893  0.73043319  0.90795578  1
  O  O120  1  0.15798708  0.32399220  0.91326144  1
  O  O121  1  0.15318910  0.65520928  0.91057275  1
  O  O122  1  0.16485000  0.99250188  0.91291123  1
  O  O123  1  0.80636327  0.28022610  0.91056856  1
  O  O124  1  0.81458368  0.61572026  0.91281823  1
  O  O125  1  0.81369117  0.94510172  0.91516886  1
  O  O126  1  0.97310725  0.05328979  0.58833911  1
  O  O127  1  0.99612889  0.39153591  0.59350737  1
  O  O128  1  0.96839772  0.72232607  0.58133040  1
  O  O129  1  0.18391362  0.00746117  0.58837230  1
  O  O130  1  0.17862537  0.33639162  0.59175448  1
  O  O131  1  0.19798851  0.67542028  0.58173266  1
  O  O132  1  0.83591680  0.27295144  0.58864151  1
  O  O133  1  0.83225177  0.60361241  0.58611094  1
  O  O134  1  0.83270046  0.93687085  0.58892369  1
  O  O135  1  0.98373820  0.27309295  0.08866410  1
  O  O136  1  0.98005622  0.60373092  0.08591457  1
  O  O137  1  0.98265173  0.93811466  0.08758971  1
  O  O138  1  0.84130895  0.00965204  0.08888200  1
  O  O139  1  0.83034445  0.33616509  0.09196037  1
  O  O140  1  0.82947959  0.67588098  0.07957708  1
  O  O141  1  0.18744954  0.05354839  0.08850241  1
  O  O142  1  0.17856731  0.39166128  0.09327122  1
  O  O143  1  0.20259961  0.72312314  0.08124529  1
  O  O144  1  0.69921738  0.05569435  0.75229693  1
  O  O145  1  0.68809202  0.38911192  0.74213967  1
  O  O146  1  0.69728070  0.72614437  0.74568960  1
  O  O147  1  0.47037489  0.10114725  0.75139578  1
  O  O148  1  0.48154092  0.43668957  0.74449633  1
  O  O149  1  0.47753173  0.76778422  0.74502927  1
  O  O150  1  0.83311723  0.17558074  0.75455302  1
  O  O151  1  0.82041457  0.50804242  0.74149519  1
  O  O152  1  0.83433628  0.83995214  0.74461053  1
  O  O153  1  0.69319739  0.17545850  0.25460661  1
  O  O154  1  0.70260996  0.50806668  0.24060254  1
  O  O155  1  0.68521158  0.83997292  0.24469592  1
  O  O156  1  0.83370133  0.10075362  0.25137783  1
  O  O157  1  0.82839530  0.43658197  0.24417297  1
  O  O158  1  0.82564566  0.76779793  0.24367415  1
  O  O159  1  0.46680315  0.05532705  0.25172065  1
  O  O160  1  0.47883446  0.38899235  0.24188291  1
  O  O161  1  0.48271892  0.72554741  0.24588834  1
  O  O162  1  0.64258291  0.16559458  0.92471832  1
  O  O163  1  0.63661217  0.50034258  0.91536070  1
  O  O164  1  0.64326867  0.83241762  0.91775222  1
  O  O165  1  0.85331595  0.12005026  0.92334100  1
  O  O166  1  0.86352514  0.45277197  0.91382457  1
  O  O167  1  0.84953310  0.78256641  0.91901992  1
  O  O168  1  0.50492153  0.04771275  0.92603410  1
  O  O169  1  0.49977007  0.37961032  0.91267231  1
  O  O170  1  0.50006029  0.71519454  0.92171278  1
  O  O171  1  0.63830050  0.04810783  0.42594446  1
  O  O172  1  0.64015726  0.37986396  0.41256481  1
  O  O173  1  0.65033544  0.71586880  0.42284562  1
  O  O174  1  0.50663526  0.12021779  0.42375365  1
  O  O175  1  0.49592425  0.45309440  0.41386673  1
  O  O176  1  0.50096739  0.78519407  0.42156476  1
  O  O177  1  0.85497149  0.16591274  0.42538125  1
  O  O178  1  0.86641121  0.50095167  0.41519777  1
  O  O179  1  0.85277294  0.83239084  0.41749714  1
  O  O180  1  0.34113174  0.16541119  0.07377209  1
  O  O181  1  0.37255071  0.50437367  0.07774532  1
  O  O182  1  0.35669384  0.83636036  0.08165517  1
  O  O183  1  0.15209435  0.21811379  0.07490903  1
  O  O184  1  0.14485727  0.54438107  0.07923983  1
  O  O185  1  0.14909841  0.88037128  0.08165925  1
  O  O186  1  0.49430326  0.28187876  0.07968953  1
  O  O187  1  0.48489501  0.61957655  0.07943412  1
  O  O188  1  0.49871323  0.95166897  0.07390012  1
  O  O189  1  0.35146900  0.28192910  0.57974353  1
  O  O190  1  0.37538596  0.61975365  0.57960294  1
  O  O191  1  0.34944022  0.95043720  0.57508813  1
  O  O192  1  0.50259551  0.21819010  0.57483795  1
  O  O193  1  0.48881793  0.54485648  0.57958118  1
  O  O194  1  0.49166181  0.88066591  0.58060446  1
  O  O195  1  0.15464255  0.16517918  0.57392081  1
  O  O196  1  0.14172542  0.50425820  0.57876977  1
  O  O197  1  0.14937057  0.83686444  0.58206718  1
  O  O198  1  0.29614487  0.27399527  0.25546428  1
  O  O199  1  0.33310408  0.61346265  0.25514594  1
  O  O200  1  0.31130602  0.94220453  0.25233216  1
  O  O201  1  0.51810527  0.23118024  0.25300597  1
  O  O202  1  0.51556488  0.55827840  0.25962543  1
  O  O203  1  0.51880230  0.89752104  0.25185515  1
  O  O204  1  0.17791182  0.15830533  0.25181696  1
  O  O205  1  0.16188225  0.49643528  0.25321666  1
  O  O206  1  0.16853362  0.82685863  0.25942215  1
  O  O207  1  0.29663150  0.15831310  0.75103007  1
  O  O208  1  0.32631642  0.49619342  0.75302378  1
  O  O209  1  0.31145615  0.82740254  0.75805045  1
  O  O210  1  0.17545466  0.23114998  0.75300363  1
  O  O211  1  0.15807563  0.55846539  0.76106376  1
  O  O212  1  0.17398479  0.89752218  0.75126523  1
  O  O213  1  0.52609710  0.27411592  0.75544759  1
  O  O214  1  0.50631522  0.61374079  0.75471304  1
  O  O215  1  0.51561319  0.94260354  0.75230308  1
loop_
_geom_bond_atom_site_label_1
_geom_bond_atom_site_label_2
_geom_bond_distance
_geom_bond_site_symmetry_2
Na0 O110 2.417610 1_545
Na0 O114 2.426205 1_555
Na0 O113 2.438656 1_445
Na0 O126 2.581861 1_455
Na0 O129 2.609506 1_555
Na0 O134 2.665660 1_445
Na1 O111 2.442041 1_555
Na1 O132 2.473447 1_555
Na1 O115 2.479621 1_655
Na1 O108 2.510196 1_655
Na1 O130 2.652267 1_655
Na1 O127 2.711571 1_555
Na2 O128 2.360878 1_455
Na2 O131 2.375793 1_555
Na2 O133 2.460513 1_455
Na2 O109 2.615110 1_555
Na2 O112 2.667128 1_455
Na2 O116 2.712752 1_555
Na3 O125 2.377417 1_555
Na3 O138 2.525054 1_566
Na3 O137 2.530131 1_556
Na3 O117 2.533570 1_665
Na3 O122 2.560768 1_655
Na3 O141 2.650466 1_666
Na4 O120 2.451602 1_655
Na4 O135 2.459366 1_556
Na4 O118 2.490363 1_655
Na4 O123 2.518358 1_555
Na4 O139 2.645106 1_556
Na4 O142 2.708942 1_656
Na5 O143 2.287004 1_555
Na5 O140 2.365781 1_455
Na5 O136 2.379303 1_455
Na5 O121 2.668189 1_554
Na5 O124 2.711523 1_454
Na5 O119 2.786430 1_554
Na6 O150 2.360743 1_555
Na6 O144 2.392875 1_555
Na6 O147 2.415933 1_555
Na6 O165 2.633902 1_555
Na6 O162 2.679899 1_555
Na6 O168 2.688349 1_555
Na7 O169 2.322022 1_555
Na7 O166 2.353266 1_555
Na7 O163 2.455210 1_555
Na7 O145 2.647652 1_555
Na7 O148 2.666465 1_555
Na7 O151 2.714365 1_555
Na8 O164 2.302424 1_555
Na8 O152 2.459627 1_555
Na8 O149 2.484033 1_555
Na8 O167 2.607653 1_555
Na8 O170 2.687776 1_555
Na8 O146 2.699568 1_555
Na9 O153 2.347537 1_555
Na9 O159 2.375514 1_555
Na9 O156 2.400002 1_555
Na9 O174 2.669135 1_555
Na9 O171 2.699024 1_555
Na9 O177 2.731562 1_555
Na10 O172 2.329615 1_555
Na10 O175 2.350403 1_555
Na10 O178 2.442742 1_555
Na10 O157 2.670051 1_555
Na10 O160 2.674298 1_555
Na10 O154 2.724477 1_555
Na11 O179 2.358571 1_555
Na11 O155 2.520989 1_555
Na11 O158 2.531865 1_555
Na11 O176 2.600100 1_555
Na11 O161 2.617031 1_555
Na11 O173 2.624064 1_555
Na12 O201 2.438002 1_555
Na12 O186 2.442382 1_555
Na12 O198 2.508633 1_555
Na12 O204 2.541978 1_555
Na12 O183 2.654008 1_555
Na12 O180 2.671064 1_555
Na13 O205 2.450963 1_555
Na13 O181 2.508755 1_555
Na13 O202 2.524421 1_555
Na13 O199 2.580705 1_555
Na13 O187 2.596036 1_555
Na13 O184 2.630240 1_555
Na14 O182 2.460632 1_555
Na14 O200 2.464089 1_555
Na14 O203 2.469238 1_555
Na14 O185 2.477445 1_555
Na14 O188 2.626434 1_555
Na14 O206 2.627413 1_555
Na15 O210 2.436236 1_555
Na15 O189 2.438180 1_555
Na15 O213 2.501385 1_555
Na15 O207 2.535313 1_555
Na15 O192 2.655545 1_555
Na15 O195 2.681577 1_555
Na16 O196 2.455157 1_555
Na16 O208 2.473702 1_555
Na16 O190 2.567889 1_555
Na16 O193 2.576219 1_555
Na16 O211 2.603191 1_555
Na16 O214 2.603499 1_555
Na17 O215 2.404305 1_555
Na17 O194 2.434747 1_555
Na17 O209 2.509549 1_555
Na17 O212 2.520303 1_555
Na17 O197 2.533007 1_555
Na17 O191 2.693781 1_555
Na18 O156 2.318658 1_555
Na18 O48 2.319963 1_555
Na18 O159 2.388043 1_555
Na18 O200 2.474968 1_545
Na18 O203 2.624362 1_545
Na18 O95 2.867164 1_545
Na19 O158 2.431232 1_555
Na19 O199 2.481081 1_555
Na19 O202 2.538126 1_555
Na19 O28 2.621589 1_555
Na19 O50 2.728622 1_555
Na19 O161 2.729847 1_555
Na19 O94 2.742414 1_555
Na19 O8 2.817124 1_555
Na20 O159 2.303759 1_555
Na20 O51 2.334353 1_555
Na20 O153 2.400357 1_555
Na20 O204 2.538236 1_555
Na20 O201 2.557473 1_555
Na20 O96 2.809749 1_555
Na21 O206 2.446649 1_555
Na21 O161 2.457279 1_555
Na21 O53 2.587332 1_555
Na21 O155 2.621609 1_555
Na21 O203 2.637906 1_555
Na21 O32 2.714555 1_555
Na21 O98 2.795935 1_555
Na21 O2 2.933999 1_555
Na22 O45 2.307078 1_555
Na22 O153 2.341982 1_555
Na22 O156 2.365408 1_555
Na22 O198 2.566902 1_655
Na22 O204 2.596347 1_655
Na22 O90 2.865297 1_655
Na23 O154 2.408022 1_455
Na23 O205 2.490113 1_555
Na23 O199 2.578796 1_555
Na23 O34 2.669083 1_555
Na23 O157 2.675934 1_455
Na23 O46 2.693102 1_455
Na23 O91 2.790767 1_555
Na23 O4 2.902519 1_455
Na24 O42 2.310034 1_555
Na24 O150 2.339753 1_555
Na24 O147 2.372145 1_555
Na24 O213 2.562347 1_555
Na24 O207 2.607172 1_555
Na24 O105 2.860733 1_555
Na25 O151 2.404607 1_555
Na25 O208 2.483261 1_555
Na25 O214 2.597465 1_555
Na25 O43 2.630016 1_555
Na25 O148 2.659708 1_555
Na25 O19 2.661003 1_555
Na25 O106 2.811757 1_555
Na25 O13 2.946033 1_555
Na26 O144 2.300111 1_555
Na26 O36 2.348867 1_555
Na26 O150 2.381865 1_555
Na26 O207 2.535307 1_655
Na26 O210 2.537850 1_655
Na26 O99 2.764461 1_655
Na27 O209 2.434060 1_555
Na27 O146 2.436721 1_455
Na27 O152 2.602265 1_455
Na27 O212 2.608999 1_555
Na27 O38 2.636955 1_455
Na27 O23 2.755256 1_555
Na27 O101 2.784056 1_555
Na28 O147 2.316932 1_555
Na28 O39 2.330708 1_555
Na28 O144 2.380088 1_555
Na28 O215 2.469811 1_545
Na28 O212 2.629307 1_545
Na28 O104 2.874305 1_545
Na29 O149 2.444790 1_555
Na29 O214 2.462973 1_555
Na29 O211 2.536078 1_555
Na29 O25 2.580501 1_555
Na29 O41 2.597531 1_555
Na29 O146 2.757766 1_555
Na29 O103 2.839750 1_555
Na29 O11 2.905929 1_555
Na30 O129 2.487228 1_555
Na30 O192 2.503200 1_555
Na30 O195 2.556847 1_555
Na30 O21 2.670465 1_555
Na30 O42 2.688542 1_555
Na30 O126 2.729990 1_455
Na30 O63 2.791387 1_555
Na30 O84 2.894270 1_555
Na31 O193 2.423413 1_555
Na31 O85 2.504028 1_555
Na31 O130 2.521574 1_555
Na31 O127 2.573392 1_455
Na31 O64 2.656831 1_555
Na31 O196 2.861048 1_555
Na31 O43 2.894309 1_555
Na31 O22 2.994084 1_555
Na32 O23 2.287076 1_555
Na32 O131 2.329999 1_555
Na32 O128 2.370469 1_455
Na32 O197 2.545847 1_555
Na32 O194 2.661865 1_555
Na32 O86 2.930000 1_555
Na33 O132 2.535012 1_455
Na33 O195 2.551635 1_555
Na33 O24 2.567368 1_555
Na33 O130 2.590378 1_555
Na33 O36 2.607272 1_455
Na33 O189 2.631867 1_555
Na33 O66 2.845371 1_455
Na33 O87 2.911622 1_555
Na34 O133 2.314959 1_455
Na34 O131 2.380347 1_555
Na34 O25 2.397091 1_555
Na34 O196 2.568845 1_555
Na34 O190 2.721612 1_555
Na34 O88 2.915002 1_555
Na35 O197 2.449625 1_555
Na35 O134 2.454566 1_455
Na35 O191 2.523359 1_555
Na35 O129 2.544864 1_565
Na35 O89 2.571711 1_555
Na35 O26 2.768193 1_555
Na36 O81 2.514746 1_555
Na36 O70 2.536054 1_555
Na36 O189 2.538456 1_555
Na36 O127 2.581822 1_555
Na36 O192 2.600957 1_555
Na36 O132 2.611922 1_555
Na36 O40 2.938643 1_555
Na36 O18 2.958056 1_555
Na37 O128 2.322580 1_555
Na37 O19 2.331031 1_555
Na37 O133 2.335026 1_555
Na37 O190 2.503834 1_555
Na37 O193 2.589483 1_555
Na38 O126 2.463567 1_565
Na38 O191 2.466213 1_555
Na38 O20 2.657593 1_555
Na38 O194 2.678458 1_555
Na38 O39 2.680971 1_565
Na38 O134 2.709492 1_555
Na38 O83 2.807580 1_555
Na38 O69 2.831663 1_565
Na39 O78 2.521752 1_554
Na39 O186 2.533030 1_555
Na39 O55 2.563371 1_555
Na39 O183 2.588622 1_555
Na39 O142 2.589867 1_555
Na39 O135 2.594959 1_455
Na39 O49 2.928065 1_555
Na39 O33 2.933599 1_555
Na40 O34 2.275510 1_555
Na40 O143 2.326225 1_555
Na40 O136 2.362661 1_455
Na40 O187 2.505065 1_555
Na40 O184 2.628996 1_555
Na41 O188 2.438763 1_555
Na41 O141 2.454888 1_565
Na41 O35 2.606313 1_555
Na41 O137 2.626658 1_455
Na41 O185 2.655916 1_555
Na41 O48 2.707966 1_565
Na41 O80 2.810178 1_554
Na41 O54 2.891146 1_565
Na42 O135 2.541966 1_555
Na42 O180 2.545713 1_555
Na42 O51 2.552119 1_555
Na42 O27 2.568503 1_555
Na42 O139 2.604020 1_555
Na42 O186 2.649617 1_555
Na42 O57 2.842360 1_555
Na42 O72 2.935679 1_554
Na43 O136 2.324656 1_555
Na43 O28 2.345893 1_555
Na43 O140 2.384165 1_555
Na43 O181 2.574230 1_555
Na43 O187 2.708705 1_555
Na44 O138 2.433744 1_455
Na44 O183 2.514545 1_555
Na44 O180 2.546907 1_555
Na44 O30 2.596685 1_555
Na44 O45 2.686033 1_455
Na44 O141 2.709151 1_555
Na44 O60 2.841980 1_455
Na44 O75 2.951983 1_554
Na45 O184 2.419032 1_555
Na45 O139 2.511696 1_455
Na45 O76 2.554110 1_554
Na45 O142 2.567492 1_555
Na45 O61 2.658167 1_455
Na45 O46 2.859694 1_455
Na45 O181 2.880398 1_555
Na45 O31 2.946271 1_555
Na46 O32 2.290976 1_555
Na46 O140 2.352991 1_455
Na46 O143 2.389296 1_555
Na46 O182 2.487022 1_555
Na46 O185 2.633430 1_555
Na46 O77 2.910172 1_554
Na47 O58 2.288275 1_556
Na47 O166 2.355694 1_555
Na47 O163 2.368684 1_555
Na47 O124 2.596541 1_555
Na47 O121 2.602610 1_655
Na48 O61 2.280306 1_556
Na48 O169 2.357415 1_555
Na48 O166 2.401914 1_555
Na48 O123 2.542565 1_555
Na48 O118 2.609432 1_655
Na48 O16 2.844111 1_555
Na49 O167 2.411713 1_555
Na49 O124 2.419513 1_555
Na49 O170 2.470501 1_555
Na49 O119 2.543766 1_655
Na49 O62 2.624995 1_556
Na49 O17 2.753662 1_555
Na50 O163 2.323077 1_555
Na50 O55 2.330836 1_556
Na50 O169 2.381791 1_555
Na50 O120 2.543008 1_555
Na50 O118 2.546625 1_555
Na50 O10 2.783225 1_555
Na51 O178 2.317406 1_555
Na51 O70 2.341250 1_555
Na51 O172 2.390431 1_555
Na51 O115 2.551910 1_655
Na51 O111 2.564237 1_555
Na51 O7 2.795523 1_555
Na52 O64 2.286252 1_555
Na52 O172 2.356035 1_555
Na52 O175 2.391282 1_555
Na52 O108 2.548542 1_555
Na52 O115 2.602848 1_555
Na52 O1 2.839372 1_555
Na53 O67 2.320633 1_555
Na53 O175 2.366399 1_555
Na53 O178 2.370657 1_555
Na53 O109 2.526437 1_655
Na53 O112 2.571569 1_555
O0 Si0 1.634578 1_555
O0 Ta0 1.935676 1_455
O1 Si1 1.647740 1_555
O1 Ta1 1.984134 1_455
O2 Si2 1.654282 1_555
O2 Ta2 1.962411 1_555
O3 Si3 1.653405 1_555
O3 Ta1 1.900581 1_555
O4 Si4 1.659585 1_555
O4 Ta2 2.011850 1_655
O5 Si5 1.620110 1_555
O5 Ta0 1.975658 1_555
O6 Si6 1.637740 1_655
O6 Ta0 1.944625 1_545
O7 Si7 1.642055 1_555
O7 Ta1 1.978136 1_555
O8 Si8 1.656839 1_655
O8 Ta2 1.969477 1_655
O9 Si9 1.633202 1_555
O9 Ta3 1.947623 1_445
O10 Si10 1.640349 1_555
O10 Ta4 1.984226 1_555
O11 Si11 1.669372 1_555
O11 Ta5 1.935669 1_555
O12 Si12 1.655327 1_655
O12 Ta4 1.897750 1_655
O13 Si13 1.671855 1_555
O13 Ta5 1.980612 1_655
O14 Si14 1.617613 1_655
O14 Ta3 1.992324 1_555
O15 Si15 1.627274 1_555
O15 Ta3 1.947035 1_555
O16 Si16 1.649282 1_555
O16 Ta4 1.985404 1_655
O17 Si17 1.663876 1_555
O17 Ta5 1.989704 1_655
O18 Si16 1.653136 1_555
O18 Ta7 1.948904 1_655
O19 Si17 1.597245 1_555
O19 Zn0 2.045900 1_555
O20 Si15 1.676608 1_555
O20 Ta6 1.931742 1_555
O21 Si9 1.679103 1_555
O21 Ta6 1.931937 1_445
O22 Si10 1.644196 1_555
O22 Ta7 1.937919 1_555
O23 Si11 1.599229 1_555
O23 Zn0 2.058332 1_455
O24 Si12 1.656445 1_555
O24 Ta7 1.954173 1_555
O25 Si13 1.604651 1_455
O25 Zn0 2.055921 1_455
O26 Si14 1.658953 1_555
O26 Ta6 1.957830 1_455
O27 Si3 1.658302 1_555
O27 Ta9 1.949461 1_555
O28 Si4 1.610903 1_555
O28 Zn1 2.050191 1_655
O29 Si5 1.652663 1_555
O29 Ta8 1.924683 1_555
O30 Si6 1.666646 1_555
O30 Ta8 1.965601 1_445
O31 Si7 1.648958 1_455
O31 Ta9 1.937321 1_455
O32 Si8 1.607431 1_555
O32 Zn1 2.040444 1_555
O33 Si1 1.654285 1_555
O33 Ta9 1.948161 1_455
O34 Si2 1.602603 1_555
O34 Zn1 2.027423 1_555
O35 Si0 1.664541 1_555
O35 Ta8 1.958570 1_455
O36 Si18 1.608861 1_555
O36 Zn2 2.072422 1_555
O37 Si19 1.651559 1_555
O37 Ta10 1.954374 1_555
O38 Si20 1.672329 1_555
O38 Ta11 1.967972 1_555
O39 Si21 1.604868 1_555
O39 Zn2 2.053384 1_555
O40 Si22 1.651236 1_555
O40 Ta10 1.964439 1_555
O41 Si23 1.673633 1_555
O41 Ta11 1.965514 1_555
O42 Si24 1.604797 1_555
O42 Zn2 2.070844 1_555
O43 Si25 1.681465 1_555
O43 Ta10 1.979797 1_555
O44 Si26 1.653802 1_555
O44 Ta11 1.942358 1_555
O45 Si27 1.603822 1_555
O45 Zn3 2.073484 1_555
O46 Si28 1.673140 1_555
O46 Ta12 1.982150 1_555
O47 Si29 1.645351 1_555
O47 Ta13 1.930661 1_555
O48 Si30 1.606816 1_555
O48 Zn3 2.039631 1_555
O49 Si31 1.647591 1_555
O49 Ta12 1.973402 1_555
O50 Si32 1.660411 1_555
O50 Ta13 1.981327 1_555
O51 Si33 1.611681 1_555
O51 Zn3 2.073718 1_555
O52 Si34 1.646262 1_555
O52 Ta12 1.962329 1_555
O53 Si35 1.656036 1_555
O53 Ta13 1.960945 1_555
O54 Si33 1.642366 1_555
O54 Ta14 1.986246 1_554
O55 Si34 1.606793 1_555
O55 Zn4 2.061988 1_554
O56 Si35 1.650104 1_555
O56 Ta15 1.905193 1_554
O57 Si27 1.640819 1_555
O57 Ta14 2.007647 1_554
O58 Si28 1.601937 1_555
O58 Zn4 1.988280 1_554
O59 Si29 1.637701 1_555
O59 Ta15 1.940579 1_554
O60 Si30 1.652849 1_555
O60 Ta14 1.969307 1_554
O61 Si31 1.602065 1_555
O61 Zn4 2.055926 1_554
O62 Si32 1.649199 1_555
O62 Ta15 1.978888 1_554
O63 Si21 1.644370 1_555
O63 Ta16 1.988579 1_555
O64 Si22 1.600487 1_555
O64 Zn5 2.071787 1_555
O65 Si23 1.636954 1_555
O65 Ta17 1.945951 1_555
O66 Si24 1.642118 1_555
O66 Ta16 2.004794 1_555
O67 Si25 1.600505 1_555
O67 Zn5 1.985407 1_555
O68 Si26 1.618864 1_555
O68 Ta17 2.011399 1_555
O69 Si18 1.639949 1_555
O69 Ta16 2.001286 1_555
O70 Si19 1.606237 1_555
O70 Zn5 2.074164 1_555
O71 Si20 1.632357 1_555
O71 Ta17 1.956400 1_555
O72 Si36 1.654846 1_555
O72 Ta18 1.955582 1_556
O73 Si37 1.671584 1_555
O73 Ta19 1.973404 1_556
O74 Si38 1.638690 1_555
O74 Ta20 1.909118 1_556
O75 Si39 1.658313 1_555
O75 Ta18 1.917255 1_556
O76 Si40 1.663172 1_555
O76 Ta19 1.965642 1_556
O77 Si41 1.640746 1_555
O77 Ta20 1.982576 1_556
O78 Si42 1.653302 1_555
O78 Ta18 1.958869 1_556
O79 Si43 1.659540 1_555
O79 Ta19 1.965340 1_556
O80 Si44 1.648579 1_555
O80 Ta20 1.967437 1_556
O81 Si45 1.658988 1_555
O81 Ta21 1.951081 1_555
O82 Si46 1.662853 1_555
O82 Ta22 1.942771 1_555
O83 Si47 1.665887 1_555
O83 Ta23 1.938411 1_555
O84 Si48 1.660222 1_555
O84 Ta21 1.919757 1_555
O85 Si49 1.665343 1_555
O85 Ta22 1.966110 1_555
O86 Si50 1.664484 1_555
O86 Ta23 1.935800 1_555
O87 Si51 1.656291 1_555
O87 Ta21 1.953559 1_555
O88 Si52 1.673605 1_555
O88 Ta22 1.946032 1_555
O89 Si53 1.659174 1_555
O89 Ta23 1.933437 1_555
O90 Si51 1.645881 1_555
O90 Ta24 1.982033 1_555
O91 Si52 1.649145 1_555
O91 Ta25 1.938862 1_555
O92 Si53 1.643601 1_555
O92 Ta26 1.908802 1_555
O93 Si45 1.650414 1_555
O93 Ta24 1.909505 1_555
O94 Si46 1.640031 1_555
O94 Ta25 1.969560 1_555
O95 Si47 1.648846 1_555
O95 Ta26 1.970392 1_555
O96 Si48 1.647198 1_555
O96 Ta24 1.961241 1_555
O97 Si49 1.649036 1_555
O97 Ta25 1.908792 1_555
O98 Si50 1.642575 1_555
O98 Ta26 1.978362 1_555
O99 Si39 1.650622 1_555
O99 Ta27 1.961785 1_555
O100 Si40 1.653017 1_555
O100 Ta28 1.903655 1_555
O101 Si41 1.641359 1_555
O101 Ta29 1.976418 1_555
O102 Si42 1.650449 1_555
O102 Ta27 1.906513 1_555
O103 Si43 1.641291 1_555
O103 Ta28 1.988660 1_555
O104 Si44 1.659256 1_555
O104 Ta29 1.952548 1_555
O105 Si36 1.648350 1_555
O105 Ta27 1.978957 1_555
O106 Si37 1.650260 1_555
O106 Ta28 1.952460 1_555
O107 Si38 1.642632 1_555
O107 Ta29 1.908299 1_555
O108 Si51 1.648861 1_555
O108 Ta1 2.050387 1_455
O109 Si52 1.645150 1_555
O109 Ta2 2.025950 1_555
O110 Si53 1.622510 1_555
O110 Ta0 2.027031 1_455
O111 Si45 1.646917 1_555
O111 Ta1 2.022475 1_555
O112 Si46 1.637242 1_555
O112 Ta2 2.049165 1_655
O113 Si47 1.626614 1_555
O113 Ta0 2.037765 1_555
O114 Si48 1.624091 1_555
O114 Ta0 2.042559 1_445
O115 Si49 1.653755 1_555
O115 Ta1 2.064367 1_455
O116 Si50 1.634663 1_555
O116 Ta2 1.987014 1_555
O117 Si39 1.629056 1_555
O117 Ta3 2.024075 1_445
O118 Si40 1.651149 1_555
O118 Ta4 2.064962 1_555
O119 Si41 1.653862 1_555
O119 Ta5 2.009779 1_555
O120 Si42 1.648051 1_555
O120 Ta4 2.020908 1_555
O121 Si43 1.637075 1_555
O121 Ta5 2.027703 1_555
O122 Si44 1.632367 1_555
O122 Ta3 2.009517 1_455
O123 Si36 1.653056 1_555
O123 Ta4 2.040182 1_655
O124 Si37 1.657695 1_555
O124 Ta5 2.068686 1_655
O125 Si38 1.619136 1_555
O125 Ta3 2.022818 1_555
O126 Si18 1.666507 1_555
O126 Ta6 2.040099 1_545
O127 Si19 1.670928 1_555
O127 Ta7 2.021766 1_655
O128 Si20 1.595638 1_555
O128 Zn0 2.285648 1_555
O129 Si21 1.668763 1_555
O129 Ta6 2.060317 1_445
O130 Si22 1.655748 1_555
O130 Ta7 2.010458 1_555
O131 Si23 1.596371 1_555
O131 Zn0 2.273866 1_455
O132 Si24 1.663332 1_555
O132 Ta7 2.064900 1_655
O133 Si25 1.612058 1_555
O133 Zn0 2.137747 1_555
O134 Si26 1.649962 1_555
O134 Ta6 2.060340 1_555
O135 Si27 1.666703 1_555
O135 Ta9 2.065083 1_555
O136 Si28 1.611240 1_555
O136 Zn1 2.167304 1_655
O137 Si29 1.637853 1_555
O137 Ta8 2.033830 1_555
O138 Si30 1.657868 1_555
O138 Ta8 2.028348 1_545
O139 Si31 1.656638 1_555
O139 Ta9 2.009299 1_555
O140 Si32 1.598340 1_555
O140 Zn1 2.348010 1_655
O141 Si33 1.652496 1_555
O141 Ta8 2.063815 1_445
O142 Si34 1.668889 1_555
O142 Ta9 2.029072 1_455
O143 Si35 1.600688 1_555
O143 Zn1 2.310307 1_555
O144 Si15 1.604249 1_545
O144 Zn2 2.247726 1_555
O145 Si16 1.628340 1_555
O145 Ta10 2.008639 1_555
O146 Si17 1.658147 1_555
O146 Ta11 2.046674 1_555
O147 Si9 1.600060 1_555
O147 Zn2 2.242504 1_555
O148 Si10 1.634416 1_555
O148 Ta10 2.039405 1_555
O149 Si11 1.657837 1_555
O149 Ta11 2.027794 1_555
O150 Si12 1.600963 1_655
O150 Zn2 2.250857 1_555
O151 Si13 1.642213 1_555
O151 Ta10 2.033157 1_555
O152 Si14 1.647339 1_655
O152 Ta11 2.024189 1_555
O153 Si3 1.600141 1_555
O153 Zn3 2.266779 1_555
O154 Si4 1.649220 1_555
O154 Ta12 2.017168 1_555
O155 Si5 1.643020 1_555
O155 Ta13 2.016444 1_555
O156 Si6 1.602744 1_655
O156 Zn3 2.263179 1_555
O157 Si7 1.636353 1_555
O157 Ta12 2.033575 1_555
O158 Si8 1.657294 1_655
O158 Ta13 2.020343 1_555
O159 Si0 1.607521 1_545
O159 Zn3 2.245519 1_555
O160 Si1 1.626737 1_555
O160 Ta12 2.003731 1_555
O161 Si2 1.655046 1_555
O161 Ta13 2.055497 1_555
O162 Si36 1.619533 1_555
O162 Ta14 2.016757 1_555
O163 Si37 1.595953 1_555
O163 Zn4 2.302505 1_555
O164 Si38 1.638843 1_555
O164 Ta15 1.993208 1_555
O165 Si39 1.632503 1_655
O165 Ta14 2.004084 1_555
O166 Si40 1.595826 1_655
O166 Zn4 2.303873 1_555
O167 Si41 1.648601 1_655
O167 Ta15 2.068036 1_555
O168 Si44 1.638852 1_545
O168 Ta14 1.990802 1_555
O169 Si42 1.603594 1_555
O169 Zn4 2.217359 1_555
O170 Si43 1.630988 1_555
O170 Ta15 2.088885 1_555
O171 Si47 1.639780 1_545
O171 Ta16 1.984628 1_555
O172 Si45 1.601871 1_555
O172 Zn5 2.218644 1_555
O173 Si46 1.627871 1_555
O173 Ta17 2.006117 1_555
O174 Si48 1.635412 1_555
O174 Ta16 1.992102 1_555
O175 Si49 1.595958 1_555
O175 Zn5 2.293711 1_555
O176 Si50 1.634788 1_555
O176 Ta17 2.006595 1_555
O177 Si51 1.622795 1_655
O177 Ta16 2.000609 1_555
O178 Si52 1.605908 1_655
O178 Zn5 2.283813 1_555
O179 Si53 1.629395 1_655
O179 Ta17 2.016640 1_555
O180 Si33 1.668838 1_555
O180 Ta18 2.012237 1_555
O181 Si34 1.659654 1_555
O181 Ta19 2.043477 1_555
O182 Si35 1.650524 1_555
O182 Ta20 2.020729 1_555
O183 Si27 1.660614 1_455
O183 Ta18 2.010187 1_555
O184 Si28 1.699587 1_455
O184 Ta19 2.013807 1_555
O185 Si29 1.642531 1_455
O185 Ta20 2.107551 1_555
O186 Si31 1.651388 1_555
O186 Ta18 2.084152 1_555
O187 Si32 1.670908 1_555
O187 Ta19 2.028893 1_555
O188 Si30 1.649509 1_565
O188 Ta20 1.986656 1_555
O189 Si22 1.653811 1_555
O189 Ta21 2.084182 1_555
O190 Si23 1.664883 1_555
O190 Ta22 2.037682 1_555
O191 Si21 1.657873 1_565
O191 Ta23 2.035357 1_555
O192 Si24 1.660805 1_555
O192 Ta21 2.012072 1_555
O193 Si25 1.694272 1_555
O193 Ta22 2.043379 1_555
O194 Si26 1.641481 1_555
O194 Ta23 2.093509 1_555
O195 Si18 1.663660 1_455
O195 Ta21 2.025454 1_555
O196 Si19 1.654577 1_455
O196 Ta22 2.064019 1_555
O197 Si20 1.667371 1_455
O197 Ta23 2.067271 1_555
O198 Si1 1.647508 1_555
O198 Ta24 2.060986 1_555
O199 Si2 1.658025 1_555
O199 Ta25 2.047036 1_555
O200 Si0 1.658836 1_555
O200 Ta26 2.010994 1_555
O201 Si3 1.649421 1_555
O201 Ta24 2.024919 1_555
O202 Si4 1.654277 1_555
O202 Ta25 1.990636 1_555
O203 Si5 1.650199 1_555
O203 Ta26 2.108908 1_555
O204 Si6 1.664363 1_555
O204 Ta24 2.052047 1_555
O205 Si7 1.649430 1_455
O205 Ta25 2.073433 1_555
O206 Si8 1.648642 1_555
O206 Ta26 1.999780 1_555
O207 Si9 1.657406 1_555
O207 Ta27 2.066899 1_555
O208 Si10 1.656722 1_555
O208 Ta28 2.055961 1_555
O209 Si11 1.641697 1_555
O209 Ta29 2.018267 1_555
O210 Si12 1.648931 1_555
O210 Ta27 2.028010 1_555
O211 Si13 1.653608 1_455
O211 Ta28 1.977840 1_555
O212 Si14 1.649617 1_555
O212 Ta29 2.117329 1_555
O213 Si16 1.647258 1_555
O213 Ta27 2.062097 1_555
O214 Si17 1.659187 1_555
O214 Ta28 2.056087 1_555
O215 Si15 1.654965 1_555
O215 Ta29 2.016579 1_555
