# generated using pymatgen
data_Mg2PHO5
_symmetry_space_group_name_H-M   'P 1'
_cell_length_a   13.01261700
_cell_length_b   9.79262400
_cell_length_c   12.21006801
_cell_angle_alpha   71.54533163
_cell_angle_beta   90.00000000
_cell_angle_gamma   90.00000000
_symmetry_Int_Tables_number   1
_chemical_formula_structural   Mg2PHO5
_chemical_formula_sum   'Mg32 P16 H16 O80'
_cell_volume   1475.88735582
_cell_formula_units_Z   16
loop_
 _symmetry_equiv_pos_site_id
 _symmetry_equiv_pos_as_xyz
  1  'x, y, z'
loop_
 _atom_site_type_symbol
 _atom_site_label
 _atom_site_symmetry_multiplicity
 _atom_site_fract_x
 _atom_site_fract_y
 _atom_site_fract_z
 _atom_site_occupancy
  Mg  Mg0  1  0.07264100  0.44927900  0.91564800  1
  Mg  Mg1  1  0.57264100  0.55072100  0.58435200  1
  Mg  Mg2  1  0.92735900  0.55072100  0.08435200  1
  Mg  Mg3  1  0.42735900  0.44927900  0.41564800  1
  Mg  Mg4  1  0.06935900  0.52943700  0.60122000  1
  Mg  Mg5  1  0.56935900  0.47056300  0.89878000  1
  Mg  Mg6  1  0.93064100  0.47056300  0.39878000  1
  Mg  Mg7  1  0.43064100  0.52943700  0.10122000  1
  Mg  Mg8  1  0.17985000  0.95717500  0.92208500  1
  Mg  Mg9  1  0.67985000  0.04282500  0.57791500  1
  Mg  Mg10  1  0.82015000  0.04282500  0.07791500  1
  Mg  Mg11  1  0.32015000  0.95717500  0.42208500  1
  Mg  Mg12  1  0.17697900  0.02988000  0.60914400  1
  Mg  Mg13  1  0.67697900  0.97012000  0.89085600  1
  Mg  Mg14  1  0.82302100  0.97012000  0.39085600  1
  Mg  Mg15  1  0.32302100  0.02988000  0.10914400  1
  Mg  Mg16  1  0.02113300  0.80906700  0.18805200  1
  Mg  Mg17  1  0.52113300  0.19093300  0.31194800  1
  Mg  Mg18  1  0.97886700  0.19093300  0.81194800  1
  Mg  Mg19  1  0.47886700  0.80906700  0.68805200  1
  Mg  Mg20  1  0.00126000  0.21363300  0.30341800  1
  Mg  Mg21  1  0.50126000  0.78636700  0.19658200  1
  Mg  Mg22  1  0.99874000  0.78636700  0.69658200  1
  Mg  Mg23  1  0.49874000  0.21363300  0.80341800  1
  Mg  Mg24  1  0.23081300  0.69498600  0.31777800  1
  Mg  Mg25  1  0.73081300  0.30501400  0.18222200  1
  Mg  Mg26  1  0.76918700  0.30501400  0.68222200  1
  Mg  Mg27  1  0.26918700  0.69498600  0.81777800  1
  Mg  Mg28  1  0.25071700  0.29154300  0.19482000  1
  Mg  Mg29  1  0.75071700  0.70845700  0.30518000  1
  Mg  Mg30  1  0.74928300  0.70845700  0.80518000  1
  Mg  Mg31  1  0.24928300  0.29154300  0.69482000  1
  P  P0  1  0.07733100  0.88547500  0.42519000  1
  P  P1  1  0.57733100  0.11452500  0.07481000  1
  P  P2  1  0.92266900  0.11452500  0.57481000  1
  P  P3  1  0.42266900  0.88547500  0.92519000  1
  P  P4  1  0.07047400  0.12110100  0.07476800  1
  P  P5  1  0.57047400  0.87889900  0.42523200  1
  P  P6  1  0.92952600  0.87889900  0.92523200  1
  P  P7  1  0.42952600  0.12110100  0.57476800  1
  P  P8  1  0.17455300  0.61846500  0.07461800  1
  P  P9  1  0.67455300  0.38153500  0.42538200  1
  P  P10  1  0.82544700  0.38153500  0.92538200  1
  P  P11  1  0.32544700  0.61846500  0.57461800  1
  P  P12  1  0.17873900  0.37956800  0.42237100  1
  P  P13  1  0.67873900  0.62043200  0.07762900  1
  P  P14  1  0.82126100  0.62043200  0.57762900  1
  P  P15  1  0.32126100  0.37956800  0.92237100  1
  H  H0  1  0.95986100  0.53988500  0.75934300  1
  H  H1  1  0.45986100  0.46011500  0.74065700  1
  H  H2  1  0.04013900  0.46011500  0.24065700  1
  H  H3  1  0.54013900  0.53988500  0.25934300  1
  H  H4  1  0.07811600  0.27266900  0.63570600  1
  H  H5  1  0.57811600  0.72733100  0.86429400  1
  H  H6  1  0.92188400  0.72733100  0.36429400  1
  H  H7  1  0.42188400  0.27266900  0.13570600  1
  H  H8  1  0.17031200  0.77093400  0.64448000  1
  H  H9  1  0.67031200  0.22906600  0.85552000  1
  H  H10  1  0.82968800  0.22906600  0.35552000  1
  H  H11  1  0.32968800  0.77093400  0.14448000  1
  H  H12  1  0.29011900  0.04027000  0.76382600  1
  H  H13  1  0.79011900  0.95973000  0.73617400  1
  H  H14  1  0.70988100  0.95973000  0.23617400  1
  H  H15  1  0.20988100  0.04027000  0.26382600  1
  O  O0  1  0.11402500  0.83039200  0.32439700  1
  O  O1  1  0.61402500  0.16960800  0.17560300  1
  O  O2  1  0.88597500  0.16960800  0.67560300  1
  O  O3  1  0.38597500  0.83039200  0.82439700  1
  O  O4  1  0.04714400  0.75634300  0.53161000  1
  O  O5  1  0.54714400  0.24365700  0.96839000  1
  O  O6  1  0.95285600  0.24365700  0.46839000  1
  O  O7  1  0.45285600  0.75634300  0.03161000  1
  O  O8  1  0.01553300  0.01360200  0.62071200  1
  O  O9  1  0.51553300  0.98639800  0.87928800  1
  O  O10  1  0.98446700  0.98639800  0.37928800  1
  O  O11  1  0.48446700  0.01360200  0.12071200  1
  O  O12  1  0.16490900  0.97254400  0.45848100  1
  O  O13  1  0.66490900  0.02745600  0.04151900  1
  O  O14  1  0.83509100  0.02745600  0.54151900  1
  O  O15  1  0.33509100  0.97254400  0.95848100  1
  O  O16  1  0.09328400  0.20080900  0.16302400  1
  O  O17  1  0.59328400  0.79919100  0.33697600  1
  O  O18  1  0.90671600  0.79919100  0.83697600  1
  O  O19  1  0.40671600  0.20080900  0.66302400  1
  O  O20  1  0.05239500  0.23253200  0.95286900  1
  O  O21  1  0.55239500  0.76746800  0.54713100  1
  O  O22  1  0.94760500  0.76746800  0.04713100  1
  O  O23  1  0.44760500  0.23253200  0.45286900  1
  O  O24  1  0.02560500  0.97739600  0.88514900  1
  O  O25  1  0.52560500  0.02260400  0.61485100  1
  O  O26  1  0.97439500  0.02260400  0.11485100  1
  O  O27  1  0.47439500  0.97739600  0.38514900  1
  O  O28  1  0.16009500  0.01793900  0.06745400  1
  O  O29  1  0.66009500  0.98206100  0.43254600  1
  O  O30  1  0.83990500  0.98206100  0.93254600  1
  O  O31  1  0.33990500  0.01793900  0.56745400  1
  O  O32  1  0.14181600  0.68116200  0.17199800  1
  O  O33  1  0.64181600  0.31883800  0.32800200  1
  O  O34  1  0.85818400  0.31883800  0.82800200  1
  O  O35  1  0.35818400  0.68116200  0.67199800  1
  O  O36  1  0.20281400  0.74151500  0.96220700  1
  O  O37  1  0.70281400  0.25848500  0.53779300  1
  O  O38  1  0.79718600  0.25848500  0.03779300  1
  O  O39  1  0.29718600  0.74151500  0.46220700  1
  O  O40  1  0.23205500  0.51788100  0.61724800  1
  O  O41  1  0.73205500  0.48211900  0.88275200  1
  O  O42  1  0.76794500  0.48211900  0.38275200  1
  O  O43  1  0.26794500  0.51788100  0.11724800  1
  O  O44  1  0.08391300  0.53249500  0.04685500  1
  O  O45  1  0.58391300  0.46750500  0.45314500  1
  O  O46  1  0.91608700  0.46750500  0.95314500  1
  O  O47  1  0.41608700  0.53249500  0.54685500  1
  O  O48  1  0.15324900  0.31140700  0.32677900  1
  O  O49  1  0.65324900  0.68859300  0.17322100  1
  O  O50  1  0.84675100  0.68859300  0.67322100  1
  O  O51  1  0.34675100  0.31140700  0.82677900  1
  O  O52  1  0.20248700  0.25810200  0.53641200  1
  O  O53  1  0.70248700  0.74189800  0.96358800  1
  O  O54  1  0.79751300  0.74189800  0.46358800  1
  O  O55  1  0.29751300  0.25810200  0.03641200  1
  O  O56  1  0.22625600  0.48104600  0.88227400  1
  O  O57  1  0.72625600  0.51895400  0.61772600  1
  O  O58  1  0.77374400  0.51895400  0.11772600  1
  O  O59  1  0.27374400  0.48104600  0.38227400  1
  O  O60  1  0.09001600  0.47841600  0.44040600  1
  O  O61  1  0.59001600  0.52158400  0.05959400  1
  O  O62  1  0.90998400  0.52158400  0.55959400  1
  O  O63  1  0.40998400  0.47841600  0.94040600  1
  O  O64  1  0.03249200  0.56702200  0.75483900  1
  O  O65  1  0.53249200  0.43297800  0.74516100  1
  O  O66  1  0.96750800  0.43297800  0.24516100  1
  O  O67  1  0.46750800  0.56702200  0.25483900  1
  O  O68  1  0.08250200  0.31167900  0.70009300  1
  O  O69  1  0.58250200  0.68832100  0.79990700  1
  O  O70  1  0.91749800  0.68832100  0.29990700  1
  O  O71  1  0.41749800  0.31167900  0.20009300  1
  O  O72  1  0.16253900  0.81068400  0.70807200  1
  O  O73  1  0.66253900  0.18931600  0.79192800  1
  O  O74  1  0.83746100  0.18931600  0.29192800  1
  O  O75  1  0.33746100  0.81068400  0.20807200  1
  O  O76  1  0.21860400  0.07251700  0.75931700  1
  O  O77  1  0.71860400  0.92748300  0.74068300  1
  O  O78  1  0.78139600  0.92748300  0.24068300  1
  O  O79  1  0.28139600  0.07251700  0.25931700  1
loop_
_geom_bond_atom_site_label_1
_geom_bond_atom_site_label_2
_geom_bond_distance
_geom_bond_site_symmetry_2
Mg0 O64 2.006081 1_555
Mg0 O44 2.019571 1_556
Mg0 O20 2.042141 1_555
Mg0 O56 2.044090 1_555
Mg0 O46 2.107914 1_455
Mg1 O65 2.006081 1_555
Mg1 O45 2.019571 1_555
Mg1 O21 2.042141 1_555
Mg1 O57 2.044090 1_555
Mg1 O47 2.107914 1_555
Mg2 O66 2.006081 1_555
Mg2 O46 2.019571 1_554
Mg2 O22 2.042141 1_555
Mg2 O58 2.044090 1_555
Mg2 O44 2.107914 1_655
Mg3 O67 2.006081 1_555
Mg3 O47 2.019571 1_555
Mg3 O23 2.042141 1_555
Mg3 O59 2.044090 1_555
Mg3 O45 2.107914 1_555
Mg4 O64 2.078685 1_555
Mg4 O68 2.098587 1_555
Mg4 O40 2.125841 1_555
Mg4 O4 2.132510 1_555
Mg4 O62 2.142425 1_455
Mg4 O60 2.190553 1_555
Mg5 O65 2.078685 1_555
Mg5 O69 2.098587 1_555
Mg5 O41 2.125841 1_555
Mg5 O5 2.132510 1_555
Mg5 O63 2.142425 1_555
Mg5 O61 2.190553 1_556
Mg6 O66 2.078685 1_555
Mg6 O70 2.098587 1_555
Mg6 O42 2.125841 1_555
Mg6 O6 2.132510 1_555
Mg6 O60 2.142425 1_655
Mg6 O62 2.190553 1_555
Mg7 O67 2.078685 1_555
Mg7 O71 2.098587 1_555
Mg7 O43 2.125841 1_555
Mg7 O7 2.132510 1_555
Mg7 O61 2.142425 1_555
Mg7 O63 2.190553 1_554
Mg8 O76 2.014618 1_565
Mg8 O36 2.033299 1_555
Mg8 O24 2.052959 1_555
Mg8 O28 2.058963 1_566
Mg8 O15 2.084048 1_555
Mg9 O77 2.014618 1_545
Mg9 O37 2.033299 1_555
Mg9 O25 2.052959 1_555
Mg9 O29 2.058963 1_545
Mg9 O14 2.084048 1_555
Mg10 O78 2.014618 1_545
Mg10 O38 2.033299 1_555
Mg10 O26 2.052959 1_555
Mg10 O30 2.058963 1_544
Mg10 O13 2.084048 1_555
Mg11 O79 2.014618 1_565
Mg11 O39 2.033299 1_555
Mg11 O27 2.052959 1_555
Mg11 O31 2.058963 1_565
Mg11 O12 2.084048 1_555
Mg12 O76 2.077158 1_555
Mg12 O12 2.092365 1_545
Mg12 O8 2.108225 1_555
Mg12 O72 2.111949 1_545
Mg12 O52 2.153376 1_555
Mg12 O31 2.192094 1_555
Mg13 O77 2.077158 1_555
Mg13 O13 2.092365 1_566
Mg13 O9 2.108225 1_555
Mg13 O73 2.111949 1_565
Mg13 O53 2.153376 1_555
Mg13 O30 2.192094 1_555
Mg14 O78 2.077158 1_555
Mg14 O14 2.092365 1_565
Mg14 O10 2.108225 1_555
Mg14 O74 2.111949 1_565
Mg14 O54 2.153376 1_555
Mg14 O29 2.192094 1_555
Mg15 O79 2.077158 1_555
Mg15 O15 2.092365 1_544
Mg15 O11 2.108225 1_555
Mg15 O75 2.111949 1_545
Mg15 O55 2.153376 1_555
Mg15 O28 2.192094 1_555
Mg16 O70 2.014851 1_455
Mg16 O32 2.056416 1_555
Mg16 O26 2.087611 1_465
Mg16 O22 2.117974 1_455
Mg16 O0 2.120455 1_555
Mg17 O71 2.014851 1_555
Mg17 O33 2.056416 1_555
Mg17 O27 2.087611 1_545
Mg17 O23 2.117974 1_555
Mg17 O1 2.120455 1_555
Mg18 O68 2.014851 1_655
Mg18 O34 2.056416 1_555
Mg18 O24 2.087611 1_645
Mg18 O20 2.117974 1_655
Mg18 O2 2.120455 1_555
Mg19 O69 2.014851 1_555
Mg19 O35 2.056416 1_555
Mg19 O25 2.087611 1_565
Mg19 O21 2.117974 1_555
Mg19 O3 2.120455 1_555
Mg20 O66 2.084538 1_455
Mg20 O16 2.127100 1_555
Mg20 O10 2.133652 1_445
Mg20 O74 2.154213 1_455
Mg20 O6 2.217116 1_455
Mg20 O48 2.254462 1_555
Mg21 O67 2.084538 1_555
Mg21 O17 2.127100 1_555
Mg21 O11 2.133652 1_565
Mg21 O75 2.154213 1_555
Mg21 O7 2.217116 1_555
Mg21 O49 2.254462 1_555
Mg22 O64 2.084538 1_655
Mg22 O18 2.127100 1_555
Mg22 O8 2.133652 1_665
Mg22 O72 2.154213 1_655
Mg22 O4 2.217116 1_655
Mg22 O50 2.254462 1_555
Mg23 O65 2.084538 1_555
Mg23 O19 2.127100 1_555
Mg23 O9 2.133652 1_545
Mg23 O73 2.154213 1_555
Mg23 O5 2.217116 1_555
Mg23 O51 2.254462 1_555
Mg24 O75 2.010729 1_555
Mg24 O0 2.035225 1_555
Mg24 O59 2.068062 1_555
Mg24 O39 2.138262 1_555
Mg24 O32 2.163419 1_555
Mg25 O74 2.010729 1_555
Mg25 O1 2.035225 1_555
Mg25 O58 2.068062 1_555
Mg25 O38 2.138262 1_555
Mg25 O33 2.163419 1_555
Mg26 O73 2.010729 1_555
Mg26 O2 2.035225 1_555
Mg26 O57 2.068062 1_555
Mg26 O37 2.138262 1_555
Mg26 O34 2.163419 1_555
Mg27 O72 2.010729 1_555
Mg27 O3 2.035225 1_555
Mg27 O56 2.068062 1_555
Mg27 O36 2.138262 1_555
Mg27 O35 2.163419 1_555
Mg28 O79 2.076176 1_555
Mg28 O48 2.107354 1_555
Mg28 O43 2.128588 1_555
Mg28 O55 2.149436 1_555
Mg28 O71 2.181990 1_555
Mg28 O16 2.314177 1_555
Mg29 O78 2.076176 1_555
Mg29 O49 2.107354 1_555
Mg29 O42 2.128588 1_555
Mg29 O54 2.149436 1_555
Mg29 O70 2.181990 1_555
Mg29 O17 2.314177 1_555
Mg30 O77 2.076176 1_555
Mg30 O50 2.107354 1_555
Mg30 O41 2.128588 1_555
Mg30 O53 2.149436 1_555
Mg30 O69 2.181990 1_555
Mg30 O18 2.314177 1_555
Mg31 O76 2.076176 1_555
Mg31 O51 2.107354 1_555
Mg31 O40 2.128588 1_555
Mg31 O52 2.149436 1_555
Mg31 O68 2.181990 1_555
Mg31 O19 2.314177 1_555
H0 O64 0.978592 1_655
H1 O65 0.978592 1_555
H2 O66 0.978592 1_455
H3 O67 0.978592 1_555
H4 O68 0.978463 1_555
H5 O69 0.978463 1_555
H6 O70 0.978463 1_555
H7 O71 0.978463 1_555
H8 O72 0.977752 1_555
H9 O73 0.977752 1_555
H10 O74 0.977752 1_555
H11 O75 0.977752 1_555
H12 O76 0.978649 1_555
H13 O77 0.978649 1_555
H14 O78 0.978649 1_555
H15 O79 0.978649 1_555
O0 P0 1.566471 1_555
O1 P1 1.566471 1_555
O2 P2 1.566471 1_555
O3 P3 1.566471 1_555
O4 P0 1.549680 1_555
O5 P1 1.549680 1_556
O6 P2 1.549680 1_555
O7 P3 1.549680 1_554
O8 P2 1.549328 1_455
O9 P3 1.549328 1_555
O10 P0 1.549328 1_655
O11 P1 1.549328 1_555
O12 P0 1.552537 1_555
O13 P1 1.552537 1_555
O14 P2 1.552537 1_555
O15 P3 1.552537 1_555
O16 P4 1.546329 1_555
O17 P5 1.546329 1_555
O18 P6 1.546329 1_555
O19 P7 1.546329 1_555
O20 P4 1.559849 1_556
O21 P5 1.559849 1_555
O22 P6 1.559849 1_554
O23 P7 1.559849 1_555
O24 P6 1.560162 1_455
O25 P7 1.560162 1_555
O26 P4 1.560162 1_655
O27 P5 1.560162 1_555
O28 P4 1.563868 1_555
O29 P5 1.563868 1_555
O30 P6 1.563868 1_555
O31 P7 1.563868 1_555
O32 P8 1.560246 1_555
O33 P9 1.560246 1_555
O34 P10 1.560246 1_555
O35 P11 1.560246 1_555
O36 P8 1.556923 1_556
O37 P9 1.556923 1_555
O38 P10 1.556923 1_554
O39 P11 1.556923 1_555
O40 P11 1.547069 1_555
O41 P10 1.547069 1_555
O42 P9 1.547069 1_555
O43 P8 1.547069 1_555
O44 P8 1.547732 1_555
O45 P9 1.547732 1_555
O46 P10 1.547732 1_555
O47 P11 1.547732 1_555
O48 P12 1.552771 1_555
O49 P13 1.552771 1_555
O50 P14 1.552771 1_555
O51 P15 1.552771 1_555
O52 P12 1.549402 1_555
O53 P13 1.549402 1_556
O54 P14 1.549402 1_555
O55 P15 1.549402 1_554
O56 P15 1.564460 1_555
O57 P14 1.564460 1_555
O58 P13 1.564460 1_555
O59 P12 1.564460 1_555
O60 P12 1.566316 1_555
O61 P13 1.566316 1_555
O62 P14 1.566316 1_555
O63 P15 1.566316 1_555
