# generated using pymatgen
data_Na10Ca4Ta4Si7S5O48
_symmetry_space_group_name_H-M   'P 1'
_cell_length_a   18.47516240
_cell_length_b   9.33079393
_cell_length_c   22.57435697
_cell_angle_alpha   89.83055885
_cell_angle_beta   90.47740485
_cell_angle_gamma   120.30311463
_symmetry_Int_Tables_number   1
_chemical_formula_structural   Na10Ca4Ta4Si7S5O48
_chemical_formula_sum   'Na30 Ca12 Ta12 Si21 S15 O144'
_cell_volume   3359.71726952
_cell_formula_units_Z   3
loop_
 _symmetry_equiv_pos_site_id
 _symmetry_equiv_pos_as_xyz
  1  'x, y, z'
loop_
 _atom_site_type_symbol
 _atom_site_label
 _atom_site_symmetry_multiplicity
 _atom_site_fract_x
 _atom_site_fract_y
 _atom_site_fract_z
 _atom_site_occupancy
  Na  Na0  1  0.32452199  0.03206880  0.25202440  1
  Na  Na1  1  0.82125238  0.02711574  0.23941667  1
  Na  Na2  1  0.16770844  0.31379837  0.25769917  1
  Na  Na3  1  0.66929146  0.31937970  0.25766994  1
  Na  Na4  1  0.82914000  0.62476444  0.74939023  1
  Na  Na5  1  0.49996716  0.35802063  0.73669057  1
  Na  Na6  1  0.17276729  0.01953645  0.75722065  1
  Na  Na7  1  0.66519680  0.02445713  0.75865988  1
  Na  Na8  1  0.66573298  0.96647800  0.06887777  1
  Na  Na9  1  0.83440344  0.69517574  0.06929652  1
  Na  Na10  1  0.00435271  0.35346247  0.08664237  1
  Na  Na11  1  0.50042475  0.70600249  0.90876942  1
  Na  Na12  1  0.00077229  0.70125817  0.90955134  1
  Na  Na13  1  0.16384416  0.30925185  0.90348417  1
  Na  Na14  1  0.50523474  0.30089730  0.41148015  1
  Na  Na15  1  0.00452197  0.29919731  0.41196345  1
  Na  Na16  1  0.16457237  0.02086757  0.40428109  1
  Na  Na17  1  0.66326556  0.01879837  0.40291964  1
  Na  Na18  1  0.98545292  0.00736392  0.49777677  1
  Na  Na19  1  0.48673650  0.00929152  0.49814578  1
  Na  Na20  1  0.00014323  0.97427880  0.99133212  1
  Na  Na21  1  0.49210762  0.98635271  0.99158993  1
  Na  Na22  1  0.33848229  0.39056348  0.81933596  1
  Na  Na23  1  0.83434191  0.35388355  0.82867233  1
  Na  Na24  1  0.34742894  0.34434588  0.32317465  1
  Na  Na25  1  0.84733218  0.34226257  0.32287532  1
  Na  Na26  1  0.14457124  0.69046463  0.16758766  1
  Na  Na27  1  0.64060156  0.66507476  0.16280047  1
  Na  Na28  1  0.13571018  0.59637241  0.66762966  1
  Na  Na29  1  0.64926947  0.63553129  0.66213677  1
  Ca  Ca0  1  0.99749270  0.99593155  0.35292022  1
  Ca  Ca1  1  0.49543329  0.99478802  0.35384460  1
  Ca  Ca2  1  0.99672348  0.99962632  0.85141897  1
  Ca  Ca3  1  0.49896758  0.99690706  0.85319154  1
  Ca  Ca4  1  0.33701400  0.34827371  0.68231857  1
  Ca  Ca5  1  0.84001976  0.33877626  0.68338978  1
  Ca  Ca6  1  0.33908942  0.34030635  0.18257206  1
  Ca  Ca7  1  0.83526691  0.33298931  0.18483016  1
  Ca  Ca8  1  0.17225878  0.68711506  0.02059145  1
  Ca  Ca9  1  0.66536697  0.66401415  0.01766610  1
  Ca  Ca10  1  0.16631480  0.65421650  0.52318256  1
  Ca  Ca11  1  0.66584954  0.65146589  0.52270058  1
  Ta  Ta0  1  0.00943723  0.01711554  0.64837242  1
  Ta  Ta1  1  0.50657745  0.01106753  0.64728756  1
  Ta  Ta2  1  0.00764387  0.00571386  0.14567173  1
  Ta  Ta3  1  0.50540577  0.99736840  0.14966395  1
  Ta  Ta4  1  0.33588254  0.34592542  0.97719302  1
  Ta  Ta5  1  0.83864550  0.33721781  0.97887493  1
  Ta  Ta6  1  0.33446146  0.32647252  0.48077562  1
  Ta  Ta7  1  0.83411870  0.32324892  0.48038231  1
  Ta  Ta8  1  0.17086011  0.66661593  0.31366936  1
  Ta  Ta9  1  0.67116899  0.66655241  0.31305871  1
  Ta  Ta10  1  0.17454603  0.67930043  0.81156340  1
  Ta  Ta11  1  0.67204498  0.67674776  0.81598312  1
  Si  Si0  1  0.14678174  0.98594520  0.25479179  1
  Si  Si1  1  0.64647296  0.98377331  0.25645816  1
  Si  Si2  1  0.00896670  0.30709194  0.25278112  1
  Si  Si3  1  0.50651310  0.30434205  0.25342597  1
  Si  Si4  1  0.14855743  0.31198745  0.75569055  1
  Si  Si5  1  0.64830466  0.30982705  0.75260302  1
  Si  Si6  1  0.00709945  0.70933203  0.75301318  1
  Si  Si7  1  0.50694757  0.70816978  0.75361075  1
  Si  Si8  1  0.47855471  0.31316436  0.58993283  1
  Si  Si9  1  0.98014861  0.31233508  0.58709252  1
  Si  Si10  1  0.47949610  0.64502676  0.08564188  1
  Si  Si11  1  0.98139024  0.64070814  0.08442758  1
  Si  Si12  1  0.83871617  0.03815129  0.08736834  1
  Si  Si13  1  0.31098191  0.65872481  0.92178337  1
  Si  Si14  1  0.81386592  0.65099443  0.92252052  1
  Si  Si15  1  0.17081563  0.96702795  0.91754871  1
  Si  Si16  1  0.67511434  0.97776072  0.92101447  1
  Si  Si17  1  0.31136510  0.96601409  0.42142650  1
  Si  Si18  1  0.81081483  0.96380995  0.42140518  1
  Si  Si19  1  0.17240178  0.37585901  0.41817608  1
  Si  Si20  1  0.67269778  0.37591800  0.41797655  1
  S  S0  1  0.34588642  0.71185974  0.24703347  1
  S  S1  1  0.84662730  0.71299867  0.24619102  1
  S  S2  1  0.34798552  0.98027887  0.74644039  1
  S  S3  1  0.84584748  0.98041571  0.74731975  1
  S  S4  1  0.18101161  0.04889700  0.58337733  1
  S  S5  1  0.67934825  0.04632596  0.58403875  1
  S  S6  1  0.34973172  0.64480114  0.58169205  1
  S  S7  1  0.84842019  0.64163935  0.58487900  1
  S  S8  1  0.34844137  0.05543999  0.08574363  1
  S  S9  1  0.18075663  0.31375838  0.08259584  1
  S  S10  1  0.67965756  0.31101186  0.08463014  1
  S  S11  1  0.01825027  0.38878962  0.91754618  1
  S  S12  1  0.51284166  0.38142215  0.91341280  1
  S  S13  1  0.01622932  0.64247037  0.41557773  1
  S  S14  1  0.51655813  0.64271934  0.41589764  1
  O  O0  1  0.10669835  -0.00001711  0.31437951  1
  O  O1  1  0.59958906  0.98590006  0.31396290  1
  O  O2  1  0.39276214  0.77027397  0.30186327  1
  O  O3  1  0.89507512  0.77537989  0.30023698  1
  O  O4  1  0.50121962  0.21184276  0.31418372  1
  O  O5  1  0.00644080  0.21433639  0.31267833  1
  O  O6  1  0.10456409  0.21903084  0.81467099  1
  O  O7  1  0.60068951  0.18807068  0.80464325  1
  O  O8  1  0.49862875  0.78133220  0.81474923  1
  O  O9  1  0.00227210  0.79454425  0.81279995  1
  O  O10  1  0.39599907  0.01526236  0.80022718  1
  O  O11  1  0.89389237  0.02194201  0.80190449  1
  O  O12  1  0.39530756  0.96645770  0.69442319  1
  O  O13  1  0.89399391  0.96604752  0.69620359  1
  O  O14  1  0.08143219  0.19433410  0.69705342  1
  O  O15  1  0.58274239  0.19865963  0.69139617  1
  O  O16  1  0.01595716  0.84702922  0.69630822  1
  O  O17  1  0.51492106  0.84640599  0.69797729  1
  O  O18  1  0.39599201  0.82071248  0.19542980  1
  O  O19  1  0.89367525  0.81788193  0.19316299  1
  O  O20  1  0.01919708  0.19402906  0.19465853  1
  O  O21  1  0.51422306  0.18218097  0.19763633  1
  O  O22  1  0.08199311  0.97520718  0.19707494  1
  O  O23  1  0.58305496  0.97257332  0.19629466  1
  O  O24  1  0.43353630  0.30378882  0.65029044  1
  O  O25  1  0.93081654  0.29995501  0.64486192  1
  O  O26  1  0.22561615  0.12117280  0.63850161  1
  O  O27  1  0.72009073  0.12018283  0.64013940  1
  O  O28  1  0.33961395  0.56152521  0.63802552  1
  O  O29  1  0.83911071  0.56330731  0.64298348  1
  O  O30  1  0.43403905  0.55667161  0.14435067  1
  O  O31  1  0.92708485  0.54122839  0.13931170  1
  O  O32  1  0.33885953  0.11606430  0.14347688  1
  O  O33  1  0.81956700  0.10631369  0.14629538  1
  O  O34  1  0.22335155  0.33248089  0.13854706  1
  O  O35  1  0.71953434  0.33151830  0.14243585  1
  O  O36  1  0.23110711  0.30592636  0.03113386  1
  O  O37  1  0.73038216  0.29305641  0.03590179  1
  O  O38  1  0.41725242  0.52709065  0.02545903  1
  O  O39  1  0.92066689  0.53708532  0.02315523  1
  O  O40  1  0.35331909  0.16982535  0.03669487  1
  O  O41  1  0.85242132  0.18385350  0.03304062  1
  O  O42  1  0.22883051  0.16293333  0.53078754  1
  O  O43  1  0.72963685  0.16013700  0.53204504  1
  O  O44  1  0.35411709  0.54091361  0.53156015  1
  O  O45  1  0.85220117  0.53248087  0.53674337  1
  O  O46  1  0.41299880  0.30833538  0.53192880  1
  O  O47  1  0.91709353  0.30684484  0.52655925  1
  O  O48  1  0.25825280  0.62727546  0.97938084  1
  O  O49  1  0.76888149  0.64333433  0.98237094  1
  O  O50  1  0.05878981  0.44643898  0.97499338  1
  O  O51  1  0.55766221  0.44395841  0.96862351  1
  O  O52  1  0.13359151  0.82035437  0.96435575  1
  O  O53  1  0.66097232  0.86773869  0.97801809  1
  O  O54  1  0.25521612  0.87807615  0.47635354  1
  O  O55  1  0.75700485  0.87616854  0.47730830  1
  O  O56  1  0.13617598  0.45403951  0.46267019  1
  O  O57  1  0.63552058  0.45125630  0.46301889  1
  O  O58  1  0.06029835  0.67153505  0.47123608  1
  O  O59  1  0.56203345  0.67423235  0.47116728  1
  O  O60  1  0.06621170  0.62364923  0.36451404  1
  O  O61  1  0.56540484  0.62293520  0.36443567  1
  O  O62  1  0.25279834  0.86502547  0.35871995  1
  O  O63  1  0.75070193  0.86018297  0.35988103  1
  O  O64  1  0.18788993  0.50279429  0.35422458  1
  O  O65  1  0.68761490  0.50165198  0.35422460  1
  O  O66  1  0.06759390  0.50711804  0.86793529  1
  O  O67  1  0.56129761  0.49615015  0.86173450  1
  O  O68  1  0.18686364  0.87431618  0.85488354  1
  O  O69  1  0.68237902  0.86003749  0.86146673  1
  O  O70  1  0.25007563  0.64400762  0.86204224  1
  O  O71  1  0.74979052  0.64324391  0.86333828  1
  O  O72  1  0.99646640  0.77111771  0.40263958  1
  O  O73  1  0.49499967  0.76887639  0.40339783  1
  O  O74  1  0.40696887  0.01132428  0.41959816  1
  O  O75  1  0.90664391  0.01136948  0.41801281  1
  O  O76  1  0.10482440  0.18036820  0.41199309  1
  O  O77  1  0.60572137  0.18038811  0.41089395  1
  O  O78  1  0.00030847  0.22014340  0.90662316  1
  O  O79  1  0.48841185  0.21093918  0.90235138  1
  O  O80  1  0.10490914  0.03192142  0.91112105  1
  O  O81  1  0.59745298  0.00733686  0.91408233  1
  O  O82  1  0.40581408  0.80421048  0.91926145  1
  O  O83  1  0.90818683  0.80450117  0.91708001  1
  O  O84  1  0.47929936  0.13086766  0.58861461  1
  O  O85  1  0.98224032  0.13094864  0.58810094  1
  O  O86  1  0.09822848  0.05072554  0.58543526  1
  O  O87  1  0.59532691  0.04300702  0.58295306  1
  O  O88  1  0.43252300  0.80681131  0.58196395  1
  O  O89  1  0.93041508  0.80424707  0.58353043  1
  O  O90  1  0.48388678  0.83398255  0.08827625  1
  O  O91  1  0.98530603  0.82654704  0.08785992  1
  O  O92  1  0.43000512  0.05383998  0.08553342  1
  O  O93  1  0.93250551  0.04758829  0.09198460  1
  O  O94  1  0.09932585  0.14327101  0.08277054  1
  O  O95  1  0.59758876  0.14162978  0.08531289  1
  O  O96  1  0.32156562  0.10382559  0.73699740  1
  O  O97  1  0.81140064  0.08904139  0.73733506  1
  O  O98  1  0.23567192  0.31599719  0.74622642  1
  O  O99  1  0.74146138  0.34056993  0.74517223  1
  O  O100  1  0.43736940  0.51512213  0.74633825  1
  O  O101  1  0.92568021  0.52818201  0.74791124  1
  O  O102  1  0.31481091  0.53516401  0.23809418  1
  O  O103  1  0.81586873  0.53598108  0.23858124  1
  O  O104  1  0.42537174  0.32361606  0.24741517  1
  O  O105  1  0.92812021  0.32708566  0.24725547  1
  O  O106  1  0.23899123  0.14820384  0.24639516  1
  O  O107  1  0.73644227  0.15254595  0.25205124  1
  O  O108  1  0.31355554  0.47015050  0.92003199  1
  O  O109  1  0.81894954  0.47432123  0.92162743  1
  O  O110  1  0.43245750  0.39447024  0.91553223  1
  O  O111  1  0.93534325  0.39013989  0.91722924  1
  O  O112  1  0.26330585  0.14116962  0.93464327  1
  O  O113  1  0.76740726  0.15482075  0.92499267  1
  O  O114  1  0.31549474  0.15921824  0.42303900  1
  O  O115  1  0.81276482  0.15557464  0.42273829  1
  O  O116  1  0.26464351  0.38576124  0.43194931  1
  O  O117  1  0.76528245  0.38792518  0.43280951  1
  O  O118  1  0.43570547  0.47231736  0.41805769  1
  O  O119  1  0.93459391  0.47359540  0.41638474  1
  O  O120  1  0.15544744  0.43768420  0.07471064  1
  O  O121  1  0.65998440  0.44092762  0.07389593  1
  O  O122  1  0.07026336  0.64861236  0.08432022  1
  O  O123  1  0.57422729  0.68509971  0.08065177  1
  O  O124  1  0.27887899  0.88621493  0.07700245  1
  O  O125  1  0.76681606  0.84819381  0.07847832  1
  O  O126  1  0.16197336  0.88082963  0.57430181  1
  O  O127  1  0.66304912  0.87886125  0.57637627  1
  O  O128  1  0.28183637  0.67879919  0.57190534  1
  O  O129  1  0.77912945  0.67187619  0.57498826  1
  O  O130  1  0.07299931  0.46596251  0.58409167  1
  O  O131  1  0.57112571  0.46876187  0.58624629  1
  O  O132  1  0.15356771  0.81419654  0.25626820  1
  O  O133  1  0.65461081  0.81413246  0.25538273  1
  O  O134  1  0.26958435  0.73544497  0.24913330  1
  O  O135  1  0.76892044  0.73277655  0.24975885  1
  O  O136  1  0.10088515  0.49069413  0.25256843  1
  O  O137  1  0.59878882  0.48608696  0.25300921  1
  O  O138  1  0.15367605  0.49564298  0.75696055  1
  O  O139  1  0.64703434  0.48756010  0.75654535  1
  O  O140  1  0.09895401  0.71081349  0.75379253  1
  O  O141  1  0.60248637  0.71816946  0.75489725  1
  O  O142  1  0.26735557  0.81137125  0.74999028  1
  O  O143  1  0.76957789  0.80199997  0.75286529  1
loop_
_geom_bond_atom_site_label_1
_geom_bond_atom_site_label_2
_geom_bond_distance
_geom_bond_site_symmetry_2
Na0 O106 2.326215 1_555
Na0 O104 2.401947 1_555
Na0 O134 2.420717 1_545
Na0 O32 2.545346 1_555
Na0 O132 2.764388 1_545
Na0 O62 2.816607 1_545
Na1 O33 2.231379 1_555
Na1 O107 2.401298 1_555
Na1 O135 2.419179 1_545
Na1 O105 2.486768 1_555
Na1 O133 2.719883 1_545
Na2 O102 2.489596 1_555
Na2 O106 2.499670 1_555
Na2 O136 2.512941 1_555
Na2 O64 2.709719 1_555
Na2 O20 2.766298 1_555
Na2 O0 2.855327 1_555
Na2 O34 2.860873 1_555
Na2 O5 2.922871 1_555
Na3 O107 2.435415 1_555
Na3 O103 2.468798 1_555
Na3 O137 2.483692 1_555
Na3 O65 2.680795 1_555
Na3 O35 2.752056 1_555
Na3 O21 2.815602 1_555
Na4 O99 2.308462 1_555
Na4 O101 2.370171 1_555
Na4 O143 2.406373 1_555
Na4 O29 2.500961 1_555
Na5 O24 2.214894 1_555
Na5 O100 2.291427 1_555
Na5 O139 2.390217 1_555
Na6 O98 2.412612 1_555
Na6 O140 2.489779 1_545
Na6 O96 2.494250 1_555
Na6 O68 2.663342 1_545
Na6 O16 2.848795 1_545
Na6 O26 2.851189 1_555
Na7 O141 2.485063 1_545
Na7 O97 2.503666 1_555
Na7 O99 2.566297 1_555
Na7 O7 2.587390 1_555
Na7 O17 2.764094 1_545
Na7 O27 2.846351 1_555
Na7 O69 2.880742 1_545
Na8 O53 2.233822 1_554
Na8 O123 2.312148 1_555
Na8 O95 2.545853 1_565
Na8 O125 2.612395 1_555
Na8 O37 2.755878 1_565
Na9 O49 2.219247 1_554
Na9 O125 2.333659 1_555
Na9 O91 2.446567 1_555
Na9 O93 2.887948 1_565
Na10 O122 2.384526 1_555
Na10 O93 2.469745 1_455
Na10 O120 2.506009 1_555
Na10 O50 2.695437 1_554
Na10 O41 2.705472 1_455
Na10 O20 2.934822 1_555
Na11 O8 2.239076 1_555
Na11 O82 2.361295 1_555
Na11 O81 2.458753 1_565
Na11 O110 2.523267 1_555
Na12 O9 2.343958 1_555
Na12 O83 2.356170 1_455
Na12 O52 2.447985 1_555
Na12 O111 2.525434 1_455
Na12 O80 2.689120 1_565
Na12 O66 2.823886 1_555
Na13 O6 2.229521 1_555
Na13 O80 2.251369 1_555
Na13 O108 2.416502 1_555
Na13 O78 2.700557 1_555
Na13 O70 2.855798 1_555
Na14 O4 2.337958 1_555
Na14 O57 2.381369 1_555
Na14 O74 2.383793 1_555
Na14 O118 2.511679 1_555
Na14 O77 2.611190 1_555
Na14 O61 2.832441 1_555
Na15 O75 2.366943 1_455
Na15 O5 2.385749 1_555
Na15 O56 2.393940 1_555
Na15 O119 2.540027 1_455
Na15 O76 2.595535 1_555
Na15 O60 2.851425 1_555
Na16 O0 2.248531 1_555
Na16 O76 2.264141 1_555
Na16 O114 2.443689 1_555
Na17 O77 2.249095 1_555
Na17 O1 2.260686 1_545
Na17 O115 2.425542 1_555
Na17 O73 2.790530 1_545
Na17 O63 2.862032 1_545
Na18 O75 2.318280 1_555
Na18 O85 2.361317 1_555
Na18 O89 2.537650 1_545
Na18 O86 2.739702 1_655
Na18 O76 2.771236 1_655
Na19 O74 2.302342 1_555
Na19 O84 2.377459 1_555
Na19 O88 2.500732 1_545
Na19 O87 2.663033 1_555
Na19 O77 2.787939 1_555
Na20 O83 2.336186 1_455
Na20 O80 2.513257 1_565
Na20 O91 2.516827 1_456
Na20 O94 2.673067 1_566
Na20 O93 2.848034 1_466
Na20 O78 2.981064 1_565
Na21 O82 2.309718 1_555
Na21 O81 2.560833 1_565
Na21 O90 2.564671 1_556
Na21 O92 2.643471 1_566
Na21 O95 2.733744 1_566
Na21 O79 2.927701 1_565
Na22 O100 2.302198 1_555
Na22 O98 2.331668 1_555
Na22 O108 2.510638 1_555
Na22 O110 2.757757 1_555
Na23 O101 2.465887 1_555
Na23 O109 2.468488 1_555
Na23 O99 2.499094 1_555
Na23 O111 2.626349 1_555
Na23 O113 2.722149 1_555
Na24 O104 2.315160 1_555
Na24 O106 2.574503 1_555
Na24 O118 2.581708 1_555
Na24 O114 2.717503 1_555
Na24 O102 2.874959 1_555
Na25 O105 2.327896 1_555
Na25 O107 2.487843 1_555
Na25 O119 2.553754 1_555
Na25 O115 2.720737 1_555
Na25 O103 2.871872 1_555
Na26 O122 2.234019 1_555
Na26 O132 2.276541 1_555
Na26 O136 2.508508 1_555
Na26 O134 2.802634 1_555
Na26 O124 3.027156 1_555
Na27 O123 2.273531 1_555
Na27 O133 2.452414 1_555
Na27 O137 2.497413 1_555
Na27 O125 2.830954 1_555
Na27 O135 2.879461 1_555
Na27 O121 3.053359 1_555
Na28 O130 2.221209 1_555
Na28 O138 2.313577 1_555
Na28 O140 2.480074 1_555
Na28 O142 2.901647 1_555
Na29 O131 2.268956 1_555
Na29 O139 2.525193 1_555
Na29 O141 2.537472 1_555
Na29 O143 2.829645 1_555
Na29 O127 2.892537 1_555
Na29 O129 2.999181 1_555
Ca0 O5 2.158044 1_665
Ca0 O0 2.186585 1_665
Ca0 O76 2.279874 1_665
Ca0 O3 2.297214 1_555
Ca0 O75 2.298582 1_565
Ca0 O72 2.367848 1_555
Ca1 O4 2.164998 1_565
Ca1 O1 2.170413 1_555
Ca1 O74 2.279167 1_565
Ca1 O77 2.284282 1_565
Ca1 O2 2.308899 1_555
Ca1 O73 2.379906 1_555
Ca2 O9 2.154447 1_655
Ca2 O6 2.179492 1_665
Ca2 O83 2.281799 1_555
Ca2 O80 2.291700 1_665
Ca2 O11 2.294450 1_565
Ca2 O78 2.380625 1_665
Ca3 O7 2.134129 1_565
Ca3 O8 2.190144 1_555
Ca3 O81 2.233839 1_565
Ca3 O82 2.307268 1_555
Ca3 O10 2.316794 1_565
Ca3 O79 2.380692 1_565
Ca4 O24 2.155297 1_555
Ca4 O28 2.203177 1_555
Ca4 O100 2.237343 1_555
Ca4 O98 2.269577 1_555
Ca4 O26 2.298227 1_555
Ca4 O96 2.477863 1_555
Ca5 O25 2.083506 1_555
Ca5 O101 2.214440 1_555
Ca5 O29 2.290303 1_555
Ca5 O99 2.309608 1_555
Ca5 O27 2.331932 1_555
Ca5 O97 2.437845 1_555
Ca6 O30 2.082913 1_555
Ca6 O104 2.217728 1_555
Ca6 O32 2.271290 1_555
Ca6 O34 2.317913 1_555
Ca6 O106 2.322220 1_555
Ca6 O102 2.433879 1_555
Ca7 O31 2.097586 1_555
Ca7 O33 2.168392 1_555
Ca7 O105 2.233025 1_555
Ca7 O107 2.323773 1_555
Ca7 O35 2.329002 1_555
Ca7 O103 2.427786 1_555
Ca8 O52 2.130581 1_554
Ca8 O48 2.150409 1_554
Ca8 O122 2.260216 1_555
Ca8 O124 2.287441 1_555
Ca8 O50 2.392548 1_554
Ca8 O120 2.503156 1_555
Ca9 O53 2.136729 1_554
Ca9 O49 2.174449 1_554
Ca9 O125 2.251994 1_555
Ca9 O51 2.292342 1_554
Ca9 O123 2.295978 1_555
Ca9 O121 2.394092 1_555
Ca10 O56 2.148875 1_555
Ca10 O54 2.175313 1_555
Ca10 O130 2.217542 1_555
Ca10 O128 2.299098 1_555
Ca10 O58 2.348967 1_555
Ca10 O126 2.448728 1_555
Ca11 O57 2.136572 1_555
Ca11 O55 2.175993 1_555
Ca11 O131 2.245739 1_555
Ca11 O129 2.316796 1_555
Ca11 O59 2.334478 1_555
Ca11 O127 2.469789 1_555
O0 Si0 1.578143 1_545
O1 Si1 1.572278 1_555
O2 S0 1.445300 1_555
O3 S1 1.445247 1_555
O4 Si3 1.595538 1_555
O5 Si2 1.591507 1_555
O6 Si4 1.576532 1_555
O7 Si5 1.563785 1_555
O8 Si7 1.584135 1_555
O9 Si6 1.594239 1_555
O10 S2 1.435236 1_545
O11 S3 1.447033 1_545
O12 S2 1.513823 1_555
O12 Ta1 2.168367 1_565
O13 S3 1.509666 1_555
O13 Ta0 2.225229 1_665
O14 Si4 1.761435 1_555
O14 Ta0 1.864952 1_555
O15 Si5 1.779018 1_555
O15 Ta1 1.880628 1_555
O16 Si6 1.760038 1_555
O16 Ta0 1.970984 1_565
O17 Si7 1.750553 1_555
O17 Ta1 1.979753 1_565
O18 S0 1.519121 1_555
O18 Ta3 2.129044 1_555
O19 S1 1.515996 1_555
O19 Ta2 2.226430 1_665
O20 Si2 1.756068 1_555
O20 Ta2 1.996255 1_555
O21 Si3 1.755286 1_555
O21 Ta3 1.974247 1_545
O22 Si0 1.730364 1_555
O22 Ta2 1.918442 1_565
O23 Si1 1.754719 1_555
O23 Ta3 1.878290 1_555
O24 Si8 1.581350 1_555
O25 Si9 1.567607 1_555
O26 S4 1.452400 1_555
O27 S5 1.452986 1_555
O28 S6 1.451709 1_555
O29 S7 1.468164 1_555
O30 Si10 1.566785 1_555
O31 Si11 1.573967 1_555
O32 S8 1.469405 1_555
O33 Si12 1.593463 1_555
O34 S9 1.446078 1_555
O35 S10 1.457881 1_555
O36 S9 1.519007 1_555
O36 Ta4 2.162558 1_554
O37 S10 1.514281 1_555
O37 Ta5 2.244062 1_554
O38 Si10 1.756391 1_555
O38 Ta4 1.929705 1_554
O39 Si11 1.730337 1_555
O39 Ta5 1.976701 1_554
O40 S8 1.506939 1_555
O40 Ta4 2.263154 1_554
O41 Si12 1.750548 1_555
O41 Ta5 1.989900 1_554
O42 S4 1.543847 1_555
O42 Ta6 2.105468 1_555
O43 S5 1.543923 1_555
O43 Ta7 2.113034 1_555
O44 S6 1.521255 1_555
O44 Ta6 2.173284 1_555
O45 S7 1.517456 1_555
O45 Ta7 2.211626 1_555
O46 Si8 1.761339 1_555
O46 Ta6 1.919944 1_555
O47 Si9 1.772208 1_555
O47 Ta7 1.915536 1_555
O48 Si13 1.567191 1_555
O49 Si14 1.574628 1_555
O50 S11 1.453775 1_555
O51 S12 1.441893 1_555
O52 Si15 1.586254 1_555
O53 Si16 1.582775 1_555
O54 Si17 1.563103 1_555
O55 Si18 1.563343 1_555
O56 Si19 1.580249 1_555
O57 Si20 1.582067 1_555
O58 S13 1.441269 1_555
O59 S14 1.443756 1_555
O60 S13 1.547561 1_555
O60 Ta8 2.113814 1_555
O61 S14 1.544328 1_555
O61 Ta9 2.135739 1_555
O62 Si17 1.736655 1_555
O62 Ta8 1.977517 1_555
O63 Si18 1.730858 1_555
O63 Ta9 1.961355 1_555
O64 Si19 1.795445 1_555
O64 Ta8 1.935454 1_555
O65 Si20 1.787138 1_555
O65 Ta9 1.944730 1_555
O66 S11 1.516020 1_555
O66 Ta10 2.220624 1_555
O67 S12 1.533390 1_555
O67 Ta11 2.153657 1_555
O68 Si15 1.763657 1_555
O68 Ta10 1.976913 1_555
O69 Si16 1.786656 1_555
O69 Ta11 1.921775 1_555
O70 Si13 1.709881 1_555
O70 Ta10 1.946582 1_555
O71 Si14 1.754805 1_555
O71 Ta11 1.931121 1_555
O72 S13 1.448442 1_655
O73 S14 1.446803 1_555
O74 Si17 1.596174 1_545
O75 Si18 1.595780 1_545
O76 Si19 1.614285 1_555
O77 Si20 1.614168 1_555
O78 S11 1.456521 1_555
O79 S12 1.439601 1_555
O80 Si15 1.615825 1_545
O81 Si16 1.598407 1_545
O82 Si13 1.586423 1_555
O83 Si14 1.608421 1_555
O84 Si8 1.708305 1_555
O84 Ta1 1.951016 1_555
O85 Si9 1.712384 1_555
O85 Ta0 1.936618 1_655
O86 S4 1.539199 1_555
O86 Ta0 2.079661 1_555
O87 S5 1.536905 1_555
O87 Ta1 2.104877 1_555
O88 S6 1.513719 1_555
O88 Ta1 2.242852 1_565
O89 S7 1.509585 1_555
O89 Ta0 2.296614 1_665
O90 Si10 1.724783 1_555
O90 Ta3 1.947896 1_555
O91 Si11 1.700642 1_555
O91 Ta2 1.993993 1_665
O92 S8 1.514538 1_555
O92 Ta3 2.239795 1_545
O93 Si12 1.692391 1_555
O93 Ta2 2.016208 1_655
O94 S9 1.542363 1_555
O94 Ta2 2.090004 1_555
O95 S10 1.542416 1_555
O95 Ta3 2.130478 1_545
O96 S2 1.475557 1_545
O97 S3 1.459568 1_545
O98 Si4 1.606955 1_555
O99 Si5 1.605885 1_555
O100 Si7 1.607970 1_555
O101 Si6 1.601700 1_655
O102 S0 1.460617 1_555
O103 S1 1.460632 1_555
O104 Si3 1.602058 1_555
O105 Si2 1.599787 1_655
O106 Si0 1.622094 1_545
O107 Si1 1.616483 1_545
O108 Si13 1.784574 1_555
O108 Ta4 1.908811 1_555
O109 Si14 1.698016 1_555
O109 Ta5 1.972623 1_555
O110 S12 1.551241 1_555
O110 Ta4 2.132671 1_555
O111 S11 1.538073 1_655
O111 Ta5 2.125827 1_555
O112 Si15 1.702886 1_545
O112 Ta4 1.942902 1_555
O113 Si16 1.673465 1_545
O113 Ta5 1.957898 1_555
O114 Si17 1.765953 1_545
O114 Ta6 1.926040 1_555
O115 Si18 1.771752 1_545
O115 Ta7 1.917638 1_555
O116 Si19 1.685788 1_555
O116 Ta6 1.969159 1_555
O117 Si20 1.687550 1_555
O117 Ta7 1.970480 1_555
O118 S14 1.538092 1_555
O118 Ta6 2.195267 1_555
O119 S13 1.536231 1_655
O119 Ta7 2.214897 1_555
O120 S9 1.459605 1_555
O121 S10 1.449731 1_555
O122 Si11 1.606017 1_455
O123 Si10 1.599452 1_555
O124 S8 1.460692 1_565
O125 Si12 1.602522 1_565
O126 S4 1.438405 1_565
O127 S5 1.445040 1_565
O128 S6 1.455829 1_555
O129 S7 1.458630 1_555
O130 Si9 1.588071 1_455
O131 Si8 1.592385 1_555
O132 Si0 1.669541 1_555
O132 Ta8 2.025811 1_555
O133 Si1 1.664081 1_555
O133 Ta9 2.023089 1_555
O134 S0 1.533674 1_555
O134 Ta8 2.172169 1_555
O135 S1 1.539806 1_555
O135 Ta9 2.144038 1_555
O136 Si2 1.697943 1_555
O136 Ta8 2.027429 1_555
O137 Si3 1.692616 1_555
O137 Ta9 2.042597 1_555
O138 Si4 1.668255 1_555
O138 Ta10 1.985566 1_555
O139 Si5 1.672996 1_555
O139 Ta11 2.076190 1_555
O140 Si6 1.690040 1_555
O140 Ta10 2.029644 1_555
O141 Si7 1.719905 1_555
O141 Ta11 2.042303 1_555
O142 S2 1.530164 1_555
O142 Ta10 2.070742 1_555
O143 S3 1.551478 1_555
O143 Ta11 2.133252 1_555
