# generated using pymatgen
data_MgMn(Ni3O4)2
_symmetry_space_group_name_H-M   'P 1'
_cell_length_a   6.03220991
_cell_length_b   6.03221012
_cell_length_c   6.03221000
_cell_angle_alpha   60.00000066
_cell_angle_beta   59.99999952
_cell_angle_gamma   60.00000082
_symmetry_Int_Tables_number   1
_chemical_formula_structural   MgMn(Ni3O4)2
_chemical_formula_sum   'Mg1 Mn1 Ni6 O8'
_cell_volume   155.20809363
_cell_formula_units_Z   1
loop_
 _symmetry_equiv_pos_site_id
 _symmetry_equiv_pos_as_xyz
  1  'x, y, z'
loop_
 _atom_site_type_symbol
 _atom_site_label
 _atom_site_symmetry_multiplicity
 _atom_site_fract_x
 _atom_site_fract_y
 _atom_site_fract_z
 _atom_site_occupancy
  Mg  Mg0  1  0.50000000  0.50000000  0.50000000  1
  Mn  Mn0  1  0.00000000  0.00000000  0.00000000  1
  Ni  Ni0  1  0.00000000  0.49999900  0.50000100  1
  Ni  Ni1  1  0.00000000  0.49999900  0.00000000  1
  Ni  Ni2  1  0.50000000  0.00000000  0.50000000  1
  Ni  Ni3  1  0.49999900  0.49999900  0.00000100  1
  Ni  Ni4  1  0.00000000  0.00000000  0.50000000  1
  Ni  Ni5  1  0.50000000  0.00000000  0.99999900  1
  O  O0  1  0.25622100  0.74378000  0.74377900  1
  O  O1  1  0.25622100  0.74378000  0.25622000  1
  O  O2  1  0.74377900  0.25622000  0.74378000  1
  O  O3  1  0.25622100  0.25622000  0.74377900  1
  O  O4  1  0.74377900  0.74378000  0.25622000  1
  O  O5  1  0.74377900  0.25622000  0.25622100  1
  O  O6  1  0.74999900  0.75000100  0.75000000  1
  O  O7  1  0.25000100  0.24999900  0.25000000  1
loop_
_geom_bond_atom_site_label_1
_geom_bond_atom_site_label_2
_geom_bond_distance
_geom_bond_site_symmetry_2
Mg0 O3 2.079642 1_555
Mg0 O4 2.079642 1_555
Mg0 O2 2.079642 1_555
Mg0 O0 2.079642 1_555
Mg0 O1 2.079642 1_555
Mg0 O5 2.079642 1_555
Mn0 O4 2.185774 1_445
Mn0 O3 2.185774 1_554
Mn0 O0 2.185774 1_544
Mn0 O2 2.185774 1_454
Mn0 O1 2.185774 1_545
Mn0 O5 2.185774 1_455
Ni0 O7 2.132713 1_555
Ni0 O6 2.132713 1_455
Ni0 O3 2.133364 1_555
Ni0 O2 2.133368 1_455
Ni0 O1 2.133377 1_555
Ni0 O4 2.133377 1_455
Ni1 O7 2.132713 1_555
Ni1 O6 2.132713 1_454
Ni1 O5 2.133368 1_455
Ni1 O3 2.133369 1_554
Ni1 O4 2.133373 1_455
Ni1 O0 2.133377 1_554
Ni2 O6 2.132704 1_545
Ni2 O7 2.132704 1_555
Ni2 O0 2.133364 1_545
Ni2 O5 2.133364 1_555
Ni2 O3 2.133364 1_555
Ni2 O4 2.133368 1_545
Ni3 O7 2.132700 1_555
Ni3 O6 2.132717 1_554
Ni3 O2 2.133368 1_554
Ni3 O5 2.133368 1_555
Ni3 O0 2.133368 1_554
Ni3 O1 2.133368 1_555
Ni4 O7 2.132708 1_555
Ni4 O6 2.132708 1_445
Ni4 O1 2.133368 1_545
Ni4 O0 2.133368 1_545
Ni4 O5 2.133368 1_455
Ni4 O2 2.133368 1_455
Ni5 O6 2.132700 1_545
Ni5 O7 2.132708 1_556
Ni5 O2 2.133364 1_555
Ni5 O3 2.133364 1_555
Ni5 O1 2.133364 1_546
Ni5 O4 2.133368 1_546
