# generated using pymatgen
data_Na5La2Nb2Si3(PO8)3
_symmetry_space_group_name_H-M   'P 1'
_cell_length_a   9.35387462
_cell_length_b   9.39494884
_cell_length_c   22.67987324
_cell_angle_alpha   90.56421197
_cell_angle_beta   89.54563713
_cell_angle_gamma   119.11399475
_symmetry_Int_Tables_number   1
_chemical_formula_structural   Na5La2Nb2Si3(PO8)3
_chemical_formula_sum   'Na15 La6 Nb6 Si9 P9 O72'
_cell_volume   1741.17290878
_cell_formula_units_Z   3
loop_
 _symmetry_equiv_pos_site_id
 _symmetry_equiv_pos_as_xyz
  1  'x, y, z'
loop_
 _atom_site_type_symbol
 _atom_site_label
 _atom_site_symmetry_multiplicity
 _atom_site_fract_x
 _atom_site_fract_y
 _atom_site_fract_z
 _atom_site_occupancy
  Na  Na0  1  0.98838045  0.63943839  0.23768547  1
  Na  Na1  1  0.35364132  0.01650164  0.73886331  1
  Na  Na2  1  0.03552722  0.68634232  0.57680656  1
  Na  Na3  1  0.64545339  0.98139070  0.58100302  1
  Na  Na4  1  0.30756878  0.96162940  0.07662951  1
  Na  Na5  1  0.01549725  0.35919550  0.08207517  1
  Na  Na6  1  0.00067420  0.68768956  0.91117541  1
  Na  Na7  1  0.98202108  0.31465121  0.41045019  1
  Na  Na8  1  0.31628516  0.00804193  0.41199043  1
  Na  Na9  1  0.97624587  0.98370074  0.49828709  1
  Na  Na10  1  0.99461723  0.00633826  0.00119455  1
  Na  Na11  1  0.67578743  0.31233613  0.83693664  1
  Na  Na12  1  0.66921667  0.33066455  0.33523527  1
  Na  Na13  1  0.35666829  0.64991708  0.16898661  1
  Na  Na14  1  0.34319054  0.63343541  0.66779025  1
  La  La0  1  0.98504003  0.99511362  0.34747357  1
  La  La1  1  0.99640757  0.01211972  0.85353904  1
  La  La2  1  0.67475687  0.34182362  0.68881398  1
  La  La3  1  0.65939784  0.32471218  0.18657282  1
  La  La4  1  0.34138756  0.66121001  0.01395228  1
  La  La5  1  0.34519345  0.66484951  0.51443174  1
  Nb  Nb0  1  0.99766376  0.99985331  0.64716507  1
  Nb  Nb1  1  0.99995335  0.00222887  0.14901717  1
  Nb  Nb2  1  0.65380226  0.33222808  0.98180242  1
  Nb  Nb3  1  0.66239204  0.33988057  0.48085268  1
  Nb  Nb4  1  0.33360832  0.66416523  0.31680907  1
  Nb  Nb5  1  0.34634454  0.67302981  0.81556234  1
  Si  Si0  1  0.02395229  0.31685137  0.25427796  1
  Si  Si1  1  0.68694510  0.97848023  0.75003650  1
  Si  Si2  1  0.36256680  0.04807316  0.58435650  1
  Si  Si3  1  0.68633777  0.64579437  0.58572882  1
  Si  Si4  1  0.95181048  0.63714305  0.08368005  1
  Si  Si5  1  0.35049245  0.31386536  0.08583871  1
  Si  Si6  1  0.35415179  0.97532505  0.92077404  1
  Si  Si7  1  0.62699202  0.98211073  0.41943733  1
  Si  Si8  1  0.02398880  0.65233123  0.42055491  1
  P  P0  1  0.28526498  0.97158456  0.25197591  1
  P  P1  1  0.69021317  0.71729289  0.24777397  1
  P  P2  1  0.27530861  0.30441783  0.74906430  1
  P  P3  1  0.03116347  0.72004939  0.75207145  1
  P  P4  1  0.95305121  0.31085345  0.57883825  1
  P  P5  1  0.69002113  0.04853388  0.08012883  1
  P  P6  1  0.62480219  0.63784901  0.91419395  1
  P  P7  1  0.02196271  0.38568916  0.91855530  1
  P  P8  1  0.35355319  0.37522732  0.41235382  1
  O  O0  1  0.21528806  0.98535074  0.31090676  1
  O  O1  1  0.78158141  0.77078647  0.30586794  1
  O  O2  1  0.00798175  0.23190237  0.31640208  1
  O  O3  1  0.21644316  0.20820080  0.80541524  1
  O  O4  1  0.01936664  0.79403233  0.80991396  1
  O  O5  1  0.78554347  0.99823708  0.80844848  1
  O  O6  1  0.80019878  0.97005410  0.69126308  1
  O  O7  1  0.15328255  0.19748695  0.69715232  1
  O  O8  1  0.04131888  0.83941231  0.69885318  1
  O  O9  1  0.80245121  0.84187721  0.19764388  1
  O  O10  1  0.02700769  0.19068914  0.19790801  1
  O  O11  1  0.16213100  0.95951913  0.19986837  1
  O  O12  1  0.87809618  0.33393483  0.63500876  1
  O  O13  1  0.47308288  0.11277169  0.64206246  1
  O  O14  1  0.67496564  0.54781007  0.64327406  1
  O  O15  1  0.89061724  0.52607007  0.14150174  1
  O  O16  1  0.66177888  0.11201595  0.13811929  1
  O  O17  1  0.45260905  0.33397361  0.14320644  1
  O  O18  1  0.46679153  0.29969106  0.02799924  1
  O  O19  1  0.82126320  0.52399932  0.02742024  1
  O  O20  1  0.70477111  0.17242421  0.02932931  1
  O  O21  1  0.47617772  0.17812729  0.52766537  1
  O  O22  1  0.69761432  0.52990589  0.52777917  1
  O  O23  1  0.83635957  0.29783919  0.52485340  1
  O  O24  1  0.56845015  0.67109434  0.97256894  1
  O  O25  1  0.09450806  0.45215205  0.97928649  1
  O  O26  1  0.33358087  0.88333716  0.98178756  1
  O  O27  1  0.55815584  0.89851078  0.48193253  1
  O  O28  1  0.29893049  0.42600038  0.46799544  1
  O  O29  1  0.11453838  0.66223647  0.48123757  1
  O  O30  1  0.14626052  0.63435457  0.36468589  1
  O  O31  1  0.49431974  0.85317802  0.36599194  1
  O  O32  1  0.37031934  0.49780815  0.36118660  1
  O  O33  1  0.14158996  0.50524703  0.86908923  1
  O  O34  1  0.36763741  0.85121190  0.86482537  1
  O  O35  1  0.50359719  0.62903528  0.86308384  1
  O  O36  1  0.01476180  0.81811265  0.41406535  1
  O  O37  1  0.81777736  0.03018110  0.41541738  1
  O  O38  1  0.22898640  0.19855943  0.39989386  1
  O  O39  1  0.99029385  0.21153365  0.91428565  1
  O  O40  1  0.19003292  0.98817174  0.91287731  1
  O  O41  1  0.80175568  0.76569884  0.90386566  1
  O  O42  1  0.94796129  0.14036850  0.58174313  1
  O  O43  1  0.18379477  0.04641322  0.59302354  1
  O  O44  1  0.86927279  0.81896235  0.58780321  1
  O  O45  1  0.95493555  0.81609937  0.09386047  1
  O  O46  1  0.86209112  0.05547878  0.08320776  1
  O  O47  1  0.17957142  0.13017084  0.08966024  1
  O  O48  1  0.63047042  0.11538535  0.74813005  1
  O  O49  1  0.44648291  0.32952489  0.73728333  1
  O  O50  1  0.89284032  0.54651378  0.74515621  1
  O  O51  1  0.66608721  0.54799626  0.23563968  1
  O  O52  1  0.87855405  0.36225443  0.24953867  1
  O  O53  1  0.45762775  0.10960321  0.24448177  1
  O  O54  1  0.61639250  0.46654032  0.91706907  1
  O  O55  1  0.85771296  0.39317382  0.91460560  1
  O  O56  1  0.52745122  0.15199252  0.92327672  1
  O  O57  1  0.61483951  0.15486076  0.41788461  1
  O  O58  1  0.52522971  0.38654720  0.41962842  1
  O  O59  1  0.84935048  0.47659986  0.41994787  1
  O  O60  1  0.29560442  0.45069223  0.08010012  1
  O  O61  1  0.14041716  0.67988341  0.07438754  1
  O  O62  1  0.55059474  0.87662510  0.07109168  1
  O  O63  1  0.31868603  0.86037061  0.57472819  1
  O  O64  1  0.54449150  0.69546167  0.58313451  1
  O  O65  1  0.12546161  0.45236587  0.57297069  1
  O  O66  1  0.28062058  0.80102403  0.25142081  1
  O  O67  1  0.52515001  0.71887672  0.25187833  1
  O  O68  1  0.20243095  0.49279769  0.25581763  1
  O  O69  1  0.27809429  0.47177096  0.75468635  1
  O  O70  1  0.20178015  0.72205940  0.75171226  1
  O  O71  1  0.51115101  0.79582513  0.75678290  1
loop_
_geom_bond_atom_site_label_1
_geom_bond_atom_site_label_2
_geom_bond_distance
_geom_bond_site_symmetry_2
Na0 O52 2.305484 1_555
Na0 O15 2.401544 1_555
Na0 O66 2.416630 1_655
Na0 O51 2.703657 1_555
Na0 O11 2.773586 1_655
Na1 O48 2.297010 1_555
Na1 O13 2.429625 1_555
Na1 O70 2.437319 1_545
Na1 O49 2.630657 1_555
Na1 O8 2.721903 1_545
Na2 O29 2.328803 1_555
Na2 O63 2.340131 1_555
Na2 O44 2.430276 1_455
Na2 O65 2.709583 1_555
Na3 O64 2.375613 1_555
Na3 O27 2.386964 1_555
Na3 O42 2.474977 1_565
Na3 O63 2.697665 1_555
Na3 O13 2.812187 1_565
Na3 O23 2.919192 1_565
Na3 O6 2.927901 1_555
Na4 O26 2.315545 1_554
Na4 O61 2.329175 1_555
Na4 O47 2.420341 1_565
Na5 O60 2.326592 1_555
Na5 O25 2.475530 1_554
Na5 O46 2.493626 1_455
Na5 O61 2.656004 1_555
Na5 O15 2.711906 1_455
Na5 O20 2.829969 1_455
Na6 O41 2.315369 1_455
Na6 O55 2.419168 1_455
Na6 O4 2.484337 1_555
Na6 O40 2.498282 1_555
Na6 O33 2.780783 1_555
Na7 O2 2.314275 1_655
Na7 O37 2.350184 1_555
Na7 O59 2.393338 1_555
Na8 O38 2.319769 1_555
Na8 O57 2.444014 1_555
Na8 O0 2.454085 1_545
Na8 O36 2.498639 1_545
Na9 O44 2.457858 1_555
Na9 O42 2.476926 1_565
Na9 O37 2.571096 1_565
Na9 O36 2.583517 1_655
Na9 O43 2.767817 1_665
Na10 O46 2.390197 1_555
Na10 O47 2.534292 1_655
Na10 O45 2.676780 1_545
Na10 O40 2.760654 1_644
Na10 O39 2.784812 1_554
Na11 O55 2.310657 1_555
Na11 O56 2.451537 1_555
Na11 O54 2.534914 1_555
Na11 O48 2.614774 1_555
Na11 O50 2.995313 1_555
Na12 O57 2.393477 1_555
Na12 O59 2.482254 1_555
Na12 O58 2.525968 1_555
Na12 O52 2.661828 1_555
Na12 O53 2.906462 1_555
Na13 O67 2.338190 1_555
Na13 O68 2.465450 1_555
Na13 O60 2.607135 1_555
Na13 O66 2.631748 1_555
Na14 O69 2.387804 1_555
Na14 O64 2.543294 1_555
Na14 O71 2.554762 1_555
Na14 O70 2.658223 1_555
Na14 O65 2.879643 1_555
La0 O1 2.245067 1_555
La0 O2 2.248445 1_665
La0 O37 2.320403 1_565
La0 O0 2.344584 1_655
La0 O36 2.372670 1_655
La0 O38 2.455146 1_665
La1 O5 2.175362 1_545
La1 O3 2.266144 1_655
La1 O39 2.337416 1_555
La1 O40 2.362871 1_645
La1 O4 2.368124 1_645
La1 O41 2.427944 1_545
La2 O14 2.201713 1_555
La2 O12 2.282726 1_555
La2 O13 2.313058 1_555
La2 O49 2.346536 1_555
La2 O50 2.380733 1_555
La2 O48 2.386856 1_555
La3 O17 2.216301 1_555
La3 O16 2.280543 1_555
La3 O15 2.307148 1_555
La3 O51 2.338853 1_555
La3 O53 2.381709 1_555
La3 O52 2.387260 1_555
La4 O26 2.252032 1_554
La4 O24 2.275681 1_554
La4 O25 2.322353 1_554
La4 O60 2.360046 1_555
La4 O61 2.391372 1_555
La4 O62 2.395701 1_555
La5 O27 2.254720 1_555
La5 O29 2.279498 1_555
La5 O28 2.312490 1_555
La5 O64 2.345507 1_555
La5 O63 2.386246 1_555
La5 O65 2.447139 1_555
Nb0 O6 1.990807 1_555
Nb0 O43 1.991471 1_665
Nb0 O44 2.034097 1_555
Nb0 O7 2.050946 1_665
Nb0 O8 2.110542 1_655
Nb0 O42 2.192531 1_565
Nb1 O10 1.989540 1_655
Nb1 O45 2.012160 1_545
Nb1 O47 2.027491 1_655
Nb1 O9 2.047167 1_545
Nb1 O11 2.102748 1_645
Nb1 O46 2.194065 1_555
Nb2 O18 1.925632 1_556
Nb2 O19 2.003209 1_556
Nb2 O56 2.014735 1_555
Nb2 O54 2.084344 1_555
Nb2 O20 2.092789 1_556
Nb2 O55 2.279654 1_555
Nb3 O22 1.955569 1_555
Nb3 O21 1.974138 1_555
Nb3 O58 2.086629 1_555
Nb3 O59 2.104030 1_555
Nb3 O23 2.111597 1_555
Nb3 O57 2.113686 1_555
Nb4 O30 1.956196 1_555
Nb4 O31 2.011807 1_555
Nb4 O68 2.017874 1_555
Nb4 O32 2.032814 1_555
Nb4 O67 2.172501 1_555
Nb4 O66 2.183467 1_555
Nb5 O34 1.931980 1_555
Nb5 O71 1.936920 1_555
Nb5 O35 2.030171 1_555
Nb5 O69 2.162615 1_555
Nb5 O33 2.165570 1_555
Nb5 O70 2.188166 1_555
O0 P0 1.515460 1_555
O1 P1 1.518495 1_555
O2 Si0 1.596009 1_555
O3 P2 1.510274 1_555
O4 P3 1.506868 1_555
O5 Si1 1.577350 1_555
O6 Si1 1.721181 1_555
O7 P2 1.606372 1_555
O8 P3 1.626213 1_555
O9 P1 1.605100 1_555
O10 Si0 1.744343 1_555
O11 P0 1.621105 1_555
O12 P4 1.513227 1_555
O13 Si2 1.595405 1_555
O14 Si3 1.577418 1_555
O15 Si4 1.603162 1_555
O16 P5 1.512497 1_555
O17 Si5 1.574861 1_555
O18 Si5 1.742652 1_555
O19 Si4 1.727439 1_555
O20 P5 1.602753 1_555
O21 Si2 1.738143 1_555
O22 Si3 1.733572 1_555
O23 P4 1.610535 1_555
O24 P6 1.506388 1_555
O25 P7 1.527448 1_555
O26 Si6 1.598830 1_555
O27 Si7 1.598681 1_555
O28 P8 1.515315 1_555
O29 Si8 1.599828 1_555
O30 Si8 1.761511 1_555
O31 Si7 1.734583 1_555
O32 P8 1.595379 1_555
O33 P7 1.598200 1_555
O34 Si6 1.759868 1_555
O35 P6 1.601091 1_555
O36 Si8 1.609493 1_555
O37 Si7 1.615849 1_545
O38 P8 1.518702 1_555
O39 P7 1.516546 1_655
O40 Si6 1.608852 1_555
O41 P6 1.517250 1_555
O42 P4 1.581096 1_555
O43 Si2 1.674707 1_555
O44 Si3 1.693474 1_555
O45 Si4 1.680929 1_555
O46 P5 1.580884 1_555
O47 Si5 1.690500 1_555
O48 Si1 1.611803 1_545
O49 P2 1.522376 1_555
O50 P3 1.517305 1_655
O51 P1 1.516425 1_555
O52 Si0 1.615846 1_655
O53 P0 1.508409 1_545
O54 P6 1.574647 1_555
O55 P7 1.575069 1_655
O56 Si6 1.663506 1_545
O57 Si7 1.681943 1_545
O58 P8 1.566820 1_555
O59 Si8 1.664308 1_655
O60 Si5 1.606108 1_555
O61 Si4 1.620028 1_455
O62 P5 1.516375 1_565
O63 Si2 1.617228 1_565
O64 Si3 1.608064 1_555
O65 P4 1.516499 1_455
O66 P0 1.581653 1_555
O67 P1 1.553322 1_555
O68 Si0 1.683793 1_555
O69 P2 1.563720 1_555
O70 P3 1.586782 1_555
O71 Si1 1.710969 1_555
