# generated using pymatgen
data_NaMgMn4O8
_symmetry_space_group_name_H-M   'P 1'
_cell_length_a   6.20878720
_cell_length_b   6.20864718
_cell_length_c   6.34251761
_cell_angle_alpha   86.48134848
_cell_angle_beta   119.07097416
_cell_angle_gamma   124.49805709
_symmetry_Int_Tables_number   1
_chemical_formula_structural   NaMgMn4O8
_chemical_formula_sum   'Na1 Mg1 Mn4 O8'
_cell_volume   168.17403014
_cell_formula_units_Z   1
loop_
 _symmetry_equiv_pos_site_id
 _symmetry_equiv_pos_as_xyz
  1  'x, y, z'
loop_
 _atom_site_type_symbol
 _atom_site_label
 _atom_site_symmetry_multiplicity
 _atom_site_fract_x
 _atom_site_fract_y
 _atom_site_fract_z
 _atom_site_occupancy
  Na  Na0  1  0.50694400  0.99475400  0.50154600  1
  Mg  Mg0  1  0.23034200  0.32523300  0.55543600  1
  Mn  Mn0  1  0.00007800  0.99480800  0.99473600  1
  Mn  Mn1  1  0.98748400  0.50326500  0.98761500  1
  Mn  Mn2  1  0.48449900  0.00030100  0.98761800  1
  Mn  Mn3  1  0.52557900  0.52835300  0.05380800  1
  O  O0  1  0.02868000  0.78528800  0.81388400  1
  O  O1  1  0.06268900  0.25727300  0.79339600  1
  O  O2  1  0.53278000  0.24972100  0.78239400  1
  O  O3  1  0.53626400  0.73086900  0.79340000  1
  O  O4  1  0.43669100  0.75137500  0.18786000  1
  O  O5  1  0.44909600  0.24053500  0.21107200  1
  O  O6  1  0.95650600  0.21986000  0.17616800  1
  O  O7  1  0.97070100  0.76211900  0.21108400  1
loop_
_geom_bond_atom_site_label_1
_geom_bond_atom_site_label_2
_geom_bond_distance
_geom_bond_site_symmetry_2
Na0 O4 2.282756 1_555
Na0 O7 2.341765 1_455
Na0 O5 2.341901 1_565
Na0 O2 2.342092 1_565
Na0 O1 2.404544 1_665
Na0 O3 2.404587 1_555
Mg0 O6 2.015916 1_455
Mg0 O2 2.026221 1_555
Mg0 O3 2.119053 1_555
Mg0 O1 2.119069 1_555
Mn0 O0 1.918914 1_555
Mn0 O5 1.924611 1_566
Mn0 O7 1.924757 1_456
Mn0 O3 1.986606 1_455
Mn0 O1 1.986633 1_565
Mn0 O6 2.068287 1_466
Mn1 O4 1.922460 1_656
Mn1 O2 1.946494 1_555
Mn1 O0 1.968569 1_655
Mn1 O6 2.035954 1_556
Mn1 O7 2.283738 1_556
Mn1 O1 2.380277 1_655
Mn2 O4 1.922348 1_546
Mn2 O2 1.946301 1_555
Mn2 O0 1.968793 1_545
Mn2 O6 2.036132 1_556
Mn2 O5 2.283679 1_556
Mn2 O3 2.380268 1_545
Mn3 O5 1.921957 1_555
Mn3 O7 1.922095 1_555
Mn3 O1 2.017305 1_554
Mn3 O3 2.017508 1_554
Mn3 O4 2.100211 1_555
Mn3 O2 2.546758 1_554
