# generated using pymatgen
data_NiP3
_symmetry_space_group_name_H-M   'P 1'
_cell_length_a   6.74510905
_cell_length_b   6.74510862
_cell_length_c   6.74507456
_cell_angle_alpha   109.47112154
_cell_angle_beta   109.47113483
_cell_angle_gamma   109.47133878
_symmetry_Int_Tables_number   1
_chemical_formula_structural   NiP3
_chemical_formula_sum   'Ni4 P12'
_cell_volume   236.23440348
_cell_formula_units_Z   4
loop_
 _symmetry_equiv_pos_site_id
 _symmetry_equiv_pos_as_xyz
  1  'x, y, z'
loop_
 _atom_site_type_symbol
 _atom_site_label
 _atom_site_symmetry_multiplicity
 _atom_site_fract_x
 _atom_site_fract_y
 _atom_site_fract_z
 _atom_site_occupancy
  Ni  Ni0  1  0.50000000  0.00000000  0.00000000  1
  Ni  Ni1  1  0.00000000  0.00000000  0.50000000  1
  Ni  Ni2  1  0.00000000  0.50000000  0.00000000  1
  Ni  Ni3  1  0.50000000  0.50000000  0.50000000  1
  P  P0  1  0.50157318  0.85780077  0.64377322  1
  P  P1  1  0.21402406  0.85780064  0.35622756  1
  P  P2  1  0.78597594  0.14219936  0.64377244  1
  P  P3  1  0.14219936  0.35622342  0.49842692  1
  P  P4  1  0.49842682  0.14219923  0.35622678  1
  P  P5  1  0.14219923  0.64377241  0.78597345  1
  P  P6  1  0.35622342  0.21402406  0.85779650  1
  P  P7  1  0.85780064  0.64377658  0.50157308  1
  P  P8  1  0.64377658  0.78597594  0.14220350  1
  P  P9  1  0.85780077  0.35622759  0.21402655  1
  P  P10  1  0.64377341  0.50157318  0.85779996  1
  P  P11  1  0.35622659  0.49842682  0.14220004  1
loop_
_geom_bond_atom_site_label_1
_geom_bond_atom_site_label_2
_geom_bond_distance
_geom_bond_site_symmetry_2
Ni0 P0 2.276135 1_544
Ni0 P4 2.276135 1_555
Ni0 P6 2.276149 1_554
Ni0 P8 2.276149 1_545
Ni0 P5 2.276150 1_544
Ni0 P9 2.276150 1_555
Ni1 P8 2.276120 1_445
Ni1 P6 2.276120 1_555
Ni1 P7 2.276121 1_445
Ni1 P3 2.276121 1_555
Ni1 P2 2.276122 1_455
Ni1 P1 2.276122 1_545
Ni2 P9 2.276129 1_455
Ni2 P5 2.276129 1_554
Ni2 P10 2.276145 1_454
Ni2 P11 2.276145 1_555
Ni2 P1 2.276148 1_555
Ni2 P2 2.276148 1_454
Ni3 P11 2.276135 1_555
Ni3 P10 2.276135 1_555
Ni3 P7 2.276149 1_555
Ni3 P3 2.276149 1_555
Ni3 P4 2.276151 1_555
Ni3 P0 2.276151 1_555
P0 P2 2.215077 1_565
P0 P1 2.239582 1_555
P1 P4 2.215077 1_565
P2 P4 2.239582 1_555
P3 P9 2.215081 1_455
P3 P5 2.239586 1_555
P5 P7 2.215081 1_455
P7 P9 2.239586 1_555
P10 P8 2.215082 1_556
P10 P6 2.239586 1_555
P11 P6 2.215082 1_554
P11 P8 2.239586 1_555
