# generated using pymatgen
data_Na5Ca3GeP3(SO8)3
_symmetry_space_group_name_H-M   'P 1'
_cell_length_a   9.19956168
_cell_length_b   9.13060285
_cell_length_c   22.89648889
_cell_angle_alpha   90.84654125
_cell_angle_beta   89.98232381
_cell_angle_gamma   119.78982592
_symmetry_Int_Tables_number   1
_chemical_formula_structural   Na5Ca3GeP3(SO8)3
_chemical_formula_sum   'Na15 Ca9 Ge3 P9 S9 O72'
_cell_volume   1668.86162206
_cell_formula_units_Z   3
loop_
 _symmetry_equiv_pos_site_id
 _symmetry_equiv_pos_as_xyz
  1  'x, y, z'
loop_
 _atom_site_type_symbol
 _atom_site_label
 _atom_site_symmetry_multiplicity
 _atom_site_fract_x
 _atom_site_fract_y
 _atom_site_fract_z
 _atom_site_occupancy
  Na  Na0  1  0.99580843  0.63771845  0.26347858  1
  Na  Na1  1  0.30529165  0.34639687  0.58685132  1
  Na  Na2  1  0.03297992  0.69348821  0.57815119  1
  Na  Na3  1  0.66834697  0.95619908  0.57665607  1
  Na  Na4  1  0.66378759  0.69377408  0.07668124  1
  Na  Na5  1  0.03808488  0.34300516  0.08283803  1
  Na  Na6  1  0.99115765  0.68111385  0.90782756  1
  Na  Na7  1  0.32647973  0.29995214  0.90533031  1
  Na  Na8  1  0.68610260  0.67477491  0.42117145  1
  Na  Na9  1  0.00083104  0.00751979  0.49574040  1
  Na  Na10  1  0.99789670  0.99251147  0.99413895  1
  Na  Na11  1  0.65444781  0.31681291  0.82669238  1
  Na  Na12  1  0.64775213  0.28449816  0.33957001  1
  Na  Na13  1  0.34159752  0.68010965  0.17532425  1
  Na  Na14  1  0.32676551  0.64656167  0.67709537  1
  Ca  Ca0  1  0.00121177  0.01284199  0.35300144  1
  Ca  Ca1  1  0.99405729  0.00249306  0.84662108  1
  Ca  Ca2  1  0.00205040  0.01012778  0.65762912  1
  Ca  Ca3  1  0.00661425  0.99598628  0.14750147  1
  Ca  Ca4  1  0.66610966  0.33928206  0.68977109  1
  Ca  Ca5  1  0.65450821  0.32308218  0.18654285  1
  Ca  Ca6  1  0.33205151  0.67350793  0.01504518  1
  Ca  Ca7  1  0.32815971  0.66604687  0.50973522  1
  Ca  Ca8  1  0.33826539  0.67590118  0.32637996  1
  Ge  Ge0  1  0.67926198  0.33804655  0.97055980  1
  Ge  Ge1  1  0.70405259  0.34859409  0.48142277  1
  Ge  Ge2  1  0.33930681  0.66564088  0.82342752  1
  P  P0  1  0.31145523  0.32890096  0.75849071  1
  P  P1  1  0.95698766  0.33051409  0.58226887  1
  P  P2  1  0.67102854  0.61901067  0.57796221  1
  P  P3  1  0.94056927  0.61429511  0.07725541  1
  P  P4  1  0.62767553  0.65300614  0.92117114  1
  P  P5  1  0.03332251  0.37795612  0.91970996  1
  P  P6  1  0.35297007  0.97124886  0.91603604  1
  P  P7  1  0.64314666  0.99193431  0.42625256  1
  P  P8  1  0.01009234  0.65912749  0.41988408  1
  S  S0  1  0.29879601  0.99140981  0.25101493  1
  S  S1  1  0.69245274  0.69968358  0.24849541  1
  S  S2  1  0.00752015  0.31396213  0.24565294  1
  S  S3  1  0.02304226  0.69287788  0.75690840  1
  S  S4  1  0.66819646  0.97742323  0.75358290  1
  S  S5  1  0.37583159  0.04813290  0.58153512  1
  S  S6  1  0.67697163  0.04993056  0.07566323  1
  S  S7  1  0.37028293  0.32686172  0.07524117  1
  S  S8  1  0.35229043  0.35864553  0.42314732  1
  O  O0  1  0.20538506  0.99559776  0.30230363  1
  O  O1  1  0.79314471  0.79664617  0.30014527  1
  O  O2  1  0.00768425  0.21261166  0.29465034  1
  O  O3  1  0.21970475  0.22088518  0.81089574  1
  O  O4  1  0.00414734  0.77801445  0.80919100  1
  O  O5  1  0.77859142  0.99584675  0.80245291  1
  O  O6  1  0.73573474  0.95621496  0.69672483  1
  O  O7  1  0.21535141  0.26069625  0.69974894  1
  O  O8  1  0.03537027  0.78642651  0.70264719  1
  O  O9  1  0.77285257  0.78817125  0.19317238  1
  O  O10  1  0.00800270  0.23374603  0.18846328  1
  O  O11  1  0.21108176  0.98855081  0.19611725  1
  O  O12  1  0.87030620  0.35036851  0.63502025  1
  O  O13  1  0.46942747  0.12112053  0.63575877  1
  O  O14  1  0.64089365  0.50808926  0.62976647  1
  O  O15  1  0.85098193  0.51741916  0.13166441  1
  O  O16  1  0.66652944  0.13153694  0.12960260  1
  O  O17  1  0.46556297  0.32848946  0.12684499  1
  O  O18  1  0.45018463  0.31396853  0.01939320  1
  O  O19  1  0.82424135  0.51652938  0.01882408  1
  O  O20  1  0.68282344  0.14833388  0.02218176  1
  O  O21  1  0.46350792  0.15288716  0.52987366  1
  O  O22  1  0.69441722  0.52767446  0.51960808  1
  O  O23  1  0.84754208  0.31127077  0.52502065  1
  O  O24  1  0.56447343  0.67473668  0.97977331  1
  O  O25  1  0.11648195  0.44067250  0.97898024  1
  O  O26  1  0.32028741  0.87227284  0.97099234  1
  O  O27  1  0.56895895  0.88761891  0.48156974  1
  O  O28  1  0.33301156  0.42947142  0.47915243  1
  O  O29  1  0.10577206  0.67440674  0.47630254  1
  O  O30  1  0.09051540  0.63886164  0.36365059  1
  O  O31  1  0.53347673  0.90685852  0.37194273  1
  O  O32  1  0.37047013  0.47285905  0.37448209  1
  O  O33  1  0.13219217  0.51542952  0.87064228  1
  O  O34  1  0.37871985  0.87497047  0.86153157  1
  O  O35  1  0.49624317  0.62438239  0.87062973  1
  O  O36  1  0.96826774  0.80315392  0.41654498  1
  O  O37  1  0.82178686  0.01945234  0.41916759  1
  O  O38  1  0.20929574  0.18802765  0.41522035  1
  O  O39  1  0.01228325  0.20445799  0.90812797  1
  O  O40  1  0.20507988  0.00212376  0.90565553  1
  O  O41  1  0.80779111  0.79111493  0.91001880  1
  O  O42  1  0.96797365  0.16549299  0.58154068  1
  O  O43  1  0.20568008  0.03484114  0.58434069  1
  O  O44  1  0.83628247  0.79251908  0.58102497  1
  O  O45  1  0.94941834  0.78794696  0.07373197  1
  O  O46  1  0.83666753  0.04248006  0.07504491  1
  O  O47  1  0.19455711  0.18417579  0.07593288  1
  O  O48  1  0.63958747  0.12249389  0.75249419  1
  O  O49  1  0.49197430  0.36261854  0.75683443  1
  O  O50  1  0.88193078  0.51840996  0.75431329  1
  O  O51  1  0.68874049  0.53403722  0.24957677  1
  O  O52  1  0.85582995  0.33469657  0.25025550  1
  O  O53  1  0.47115153  0.13843117  0.25286848  1
  O  O54  1  0.62813728  0.47400204  0.91940908  1
  O  O55  1  0.85366874  0.37052748  0.91848450  1
  O  O56  1  0.52009662  0.15512601  0.92037618  1
  O  O57  1  0.64642694  0.16813925  0.43150357  1
  O  O58  1  0.51439755  0.35506386  0.42355867  1
  O  O59  1  0.83131885  0.48748517  0.42218647  1
  O  O60  1  0.36356482  0.48801278  0.07802813  1
  O  O61  1  0.11258453  0.62576185  0.07458207  1
  O  O62  1  0.53543674  0.87431296  0.07467190  1
  O  O63  1  0.34854315  0.87235399  0.57629693  1
  O  O64  1  0.51931848  0.64662887  0.57141174  1
  O  O65  1  0.13504826  0.48672334  0.57740280  1
  O  O66  1  0.30501670  0.83056640  0.25080551  1
  O  O67  1  0.52105425  0.67450944  0.25081719  1
  O  O68  1  0.15720505  0.48721075  0.24808573  1
  O  O69  1  0.31307576  0.50657217  0.76766159  1
  O  O70  1  0.18778029  0.69292805  0.76229774  1
  O  O71  1  0.50197789  0.81442276  0.76121392  1
loop_
_geom_bond_atom_site_label_1
_geom_bond_atom_site_label_2
_geom_bond_distance
_geom_bond_site_symmetry_2
Na0 O52 2.416658 1_555
Na0 O30 2.451783 1_655
Na0 O68 2.496014 1_655
Na0 O51 2.512355 1_555
Na0 O66 2.512762 1_655
Na1 O65 2.478633 1_555
Na1 O64 2.486265 1_555
Na1 O43 2.517993 1_555
Na1 O28 2.565903 1_555
Na1 O42 2.697036 1_455
Na1 O7 2.719199 1_555
Na1 O14 2.847286 1_555
Na2 O44 2.391712 1_455
Na2 O29 2.453542 1_555
Na2 O65 2.491297 1_555
Na2 O63 2.527383 1_555
Na2 O43 2.706515 1_565
Na2 O8 2.959066 1_555
Na3 O27 2.315189 1_555
Na3 O42 2.454011 1_565
Na3 O64 2.454184 1_555
Na3 O44 2.632313 1_555
Na3 O63 2.646446 1_555
Na3 O6 2.818353 1_555
Na4 O45 2.324899 1_555
Na4 O24 2.370721 1_554
Na4 O60 2.450414 1_555
Na4 O62 2.459668 1_555
Na4 O46 2.764054 1_565
Na4 O9 2.817477 1_555
Na5 O61 2.329592 1_555
Na5 O46 2.434808 1_455
Na5 O47 2.503505 1_555
Na5 O25 2.528382 1_554
Na5 O10 2.591764 1_555
Na5 O60 2.606851 1_555
Na6 O41 2.353476 1_555
Na6 O4 2.418969 1_655
Na6 O55 2.481439 1_555
Na6 O33 2.570684 1_655
Na6 O40 2.595964 1_665
Na7 O3 2.326331 1_555
Na7 O40 2.371729 1_555
Na7 O54 2.435977 1_555
Na7 O39 2.572250 1_555
Na7 O35 2.705020 1_555
Na7 O56 2.719217 1_555
Na7 O18 2.824782 1_556
Na8 O36 2.259092 1_555
Na8 O58 2.538205 1_555
Na8 O59 2.642113 1_555
Na8 O22 2.661072 1_555
Na8 O37 2.750526 1_565
Na8 O32 2.756364 1_555
Na8 O27 2.975109 1_555
Na8 O1 2.981178 1_555
Na9 O37 2.446328 1_455
Na9 O36 2.490904 1_445
Na9 O42 2.525935 1_455
Na9 O38 2.596181 1_555
Na9 O44 2.667771 1_445
Na9 O43 2.692452 1_555
Na10 O45 2.506210 1_556
Na10 O46 2.546667 1_566
Na10 O47 2.569503 1_666
Na10 O41 2.617565 1_555
Na10 O39 2.738395 1_665
Na10 O40 2.753486 1_665
Na11 O49 2.368502 1_555
Na11 O48 2.392259 1_555
Na11 O56 2.566538 1_555
Na11 O50 2.602795 1_555
Na11 O54 2.622968 1_555
Na11 O55 2.663734 1_555
Na12 O57 2.369163 1_555
Na12 O53 2.475848 1_555
Na12 O58 2.523019 1_555
Na12 O59 2.579445 1_555
Na12 O52 2.685108 1_555
Na12 O51 2.977219 1_555
Na13 O66 2.318662 1_555
Na13 O67 2.409192 1_555
Na13 O68 2.423097 1_555
Na13 O60 2.883835 1_555
Na13 O62 2.934546 1_555
Na13 O61 2.989296 1_555
Na14 O69 2.422365 1_555
Na14 O71 2.473198 1_555
Na14 O70 2.476232 1_555
Na14 O65 2.792369 1_555
Ca0 O2 2.253801 1_555
Ca0 O37 2.262325 1_455
Ca0 O38 2.268114 1_555
Ca0 O0 2.277585 1_545
Ca0 O1 2.280695 1_445
Ca0 O36 2.319427 1_445
Ca1 O5 2.198951 1_545
Ca1 O3 2.211026 1_655
Ca1 O39 2.242352 1_655
Ca1 O4 2.254140 1_645
Ca1 O41 2.358693 1_545
Ca1 O40 2.367281 1_655
Ca2 O7 2.343065 1_555
Ca2 O42 2.379286 1_455
Ca2 O6 2.420614 1_445
Ca2 O43 2.442388 1_555
Ca2 O8 2.452112 1_545
Ca2 O44 2.497540 1_445
Ca3 O11 2.216368 1_555
Ca3 O9 2.306783 1_455
Ca3 O10 2.346240 1_565
Ca3 O45 2.377099 1_455
Ca3 O47 2.399291 1_565
Ca3 O46 2.461447 1_465
Ca4 O14 2.176025 1_555
Ca4 O12 2.218997 1_555
Ca4 O13 2.262400 1_555
Ca4 O49 2.301629 1_555
Ca4 O50 2.346201 1_555
Ca4 O48 2.375704 1_555
Ca5 O15 2.207267 1_555
Ca5 O16 2.212555 1_555
Ca5 O17 2.231792 1_555
Ca5 O51 2.282019 1_555
Ca5 O53 2.289604 1_555
Ca5 O52 2.317637 1_555
Ca6 O26 2.138241 1_554
Ca6 O25 2.212294 1_554
Ca6 O24 2.280247 1_554
Ca6 O62 2.290252 1_555
Ca6 O61 2.294769 1_555
Ca6 O60 2.364856 1_555
Ca7 O29 2.221541 1_555
Ca7 O27 2.236207 1_555
Ca7 O28 2.282399 1_555
Ca7 O65 2.328178 1_555
Ca7 O64 2.331739 1_555
Ca7 O63 2.338921 1_555
Ca8 O31 2.221160 1_555
Ca8 O30 2.297552 1_555
Ca8 O32 2.311714 1_555
Ca8 O66 2.363009 1_555
Ca8 O67 2.416604 1_555
Ca8 O68 2.452645 1_555
Ge0 O19 1.855758 1_556
Ge0 O55 1.902735 1_555
Ge0 O54 1.938360 1_555
Ge0 O56 1.941163 1_555
Ge0 O20 2.124972 1_556
Ge0 O18 2.298943 1_556
Ge1 O23 1.820158 1_555
Ge1 O57 1.838212 1_555
Ge1 O59 1.842031 1_555
Ge1 O22 1.883505 1_555
Ge1 O58 2.215646 1_555
Ge1 O21 2.334231 1_555
Ge2 O69 1.842593 1_555
Ge2 O34 1.951421 1_555
Ge2 O35 1.986903 1_555
Ge2 O33 2.031273 1_555
Ge2 O71 2.037136 1_555
Ge2 O70 2.078676 1_555
O0 S0 1.466179 1_555
O1 S1 1.481647 1_555
O2 S2 1.465266 1_555
O3 P0 1.527105 1_555
O4 S3 1.474498 1_555
O5 S4 1.461899 1_555
O6 S4 1.493304 1_555
O7 P0 1.551564 1_555
O8 S3 1.490300 1_555
O9 S1 1.496749 1_555
O10 S2 1.491975 1_555
O11 S0 1.486777 1_555
O12 P1 1.504716 1_555
O13 S5 1.460464 1_555
O14 P2 1.505259 1_555
O15 P3 1.523538 1_555
O16 S6 1.460672 1_555
O17 S7 1.466888 1_555
O18 S7 1.506738 1_555
O19 P3 1.657822 1_555
O20 S6 1.514618 1_555
O21 S5 1.493606 1_555
O22 P2 1.634670 1_555
O23 P1 1.606549 1_555
O24 P4 1.511323 1_555
O25 P5 1.515663 1_555
O26 P6 1.501269 1_555
O27 P7 1.538304 1_555
O28 S8 1.477606 1_555
O29 P8 1.528497 1_555
O30 P8 1.538771 1_555
O31 P7 1.536593 1_555
O32 S8 1.489290 1_555
O33 P5 1.603643 1_555
O34 P6 1.600194 1_555
O35 P4 1.596047 1_555
O36 P8 1.545640 1_655
O37 P7 1.543048 1_545
O38 S8 1.464866 1_555
O39 P5 1.516657 1_555
O40 P6 1.539568 1_545
O41 P4 1.527751 1_555
O42 P1 1.559273 1_555
O43 S5 1.510128 1_555
O44 P2 1.558707 1_555
O45 P3 1.550036 1_555
O46 S6 1.504142 1_555
O47 S7 1.489573 1_555
O48 S4 1.473699 1_545
O49 P0 1.531804 1_555
O50 S3 1.472696 1_655
O51 S1 1.496352 1_555
O52 S2 1.502049 1_655
O53 S0 1.483690 1_545
O54 P4 1.636432 1_555
O55 P5 1.620342 1_655
O56 P6 1.619495 1_545
O57 P7 1.596819 1_545
O58 S8 1.507864 1_555
O59 P8 1.614011 1_655
O60 S7 1.503500 1_555
O61 P3 1.534407 1_455
O62 S6 1.480353 1_565
O63 S5 1.499102 1_565
O64 P2 1.544320 1_555
O65 P1 1.553410 1_455
O66 S0 1.497791 1_555
O67 S1 1.477197 1_555
O68 S2 1.494871 1_555
O69 P0 1.625392 1_555
O70 S3 1.520344 1_555
O71 S4 1.526432 1_555
