# generated using pymatgen
data_Na7Y2In2SiP5O24
_symmetry_space_group_name_H-M   'P 1'
_cell_length_a   9.29405781
_cell_length_b   9.31105365
_cell_length_c   23.00634396
_cell_angle_alpha   89.89008292
_cell_angle_beta   89.87559912
_cell_angle_gamma   120.03135337
_symmetry_Int_Tables_number   1
_chemical_formula_structural   Na7Y2In2SiP5O24
_chemical_formula_sum   'Na21 Y6 In6 Si3 P15 O72'
_cell_volume   1723.61991095
_cell_formula_units_Z   3
loop_
 _symmetry_equiv_pos_site_id
 _symmetry_equiv_pos_as_xyz
  1  'x, y, z'
loop_
 _atom_site_type_symbol
 _atom_site_label
 _atom_site_symmetry_multiplicity
 _atom_site_fract_x
 _atom_site_fract_y
 _atom_site_fract_z
 _atom_site_occupancy
  Na  Na0  1  0.36417808  0.36075050  0.24960238  1
  Na  Na1  1  0.99494179  0.63084150  0.24578886  1
  Na  Na2  1  0.63837399  0.63964849  0.74716475  1
  Na  Na3  1  0.99124156  0.35849894  0.75174589  1
  Na  Na4  1  0.37597763  0.00566985  0.74578193  1
  Na  Na5  1  0.29859100  0.32265274  0.58242788  1
  Na  Na6  1  0.03611978  0.70590856  0.58424275  1
  Na  Na7  1  0.66556894  0.97049829  0.58894285  1
  Na  Na8  1  0.29615006  0.96352388  0.08311919  1
  Na  Na9  1  0.67353528  0.69589566  0.08158492  1
  Na  Na10  1  0.02906867  0.33989354  0.08526540  1
  Na  Na11  1  0.96679528  0.66508440  0.92022601  1
  Na  Na12  1  0.69966034  0.03253067  0.91338502  1
  Na  Na13  1  0.96950032  0.30619717  0.41679726  1
  Na  Na14  1  0.33727469  0.03531719  0.42084602  1
  Na  Na15  1  0.99390798  0.98880825  0.50136439  1
  Na  Na16  1  0.01219022  0.00597493  0.99638552  1
  Na  Na17  1  0.65489523  0.32779083  0.83442216  1
  Na  Na18  1  0.66674698  0.33366470  0.33352327  1
  Na  Na19  1  0.33807452  0.67811572  0.16737016  1
  Na  Na20  1  0.34126346  0.68069065  0.66696777  1
  Y  Y0  1  0.98961529  0.99158275  0.34887306  1
  Y  Y1  1  0.99390384  0.99663993  0.15103280  1
  Y  Y2  1  0.33021905  0.66252754  0.01391049  1
  Y  Y3  1  0.33949377  0.67006094  0.51620930  1
  Y  Y4  1  0.34355706  0.67491636  0.31832797  1
  Y  Y5  1  0.33678650  0.66743746  0.81832981  1
  In  In0  1  0.00328480  0.00584878  0.84811084  1
  In  In1  1  0.00091429  0.00075944  0.65149876  1
  In  In2  1  0.66592325  0.32787573  0.68227825  1
  In  In3  1  0.67007368  0.32816913  0.18227013  1
  In  In4  1  0.66343424  0.33646812  0.98364486  1
  In  In5  1  0.66060041  0.33581443  0.48554432  1
  Si  Si0  1  0.70534033  0.00383436  0.74903745  1
  Si  Si1  1  0.36401851  0.03525890  0.58474771  1
  Si  Si2  1  0.96353087  0.62975384  0.08293697  1
  P  P0  1  0.30590828  0.00499077  0.24909679  1
  P  P1  1  0.69375395  0.68662514  0.24621422  1
  P  P2  1  0.99809018  0.30595505  0.25020150  1
  P  P3  1  0.29791970  0.29500134  0.74776633  1
  P  P4  1  0.99653956  0.70170428  0.74970874  1
  P  P5  1  0.96140219  0.33126935  0.58332611  1
  P  P6  1  0.67161742  0.62885406  0.58633053  1
  P  P7  1  0.66446396  0.03990039  0.08063293  1
  P  P8  1  0.37402917  0.33299797  0.08533695  1
  P  P9  1  0.64452402  0.66799425  0.91591526  1
  P  P10  1  0.02265755  0.35637048  0.91678596  1
  P  P11  1  0.33287637  0.97512610  0.91631533  1
  P  P12  1  0.63904751  0.98000795  0.42082607  1
  P  P13  1  0.33559390  0.36108090  0.41674054  1
  P  P14  1  0.02695099  0.66066624  0.41794048  1
  O  O0  1  0.21922845  0.02654846  0.30349998  1
  O  O1  1  0.80889653  0.78183205  0.29743900  1
  O  O2  1  0.98553888  0.20350266  0.30484643  1
  O  O3  1  0.21562138  0.17701607  0.79970108  1
  O  O4  1  0.97241683  0.78335974  0.80464560  1
  O  O5  1  0.81759213  0.03250365  0.80744786  1
  O  O6  1  0.78615745  0.97023307  0.69061720  1
  O  O7  1  0.19745611  0.22347112  0.69090652  1
  O  O8  1  0.03088318  0.81016974  0.69444293  1
  O  O9  1  0.76947205  0.78241897  0.18902621  1
  O  O10  1  0.01820396  0.22260969  0.19492196  1
  O  O11  1  0.19859541  0.98232120  0.19443366  1
  O  O12  1  0.88747149  0.36530066  0.63873747  1
  O  O13  1  0.47842001  0.11592563  0.64275056  1
  O  O14  1  0.64638120  0.52844709  0.64311372  1
  O  O15  1  0.88156630  0.51671934  0.14165058  1
  O  O16  1  0.62821813  0.11785457  0.13359119  1
  O  O17  1  0.47365035  0.35772917  0.14201729  1
  O  O18  1  0.45350921  0.29701989  0.03273661  1
  O  O19  1  0.85068661  0.54692255  0.02459472  1
  O  O20  1  0.68928624  0.14016582  0.02404415  1
  O  O21  1  0.44511542  0.14933508  0.52615123  1
  O  O22  1  0.70299014  0.54664266  0.53366885  1
  O  O23  1  0.85566302  0.30892638  0.52858586  1
  O  O24  1  0.55961576  0.68915577  0.97066547  1
  O  O25  1  0.12323775  0.44230895  0.97210594  1
  O  O26  1  0.30719227  0.86547584  0.97088621  1
  O  O27  1  0.56281087  0.88314450  0.47774362  1
  O  O28  1  0.31509368  0.44499517  0.47181486  1
  O  O29  1  0.13574811  0.68416094  0.47227080  1
  O  O30  1  0.11274956  0.63857431  0.36331698  1
  O  O31  1  0.52440143  0.88650142  0.36928205  1
  O  O32  1  0.34891296  0.46343115  0.36196072  1
  O  O33  1  0.10978932  0.46427116  0.86251716  1
  O  O34  1  0.35822449  0.88963719  0.86237638  1
  O  O35  1  0.54245468  0.65396526  0.86110821  1
  O  O36  1  0.01651882  0.82141326  0.41348250  1
  O  O37  1  0.81702633  0.00691923  0.41460439  1
  O  O38  1  0.17601277  0.18529289  0.41376325  1
  O  O39  1  0.00043017  0.17948571  0.91420853  1
  O  O40  1  0.16991048  0.98262250  0.91116179  1
  O  O41  1  0.82062888  0.82819831  0.91333650  1
  O  O42  1  0.97315025  0.17008122  0.58737651  1
  O  O43  1  0.17675875  0.01671114  0.58802140  1
  O  O44  1  0.82620625  0.80672988  0.58844285  1
  O  O45  1  0.98513769  0.81719809  0.08546908  1
  O  O46  1  0.82574866  0.02915393  0.08708069  1
  O  O47  1  0.19373665  0.18224288  0.08886927  1
  O  O48  1  0.69000310  0.17387379  0.74677861  1
  O  O49  1  0.47756965  0.32215090  0.74484529  1
  O  O50  1  0.83528883  0.52874857  0.74479066  1
  O  O51  1  0.68041797  0.51257508  0.24650581  1
  O  O52  1  0.84334545  0.32848559  0.24850826  1
  O  O53  1  0.47743753  0.16661321  0.24526924  1
  O  O54  1  0.66668321  0.51334209  0.91818793  1
  O  O55  1  0.84690469  0.34127336  0.91874276  1
  O  O56  1  0.49460976  0.14610594  0.92085748  1
  O  O57  1  0.65232339  0.15416302  0.42132814  1
  O  O58  1  0.49020406  0.33833163  0.41877224  1
  O  O59  1  0.85582247  0.49872133  0.42252997  1
  O  O60  1  0.36302268  0.49401013  0.07837645  1
  O  O61  1  0.15092545  0.65007936  0.08018799  1
  O  O62  1  0.51327231  0.86024354  0.07694165  1
  O  O63  1  0.34244801  0.84802256  0.58142961  1
  O  O64  1  0.51143624  0.64239900  0.58063405  1
  O  O65  1  0.14058216  0.48329191  0.57854758  1
  O  O66  1  0.31624903  0.84417335  0.25339977  1
  O  O67  1  0.51589796  0.66039832  0.25226739  1
  O  O68  1  0.15768362  0.48185802  0.25302912  1
  O  O69  1  0.31030656  0.46730491  0.75514982  1
  O  O70  1  0.14913500  0.67547278  0.75500019  1
  O  O71  1  0.51712132  0.83823323  0.75230528  1
loop_
_geom_bond_atom_site_label_1
_geom_bond_atom_site_label_2
_geom_bond_distance
_geom_bond_site_symmetry_2
Na0 O67 2.416510 1_555
Na0 O53 2.508048 1_555
Na0 O51 2.545964 1_555
Na0 O68 2.669620 1_555
Na0 O17 2.679604 1_555
Na0 O32 2.785649 1_555
Na1 O52 2.437895 1_555
Na1 O68 2.517970 1_655
Na1 O51 2.556497 1_555
Na1 O15 2.622877 1_555
Na1 O66 2.638213 1_655
Na1 O30 2.906844 1_655
Na1 O1 2.968009 1_555
Na2 O50 2.511972 1_555
Na2 O49 2.560153 1_555
Na2 O71 2.605541 1_555
Na2 O14 2.625624 1_555
Na2 O69 2.646626 1_555
Na2 O35 2.791864 1_555
Na2 O6 2.966266 1_555
Na2 O4 3.007381 1_555
Na3 O48 2.447730 1_555
Na3 O70 2.556519 1_655
Na3 O69 2.611583 1_655
Na3 O50 2.634234 1_555
Na3 O33 2.759370 1_655
Na3 O12 2.786592 1_555
Na3 O5 2.921131 1_555
Na4 O71 2.494164 1_545
Na4 O48 2.529147 1_555
Na4 O13 2.565462 1_555
Na4 O49 2.605788 1_555
Na4 O70 2.729436 1_545
Na4 O34 2.863271 1_545
Na4 O3 2.947011 1_555
Na4 O8 3.029252 1_545
Na5 O43 2.486521 1_555
Na5 O65 2.569131 1_555
Na5 O42 2.622334 1_455
Na5 O64 2.623488 1_555
Na5 O7 2.660255 1_555
Na5 O28 2.758527 1_555
Na5 O21 2.887067 1_555
Na6 O63 2.467538 1_555
Na6 O43 2.511171 1_565
Na6 O44 2.555292 1_455
Na6 O65 2.696495 1_555
Na6 O8 2.725573 1_555
Na6 O29 2.777377 1_555
Na6 O22 2.926676 1_455
Na6 O12 3.021589 1_455
Na7 O42 2.511697 1_565
Na7 O6 2.596513 1_555
Na7 O44 2.614002 1_555
Na7 O63 2.631362 1_555
Na7 O64 2.654125 1_555
Na7 O27 2.712850 1_555
Na8 O45 2.504321 1_455
Na8 O61 2.530254 1_555
Na8 O62 2.637944 1_555
Na8 O47 2.647940 1_565
Na8 O11 2.749833 1_555
Na8 O26 2.759119 1_554
Na8 O16 2.919094 1_565
Na8 O18 2.925388 1_565
Na9 O45 2.529470 1_555
Na9 O60 2.537513 1_555
Na9 O9 2.617672 1_555
Na9 O62 2.617861 1_555
Na9 O46 2.693365 1_565
Na9 O24 2.753675 1_554
Na9 O19 2.938960 1_555
Na10 O61 2.522264 1_555
Na10 O46 2.543710 1_455
Na10 O47 2.598565 1_555
Na10 O60 2.693823 1_555
Na10 O10 2.728588 1_555
Na10 O25 2.756474 1_554
Na10 O15 2.921057 1_455
Na11 O54 2.415490 1_555
Na11 O41 2.498480 1_555
Na11 O40 2.599606 1_655
Na11 O19 2.632618 1_556
Na11 O55 2.640255 1_555
Na11 O4 2.866498 1_555
Na12 O39 2.420435 1_655
Na12 O55 2.493253 1_555
Na12 O56 2.606970 1_555
Na12 O41 2.650427 1_545
Na12 O5 2.670227 1_555
Na12 O20 2.756910 1_556
Na13 O37 2.413306 1_555
Na13 O59 2.498621 1_555
Na13 O57 2.554570 1_555
Na13 O38 2.668050 1_655
Na13 O2 2.778594 1_555
Na13 O23 2.783842 1_555
Na14 O58 2.442935 1_555
Na14 O38 2.513567 1_555
Na14 O57 2.560325 1_555
Na14 O36 2.634956 1_545
Na14 O21 2.637497 1_555
Na14 O0 2.902206 1_555
Na14 O31 2.959976 1_545
Na15 O43 2.550489 1_665
Na15 O44 2.577876 1_555
Na15 O36 2.626672 1_655
Na15 O37 2.646806 1_565
Na15 O42 2.671866 1_565
Na15 O38 2.673016 1_665
Na16 O40 2.519624 1_545
Na16 O39 2.522354 1_555
Na16 O41 2.576316 1_445
Na16 O45 2.625785 1_446
Na16 O47 2.706459 1_556
Na16 O46 2.786266 1_456
Na17 O56 2.546980 1_555
Na17 O54 2.556362 1_555
Na17 O48 2.588885 1_555
Na17 O55 2.599104 1_555
Na17 O49 2.625736 1_555
Na17 O50 2.719264 1_555
Na18 O51 2.563833 1_555
Na18 O52 2.566588 1_555
Na18 O58 2.568735 1_555
Na18 O57 2.579470 1_555
Na18 O53 2.631710 1_555
Na18 O59 2.639613 1_555
Na19 O66 2.583227 1_555
Na19 O61 2.584423 1_555
Na19 O67 2.619009 1_555
Na19 O68 2.634203 1_555
Na19 O62 2.657659 1_555
Na19 O60 2.755628 1_555
Na20 O63 2.504253 1_555
Na20 O71 2.510553 1_555
Na20 O64 2.669672 1_555
Na20 O70 2.681391 1_555
Na20 O69 2.748811 1_555
Na20 O65 2.755812 1_555
In0 O5 2.085699 1_455
In0 O3 2.123785 1_555
In0 O4 2.188178 1_445
In0 O40 2.212003 1_545
In0 O39 2.231407 1_555
In0 O41 2.244661 1_445
In1 O6 2.073154 1_445
In1 O43 2.138124 1_555
In1 O7 2.163732 1_555
In1 O8 2.166124 1_545
In1 O44 2.255866 1_445
In1 O42 2.264584 1_455
In2 O13 2.080837 1_555
In2 O48 2.150051 1_555
In2 O12 2.153180 1_555
In2 O14 2.160158 1_555
In2 O49 2.243809 1_555
In2 O50 2.262206 1_555
In3 O15 2.085839 1_555
In3 O16 2.118516 1_555
In3 O17 2.185261 1_555
In3 O53 2.203078 1_555
In3 O52 2.218463 1_555
In3 O51 2.233042 1_555
In4 O19 2.087311 1_556
In4 O18 2.118644 1_556
In4 O20 2.167118 1_556
In4 O54 2.218435 1_555
In4 O56 2.219489 1_555
In4 O55 2.247556 1_555
In5 O21 2.098445 1_555
In5 O22 2.114393 1_555
In5 O23 2.188852 1_555
In5 O58 2.217206 1_555
In5 O59 2.218096 1_555
In5 O57 2.220165 1_555
O0 P0 1.553797 1_555
O0 Y0 2.245744 1_445
O1 P1 1.542668 1_555
O1 Y0 2.183949 1_555
O2 P2 1.545150 1_555
O2 Y0 2.233432 1_545
O3 P3 1.539297 1_555
O4 P4 1.548815 1_555
O5 Si0 1.641406 1_555
O6 Si0 1.643456 1_565
O7 P3 1.553323 1_555
O8 P4 1.552129 1_455
O9 P1 1.544352 1_555
O9 Y1 2.216835 1_555
O10 P2 1.550020 1_455
O10 Y1 2.242978 1_445
O11 P0 1.554542 1_565
O11 Y1 2.212592 1_455
O12 P5 1.553499 1_555
O13 Si1 1.638905 1_555
O14 P6 1.552466 1_555
O15 Si2 1.643226 1_555
O16 P7 1.539842 1_555
O17 P8 1.550390 1_555
O18 P8 1.538732 1_555
O19 Si2 1.642201 1_555
O20 P7 1.548608 1_555
O21 Si1 1.643899 1_555
O22 P6 1.537616 1_555
O23 P5 1.548169 1_555
O24 P9 1.549335 1_555
O24 Y2 2.248908 1_556
O25 P10 1.547347 1_555
O25 Y2 2.213009 1_556
O26 P11 1.557369 1_555
O26 Y2 2.234934 1_556
O27 P12 1.543359 1_555
O27 Y3 2.211516 1_555
O28 P13 1.550476 1_555
O28 Y3 2.240461 1_555
O29 P14 1.554926 1_555
O29 Y3 2.209420 1_555
O30 P14 1.555079 1_555
O30 Y4 2.247190 1_555
O31 P12 1.542874 1_555
O31 Y4 2.187110 1_555
O32 P13 1.545464 1_555
O32 Y4 2.231244 1_555
O33 P10 1.549324 1_555
O33 Y5 2.247547 1_555
O34 P11 1.555395 1_555
O34 Y5 2.223351 1_555
O35 P9 1.545530 1_555
O35 Y5 2.210393 1_555
O36 P14 1.550746 1_555
O36 Y0 2.274121 1_455
O37 P12 1.550300 1_545
O37 Y0 2.258275 1_545
O38 P13 1.566668 1_555
O38 Y0 2.318836 1_445
O39 P10 1.555190 1_555
O40 P11 1.555491 1_555
O41 P9 1.569377 1_555
O42 P5 1.560972 1_555
O43 Si1 1.662236 1_555
O44 P6 1.558349 1_555
O45 Si2 1.655122 1_555
O45 Y1 2.224264 1_555
O46 P7 1.558854 1_555
O46 Y1 2.276121 1_545
O47 P8 1.558653 1_555
O47 Y1 2.290762 1_445
O48 Si0 1.659910 1_555
O49 P3 1.559875 1_555
O50 P4 1.561377 1_555
O51 P1 1.562248 1_555
O52 P2 1.554405 1_555
O53 P0 1.552874 1_555
O54 P9 1.554116 1_555
O55 P10 1.568373 1_655
O56 P11 1.552707 1_545
O57 P12 1.563536 1_545
O58 P13 1.554610 1_555
O59 P14 1.553256 1_655
O60 P8 1.560879 1_555
O60 Y2 2.286148 1_555
O61 Si2 1.656120 1_455
O61 Y2 2.215896 1_555
O62 P7 1.558283 1_565
O62 Y2 2.296157 1_555
O63 Si1 1.654113 1_565
O63 Y3 2.227568 1_555
O64 P6 1.561450 1_555
O64 Y3 2.288610 1_555
O65 P5 1.558236 1_455
O65 Y3 2.293398 1_555
O66 P0 1.550710 1_565
O66 Y4 2.274283 1_555
O67 P1 1.551217 1_555
O67 Y4 2.258459 1_555
O68 P2 1.567167 1_455
O68 Y4 2.320735 1_555
O69 P3 1.559562 1_555
O69 Y5 2.280062 1_555
O70 P4 1.559875 1_455
O70 Y5 2.304628 1_555
O71 Si0 1.656021 1_565
O71 Y5 2.226478 1_555
