# generated using pymatgen
data_MgMoW2(Se2S)2
_symmetry_space_group_name_H-M   'P 1'
_cell_length_a   3.27070100
_cell_length_b   3.27074853
_cell_length_c   38.13872006
_cell_angle_alpha   90.00257539
_cell_angle_beta   89.99409682
_cell_angle_gamma   120.00069415
_symmetry_Int_Tables_number   1
_chemical_formula_structural   MgMoW2(Se2S)2
_chemical_formula_sum   'Mg1 Mo1 W2 Se4 S2'
_cell_volume   353.33096872
_cell_formula_units_Z   1
loop_
 _symmetry_equiv_pos_site_id
 _symmetry_equiv_pos_as_xyz
  1  'x, y, z'
loop_
 _atom_site_type_symbol
 _atom_site_label
 _atom_site_symmetry_multiplicity
 _atom_site_fract_x
 _atom_site_fract_y
 _atom_site_fract_z
 _atom_site_occupancy
  Mg  Mg0  1  0.00016700  0.00006400  0.45897000  1
  Mo  Mo0  1  0.66650600  0.33320500  0.33872000  1
  W  W0  1  0.33334000  0.66664500  0.11559700  1
  W  W1  1  0.33336100  0.66672700  0.58773400  1
  Se  Se0  1  0.33345200  0.66671800  0.38358400  1
  Se  Se1  1  0.66682800  0.33345200  0.54280300  1
  Se  Se2  1  0.66656400  0.33333600  0.63235000  1
  Se  Se3  1  0.33297700  0.66640500  0.29440900  1
  S  S0  1  0.66693700  0.33341200  0.07505500  1
  S  S1  1  0.66646900  0.33323400  0.15611900  1
loop_
_geom_bond_atom_site_label_1
_geom_bond_atom_site_label_2
_geom_bond_distance
_geom_bond_site_symmetry_2
Mo0 Se3 2.533589 1_655
Mo0 Se3 2.534383 1_555
Mo0 Se3 2.534431 1_545
Mo0 Se0 2.547866 1_545
Mo0 Se0 2.547940 1_555
Mo0 Se0 2.548937 1_655
Se1 W1 2.549787 1_655
Se1 W1 2.550024 1_555
Se1 W1 2.550082 1_545
Se2 W1 2.541800 1_545
Se2 W1 2.541871 1_555
Se2 W1 2.542048 1_655
S0 W0 2.440143 1_655
S0 W0 2.440842 1_545
S0 W0 2.440891 1_555
S1 W0 2.439977 1_555
S1 W0 2.439986 1_545
S1 W0 2.440463 1_655
