# generated using pymatgen
data_Na6Y4Hf4Si5S7O48
_symmetry_space_group_name_H-M   'P 1'
_cell_length_a   18.30060255
_cell_length_b   9.10217741
_cell_length_c   23.59750268
_cell_angle_alpha   89.96686462
_cell_angle_beta   89.69423597
_cell_angle_gamma   119.83825087
_symmetry_Int_Tables_number   1
_chemical_formula_structural   Na6Y4Hf4Si5S7O48
_chemical_formula_sum   'Na18 Y12 Hf12 Si15 S21 O144'
_cell_volume   3409.60215820
_cell_formula_units_Z   3
loop_
 _symmetry_equiv_pos_site_id
 _symmetry_equiv_pos_as_xyz
  1  'x, y, z'
loop_
 _atom_site_type_symbol
 _atom_site_label
 _atom_site_symmetry_multiplicity
 _atom_site_fract_x
 _atom_site_fract_y
 _atom_site_fract_z
 _atom_site_occupancy
  Na  Na0  1  0.99822498  0.62536348  0.25859109  1
  Na  Na1  1  0.49816643  0.62573868  0.25100274  1
  Na  Na2  1  0.99831042  0.37622310  0.74977465  1
  Na  Na3  1  0.50039204  0.36022699  0.75527923  1
  Na  Na4  1  0.66317430  0.30862524  0.91952663  1
  Na  Na5  1  0.16387884  0.01146056  0.43418975  1
  Na  Na6  1  0.00399166  0.99285772  0.50903892  1
  Na  Na7  1  0.50626040  0.99024199  0.50399861  1
  Na  Na8  1  0.00784493  0.01917593  0.99534541  1
  Na  Na9  1  0.50583432  0.02129227  0.00252324  1
  Na  Na10  1  0.33033632  0.31484747  0.84194268  1
  Na  Na11  1  0.82835409  0.32991868  0.81756703  1
  Na  Na12  1  0.34472146  0.35224958  0.32584673  1
  Na  Na13  1  0.82443394  0.33944186  0.34657915  1
  Na  Na14  1  0.19277681  0.65196627  0.16452502  1
  Na  Na15  1  0.67301935  0.64776726  0.15920187  1
  Na  Na16  1  0.17539016  0.70244991  0.66322392  1
  Na  Na17  1  0.68761241  0.70088823  0.67438047  1
  Y  Y0  1  0.99519863  0.99264905  0.35876102  1
  Y  Y1  1  0.50018733  0.00662347  0.85519601  1
  Y  Y2  1  0.32231878  0.33239674  0.67796389  1
  Y  Y3  1  0.82409773  0.31464697  0.68789167  1
  Y  Y4  1  0.33053305  0.34372908  0.18499456  1
  Y  Y5  1  0.82060879  0.31297750  0.17782653  1
  Y  Y6  1  0.83216881  0.32145702  0.98847156  1
  Y  Y7  1  0.33425740  0.34768365  0.49101122  1
  Y  Y8  1  0.17016559  0.66437866  0.31426389  1
  Y  Y9  1  0.66975392  0.64805104  0.31406492  1
  Y  Y10  1  0.17111101  0.69230422  0.81428441  1
  Y  Y11  1  0.66728432  0.66228628  0.81106729  1
  Hf  Hf0  1  0.49860283  0.01522025  0.35227419  1
  Hf  Hf1  1  0.99876314  0.98033862  0.85120417  1
  Hf  Hf2  1  0.99882131  0.98500608  0.64980488  1
  Hf  Hf3  1  0.50938507  0.00049823  0.64358693  1
  Hf  Hf4  1  0.00330691  0.01568830  0.13987642  1
  Hf  Hf5  1  0.49799893  0.01273964  0.14861398  1
  Hf  Hf6  1  0.32714914  0.32098135  0.98099082  1
  Hf  Hf7  1  0.82823652  0.33595318  0.48203328  1
  Hf  Hf8  1  0.16252779  0.66555314  0.01621905  1
  Hf  Hf9  1  0.66532324  0.65737368  0.02048639  1
  Hf  Hf10  1  0.16436435  0.67246504  0.52247163  1
  Hf  Hf11  1  0.66198927  0.65642200  0.51752347  1
  Si  Si0  1  0.35755279  0.71798447  0.25092775  1
  Si  Si1  1  0.49939211  0.29675953  0.24946520  1
  Si  Si2  1  0.64340083  0.29173485  0.75082345  1
  Si  Si3  1  0.00233688  0.70364541  0.74889382  1
  Si  Si4  1  0.85869757  0.99930719  0.75132139  1
  Si  Si5  1  0.17597561  0.03093150  0.57920127  1
  Si  Si6  1  0.68745899  0.03124994  0.58164318  1
  Si  Si7  1  0.33405184  0.64870277  0.58379027  1
  Si  Si8  1  0.83074134  0.02184819  0.08353911  1
  Si  Si9  1  0.18736696  0.34464016  0.08296297  1
  Si  Si10  1  0.67620153  0.32453139  0.07953427  1
  Si  Si11  1  0.51717991  0.37616015  0.91650435  1
  Si  Si12  1  0.16247420  0.96527763  0.91919614  1
  Si  Si13  1  0.66392842  0.36071334  0.41835894  1
  Si  Si14  1  0.01886831  0.65613725  0.41426916  1
  S  S0  1  0.14042555  0.99643121  0.24938402  1
  S  S1  1  0.64177980  0.00440209  0.25178191  1
  S  S2  1  0.85958873  0.71299980  0.24631571  1
  S  S3  1  0.99889497  0.29097602  0.24736635  1
  S  S4  1  0.14192090  0.27968937  0.75188973  1
  S  S5  1  0.49650692  0.70412608  0.74788013  1
  S  S6  1  0.35702181  0.00354900  0.74586285  1
  S  S7  1  0.48683960  0.33457016  0.58526697  1
  S  S8  1  0.98008692  0.32971968  0.58075111  1
  S  S9  1  0.83233199  0.63265443  0.58007452  1
  S  S10  1  0.48122120  0.63244665  0.08132190  1
  S  S11  1  0.98754388  0.63779436  0.08720370  1
  S  S12  1  0.33104189  0.03222103  0.08129194  1
  S  S13  1  0.31050432  0.65879093  0.92028798  1
  S  S14  1  0.81549030  0.67198562  0.91919439  1
  S  S15  1  0.02115755  0.37243903  0.91579016  1
  S  S16  1  0.66734328  0.96032875  0.91891670  1
  S  S17  1  0.31488633  0.96014853  0.41829082  1
  S  S18  1  0.80968698  0.96203495  0.41968069  1
  S  S19  1  0.16917729  0.37134580  0.41818455  1
  S  S20  1  0.52041652  0.66861807  0.41530149  1
  O  O0  1  0.10263845  0.01342917  0.30287985  1
  O  O1  1  0.59822003  0.01667311  0.30365552  1
  O  O2  1  0.41485677  0.81725002  0.30722475  1
  O  O3  1  0.90561027  0.79434152  0.29923986  1
  O  O4  1  0.49810982  0.19003935  0.30660423  1
  O  O5  1  0.99283260  0.19629987  0.29945203  1
  O  O6  1  0.09897348  0.17983277  0.80385525  1
  O  O7  1  0.60211786  0.19909687  0.81182324  1
  O  O8  1  0.48605855  0.78129768  0.79970774  1
  O  O9  1  0.00063209  0.80708315  0.80635022  1
  O  O10  1  0.40155164  0.01200050  0.79923643  1
  O  O11  1  0.91643231  0.01086932  0.80732376  1
  O  O12  1  0.40232803  0.99374445  0.69567642  1
  O  O13  1  0.91036334  0.99343912  0.69412650  1
  O  O14  1  0.09337893  0.19482232  0.69990823  1
  O  O15  1  0.58073758  0.17322377  0.69921532  1
  O  O16  1  0.01061946  0.82033768  0.69310397  1
  O  O17  1  0.49823678  0.80097322  0.69646059  1
  O  O18  1  0.40917362  0.82290804  0.19353003  1
  O  O19  1  0.90751860  0.81547183  0.19660157  1
  O  O20  1  0.00288570  0.19657523  0.19675497  1
  O  O21  1  0.50708990  0.19764709  0.19336804  1
  O  O22  1  0.08687511  0.98682382  0.20062983  1
  O  O23  1  0.59279967  0.99176702  0.19981876  1
  O  O24  1  0.44993204  0.36226109  0.63703336  1
  O  O25  1  0.95053551  0.36697892  0.63453480  1
  O  O26  1  0.23807291  0.11886216  0.63225122  1
  O  O27  1  0.74107069  0.09796210  0.63836156  1
  O  O28  1  0.31486865  0.52781042  0.63884092  1
  O  O29  1  0.81726783  0.53208362  0.63195456  1
  O  O30  1  0.45079251  0.53515017  0.13550137  1
  O  O31  1  0.95115916  0.53713665  0.13888027  1
  O  O32  1  0.31600593  0.10214803  0.13315949  1
  O  O33  1  0.81632725  0.10346469  0.14046529  1
  O  O34  1  0.23816401  0.37748746  0.14137643  1
  O  O35  1  0.73663124  0.36077649  0.13405506  1
  O  O36  1  0.23748001  0.31487371  0.03098138  1
  O  O37  1  0.71879908  0.30476977  0.02121040  1
  O  O38  1  0.42425208  0.53798055  0.03440424  1
  O  O39  1  0.93365441  0.56305020  0.03719592  1
  O  O40  1  0.34454917  0.14249385  0.03159174  1
  O  O41  1  0.85654422  0.14889438  0.02973732  1
  O  O42  1  0.21767674  0.13184623  0.51971969  1
  O  O43  1  0.73820378  0.16170989  0.52897151  1
  O  O44  1  0.35695187  0.57028771  0.52871131  1
  O  O45  1  0.84609102  0.54964825  0.53013359  1
  O  O46  1  0.43437956  0.30922035  0.53508818  1
  O  O47  1  0.92441000  0.31286846  0.53298365  1
  O  O48  1  0.26139615  0.67373286  0.96866808  1
  O  O49  1  0.77456773  0.69369644  0.97049670  1
  O  O50  1  0.07503218  0.46591668  0.96634219  1
  O  O51  1  0.58782926  0.49278687  0.96472990  1
  O  O52  1  0.15294493  0.83976756  0.97305508  1
  O  O53  1  0.66698105  0.86595407  0.96981544  1
  O  O54  1  0.27365773  0.85668892  0.46922013  1
  O  O55  1  0.76243492  0.84857552  0.46780359  1
  O  O56  1  0.16458991  0.46108336  0.46839410  1
  O  O57  1  0.65309405  0.46650502  0.47120353  1
  O  O58  1  0.09116298  0.68645780  0.46149963  1
  O  O59  1  0.57322055  0.68072495  0.46520048  1
  O  O60  1  0.05169374  0.63641398  0.35109614  1
  O  O61  1  0.56147735  0.65731729  0.36216444  1
  O  O62  1  0.26263541  0.88067366  0.36747909  1
  O  O63  1  0.76483677  0.89439065  0.36582726  1
  O  O64  1  0.17587133  0.46444640  0.36527581  1
  O  O65  1  0.68341781  0.47222761  0.36065687  1
  O  O66  1  0.06295997  0.46654284  0.86327489  1
  O  O67  1  0.54974071  0.46540514  0.85459481  1
  O  O68  1  0.18151227  0.89110642  0.86228153  1
  O  O69  1  0.67355205  0.87977276  0.86650165  1
  O  O70  1  0.26458681  0.63435853  0.86681243  1
  O  O71  1  0.76307955  0.64577980  0.86869086  1
  O  O72  1  0.01605042  0.83676168  0.41607515  1
  O  O73  1  0.51239610  0.82294862  0.41406029  1
  O  O74  1  0.39917885  0.97368166  0.41228474  1
  O  O75  1  0.89404626  0.97575505  0.41821628  1
  O  O76  1  0.09116659  0.20027727  0.41631687  1
  O  O77  1  0.57927023  0.17288669  0.41293284  1
  O  O78  1  0.01329854  0.20252297  0.91503836  1
  O  O79  1  0.51271515  0.18998863  0.92019102  1
  O  O80  1  0.07796563  0.98346579  0.91476864  1
  O  O81  1  0.58865194  0.97228509  0.91954291  1
  O  O82  1  0.39385761  0.81214795  0.91961774  1
  O  O83  1  0.89997219  0.82712025  0.91357668  1
  O  O84  1  0.49925507  0.18692045  0.59084990  1
  O  O85  1  0.98717040  0.17489568  0.58506758  1
  O  O86  1  0.08382834  0.01829116  0.58762083  1
  O  O87  1  0.59301882  0.01467626  0.58739667  1
  O  O88  1  0.41363985  0.83953893  0.59428616  1
  O  O89  1  0.90823419  0.80398465  0.58529169  1
  O  O90  1  0.48804933  0.80112282  0.08669687  1
  O  O91  1  0.00144974  0.81266972  0.09482392  1
  O  O92  1  0.40721332  0.01298012  0.08664408  1
  O  O93  1  0.91251066  0.99156528  0.09390410  1
  O  O94  1  0.09231082  0.17164736  0.08934417  1
  O  O95  1  0.58383576  0.15197969  0.08864872  1
  O  O96  1  0.35195344  0.16247587  0.74415918  1
  O  O97  1  0.85823318  0.17756158  0.74991887  1
  O  O98  1  0.22696497  0.29861754  0.75015587  1
  O  O99  1  0.73678708  0.31799817  0.74680104  1
  O  O100  1  0.42493360  0.52632439  0.74442056  1
  O  O101  1  0.92001333  0.52009902  0.74669139  1
  O  O102  1  0.35311364  0.53313085  0.25017543  1
  O  O103  1  0.85391090  0.54433674  0.24440764  1
  O  O104  1  0.41512750  0.31280513  0.24809026  1
  O  O105  1  0.92559377  0.31821226  0.24435102  1
  O  O106  1  0.22645771  0.14162227  0.24440699  1
  O  O107  1  0.72646768  0.15527368  0.25022898  1
  O  O108  1  0.32091570  0.50832267  0.92879082  1
  O  O109  1  0.82557784  0.52092401  0.92452548  1
  O  O110  1  0.42437360  0.35528736  0.93138653  1
  O  O111  1  0.93881411  0.36281830  0.92163873  1
  O  O112  1  0.24655902  0.15271734  0.92888528  1
  O  O113  1  0.74065836  0.13793848  0.92001746  1
  O  O114  1  0.32463324  0.13152096  0.42277585  1
  O  O115  1  0.82191085  0.13421361  0.42766863  1
  O  O116  1  0.24258081  0.34256079  0.41933576  1
  O  O117  1  0.74811756  0.34184521  0.42799268  1
  O  O118  1  0.43673051  0.51346152  0.41978627  1
  O  O119  1  0.92587029  0.49357884  0.42832405  1
  O  O120  1  0.17019526  0.50337531  0.07073266  1
  O  O121  1  0.66095249  0.48833546  0.07426612  1
  O  O122  1  0.07240199  0.65538589  0.07746419  1
  O  O123  1  0.56725063  0.65807890  0.07080139  1
  O  O124  1  0.25679645  0.85949355  0.07158155  1
  O  O125  1  0.74757554  0.83791085  0.07313195  1
  O  O126  1  0.16009533  0.83544525  0.57381283  1
  O  O127  1  0.67012944  0.83965818  0.56609395  1
  O  O128  1  0.24836582  0.65937772  0.57135677  1
  O  O129  1  0.75779652  0.65496782  0.56974182  1
  O  O130  1  0.06668647  0.47607984  0.56916079  1
  O  O131  1  0.57196679  0.48856583  0.57630531  1
  O  O132  1  0.14234089  0.83475500  0.24964805  1
  O  O133  1  0.64679873  0.84693131  0.25483828  1
  O  O134  1  0.26436542  0.70006636  0.25175980  1
  O  O135  1  0.77523180  0.69806599  0.24691516  1
  O  O136  1  0.07708853  0.46098532  0.24688889  1
  O  O137  1  0.58127958  0.49004029  0.25026896  1
  O  O138  1  0.14663196  0.44653271  0.75506148  1
  O  O139  1  0.64211580  0.47103784  0.74655789  1
  O  O140  1  0.08564862  0.67889956  0.74961750  1
  O  O141  1  0.57617239  0.69815056  0.74834018  1
  O  O142  1  0.27161727  0.85176940  0.74681272  1
  O  O143  1  0.76593955  0.83457372  0.75338156  1
loop_
_geom_bond_atom_site_label_1
_geom_bond_atom_site_label_2
_geom_bond_distance
_geom_bond_site_symmetry_2
Na0 O132 2.371601 1_655
Na0 O60 2.378594 1_655
Na0 O103 2.387982 1_555
Na0 O105 2.450268 1_555
Na0 O136 2.557907 1_655
Na0 O31 2.950763 1_555
Na0 O3 2.955827 1_555
Na1 O102 2.351910 1_555
Na1 O137 2.389276 1_555
Na1 O133 2.452281 1_555
Na1 O104 2.474126 1_555
Na1 O61 2.829806 1_555
Na1 O30 2.859470 1_555
Na2 O97 2.286579 1_555
Na2 O101 2.375239 1_555
Na2 O140 2.400591 1_655
Na2 O138 2.463339 1_655
Na2 O25 2.849372 1_555
Na2 O66 2.884012 1_655
Na3 O139 2.275404 1_555
Na3 O96 2.414672 1_555
Na3 O100 2.517777 1_555
Na3 O67 2.527728 1_555
Na3 O141 2.676398 1_555
Na4 O79 2.405983 1_555
Na4 O113 2.572358 1_555
Na4 O37 2.618497 1_556
Na4 O109 2.621107 1_555
Na4 O81 2.660364 1_545
Na4 O7 2.761618 1_555
Na4 O51 2.852255 1_555
Na4 O71 2.930621 1_555
Na5 O42 2.278980 1_555
Na5 O72 2.400516 1_545
Na5 O114 2.591054 1_555
Na5 O116 2.637018 1_555
Na5 O58 2.647373 1_545
Na5 O76 2.680156 1_555
Na6 O86 2.306444 1_565
Na6 O89 2.495806 1_455
Na6 O85 2.562047 1_465
Na6 O72 2.681463 1_555
Na6 O76 2.803157 1_565
Na6 O75 2.898383 1_455
Na7 O87 2.475033 1_565
Na7 O77 2.630918 1_565
Na7 O88 2.634074 1_555
Na7 O73 2.647057 1_555
Na7 O84 2.766121 1_565
Na7 O74 2.880715 1_555
Na8 O80 2.399476 1_545
Na8 O78 2.492955 1_555
Na8 O94 2.672264 1_556
Na8 O83 2.699385 1_445
Na8 O93 2.834750 1_446
Na8 O91 2.971591 1_546
Na9 O95 2.434574 1_555
Na9 O79 2.439214 1_554
Na9 O81 2.640535 1_544
Na9 O92 2.651266 1_555
Na9 O90 2.721544 1_545
Na9 O82 2.795677 1_544
Na10 O112 2.539496 1_555
Na10 O110 2.638423 1_555
Na10 O108 2.762891 1_555
Na10 O96 2.818561 1_555
Na10 O98 2.838639 1_555
Na10 O100 2.938441 1_555
Na11 O99 2.336142 1_555
Na11 O97 2.349096 1_555
Na11 O101 2.384264 1_555
Na11 O113 2.938852 1_555
Na12 O104 2.364664 1_555
Na12 O102 2.380100 1_555
Na12 O118 2.736288 1_555
Na12 O106 2.823574 1_555
Na12 O116 2.856650 1_555
Na12 O114 2.941780 1_555
Na13 O117 2.375652 1_555
Na13 O119 2.566126 1_555
Na13 O115 2.657490 1_555
Na13 O107 2.872448 1_555
Na13 O103 2.926064 1_555
Na14 O134 2.367413 1_555
Na14 O120 2.521034 1_555
Na14 O124 2.741637 1_555
Na14 O136 2.751646 1_555
Na15 O121 2.420945 1_555
Na15 O125 2.568779 1_555
Na15 O137 2.656541 1_555
Na15 O135 2.680096 1_555
Na15 O123 2.886288 1_555
Na16 O126 2.517119 1_555
Na16 O142 2.549030 1_555
Na16 O140 2.552019 1_555
Na16 O128 2.669808 1_555
Na17 O143 2.303517 1_555
Na17 O139 2.493698 1_555
Na17 O141 2.667806 1_555
Na17 O129 2.902239 1_555
Na17 O127 2.938447 1_555
Hf0 O4 1.925083 1_555
Hf0 O2 1.999362 1_545
Hf0 O77 2.050481 1_555
Hf0 O1 2.143274 1_555
Hf0 O74 2.178587 1_545
Hf0 O73 2.385974 1_545
Hf1 O9 1.914059 1_655
Hf1 O11 1.962792 1_565
Hf1 O80 2.081781 1_655
Hf1 O6 2.137960 1_665
Hf1 O83 2.200017 1_555
Hf1 O78 2.429444 1_665
Hf2 O16 1.913044 1_655
Hf2 O13 1.956030 1_555
Hf2 O86 2.042368 1_665
Hf2 O14 2.185281 1_665
Hf2 O89 2.256633 1_555
Hf2 O85 2.394512 1_565
Hf3 O15 1.969210 1_555
Hf3 O87 1.974579 1_555
Hf3 O88 2.009794 1_545
Hf3 O17 2.126631 1_545
Hf3 O84 2.185268 1_555
Hf3 O12 2.282000 1_545
Hf4 O93 1.908541 1_445
Hf4 O94 1.940759 1_555
Hf4 O91 2.118095 1_545
Hf4 O20 2.127783 1_555
Hf4 O22 2.210436 1_545
Hf4 O19 2.231369 1_445
Hf5 O21 1.923792 1_555
Hf5 O18 1.983905 1_545
Hf5 O95 2.017238 1_555
Hf5 O23 2.204094 1_545
Hf5 O92 2.219984 1_555
Hf5 O90 2.352694 1_545
Hf6 O112 1.951014 1_555
Hf6 O36 1.993999 1_556
Hf6 O110 2.014430 1_555
Hf6 O108 2.151910 1_555
Hf6 O40 2.164067 1_556
Hf6 O38 2.276364 1_556
Hf7 O43 1.958336 1_555
Hf7 O117 1.969013 1_555
Hf7 O119 2.068823 1_555
Hf7 O45 2.133668 1_555
Hf7 O115 2.196319 1_555
Hf7 O47 2.231076 1_555
Hf8 O52 1.964570 1_554
Hf8 O120 2.014798 1_555
Hf8 O50 2.092444 1_554
Hf8 O48 2.093453 1_554
Hf8 O122 2.154101 1_555
Hf8 O124 2.189834 1_555
Hf9 O121 1.964296 1_555
Hf9 O51 1.973490 1_554
Hf9 O125 2.017515 1_555
Hf9 O123 2.149357 1_555
Hf9 O49 2.194181 1_554
Hf9 O53 2.230414 1_554
Hf10 O126 1.947047 1_555
Hf10 O128 1.977151 1_555
Hf10 O58 2.017692 1_555
Hf10 O130 2.097979 1_555
Hf10 O54 2.241567 1_555
Hf10 O56 2.311066 1_555
Hf11 O127 1.968335 1_555
Hf11 O57 1.983316 1_555
Hf11 O131 2.107352 1_555
Hf11 O55 2.142409 1_555
Hf11 O59 2.142699 1_555
Hf11 O129 2.153799 1_555
O0 S0 1.480911 1_545
O0 Y0 2.289669 1_445
O1 S1 1.491540 1_555
O2 Si0 1.659617 1_555
O3 S2 1.486265 1_555
O3 Y0 2.236411 1_555
O4 Si1 1.654576 1_555
O5 S3 1.472340 1_555
O5 Y0 2.339699 1_545
O6 S4 1.491681 1_555
O7 Si2 1.645248 1_555
O7 Y1 2.078935 1_555
O8 S5 1.468964 1_555
O8 Y1 2.338113 1_565
O9 Si3 1.660101 1_555
O10 S6 1.484924 1_555
O10 Y1 2.262249 1_555
O11 Si4 1.666810 1_545
O12 S6 1.470103 1_565
O13 Si4 1.659862 1_555
O14 S4 1.490090 1_555
O15 Si2 1.657480 1_555
O16 Si3 1.649353 1_555
O17 S5 1.490280 1_555
O18 Si0 1.651090 1_555
O19 S2 1.479597 1_555
O20 S3 1.494225 1_455
O21 Si1 1.646778 1_555
O22 S0 1.489471 1_555
O23 S1 1.493177 1_565
O24 S7 1.474074 1_555
O24 Y2 2.409307 1_555
O25 S8 1.481197 1_555
O25 Y3 2.457172 1_555
O26 Si5 1.615671 1_555
O26 Y2 2.087233 1_555
O27 Si6 1.595238 1_555
O27 Y3 2.145749 1_555
O28 Si7 1.621945 1_555
O28 Y2 2.067704 1_555
O29 S9 1.468577 1_555
O29 Y3 2.433082 1_555
O30 S10 1.493086 1_555
O30 Y4 2.323316 1_555
O31 S11 1.467240 1_555
O31 Y5 2.416447 1_555
O32 S12 1.466446 1_555
O32 Y4 2.413900 1_555
O33 Si8 1.618128 1_555
O33 Y5 2.067399 1_555
O34 Si9 1.609711 1_555
O34 Y4 2.132229 1_555
O35 Si10 1.624713 1_555
O35 Y5 2.073604 1_555
O36 Si9 1.629342 1_555
O37 Si10 1.631759 1_555
O37 Y6 2.143269 1_554
O38 S10 1.474247 1_555
O39 S11 1.474342 1_555
O39 Y6 2.359793 1_554
O40 S12 1.480767 1_555
O41 Si8 1.618828 1_555
O41 Y6 2.077114 1_554
O42 Si5 1.638836 1_555
O42 Y7 2.163899 1_555
O43 Si6 1.644980 1_555
O44 Si7 1.633178 1_555
O44 Y7 2.058633 1_555
O45 S9 1.486685 1_555
O46 S7 1.472762 1_555
O46 Y7 2.284724 1_555
O47 S8 1.479604 1_555
O48 S13 1.496796 1_555
O49 S14 1.484370 1_555
O50 S15 1.515909 1_555
O51 Si11 1.656778 1_555
O52 Si12 1.657862 1_555
O53 S16 1.474316 1_555
O54 S17 1.477293 1_555
O55 S18 1.484364 1_555
O56 S19 1.465031 1_555
O57 Si13 1.646301 1_555
O58 Si14 1.649695 1_555
O59 S20 1.496255 1_555
O60 Si14 1.647250 1_555
O60 Y8 2.225165 1_555
O61 S20 1.488125 1_555
O61 Y9 2.316089 1_555
O62 S17 1.483319 1_555
O62 Y8 2.242059 1_555
O63 S18 1.475426 1_555
O63 Y9 2.385521 1_555
O64 S19 1.478429 1_555
O64 Y8 2.227009 1_555
O65 Si13 1.626182 1_555
O65 Y9 2.057099 1_555
O66 S15 1.480269 1_555
O66 Y10 2.324238 1_555
O67 Si11 1.629988 1_555
O67 Y11 2.243214 1_555
O68 Si12 1.615877 1_555
O68 Y10 2.062854 1_555
O69 S16 1.470657 1_555
O69 Y11 2.328470 1_555
O70 S13 1.474326 1_555
O70 Y10 2.379224 1_555
O71 S14 1.477163 1_555
O71 Y11 2.287414 1_555
O72 Si14 1.670894 1_555
O72 Y0 2.128429 1_455
O73 S20 1.483537 1_555
O74 S17 1.491122 1_555
O75 S18 1.485853 1_555
O75 Y0 2.259992 1_555
O76 S19 1.501102 1_555
O76 Y0 2.286106 1_445
O77 Si13 1.645041 1_555
O78 S15 1.480439 1_555
O79 Si11 1.657640 1_555
O79 Y1 2.194637 1_555
O80 Si12 1.639101 1_555
O81 S16 1.497224 1_555
O81 Y1 2.356597 1_565
O82 S13 1.468491 1_555
O82 Y1 2.401786 1_565
O83 S14 1.492300 1_555
O84 S7 1.476183 1_555
O85 S8 1.481515 1_555
O86 Si5 1.643111 1_555
O87 Si6 1.663212 1_555
O88 Si7 1.639132 1_555
O89 S9 1.490990 1_555
O90 S10 1.482698 1_555
O91 S11 1.492809 1_455
O92 S12 1.494859 1_555
O93 Si8 1.670145 1_565
O94 Si9 1.673139 1_555
O95 Si10 1.650508 1_555
O96 S6 1.495429 1_555
O96 Y2 2.442779 1_555
O97 Si4 1.627067 1_545
O97 Y3 2.207462 1_555
O98 S4 1.478543 1_555
O98 Y2 2.339981 1_555
O99 Si2 1.605807 1_555
O99 Y3 2.123976 1_555
O100 S5 1.494439 1_555
O100 Y2 2.416129 1_555
O101 Si3 1.599959 1_655
O101 Y3 2.294777 1_555
O102 Si0 1.643772 1_555
O102 Y4 2.193064 1_555
O103 S2 1.486963 1_555
O103 Y5 2.451844 1_555
O104 Si1 1.620211 1_555
O104 Y4 2.269472 1_555
O105 S3 1.482551 1_555
O105 Y5 2.469637 1_555
O106 S0 1.471898 1_545
O106 Y4 2.336505 1_555
O107 S1 1.473298 1_555
O107 Y5 2.335063 1_555
O108 S13 1.487314 1_555
O109 S14 1.480926 1_555
O109 Y6 2.409268 1_555
O110 Si11 1.648176 1_555
O111 S15 1.471060 1_655
O111 Y6 2.381862 1_555
O112 Si12 1.650057 1_545
O113 S16 1.502115 1_545
O113 Y6 2.335056 1_555
O114 S17 1.483140 1_545
O114 Y7 2.481294 1_555
O115 S18 1.481084 1_545
O116 S19 1.491488 1_555
O116 Y7 2.372806 1_555
O117 Si13 1.649839 1_555
O118 S20 1.482223 1_555
O118 Y7 2.401272 1_555
O119 Si14 1.638097 1_655
O120 Si9 1.649819 1_555
O121 Si10 1.652433 1_555
O122 S11 1.496273 1_455
O123 S10 1.491647 1_555
O124 S12 1.499488 1_565
O125 Si8 1.627445 1_565
O126 Si5 1.659153 1_565
O127 Si6 1.651675 1_565
O128 Si7 1.646505 1_555
O129 S9 1.496827 1_555
O130 S8 1.501734 1_455
O131 S7 1.503201 1_555
O132 S0 1.489366 1_555
O132 Y8 2.404279 1_555
O133 S1 1.482910 1_565
O133 Y9 2.483312 1_555
O134 Si0 1.630394 1_555
O134 Y8 2.160533 1_555
O135 S2 1.480840 1_555
O135 Y9 2.352923 1_555
O136 S3 1.496237 1_455
O136 Y8 2.398090 1_555
O137 Si1 1.648634 1_555
O137 Y9 2.160474 1_555
O138 S4 1.479597 1_555
O138 Y10 2.484189 1_555
O139 Si2 1.646904 1_555
O139 Y11 2.184584 1_555
O140 Si3 1.648516 1_555
O140 Y10 2.150680 1_555
O141 S5 1.485834 1_555
O141 Y11 2.375970 1_555
O142 S6 1.484196 1_565
O142 Y10 2.309608 1_555
O143 Si4 1.611963 1_555
O143 Y11 2.173870 1_555
