# generated using pymatgen
data_DyCuSb2
_symmetry_space_group_name_H-M   'P 1'
_cell_length_a   4.29433583
_cell_length_b   4.28682210
_cell_length_c   9.85271452
_cell_angle_alpha   89.77131274
_cell_angle_beta   89.99677518
_cell_angle_gamma   90.00128573
_symmetry_Int_Tables_number   1
_chemical_formula_structural   DyCuSb2
_chemical_formula_sum   'Dy2 Cu2 Sb4'
_cell_volume   181.37770620
_cell_formula_units_Z   2
loop_
 _symmetry_equiv_pos_site_id
 _symmetry_equiv_pos_as_xyz
  1  'x, y, z'
loop_
 _atom_site_type_symbol
 _atom_site_label
 _atom_site_symmetry_multiplicity
 _atom_site_fract_x
 _atom_site_fract_y
 _atom_site_fract_z
 _atom_site_occupancy
  Dy  Dy0  1  0.25009067  0.25251557  0.25251472  1
  Dy  Dy1  1  0.74989749  0.74746681  0.74748121  1
  Cu  Cu0  1  0.74992270  0.25770973  0.99965727  1
  Cu  Cu1  1  0.25007289  0.74228185  0.00034817  1
  Sb  Sb0  1  0.24993836  0.24539519  0.84270130  1
  Sb  Sb1  1  0.75004553  0.75460824  0.15730054  1
  Sb  Sb2  1  0.25000324  0.74991305  0.50005079  1
  Sb  Sb3  1  0.75002811  0.25010955  0.49994500  1
loop_
_geom_bond_atom_site_label_1
_geom_bond_atom_site_label_2
_geom_bond_distance
_geom_bond_site_symmetry_2
Dy0 Sb1 3.171965 1_545
Dy0 Sb1 3.172234 1_445
Dy0 Sb1 3.178956 1_555
Dy0 Sb1 3.179354 1_455
Dy0 Sb2 3.245962 1_555
Dy0 Sb2 3.247839 1_545
Dy0 Sb3 3.248512 1_555
Dy0 Sb3 3.248686 1_455
Dy1 Sb0 3.172055 1_565
Dy1 Sb0 3.172300 1_665
Dy1 Sb0 3.178924 1_555
Dy1 Sb0 3.179298 1_655
Dy1 Sb3 3.245849 1_555
Dy1 Sb3 3.247954 1_565
Dy1 Sb2 3.248391 1_555
Dy1 Sb2 3.248810 1_655
Cu0 Sb1 2.641264 1_556
Cu0 Sb0 2.646729 1_655
Cu0 Sb0 2.646759 1_555
Cu0 Sb1 2.652757 1_546
Cu0 Cu1 2.987137 1_556
Cu0 Cu1 2.987998 1_656
Cu0 Cu1 3.080483 1_546
Cu0 Cu1 3.081451 1_646
Cu0 Dy1 3.246474 1_555
Cu0 Dy0 3.288376 1_556
Cu0 Dy0 3.289502 1_656
Cu0 Dy1 3.316788 1_545
Cu1 Sb0 2.641244 1_554
Cu1 Sb1 2.646698 1_555
Cu1 Sb1 2.646750 1_455
Cu1 Sb0 2.652818 1_564
Cu1 Dy0 3.246428 1_555
Cu1 Dy1 3.288426 1_554
Cu1 Dy1 3.289593 1_454
Cu1 Dy0 3.316692 1_565
Sb2 Sb3 3.033197 1_455
Sb2 Sb3 3.033416 1_555
Sb2 Sb3 3.034450 1_465
Sb2 Sb3 3.034533 1_565
