# generated using pymatgen
data_Cs3MgH5
_symmetry_space_group_name_H-M   'P 1'
_cell_length_a   8.43329100
_cell_length_b   8.43329100
_cell_length_c   12.84082400
_cell_angle_alpha   90.00000000
_cell_angle_beta   90.00000000
_cell_angle_gamma   90.00000000
_symmetry_Int_Tables_number   1
_chemical_formula_structural   Cs3MgH5
_chemical_formula_sum   'Cs12 Mg4 H20'
_cell_volume   913.24450185
_cell_formula_units_Z   4
loop_
 _symmetry_equiv_pos_site_id
 _symmetry_equiv_pos_as_xyz
  1  'x, y, z'
loop_
 _atom_site_type_symbol
 _atom_site_label
 _atom_site_symmetry_multiplicity
 _atom_site_fract_x
 _atom_site_fract_y
 _atom_site_fract_z
 _atom_site_occupancy
  Cs  Cs0  1  0.00000000  0.50000000  0.49625600  1
  Cs  Cs1  1  0.50000000  0.00000000  0.00374400  1
  Cs  Cs2  1  0.50000000  0.00000000  0.50374400  1
  Cs  Cs3  1  0.00000000  0.50000000  0.99625600  1
  Cs  Cs4  1  0.68022600  0.68022600  0.75000000  1
  Cs  Cs5  1  0.81977400  0.18022600  0.75000000  1
  Cs  Cs6  1  0.18022600  0.81977400  0.75000000  1
  Cs  Cs7  1  0.31977400  0.31977400  0.75000000  1
  Cs  Cs8  1  0.81977400  0.81977400  0.25000000  1
  Cs  Cs9  1  0.68022600  0.31977400  0.25000000  1
  Cs  Cs10  1  0.31977400  0.68022600  0.25000000  1
  Cs  Cs11  1  0.18022600  0.18022600  0.25000000  1
  Mg  Mg0  1  0.00000000  0.00000000  0.50000000  1
  Mg  Mg1  1  0.50000000  0.50000000  0.50000000  1
  Mg  Mg2  1  0.50000000  0.50000000  0.00000000  1
  Mg  Mg3  1  0.00000000  0.00000000  0.00000000  1
  H  H0  1  0.00000000  0.50000000  0.74133400  1
  H  H1  1  0.50000000  0.00000000  0.75866600  1
  H  H2  1  0.50000000  0.00000000  0.25866600  1
  H  H3  1  0.00000000  0.50000000  0.24133400  1
  H  H4  1  0.38533400  0.63416400  0.58757300  1
  H  H5  1  0.61466600  0.36583600  0.58757300  1
  H  H6  1  0.63416400  0.38533400  0.91242700  1
  H  H7  1  0.13416400  0.11466600  0.58757300  1
  H  H8  1  0.86583600  0.88533400  0.58757300  1
  H  H9  1  0.11466600  0.13416400  0.91242700  1
  H  H10  1  0.88533400  0.86583600  0.91242700  1
  H  H11  1  0.36583600  0.61466600  0.91242700  1
  H  H12  1  0.11466600  0.86583600  0.41242700  1
  H  H13  1  0.88533400  0.13416400  0.41242700  1
  H  H14  1  0.86583600  0.11466600  0.08757300  1
  H  H15  1  0.36583600  0.38533400  0.41242700  1
  H  H16  1  0.13416400  0.88533400  0.08757300  1
  H  H17  1  0.61466600  0.63416400  0.08757300  1
  H  H18  1  0.38533400  0.36583600  0.08757300  1
  H  H19  1  0.63416400  0.61466600  0.41242700  1
loop_
_geom_bond_atom_site_label_1
_geom_bond_atom_site_label_2
_geom_bond_distance
_geom_bond_site_symmetry_2
Cs0 H0 3.147003 1_555
Cs0 H3 3.273409 1_555
Cs0 H12 3.407681 1_555
Cs0 H19 3.407681 1_455
Cs0 H15 3.407681 1_555
Cs0 H13 3.407681 1_455
Cs1 H1 3.147003 1_554
Cs1 H2 3.273409 1_555
Cs1 H14 3.407681 1_555
Cs1 H17 3.407681 1_545
Cs1 H18 3.407681 1_555
Cs1 H16 3.407681 1_545
Cs2 H2 3.147003 1_555
Cs2 H1 3.273409 1_555
Cs2 H8 3.407681 1_545
Cs2 H7 3.407681 1_555
Cs2 H5 3.407681 1_555
Cs2 H4 3.407681 1_545
Cs3 H3 3.147003 1_556
Cs3 H0 3.273409 1_555
Cs3 H10 3.407681 1_455
Cs3 H9 3.407681 1_555
Cs3 H11 3.407681 1_555
Cs3 H6 3.407681 1_455
Cs4 H1 3.097567 1_565
Cs4 H0 3.097567 1_655
Cs4 H10 3.129263 1_555
Cs4 H8 3.129263 1_555
Cs4 H4 3.268906 1_555
Cs4 H6 3.268906 1_555
Cs4 H5 3.418396 1_555
Cs4 H11 3.418396 1_555
Cs5 H1 3.097567 1_555
Cs5 H0 3.097567 1_655
Cs5 H6 3.129263 1_555
Cs5 H5 3.129263 1_555
Cs5 H9 3.268906 1_655
Cs5 H8 3.268906 1_545
Cs5 H7 3.418396 1_655
Cs5 H10 3.418396 1_545
Cs6 H1 3.097567 1_565
Cs6 H0 3.097567 1_555
Cs6 H4 3.129263 1_555
Cs6 H11 3.129263 1_555
Cs6 H7 3.268906 1_565
Cs6 H10 3.268906 1_455
Cs6 H9 3.418396 1_565
Cs6 H8 3.418396 1_455
Cs7 H1 3.097567 1_555
Cs7 H0 3.097567 1_555
Cs7 H7 3.129263 1_555
Cs7 H9 3.129263 1_555
Cs7 H11 3.268906 1_555
Cs7 H5 3.268906 1_555
Cs7 H4 3.418396 1_555
Cs7 H6 3.418396 1_555
Cs8 H2 3.097567 1_565
Cs8 H3 3.097567 1_655
Cs8 H19 3.129263 1_555
Cs8 H17 3.129263 1_555
Cs8 H14 3.268906 1_565
Cs8 H12 3.268906 1_655
Cs8 H13 3.418396 1_565
Cs8 H16 3.418396 1_655
Cs9 H2 3.097567 1_555
Cs9 H3 3.097567 1_655
Cs9 H13 3.129263 1_555
Cs9 H14 3.129263 1_555
Cs9 H19 3.268906 1_555
Cs9 H18 3.268906 1_555
Cs9 H15 3.418396 1_555
Cs9 H17 3.418396 1_555
Cs10 H2 3.097567 1_565
Cs10 H3 3.097567 1_555
Cs10 H16 3.129263 1_555
Cs10 H12 3.129263 1_555
Cs10 H17 3.268906 1_555
Cs10 H15 3.268906 1_555
Cs10 H18 3.418396 1_555
Cs10 H19 3.418396 1_555
Cs11 H2 3.097567 1_555
Cs11 H3 3.097567 1_555
Cs11 H18 3.129263 1_555
Cs11 H15 3.129263 1_555
Cs11 H16 3.268906 1_545
Cs11 H13 3.268906 1_455
Cs11 H12 3.418396 1_545
Cs11 H14 3.418396 1_455
H4 Mg1 1.865422 1_555
H5 Mg1 1.865422 1_555
H6 Mg2 1.865422 1_556
H7 Mg0 1.865422 1_555
H8 Mg0 1.865422 1_665
H9 Mg3 1.865422 1_556
H10 Mg3 1.865422 1_666
H11 Mg2 1.865422 1_556
H12 Mg0 1.865422 1_565
H13 Mg0 1.865422 1_655
H14 Mg3 1.865422 1_655
H15 Mg1 1.865422 1_555
H16 Mg3 1.865422 1_565
H17 Mg2 1.865422 1_555
H18 Mg2 1.865422 1_555
H19 Mg1 1.865422 1_555
