# generated using pymatgen
data_Na3CaGaSi(SO6)2
_symmetry_space_group_name_H-M   'P 1'
_cell_length_a   9.26883468
_cell_length_b   9.24396013
_cell_length_c   22.62613662
_cell_angle_alpha   91.55063773
_cell_angle_beta   90.00000000
_cell_angle_gamma   120.08905415
_symmetry_Int_Tables_number   1
_chemical_formula_structural   Na3CaGaSi(SO6)2
_chemical_formula_sum   'Na18 Ca6 Ga6 Si6 S12 O72'
_cell_volume   1676.56855433
_cell_formula_units_Z   6
loop_
 _symmetry_equiv_pos_site_id
 _symmetry_equiv_pos_as_xyz
  1  'x, y, z'
loop_
 _atom_site_type_symbol
 _atom_site_label
 _atom_site_symmetry_multiplicity
 _atom_site_fract_x
 _atom_site_fract_y
 _atom_site_fract_z
 _atom_site_occupancy
  Na  Na0  1  0.63778560  0.00320924  0.25302856  1
  Na  Na1  1  0.00416094  0.63387587  0.23959124  1
  Na  Na2  1  0.62971493  0.63387587  0.73959124  1
  Na  Na3  1  0.36542363  0.00320924  0.75302856  1
  Na  Na4  1  0.31916262  0.34600588  0.58721907  1
  Na  Na5  1  0.65979074  0.94917293  0.57766118  1
  Na  Na6  1  0.28938318  0.94917293  0.07766118  1
  Na  Na7  1  0.02684427  0.34600588  0.08721907  1
  Na  Na8  1  0.98876337  0.68065352  0.92491238  1
  Na  Na9  1  0.69724693  0.03699531  0.90768601  1
  Na  Na10  1  0.33974737  0.03699531  0.40768601  1
  Na  Na11  1  0.69188916  0.68065352  0.42491238  1
  Na  Na12  1  0.97875701  0.99525251  0.50082999  1
  Na  Na13  1  0.01649549  0.99525251  0.00082999  1
  Na  Na14  1  0.66510318  0.30812845  0.83492929  1
  Na  Na15  1  0.64302627  0.30812845  0.33492929  1
  Na  Na16  1  0.32519972  0.65809398  0.16736743  1
  Na  Na17  1  0.33289327  0.65809398  0.66736743  1
  Ca  Ca0  1  0.00577408  0.01640719  0.35040935  1
  Ca  Ca1  1  0.01063311  0.01640719  0.85040935  1
  Ca  Ca2  1  0.67388495  0.32957171  0.68375425  1
  Ca  Ca3  1  0.65568777  0.32957171  0.18375425  1
  Ca  Ca4  1  0.33627565  0.66924044  0.01661526  1
  Ca  Ca5  1  0.33296379  0.66924044  0.51661526  1
  Ga  Ga0  1  0.94510433  0.94089576  0.65522303  1
  Ga  Ga1  1  0.99579143  0.94089576  0.15522303  1
  Ga  Ga2  1  0.65030149  0.33596509  0.98767103  1
  Ga  Ga3  1  0.68566460  0.33596509  0.48767103  1
  Ga  Ga4  1  0.33139527  0.71236978  0.32260816  1
  Ga  Ga5  1  0.38097351  0.71236978  0.82260816  1
  Si  Si0  1  0.30049371  0.98988758  0.25470581  1
  Si  Si1  1  0.68939387  0.98988758  0.75470581  1
  Si  Si2  1  0.67389482  0.62537909  0.58359106  1
  Si  Si3  1  0.95148527  0.62537909  0.08359106  1
  Si  Si4  1  0.34806769  0.98382259  0.92339716  1
  Si  Si5  1  0.63575390  0.98382259  0.42339716  1
  S  S0  1  0.69760167  0.70982414  0.25072930  1
  S  S1  1  0.01264136  0.30432489  0.24639835  1
  S  S2  1  0.29168353  0.30432489  0.74639835  1
  S  S3  1  0.01222247  0.70982414  0.75072930  1
  S  S4  1  0.96282265  0.32148100  0.58226559  1
  S  S5  1  0.35487258  0.03897080  0.58332440  1
  S  S6  1  0.68409922  0.03897080  0.08332440  1
  S  S7  1  0.35865935  0.32148100  0.08226559  1
  S  S8  1  0.62862358  0.65539221  0.91350313  1
  S  S9  1  0.03475658  0.38030309  0.91521336  1
  S  S10  1  0.34554551  0.38030309  0.41521336  1
  S  S11  1  0.02676762  0.65539221  0.41350313  1
  O  O0  1  0.21810328  0.00061963  0.31529830  1
  O  O1  1  0.79207314  0.78750050  0.30596050  1
  O  O2  1  0.98158367  0.19744274  0.29745010  1
  O  O3  1  0.21585908  0.19744274  0.79745010  1
  O  O4  1  0.99542736  0.78750050  0.80596050  1
  O  O5  1  0.78251635  0.00061963  0.81529830  1
  O  O6  1  0.77959065  0.95673173  0.69447825  1
  O  O7  1  0.19333723  0.21888056  0.69102352  1
  O  O8  1  0.03658227  0.82496271  0.69904594  1
  O  O9  1  0.78838044  0.82496271  0.19904594  1
  O  O10  1  0.02554333  0.21888056  0.19102352  1
  O  O11  1  0.17714108  0.95673173  0.19447825  1
  O  O12  1  0.88897677  0.34398096  0.63631037  1
  O  O13  1  0.45865127  0.11363032  0.63743895  1
  O  O14  1  0.65316336  0.53036737  0.64385962  1
  O  O15  1  0.87720501  0.53036737  0.14385962  1
  O  O16  1  0.65498005  0.11363032  0.13743895  1
  O  O17  1  0.45500519  0.34398096  0.13631037  1
  O  O18  1  0.44476663  0.29877593  0.02876050  1
  O  O19  1  0.83083464  0.52312757  0.02288308  1
  O  O20  1  0.69948546  0.14361810  0.03092446  1
  O  O21  1  0.44413364  0.14361810  0.53092446  1
  O  O22  1  0.69229394  0.52312757  0.52288308  1
  O  O23  1  0.85401030  0.29877593  0.52876050  1
  O  O24  1  0.54514554  0.67556860  0.96546317  1
  O  O25  1  0.11884296  0.44898280  0.97294721  1
  O  O26  1  0.32435113  0.87452179  0.98026879  1
  O  O27  1  0.55016966  0.87452179  0.48026879  1
  O  O28  1  0.33013884  0.44898280  0.47294721  1
  O  O29  1  0.13042206  0.67556860  0.46546317  1
  O  O30  1  0.10925065  0.63601273  0.35761925  1
  O  O31  1  0.50781963  0.89514592  0.36168261  1
  O  O32  1  0.34973789  0.48604569  0.36556099  1
  O  O33  1  0.13630679  0.48604569  0.86556099  1
  O  O34  1  0.38732529  0.89514592  0.86168261  1
  O  O35  1  0.52676108  0.63601273  0.85761925  1
  O  O36  1  0.00862556  0.80589633  0.41102421  1
  O  O37  1  0.81283113  0.99106551  0.41542673  1
  O  O38  1  0.20696722  0.20490042  0.41150913  1
  O  O39  1  0.99793320  0.20490042  0.91150913  1
  O  O40  1  0.17823437  0.99106551  0.91542673  1
  O  O41  1  0.79727076  0.80589633  0.91102421  1
  O  O42  1  0.97231247  0.16486970  0.58323562  1
  O  O43  1  0.19386208  0.03886839  0.58764628  1
  O  O44  1  0.84586551  0.81954677  0.58587333  1
  O  O45  1  0.97368126  0.81954677  0.08587333  1
  O  O46  1  0.84500630  0.03886839  0.08764628  1
  O  O47  1  0.19255723  0.16486970  0.08323562  1
  O  O48  1  0.64817230  0.13974690  0.74939338  1
  O  O49  1  0.46511978  0.33052856  0.74354587  1
  O  O50  1  0.86138148  0.54666242  0.74301942  1
  O  O51  1  0.68528194  0.54666242  0.24301942  1
  O  O52  1  0.86540978  0.33052856  0.24354587  1
  O  O53  1  0.49157561  0.13974690  0.24939338  1
  O  O54  1  0.64426713  0.50355496  0.91487044  1
  O  O55  1  0.86999249  0.37647105  0.91356655  1
  O  O56  1  0.53056160  0.16890891  0.92928374  1
  O  O57  1  0.63834832  0.16890891  0.42928374  1
  O  O58  1  0.50647956  0.37647105  0.41356655  1
  O  O59  1  0.85928883  0.50355496  0.41487044  1
  O  O60  1  0.33377440  0.46658293  0.07704423  1
  O  O61  1  0.13994120  0.65199614  0.07892866  1
  O  O62  1  0.54061305  0.86704247  0.07769859  1
  O  O63  1  0.32642842  0.86704247  0.57769859  1
  O  O64  1  0.51205394  0.65199614  0.57892866  1
  O  O65  1  0.13280753  0.46658293  0.57704423  1
  O  O66  1  0.30341167  0.80519736  0.25366249  1
  O  O67  1  0.53272318  0.69997820  0.25108936  1
  O  O68  1  0.16669861  0.47174427  0.25357199  1
  O  O69  1  0.30504467  0.47174427  0.75357199  1
  O  O70  1  0.16725402  0.69997820  0.75108936  1
  O  O71  1  0.50178469  0.80519736  0.75366249  1
loop_
_geom_bond_atom_site_label_1
_geom_bond_atom_site_label_2
_geom_bond_distance
_geom_bond_site_symmetry_2
Na0 O53 2.270908 1_555
Na0 O67 2.462460 1_545
Na0 O66 2.696154 1_545
Na0 O52 2.699371 1_555
Na0 O31 2.723815 1_545
Na0 O16 2.808681 1_555
Na0 O9 2.890044 1_545
Na0 O2 2.924699 1_555
Na1 O15 2.398084 1_455
Na1 O66 2.423032 1_555
Na1 O52 2.433660 1_455
Na1 O68 2.627844 1_555
Na1 O51 2.646867 1_455
Na1 O11 2.808293 1_555
Na1 O30 2.838785 1_555
Na2 O14 2.398087 1_555
Na2 O71 2.423039 1_555
Na2 O49 2.433659 1_555
Na2 O69 2.627852 1_555
Na2 O50 2.646876 1_555
Na2 O6 2.808293 1_555
Na2 O35 2.838788 1_555
Na3 O48 2.270916 1_555
Na3 O70 2.462462 1_545
Na3 O71 2.696146 1_545
Na3 O49 2.699369 1_555
Na3 O34 2.723813 1_545
Na3 O13 2.808682 1_555
Na3 O8 2.890044 1_545
Na3 O3 2.924699 1_555
Na4 O43 2.470834 1_555
Na4 O64 2.488059 1_555
Na4 O65 2.494640 1_555
Na4 O7 2.651913 1_555
Na4 O28 2.763613 1_555
Na4 O42 2.782378 1_455
Na4 O21 2.916884 1_555
Na4 O14 2.953371 1_555
Na5 O27 2.362022 1_555
Na5 O64 2.377995 1_555
Na5 O44 2.555224 1_555
Na5 O42 2.564678 1_565
Na5 O63 2.787761 1_555
Na5 O6 2.852397 1_555
Na6 O26 2.362017 1_554
Na6 O61 2.377995 1_555
Na6 O45 2.555233 1_455
Na6 O47 2.564685 1_565
Na6 O62 2.787743 1_555
Na6 O11 2.852401 1_555
Na7 O46 2.470835 1_455
Na7 O61 2.488062 1_555
Na7 O60 2.494623 1_555
Na7 O10 2.651911 1_555
Na7 O25 2.763611 1_554
Na7 O47 2.782370 1_555
Na7 O20 2.916885 1_455
Na7 O15 2.953371 1_455
Na8 O55 2.457935 1_555
Na8 O40 2.518812 1_655
Na8 O41 2.582543 1_555
Na8 O19 2.685949 1_556
Na8 O54 2.768734 1_555
Na8 O4 2.881977 1_555
Na8 O26 2.957165 1_655
Na9 O5 2.309941 1_555
Na9 O39 2.416465 1_555
Na9 O56 2.443252 1_555
Na9 O34 2.684025 1_545
Na9 O55 2.714474 1_555
Na9 O41 2.724607 1_545
Na9 O20 2.928798 1_556
Na10 O0 2.309937 1_555
Na10 O38 2.416458 1_555
Na10 O57 2.443268 1_555
Na10 O31 2.684025 1_545
Na10 O58 2.714474 1_555
Na10 O36 2.724600 1_545
Na10 O21 2.928801 1_555
Na11 O58 2.457932 1_555
Na11 O37 2.518811 1_555
Na11 O36 2.582551 1_655
Na11 O22 2.685955 1_555
Na11 O59 2.768749 1_555
Na11 O1 2.881979 1_555
Na11 O27 2.957165 1_555
Na12 O42 2.423658 1_565
Na12 O44 2.453767 1_555
Na12 O37 2.457027 1_555
Na12 O43 2.673453 1_665
Na12 O36 2.750055 1_655
Na12 O38 2.901041 1_665
Na13 O47 2.423658 1_565
Na13 O45 2.453767 1_455
Na13 O40 2.457027 1_554
Na13 O46 2.673453 1_465
Na13 O41 2.750055 1_454
Na13 O39 2.901041 1_464
Na14 O48 2.405197 1_555
Na14 O55 2.430550 1_555
Na14 O56 2.511680 1_555
Na14 O54 2.597188 1_555
Na14 O49 2.856917 1_555
Na14 O50 2.953344 1_555
Na15 O53 2.405197 1_555
Na15 O58 2.430550 1_555
Na15 O57 2.511680 1_555
Na15 O59 2.597188 1_555
Na15 O52 2.856917 1_555
Na15 O51 2.953344 1_555
Na16 O66 2.415346 1_555
Na16 O68 2.564053 1_555
Na16 O67 2.579092 1_555
Na16 O61 2.617761 1_555
Na16 O60 2.694845 1_555
Na16 O62 2.859849 1_555
Na17 O71 2.415346 1_555
Na17 O69 2.564053 1_555
Na17 O70 2.579092 1_555
Na17 O64 2.617760 1_555
Na17 O65 2.694845 1_555
Na17 O63 2.859849 1_555
Ca0 O2 2.184359 1_455
Ca0 O0 2.192561 1_555
Ca0 O37 2.239597 1_445
Ca0 O38 2.244184 1_555
Ca0 O1 2.257117 1_445
Ca0 O36 2.421653 1_545
Ca1 O3 2.184359 1_555
Ca1 O5 2.192561 1_455
Ca1 O40 2.239597 1_545
Ca1 O39 2.244184 1_455
Ca1 O4 2.257117 1_445
Ca1 O41 2.421653 1_445
Ca2 O14 2.178327 1_555
Ca2 O12 2.210475 1_555
Ca2 O13 2.226320 1_555
Ca2 O48 2.250179 1_555
Ca2 O50 2.280995 1_555
Ca2 O49 2.364544 1_555
Ca3 O15 2.178327 1_555
Ca3 O17 2.210475 1_555
Ca3 O16 2.226320 1_555
Ca3 O53 2.250179 1_555
Ca3 O51 2.280995 1_555
Ca3 O52 2.364544 1_555
Ca4 O26 2.141079 1_554
Ca4 O25 2.227125 1_554
Ca4 O24 2.231830 1_554
Ca4 O61 2.246375 1_555
Ca4 O62 2.287230 1_555
Ca4 O60 2.339770 1_555
Ca5 O27 2.141079 1_555
Ca5 O28 2.227125 1_555
Ca5 O29 2.231830 1_555
Ca5 O64 2.246375 1_555
Ca5 O63 2.287230 1_555
Ca5 O65 2.339770 1_555
Ga0 O6 1.839016 1_555
Ga0 O44 1.853826 1_555
Ga0 O8 1.954279 1_655
Ga1 O11 1.839016 1_655
Ga1 O45 1.853826 1_555
Ga1 O9 1.954279 1_555
Ga2 O19 1.857594 1_556
Ga2 O56 1.879584 1_555
Ga2 O18 1.993094 1_556
Ga2 O20 2.287789 1_556
Ga2 O54 2.311141 1_555
Ga2 O55 2.523375 1_555
Ga3 O22 1.857594 1_555
Ga3 O57 1.879584 1_555
Ga3 O23 1.993094 1_555
Ga3 O21 2.287789 1_555
Ga3 O59 2.311141 1_555
Ga3 O58 2.523375 1_555
Ga4 O31 1.859889 1_555
Ga4 O66 1.879557 1_555
Ga4 O30 1.984519 1_555
Ga4 O32 2.411869 1_555
Ga4 O68 2.474911 1_555
Ga4 O67 2.513604 1_555
Ga5 O34 1.859889 1_555
Ga5 O71 1.879557 1_555
Ga5 O35 1.984519 1_555
Ga5 O33 2.411869 1_555
Ga5 O69 2.474912 1_555
Ga5 O70 2.513604 1_555
O0 Si0 1.594113 1_545
O1 S0 1.471393 1_555
O2 S1 1.473054 1_655
O3 S2 1.473054 1_555
O4 S3 1.471393 1_655
O5 Si1 1.594113 1_545
O6 Si1 1.698287 1_555
O7 S2 1.499703 1_555
O8 S3 1.541972 1_555
O9 S0 1.541972 1_555
O10 S1 1.499703 1_555
O11 Si0 1.698287 1_555
O12 S4 1.461517 1_555
O13 S5 1.479647 1_555
O14 Si2 1.601072 1_555
O15 Si3 1.601072 1_555
O16 S6 1.479647 1_555
O17 S7 1.461517 1_555
O18 S7 1.516850 1_555
O19 Si3 1.703117 1_555
O20 S6 1.511795 1_555
O21 S5 1.511795 1_555
O22 Si2 1.703117 1_555
O23 S4 1.516850 1_555
O24 S8 1.465763 1_555
O25 S9 1.475087 1_555
O26 Si4 1.603949 1_555
O27 Si5 1.603949 1_555
O28 S10 1.475087 1_555
O29 S11 1.465764 1_555
O30 S11 1.529854 1_555
O31 Si5 1.729539 1_555
O32 S10 1.496812 1_555
O33 S9 1.496812 1_555
O34 Si4 1.729539 1_555
O35 S8 1.529854 1_555
O36 S11 1.485197 1_555
O37 Si5 1.619054 1_555
O38 S10 1.479948 1_555
O39 S9 1.479951 1_655
O40 Si4 1.619045 1_555
O41 S8 1.485202 1_555
O42 S4 1.494484 1_555
O43 S5 1.495108 1_555
O44 Si2 1.700381 1_555
O45 Si3 1.700385 1_555
O46 S6 1.495099 1_555
O47 S7 1.494489 1_555
O48 Si1 1.618392 1_545
O49 S2 1.502488 1_555
O50 S3 1.459924 1_655
O51 S0 1.459928 1_555
O52 S1 1.502479 1_655
O53 Si0 1.618398 1_545
O54 S8 1.482708 1_555
O55 S9 1.510159 1_655
O56 Si4 1.700602 1_545
O57 Si5 1.700592 1_545
O58 S10 1.510178 1_555
O59 S11 1.482698 1_655
O60 S7 1.478201 1_555
O61 Si3 1.641135 1_455
O62 S6 1.476657 1_565
O63 S5 1.476650 1_565
O64 Si2 1.641153 1_555
O65 S4 1.478189 1_455
O66 Si0 1.720516 1_555
O67 S0 1.484727 1_555
O68 S1 1.493660 1_555
O69 S2 1.493664 1_555
O70 S3 1.484718 1_555
O71 Si1 1.720520 1_555
