# generated using pymatgen
data_Hg3(TeI)2
_symmetry_space_group_name_H-M   'P 1'
_cell_length_a   8.81569297
_cell_length_b   8.81569297
_cell_length_c   14.56507774
_cell_angle_alpha   82.62746710
_cell_angle_beta   82.62746710
_cell_angle_gamma   69.56611271
_symmetry_Int_Tables_number   1
_chemical_formula_structural   Hg3(TeI)2
_chemical_formula_sum   'Hg12 Te8 I8'
_cell_volume   1047.69302957
_cell_formula_units_Z   4
loop_
 _symmetry_equiv_pos_site_id
 _symmetry_equiv_pos_as_xyz
  1  'x, y, z'
loop_
 _atom_site_type_symbol
 _atom_site_label
 _atom_site_symmetry_multiplicity
 _atom_site_fract_x
 _atom_site_fract_y
 _atom_site_fract_z
 _atom_site_occupancy
  Hg  Hg0  1  0.12574057  0.11225417  0.83086814  1
  Hg  Hg1  1  0.88774583  0.87425943  0.66913186  1
  Hg  Hg2  1  0.87425943  0.88774583  0.16913186  1
  Hg  Hg3  1  0.11225417  0.12574057  0.33086814  1
  Hg  Hg4  1  0.30125081  0.75029089  0.51766710  1
  Hg  Hg5  1  0.24970911  0.69874919  0.98233290  1
  Hg  Hg6  1  0.69874919  0.24970911  0.48233290  1
  Hg  Hg7  1  0.75029089  0.30125081  0.01766710  1
  Hg  Hg8  1  0.00000000  0.50000000  0.50000000  1
  Hg  Hg9  1  0.50000000  -0.00000000  -0.00000000  1
  Hg  Hg10  1  0.67669143  0.32330857  0.75000000  1
  Hg  Hg11  1  0.32330857  0.67669143  0.25000000  1
  Te  Te0  1  0.87887895  0.39911235  0.84984978  1
  Te  Te1  1  0.60088765  0.12112105  0.65015022  1
  Te  Te2  1  0.12112105  0.60088765  0.15015022  1
  Te  Te3  1  0.39911235  0.87887895  0.34984978  1
  Te  Te4  1  0.41276562  0.87124399  0.86524542  1
  Te  Te5  1  0.12875601  0.58723438  0.63475458  1
  Te  Te6  1  0.58723438  0.12875601  0.13475458  1
  Te  Te7  1  0.87124399  0.41276562  0.36524542  1
  I  I0  1  0.61133565  0.64038690  0.61652365  1
  I  I1  1  0.35961310  0.38866435  0.88347635  1
  I  I2  1  0.38866435  0.35961310  0.38347635  1
  I  I3  1  0.64038690  0.61133565  0.11652365  1
  I  I4  1  0.09049983  0.13012326  0.11633318  1
  I  I5  1  0.86987674  0.90950017  0.38366682  1
  I  I6  1  0.90950017  0.86987674  0.88366682  1
  I  I7  1  0.13012326  0.09049983  0.61633318  1
loop_
_geom_bond_atom_site_label_1
_geom_bond_atom_site_label_2
_geom_bond_distance
_geom_bond_site_symmetry_2
Hg0 Te0 2.718429 1_455
Hg0 Te4 2.732348 1_545
Hg0 I7 3.149567 1_555
Hg0 I6 3.291994 1_445
Hg1 Te1 2.718429 1_565
Hg1 Te5 2.732348 1_655
Hg1 I6 3.149567 1_555
Hg1 I7 3.291994 1_665
Hg2 Te2 2.718429 1_655
Hg2 Te6 2.732348 1_565
Hg2 I5 3.149567 1_555
Hg2 I4 3.291994 1_665
Hg3 Te3 2.718429 1_545
Hg3 Te7 2.732348 1_455
Hg3 I4 3.149567 1_555
Hg3 I5 3.291994 1_445
Hg4 Te3 2.726604 1_555
Hg4 Te5 2.742017 1_555
Hg4 I0 3.047508 1_555
Hg4 I7 3.275149 1_565
Hg5 Te2 2.726604 1_556
Hg5 Te4 2.742017 1_555
Hg5 I1 3.047508 1_555
Hg5 I6 3.275149 1_455
Hg6 Te1 2.726604 1_555
Hg6 Te7 2.742017 1_555
Hg6 I2 3.047508 1_555
Hg6 I5 3.275149 1_545
Hg7 Te0 2.726604 1_554
Hg7 Te6 2.742017 1_555
Hg7 I3 3.047508 1_555
Hg7 I4 3.275149 1_655
Hg8 Te5 2.701974 1_555
Hg8 Te7 2.701974 1_455
Hg9 Te6 2.701974 1_555
Hg9 Te4 2.701974 1_544
Hg10 Te1 2.735882 1_555
Hg10 Te0 2.735882 1_555
Hg10 I1 3.113396 1_555
Hg10 I0 3.113396 1_555
Hg11 Te2 2.735882 1_555
Hg11 Te3 2.735882 1_555
Hg11 I3 3.113396 1_555
Hg11 I2 3.113396 1_555
