# generated using pymatgen
data_Na4YTa3Si4(PO12)2
_symmetry_space_group_name_H-M   'P 1'
_cell_length_a   9.03741841
_cell_length_b   9.06109231
_cell_length_c   22.83704083
_cell_angle_alpha   90.06413108
_cell_angle_beta   89.97700196
_cell_angle_gamma   120.06484388
_symmetry_Int_Tables_number   1
_chemical_formula_structural   Na4YTa3Si4(PO12)2
_chemical_formula_sum   'Na12 Y3 Ta9 Si12 P6 O72'
_cell_volume   1618.49358126
_cell_formula_units_Z   3
loop_
 _symmetry_equiv_pos_site_id
 _symmetry_equiv_pos_as_xyz
  1  'x, y, z'
loop_
 _atom_site_type_symbol
 _atom_site_label
 _atom_site_symmetry_multiplicity
 _atom_site_fract_x
 _atom_site_fract_y
 _atom_site_fract_z
 _atom_site_occupancy
  Na  Na0  1  0.63242985  0.62585895  0.74652048  1
  Na  Na1  1  0.99508911  0.36982110  0.74709899  1
  Na  Na2  1  0.31630085  0.97684730  0.08409479  1
  Na  Na3  1  0.02419722  0.34293909  0.08389342  1
  Na  Na4  1  0.96332188  0.29376372  0.41371789  1
  Na  Na5  1  0.70568843  0.67784626  0.41647988  1
  Na  Na6  1  0.00565963  0.99404435  0.50203203  1
  Na  Na7  1  0.98931232  0.98903499  0.99612668  1
  Na  Na8  1  0.65045994  0.31607705  0.83436833  1
  Na  Na9  1  0.65523035  0.32188278  0.32546852  1
  Na  Na10  1  0.34653681  0.66472478  0.16497496  1
  Na  Na11  1  0.33417105  0.67162519  0.66600817  1
  Y  Y0  1  0.00706722  0.99937189  0.35405353  1
  Y  Y1  1  0.65794475  0.32511030  0.68546077  1
  Y  Y2  1  0.66788748  0.33635569  0.18246965  1
  Ta  Ta0  1  0.00345124  0.00592286  0.85802944  1
  Ta  Ta1  1  0.99535911  0.00216168  0.64500039  1
  Ta  Ta2  1  0.99600931  0.99679286  0.14629865  1
  Ta  Ta3  1  0.66680462  0.33446645  0.97788532  1
  Ta  Ta4  1  0.66972070  0.33151491  0.48302574  1
  Ta  Ta5  1  0.33677543  0.66717153  0.01568259  1
  Ta  Ta6  1  0.33531759  0.66963577  0.52197693  1
  Ta  Ta7  1  0.33103389  0.67231766  0.31083840  1
  Ta  Ta8  1  0.33608021  0.66956730  0.81468467  1
  Si  Si0  1  0.28463037  0.28842279  0.75200416  1
  Si  Si1  1  0.71065315  0.99447135  0.75239117  1
  Si  Si2  1  0.96482752  0.33339915  0.58538188  1
  Si  Si3  1  0.66940444  0.63075121  0.58453165  1
  Si  Si4  1  0.96012447  0.62699120  0.08115131  1
  Si  Si5  1  0.66428646  0.03737524  0.08153121  1
  Si  Si6  1  0.37445518  0.33791051  0.08236234  1
  Si  Si7  1  0.62458843  0.66318304  0.91495962  1
  Si  Si8  1  0.03954123  0.37773710  0.91552385  1
  Si  Si9  1  0.33588103  0.95883125  0.91658680  1
  Si  Si10  1  0.61254230  0.95953539  0.41704729  1
  Si  Si11  1  0.04290928  0.66050397  0.41826860  1
  P  P0  1  0.29301064  0.99371525  0.24905663  1
  P  P1  1  0.70126670  0.70869034  0.25226055  1
  P  P2  1  0.00769710  0.29837151  0.25175325  1
  P  P3  1  0.01112027  0.72543661  0.75138833  1
  P  P4  1  0.36847245  0.03780855  0.58176501  1
  P  P5  1  0.34391479  0.39121661  0.41760555  1
  O  O0  1  0.20896132  0.00924264  0.30421875  1
  O  O1  1  0.79492606  0.78760489  0.30966994  1
  O  O2  1  0.99150487  0.20329100  0.30874666  1
  O  O3  1  0.18313378  0.17108313  0.80862143  1
  O  O4  1  0.98995617  0.81366660  0.80574398  1
  O  O5  1  0.82957886  0.00605930  0.80789262  1
  O  O6  1  0.80545460  0.96728632  0.69321734  1
  O  O7  1  0.16460750  0.18923852  0.69367980  1
  O  O8  1  0.03019829  0.83102918  0.69513554  1
  O  O9  1  0.80609277  0.82906750  0.19892890  1
  O  O10  1  0.02439786  0.19807294  0.19725236  1
  O  O11  1  0.17971396  0.97449577  0.19380557  1
  O  O12  1  0.89735497  0.36994642  0.64483662  1
  O  O13  1  0.47400895  0.10166049  0.63658848  1
  O  O14  1  0.62880528  0.52645013  0.64417596  1
  O  O15  1  0.90246972  0.50521812  0.13684660  1
  O  O16  1  0.60729453  0.10005589  0.13779413  1
  O  O17  1  0.48059034  0.37933650  0.14089362  1
  O  O18  1  0.46569779  0.29374884  0.02748752  1
  O  O19  1  0.83132630  0.53153671  0.02553993  1
  O  O20  1  0.70696193  0.17180272  0.02671742  1
  O  O21  1  0.46595778  0.15847036  0.52847443  1
  O  O22  1  0.68939008  0.52399816  0.52712607  1
  O  O23  1  0.83284314  0.30442262  0.52813381  1
  O  O24  1  0.52557871  0.69037977  0.96997467  1
  O  O25  1  0.15875633  0.47054551  0.97250724  1
  O  O26  1  0.30872070  0.84062456  0.97380310  1
  O  O27  1  0.51623730  0.83377431  0.47174056  1
  O  O28  1  0.32364476  0.48115619  0.47150842  1
  O  O29  1  0.16105293  0.67273096  0.47303364  1
  O  O30  1  0.13601068  0.63174423  0.35921269  1
  O  O31  1  0.49572562  0.85865147  0.35814719  1
  O  O32  1  0.36851958  0.50153655  0.36193476  1
  O  O33  1  0.13584683  0.49599312  0.85721587  1
  O  O34  1  0.36019684  0.85843255  0.85974186  1
  O  O35  1  0.50367347  0.63745533  0.85637990  1
  O  O36  1  0.00692536  0.81662978  0.41885223  1
  O  O37  1  0.80362593  0.98645083  0.41587918  1
  O  O38  1  0.18087135  0.21602431  0.41549294  1
  O  O39  1  0.02112576  0.18807693  0.90973867  1
  O  O40  1  0.16509653  0.97548292  0.90894904  1
  O  O41  1  0.81342366  0.83186242  0.90870291  1
  O  O42  1  0.97872718  0.15874844  0.58947120  1
  O  O43  1  0.19199688  0.02374086  0.58702355  1
  O  O44  1  0.84684957  0.81668987  0.58909466  1
  O  O45  1  0.98182201  0.81912116  0.09321532  1
  O  O46  1  0.84189044  0.02748958  0.09343351  1
  O  O47  1  0.18063963  0.15981878  0.09278655  1
  O  O48  1  0.70541023  0.16817356  0.75135244  1
  O  O49  1  0.47755547  0.32560049  0.75225041  1
  O  O50  1  0.85148261  0.54710816  0.74845817  1
  O  O51  1  0.67782663  0.53230606  0.24701687  1
  O  O52  1  0.85607491  0.32473646  0.24687958  1
  O  O53  1  0.47303117  0.14249610  0.24601274  1
  O  O54  1  0.63693767  0.49156142  0.92403772  1
  O  O55  1  0.85199892  0.35930339  0.92324603  1
  O  O56  1  0.50632093  0.14524288  0.92428113  1
  O  O57  1  0.62931115  0.14842609  0.42412800  1
  O  O58  1  0.50777470  0.37698257  0.42370216  1
  O  O59  1  0.85211670  0.48205717  0.42458932  1
  O  O60  1  0.32920224  0.48990511  0.07044481  1
  O  O61  1  0.15638700  0.66495387  0.06925572  1
  O  O62  1  0.50347418  0.84571261  0.06919184  1
  O  O63  1  0.34306136  0.85707186  0.57018982  1
  O  O64  1  0.50799098  0.66134760  0.57086669  1
  O  O65  1  0.15462656  0.49504161  0.57112654  1
  O  O66  1  0.29750433  0.82050339  0.25416076  1
  O  O67  1  0.52288624  0.70040647  0.25447024  1
  O  O68  1  0.18003696  0.47558845  0.25505258  1
  O  O69  1  0.29009635  0.47568736  0.75573480  1
  O  O70  1  0.17147966  0.70261377  0.75624372  1
  O  O71  1  0.52275341  0.81742286  0.75618136  1
loop_
_geom_bond_atom_site_label_1
_geom_bond_atom_site_label_2
_geom_bond_distance
_geom_bond_site_symmetry_2
Na0 O49 2.358684 1_555
Na0 O71 2.401435 1_555
Na0 O50 2.417804 1_555
Na0 O14 2.498186 1_555
Na0 O69 2.692502 1_555
Na0 O35 2.789093 1_555
Na0 O6 2.942405 1_555
Na1 O48 2.325726 1_555
Na1 O69 2.346206 1_655
Na1 O12 2.497354 1_555
Na1 O50 2.520852 1_555
Na1 O70 2.619215 1_655
Na1 O33 2.790723 1_655
Na2 O61 2.469055 1_555
Na2 O47 2.515344 1_565
Na2 O62 2.530142 1_555
Na2 O16 2.593084 1_565
Na2 O45 2.625823 1_455
Na2 O11 2.787982 1_555
Na2 O26 2.789398 1_554
Na2 O18 2.803897 1_565
Na3 O60 2.405843 1_555
Na3 O46 2.492897 1_455
Na3 O15 2.539785 1_455
Na3 O61 2.561600 1_555
Na3 O47 2.672989 1_555
Na3 O20 2.805912 1_455
Na3 O25 2.807414 1_554
Na3 O10 2.904278 1_555
Na4 O59 2.387364 1_555
Na4 O38 2.398141 1_655
Na4 O37 2.410988 1_545
Na4 O2 2.586108 1_555
Na4 O57 2.630551 1_555
Na4 O23 2.887602 1_555
Na4 O30 2.929488 1_655
Na5 O36 2.359143 1_655
Na5 O58 2.402800 1_555
Na5 O37 2.474485 1_555
Na5 O1 2.605671 1_555
Na5 O59 2.699263 1_555
Na5 O22 2.855127 1_555
Na5 O32 2.917181 1_555
Na5 O27 2.989711 1_555
Na6 O36 2.490861 1_555
Na6 O43 2.494599 1_565
Na6 O44 2.507880 1_455
Na6 O42 2.575037 1_465
Na6 O37 2.661988 1_455
Na6 O38 2.697027 1_565
Na7 O41 2.503784 1_555
Na7 O40 2.587434 1_655
Na7 O39 2.591426 1_665
Na7 O45 2.682185 1_556
Na7 O46 2.701051 1_566
Na7 O47 2.751664 1_666
Na8 O49 2.470603 1_555
Na8 O56 2.508750 1_555
Na8 O48 2.509436 1_555
Na8 O55 2.622398 1_555
Na8 O54 2.631333 1_555
Na8 O50 2.779880 1_555
Na9 O53 2.441311 1_555
Na9 O52 2.543003 1_555
Na9 O51 2.550322 1_555
Na9 O57 2.690757 1_555
Na9 O58 2.778408 1_555
Na9 O59 2.793717 1_555
Na10 O67 2.511283 1_555
Na10 O68 2.618114 1_555
Na10 O60 2.634031 1_555
Na10 O66 2.637541 1_555
Na10 O62 2.675965 1_555
Na10 O61 2.781739 1_555
Na11 O71 2.575143 1_555
Na11 O69 2.609298 1_555
Na11 O70 2.626237 1_555
Na11 O65 2.698486 1_555
Na11 O64 2.709349 1_555
Na11 O63 2.736987 1_555
O0 P0 1.513152 1_545
O0 Y0 2.113633 1_545
O1 P1 1.529378 1_555
O1 Y0 2.167067 1_655
O2 P2 1.527662 1_655
O2 Y0 2.183853 1_645
O3 Si0 1.633571 1_555
O3 Ta0 1.927969 1_555
O4 P3 1.538636 1_655
O4 Ta0 2.063479 1_665
O5 Si1 1.631083 1_545
O5 Ta0 1.945130 1_655
O6 Si1 1.682456 1_555
O6 Ta1 1.927098 1_565
O7 Si0 1.667363 1_555
O7 Ta1 1.961667 1_455
O8 P3 1.559733 1_555
O8 Ta1 2.075567 1_465
O9 P1 1.592885 1_555
O9 Ta2 2.022140 1_555
O10 P2 1.591416 1_555
O10 Ta2 2.067082 1_445
O11 P0 1.578818 1_555
O11 Ta2 2.076583 1_455
O12 Si2 1.589243 1_555
O12 Y1 2.196730 1_555
O13 P4 1.502791 1_555
O13 Y1 2.175433 1_555
O14 Si3 1.593160 1_555
O14 Y1 2.184486 1_555
O15 Si4 1.591636 1_555
O15 Y2 2.161668 1_555
O16 Si5 1.590507 1_555
O16 Y2 2.178536 1_555
O17 Si6 1.576963 1_555
O17 Y2 2.140322 1_555
O18 Si6 1.655053 1_555
O18 Ta3 2.012450 1_554
O19 Si4 1.644954 1_555
O19 Ta3 1.980011 1_554
O20 Si5 1.652788 1_555
O20 Ta3 2.021809 1_554
O21 P4 1.577857 1_555
O21 Ta4 2.008964 1_555
O22 Si3 1.690848 1_555
O22 Ta4 1.942518 1_555
O23 Si2 1.699302 1_555
O23 Ta4 1.912881 1_555
O24 Si7 1.630711 1_555
O24 Ta5 1.919581 1_556
O25 Si8 1.628590 1_555
O25 Ta5 1.964727 1_556
O26 Si9 1.629189 1_555
O26 Ta5 1.962645 1_556
O27 Si10 1.620093 1_555
O27 Ta6 1.940962 1_555
O28 P5 1.536286 1_555
O28 Ta6 2.017762 1_555
O29 Si11 1.612050 1_555
O29 Ta6 1.943230 1_555
O30 Si11 1.677123 1_555
O30 Ta7 1.952464 1_555
O31 Si10 1.670601 1_555
O31 Ta7 1.926787 1_555
O32 P5 1.563628 1_555
O32 Ta7 2.097777 1_555
O33 Si8 1.657295 1_555
O33 Ta8 1.960100 1_555
O34 Si9 1.660892 1_555
O34 Ta8 1.912444 1_555
O35 Si7 1.668345 1_555
O35 Ta8 1.930992 1_555
O36 Si11 1.602540 1_555
O36 Y0 2.221489 1_555
O37 Si10 1.618757 1_555
O37 Y0 2.273809 1_655
O38 P5 1.532867 1_555
O38 Y0 2.279412 1_545
O39 Si8 1.646642 1_555
O39 Ta0 1.968714 1_555
O40 Si9 1.633720 1_555
O40 Ta0 1.992036 1_565
O41 Si7 1.629636 1_555
O41 Ta0 2.016085 1_665
O42 Si2 1.651791 1_555
O42 Ta1 1.965126 1_555
O43 P4 1.539645 1_555
O43 Ta1 2.144730 1_455
O44 Si3 1.647339 1_555
O44 Ta1 1.998070 1_565
O45 Si4 1.673929 1_555
O45 Ta2 1.966403 1_555
O46 Si5 1.674113 1_555
O46 Ta2 1.966002 1_545
O47 Si6 1.702124 1_555
O47 Ta2 1.998111 1_445
O48 Si1 1.598398 1_545
O48 Y1 2.255434 1_555
O49 Si0 1.601551 1_555
O49 Y1 2.233710 1_555
O50 P3 1.536532 1_655
O50 Y1 2.376062 1_555
O51 P1 1.507956 1_555
O51 Y2 2.273297 1_555
O52 P2 1.508404 1_655
O52 Y2 2.291062 1_555
O53 P0 1.507204 1_545
O53 Y2 2.279636 1_555
O54 Si7 1.627373 1_555
O54 Ta3 2.000110 1_555
O55 Si8 1.627222 1_655
O55 Ta3 2.007587 1_555
O56 Si9 1.627646 1_545
O56 Ta3 2.011710 1_555
O57 Si10 1.648651 1_545
O57 Ta4 2.020672 1_555
O58 P5 1.555819 1_555
O58 Ta4 2.180411 1_555
O59 Si11 1.677866 1_655
O59 Ta4 2.026869 1_555
O60 Si6 1.644199 1_555
O60 Ta5 2.010708 1_555
O61 Si4 1.651260 1_455
O61 Ta5 2.029919 1_555
O62 Si5 1.636440 1_565
O62 Ta5 1.983720 1_555
O63 P4 1.557831 1_565
O63 Ta6 1.994605 1_555
O64 Si3 1.645601 1_555
O64 Ta6 1.951011 1_555
O65 Si2 1.636097 1_455
O65 Ta6 1.960431 1_555
O66 P0 1.594619 1_555
O66 Ta7 1.995482 1_555
O67 P1 1.576624 1_555
O67 Ta7 2.069999 1_555
O68 P2 1.582385 1_555
O68 Ta7 2.054706 1_555
O69 Si0 1.674693 1_555
O69 Ta8 2.082053 1_555
O70 P3 1.567103 1_555
O70 Ta8 2.128969 1_555
O71 Si1 1.653900 1_555
O71 Ta8 2.040488 1_555
