# generated using pymatgen
data_Ba2TmMgRuO6
_symmetry_space_group_name_H-M   'P 1'
_cell_length_a   6.52538193
_cell_length_b   6.47210142
_cell_length_c   6.47210181
_cell_angle_alpha   54.75547892
_cell_angle_beta   54.57532516
_cell_angle_gamma   54.57532918
_symmetry_Int_Tables_number   1
_chemical_formula_structural   Ba2TmMgRuO6
_chemical_formula_sum   'Ba2 Tm1 Mg1 Ru1 O6'
_cell_volume   169.11630284
_cell_formula_units_Z   1
loop_
 _symmetry_equiv_pos_site_id
 _symmetry_equiv_pos_as_xyz
  1  'x, y, z'
loop_
 _atom_site_type_symbol
 _atom_site_label
 _atom_site_symmetry_multiplicity
 _atom_site_fract_x
 _atom_site_fract_y
 _atom_site_fract_z
 _atom_site_occupancy
  Ba  Ba0  1  0.80623778  0.80675840  0.80675840  1
  Ba  Ba1  1  0.25501557  0.26068709  0.26068709  1
  Tm  Tm0  1  0.46785252  0.46952332  0.46952332  1
  Mg  Mg0  1  0.62870784  0.63965214  0.63965214  1
  Ru  Ru0  1  0.99753416  0.99692649  0.99692649  1
  O  O0  1  0.25226303  0.74455252  0.74455252  1
  O  O1  1  0.23306099  0.74572433  0.22691248  1
  O  O2  1  0.74468442  0.25677733  0.74788055  1
  O  O3  1  0.23306099  0.22691248  0.74572433  1
  O  O4  1  0.75148128  0.22960536  0.22960536  1
  O  O5  1  0.74468442  0.74788055  0.25677733  1
loop_
_geom_bond_atom_site_label_1
_geom_bond_atom_site_label_2
_geom_bond_distance
_geom_bond_site_symmetry_2
Ba0 O0 2.503077 1_655
Ba0 O2 2.515931 1_565
Ba0 O5 2.515931 1_556
Ba1 O1 2.940394 1_555
Ba1 O3 2.940395 1_555
Ba1 O2 2.977514 1_455
Ba1 O5 2.977514 1_455
Ba1 O0 2.982783 1_545
Ba1 O0 2.982783 1_554
Ba1 O2 2.989157 1_554
Ba1 O5 2.989157 1_545
Ba1 O4 3.018584 1_555
Mg0 O0 1.902966 1_555
Mg0 O2 1.908173 1_555
Mg0 O5 1.908173 1_555
O0 Ru0 2.209789 1_455
O0 Tm0 2.483332 1_555
O1 Ru0 2.045305 1_454
O1 Tm0 2.093499 1_555
O2 Ru0 2.210519 1_545
O2 Tm0 2.535947 1_555
O3 Ru0 2.045305 1_445
O3 Tm0 2.093499 1_555
O4 Ru0 2.030987 1_544
O4 Tm0 2.089797 1_555
O5 Ru0 2.210519 1_554
O5 Tm0 2.535947 1_555
