# generated using pymatgen
data_Na5Zr2Sc2SiP5O24
_symmetry_space_group_name_H-M   'P 1'
_cell_length_a   9.03983586
_cell_length_b   9.01758918
_cell_length_c   23.00076413
_cell_angle_alpha   89.98756561
_cell_angle_beta   89.99027018
_cell_angle_gamma   119.95910559
_symmetry_Int_Tables_number   1
_chemical_formula_structural   Na5Zr2Sc2SiP5O24
_chemical_formula_sum   'Na15 Zr6 Sc6 Si3 P15 O72'
_cell_volume   1624.43624432
_cell_formula_units_Z   3
loop_
 _symmetry_equiv_pos_site_id
 _symmetry_equiv_pos_as_xyz
  1  'x, y, z'
loop_
 _atom_site_type_symbol
 _atom_site_label
 _atom_site_symmetry_multiplicity
 _atom_site_fract_x
 _atom_site_fract_y
 _atom_site_fract_z
 _atom_site_occupancy
  Na  Na0  1  0.00524036  0.63919669  0.25177743  1
  Na  Na1  1  0.63130345  0.64098566  0.75158341  1
  Na  Na2  1  0.36731726  0.99567591  0.75220417  1
  Na  Na3  1  0.66459524  0.97023995  0.58446235  1
  Na  Na4  1  0.29646246  0.96961051  0.08357794  1
  Na  Na5  1  0.67615352  0.69896159  0.08250874  1
  Na  Na6  1  0.02705120  0.33082622  0.08465634  1
  Na  Na7  1  0.96704421  0.30037092  0.41577272  1
  Na  Na8  1  0.33617731  0.03471225  0.41752747  1
  Na  Na9  1  0.00375602  0.99043193  0.49988682  1
  Na  Na10  1  0.00009156  0.99523225  0.99718779  1
  Na  Na11  1  0.67682098  0.33102489  0.83950211  1
  Na  Na12  1  0.65747629  0.33474862  0.33542170  1
  Na  Na13  1  0.33987091  0.66668704  0.17256458  1
  Na  Na14  1  0.31951646  0.65571878  0.66886353  1
  Zr  Zr0  1  0.99513409  0.00271035  0.85450005  1
  Zr  Zr1  1  0.00573520  0.00091632  0.64763315  1
  Zr  Zr2  1  0.67038307  0.32728188  0.68437324  1
  Zr  Zr3  1  0.66622395  0.33035417  0.18653148  1
  Zr  Zr4  1  0.32917079  0.66681707  0.01411632  1
  Zr  Zr5  1  0.33045128  0.66578810  0.51902564  1
  Sc  Sc0  1  0.99376092  0.99518026  0.34965883  1
  Sc  Sc1  1  0.99941200  0.99741047  0.15245409  1
  Sc  Sc2  1  0.67127023  0.34066896  0.97928265  1
  Sc  Sc3  1  0.66057753  0.33904136  0.48308290  1
  Sc  Sc4  1  0.34237079  0.66642472  0.31533508  1
  Sc  Sc5  1  0.33155178  0.66538253  0.81709704  1
  Si  Si0  1  0.70391513  0.99846632  0.74948581  1
  Si  Si1  1  0.37104841  0.04005602  0.58088078  1
  Si  Si2  1  0.95966979  0.62812941  0.08344247  1
  P  P0  1  0.29221500  0.99789286  0.25140468  1
  P  P1  1  0.70522912  0.70786714  0.24910403  1
  P  P2  1  0.00231812  0.29544206  0.25051203  1
  P  P3  1  0.29206709  0.29437808  0.75064997  1
  P  P4  1  0.00097726  0.70891776  0.75131282  1
  P  P5  1  0.95886341  0.33323810  0.58068573  1
  P  P6  1  0.66701303  0.62661386  0.58385900  1
  P  P7  1  0.66785664  0.04274409  0.08205308  1
  P  P8  1  0.37547721  0.33229013  0.08240853  1
  P  P9  1  0.62644356  0.66343190  0.91557548  1
  P  P10  1  0.03726378  0.37308190  0.91602171  1
  P  P11  1  0.33624604  0.96589939  0.91490709  1
  P  P12  1  0.62827635  0.96076068  0.41666059  1
  P  P13  1  0.33320120  0.37290371  0.41517430  1
  P  P14  1  0.04038936  0.66612038  0.41416428  1
  O  O0  1  0.20727605  0.02206763  0.30583866  1
  O  O1  1  0.82467986  0.79400077  0.30123881  1
  O  O2  1  0.97845604  0.18668701  0.30495255  1
  O  O3  1  0.20905616  0.17499690  0.80324032  1
  O  O4  1  0.97198015  0.79633282  0.80415189  1
  O  O5  1  0.82835314  0.02394130  0.80440060  1
  O  O6  1  0.79041649  0.96807983  0.69126823  1
  O  O7  1  0.18215535  0.20521873  0.69643395  1
  O  O8  1  0.03133768  0.82386694  0.69704689  1
  O  O9  1  0.78668000  0.80989493  0.19263223  1
  O  O10  1  0.02087988  0.21088208  0.19470380  1
  O  O11  1  0.18297621  0.97261714  0.19593710  1
  O  O12  1  0.87346784  0.35994971  0.63518044  1
  O  O13  1  0.49131877  0.12652523  0.63929329  1
  O  O14  1  0.64456752  0.52331017  0.64012549  1
  O  O15  1  0.87582719  0.50752022  0.14187393  1
  O  O16  1  0.63163859  0.12261203  0.13646154  1
  O  O17  1  0.49008975  0.36310993  0.13671152  1
  O  O18  1  0.45556193  0.29723831  0.02995963  1
  O  O19  1  0.83218778  0.53463557  0.02988128  1
  O  O20  1  0.69665642  0.15622097  0.02972822  1
  O  O21  1  0.46207293  0.15116272  0.52317156  1
  O  O22  1  0.69273977  0.54018645  0.53100091  1
  O  O23  1  0.85016236  0.30485241  0.52619792  1
  O  O24  1  0.54129810  0.68802685  0.97163178  1
  O  O25  1  0.14494934  0.45615111  0.97296037  1
  O  O26  1  0.31159499  0.85289267  0.97085436  1
  O  O27  1  0.54413039  0.85308801  0.47248561  1
  O  O28  1  0.30540781  0.45982700  0.46919550  1
  O  O29  1  0.15845063  0.69354010  0.46783213  1
  O  O30  1  0.12320511  0.63837610  0.35961251  1
  O  O31  1  0.50905582  0.87053367  0.36497249  1
  O  O32  1  0.35517471  0.48446444  0.36214712  1
  O  O33  1  0.13082885  0.48532537  0.86399606  1
  O  O34  1  0.35407445  0.87524562  0.86102067  1
  O  O35  1  0.52040187  0.64687266  0.86130496  1
  O  O36  1  0.03177290  0.83300831  0.41037817  1
  O  O37  1  0.81000971  0.98592948  0.41069167  1
  O  O38  1  0.16921860  0.19284850  0.41055022  1
  O  O39  1  0.02704466  0.19605408  0.91248712  1
  O  O40  1  0.17099681  0.97685816  0.91130352  1
  O  O41  1  0.80563236  0.82722758  0.91200535  1
  O  O42  1  0.96752387  0.16716739  0.58924103  1
  O  O43  1  0.18189948  0.01715710  0.58768690  1
  O  O44  1  0.82248352  0.81114037  0.58870407  1
  O  O45  1  0.98476693  0.82061002  0.08993083  1
  O  O46  1  0.82733293  0.02322700  0.09061911  1
  O  O47  1  0.19315473  0.17742238  0.09095977  1
  O  O48  1  0.67801397  0.16657975  0.74626129  1
  O  O49  1  0.47296391  0.31345511  0.74325427  1
  O  O50  1  0.83420855  0.53578818  0.74371368  1
  O  O51  1  0.69529652  0.52941554  0.24386347  1
  O  O52  1  0.83956463  0.31611848  0.24543037  1
  O  O53  1  0.47114326  0.15836543  0.24432622  1
  O  O54  1  0.64214583  0.50299792  0.92111998  1
  O  O55  1  0.86011353  0.35301787  0.92217765  1
  O  O56  1  0.49564195  0.14033759  0.92250647  1
  O  O57  1  0.64655546  0.14163740  0.42154957  1
  O  O58  1  0.48927527  0.34704546  0.42037686  1
  O  O59  1  0.86640945  0.50221029  0.42241746  1
  O  O60  1  0.36062162  0.49753191  0.07670896  1
  O  O61  1  0.15153920  0.64659544  0.07745750  1
  O  O62  1  0.50743383  0.85954279  0.07663283  1
  O  O63  1  0.36562057  0.85438985  0.57694545  1
  O  O64  1  0.50807060  0.64917755  0.57683745  1
  O  O65  1  0.13902531  0.49079121  0.57637681  1
  O  O66  1  0.30222139  0.83178772  0.25625315  1
  O  O67  1  0.52773721  0.68758068  0.25571347  1
  O  O68  1  0.15629174  0.47952177  0.25533907  1
  O  O69  1  0.31736959  0.47466447  0.75625608  1
  O  O70  1  0.16200658  0.69433910  0.75674593  1
  O  O71  1  0.51442827  0.82833752  0.75550997  1
loop_
_geom_bond_atom_site_label_1
_geom_bond_atom_site_label_2
_geom_bond_distance
_geom_bond_site_symmetry_2
Na0 O66 2.361698 1_555
Na0 O68 2.430678 1_555
Na0 O51 2.468489 1_455
Na0 O52 2.528737 1_455
Na0 O30 2.701450 1_555
Na0 O15 2.789900 1_455
Na0 O1 2.860582 1_455
Na0 O11 2.905829 1_555
Na1 O71 2.400312 1_555
Na1 O50 2.456596 1_555
Na1 O69 2.462414 1_555
Na1 O49 2.566488 1_555
Na1 O35 2.725656 1_555
Na1 O14 2.800126 1_555
Na1 O6 2.907545 1_555
Na1 O4 2.932890 1_555
Na2 O70 2.408774 1_555
Na2 O48 2.441088 1_565
Na2 O71 2.460813 1_555
Na2 O49 2.536230 1_565
Na2 O34 2.706825 1_555
Na2 O13 2.840785 1_565
Na2 O3 2.889705 1_565
Na2 O8 2.921790 1_555
Na3 O63 2.367704 1_555
Na3 O42 2.409944 1_565
Na3 O44 2.479955 1_555
Na3 O64 2.514730 1_555
Na3 O6 2.711474 1_555
Na3 O27 2.790790 1_555
Na3 O13 2.869699 1_565
Na3 O23 2.942225 1_565
Na4 O45 2.446331 1_455
Na4 O47 2.482073 1_565
Na4 O61 2.531712 1_555
Na4 O62 2.557035 1_555
Na4 O11 2.785490 1_555
Na4 O26 2.827296 1_554
Na4 O18 2.841116 1_565
Na4 O16 2.896614 1_565
Na5 O45 2.441154 1_555
Na5 O60 2.505728 1_555
Na5 O46 2.542027 1_565
Na5 O62 2.578214 1_555
Na5 O9 2.723673 1_555
Na5 O19 2.781796 1_555
Na5 O24 2.807270 1_554
Na5 O17 2.909559 1_555
Na6 O46 2.443440 1_455
Na6 O61 2.490229 1_555
Na6 O47 2.502766 1_555
Na6 O60 2.618837 1_555
Na6 O10 2.741958 1_555
Na6 O25 2.794306 1_554
Na6 O20 2.881154 1_455
Na6 O15 2.883634 1_455
Na7 O59 2.411959 1_555
Na7 O37 2.459451 1_545
Na7 O38 2.462637 1_655
Na7 O57 2.513571 1_555
Na7 O23 2.758752 1_555
Na7 O2 2.768645 1_555
Na7 O28 2.922786 1_655
Na7 O30 2.941405 1_655
Na8 O36 2.430828 1_545
Na8 O58 2.441165 1_555
Na8 O57 2.471582 1_555
Na8 O38 2.546908 1_555
Na8 O21 2.666599 1_555
Na8 O0 2.799756 1_555
Na8 O31 2.899376 1_545
Na8 O29 2.906240 1_545
Na9 O43 2.518607 1_565
Na9 O36 2.584194 1_555
Na9 O44 2.612250 1_455
Na9 O38 2.657399 1_565
Na9 O37 2.684826 1_455
Na9 O42 2.719136 1_465
Na10 O41 2.562544 1_455
Na10 O40 2.563461 1_555
Na10 O39 2.586861 1_565
Na10 O45 2.613374 1_456
Na10 O46 2.741110 1_466
Na10 O47 2.745187 1_566
Na11 O55 2.464524 1_555
Na11 O56 2.543401 1_555
Na11 O54 2.552235 1_555
Na11 O48 2.610709 1_555
Na11 O50 2.767879 1_555
Na11 O49 2.834054 1_555
Na12 O58 2.511966 1_555
Na12 O57 2.606402 1_555
Na12 O59 2.646793 1_555
Na12 O51 2.651791 1_555
Na12 O53 2.661590 1_555
Na12 O52 2.701341 1_555
Na13 O67 2.501789 1_555
Na13 O68 2.535242 1_555
Na13 O66 2.558269 1_555
Na13 O61 2.722125 1_555
Na13 O60 2.740434 1_555
Na13 O62 2.748404 1_555
Na14 O69 2.583292 1_555
Na14 O70 2.594065 1_555
Na14 O71 2.600497 1_555
Na14 O65 2.641640 1_555
Na14 O63 2.665594 1_555
Na14 O64 2.736482 1_555
O0 P0 1.540008 1_545
O0 Sc0 2.081327 1_445
O1 P1 1.539609 1_555
O1 Sc0 2.024770 1_555
O2 P2 1.537643 1_655
O2 Sc0 2.072846 1_545
O3 P3 1.541912 1_555
O3 Zr0 2.131004 1_455
O4 P4 1.540719 1_655
O4 Zr0 2.111937 1_565
O5 Si0 1.629742 1_545
O5 Zr0 1.981507 1_555
O6 Si0 1.641158 1_555
O6 Zr1 2.075377 1_665
O7 P3 1.546500 1_555
O7 Zr1 2.065053 1_555
O8 P4 1.556558 1_555
O8 Zr1 2.064625 1_565
O9 P1 1.548649 1_555
O9 Sc1 2.040199 1_555
O10 P2 1.544492 1_555
O10 Sc1 2.077352 1_445
O11 P0 1.559013 1_555
O11 Sc1 2.043246 1_455
O12 P5 1.552587 1_555
O12 Zr2 2.048504 1_555
O13 Si1 1.658125 1_555
O13 Zr2 2.011779 1_555
O14 P6 1.547399 1_555
O14 Zr2 2.150890 1_555
O15 Si2 1.655083 1_555
O15 Zr3 2.042756 1_555
O16 P7 1.558127 1_555
O16 Zr3 2.085548 1_555
O17 P8 1.556831 1_555
O17 Zr3 2.098977 1_555
O18 P8 1.519127 1_555
O18 Sc2 2.133235 1_554
O19 Si2 1.608448 1_555
O19 Sc2 1.997530 1_554
O20 P7 1.515460 1_555
O20 Sc2 2.132111 1_554
O21 Si1 1.618157 1_555
O21 Sc3 1.975590 1_555
O22 P6 1.523469 1_555
O22 Sc3 2.015829 1_555
O23 P5 1.533332 1_555
O23 Sc3 2.131620 1_555
O24 P9 1.572993 1_555
O24 Zr4 2.074031 1_556
O25 P10 1.580015 1_555
O25 Zr4 2.029747 1_556
O26 P11 1.586372 1_555
O26 Zr4 2.023983 1_556
O27 P12 1.559336 1_555
O27 Zr5 2.114189 1_555
O28 P13 1.555126 1_555
O28 Zr5 2.096520 1_555
O29 P14 1.568736 1_555
O29 Zr5 2.062963 1_555
O30 P14 1.544116 1_555
O30 Sc4 2.127227 1_555
O31 P12 1.536870 1_555
O31 Sc4 2.047726 1_555
O32 P13 1.529345 1_555
O32 Sc4 2.013463 1_555
O33 P10 1.521804 1_555
O33 Sc5 2.036769 1_555
O34 P11 1.537006 1_555
O34 Sc5 2.063876 1_555
O35 P9 1.535218 1_555
O35 Sc5 2.064300 1_555
O36 P14 1.547733 1_555
O36 Sc0 2.169868 1_455
O37 P12 1.548157 1_555
O37 Sc0 2.144194 1_555
O38 P13 1.562453 1_555
O38 Sc0 2.198331 1_445
O39 P10 1.554443 1_555
O39 Zr0 2.097782 1_455
O40 P11 1.547782 1_555
O40 Zr0 2.158576 1_465
O41 P9 1.556458 1_555
O41 Zr0 2.116363 1_565
O42 P5 1.550646 1_555
O42 Zr1 2.164991 1_655
O43 Si1 1.624215 1_555
O43 Zr1 2.055441 1_555
O44 P6 1.555926 1_555
O44 Zr1 2.163408 1_665
O45 Si2 1.641115 1_555
O45 Sc1 2.101832 1_555
O46 P7 1.549713 1_555
O46 Sc1 2.204333 1_545
O47 P8 1.551238 1_555
O47 Sc1 2.204920 1_445
O48 Si0 1.647114 1_545
O48 Zr2 2.056705 1_555
O49 P3 1.565755 1_555
O49 Zr2 2.193511 1_555
O50 P4 1.546017 1_655
O50 Zr2 2.193644 1_555
O51 P1 1.570956 1_555
O51 Zr3 2.135456 1_555
O52 P2 1.577046 1_655
O52 Zr3 2.123369 1_555
O53 P0 1.548828 1_545
O53 Zr3 2.132845 1_555
O54 P9 1.527895 1_555
O54 Sc2 2.094261 1_555
O55 P10 1.525721 1_655
O55 Sc2 2.112136 1_555
O56 P11 1.522361 1_545
O56 Sc2 2.150962 1_555
O57 P12 1.559245 1_545
O57 Sc3 2.227949 1_555
O58 P13 1.545287 1_555
O58 Sc3 2.143767 1_555
O59 P14 1.540224 1_655
O59 Sc3 2.199538 1_555
O60 P8 1.566954 1_555
O60 Zr4 2.217319 1_555
O61 Si2 1.663280 1_455
O61 Zr4 2.107345 1_555
O62 P7 1.566897 1_565
O62 Zr4 2.211236 1_555
O63 Si1 1.652807 1_565
O63 Zr5 2.056555 1_555
O64 P6 1.556910 1_555
O64 Zr5 2.146983 1_555
O65 P5 1.539371 1_455
O65 Zr5 2.120320 1_555
O66 P0 1.549026 1_555
O66 Sc4 2.177580 1_555
O67 P1 1.528966 1_555
O67 Sc4 2.098740 1_555
O68 P2 1.548437 1_555
O68 Sc4 2.178225 1_555
O69 P3 1.529936 1_555
O69 Sc5 2.171033 1_555
O70 P4 1.530715 1_555
O70 Sc5 2.178162 1_555
O71 Si0 1.637722 1_555
O71 Sc5 2.114460 1_555
