# generated using pymatgen
data_Na4Mg(NiO2)5
_symmetry_space_group_name_H-M   'P 1'
_cell_length_a   6.23013266
_cell_length_b   7.17349193
_cell_length_c   6.97284632
_cell_angle_alpha   114.12027716
_cell_angle_beta   86.56351082
_cell_angle_gamma   118.63799738
_symmetry_Int_Tables_number   1
_chemical_formula_structural   Na4Mg(NiO2)5
_chemical_formula_sum   'Na4 Mg1 Ni5 O10'
_cell_volume   246.00661958
_cell_formula_units_Z   1
loop_
 _symmetry_equiv_pos_site_id
 _symmetry_equiv_pos_as_xyz
  1  'x, y, z'
loop_
 _atom_site_type_symbol
 _atom_site_label
 _atom_site_symmetry_multiplicity
 _atom_site_fract_x
 _atom_site_fract_y
 _atom_site_fract_z
 _atom_site_occupancy
  Na  Na0  1  0.80511915  0.64012195  0.63077781  1
  Na  Na1  1  0.65887296  0.17135461  0.20694478  1
  Na  Na2  1  0.35463422  0.81242087  0.79902420  1
  Na  Na3  1  0.26147900  0.33996076  0.41805633  1
  Mg  Mg0  1  0.23172134  0.59799024  0.25041843  1
  Ni  Ni0  1  0.79073543  0.09323495  0.59668986  1
  Ni  Ni1  1  0.41737351  0.28634567  0.81494030  1
  Ni  Ni2  1  0.65940747  0.67745343  0.21659364  1
  Ni  Ni3  1  0.16619470  0.93563979  0.40379920  1
  Ni  Ni4  1  0.94268513  0.51812994  0.95209818  1
  O  O0  1  0.89750262  -0.00172929  0.32859288  1
  O  O1  1  0.69006237  0.60304140  0.93127664  1
  O  O2  1  0.91383257  0.59364902  0.29368829  1
  O  O3  1  0.67204372  0.17951617  0.85517785  1
  O  O4  1  0.47137109  0.21504736  0.52836237  1
  O  O5  1  0.53098793  0.75566130  0.48073255  1
  O  O6  1  0.27461449  0.82326469  0.13444088  1
  O  O7  1  0.02504600  0.41440667  0.66823753  1
  O  O8  1  0.35697944  0.38180218  0.10244258  1
  O  O9  1  0.10433687  0.01477127  0.68400171  1
loop_
_geom_bond_atom_site_label_1
_geom_bond_atom_site_label_2
_geom_bond_distance
_geom_bond_site_symmetry_2
Na0 O1 2.251155 1_555
Na0 O9 2.302420 1_665
Na0 O2 2.340886 1_555
Na0 O4 2.540128 1_555
Na0 O5 2.641626 1_555
Na0 O7 2.661286 1_655
Na1 O6 2.367521 1_545
Na1 O4 2.439009 1_555
Na1 O2 2.463939 1_555
Na1 O3 2.472874 1_554
Na1 O0 2.693086 1_555
Na2 O3 2.292791 1_565
Na2 O6 2.339511 1_556
Na2 O7 2.382571 1_555
Na2 O5 2.386751 1_555
Na2 O9 2.907426 1_565
Na3 O4 2.216196 1_555
Na3 O0 2.265236 1_455
Na3 O7 2.276556 1_555
Na3 O8 2.344995 1_555
Na3 O5 2.475095 1_555
Mg0 O8 1.958157 1_555
Mg0 O2 1.972628 1_455
Mg0 O6 1.991260 1_555
Mg0 O5 2.046360 1_555
Ni0 O3 1.883001 1_555
Ni0 O7 1.900525 1_655
Ni0 O0 1.909353 1_555
Ni0 O5 1.984154 1_545
Ni0 O9 2.445711 1_655
Ni1 O9 1.884199 1_555
Ni1 O4 1.901801 1_555
Ni1 O8 1.914136 1_556
Ni1 O1 1.914377 1_555
Ni1 O3 2.139623 1_555
Ni2 O1 1.861081 1_554
Ni2 O0 1.871974 1_565
Ni2 O8 1.910848 1_555
Ni2 O5 1.938083 1_555
Ni2 O2 2.107756 1_555
Ni3 O9 1.871118 1_565
Ni3 O4 1.873213 1_565
Ni3 O6 1.940646 1_555
Ni3 O2 1.996992 1_455
Ni3 O0 2.073115 1_465
Ni4 O7 1.942973 1_655
Ni4 O1 1.971743 1_555
Ni4 O3 2.017186 1_555
Ni4 O6 2.094271 1_656
Ni4 O2 2.233033 1_556
