# generated using pymatgen
data_BaYMgCuAgO5
_symmetry_space_group_name_H-M   'P 1'
_cell_length_a   3.85817400
_cell_length_b   3.85960900
_cell_length_c   9.86754700
_cell_angle_alpha   90.00000581
_cell_angle_beta   90.00002646
_cell_angle_gamma   90.00000000
_symmetry_Int_Tables_number   1
_chemical_formula_structural   BaYMgCuAgO5
_chemical_formula_sum   'Ba1 Y1 Mg1 Cu1 Ag1 O5'
_cell_volume   146.93806761
_cell_formula_units_Z   1
loop_
 _symmetry_equiv_pos_site_id
 _symmetry_equiv_pos_as_xyz
  1  'x, y, z'
loop_
 _atom_site_type_symbol
 _atom_site_label
 _atom_site_symmetry_multiplicity
 _atom_site_fract_x
 _atom_site_fract_y
 _atom_site_fract_z
 _atom_site_occupancy
  Ba  Ba0  1  0.00000100  0.99999900  0.04811500  1
  Y  Y0  1  0.00000000  0.00000000  0.41649900  1
  Mg  Mg0  1  0.00000000  0.00000000  0.67928300  1
  Cu  Cu0  1  0.49999900  0.49999800  0.26205800  1
  Ag  Ag0  1  0.50000000  0.50000000  0.76587100  1
  O  O0  1  0.00000000  0.50000000  0.59832300  1
  O  O1  1  0.50000000  0.00000000  0.59781800  1
  O  O2  1  0.99999900  0.50000000  0.28342100  1
  O  O3  1  0.49999800  0.99999900  0.28322100  1
  O  O4  1  0.49999900  0.50000000  0.98664200  1
loop_
_geom_bond_atom_site_label_1
_geom_bond_atom_site_label_2
_geom_bond_distance
_geom_bond_site_symmetry_2
Ba0 O4 2.795251 1_554
Ba0 O4 2.795256 1_564
Ba0 O4 2.795261 1_454
Ba0 O4 2.795266 1_464
Ba0 O3 3.017177 1_555
Ba0 O3 3.017193 1_455
Ba0 O2 3.019159 1_455
Ba0 O2 3.019163 1_465
Mg0 O0 2.088624 1_545
Mg0 O0 2.088624 1_555
Mg0 O1 2.089872 1_455
Mg0 O1 2.089873 1_555
Cu0 O2 1.940570 1_555
Cu0 O2 1.940570 1_455
Cu0 O3 1.941067 1_545
Cu0 O3 1.941074 1_555
Ag0 O4 2.178468 1_555
Ag0 O0 2.540617 1_555
Ag0 O0 2.540618 1_655
Ag0 O1 2.544407 1_555
Ag0 O1 2.544407 1_565
O0 Y0 2.634985 1_555
O0 Y0 2.634985 1_565
O1 Y0 2.631067 1_555
O1 Y0 2.631069 1_655
O2 Y0 2.334206 1_665
O2 Y0 2.334206 1_655
O3 Y0 2.334718 1_565
O3 Y0 2.334730 1_665
