# generated using pymatgen
data_Zr3GeO8
_symmetry_space_group_name_H-M   'P 1'
_cell_length_a   5.01459289
_cell_length_b   5.01458845
_cell_length_c   6.33418319
_cell_angle_alpha   113.31969382
_cell_angle_beta   113.32013782
_cell_angle_gamma   90.00120143
_symmetry_Int_Tables_number   1
_chemical_formula_structural   Zr3GeO8
_chemical_formula_sum   'Zr3 Ge1 O8'
_cell_volume   131.97929299
_cell_formula_units_Z   1
loop_
 _symmetry_equiv_pos_site_id
 _symmetry_equiv_pos_as_xyz
  1  'x, y, z'
loop_
 _atom_site_type_symbol
 _atom_site_label
 _atom_site_symmetry_multiplicity
 _atom_site_fract_x
 _atom_site_fract_y
 _atom_site_fract_z
 _atom_site_occupancy
  Zr  Zr0  1  0.49999638  0.49999382  0.00003111  1
  Zr  Zr1  1  0.25003149  0.75002331  0.49999402  1
  Zr  Zr2  1  0.75002301  0.25003191  0.49999328  1
  Ge  Ge0  1  0.99997788  0.99997669  0.99998895  1
  O  O0  1  0.53685507  0.53685716  0.68119250  1
  O  O1  1  0.85570038  0.46311705  0.31881267  1
  O  O2  1  0.46311713  0.85569931  0.31881309  1
  O  O3  1  0.14427162  0.14427405  0.68116961  1
  O  O4  1  0.30263142  0.30262999  0.17840761  1
  O  O5  1  0.12420828  0.69735963  0.82157766  1
  O  O6  1  0.69735927  0.12420924  0.82157865  1
  O  O7  1  0.87582606  0.87582583  0.17844185  1
loop_
_geom_bond_atom_site_label_1
_geom_bond_atom_site_label_2
_geom_bond_distance
_geom_bond_site_symmetry_2
Ge0 O7 1.779657 1_556
Ge0 O6 1.779799 1_565
Ge0 O5 1.779800 1_655
Ge0 O4 1.779861 1_666
O0 Zr1 2.047699 1_555
O0 Zr2 2.047722 1_555
O0 Zr0 2.176731 1_556
O1 Zr2 2.047439 1_555
O1 Zr1 2.047694 1_655
O1 Zr0 2.176491 1_555
O2 Zr1 2.047441 1_555
O2 Zr2 2.047701 1_565
O2 Zr0 2.176514 1_555
O3 Zr2 2.047525 1_455
O3 Zr1 2.047545 1_545
O3 Zr0 2.176738 1_556
O4 Zr0 2.237467 1_555
O4 Zr2 2.461565 1_555
O4 Zr1 2.461590 1_555
O5 Zr0 2.237772 1_556
O5 Zr2 2.461295 1_455
O5 Zr1 2.461817 1_555
O6 Zr0 2.237759 1_556
O6 Zr1 2.461295 1_545
O6 Zr2 2.461823 1_555
O7 Zr0 2.237903 1_555
O7 Zr1 2.461491 1_655
O7 Zr2 2.461506 1_565
