# generated using pymatgen
data_MgTlV4FeS8
_symmetry_space_group_name_H-M   'P 1'
_cell_length_a   3.47985400
_cell_length_b   8.82388579
_cell_length_c   8.95455407
_cell_angle_alpha   103.63398213
_cell_angle_beta   101.20547219
_cell_angle_gamma   90.00354420
_symmetry_Int_Tables_number   1
_chemical_formula_structural   MgTlV4FeS8
_chemical_formula_sum   'Mg1 Tl1 V4 Fe1 S8'
_cell_volume   261.81163320
_cell_formula_units_Z   1
loop_
 _symmetry_equiv_pos_site_id
 _symmetry_equiv_pos_as_xyz
  1  'x, y, z'
loop_
 _atom_site_type_symbol
 _atom_site_label
 _atom_site_symmetry_multiplicity
 _atom_site_fract_x
 _atom_site_fract_y
 _atom_site_fract_z
 _atom_site_occupancy
  Mg  Mg0  1  0.63129900  0.17460200  0.26416900  1
  Tl  Tl0  1  0.46446100  0.96294200  0.92795200  1
  V  V0  1  0.69884300  0.81971700  0.39927200  1
  V  V1  1  0.30107200  0.16819700  0.60287400  1
  V  V2  1  0.66818800  0.51753900  0.33787800  1
  V  V3  1  0.35865800  0.50972600  0.71779600  1
  Fe  Fe0  1  0.98873400  0.49701100  0.97844800  1
  S  S0  1  0.82913500  0.00251800  0.65914300  1
  S  S1  1  0.16320300  0.99349200  0.32785300  1
  S  S2  1  0.76887500  0.35188000  0.53858600  1
  S  S3  1  0.24536600  0.66836200  0.49212200  1
  S  S4  1  0.91763100  0.67230300  0.83569900  1
  S  S5  1  0.08934900  0.34996800  0.18011900  1
  S  S6  1  0.56614500  0.63889900  0.13317200  1
  S  S7  1  0.43403900  0.33690600  0.86920300  1
loop_
_geom_bond_atom_site_label_1
_geom_bond_atom_site_label_2
_geom_bond_distance
_geom_bond_site_symmetry_2
Mg0 S1 2.514513 1_545
Mg0 S1 2.514931 1_645
Mg0 S2 2.538690 1_555
Mg0 S5 2.552514 1_555
Mg0 S5 2.552762 1_655
Mg0 Tl0 3.091773 1_544
Fe0 S4 2.212879 1_555
Fe0 S7 2.300425 1_655
Fe0 S7 2.300643 1_555
Fe0 S6 2.371478 1_556
Fe0 S6 2.371570 1_656
Fe0 S5 2.434377 1_656
S0 V1 2.399079 1_555
S0 V1 2.399325 1_655
S0 V0 2.458200 1_545
S0 Tl0 3.018231 1_545
S0 Tl0 3.021890 1_645
S1 V0 2.496776 1_555
S1 V0 2.497000 1_455
S1 V1 2.534247 1_565
S2 V3 2.527793 1_555
S2 V3 2.528479 1_655
S2 V1 2.532224 1_555
S2 V1 2.532599 1_655
S2 V2 2.546263 1_555
S3 V2 2.401505 1_555
S3 V2 2.401625 1_455
S3 V0 2.449140 1_555
S3 V0 2.449716 1_455
S3 V3 2.687468 1_555
S4 V3 2.333169 1_555
S4 V3 2.333224 1_655
S4 Tl0 3.042084 1_555
S4 Tl0 3.044681 1_655
S5 V2 2.479563 1_555
S5 V2 2.479932 1_455
S6 V2 2.303346 1_555
S6 V0 2.493317 1_555
S7 V3 2.251428 1_555
S7 V1 2.452568 1_555
