# generated using pymatgen
data_MgTe2Mo2W2(Se2S)2
_symmetry_space_group_name_H-M   'P 1'
_cell_length_a   6.67923400
_cell_length_b   6.67893393
_cell_length_c   89.52328191
_cell_angle_alpha   90.03660195
_cell_angle_beta   89.99999745
_cell_angle_gamma   120.00145915
_symmetry_Int_Tables_number   1
_chemical_formula_structural   MgTe2Mo2W2(Se2S)2
_chemical_formula_sum   'Mg8 Te16 Mo16 W16 Se32 S16'
_cell_volume   3458.54896626
_cell_formula_units_Z   8
loop_
 _symmetry_equiv_pos_site_id
 _symmetry_equiv_pos_as_xyz
  1  'x, y, z'
loop_
 _atom_site_type_symbol
 _atom_site_label
 _atom_site_symmetry_multiplicity
 _atom_site_fract_x
 _atom_site_fract_y
 _atom_site_fract_z
 _atom_site_occupancy
  Mg  Mg0_0  1  0.49999050  0.49998150  0.18707800  1
  Mg  Mg0_1  1  0.49999050  0.49998150  0.68707800  1
  Mg  Mg0_2  1  0.49999050  0.99998150  0.18707800  1
  Mg  Mg0_3  1  0.49999050  0.99998150  0.68707800  1
  Mg  Mg0_4  1  0.99999050  0.49998150  0.18707800  1
  Mg  Mg0_5  1  0.99999050  0.49998150  0.68707800  1
  Mg  Mg0_6  1  0.99999050  0.99998150  0.18707800  1
  Mg  Mg0_7  1  0.99999050  0.99998150  0.68707800  1
  Te  Te0_0  1  0.16678500  0.33357000  0.35023750  1
  Te  Te0_1  1  0.16678500  0.33357000  0.85023750  1
  Te  Te0_2  1  0.16678500  0.83357000  0.35023750  1
  Te  Te0_3  1  0.16678500  0.83357000  0.85023750  1
  Te  Te0_4  1  0.66678500  0.33357000  0.35023750  1
  Te  Te0_5  1  0.66678500  0.33357000  0.85023750  1
  Te  Te0_6  1  0.66678500  0.83357000  0.35023750  1
  Te  Te0_7  1  0.66678500  0.83357000  0.85023750  1
  Te  Te1_0  1  0.16660450  0.33321000  0.30756150  1
  Te  Te1_1  1  0.16660450  0.33321000  0.80756150  1
  Te  Te1_2  1  0.16660450  0.83321000  0.30756150  1
  Te  Te1_3  1  0.16660450  0.83321000  0.80756150  1
  Te  Te1_4  1  0.66660450  0.33321000  0.30756150  1
  Te  Te1_5  1  0.66660450  0.33321000  0.80756150  1
  Te  Te1_6  1  0.66660450  0.83321000  0.30756150  1
  Te  Te1_7  1  0.66660450  0.83321000  0.80756150  1
  Mo  Mo0_0  1  0.16665000  0.33329900  0.04686550  1
  Mo  Mo0_1  1  0.16665000  0.33329900  0.54686550  1
  Mo  Mo0_2  1  0.16665000  0.83329900  0.04686550  1
  Mo  Mo0_3  1  0.16665000  0.83329900  0.54686550  1
  Mo  Mo0_4  1  0.66665000  0.33329900  0.04686550  1
  Mo  Mo0_5  1  0.66665000  0.33329900  0.54686550  1
  Mo  Mo0_6  1  0.66665000  0.83329900  0.04686550  1
  Mo  Mo0_7  1  0.66665000  0.83329900  0.54686550  1
  Mo  Mo1_0  1  0.33338900  0.16678000  0.13784900  1
  Mo  Mo1_1  1  0.33338900  0.16678000  0.63784900  1
  Mo  Mo1_2  1  0.33338900  0.66678000  0.13784900  1
  Mo  Mo1_3  1  0.33338900  0.66678000  0.63784900  1
  Mo  Mo1_4  1  0.83338900  0.16678000  0.13784900  1
  Mo  Mo1_5  1  0.83338900  0.16678000  0.63784900  1
  Mo  Mo1_6  1  0.83338900  0.66678000  0.13784900  1
  Mo  Mo1_7  1  0.83338900  0.66678000  0.63784900  1
  W  W0_0  1  0.16669200  0.33338300  0.23875100  1
  W  W0_1  1  0.16669200  0.33338300  0.73875100  1
  W  W0_2  1  0.16669200  0.83338300  0.23875100  1
  W  W0_3  1  0.16669200  0.83338300  0.73875100  1
  W  W0_4  1  0.66669200  0.33338300  0.23875100  1
  W  W0_5  1  0.66669200  0.33338300  0.73875100  1
  W  W0_6  1  0.66669200  0.83338300  0.23875100  1
  W  W0_7  1  0.66669200  0.83338300  0.73875100  1
  W  W1_0  1  0.33336650  0.16673400  0.32890250  1
  W  W1_1  1  0.33336650  0.16673400  0.82890250  1
  W  W1_2  1  0.33336650  0.66673400  0.32890250  1
  W  W1_3  1  0.33336650  0.66673400  0.82890250  1
  W  W1_4  1  0.83336650  0.16673400  0.32890250  1
  W  W1_5  1  0.83336650  0.16673400  0.82890250  1
  W  W1_6  1  0.83336650  0.66673400  0.32890250  1
  W  W1_7  1  0.83336650  0.66673400  0.82890250  1
  Se  Se0_0  1  0.16681050  0.33362150  0.15680800  1
  Se  Se0_1  1  0.16681050  0.33362150  0.65680800  1
  Se  Se0_2  1  0.16681050  0.83362150  0.15680800  1
  Se  Se0_3  1  0.16681050  0.83362150  0.65680800  1
  Se  Se0_4  1  0.66681050  0.33362150  0.15680800  1
  Se  Se0_5  1  0.66681050  0.33362150  0.65680800  1
  Se  Se0_6  1  0.66681050  0.83362150  0.15680800  1
  Se  Se0_7  1  0.66681050  0.83362150  0.65680800  1
  Se  Se1_0  1  0.33322200  0.16644250  0.02821850  1
  Se  Se1_1  1  0.33322200  0.16644250  0.52821850  1
  Se  Se1_2  1  0.33322200  0.66644250  0.02821850  1
  Se  Se1_3  1  0.33322200  0.66644250  0.52821850  1
  Se  Se1_4  1  0.83322200  0.16644250  0.02821850  1
  Se  Se1_5  1  0.83322200  0.16644250  0.52821850  1
  Se  Se1_6  1  0.83322200  0.66644250  0.02821850  1
  Se  Se1_7  1  0.83322200  0.66644250  0.52821850  1
  Se  Se2_0  1  0.33341700  0.16683300  0.06550450  1
  Se  Se2_1  1  0.33341700  0.16683300  0.56550450  1
  Se  Se2_2  1  0.33341700  0.66683300  0.06550450  1
  Se  Se2_3  1  0.33341700  0.66683300  0.56550450  1
  Se  Se2_4  1  0.83341700  0.16683300  0.06550450  1
  Se  Se2_5  1  0.83341700  0.16683300  0.56550450  1
  Se  Se2_6  1  0.83341700  0.66683300  0.06550450  1
  Se  Se2_7  1  0.83341700  0.66683300  0.56550450  1
  Se  Se3_0  1  0.16658000  0.33316050  0.11929800  1
  Se  Se3_1  1  0.16658000  0.33316050  0.61929800  1
  Se  Se3_2  1  0.16658000  0.83316050  0.11929800  1
  Se  Se3_3  1  0.16658000  0.83316050  0.61929800  1
  Se  Se3_4  1  0.66658000  0.33316050  0.11929800  1
  Se  Se3_5  1  0.66658000  0.33316050  0.61929800  1
  Se  Se3_6  1  0.66658000  0.83316050  0.11929800  1
  Se  Se3_7  1  0.66658000  0.83316050  0.61929800  1
  S  S0_0  1  0.33316050  0.16632050  0.22167100  1
  S  S0_1  1  0.33316050  0.16632050  0.72167100  1
  S  S0_2  1  0.33316050  0.66632050  0.22167100  1
  S  S0_3  1  0.33316050  0.66632050  0.72167100  1
  S  S0_4  1  0.83316050  0.16632050  0.22167100  1
  S  S0_5  1  0.83316050  0.16632050  0.72167100  1
  S  S0_6  1  0.83316050  0.66632050  0.22167100  1
  S  S0_7  1  0.83316050  0.66632050  0.72167100  1
  S  S1_0  1  0.33333250  0.16666500  0.25573350  1
  S  S1_1  1  0.33333250  0.16666500  0.75573350  1
  S  S1_2  1  0.33333250  0.66666500  0.25573350  1
  S  S1_3  1  0.33333250  0.66666500  0.75573350  1
  S  S1_4  1  0.83333250  0.16666500  0.25573350  1
  S  S1_5  1  0.83333250  0.16666500  0.75573350  1
  S  S1_6  1  0.83333250  0.66666500  0.25573350  1
  S  S1_7  1  0.83333250  0.66666500  0.75573350  1
loop_
_geom_bond_atom_site_label_1
_geom_bond_atom_site_label_2
_geom_bond_distance
_geom_bond_site_symmetry_2
Mg0_0 Se0_4 3.324710 1_555
Mg0_0 Se0_0 3.324711 1_555
Mg0_0 Se0_6 3.327941 1_555
Mg0_0 Mg0_2 3.339467 1_555
Mg0_0 Mg0_2 3.339467 1_545
Mg0_0 Mg0_6 3.339468 1_555
Mg0_0 Mg0_6 3.339468 1_445
Mg0_0 Mg0_4 3.339617 1_455
Mg0_0 Mg0_4 3.339617 1_555
Mg0_1 Se0_5 3.324710 1_555
Mg0_1 Se0_1 3.324711 1_555
Mg0_1 Se0_7 3.327941 1_555
Mg0_1 Mg0_3 3.339467 1_545
Mg0_1 Mg0_3 3.339467 1_555
Mg0_1 Mg0_7 3.339468 1_445
Mg0_1 Mg0_7 3.339468 1_555
Mg0_1 Mg0_5 3.339617 1_555
Mg0_1 Mg0_5 3.339617 1_455
Mg0_2 Se0_6 3.324710 1_555
Mg0_2 Se0_2 3.324711 1_555
Mg0_2 Se0_4 3.327941 1_565
Mg0_2 Mg0_4 3.339468 1_455
Mg0_2 Mg0_4 3.339468 1_565
Mg0_2 Mg0_6 3.339617 1_455
Mg0_2 Mg0_6 3.339617 1_555
Mg0_3 Se0_7 3.324710 1_555
Mg0_3 Se0_3 3.324711 1_555
Mg0_3 Se0_5 3.327941 1_565
Mg0_3 Mg0_5 3.339468 1_455
Mg0_3 Mg0_5 3.339468 1_565
Mg0_3 Mg0_7 3.339617 1_455
Mg0_3 Mg0_7 3.339617 1_555
Mg0_4 Se0_0 3.324710 1_655
Mg0_4 Se0_4 3.324711 1_555
Mg0_4 Se0_2 3.327941 1_655
Mg0_4 Mg0_6 3.339467 1_555
Mg0_4 Mg0_6 3.339467 1_545
Mg0_5 Se0_1 3.324710 1_655
Mg0_5 Se0_5 3.324711 1_555
Mg0_5 Se0_3 3.327941 1_655
Mg0_5 Mg0_7 3.339467 1_555
Mg0_5 Mg0_7 3.339467 1_545
Mg0_6 Se0_2 3.324710 1_655
Mg0_6 Se0_6 3.324711 1_555
Mg0_6 Se0_0 3.327941 1_665
Mg0_7 Se0_3 3.324710 1_655
Mg0_7 Se0_7 3.324711 1_555
Mg0_7 Se0_1 3.327941 1_665
Te0_0 W1_0 2.713807 1_555
Te0_0 W1_4 2.713812 1_455
Te0_0 W1_2 2.714206 1_555
Te0_1 W1_1 2.713807 1_555
Te0_1 W1_5 2.713812 1_455
Te0_1 W1_3 2.714206 1_555
Te0_2 W1_2 2.713807 1_555
Te0_2 W1_6 2.713812 1_455
Te0_2 W1_0 2.714206 1_565
Te0_3 W1_3 2.713807 1_555
Te0_3 W1_7 2.713812 1_455
Te0_3 W1_1 2.714206 1_565
Te0_4 W1_4 2.713807 1_555
Te0_4 W1_0 2.713812 1_555
Te0_4 W1_6 2.714206 1_555
Te0_5 W1_5 2.713807 1_555
Te0_5 W1_1 2.713812 1_555
Te0_5 W1_7 2.714206 1_555
Te0_6 W1_6 2.713807 1_555
Te0_6 W1_2 2.713812 1_555
Te0_6 W1_4 2.714206 1_565
Te0_7 W1_7 2.713807 1_555
Te0_7 W1_3 2.713812 1_555
Te0_7 W1_5 2.714206 1_565
Te1_0 W1_2 2.714061 1_555
Te1_0 W1_0 2.714448 1_555
Te1_0 W1_4 2.714449 1_455
Te1_1 W1_3 2.714061 1_555
Te1_1 W1_1 2.714448 1_555
Te1_1 W1_5 2.714449 1_455
Te1_2 W1_0 2.714061 1_565
Te1_2 W1_2 2.714448 1_555
Te1_2 W1_6 2.714449 1_455
Te1_3 W1_1 2.714061 1_565
Te1_3 W1_3 2.714448 1_555
Te1_3 W1_7 2.714449 1_455
Te1_4 W1_6 2.714061 1_555
Te1_4 W1_4 2.714448 1_555
Te1_4 W1_0 2.714449 1_555
Te1_5 W1_7 2.714061 1_555
Te1_5 W1_5 2.714448 1_555
Te1_5 W1_1 2.714449 1_555
Te1_6 W1_4 2.714061 1_565
Te1_6 W1_6 2.714448 1_555
Te1_6 W1_2 2.714449 1_555
Te1_7 W1_5 2.714061 1_565
Te1_7 W1_7 2.714448 1_555
Te1_7 W1_3 2.714449 1_555
Mo0_0 Se2_2 2.549759 1_555
Mo0_0 Se2_0 2.549904 1_555
Mo0_0 Se2_4 2.549904 1_455
Mo0_0 Se1_4 2.550295 1_455
Mo0_0 Se1_0 2.550297 1_555
Mo0_0 Se1_2 2.550382 1_555
Mo0_1 Se2_3 2.549759 1_555
Mo0_1 Se2_1 2.549904 1_555
Mo0_1 Se2_5 2.549904 1_455
Mo0_1 Se1_5 2.550295 1_455
Mo0_1 Se1_1 2.550297 1_555
Mo0_1 Se1_3 2.550382 1_555
Mo0_2 Se2_0 2.549759 1_565
Mo0_2 Se2_2 2.549904 1_555
Mo0_2 Se2_6 2.549904 1_455
Mo0_2 Se1_6 2.550295 1_455
Mo0_2 Se1_2 2.550297 1_555
Mo0_2 Se1_0 2.550382 1_565
Mo0_3 Se2_1 2.549759 1_565
Mo0_3 Se2_3 2.549904 1_555
Mo0_3 Se2_7 2.549904 1_455
Mo0_3 Se1_7 2.550295 1_455
Mo0_3 Se1_3 2.550297 1_555
Mo0_3 Se1_1 2.550382 1_565
Mo0_4 Se2_6 2.549759 1_555
Mo0_4 Se2_4 2.549904 1_555
Mo0_4 Se2_0 2.549904 1_555
Mo0_4 Se1_0 2.550295 1_555
Mo0_4 Se1_4 2.550297 1_555
Mo0_4 Se1_6 2.550382 1_555
Mo0_5 Se2_7 2.549759 1_555
Mo0_5 Se2_5 2.549904 1_555
Mo0_5 Se2_1 2.549904 1_555
Mo0_5 Se1_1 2.550295 1_555
Mo0_5 Se1_5 2.550297 1_555
Mo0_5 Se1_7 2.550382 1_555
Mo0_6 Se2_4 2.549759 1_565
Mo0_6 Se2_6 2.549904 1_555
Mo0_6 Se2_2 2.549904 1_555
Mo0_6 Se1_2 2.550295 1_555
Mo0_6 Se1_6 2.550297 1_555
Mo0_6 Se1_4 2.550382 1_565
Mo0_7 Se2_5 2.549759 1_565
Mo0_7 Se2_7 2.549904 1_555
Mo0_7 Se2_3 2.549904 1_555
Mo0_7 Se1_3 2.550295 1_555
Mo0_7 Se1_7 2.550297 1_555
Mo0_7 Se1_5 2.550382 1_565
Mo1_0 Se3_0 2.544563 1_555
Mo1_0 Se3_4 2.544570 1_555
Mo1_0 Se3_2 2.544990 1_545
Mo1_0 Se0_0 2.568622 1_555
Mo1_0 Se0_4 2.568629 1_555
Mo1_0 Se0_2 2.568832 1_545
Mo1_1 Se3_1 2.544563 1_555
Mo1_1 Se3_5 2.544570 1_555
Mo1_1 Se3_3 2.544990 1_545
Mo1_1 Se0_1 2.568622 1_555
Mo1_1 Se0_5 2.568629 1_555
Mo1_1 Se0_3 2.568832 1_545
Mo1_2 Se3_2 2.544563 1_555
Mo1_2 Se3_6 2.544570 1_555
Mo1_2 Se3_0 2.544990 1_555
Mo1_2 Se0_2 2.568622 1_555
Mo1_2 Se0_6 2.568629 1_555
Mo1_2 Se0_0 2.568832 1_555
Mo1_3 Se3_3 2.544563 1_555
Mo1_3 Se3_7 2.544570 1_555
Mo1_3 Se3_1 2.544990 1_555
Mo1_3 Se0_3 2.568622 1_555
Mo1_3 Se0_7 2.568629 1_555
Mo1_3 Se0_1 2.568832 1_555
Mo1_4 Se3_4 2.544563 1_555
Mo1_4 Se3_0 2.544570 1_655
Mo1_4 Se3_6 2.544990 1_545
Mo1_4 Se0_4 2.568622 1_555
Mo1_4 Se0_0 2.568629 1_655
Mo1_4 Se0_6 2.568832 1_545
Mo1_5 Se3_5 2.544563 1_555
Mo1_5 Se3_1 2.544570 1_655
Mo1_5 Se3_7 2.544990 1_545
Mo1_5 Se0_5 2.568622 1_555
Mo1_5 Se0_1 2.568629 1_655
Mo1_5 Se0_7 2.568832 1_545
Mo1_6 Se3_6 2.544563 1_555
Mo1_6 Se3_2 2.544570 1_655
Mo1_6 Se3_4 2.544990 1_555
Mo1_6 Se0_6 2.568622 1_555
Mo1_6 Se0_2 2.568629 1_655
Mo1_6 Se0_4 2.568832 1_555
Mo1_7 Se3_7 2.544563 1_555
Mo1_7 Se3_3 2.544570 1_655
Mo1_7 Se3_5 2.544990 1_555
Mo1_7 Se0_7 2.568622 1_555
Mo1_7 Se0_3 2.568629 1_655
Mo1_7 Se0_5 2.568832 1_555
S0_0 W0_2 2.459832 1_545
S0_0 W0_0 2.461264 1_555
S0_0 W0_4 2.461267 1_555
S0_1 W0_3 2.459832 1_545
S0_1 W0_1 2.461264 1_555
S0_1 W0_5 2.461267 1_555
S0_2 W0_0 2.459832 1_555
S0_2 W0_2 2.461264 1_555
S0_2 W0_6 2.461267 1_555
S0_3 W0_1 2.459832 1_555
S0_3 W0_3 2.461264 1_555
S0_3 W0_7 2.461267 1_555
S0_4 W0_6 2.459832 1_545
S0_4 W0_4 2.461264 1_555
S0_4 W0_0 2.461267 1_655
S0_5 W0_7 2.459832 1_545
S0_5 W0_5 2.461264 1_555
S0_5 W0_1 2.461267 1_655
S0_6 W0_4 2.459832 1_555
S0_6 W0_6 2.461264 1_555
S0_6 W0_2 2.461267 1_655
S0_7 W0_5 2.459832 1_555
S0_7 W0_7 2.461264 1_555
S0_7 W0_3 2.461267 1_655
S1_0 W0_2 2.454215 1_545
S1_0 W0_0 2.455951 1_555
S1_0 W0_4 2.455956 1_555
S1_1 W0_3 2.454215 1_545
S1_1 W0_1 2.455951 1_555
S1_1 W0_5 2.455956 1_555
S1_2 W0_0 2.454215 1_555
S1_2 W0_2 2.455951 1_555
S1_2 W0_6 2.455956 1_555
S1_3 W0_1 2.454215 1_555
S1_3 W0_3 2.455951 1_555
S1_3 W0_7 2.455956 1_555
S1_4 W0_6 2.454215 1_545
S1_4 W0_4 2.455951 1_555
S1_4 W0_0 2.455956 1_655
S1_5 W0_7 2.454215 1_545
S1_5 W0_5 2.455951 1_555
S1_5 W0_1 2.455956 1_655
S1_6 W0_4 2.454215 1_555
S1_6 W0_6 2.455951 1_555
S1_6 W0_2 2.455956 1_655
S1_7 W0_5 2.454215 1_555
S1_7 W0_7 2.455951 1_555
S1_7 W0_3 2.455956 1_655
