# generated using pymatgen
data_LiFeP2O7
_symmetry_space_group_name_H-M   'P 1'
_cell_length_a   6.45643900
_cell_length_b   9.36849740
_cell_length_c   10.52043203
_cell_angle_alpha   114.54265630
_cell_angle_beta   85.90295394
_cell_angle_gamma   107.10015342
_symmetry_Int_Tables_number   1
_chemical_formula_structural   LiFeP2O7
_chemical_formula_sum   'Li4 Fe4 P8 O28'
_cell_volume   552.32676228
_cell_formula_units_Z   4
loop_
 _symmetry_equiv_pos_site_id
 _symmetry_equiv_pos_as_xyz
  1  'x, y, z'
loop_
 _atom_site_type_symbol
 _atom_site_label
 _atom_site_symmetry_multiplicity
 _atom_site_fract_x
 _atom_site_fract_y
 _atom_site_fract_z
 _atom_site_occupancy
  Li  Li0  1  0.08130800  0.06825400  0.05847100  1
  Li  Li1  1  0.65162000  0.05871500  0.59630100  1
  Li  Li2  1  0.96045400  0.84750900  0.52049800  1
  Li  Li3  1  0.56181700  0.51132800  0.97489400  1
  Fe  Fe0  1  0.72533300  0.09251200  0.22945300  1
  Fe  Fe1  1  0.63486500  0.49458600  0.24550700  1
  Fe  Fe2  1  0.34896600  0.49265900  0.73851000  1
  Fe  Fe3  1  0.27951000  0.89872700  0.78449400  1
  P  P0  1  0.41627900  0.69444200  0.53581200  1
  P  P1  1  0.58397300  0.30663100  0.46244100  1
  P  P2  1  0.92628600  0.80636400  0.20777500  1
  P  P3  1  0.69742000  0.19094200  0.95662500  1
  P  P4  1  0.11811300  0.44252900  0.29188300  1
  P  P5  1  0.31340000  0.79699200  0.04524700  1
  P  P6  1  0.88090900  0.55756500  0.70121700  1
  P  P7  1  0.07766200  0.17635800  0.79715200  1
  O  O0  1  0.61595900  0.67194800  0.45101000  1
  O  O1  1  0.94649600  0.51529500  0.27144800  1
  O  O2  1  0.92763500  0.27493300  0.90945400  1
  O  O3  1  0.95069900  0.07038200  0.65781100  1
  O  O4  1  0.01534600  0.87343500  0.35416100  1
  O  O5  1  0.08504800  0.71833000  0.09416300  1
  O  O6  1  0.04345000  0.47747300  0.72229400  1
  O  O7  1  0.02381600  0.26376500  0.27166000  1
  O  O8  1  0.26701900  0.89555900  0.96845900  1
  O  O9  1  0.20716000  0.54673600  0.45510500  1
  O  O10  1  0.36769200  0.85863700  0.57066100  1
  O  O11  1  0.45781500  0.91437900  0.17740700  1
  O  O12  1  0.31930100  0.46565000  0.20831700  1
  O  O13  1  0.13324000  0.07198700  0.86489100  1
  O  O14  1  0.39246200  0.65287400  0.94830000  1
  O  O15  1  0.74217900  0.10451500  0.04272000  1
  O  O16  1  0.28338300  0.31179200  0.80125700  1
  O  O17  1  0.38867100  0.33690800  0.54688600  1
  O  O18  1  0.42831000  0.69023500  0.68154500  1
  O  O19  1  0.71178400  0.66427700  0.16908800  1
  O  O20  1  0.57006900  0.29946200  0.31299300  1
  O  O21  1  0.60328400  0.33278600  0.03930600  1
  O  O22  1  0.90309500  0.93944900  0.16264000  1
  O  O23  1  0.68412300  0.53569400  0.78872400  1
  O  O24  1  0.56517000  0.06990300  0.81854700  1
  O  O25  1  0.64449900  0.15105700  0.44211800  1
  O  O26  1  0.79090000  0.46136600  0.53929000  1
  O  O27  1  0.98956800  0.73272900  0.71333900  1
loop_
_geom_bond_atom_site_label_1
_geom_bond_atom_site_label_2
_geom_bond_distance
_geom_bond_site_symmetry_2
Li0 O22 2.020634 1_445
Li0 O13 2.053256 1_554
Li0 O8 2.158197 1_544
Li0 O7 2.321887 1_555
Li0 O15 2.339466 1_455
Li1 O3 2.038401 1_555
Li1 O10 2.139303 1_545
Li1 O25 2.140429 1_555
Li1 O24 2.331027 1_555
Li2 O4 1.860304 1_655
Li2 O3 2.002268 1_565
Li2 O0 2.295392 1_555
Li3 O19 2.049244 1_556
Li3 O14 2.058390 1_555
Li3 O23 2.134515 1_555
Li3 O21 2.135324 1_556
Li3 O16 2.391503 1_555
Fe0 O11 1.936235 1_545
Fe0 O22 1.970489 1_545
Fe0 O15 2.007380 1_555
Fe0 O7 2.048717 1_655
Fe0 O25 2.135629 1_555
Fe0 O20 2.266683 1_555
Fe1 O19 1.990153 1_555
Fe1 O1 1.991302 1_555
Fe1 O12 2.019562 1_555
Fe1 O21 2.048162 1_555
Fe1 O0 2.132430 1_555
Fe1 O20 2.146333 1_555
Fe2 O6 1.950171 1_555
Fe2 O16 1.988359 1_555
Fe2 O17 1.990324 1_555
Fe2 O14 2.071622 1_555
Fe2 O18 2.089923 1_555
Fe2 O23 2.144182 1_555
Fe3 O8 1.943485 1_555
Fe3 O13 1.972004 1_565
Fe3 O24 1.994855 1_565
Fe3 O27 2.001075 1_455
Fe3 O10 2.183303 1_555
Fe3 O18 2.260235 1_555
O0 P0 1.530253 1_555
O1 P4 1.529277 1_655
O2 P3 1.614284 1_555
O2 P7 1.625763 1_655
O3 P7 1.513483 1_655
O4 P2 1.485717 1_455
O5 P5 1.596646 1_555
O5 P2 1.631777 1_455
O6 P6 1.532334 1_455
O7 P4 1.530881 1_555
O8 P5 1.553030 1_556
O9 P0 1.596160 1_555
O9 P4 1.628072 1_555
O10 P0 1.548517 1_555
O11 P5 1.524446 1_555
O12 P4 1.528617 1_555
O13 P7 1.553859 1_555
O14 P5 1.520099 1_556
O15 P3 1.530936 1_554
O16 P7 1.532164 1_555
O17 P1 1.516787 1_555
O18 P0 1.557956 1_555
O19 P2 1.549808 1_555
O20 P1 1.553532 1_555
O21 P3 1.526788 1_554
O22 P2 1.553767 1_555
O23 P6 1.529785 1_555
O24 P3 1.537695 1_555
O25 P1 1.544944 1_555
O26 P1 1.606786 1_555
O26 P6 1.615558 1_555
O27 P6 1.537297 1_555
