# generated using pymatgen
data_Na2InCuF7
_symmetry_space_group_name_H-M   'P 1'
_cell_length_a   7.36060200
_cell_length_b   7.83559500
_cell_length_c   10.72965700
_cell_angle_alpha   90.00000000
_cell_angle_beta   90.00000000
_cell_angle_gamma   90.00000000
_symmetry_Int_Tables_number   1
_chemical_formula_structural   Na2InCuF7
_chemical_formula_sum   'Na8 In4 Cu4 F28'
_cell_volume   618.82970811
_cell_formula_units_Z   4
loop_
 _symmetry_equiv_pos_site_id
 _symmetry_equiv_pos_as_xyz
  1  'x, y, z'
loop_
 _atom_site_type_symbol
 _atom_site_label
 _atom_site_symmetry_multiplicity
 _atom_site_fract_x
 _atom_site_fract_y
 _atom_site_fract_z
 _atom_site_occupancy
  Na  Na0  1  0.25000000  0.21752800  0.76224400  1
  Na  Na1  1  0.25000000  0.28247200  0.26224400  1
  Na  Na2  1  0.75000000  0.78247200  0.23775600  1
  Na  Na3  1  0.50000000  0.00000000  0.50000000  1
  Na  Na4  1  0.75000000  0.71752800  0.73775600  1
  Na  Na5  1  0.00000000  0.00000000  0.50000000  1
  Na  Na6  1  0.00000000  0.50000000  0.00000000  1
  Na  Na7  1  0.50000000  0.50000000  0.00000000  1
  In  In0  1  0.25000000  0.72547900  0.76732800  1
  In  In1  1  0.75000000  0.27452100  0.23267200  1
  In  In2  1  0.25000000  0.77452100  0.26732800  1
  In  In3  1  0.75000000  0.22547900  0.73267200  1
  Cu  Cu0  1  0.00000000  0.00000000  0.00000000  1
  Cu  Cu1  1  0.50000000  0.00000000  0.00000000  1
  Cu  Cu2  1  0.00000000  0.50000000  0.50000000  1
  Cu  Cu3  1  0.50000000  0.50000000  0.50000000  1
  F  F0  1  0.01859900  0.73457000  0.37783100  1
  F  F1  1  0.25000000  0.54438400  0.16693300  1
  F  F2  1  0.25000000  0.95561600  0.66693300  1
  F  F3  1  0.51859900  0.23457000  0.12216900  1
  F  F4  1  0.75000000  0.96018400  0.03309400  1
  F  F5  1  0.48140100  0.73457000  0.37783100  1
  F  F6  1  0.04553100  0.84972200  0.14019300  1
  F  F7  1  0.25000000  0.46018400  0.46690600  1
  F  F8  1  0.75000000  0.45561600  0.83306700  1
  F  F9  1  0.25000000  0.48295600  0.85847900  1
  F  F10  1  0.01859900  0.76543000  0.87783100  1
  F  F11  1  0.75000000  0.04438400  0.33306700  1
  F  F12  1  0.75000000  0.53981600  0.53309400  1
  F  F13  1  0.75000000  0.98295600  0.64152100  1
  F  F14  1  0.98140100  0.26543000  0.62216900  1
  F  F15  1  0.54553100  0.34972200  0.35980700  1
  F  F16  1  0.48140100  0.76543000  0.87783100  1
  F  F17  1  0.51859900  0.26543000  0.62216900  1
  F  F18  1  0.75000000  0.51704400  0.14152100  1
  F  F19  1  0.25000000  0.03981600  0.96690600  1
  F  F20  1  0.04553100  0.65027800  0.64019300  1
  F  F21  1  0.54553100  0.15027800  0.85980700  1
  F  F22  1  0.95446900  0.15027800  0.85980700  1
  F  F23  1  0.95446900  0.34972200  0.35980700  1
  F  F24  1  0.25000000  0.01704400  0.35847900  1
  F  F25  1  0.98140100  0.23457000  0.12216900  1
  F  F26  1  0.45446900  0.84972200  0.14019300  1
  F  F27  1  0.45446900  0.65027800  0.64019300  1
loop_
_geom_bond_atom_site_label_1
_geom_bond_atom_site_label_2
_geom_bond_distance
_geom_bond_site_symmetry_2
Cu0 F4 1.899888 1_445
Cu0 F19 1.899888 1_554
Cu0 F6 1.939471 1_545
Cu0 F22 1.939471 1_454
Cu0 F25 2.261691 1_455
Cu0 F10 2.261691 1_544
Cu1 F4 1.899888 1_545
Cu1 F19 1.899888 1_554
Cu1 F26 1.939471 1_545
Cu1 F21 1.939471 1_554
Cu1 F3 2.261691 1_555
Cu1 F16 2.261691 1_544
Cu2 F12 1.899888 1_455
Cu2 F7 1.899888 1_555
Cu2 F20 1.939471 1_555
Cu2 F23 1.939471 1_455
Cu2 F14 2.261691 1_455
Cu2 F0 2.261691 1_555
Cu3 F12 1.899888 1_555
Cu3 F7 1.899888 1_555
Cu3 F15 1.939471 1_555
Cu3 F27 1.939471 1_555
Cu3 F17 2.261691 1_555
Cu3 F5 2.261691 1_555
F0 In2 2.098772 1_555
F0 Na5 2.462234 1_565
F0 Na2 2.511670 1_455
F1 In2 2.100504 1_555
F1 Na1 2.292923 1_555
F1 Na7 2.591382 1_555
F1 Na6 2.591382 1_555
F2 In0 2.100504 1_555
F2 Na0 2.292923 1_565
F2 Na3 2.591382 1_565
F2 Na5 2.591382 1_565
F3 In1 2.098772 1_555
F3 Na7 2.462234 1_555
F3 Na1 2.511670 1_555
F4 Na2 2.600232 1_555
F5 In2 2.098772 1_555
F5 Na3 2.462234 1_565
F5 Na2 2.511670 1_555
F6 In2 2.114968 1_555
F6 Na2 2.470904 1_455
F7 Na1 2.600232 1_555
F8 In3 2.100504 1_555
F8 Na4 2.292923 1_555
F8 Na7 2.591382 1_556
F8 Na6 2.591382 1_656
F9 In0 2.137219 1_555
F9 Na0 2.322005 1_555
F9 Na6 2.389507 1_556
F9 Na7 2.389507 1_556
F10 In0 2.098772 1_555
F10 Na6 2.462234 1_556
F10 Na4 2.511670 1_455
F11 In1 2.100504 1_555
F11 Na2 2.292923 1_545
F11 Na5 2.591382 1_655
F11 Na3 2.591382 1_555
F12 Na4 2.600232 1_555
F13 In3 2.137219 1_565
F13 Na4 2.322005 1_555
F13 Na5 2.389507 1_665
F13 Na3 2.389507 1_565
F14 In3 2.098772 1_555
F14 Na5 2.462234 1_655
F14 Na0 2.511670 1_655
F15 In1 2.114968 1_555
F15 Na1 2.470904 1_555
F16 In0 2.098772 1_555
F16 Na7 2.462234 1_556
F16 Na4 2.511670 1_555
F17 In3 2.098772 1_555
F17 Na3 2.462234 1_555
F17 Na0 2.511670 1_555
F18 In1 2.137219 1_555
F18 Na2 2.322005 1_555
F18 Na7 2.389507 1_555
F18 Na6 2.389507 1_655
F19 Na0 2.600232 1_555
F20 In0 2.114968 1_555
F20 Na4 2.470904 1_455
F21 In3 2.114968 1_555
F21 Na0 2.470904 1_555
F22 In3 2.114968 1_555
F22 Na0 2.470904 1_655
F23 In1 2.114968 1_555
F23 Na1 2.470904 1_655
F24 In2 2.137219 1_545
F24 Na1 2.322005 1_555
F24 Na3 2.389507 1_555
F24 Na5 2.389507 1_555
F25 In1 2.098772 1_555
F25 Na6 2.462234 1_655
F25 Na1 2.511670 1_655
F26 In2 2.114968 1_555
F26 Na2 2.470904 1_555
F27 In0 2.114968 1_555
F27 Na4 2.470904 1_555
