# generated using pymatgen
data_Na2Mg(FeO2)4
_symmetry_space_group_name_H-M   'P 1'
_cell_length_a   6.43298096
_cell_length_b   6.44542750
_cell_length_c   6.43013242
_cell_angle_alpha   55.98066562
_cell_angle_beta   56.06904786
_cell_angle_gamma   55.95355889
_symmetry_Int_Tables_number   1
_chemical_formula_structural   Na2Mg(FeO2)4
_chemical_formula_sum   'Na2 Mg1 Fe4 O8'
_cell_volume   171.05912105
_cell_formula_units_Z   1
loop_
 _symmetry_equiv_pos_site_id
 _symmetry_equiv_pos_as_xyz
  1  'x, y, z'
loop_
 _atom_site_type_symbol
 _atom_site_label
 _atom_site_symmetry_multiplicity
 _atom_site_fract_x
 _atom_site_fract_y
 _atom_site_fract_z
 _atom_site_occupancy
  Na  Na0  1  0.15608400  0.15414100  0.15608800  1
  Na  Na1  1  0.84388800  0.84590800  0.84388800  1
  Mg  Mg0  1  0.00000400  0.99999300  0.99999400  1
  Fe  Fe0  1  0.49999900  0.49997200  0.00001800  1
  Fe  Fe1  1  0.49999200  0.00001600  0.49997800  1
  Fe  Fe2  1  0.00001300  0.49997700  0.50000300  1
  Fe  Fe3  1  0.49999000  0.50001900  0.49997900  1
  O  O0  1  0.27908800  0.28018800  0.27872800  1
  O  O1  1  0.72402000  0.25192700  0.25281200  1
  O  O2  1  0.25266900  0.72342600  0.25292200  1
  O  O3  1  0.25241900  0.25177900  0.72424800  1
  O  O4  1  0.74759500  0.74820500  0.27575400  1
  O  O5  1  0.74735500  0.27656800  0.74710900  1
  O  O6  1  0.72090900  0.71981900  0.72128500  1
  O  O7  1  0.27597700  0.74806200  0.74719500  1
loop_
_geom_bond_atom_site_label_1
_geom_bond_atom_site_label_2
_geom_bond_distance
_geom_bond_site_symmetry_2
Na0 O0 2.010316 1_555
Na0 O2 2.246555 1_545
Na0 O3 2.247419 1_554
Na0 O1 2.248698 1_455
Na1 O6 2.010210 1_555
Na1 O5 2.246406 1_565
Na1 O4 2.247535 1_556
Na1 O7 2.248799 1_655
Mg0 O5 2.219516 1_465
Mg0 O2 2.219779 1_556
Mg0 O4 2.220555 1_456
Mg0 O3 2.220574 1_565
Mg0 O7 2.221422 1_555
Mg0 O1 2.221519 1_466
Fe0 O0 1.951489 1_555
Fe0 O6 1.951752 1_554
Fe0 O1 2.098223 1_555
Fe0 O7 2.098347 1_554
Fe0 O5 2.101377 1_554
Fe0 O2 2.101587 1_555
Fe1 O0 1.952772 1_555
Fe1 O6 1.953067 1_545
Fe1 O3 2.099979 1_555
Fe1 O4 2.099989 1_545
Fe1 O1 2.101151 1_555
Fe1 O7 2.101277 1_545
Fe2 O0 1.951992 1_555
Fe2 O6 1.952251 1_455
Fe2 O3 2.097370 1_555
Fe2 O4 2.097434 1_455
Fe2 O5 2.101742 1_455
Fe2 O2 2.101922 1_555
Fe3 O2 2.196641 1_555
Fe3 O5 2.197169 1_555
Fe3 O1 2.205921 1_555
Fe3 O7 2.205938 1_555
Fe3 O4 2.209831 1_555
Fe3 O3 2.209886 1_555
