# generated using pymatgen
data_Na6Ta3Al5(PO4)12
_symmetry_space_group_name_H-M   'P 1'
_cell_length_a   17.13997863
_cell_length_b   8.56994218
_cell_length_c   22.02761684
_cell_angle_alpha   90.04189234
_cell_angle_beta   89.97396918
_cell_angle_gamma   120.00698597
_symmetry_Int_Tables_number   1
_chemical_formula_structural   Na6Ta3Al5(PO4)12
_chemical_formula_sum   'Na18 Ta9 Al15 P36 O144'
_cell_volume   2801.91927073
_cell_formula_units_Z   3
loop_
 _symmetry_equiv_pos_site_id
 _symmetry_equiv_pos_as_xyz
  1  'x, y, z'
loop_
 _atom_site_type_symbol
 _atom_site_label
 _atom_site_symmetry_multiplicity
 _atom_site_fract_x
 _atom_site_fract_y
 _atom_site_fract_z
 _atom_site_occupancy
  Na  Na0  1  0.68479616  0.36619792  0.24880575  1
  Na  Na1  1  0.99801911  0.62961921  0.24883437  1
  Na  Na2  1  0.99885857  0.36373735  0.74648557  1
  Na  Na3  1  0.49890779  0.36372997  0.74663720  1
  Na  Na4  1  0.18237777  0.99892803  0.74661739  1
  Na  Na5  1  0.68236826  0.99901479  0.74695602  1
  Na  Na6  1  0.00003179  0.99936935  0.50597347  1
  Na  Na7  1  0.49962484  0.99957944  0.50617631  1
  Na  Na8  1  0.99772263  0.99646771  0.00643161  1
  Na  Na9  1  0.50200911  0.00372478  0.00585207  1
  Na  Na10  1  0.33302919  0.34260500  0.83564032  1
  Na  Na11  1  0.83247743  0.34158747  0.83636360  1
  Na  Na12  1  0.33320856  0.33378824  0.33986880  1
  Na  Na13  1  0.83291051  0.32215286  0.33650749  1
  Na  Na14  1  0.16996686  0.66461952  0.17108365  1
  Na  Na15  1  0.66842248  0.68003760  0.17072655  1
  Na  Na16  1  0.17195521  0.66530761  0.66708227  1
  Na  Na17  1  0.67191655  0.66517645  0.66727831  1
  Ta  Ta0  1  0.99889819  0.00246626  0.35594308  1
  Ta  Ta1  1  0.50087738  0.99875204  0.35657984  1
  Ta  Ta2  1  0.99960695  0.99845160  0.85504768  1
  Ta  Ta3  1  0.49987538  0.99854012  0.85537457  1
  Ta  Ta4  1  0.33347158  0.33609215  0.18845147  1
  Ta  Ta5  1  0.16453862  0.66612366  0.02396717  1
  Ta  Ta6  1  0.66927040  0.66722017  0.02471363  1
  Ta  Ta7  1  0.16677975  0.66700847  0.52443307  1
  Ta  Ta8  1  0.66669746  0.66712942  0.52480266  1
  Al  Al0  1  0.99916580  0.99910536  0.64387197  1
  Al  Al1  1  0.49914880  0.99898772  0.64395379  1
  Al  Al2  1  0.99735124  0.99929144  0.14582941  1
  Al  Al3  1  0.50191993  0.00021388  0.14625319  1
  Al  Al4  1  0.33288350  0.33835684  0.68293666  1
  Al  Al5  1  0.83284042  0.33834912  0.68295982  1
  Al  Al6  1  0.83280664  0.32549490  0.18504508  1
  Al  Al7  1  0.33372020  0.33366214  0.97978148  1
  Al  Al8  1  0.83315500  0.33236121  0.98221128  1
  Al  Al9  1  0.33326878  0.33351579  0.48199607  1
  Al  Al10  1  0.83360257  0.33445297  0.48165913  1
  Al  Al11  1  0.16870077  0.66492379  0.31451677  1
  Al  Al12  1  0.66673940  0.67368643  0.31432663  1
  Al  Al13  1  0.16934746  0.66552459  0.81478919  1
  Al  Al14  1  0.66899067  0.66576619  0.81498926  1
  P  P0  1  0.14195052  0.99366858  0.24850346  1
  P  P1  1  0.64551181  0.99459319  0.24660652  1
  P  P2  1  0.35436099  0.72104787  0.24791251  1
  P  P3  1  0.85308526  0.71181491  0.24681672  1
  P  P4  1  0.00072323  0.29050758  0.24618782  1
  P  P5  1  0.50306180  0.29062614  0.24880198  1
  P  P6  1  0.14710480  0.29555000  0.74689201  1
  P  P7  1  0.64713531  0.29568739  0.74689448  1
  P  P8  1  0.99824010  0.70733518  0.74660543  1
  P  P9  1  0.49820345  0.70746320  0.74661295  1
  P  P10  1  0.35316025  0.99409085  0.74664109  1
  P  P11  1  0.85306173  0.99410159  0.74651204  1
  P  P12  1  0.47075034  0.32170366  0.58471847  1
  P  P13  1  0.97083756  0.32205923  0.58465447  1
  P  P14  1  0.19007267  0.05854547  0.58480819  1
  P  P15  1  0.69019251  0.05896484  0.58471505  1
  P  P16  1  0.33920147  0.61955483  0.58395669  1
  P  P17  1  0.83926341  0.61941387  0.58392122  1
  P  P18  1  0.47420283  0.62649709  0.08085271  1
  P  P19  1  0.96948447  0.61947657  0.08501186  1
  P  P20  1  0.33967166  0.05319611  0.08137160  1
  P  P21  1  0.83980933  0.06069199  0.08397412  1
  P  P22  1  0.18642555  0.32041004  0.08095439  1
  P  P23  1  0.69050589  0.32058028  0.08501373  1
  P  P24  1  0.30703803  0.65540674  0.91593672  1
  P  P25  1  0.80760057  0.65424907  0.91538797  1
  P  P26  1  0.01969353  0.38435511  0.91467546  1
  P  P27  1  0.52061527  0.38574842  0.91516553  1
  P  P28  1  0.17238431  0.96010996  0.91466489  1
  P  P29  1  0.67263738  0.95910871  0.91536045  1
  P  P30  1  0.30673693  0.95857521  0.41519549  1
  P  P31  1  0.80626885  0.95912023  0.41575114  1
  P  P32  1  0.17278312  0.38639582  0.41552742  1
  P  P33  1  0.67296154  0.38697050  0.41482450  1
  P  P34  1  0.02021902  0.65562995  0.41476383  1
  P  P35  1  0.52074407  0.65326495  0.41547997  1
  O  O0  1  0.10125203  0.02978730  0.30619053  1
  O  O1  1  0.60211411  0.03427548  0.30442360  1
  O  O2  1  0.41361652  0.79942289  0.30569956  1
  O  O3  1  0.91483703  0.79632254  0.30454520  1
  O  O4  1  0.48505087  0.17242821  0.30620501  1
  O  O5  1  0.98482629  0.17235299  0.30489923  1
  O  O6  1  0.10322578  0.17076046  0.80490185  1
  O  O7  1  0.60311782  0.17069533  0.80495256  1
  O  O8  1  0.48371779  0.79509480  0.80548247  1
  O  O9  1  0.98380776  0.79505754  0.80543803  1
  O  O10  1  0.41468919  0.03258191  0.80479156  1
  O  O11  1  0.91467958  0.03272613  0.80466080  1
  O  O12  1  0.39952146  0.96622182  0.69285061  1
  O  O13  1  0.89962001  0.96624177  0.69285715  1
  O  O14  1  0.08285648  0.20526967  0.69395481  1
  O  O15  1  0.58285880  0.20535515  0.69390728  1
  O  O16  1  0.01900112  0.83674805  0.69395443  1
  O  O17  1  0.51892839  0.83663257  0.69394670  1
  O  O18  1  0.39981515  0.83364800  0.19231167  1
  O  O19  1  0.89899895  0.83078405  0.19245294  1
  O  O20  1  0.01661145  0.20013303  0.19220627  1
  O  O21  1  0.51827404  0.20233663  0.19365796  1
  O  O22  1  0.08261770  0.96294170  0.19351554  1
  O  O23  1  0.58466055  0.96636899  0.19238194  1
  O  O24  1  0.43427237  0.36096864  0.64341348  1
  O  O25  1  0.93428613  0.36095951  0.64340703  1
  O  O26  1  0.24642680  0.13110151  0.64344077  1
  O  O27  1  0.74642094  0.13120690  0.64339288  1
  O  O28  1  0.31829762  0.50311953  0.64092256  1
  O  O29  1  0.81828405  0.50307575  0.64091232  1
  O  O30  1  0.43386951  0.50686957  0.13890501  1
  O  O31  1  0.93378243  0.50663793  0.14305667  1
  O  O32  1  0.31990794  0.13408170  0.13914424  1
  O  O33  1  0.81824512  0.13418439  0.14049813  1
  O  O34  1  0.24648434  0.36103453  0.13895774  1
  O  O35  1  0.74688326  0.36141495  0.14307232  1
  O  O36  1  0.23313763  0.29997050  0.02559270  1
  O  O37  1  0.73352972  0.29961197  0.02748157  1
  O  O38  1  0.41710170  0.53376968  0.02559921  1
  O  O39  1  0.91634511  0.53253872  0.02745785  1
  O  O40  1  0.34995543  0.16565035  0.02566986  1
  O  O41  1  0.85039268  0.16572068  0.02587943  1
  O  O42  1  0.23397117  0.16765775  0.52789815  1
  O  O43  1  0.73398217  0.16783715  0.52783395  1
  O  O44  1  0.35016042  0.53467773  0.52631573  1
  O  O45  1  0.85011808  0.53475483  0.52623980  1
  O  O46  1  0.41628048  0.30079749  0.52780980  1
  O  O47  1  0.91629045  0.30087929  0.52783191  1
  O  O48  1  0.26674717  0.69444411  0.97309198  1
  O  O49  1  0.76805943  0.69483289  0.97268604  1
  O  O50  1  0.08072949  0.46745565  0.97138763  1
  O  O51  1  0.58105877  0.46815826  0.97166405  1
  O  O52  1  0.15328169  0.83915268  0.97145758  1
  O  O53  1  0.65323370  0.83733410  0.97164225  1
  O  O54  1  0.26696465  0.83932066  0.47261935  1
  O  O55  1  0.76672082  0.83976610  0.47301708  1
  O  O56  1  0.15297888  0.46634137  0.47282895  1
  O  O57  1  0.65315843  0.46913175  0.47148493  1
  O  O58  1  0.08105735  0.69409930  0.47142638  1
  O  O59  1  0.58026258  0.69413598  0.47290318  1
  O  O60  1  0.06435018  0.63486134  0.35713751  1
  O  O61  1  0.56597174  0.63253948  0.35930675  1
  O  O62  1  0.25043240  0.86747503  0.35910098  1
  O  O63  1  0.75087018  0.86836228  0.35945585  1
  O  O64  1  0.18326918  0.49774937  0.35919290  1
  O  O65  1  0.68248701  0.49410133  0.35704645  1
  O  O66  1  0.06458453  0.49444316  0.85736218  1
  O  O67  1  0.56434400  0.49428263  0.85738007  1
  O  O68  1  0.18233780  0.87084077  0.85720441  1
  O  O69  1  0.68215772  0.87057963  0.85730582  1
  O  O70  1  0.25087825  0.63377492  0.85968939  1
  O  O71  1  0.75094746  0.63336313  0.85942046  1
  O  O72  1  0.01214051  0.83011935  0.40928209  1
  O  O73  1  0.51274604  0.82848824  0.40969079  1
  O  O74  1  0.40234653  0.97499122  0.40937125  1
  O  O75  1  0.90179382  0.97516396  0.40987097  1
  O  O76  1  0.08527378  0.19555998  0.40981609  1
  O  O77  1  0.58544851  0.19558444  0.40975708  1
  O  O78  1  0.01247689  0.19471009  0.90920095  1
  O  O79  1  0.51234968  0.19496424  0.90936315  1
  O  O80  1  0.08517277  0.97565182  0.90974935  1
  O  O81  1  0.58514029  0.97511521  0.90979756  1
  O  O82  1  0.40232738  0.82981322  0.90984732  1
  O  O83  1  0.90264655  0.82965924  0.90938319  1
  O  O84  1  0.48552442  0.16093159  0.59166414  1
  O  O85  1  0.98558232  0.16113067  0.59168079  1
  O  O86  1  0.09510305  0.02979406  0.59215403  1
  O  O87  1  0.59511840  0.02987849  0.59211600  1
  O  O88  1  0.41987742  0.80952309  0.59153645  1
  O  O89  1  0.91985570  0.80955840  0.59150974  1
  O  O90  1  0.48565351  0.81170938  0.09051081  1
  O  O91  1  0.98583880  0.81078343  0.09171936  1
  O  O92  1  0.42044327  0.02915012  0.09116403  1
  O  O93  1  0.91957517  0.02948396  0.09087494  1
  O  O94  1  0.09407157  0.15928990  0.09069011  1
  O  O95  1  0.59476428  0.16064697  0.09176842  1
  O  O96  1  0.34418098  0.16550593  0.74270194  1
  O  O97  1  0.84422270  0.16561462  0.74266015  1
  O  O98  1  0.23928663  0.30792064  0.74193103  1
  O  O99  1  0.73923184  0.30797694  0.74188833  1
  O  O100  1  0.41545406  0.51823609  0.74172566  1
  O  O101  1  0.91546509  0.51826172  0.74173814  1
  O  O102  1  0.34554104  0.52957539  0.24283876  1
  O  O103  1  0.84439312  0.52225148  0.24243286  1
  O  O104  1  0.41763005  0.30950509  0.24363184  1
  O  O105  1  0.91663031  0.31237700  0.24170069  1
  O  O106  1  0.23680312  0.16487852  0.24340624  1
  O  O107  1  0.73828086  0.16854767  0.24190376  1
  O  O108  1  0.31939004  0.49382228  0.92438684  1
  O  O109  1  0.81969626  0.49329788  0.92454772  1
  O  O110  1  0.42739623  0.36158729  0.92375495  1
  O  O111  1  0.92728675  0.36169850  0.92381930  1
  O  O112  1  0.25369111  0.14574572  0.92359058  1
  O  O113  1  0.75333539  0.14521889  0.92397063  1
  O  O114  1  0.31940356  0.14514456  0.42455228  1
  O  O115  1  0.81927469  0.14572549  0.42487699  1
  O  O116  1  0.25336392  0.36091714  0.42457686  1
  O  O117  1  0.75348334  0.36148318  0.42388961  1
  O  O118  1  0.42719952  0.49241693  0.42450686  1
  O  O119  1  0.92745437  0.49310369  0.42392281  1
  O  O120  1  0.17884637  0.49557919  0.07656402  1
  O  O121  1  0.67969091  0.49519949  0.07716307  1
  O  O122  1  0.06793177  0.64058708  0.07679139  1
  O  O123  1  0.56901387  0.64199498  0.07663976  1
  O  O124  1  0.25194737  0.86269701  0.07678811  1
  O  O125  1  0.75246569  0.86376846  0.07649707  1
  O  O126  1  0.17968588  0.86385287  0.57758866  1
  O  O127  1  0.67980838  0.86398639  0.57769076  1
  O  O128  1  0.25232056  0.64142762  0.57699036  1
  O  O129  1  0.75226300  0.64086314  0.57693127  1
  O  O130  1  0.06816616  0.49646137  0.57754206  1
  O  O131  1  0.56813828  0.49569381  0.57759652  1
  O  O132  1  0.15207216  0.82729386  0.25732552  1
  O  O133  1  0.65377877  0.82794222  0.25763115  1
  O  O134  1  0.26048615  0.69461078  0.25716992  1
  O  O135  1  0.75904019  0.68722002  0.25702634  1
  O  O136  1  0.08366404  0.47961112  0.25665136  1
  O  O137  1  0.58623173  0.47679670  0.25742081  1
  O  O138  1  0.15343757  0.47877642  0.75813024  1
  O  O139  1  0.65344172  0.47891095  0.75812695  1
  O  O140  1  0.08335376  0.68889603  0.75690322  1
  O  O141  1  0.58324966  0.68882649  0.75681680  1
  O  O142  1  0.25880958  0.83013103  0.75720031  1
  O  O143  1  0.75877377  0.83007058  0.75718140  1
loop_
_geom_bond_atom_site_label_1
_geom_bond_atom_site_label_2
_geom_bond_distance
_geom_bond_site_symmetry_2
Na0 O107 2.298969 1_555
Na0 O137 2.321522 1_555
Na0 O103 2.373174 1_555
Na0 O135 2.391386 1_555
Na0 O35 2.569023 1_555
Na0 O65 2.631987 1_555
Na0 O1 2.751774 1_555
Na0 O21 2.754231 1_555
Na1 O103 2.318788 1_555
Na1 O132 2.324396 1_655
Na1 O105 2.359751 1_555
Na1 O136 2.392758 1_655
Na1 O31 2.567131 1_555
Na1 O60 2.633854 1_655
Na1 O22 2.758234 1_655
Na1 O3 2.759138 1_555
Na2 O97 2.326739 1_555
Na2 O138 2.333480 1_655
Na2 O101 2.387736 1_555
Na2 O140 2.424461 1_655
Na2 O25 2.521283 1_555
Na2 O14 2.684753 1_655
Na2 O66 2.687977 1_655
Na2 O11 2.771437 1_555
Na3 O96 2.328174 1_555
Na3 O139 2.332216 1_555
Na3 O100 2.388671 1_555
Na3 O141 2.423462 1_555
Na3 O24 2.524662 1_555
Na3 O67 2.683984 1_555
Na3 O15 2.685395 1_555
Na3 O10 2.772126 1_555
Na4 O98 2.321867 1_565
Na4 O140 2.341257 1_555
Na4 O142 2.399873 1_555
Na4 O96 2.403466 1_565
Na4 O26 2.532050 1_565
Na4 O68 2.672461 1_555
Na4 O16 2.688255 1_555
Na4 O6 2.766094 1_565
Na5 O99 2.322135 1_565
Na5 O141 2.341655 1_555
Na5 O143 2.399839 1_555
Na5 O97 2.404536 1_565
Na5 O27 2.539746 1_565
Na5 O69 2.668325 1_555
Na5 O17 2.692397 1_555
Na5 O7 2.763425 1_565
Na6 O89 2.418852 1_455
Na6 O85 2.426221 1_465
Na6 O86 2.429852 1_565
Na6 O72 2.641872 1_555
Na6 O76 2.644494 1_565
Na6 O75 2.648159 1_455
Na7 O88 2.414961 1_555
Na7 O84 2.417967 1_565
Na7 O87 2.430438 1_565
Na7 O74 2.650033 1_555
Na7 O77 2.650898 1_565
Na7 O73 2.653747 1_555
Na8 O93 2.389588 1_565
Na8 O91 2.404791 1_555
Na8 O94 2.411060 1_665
Na8 O83 2.633964 1_554
Na8 O80 2.660457 1_654
Na8 O78 2.666934 1_664
Na9 O95 2.403806 1_555
Na9 O90 2.409701 1_545
Na9 O92 2.415606 1_555
Na9 O81 2.629281 1_544
Na9 O79 2.636109 1_554
Na9 O82 2.657883 1_544
Na10 O108 2.419607 1_555
Na10 O110 2.479743 1_555
Na10 O112 2.481211 1_555
Na10 O100 2.532979 1_555
Na10 O98 2.540727 1_555
Na10 O96 2.610818 1_555
Na11 O109 2.406748 1_555
Na11 O111 2.470592 1_555
Na11 O113 2.472900 1_555
Na11 O101 2.551104 1_555
Na11 O99 2.551436 1_555
Na11 O97 2.621815 1_555
Na12 O116 2.392462 1_555
Na12 O118 2.393282 1_555
Na12 O114 2.402211 1_555
Na12 O104 2.632238 1_555
Na12 O106 2.635716 1_555
Na12 O102 2.660506 1_555
Na13 O115 2.404217 1_555
Na13 O119 2.470665 1_555
Na13 O117 2.475384 1_555
Na13 O105 2.558254 1_555
Na13 O107 2.563144 1_555
Na13 O103 2.634544 1_555
Na14 O134 2.381633 1_555
Na14 O136 2.431181 1_555
Na14 O132 2.463690 1_555
Na14 O120 2.583123 1_555
Na14 O124 2.605206 1_555
Na14 O122 2.656590 1_555
Na15 O133 2.376639 1_555
Na15 O135 2.436551 1_555
Na15 O137 2.492656 1_555
Na15 O125 2.568276 1_555
Na15 O123 2.598332 1_555
Na15 O121 2.663651 1_555
Na16 O142 2.459128 1_555
Na16 O128 2.481217 1_555
Na16 O138 2.484971 1_555
Na16 O140 2.562316 1_555
Na16 O130 2.563783 1_555
Na16 O126 2.564769 1_555
Na17 O143 2.455488 1_555
Na17 O139 2.480247 1_555
Na17 O129 2.486855 1_555
Na17 O141 2.558425 1_555
Na17 O127 2.567034 1_555
Na17 O131 2.567294 1_555
Al0 O89 1.899211 1_555
Al0 O85 1.905226 1_565
Al0 O86 1.907119 1_665
Al0 O13 1.916485 1_555
Al0 O16 1.935027 1_655
Al0 O14 1.964688 1_665
Al1 O88 1.899406 1_555
Al1 O84 1.906327 1_565
Al1 O87 1.908630 1_565
Al1 O12 1.916782 1_555
Al1 O17 1.933375 1_555
Al1 O15 1.964114 1_565
Al2 O20 1.882693 1_665
Al2 O19 1.883512 1_555
Al2 O93 1.912154 1_565
Al2 O91 1.935976 1_555
Al2 O22 1.947698 1_655
Al2 O94 1.957194 1_665
Al3 O23 1.881749 1_545
Al3 O18 1.905662 1_545
Al3 O95 1.917139 1_555
Al3 O21 1.918692 1_555
Al3 O90 1.934442 1_545
Al3 O92 1.957711 1_555
Al4 O28 1.807750 1_555
Al4 O26 1.863843 1_555
Al4 O24 1.864807 1_555
Al4 O100 1.967971 1_555
Al4 O98 1.977481 1_555
Al4 O96 2.062749 1_555
Al5 O29 1.807597 1_555
Al5 O27 1.863832 1_555
Al5 O25 1.865972 1_555
Al5 O101 1.968242 1_555
Al5 O99 1.976828 1_555
Al5 O97 2.061731 1_555
Al6 O33 1.817080 1_555
Al6 O35 1.890395 1_555
Al6 O31 1.890524 1_555
Al6 O105 1.948771 1_555
Al6 O107 1.955427 1_555
Al6 O103 2.035399 1_555
Al7 O38 1.883982 1_556
Al7 O36 1.890703 1_556
Al7 O40 1.890895 1_556
Al7 O110 1.942324 1_555
Al7 O108 1.942446 1_555
Al7 O112 1.948387 1_555
Al8 O41 1.864488 1_556
Al8 O37 1.873098 1_556
Al8 O39 1.876600 1_556
Al8 O109 1.972282 1_555
Al8 O113 1.973241 1_555
Al8 O111 1.978278 1_555
Al9 O44 1.872821 1_555
Al9 O42 1.876232 1_555
Al9 O46 1.876754 1_555
Al9 O116 1.963234 1_555
Al9 O118 1.964145 1_555
Al9 O114 1.969063 1_555
Al10 O45 1.871594 1_555
Al10 O47 1.880289 1_555
Al10 O43 1.884370 1_555
Al10 O115 1.959775 1_555
Al10 O119 1.966414 1_555
Al10 O117 1.969509 1_555
Al11 O64 1.855662 1_555
Al11 O62 1.872607 1_555
Al11 O60 1.919555 1_555
Al11 O134 1.932286 1_555
Al11 O136 1.988648 1_555
Al11 O132 2.001036 1_555
Al12 O63 1.855693 1_555
Al12 O61 1.865179 1_555
Al12 O133 1.911282 1_555
Al12 O65 1.935157 1_555
Al12 O135 1.980979 1_555
Al12 O137 1.998028 1_555
Al13 O70 1.840389 1_555
Al13 O66 1.902787 1_555
Al13 O68 1.903797 1_555
Al13 O138 1.937585 1_555
Al13 O142 1.946213 1_555
Al13 O140 2.033667 1_555
Al14 O71 1.843935 1_555
Al14 O69 1.897961 1_555
Al14 O67 1.900736 1_555
Al14 O139 1.942854 1_555
Al14 O143 1.950853 1_555
Al14 O141 2.033061 1_555
O0 P0 1.552967 1_545
O0 Ta0 1.980248 1_455
O1 P1 1.594506 1_545
O1 Ta1 1.973281 1_545
O2 P2 1.555818 1_555
O2 Ta1 1.963271 1_555
O3 P3 1.579544 1_555
O3 Ta0 1.982773 1_565
O4 P5 1.552080 1_555
O4 Ta1 1.981596 1_545
O5 P4 1.580426 1_655
O5 Ta0 1.948323 1_555
O6 P6 1.593361 1_555
O6 Ta2 1.983028 1_445
O7 P7 1.595293 1_555
O7 Ta3 1.982670 1_545
O8 P9 1.578607 1_555
O8 Ta3 1.959304 1_555
O9 P8 1.578010 1_555
O9 Ta2 1.957340 1_555
O10 P10 1.585688 1_545
O10 Ta3 1.971413 1_545
O11 P11 1.586371 1_545
O11 Ta2 1.966391 1_545
O12 P10 1.510287 1_555
O13 P11 1.509962 1_555
O14 P6 1.522723 1_555
O15 P7 1.523858 1_555
O16 P8 1.519372 1_455
O17 P9 1.518431 1_555
O18 P2 1.512309 1_555
O19 P3 1.513681 1_555
O20 P4 1.515672 1_555
O21 P5 1.520411 1_555
O22 P0 1.517726 1_555
O23 P1 1.523612 1_555
O24 P12 1.544289 1_555
O25 P13 1.544687 1_555
O26 P14 1.544963 1_555
O27 P15 1.544644 1_555
O28 P16 1.530514 1_555
O29 P17 1.530405 1_555
O30 P18 1.567288 1_555
O30 Ta4 1.943174 1_555
O31 P19 1.534145 1_555
O32 P20 1.564588 1_555
O32 Ta4 1.955950 1_555
O33 P21 1.521451 1_555
O34 P22 1.566979 1_555
O34 Ta4 1.943665 1_555
O35 P23 1.534281 1_555
O36 P22 1.515894 1_555
O37 P23 1.521016 1_555
O38 P18 1.514090 1_555
O39 P19 1.520809 1_555
O40 P20 1.515564 1_555
O41 P21 1.522771 1_555
O42 P14 1.519588 1_555
O43 P15 1.517956 1_555
O44 P16 1.520393 1_555
O45 P17 1.519484 1_555
O46 P12 1.519401 1_555
O47 P13 1.518128 1_555
O48 P24 1.550346 1_555
O48 Ta5 1.989249 1_556
O49 P25 1.551655 1_555
O49 Ta6 1.958148 1_556
O50 P26 1.554638 1_555
O50 Ta5 1.963688 1_556
O51 P27 1.545636 1_555
O51 Ta6 1.995146 1_556
O52 P28 1.552033 1_555
O52 Ta5 1.965403 1_556
O53 P29 1.546307 1_555
O53 Ta6 1.992778 1_556
O54 P30 1.553533 1_555
O54 Ta7 1.973920 1_555
O55 P31 1.550661 1_555
O55 Ta8 1.973067 1_555
O56 P32 1.552022 1_555
O56 Ta7 1.973822 1_555
O57 P33 1.551162 1_555
O57 Ta8 1.978870 1_555
O58 P34 1.552623 1_555
O58 Ta7 1.979683 1_555
O59 P35 1.551282 1_555
O59 Ta8 1.974898 1_555
O60 P34 1.532510 1_555
O61 P35 1.516599 1_555
O62 P30 1.521090 1_555
O63 P31 1.518309 1_555
O64 P32 1.520798 1_555
O65 P33 1.530021 1_555
O66 P26 1.533215 1_555
O67 P27 1.533198 1_555
O68 P28 1.531454 1_555
O69 P29 1.536164 1_555
O70 P24 1.522595 1_555
O71 P25 1.523725 1_555
O72 P34 1.573927 1_555
O72 Ta0 1.987865 1_465
O73 P35 1.579941 1_555
O73 Ta1 1.959285 1_555
O74 P30 1.578285 1_555
O74 Ta1 1.974950 1_555
O75 P31 1.578318 1_555
O75 Ta0 1.960887 1_565
O76 P32 1.576889 1_555
O76 Ta0 1.971480 1_455
O77 P33 1.578507 1_555
O77 Ta1 1.967665 1_545
O78 P26 1.571599 1_555
O78 Ta2 1.981583 1_445
O79 P27 1.574068 1_555
O79 Ta3 1.982666 1_545
O80 P28 1.569462 1_555
O80 Ta2 1.982310 1_455
O81 P29 1.577619 1_555
O81 Ta3 1.977027 1_555
O82 P24 1.574146 1_555
O82 Ta3 1.977039 1_555
O83 P25 1.575385 1_555
O83 Ta2 1.970565 1_555
O84 P12 1.528136 1_555
O85 P13 1.529327 1_555
O86 P14 1.528138 1_555
O87 P15 1.528966 1_555
O88 P16 1.529232 1_555
O89 P17 1.529646 1_555
O90 P18 1.513647 1_555
O91 P19 1.525892 1_555
O92 P20 1.513708 1_555
O93 P21 1.526372 1_555
O94 P22 1.507394 1_555
O95 P23 1.531029 1_555
O96 P10 1.554208 1_545
O97 P11 1.553562 1_545
O98 P6 1.533586 1_555
O99 P7 1.532511 1_555
O100 P9 1.533747 1_555
O101 P8 1.533108 1_555
O102 P2 1.574661 1_555
O102 Ta4 1.970206 1_555
O103 P3 1.558326 1_555
O104 P5 1.555781 1_555
O104 Ta4 1.985146 1_555
O105 P4 1.546848 1_655
O106 P0 1.556513 1_545
O106 Ta4 1.983110 1_555
O107 P1 1.546154 1_545
O108 P24 1.513507 1_555
O109 P25 1.507563 1_555
O110 P27 1.516716 1_555
O111 P26 1.509644 1_655
O112 P28 1.514582 1_545
O113 P29 1.512031 1_545
O114 P30 1.516053 1_545
O115 P31 1.513451 1_545
O116 P32 1.515569 1_555
O117 P33 1.514665 1_555
O118 P35 1.516546 1_555
O119 P34 1.514535 1_655
O120 P22 1.573238 1_555
O120 Ta5 1.974800 1_555
O121 P23 1.606728 1_555
O121 Ta6 1.950904 1_555
O122 P19 1.614688 1_455
O122 Ta5 1.944174 1_555
O123 P18 1.565590 1_555
O123 Ta6 1.983666 1_555
O124 P20 1.575094 1_565
O124 Ta5 1.977523 1_555
O125 P21 1.609102 1_565
O125 Ta6 1.941128 1_555
O126 P14 1.594811 1_565
O126 Ta7 1.972258 1_555
O127 P15 1.596837 1_565
O127 Ta8 1.967749 1_555
O128 P16 1.598643 1_555
O128 Ta7 1.965047 1_555
O129 P17 1.598608 1_555
O129 Ta8 1.962700 1_555
O130 P13 1.596118 1_455
O130 Ta7 1.972678 1_555
O131 P12 1.595269 1_555
O131 Ta8 1.970517 1_555
O132 P0 1.532539 1_555
O133 P1 1.523721 1_555
O134 P2 1.522164 1_555
O135 P3 1.534026 1_555
O136 P4 1.547854 1_555
O137 P5 1.529261 1_555
O138 P6 1.538732 1_555
O139 P7 1.538887 1_555
O140 P8 1.560638 1_455
O141 P9 1.560162 1_555
O142 P10 1.539820 1_555
O143 P11 1.539787 1_555
