# generated using pymatgen
data_MgZn2(FeO2)4
_symmetry_space_group_name_H-M   'P 1'
_cell_length_a   2.98485258
_cell_length_b   8.04431843
_cell_length_c   8.08327576
_cell_angle_alpha   64.05146207
_cell_angle_beta   79.37608439
_cell_angle_gamma   79.32875054
_symmetry_Int_Tables_number   1
_chemical_formula_structural   MgZn2(FeO2)4
_chemical_formula_sum   'Mg1 Zn2 Fe4 O8'
_cell_volume   170.32684165
_cell_formula_units_Z   1
loop_
 _symmetry_equiv_pos_site_id
 _symmetry_equiv_pos_as_xyz
  1  'x, y, z'
loop_
 _atom_site_type_symbol
 _atom_site_label
 _atom_site_symmetry_multiplicity
 _atom_site_fract_x
 _atom_site_fract_y
 _atom_site_fract_z
 _atom_site_occupancy
  Mg  Mg0  1  0.49973966  0.98855550  0.01622624  1
  Zn  Zn0  1  0.29028249  0.15586839  0.26417663  1
  Zn  Zn1  1  0.70530800  0.82170678  0.76801590  1
  Fe  Fe0  1  0.58205021  0.21595506  0.61859005  1
  Fe  Fe1  1  0.14829485  0.52737204  0.17682470  1
  Fe  Fe2  1  0.84746968  0.45014198  0.85542657  1
  Fe  Fe3  1  0.41150172  0.76159853  0.41370987  1
  O  O0  1  0.85939748  0.68286963  0.59704883  1
  O  O1  1  0.43484538  0.28769982  0.84332815  1
  O  O2  1  0.56138698  0.68975462  0.18903705  1
  O  O3  1  0.13448234  0.29467172  0.43518344  1
  O  O4  1  0.09856036  0.99333207  0.81173983  1
  O  O5  1  0.75426469  0.35783679  0.13334853  1
  O  O6  1  0.89985477  0.98403113  0.22070094  1
  O  O7  1  0.24083940  0.61960894  0.89892925  1
loop_
_geom_bond_atom_site_label_1
_geom_bond_atom_site_label_2
_geom_bond_distance
_geom_bond_site_symmetry_2
Mg0 O2 2.180665 1_555
Mg0 O1 2.183020 1_564
Mg0 O4 2.192916 1_654
Mg0 O6 2.195124 1_555
Mg0 O6 2.195347 1_455
Mg0 O4 2.196527 1_554
Fe0 O3 1.994740 1_555
Fe0 O3 1.995394 1_655
Fe0 O1 2.086994 1_555
Fe0 O4 2.325273 1_545
Fe0 O4 2.332327 1_645
Fe1 O2 1.996640 1_455
Fe1 O2 1.997651 1_555
Fe1 O7 2.015255 1_554
Fe1 O3 2.107803 1_555
Fe1 O5 2.127546 1_555
Fe1 O5 2.128983 1_455
Fe2 O1 1.996573 1_555
Fe2 O1 1.997770 1_655
Fe2 O5 2.015402 1_556
Fe2 O0 2.107996 1_555
Fe2 O7 2.127270 1_655
Fe2 O7 2.128685 1_555
Fe3 O0 1.994429 1_455
Fe3 O0 1.995061 1_555
Fe3 O2 2.086991 1_555
Fe3 O6 2.321968 1_455
Fe3 O6 2.333431 1_555
O0 Zn1 2.072405 1_555
O3 Zn0 2.072469 1_555
O4 Zn1 2.139138 1_555
O4 Zn1 2.142186 1_455
O5 Zn0 2.113214 1_555
O5 Zn0 2.115505 1_655
O6 Zn0 2.136609 1_665
O6 Zn0 2.145392 1_565
O7 Zn1 2.114967 1_555
O7 Zn1 2.115116 1_455
