# generated using pymatgen
data_Na10Ca4In4Si3(S3O16)3
_symmetry_space_group_name_H-M   'P 1'
_cell_length_a   18.52078647
_cell_length_b   9.27916030
_cell_length_c   23.38075774
_cell_angle_alpha   89.87981036
_cell_angle_beta   88.44103074
_cell_angle_gamma   120.18327275
_symmetry_Int_Tables_number   1
_chemical_formula_structural   Na10Ca4In4Si3(S3O16)3
_chemical_formula_sum   'Na30 Ca12 In12 Si9 S27 O144'
_cell_volume   3471.51567943
_cell_formula_units_Z   3
loop_
 _symmetry_equiv_pos_site_id
 _symmetry_equiv_pos_as_xyz
  1  'x, y, z'
loop_
 _atom_site_type_symbol
 _atom_site_label
 _atom_site_symmetry_multiplicity
 _atom_site_fract_x
 _atom_site_fract_y
 _atom_site_fract_z
 _atom_site_occupancy
  Na  Na0  1  0.19230920  0.37553414  0.24233383  1
  Na  Na1  1  0.69220802  0.37839693  0.24233203  1
  Na  Na2  1  0.98768191  0.64350421  0.25606373  1
  Na  Na3  1  0.49056488  0.63693822  0.26349949  1
  Na  Na4  1  0.32554332  0.65959481  0.74465293  1
  Na  Na5  1  0.82147103  0.65230453  0.74454036  1
  Na  Na6  1  0.98964225  0.33897373  0.75289312  1
  Na  Na7  1  0.18778575  0.99825295  0.73782164  1
  Na  Na8  1  0.69105075  0.00364869  0.73929859  1
  Na  Na9  1  0.52346426  0.70928856  0.57127156  1
  Na  Na10  1  0.32446848  0.97425715  0.59107232  1
  Na  Na11  1  0.82291946  0.96617363  0.58928689  1
  Na  Na12  1  0.15506212  0.98704508  0.07937295  1
  Na  Na13  1  0.65471351  0.98671847  0.07908033  1
  Na  Na14  1  0.32648554  0.68017322  0.09472793  1
  Na  Na15  1  0.82596193  0.68030225  0.09511280  1
  Na  Na16  1  0.65684581  0.00552108  0.42771554  1
  Na  Na17  1  0.35848778  0.67081785  0.40776487  1
  Na  Na18  1  0.02077705  0.00653439  0.50302028  1
  Na  Na19  1  0.51272232  0.00856356  0.49900541  1
  Na  Na20  1  0.01085589  0.03249039  0.00181062  1
  Na  Na21  1  0.51124665  0.03421947  0.00098127  1
  Na  Na22  1  0.34535884  0.30822101  0.83133545  1
  Na  Na23  1  0.83203010  0.30868771  0.83522342  1
  Na  Na24  1  0.34028555  0.33899034  0.33671810  1
  Na  Na25  1  0.83864149  0.35568657  0.33255702  1
  Na  Na26  1  0.17415480  0.64770289  0.16704199  1
  Na  Na27  1  0.67394053  0.64874469  0.16855338  1
  Na  Na28  1  0.16836484  0.69115372  0.65873837  1
  Na  Na29  1  0.66512153  0.67015740  0.66160664  1
  Ca  Ca0  1  0.99512687  0.99189527  0.35240480  1
  Ca  Ca1  1  0.49752753  0.99903608  0.34988677  1
  Ca  Ca2  1  0.99819800  0.00219045  0.85311241  1
  Ca  Ca3  1  0.49700575  0.00511843  0.85261581  1
  Ca  Ca4  1  0.33257593  0.32356501  0.68316380  1
  Ca  Ca5  1  0.83086747  0.32874223  0.67965781  1
  Ca  Ca6  1  0.33372869  0.33244380  0.18295415  1
  Ca  Ca7  1  0.83345602  0.33285680  0.18228103  1
  Ca  Ca8  1  0.16354942  0.65173070  0.01699346  1
  Ca  Ca9  1  0.66336372  0.65179338  0.01700297  1
  Ca  Ca10  1  0.16144377  0.66807184  0.51853506  1
  Ca  Ca11  1  0.66628414  0.66289471  0.51375454  1
  In  In0  1  0.00150657  0.99970177  0.64892308  1
  In  In1  1  0.50194391  0.01030122  0.65234761  1
  In  In2  1  0.99460611  0.00563450  0.15425645  1
  In  In3  1  0.49560742  0.00549153  0.15312680  1
  In  In4  1  0.32744491  0.32951471  0.98476859  1
  In  In5  1  0.82712460  0.32971032  0.98457591  1
  In  In6  1  0.33010761  0.32672754  0.48335623  1
  In  In7  1  0.82912954  0.33153424  0.48767463  1
  In  In8  1  0.17290614  0.67497614  0.31792190  1
  In  In9  1  0.66982823  0.67108809  0.32131421  1
  In  In10  1  0.17404547  0.67632324  0.82276726  1
  In  In11  1  0.66832952  0.66979418  0.82089490  1
  Si  Si0  1  0.34815865  0.70021838  0.25085763  1
  Si  Si1  1  0.84846040  0.70296926  0.24985828  1
  Si  Si2  1  0.34881401  0.99486219  0.75114964  1
  Si  Si3  1  0.85102894  0.99598732  0.74951562  1
  Si  Si4  1  0.18105506  0.03541265  0.58709861  1
  Si  Si5  1  0.67839669  0.02868988  0.58645483  1
  Si  Si6  1  0.17948785  0.32393828  0.08880890  1
  Si  Si7  1  0.67941597  0.32451763  0.08841528  1
  Si  Si8  1  0.51388611  0.65931783  0.41877294  1
  S  S0  1  0.14647645  0.98926461  0.24993826  1
  S  S1  1  0.64814594  0.99148850  0.24910289  1
  S  S2  1  0.00409582  0.30852471  0.25230932  1
  S  S3  1  0.50414402  0.30805814  0.25024181  1
  S  S4  1  0.14776610  0.30612960  0.75155734  1
  S  S5  1  0.64995895  0.30886257  0.75152426  1
  S  S6  1  0.00272131  0.70262037  0.75243905  1
  S  S7  1  0.50384776  0.70660987  0.75146138  1
  S  S8  1  0.48191010  0.32658513  0.58216394  1
  S  S9  1  0.98028949  0.32394571  0.58386179  1
  S  S10  1  0.33625002  0.63869855  0.58401189  1
  S  S11  1  0.83701351  0.64074151  0.58367723  1
  S  S12  1  0.48174960  0.63833131  0.08192980  1
  S  S13  1  0.98195719  0.63846251  0.08182335  1
  S  S14  1  0.33555795  0.03714460  0.08002168  1
  S  S15  1  0.83591436  0.03799909  0.07977416  1
  S  S16  1  0.31723549  0.65367776  0.91759744  1
  S  S17  1  0.81596079  0.65341527  0.91664741  1
  S  S18  1  0.01269628  0.37394527  0.91589312  1
  S  S19  1  0.51250035  0.37362643  0.91759619  1
  S  S20  1  0.17085934  0.97438290  0.91823959  1
  S  S21  1  0.67092616  0.97307941  0.91751452  1
  S  S22  1  0.31321392  0.96833546  0.41725486  1
  S  S23  1  0.81750924  0.98154438  0.41908641  1
  S  S24  1  0.16781898  0.37171046  0.41554535  1
  S  S25  1  0.67367940  0.36567630  0.41528991  1
  S  S26  1  0.01344092  0.65318548  0.41578908  1
  O  O0  1  0.10631984  0.01997733  0.29910682  1
  O  O1  1  0.60865373  0.01611169  0.30065861  1
  O  O2  1  0.40143583  0.78749075  0.30635846  1
  O  O3  1  0.91412030  0.80022456  0.29819952  1
  O  O4  1  0.49568165  0.20978325  0.30153303  1
  O  O5  1  0.99530937  0.20776152  0.30294863  1
  O  O6  1  0.11276634  0.19640680  0.80203308  1
  O  O7  1  0.61132165  0.20074375  0.80197083  1
  O  O8  1  0.49537011  0.79250704  0.80113063  1
  O  O9  1  0.99230499  0.78252910  0.80322017  1
  O  O10  1  0.40172539  0.99602815  0.80355648  1
  O  O11  1  0.91324177  0.02605885  0.79999089  1
  O  O12  1  0.38846955  0.96182137  0.68936763  1
  O  O13  1  0.88968645  0.95663793  0.68887611  1
  O  O14  1  0.09662215  0.22926252  0.70040074  1
  O  O15  1  0.60267658  0.23425263  0.69891683  1
  O  O16  1  0.01981243  0.80849050  0.70002029  1
  O  O17  1  0.51995715  0.80920653  0.69744531  1
  O  O18  1  0.39079589  0.80721818  0.18907358  1
  O  O19  1  0.88601801  0.80354995  0.18578146  1
  O  O20  1  0.02030217  0.23688612  0.19912179  1
  O  O21  1  0.51699779  0.23074076  0.19745823  1
  O  O22  1  0.09765994  0.96444533  0.19655346  1
  O  O23  1  0.59782523  0.97334406  0.19729294  1
  O  O24  1  0.44410234  0.35351035  0.63395666  1
  O  O25  1  0.94582988  0.34524040  0.63865315  1
  O  O26  1  0.22905137  0.10945035  0.64637715  1
  O  O27  1  0.73139974  0.11186716  0.64272859  1
  O  O28  1  0.32938683  0.54740476  0.63726953  1
  O  O29  1  0.83117408  0.55412586  0.63784624  1
  O  O30  1  0.44719811  0.54385401  0.13584520  1
  O  O31  1  0.94771841  0.54492243  0.13614203  1
  O  O32  1  0.32746038  0.11727642  0.13177403  1
  O  O33  1  0.82785266  0.11809126  0.13160857  1
  O  O34  1  0.23088811  0.34699323  0.14615831  1
  O  O35  1  0.73096567  0.34753937  0.14564257  1
  O  O36  1  0.22275801  0.27747577  0.03279650  1
  O  O37  1  0.72262692  0.27773978  0.03231079  1
  O  O38  1  0.43018602  0.54545631  0.03239509  1
  O  O39  1  0.93014604  0.54387724  0.03254892  1
  O  O40  1  0.34951523  0.14127658  0.02761691  1
  O  O41  1  0.84985507  0.14263127  0.02733586  1
  O  O42  1  0.23065278  0.15492841  0.52996922  1
  O  O43  1  0.72217806  0.13785149  0.52560866  1
  O  O44  1  0.34728997  0.55556781  0.53251755  1
  O  O45  1  0.84705223  0.55306433  0.53300582  1
  O  O46  1  0.43129573  0.30721737  0.53127025  1
  O  O47  1  0.92675741  0.31330803  0.53504435  1
  O  O48  1  0.27308190  0.66590270  0.96861942  1
  O  O49  1  0.77256168  0.66423117  0.96817605  1
  O  O50  1  0.06229810  0.46394349  0.96419243  1
  O  O51  1  0.56010567  0.45856740  0.96726873  1
  O  O52  1  0.16385537  0.87634370  0.96954308  1
  O  O53  1  0.66449776  0.87683515  0.96910147  1
  O  O54  1  0.27337183  0.86945198  0.46979988  1
  O  O55  1  0.77963507  0.88788057  0.47290421  1
  O  O56  1  0.16054874  0.45943812  0.46515012  1
  O  O57  1  0.66680131  0.45163647  0.46578450  1
  O  O58  1  0.06354245  0.66301836  0.46394904  1
  O  O59  1  0.56784004  0.68354480  0.47470250  1
  O  O60  1  0.05246131  0.63566201  0.35985128  1
  O  O61  1  0.56012289  0.64158250  0.35809427  1
  O  O62  1  0.26172290  0.88443460  0.36605094  1
  O  O63  1  0.76369285  0.89389998  0.36945030  1
  O  O64  1  0.17720724  0.46969414  0.36068454  1
  O  O65  1  0.68222205  0.45945085  0.36102341  1
  O  O66  1  0.05369560  0.47146150  0.86015955  1
  O  O67  1  0.55441628  0.47495327  0.86319178  1
  O  O68  1  0.17716413  0.88951153  0.86426749  1
  O  O69  1  0.67832122  0.88887011  0.86380716  1
  O  O70  1  0.26770399  0.63408413  0.86435769  1
  O  O71  1  0.76704661  0.63702835  0.86358609  1
  O  O72  1  0.00461069  0.80185704  0.41335676  1
  O  O73  1  0.50508438  0.82745746  0.41519923  1
  O  O74  1  0.39607679  0.98236689  0.41157686  1
  O  O75  1  0.90213967  0.00944404  0.41240648  1
  O  O76  1  0.09578672  0.20248870  0.41316777  1
  O  O77  1  0.60048736  0.19464843  0.41419127  1
  O  O78  1  0.00387985  0.20760409  0.91368522  1
  O  O79  1  0.50376829  0.20725379  0.91428992  1
  O  O80  1  0.09773695  0.99655714  0.91563573  1
  O  O81  1  0.59803891  0.99552178  0.91459211  1
  O  O82  1  0.40071003  0.79994822  0.91358043  1
  O  O83  1  0.89963982  0.79989034  0.91268631  1
  O  O84  1  0.48288305  0.16529456  0.58633549  1
  O  O85  1  0.97759928  0.15918775  0.58409279  1
  O  O86  1  0.08647082  0.01683315  0.58814703  1
  O  O87  1  0.58201211  0.00295437  0.58972331  1
  O  O88  1  0.41406916  0.80882007  0.58387213  1
  O  O89  1  0.91146340  0.81280869  0.58195534  1
  O  O90  1  0.48167092  0.80083915  0.08319881  1
  O  O91  1  0.98188825  0.80055189  0.08277438  1
  O  O92  1  0.40732022  0.00601620  0.08214803  1
  O  O93  1  0.90787178  0.00783704  0.08180599  1
  O  O94  1  0.08564430  0.14667109  0.09195724  1
  O  O95  1  0.58592614  0.14717918  0.09099681  1
  O  O96  1  0.33033464  0.14852892  0.75051247  1
  O  O97  1  0.83729986  0.15742253  0.74670908  1
  O  O98  1  0.23588740  0.34829996  0.74337434  1
  O  O99  1  0.73715804  0.34005134  0.74562826  1
  O  O100  1  0.42650986  0.54318640  0.74695044  1
  O  O101  1  0.92587927  0.53613104  0.74703507  1
  O  O102  1  0.33988078  0.51497659  0.24856905  1
  O  O103  1  0.83799168  0.51533383  0.24771110  1
  O  O104  1  0.43110228  0.33094617  0.24653983  1
  O  O105  1  0.93070730  0.33012137  0.24763056  1
  O  O106  1  0.23261138  0.12827899  0.24400897  1
  O  O107  1  0.73332694  0.13594944  0.24383524  1
  O  O108  1  0.32338394  0.49780035  0.91970880  1
  O  O109  1  0.82240297  0.49708521  0.91819043  1
  O  O110  1  0.42730841  0.35810879  0.92012156  1
  O  O111  1  0.92773690  0.35953720  0.91888786  1
  O  O112  1  0.25054070  0.14082086  0.91747772  1
  O  O113  1  0.75086472  0.14041223  0.91673473  1
  O  O114  1  0.32179124  0.13643804  0.41849946  1
  O  O115  1  0.81935639  0.14704670  0.42025999  1
  O  O116  1  0.24849919  0.36883501  0.41661237  1
  O  O117  1  0.75121076  0.34976780  0.41732904  1
  O  O118  1  0.41649003  0.49352535  0.42160889  1
  O  O119  1  0.92786061  0.49690100  0.42030062  1
  O  O120  1  0.17715868  0.49613133  0.08091228  1
  O  O121  1  0.67715005  0.49670313  0.08091403  1
  O  O122  1  0.06989937  0.67885527  0.07515550  1
  O  O123  1  0.56988988  0.67986633  0.07520658  1
  O  O124  1  0.25664693  0.87213810  0.07643818  1
  O  O125  1  0.75702977  0.87330749  0.07610560  1
  O  O126  1  0.17692610  0.85506845  0.58125492  1
  O  O127  1  0.66954779  0.84290797  0.58261254  1
  O  O128  1  0.26266500  0.66121312  0.58015660  1
  O  O129  1  0.76100894  0.65585341  0.57977151  1
  O  O130  1  0.06635108  0.46148580  0.57689792  1
  O  O131  1  0.56782399  0.46884873  0.57640715  1
  O  O132  1  0.14532789  0.82522113  0.25683598  1
  O  O133  1  0.64972099  0.83150341  0.25291481  1
  O  O134  1  0.25098314  0.67183863  0.25239528  1
  O  O135  1  0.75188010  0.67552372  0.25726823  1
  O  O136  1  0.08075117  0.48067915  0.25521200  1
  O  O137  1  0.58198351  0.47754455  0.25174734  1
  O  O138  1  0.14708391  0.46784534  0.75919127  1
  O  O139  1  0.65706760  0.47750898  0.75748347  1
  O  O140  1  0.07710102  0.67759517  0.75664648  1
  O  O141  1  0.58027008  0.68817682  0.75562008  1
  O  O142  1  0.25259984  0.81389583  0.75371689  1
  O  O143  1  0.75563555  0.82084826  0.75608882  1
loop_
_geom_bond_atom_site_label_1
_geom_bond_atom_site_label_2
_geom_bond_distance
_geom_bond_site_symmetry_2
Na0 O102 2.373179 1_555
Na0 O34 2.396346 1_555
Na0 O134 2.409985 1_555
Na0 O136 2.702943 1_555
Na0 O106 2.746968 1_555
Na0 O64 2.951677 1_555
Na0 O20 2.980609 1_555
Na1 O103 2.343050 1_555
Na1 O35 2.414330 1_555
Na1 O135 2.430228 1_555
Na1 O137 2.631977 1_555
Na1 O107 2.714089 1_555
Na1 O65 2.902022 1_555
Na2 O103 2.419432 1_555
Na2 O132 2.533949 1_655
Na2 O105 2.556690 1_555
Na2 O3 2.620449 1_555
Na2 O60 2.752950 1_655
Na2 O136 2.805593 1_655
Na2 O22 2.946625 1_655
Na2 O31 2.947730 1_555
Na3 O102 2.463727 1_555
Na3 O104 2.513206 1_555
Na3 O133 2.572321 1_555
Na3 O61 2.579284 1_555
Na3 O137 2.761210 1_555
Na3 O2 2.813437 1_555
Na4 O142 2.418830 1_555
Na4 O98 2.506386 1_555
Na4 O100 2.588974 1_555
Na4 O28 2.732802 1_555
Na4 O12 2.740468 1_555
Na4 O138 2.868566 1_555
Na4 O70 2.935283 1_555
Na5 O143 2.430422 1_555
Na5 O99 2.506444 1_555
Na5 O139 2.641103 1_555
Na5 O101 2.647018 1_555
Na5 O29 2.689793 1_555
Na5 O13 2.751786 1_555
Na5 O71 2.912960 1_555
Na6 O97 2.462414 1_555
Na6 O138 2.544062 1_655
Na6 O101 2.634477 1_555
Na6 O140 2.719466 1_655
Na6 O11 2.723257 1_555
Na6 O66 2.813708 1_655
Na6 O25 2.821502 1_555
Na6 O14 2.893025 1_655
Na7 O26 2.308433 1_565
Na7 O96 2.311974 1_565
Na7 O142 2.567491 1_555
Na7 O140 2.657331 1_555
Na7 O16 2.864936 1_555
Na7 O98 2.908486 1_565
Na8 O97 2.354368 1_555
Na8 O27 2.410176 1_555
Na8 O143 2.554424 1_545
Na8 O141 2.614922 1_545
Na8 O99 2.797060 1_555
Na8 O17 2.946408 1_545
Na8 O69 3.059674 1_545
Na9 O127 2.365383 1_555
Na9 O87 2.417977 1_565
Na9 O59 2.434989 1_555
Na9 O88 2.625840 1_555
Na9 O131 2.741262 1_555
Na10 O126 2.395674 1_555
Na10 O128 2.547308 1_555
Na10 O84 2.552356 1_565
Na10 O12 2.642884 1_555
Na10 O88 2.772410 1_555
Na10 O26 2.912112 1_565
Na10 O46 3.016592 1_565
Na10 O54 3.018811 1_555
Na11 O127 2.481790 1_555
Na11 O85 2.500077 1_565
Na11 O129 2.520396 1_555
Na11 O89 2.660125 1_555
Na11 O13 2.687854 1_555
Na11 O55 2.848909 1_555
Na11 O27 2.908276 1_565
Na12 O94 2.414453 1_565
Na12 O122 2.479864 1_555
Na12 O36 2.556649 1_565
Na12 O124 2.586852 1_555
Na12 O91 2.773516 1_455
Na12 O52 2.798636 1_554
Na12 O22 2.880189 1_555
Na13 O95 2.409869 1_565
Na13 O123 2.468692 1_555
Na13 O37 2.562718 1_565
Na13 O125 2.588746 1_555
Na13 O90 2.771213 1_555
Na13 O53 2.802847 1_554
Na13 O23 2.910890 1_555
Na14 O120 2.443628 1_555
Na14 O90 2.511523 1_555
Na14 O18 2.533031 1_555
Na14 O92 2.624951 1_565
Na14 O124 2.715239 1_555
Na14 O34 2.916052 1_555
Na15 O19 2.428672 1_555
Na15 O121 2.437110 1_555
Na15 O91 2.526113 1_555
Na15 O93 2.639963 1_565
Na15 O125 2.713198 1_555
Na15 O35 2.904210 1_555
Na16 O73 2.468376 1_545
Na16 O77 2.475262 1_555
Na16 O115 2.609601 1_555
Na16 O43 2.622792 1_555
Na16 O117 2.770767 1_555
Na16 O59 2.790317 1_545
Na16 O63 2.960545 1_545
Na17 O73 2.360736 1_555
Na17 O118 2.399782 1_555
Na17 O116 2.505864 1_555
Na17 O2 2.539080 1_555
Na17 O74 2.613564 1_555
Na18 O86 2.338064 1_555
Na18 O89 2.619091 1_445
Na18 O76 2.633393 1_555
Na18 O85 2.703114 1_455
Na18 O72 2.751489 1_545
Na19 O87 2.522547 1_555
Na19 O73 2.544296 1_545
Na19 O77 2.558135 1_555
Na19 O88 2.663268 1_545
Na19 O84 2.710879 1_555
Na19 O74 2.935834 1_545
Na20 O94 2.485172 1_555
Na20 O93 2.560053 1_455
Na20 O78 2.667202 1_554
Na20 O80 2.669431 1_544
Na20 O91 2.696257 1_445
Na20 O83 3.004241 1_444
Na21 O95 2.480128 1_555
Na21 O92 2.582133 1_555
Na21 O79 2.632637 1_554
Na21 O81 2.683174 1_544
Na21 O90 2.723504 1_545
Na21 O82 2.977229 1_544
Na22 O96 2.338784 1_555
Na22 O110 2.509223 1_555
Na22 O112 2.569970 1_555
Na22 O100 2.725948 1_555
Na22 O108 2.866871 1_555
Na23 O113 2.408597 1_555
Na23 O97 2.530132 1_555
Na23 O111 2.557858 1_555
Na23 O109 2.675757 1_555
Na23 O101 2.797300 1_555
Na23 O99 2.876149 1_555
Na24 O118 2.473254 1_555
Na24 O114 2.570603 1_555
Na24 O116 2.599748 1_555
Na24 O102 2.629349 1_555
Na24 O104 2.685913 1_555
Na24 O106 2.971630 1_555
Na25 O103 2.477272 1_555
Na25 O117 2.507797 1_555
Na25 O119 2.583541 1_555
Na25 O105 2.670397 1_555
Na25 O115 2.707149 1_555
Na25 O107 2.916130 1_555
Na26 O134 2.427617 1_555
Na26 O120 2.474062 1_555
Na26 O136 2.596330 1_555
Na26 O124 2.786552 1_555
Na26 O132 2.871221 1_555
Na26 O122 3.035092 1_555
Na27 O135 2.500447 1_555
Na27 O121 2.506487 1_555
Na27 O137 2.508793 1_555
Na27 O133 2.774600 1_555
Na27 O125 2.820989 1_555
Na28 O126 2.313187 1_555
Na28 O128 2.611249 1_555
Na28 O142 2.659867 1_555
Na28 O140 2.772647 1_555
Na28 O130 2.817432 1_555
Na29 O127 2.415505 1_555
Na29 O129 2.624051 1_555
Na29 O141 2.721597 1_555
Na29 O143 2.739136 1_555
Na29 O131 2.744261 1_555
Na29 O139 2.817762 1_555
Ca0 O3 2.109532 1_555
Ca0 O75 2.260984 1_565
Ca0 O0 2.276233 1_665
Ca0 O5 2.309241 1_565
Ca0 O72 2.342192 1_655
Ca0 O76 2.409376 1_665
Ca1 O2 2.156484 1_555
Ca1 O73 2.260924 1_555
Ca1 O1 2.264569 1_565
Ca1 O4 2.272347 1_565
Ca1 O74 2.279065 1_555
Ca1 O77 2.424548 1_565
Ca2 O11 2.126742 1_555
Ca2 O6 2.276937 1_655
Ca2 O83 2.280587 1_545
Ca2 O9 2.306608 1_545
Ca2 O78 2.338298 1_655
Ca2 O80 2.404490 1_645
Ca3 O10 2.097080 1_545
Ca3 O7 2.273738 1_555
Ca3 O82 2.296329 1_545
Ca3 O8 2.300863 1_545
Ca3 O79 2.323363 1_555
Ca3 O81 2.433859 1_545
Ca4 O26 2.151702 1_555
Ca4 O24 2.227019 1_555
Ca4 O96 2.244369 1_555
Ca4 O98 2.349200 1_555
Ca4 O28 2.363574 1_555
Ca4 O100 2.448024 1_555
Ca5 O27 2.134273 1_555
Ca5 O25 2.244237 1_555
Ca5 O97 2.277982 1_555
Ca5 O29 2.304065 1_555
Ca5 O99 2.332487 1_555
Ca5 O101 2.457630 1_555
Ca6 O34 2.175649 1_555
Ca6 O102 2.249816 1_555
Ca6 O30 2.279806 1_555
Ca6 O32 2.283903 1_555
Ca6 O106 2.325882 1_555
Ca6 O104 2.373561 1_555
Ca7 O35 2.168776 1_555
Ca7 O103 2.255933 1_555
Ca7 O31 2.279011 1_555
Ca7 O33 2.279142 1_555
Ca7 O107 2.298990 1_555
Ca7 O105 2.403113 1_555
Ca8 O120 2.181514 1_555
Ca8 O50 2.219511 1_554
Ca8 O48 2.240115 1_554
Ca8 O122 2.287590 1_555
Ca8 O52 2.356462 1_554
Ca8 O124 2.384101 1_555
Ca9 O121 2.179530 1_555
Ca9 O51 2.214976 1_554
Ca9 O49 2.246317 1_554
Ca9 O123 2.289891 1_555
Ca9 O53 2.357999 1_554
Ca9 O125 2.387628 1_555
Ca10 O126 2.185574 1_555
Ca10 O58 2.226981 1_555
Ca10 O54 2.248315 1_555
Ca10 O130 2.258757 1_555
Ca10 O56 2.298937 1_555
Ca10 O128 2.420924 1_555
Ca11 O59 2.153100 1_555
Ca11 O57 2.264579 1_555
Ca11 O55 2.270114 1_555
Ca11 O131 2.292431 1_555
Ca11 O127 2.302345 1_555
Ca11 O129 2.393066 1_555
In0 O86 2.036312 1_565
In0 O13 2.093402 1_455
In0 O16 2.303981 1_555
In0 O85 2.317271 1_465
In0 O14 2.332863 1_565
In0 O89 2.342130 1_455
In1 O12 2.077775 1_545
In1 O87 2.081235 1_555
In1 O84 2.259658 1_555
In1 O15 2.281709 1_555
In1 O17 2.311251 1_545
In1 O88 2.408749 1_545
In2 O19 2.055644 1_545
In2 O94 2.077709 1_655
In2 O20 2.222868 1_655
In2 O22 2.366772 1_645
In2 O93 2.373033 1_555
In2 O91 2.460523 1_545
In3 O18 2.042805 1_545
In3 O95 2.070080 1_555
In3 O21 2.190597 1_555
In3 O23 2.326434 1_545
In3 O92 2.362926 1_555
In3 O90 2.426741 1_545
In4 O36 2.047253 1_556
In4 O108 2.207338 1_555
In4 O40 2.225880 1_556
In4 O110 2.264643 1_555
In4 O38 2.273005 1_556
In4 O112 2.279373 1_555
In5 O37 2.040981 1_556
In5 O41 2.222767 1_556
In5 O109 2.227723 1_555
In5 O39 2.271784 1_556
In5 O111 2.287276 1_555
In5 O113 2.288045 1_555
In6 O42 2.013160 1_555
In6 O118 2.101052 1_555
In6 O114 2.278476 1_555
In6 O46 2.292270 1_555
In6 O44 2.298290 1_555
In6 O116 2.364738 1_555
In7 O43 2.063573 1_555
In7 O45 2.191172 1_555
In7 O47 2.222680 1_555
In7 O115 2.272228 1_555
In7 O117 2.278126 1_555
In7 O119 2.278468 1_555
In8 O134 2.088322 1_555
In8 O62 2.155181 1_555
In8 O64 2.187086 1_555
In8 O132 2.234225 1_555
In8 O60 2.265292 1_555
In8 O136 2.316549 1_555
In9 O61 2.070596 1_555
In9 O135 2.089603 1_555
In9 O63 2.250670 1_555
In9 O65 2.286585 1_555
In9 O133 2.343443 1_555
In9 O137 2.395013 1_555
In10 O142 2.085370 1_555
In10 O68 2.180447 1_555
In10 O70 2.209519 1_555
In10 O66 2.229940 1_555
In10 O138 2.298326 1_555
In10 O140 2.405442 1_555
In11 O143 2.110430 1_555
In11 O67 2.177453 1_555
In11 O69 2.194022 1_555
In11 O139 2.253634 1_555
In11 O71 2.255765 1_555
In11 O141 2.330733 1_555
O0 S0 1.457365 1_545
O1 S1 1.470181 1_545
O2 Si0 1.607460 1_555
O3 Si1 1.595704 1_555
O4 S3 1.461424 1_555
O5 S2 1.460959 1_655
O6 S4 1.462626 1_555
O7 S5 1.461840 1_555
O8 S7 1.458896 1_555
O9 S6 1.460059 1_655
O10 Si2 1.586366 1_555
O11 Si3 1.596974 1_545
O12 Si2 1.700171 1_555
O13 Si3 1.692893 1_555
O14 S4 1.490789 1_555
O15 S5 1.487154 1_555
O16 S6 1.492818 1_555
O17 S7 1.509699 1_555
O18 Si0 1.685127 1_555
O19 Si1 1.698247 1_555
O20 S2 1.504069 1_555
O21 S3 1.501305 1_555
O22 S0 1.510515 1_555
O23 S1 1.506260 1_555
O24 S8 1.466355 1_555
O25 S9 1.473389 1_555
O26 Si4 1.624825 1_555
O27 Si5 1.613432 1_555
O28 S10 1.470716 1_555
O29 S11 1.470575 1_555
O30 S12 1.467816 1_555
O31 S13 1.471913 1_555
O32 S14 1.464760 1_555
O33 S15 1.465914 1_555
O34 Si6 1.617354 1_555
O35 Si7 1.616502 1_555
O36 Si6 1.684008 1_555
O37 Si7 1.686471 1_555
O38 S12 1.494273 1_555
O39 S13 1.495298 1_555
O40 S14 1.492777 1_555
O41 S15 1.496066 1_555
O42 Si4 1.661485 1_555
O43 Si5 1.677109 1_555
O44 S10 1.495158 1_555
O45 S11 1.498073 1_555
O46 S8 1.489691 1_555
O47 S9 1.503043 1_555
O48 S16 1.464736 1_555
O49 S17 1.461700 1_555
O50 S18 1.451063 1_555
O51 S19 1.451961 1_555
O52 S20 1.466816 1_555
O53 S21 1.465357 1_555
O54 S22 1.469985 1_555
O55 S23 1.471427 1_555
O56 S24 1.460000 1_555
O57 S25 1.464314 1_555
O58 S26 1.452385 1_555
O59 Si8 1.614169 1_555
O60 S26 1.525406 1_555
O61 Si8 1.688115 1_555
O62 S22 1.506086 1_555
O63 S23 1.501166 1_555
O64 S24 1.525183 1_555
O65 S25 1.496007 1_555
O66 S18 1.530929 1_555
O67 S19 1.520532 1_555
O68 S20 1.521473 1_555
O69 S21 1.519386 1_555
O70 S16 1.522982 1_555
O71 S17 1.518678 1_555
O72 S26 1.469752 1_555
O73 Si8 1.650363 1_555
O74 S22 1.475722 1_555
O75 S23 1.458324 1_545
O76 S24 1.465094 1_555
O77 S25 1.481777 1_555
O78 S18 1.469389 1_555
O79 S19 1.471589 1_555
O80 S20 1.471312 1_555
O81 S21 1.469005 1_555
O82 S16 1.456966 1_555
O83 S17 1.459917 1_555
O84 S8 1.508766 1_555
O85 S9 1.504375 1_555
O86 Si4 1.671228 1_555
O87 Si5 1.677308 1_555
O88 S10 1.510352 1_555
O89 S11 1.495034 1_555
O90 S12 1.509023 1_555
O91 S13 1.504906 1_555
O92 S14 1.497316 1_555
O93 S15 1.495042 1_555
O94 Si6 1.688110 1_555
O95 Si7 1.684766 1_555
O96 Si2 1.625254 1_545
O97 Si3 1.642077 1_545
O98 S4 1.481188 1_555
O99 S5 1.492888 1_555
O100 S7 1.478897 1_555
O101 S6 1.492597 1_655
O102 Si0 1.648269 1_555
O103 Si1 1.653175 1_555
O104 S3 1.475748 1_555
O105 S2 1.476983 1_655
O106 S0 1.464958 1_545
O107 S1 1.470781 1_545
O108 S16 1.507693 1_555
O109 S17 1.514550 1_555
O110 S19 1.510029 1_555
O111 S18 1.510350 1_655
O112 S20 1.506665 1_545
O113 S21 1.513292 1_545
O114 S22 1.486772 1_545
O115 S23 1.519133 1_545
O116 S24 1.508730 1_555
O117 S25 1.517508 1_555
O118 Si8 1.681556 1_555
O119 S26 1.518359 1_655
O120 Si6 1.630165 1_555
O121 Si7 1.628475 1_555
O122 S13 1.479772 1_455
O123 S12 1.480276 1_555
O124 S14 1.498135 1_565
O125 S15 1.496526 1_565
O126 Si4 1.642490 1_565
O127 Si5 1.650491 1_565
O128 S10 1.483928 1_555
O129 S11 1.488269 1_555
O130 S9 1.461313 1_455
O131 S8 1.472448 1_555
O132 S0 1.519781 1_555
O133 S1 1.501914 1_555
O134 Si0 1.682161 1_555
O135 Si1 1.679096 1_555
O136 S2 1.515673 1_555
O137 S3 1.508683 1_555
O138 S4 1.517841 1_555
O139 S5 1.510096 1_555
O140 S6 1.513354 1_555
O141 S7 1.514241 1_555
O142 Si2 1.727325 1_555
O143 Si3 1.697999 1_555
