# generated using pymatgen
data_Na3NbZnSi(PO6)2
_symmetry_space_group_name_H-M   'P 1'
_cell_length_a   9.04352830
_cell_length_b   9.08795018
_cell_length_c   22.07781524
_cell_angle_alpha   89.71296990
_cell_angle_beta   90.00000000
_cell_angle_gamma   119.83843765
_symmetry_Int_Tables_number   1
_chemical_formula_structural   Na3NbZnSi(PO6)2
_chemical_formula_sum   'Na18 Nb6 Zn6 Si6 P12 O72'
_cell_volume   1573.93958761
_cell_formula_units_Z   6
loop_
 _symmetry_equiv_pos_site_id
 _symmetry_equiv_pos_as_xyz
  1  'x, y, z'
loop_
 _atom_site_type_symbol
 _atom_site_label
 _atom_site_symmetry_multiplicity
 _atom_site_fract_x
 _atom_site_fract_y
 _atom_site_fract_z
 _atom_site_occupancy
  Na  Na0  1  0.99727202  0.00557507  0.48882184  1
  Na  Na1  1  0.00830305  0.00557507  0.98882184  1
  Na  Na2  1  0.67069280  0.32826261  0.82258919  1
  Na  Na3  1  0.65757081  0.32826261  0.32258919  1
  Na  Na4  1  0.34740386  0.65479507  0.15546256  1
  Na  Na5  1  0.30739021  0.65479507  0.65546256  1
  Na  Na6  1  0.65356466  0.02315910  0.24450693  1
  Na  Na7  1  0.98455642  0.62179390  0.24132282  1
  Na  Na8  1  0.63723748  0.62179390  0.74132282  1
  Na  Na9  1  0.36959444  0.02315910  0.74450693  1
  Na  Na10  1  0.31634824  0.35572515  0.58074855  1
  Na  Na11  1  0.64371952  0.95143769  0.57543089  1
  Na  Na12  1  0.30771917  0.95143769  0.07543089  1
  Na  Na13  1  0.03937791  0.35572515  0.08074855  1
  Na  Na14  1  0.97866999  0.68659068  0.91380126  1
  Na  Na15  1  0.70458065  0.02075807  0.90919046  1
  Na  Na16  1  0.31617642  0.02075807  0.40919046  1
  Na  Na17  1  0.70791969  0.68659068  0.41380126  1
  Nb  Nb0  1  0.99440576  0.99565137  0.64657282  1
  Nb  Nb1  1  0.00124561  0.99565137  0.14657282  1
  Nb  Nb2  1  0.66167639  0.33544777  0.97972379  1
  Nb  Nb3  1  0.67377238  0.33544777  0.47972379  1
  Nb  Nb4  1  0.33310295  0.66828141  0.31322153  1
  Nb  Nb5  1  0.33517746  0.66828141  0.81322153  1
  Zn  Zn0  1  0.00423814  0.01086172  0.34912486  1
  Zn  Zn1  1  0.00662357  0.01086172  0.84912486  1
  Zn  Zn2  1  0.67486373  0.33140849  0.68215087  1
  Zn  Zn3  1  0.65654576  0.33140849  0.18215087  1
  Zn  Zn4  1  0.32769600  0.66919252  0.01486645  1
  Zn  Zn5  1  0.34149552  0.66919252  0.51486645  1
  Si  Si0  1  0.29777607  0.00441339  0.25537647  1
  Si  Si1  1  0.70663732  0.00441339  0.75537647  1
  Si  Si2  1  0.66728157  0.62549163  0.58744203  1
  Si  Si3  1  0.95821106  0.62549163  0.08744203  1
  Si  Si4  1  0.33043993  0.96595693  0.91928601  1
  Si  Si5  1  0.63551599  0.96595693  0.41928601  1
  P  P0  1  0.70513074  0.70657759  0.25389049  1
  P  P1  1  0.00590273  0.29467358  0.25031298  1
  P  P2  1  0.28877085  0.29467358  0.75031298  1
  P  P3  1  0.00144685  0.70657759  0.75389049  1
  P  P4  1  0.96105967  0.33268568  0.58585092  1
  P  P5  1  0.36950346  0.04067914  0.58537087  1
  P  P6  1  0.67117669  0.04067914  0.08537087  1
  P  P7  1  0.37162700  0.33268568  0.08585092  1
  P  P8  1  0.61838595  0.65988458  0.91900912  1
  P  P9  1  0.03828117  0.37410662  0.92146234  1
  P  P10  1  0.33582445  0.37410662  0.42146234  1
  P  P11  1  0.04149762  0.65988458  0.41900912  1
  O  O0  1  0.20801204  0.01241184  0.31616667  1
  O  O1  1  0.80310730  0.78436733  0.31192022  1
  O  O2  1  0.97201714  0.17941571  0.30383843  1
  O  O3  1  0.20739856  0.17941571  0.80383843  1
  O  O4  1  0.98126003  0.78436733  0.81192022  1
  O  O5  1  0.80439980  0.01241184  0.81616667  1
  O  O6  1  0.81217401  0.97885333  0.69574878  1
  O  O7  1  0.18280564  0.20696526  0.69056842  1
  O  O8  1  0.02994984  0.83423901  0.69853559  1
  O  O9  1  0.80428917  0.83423901  0.19853559  1
  O  O10  1  0.02415962  0.20696526  0.19056842  1
  O  O11  1  0.16667932  0.97885333  0.19574878  1
  O  O12  1  0.87907532  0.34733391  0.64284597  1
  O  O13  1  0.47209581  0.11784301  0.64298873  1
  O  O14  1  0.64151771  0.51352256  0.64650480  1
  O  O15  1  0.87200584  0.51352256  0.14650480  1
  O  O16  1  0.64574819  0.11784301  0.14298873  1
  O  O17  1  0.46825958  0.34733391  0.14284597  1
  O  O18  1  0.46552686  0.30575460  0.02878609  1
  O  O19  1  0.83437845  0.52430577  0.02675573  1
  O  O20  1  0.69010237  0.16163120  0.02914492  1
  O  O21  1  0.47152983  0.16163120  0.52914492  1
  O  O22  1  0.68992832  0.52430577  0.52675573  1
  O  O23  1  0.84022874  0.30575460  0.52878609  1
  O  O24  1  0.52770237  0.68110862  0.97250087  1
  O  O25  1  0.12862327  0.45022150  0.98089637  1
  O  O26  1  0.30430616  0.85760021  0.97975614  1
  O  O27  1  0.55329305  0.85760021  0.47975614  1
  O  O28  1  0.32159723  0.45022150  0.48089637  1
  O  O29  1  0.15340525  0.68110862  0.47250087  1
  O  O30  1  0.12717098  0.63877871  0.35885409  1
  O  O31  1  0.49808596  0.85729402  0.36052953  1
  O  O32  1  0.35350145  0.49535927  0.36651246  1
  O  O33  1  0.14185682  0.49535927  0.86651246  1
  O  O34  1  0.35920706  0.85729402  0.86052953  1
  O  O35  1  0.51160673  0.63877871  0.85885409  1
  O  O36  1  0.00867602  0.80877494  0.41427449  1
  O  O37  1  0.81948880  0.98508499  0.40960661  1
  O  O38  1  0.19407443  0.19202962  0.41505804  1
  O  O39  1  0.99795520  0.19202962  0.91505804  1
  O  O40  1  0.16559619  0.98508499  0.90960661  1
  O  O41  1  0.80009892  0.80877494  0.91427449  1
  O  O42  1  0.96521844  0.15843789  0.58634320  1
  O  O43  1  0.19790295  0.04558259  0.58624391  1
  O  O44  1  0.84670538  0.81753079  0.59019030  1
  O  O45  1  0.97082541  0.81753079  0.09019030  1
  O  O46  1  0.84767964  0.04558259  0.08624391  1
  O  O47  1  0.19321946  0.15843789  0.08634320  1
  O  O48  1  0.66125208  0.15238223  0.74690026  1
  O  O49  1  0.47262763  0.32903521  0.74538613  1
  O  O50  1  0.84862807  0.53183658  0.74485433  1
  O  O51  1  0.68320951  0.53183658  0.24485433  1
  O  O52  1  0.85640858  0.32903521  0.24538613  1
  O  O53  1  0.49113115  0.15238223  0.24690026  1
  O  O54  1  0.63132566  0.49245008  0.92171413  1
  O  O55  1  0.86172186  0.37560383  0.91985954  1
  O  O56  1  0.51739800  0.14820286  0.92091613  1
  O  O57  1  0.63080586  0.14820286  0.42091613  1
  O  O58  1  0.51388296  0.37560383  0.41985954  1
  O  O59  1  0.86112541  0.49245008  0.42171413  1
  O  O60  1  0.33541824  0.47699600  0.07707487  1
  O  O61  1  0.15097972  0.65834580  0.08238475  1
  O  O62  1  0.52274182  0.86229887  0.07714701  1
  O  O63  1  0.33955605  0.86229887  0.57714701  1
  O  O64  1  0.50736508  0.65834580  0.58238475  1
  O  O65  1  0.14157675  0.47699600  0.57707487  1
  O  O66  1  0.29741231  0.81530754  0.25505255  1
  O  O67  1  0.52826538  0.70251164  0.25416285  1
  O  O68  1  0.17562590  0.47187291  0.25444106  1
  O  O69  1  0.29624601  0.47187291  0.75444106  1
  O  O70  1  0.17424526  0.70251164  0.75416285  1
  O  O71  1  0.51789423  0.81530754  0.75505255  1
loop_
_geom_bond_atom_site_label_1
_geom_bond_atom_site_label_2
_geom_bond_distance
_geom_bond_site_symmetry_2
Na0 O37 2.320267 1_545
Na0 O38 2.379570 1_655
Na0 O36 2.476135 1_645
Na0 O42 2.660882 1_555
Na0 O43 2.720639 1_655
Na0 O44 2.725667 1_545
Na1 O40 2.320267 1_545
Na1 O39 2.379570 1_455
Na1 O41 2.476135 1_445
Na1 O47 2.660882 1_556
Na1 O46 2.720639 1_456
Na1 O45 2.725667 1_446
Na2 O48 2.290306 1_555
Na2 O50 2.441974 1_555
Na2 O49 2.475097 1_555
Na2 O56 2.649365 1_555
Na2 O55 2.655387 1_555
Na2 O54 2.775591 1_555
Na3 O53 2.290306 1_555
Na3 O51 2.441974 1_555
Na3 O52 2.475097 1_555
Na3 O57 2.649365 1_555
Na3 O58 2.655387 1_555
Na3 O59 2.775591 1_555
Na4 O60 2.339115 1_555
Na4 O61 2.411658 1_555
Na4 O62 2.460045 1_555
Na4 O67 2.629714 1_555
Na4 O68 2.710313 1_555
Na4 O66 2.802695 1_555
Na5 O65 2.339115 1_555
Na5 O64 2.411658 1_555
Na5 O63 2.460045 1_555
Na5 O70 2.629714 1_555
Na5 O69 2.710313 1_555
Na5 O71 2.802695 1_555
Na6 O53 2.292844 1_555
Na6 O16 2.410406 1_555
Na6 O52 2.453337 1_555
Na6 O67 2.555176 1_545
Na6 O66 2.817380 1_545
Na6 O2 2.824076 1_555
Na6 O9 2.860442 1_545
Na6 O31 2.943269 1_545
Na7 O52 2.314973 1_555
Na7 O15 2.326034 1_555
Na7 O51 2.425624 1_555
Na7 O66 2.498732 1_655
Na7 O68 2.695333 1_655
Na7 O30 2.868156 1_655
Na7 O11 2.983894 1_655
Na8 O49 2.314972 1_555
Na8 O14 2.326036 1_555
Na8 O50 2.425633 1_555
Na8 O71 2.498739 1_555
Na8 O69 2.695341 1_555
Na8 O35 2.868160 1_555
Na8 O6 2.983894 1_555
Na9 O48 2.292852 1_555
Na9 O13 2.410408 1_555
Na9 O49 2.453335 1_555
Na9 O70 2.555177 1_545
Na9 O71 2.817372 1_545
Na9 O3 2.824076 1_555
Na9 O8 2.860442 1_545
Na9 O34 2.943267 1_545
Na10 O65 2.334924 1_555
Na10 O28 2.353746 1_555
Na10 O64 2.412963 1_555
Na10 O43 2.469531 1_555
Na10 O7 2.739937 1_555
Na10 O42 2.765068 1_455
Na10 O14 2.938720 1_555
Na10 O21 2.976977 1_555
Na11 O27 2.276365 1_555
Na11 O64 2.316540 1_555
Na11 O63 2.450786 1_555
Na11 O42 2.571409 1_565
Na11 O44 2.678806 1_555
Na12 O26 2.276362 1_554
Na12 O61 2.316541 1_555
Na12 O62 2.450769 1_555
Na12 O47 2.571416 1_565
Na12 O45 2.678814 1_455
Na13 O60 2.334908 1_555
Na13 O25 2.353743 1_554
Na13 O61 2.412966 1_555
Na13 O46 2.469533 1_455
Na13 O10 2.739935 1_555
Na13 O47 2.765061 1_555
Na13 O15 2.938720 1_455
Na13 O20 2.976977 1_455
Na14 O41 2.371836 1_555
Na14 O40 2.378902 1_655
Na14 O4 2.410145 1_555
Na14 O55 2.479069 1_555
Na14 O54 2.737242 1_555
Na14 O19 2.853933 1_556
Na14 O26 2.945570 1_655
Na14 O33 2.976350 1_655
Na15 O5 2.260152 1_555
Na15 O39 2.317591 1_555
Na15 O41 2.474673 1_545
Na15 O56 2.495606 1_555
Na15 O55 2.814550 1_555
Na16 O0 2.260148 1_555
Na16 O38 2.317583 1_555
Na16 O36 2.474666 1_545
Na16 O57 2.495622 1_555
Na16 O58 2.814551 1_555
Na17 O36 2.371844 1_655
Na17 O37 2.378900 1_555
Na17 O1 2.410147 1_555
Na17 O58 2.479066 1_555
Na17 O59 2.737257 1_555
Na17 O22 2.853937 1_555
Na17 O27 2.945570 1_555
Na17 O32 2.976350 1_555
Nb0 O6 1.914678 1_555
Nb0 O44 1.955150 1_555
Nb0 O8 2.005899 1_655
Nb0 O7 2.072938 1_665
Nb0 O42 2.096513 1_565
Nb0 O43 2.128311 1_665
Nb1 O11 1.914678 1_555
Nb1 O45 1.955150 1_455
Nb1 O9 2.005899 1_455
Nb1 O10 2.072938 1_565
Nb1 O47 2.096513 1_565
Nb1 O46 2.128311 1_465
Nb2 O19 1.952858 1_556
Nb2 O18 1.978259 1_556
Nb2 O56 2.023987 1_555
Nb2 O54 2.030480 1_555
Nb2 O20 2.034376 1_556
Nb2 O55 2.119217 1_555
Nb3 O22 1.952858 1_555
Nb3 O23 1.978259 1_555
Nb3 O57 2.023987 1_555
Nb3 O59 2.030480 1_555
Nb3 O21 2.034376 1_555
Nb3 O58 2.119217 1_555
Nb4 O31 1.932680 1_555
Nb4 O66 1.987656 1_555
Nb4 O30 2.013860 1_555
Nb4 O32 2.039091 1_555
Nb4 O67 2.088430 1_555
Nb4 O68 2.095707 1_555
Nb5 O34 1.932680 1_555
Nb5 O71 1.987656 1_555
Nb5 O35 2.013860 1_555
Nb5 O33 2.039091 1_555
Nb5 O70 2.088430 1_555
Nb5 O69 2.095707 1_555
O0 Si0 1.589102 1_555
O0 Zn0 1.974783 1_555
O1 P0 1.520528 1_555
O1 Zn0 2.123982 1_665
O2 P1 1.501908 1_655
O2 Zn0 1.964646 1_655
O3 P2 1.501909 1_555
O3 Zn1 1.964646 1_555
O4 P3 1.520528 1_655
O4 Zn1 2.123982 1_665
O5 Si1 1.589102 1_555
O5 Zn1 1.974783 1_655
O6 Si1 1.709270 1_565
O7 P2 1.594975 1_555
O8 P3 1.610661 1_555
O9 P0 1.610661 1_555
O10 P1 1.594975 1_555
O11 Si0 1.709270 1_565
O12 P4 1.500239 1_555
O12 Zn2 1.979236 1_555
O13 P5 1.527168 1_555
O13 Zn2 2.086216 1_555
O14 Si2 1.594009 1_555
O14 Zn2 1.983198 1_555
O15 Si3 1.594009 1_555
O15 Zn3 1.983198 1_555
O16 P6 1.527168 1_555
O16 Zn3 2.086216 1_555
O17 P7 1.500239 1_555
O17 Zn3 1.979236 1_555
O18 P7 1.605675 1_555
O19 Si3 1.697774 1_555
O20 P6 1.605491 1_555
O21 P5 1.605491 1_555
O22 Si2 1.697774 1_555
O23 P4 1.605675 1_555
O24 P8 1.504718 1_555
O24 Zn4 1.990547 1_556
O25 P9 1.521349 1_555
O25 Zn4 2.052694 1_556
O26 Si4 1.600986 1_555
O26 Zn4 1.981034 1_556
O27 Si5 1.600986 1_555
O27 Zn5 1.981034 1_555
O28 P10 1.521349 1_555
O28 Zn5 2.052694 1_555
O29 P11 1.504718 1_555
O29 Zn5 1.990547 1_555
O30 P11 1.597296 1_555
O31 Si5 1.730358 1_555
O32 P10 1.588371 1_555
O33 P9 1.588371 1_555
O34 Si4 1.730358 1_555
O35 P8 1.597296 1_555
O36 P11 1.525839 1_555
O36 Zn0 2.343141 1_565
O37 Si5 1.598692 1_555
O37 Zn0 2.058355 1_665
O38 P10 1.514225 1_555
O38 Zn0 2.233456 1_555
O39 P9 1.514227 1_655
O39 Zn1 2.233456 1_655
O40 Si4 1.598683 1_555
O40 Zn1 2.058355 1_565
O41 P8 1.525845 1_555
O41 Zn1 2.343141 1_665
O42 P4 1.602583 1_555
O43 P5 1.574642 1_555
O44 Si2 1.692777 1_555
O45 Si3 1.692781 1_555
O46 P6 1.574632 1_555
O47 P7 1.602588 1_555
O48 Si1 1.599534 1_555
O48 Zn2 2.117348 1_555
O49 P2 1.535232 1_555
O49 Zn2 2.292373 1_555
O50 P3 1.513554 1_655
O50 Zn2 2.209200 1_555
O51 P0 1.513558 1_555
O51 Zn3 2.209200 1_555
O52 P1 1.535223 1_655
O52 Zn3 2.292373 1_555
O53 Si0 1.599540 1_555
O53 Zn3 2.117348 1_555
O54 P8 1.583957 1_555
O55 P9 1.603921 1_655
O56 Si4 1.678416 1_545
O57 Si5 1.678407 1_545
O58 P10 1.603939 1_555
O59 P11 1.583947 1_655
O60 P7 1.513132 1_555
O60 Zn4 2.244859 1_555
O61 Si3 1.619395 1_455
O61 Zn4 2.151182 1_555
O62 P6 1.516702 1_565
O62 Zn4 2.241787 1_555
O63 P5 1.516695 1_565
O63 Zn5 2.241787 1_555
O64 Si2 1.619412 1_555
O64 Zn5 2.151182 1_555
O65 P4 1.513120 1_455
O65 Zn5 2.244859 1_555
O66 Si0 1.717001 1_565
O67 P0 1.581437 1_555
O68 P1 1.580924 1_555
O69 P2 1.580928 1_555
O70 P3 1.581428 1_555
O71 Si1 1.717005 1_565
