# generated using pymatgen
data_ZrPbS3
_symmetry_space_group_name_H-M   'P 1'
_cell_length_a   3.80219200
_cell_length_b   9.20157497
_cell_length_c   14.02088112
_cell_angle_alpha   90.00000000
_cell_angle_beta   90.00000000
_cell_angle_gamma   90.00000000
_symmetry_Int_Tables_number   1
_chemical_formula_structural   ZrPbS3
_chemical_formula_sum   'Zr4 Pb4 S12'
_cell_volume   490.53671643
_cell_formula_units_Z   4
loop_
 _symmetry_equiv_pos_site_id
 _symmetry_equiv_pos_as_xyz
  1  'x, y, z'
loop_
 _atom_site_type_symbol
 _atom_site_label
 _atom_site_symmetry_multiplicity
 _atom_site_fract_x
 _atom_site_fract_y
 _atom_site_fract_z
 _atom_site_occupancy
  Zr  Zr0  1  0.25000000  0.16635783  0.95104772  1
  Zr  Zr1  1  0.75000000  0.83364217  0.04895228  1
  Zr  Zr2  1  0.25000000  0.66635783  0.54895228  1
  Zr  Zr3  1  0.75000000  0.33364217  0.45104772  1
  Pb  Pb0  1  0.25000000  0.52287727  0.17352655  1
  Pb  Pb1  1  0.75000000  0.47712273  0.82647345  1
  Pb  Pb2  1  0.25000000  0.02287727  0.32647345  1
  Pb  Pb3  1  0.75000000  0.97712273  0.67352655  1
  S  S0  1  0.25000000  0.00890169  0.10467966  1
  S  S1  1  0.75000000  0.99109831  0.89532034  1
  S  S2  1  0.25000000  0.50890169  0.39532034  1
  S  S3  1  0.75000000  0.49109831  0.60467966  1
  S  S4  1  0.25000000  0.17016540  0.51010995  1
  S  S5  1  0.75000000  0.82983460  0.48989005  1
  S  S6  1  0.25000000  0.67016540  0.98989005  1
  S  S7  1  0.75000000  0.32983460  0.01010995  1
  S  S8  1  0.75000000  0.22649242  0.28561934  1
  S  S9  1  0.25000000  0.77350758  0.71438066  1
  S  S10  1  0.75000000  0.72649242  0.21438066  1
  S  S11  1  0.25000000  0.27350758  0.78561934  1
loop_
_geom_bond_atom_site_label_1
_geom_bond_atom_site_label_2
_geom_bond_distance
_geom_bond_site_symmetry_2
Pb0 S10 2.729941 1_555
Pb0 S10 2.729941 1_455
Pb0 S6 2.909657 1_554
Pb0 S2 3.112402 1_555
Pb1 S11 2.729941 1_555
Pb1 S11 2.729941 1_655
Pb1 S7 2.909657 1_556
Pb1 S3 3.112402 1_555
Pb2 S8 2.729941 1_555
Pb2 S8 2.729941 1_455
Pb2 S4 2.909657 1_555
Pb2 S0 3.112402 1_555
Pb3 S9 2.729941 1_555
Pb3 S9 2.729941 1_655
Pb3 S5 2.909657 1_555
Pb3 S1 3.112402 1_555
S0 Zr0 2.595978 1_554
S0 Zr1 2.612538 1_445
S0 Zr1 2.612538 1_545
S1 Zr1 2.595978 1_556
S1 Zr0 2.612538 1_665
S1 Zr0 2.612538 1_565
S2 Zr2 2.595978 1_555
S2 Zr3 2.612538 1_455
S2 Zr3 2.612538 1_555
S3 Zr3 2.595978 1_555
S3 Zr2 2.612538 1_555
S3 Zr2 2.612538 1_655
S4 Zr3 2.561771 1_455
S4 Zr3 2.561771 1_555
S5 Zr2 2.561771 1_555
S5 Zr2 2.561771 1_655
S6 Zr1 2.561771 1_556
S6 Zr1 2.561771 1_456
S7 Zr0 2.561771 1_554
S7 Zr0 2.561771 1_654
S8 Zr3 2.520307 1_555
S9 Zr2 2.520307 1_555
S10 Zr1 2.520307 1_555
S11 Zr0 2.520307 1_555
