# generated using pymatgen
data_K2In12Se19
_symmetry_space_group_name_H-M   'P 1'
_cell_length_a   14.39797169
_cell_length_b   14.39797129
_cell_length_c   14.39797083
_cell_angle_alpha   58.44889695
_cell_angle_beta   58.44889414
_cell_angle_gamma   58.44889726
_symmetry_Int_Tables_number   1
_chemical_formula_structural   K2In12Se19
_chemical_formula_sum   'K4 In24 Se38'
_cell_volume   2035.60869827
_cell_formula_units_Z   2
loop_
 _symmetry_equiv_pos_site_id
 _symmetry_equiv_pos_as_xyz
  1  'x, y, z'
loop_
 _atom_site_type_symbol
 _atom_site_label
 _atom_site_symmetry_multiplicity
 _atom_site_fract_x
 _atom_site_fract_y
 _atom_site_fract_z
 _atom_site_occupancy
  K  K0  1  0.58639978  0.58639978  0.58639978  1
  K  K1  1  0.41360022  0.41360022  0.41360022  1
  K  K2  1  0.08057860  0.08057860  0.08057860  1
  K  K3  1  0.91942140  0.91942140  0.91942140  1
  In  In0  1  0.32222940  0.79992620  0.89609958  1
  In  In1  1  0.89609958  0.32222940  0.79992620  1
  In  In2  1  0.79992620  0.89609958  0.32222940  1
  In  In3  1  0.67777060  0.20007380  0.10390042  1
  In  In4  1  0.10390042  0.67777060  0.20007380  1
  In  In5  1  0.20007380  0.10390042  0.67777060  1
  In  In6  1  0.82570292  0.30737184  0.39960920  1
  In  In7  1  0.39960920  0.82570292  0.30737184  1
  In  In8  1  0.30737184  0.39960920  0.82570292  1
  In  In9  1  0.17429708  0.69262816  0.60039080  1
  In  In10  1  0.60039080  0.17429708  0.69262816  1
  In  In11  1  0.69262816  0.60039080  0.17429708  1
  In  In12  1  0.63538681  0.60149365  0.90906532  1
  In  In13  1  0.90906532  0.63538681  0.60149365  1
  In  In14  1  0.60149365  0.90906532  0.63538681  1
  In  In15  1  0.36461319  0.39850635  0.09093468  1
  In  In16  1  0.09093468  0.36461319  0.39850635  1
  In  In17  1  0.39850635  0.09093468  0.36461319  1
  In  In18  1  0.49744006  0.89794819  0.96517678  1
  In  In19  1  0.96517678  0.49744006  0.89794819  1
  In  In20  1  0.89794819  0.96517678  0.49744006  1
  In  In21  1  0.50255994  0.10205181  0.03482322  1
  In  In22  1  0.03482322  0.50255994  0.10205181  1
  In  In23  1  0.10205181  0.03482322  0.50255994  1
  Se  Se0  1  0.25009198  0.25009198  0.25009198  1
  Se  Se1  1  0.74990802  0.74990802  0.74990802  1
  Se  Se2  1  0.10287152  0.22806773  0.80382038  1
  Se  Se3  1  0.80382038  0.10287152  0.22806773  1
  Se  Se4  1  0.22806773  0.80382038  0.10287152  1
  Se  Se5  1  0.89712848  0.77193227  0.19617962  1
  Se  Se6  1  0.19617962  0.89712848  0.77193227  1
  Se  Se7  1  0.77193227  0.19617962  0.89712848  1
  Se  Se8  1  0.61409862  0.73134919  0.28660174  1
  Se  Se9  1  0.28660174  0.61409862  0.73134919  1
  Se  Se10  1  0.73134919  0.28660174  0.61409862  1
  Se  Se11  1  0.38590138  0.26865081  0.71339826  1
  Se  Se12  1  0.71339826  0.38590138  0.26865081  1
  Se  Se13  1  0.26865081  0.71339826  0.38590138  1
  Se  Se14  1  0.61847957  0.84631873  0.49056295  1
  Se  Se15  1  0.49056295  0.61847957  0.84631873  1
  Se  Se16  1  0.84631873  0.49056295  0.61847957  1
  Se  Se17  1  0.38152043  0.15368127  0.50943705  1
  Se  Se18  1  0.50943705  0.38152043  0.15368127  1
  Se  Se19  1  0.15368127  0.50943705  0.38152043  1
  Se  Se20  1  0.11943649  0.34791428  0.00550973  1
  Se  Se21  1  0.00550973  0.11943649  0.34791428  1
  Se  Se22  1  0.34791428  0.00550973  0.11943649  1
  Se  Se23  1  0.88056351  0.65208572  0.99449027  1
  Se  Se24  1  0.99449027  0.88056351  0.65208572  1
  Se  Se25  1  0.65208572  0.99449027  0.88056351  1
  Se  Se26  1  0.41512781  0.96450302  0.80770355  1
  Se  Se27  1  0.80770355  0.41512781  0.96450302  1
  Se  Se28  1  0.96450302  0.80770355  0.41512781  1
  Se  Se29  1  0.58487219  0.03549698  0.19229645  1
  Se  Se30  1  0.19229645  0.58487219  0.03549698  1
  Se  Se31  1  0.03549698  0.19229645  0.58487219  1
  Se  Se32  1  0.91613141  0.46578386  0.32173668  1
  Se  Se33  1  0.32173668  0.91613141  0.46578386  1
  Se  Se34  1  0.46578386  0.32173668  0.91613141  1
  Se  Se35  1  0.08386859  0.53421614  0.67826332  1
  Se  Se36  1  0.67826332  0.08386859  0.53421614  1
  Se  Se37  1  0.53421614  0.67826332  0.08386859  1
loop_
_geom_bond_atom_site_label_1
_geom_bond_atom_site_label_2
_geom_bond_distance
_geom_bond_site_symmetry_2
K0 Se15 3.443846 1_555
K0 Se14 3.443846 1_555
K0 Se16 3.443846 1_555
K0 Se8 3.576114 1_555
K0 Se9 3.576114 1_555
K0 Se10 3.576114 1_555
K1 Se18 3.443846 1_555
K1 Se17 3.443846 1_555
K1 Se19 3.443846 1_555
K1 Se11 3.576114 1_555
K1 Se12 3.576114 1_555
K1 Se13 3.576114 1_555
K2 Se2 3.318152 1_554
K2 Se3 3.318152 1_455
K2 Se4 3.318152 1_545
K2 Se21 3.682902 1_555
K2 Se20 3.682902 1_555
K2 Se22 3.682902 1_555
K3 Se5 3.318152 1_556
K3 Se6 3.318152 1_655
K3 Se7 3.318152 1_565
K3 Se24 3.682902 1_555
K3 Se23 3.682902 1_555
K3 Se25 3.682902 1_555
In0 Se6 2.562702 1_555
In0 Se4 2.564272 1_556
In0 Se15 2.593872 1_555
In0 Se26 2.720840 1_555
In1 Se7 2.562702 1_555
In1 Se2 2.564272 1_655
In1 Se16 2.593872 1_555
In1 Se27 2.720840 1_555
In2 Se5 2.562702 1_555
In2 Se3 2.564272 1_565
In2 Se14 2.593872 1_555
In2 Se28 2.720840 1_555
In3 Se3 2.562702 1_555
In3 Se7 2.564272 1_554
In3 Se18 2.593872 1_555
In3 Se29 2.720840 1_555
In4 Se4 2.562702 1_555
In4 Se5 2.564272 1_455
In4 Se19 2.593872 1_555
In4 Se30 2.720840 1_555
In5 Se2 2.562702 1_555
In5 Se6 2.564272 1_545
In5 Se17 2.593872 1_555
In5 Se31 2.720840 1_555
In6 Se12 2.548430 1_555
In6 Se10 2.557379 1_555
In6 Se32 2.656724 1_555
In6 Se21 2.708898 1_655
In7 Se13 2.548430 1_555
In7 Se8 2.557379 1_555
In7 Se33 2.656723 1_555
In7 Se22 2.708898 1_565
In8 Se11 2.548430 1_555
In8 Se9 2.557379 1_555
In8 Se34 2.656724 1_555
In8 Se20 2.708898 1_556
In9 Se9 2.548430 1_555
In9 Se13 2.557379 1_555
In9 Se35 2.656724 1_555
In9 Se24 2.708898 1_455
In10 Se10 2.548430 1_555
In10 Se11 2.557379 1_555
In10 Se36 2.656723 1_555
In10 Se25 2.708898 1_545
In11 Se8 2.548430 1_555
In11 Se12 2.557379 1_555
In11 Se37 2.656724 1_555
In11 Se23 2.708898 1_554
In12 Se15 2.535831 1_555
In12 Se27 2.618521 1_555
In12 Se37 2.658496 1_556
In12 Se1 2.672964 1_555
In13 Se16 2.535831 1_555
In13 Se28 2.618520 1_555
In13 Se35 2.658497 1_655
In13 Se1 2.672964 1_555
In14 Se14 2.535831 1_555
In14 Se26 2.618520 1_555
In14 Se36 2.658497 1_565
In14 Se1 2.672964 1_555
In15 Se18 2.535831 1_555
In15 Se30 2.618521 1_555
In15 Se34 2.658496 1_554
In15 Se0 2.672964 1_555
In16 Se19 2.535831 1_555
In16 Se31 2.618520 1_555
In16 Se32 2.658497 1_455
In16 Se0 2.672964 1_555
In17 Se17 2.535831 1_555
In17 Se29 2.618520 1_555
In17 Se33 2.658497 1_545
In17 Se0 2.672964 1_555
In18 Se37 2.596710 1_556
In18 Se26 2.610220 1_555
In18 Se25 2.646129 1_555
In18 Se22 2.659442 1_566
In19 Se35 2.596710 1_655
In19 Se27 2.610220 1_555
In19 Se23 2.646129 1_555
In19 Se20 2.659442 1_656
In20 Se36 2.596711 1_565
In20 Se28 2.610220 1_555
In20 Se24 2.646129 1_555
In20 Se21 2.659442 1_665
In21 Se34 2.596710 1_554
In21 Se29 2.610220 1_555
In21 Se22 2.646129 1_555
In21 Se25 2.659442 1_544
In22 Se32 2.596710 1_455
In22 Se30 2.610220 1_555
In22 Se20 2.646129 1_555
In22 Se23 2.659442 1_454
In23 Se33 2.596711 1_545
In23 Se31 2.610220 1_555
In23 Se21 2.646129 1_555
In23 Se24 2.659442 1_445
