# generated using pymatgen
data_VPO4
_symmetry_space_group_name_H-M   'P 1'
_cell_length_a   4.94531300
_cell_length_b   5.93044400
_cell_length_c   10.04091800
_cell_angle_alpha   90.00000000
_cell_angle_beta   90.00000000
_cell_angle_gamma   90.00000000
_symmetry_Int_Tables_number   1
_chemical_formula_structural   VPO4
_chemical_formula_sum   'V4 P4 O16'
_cell_volume   294.47905718
_cell_formula_units_Z   4
loop_
 _symmetry_equiv_pos_site_id
 _symmetry_equiv_pos_as_xyz
  1  'x, y, z'
loop_
 _atom_site_type_symbol
 _atom_site_label
 _atom_site_symmetry_multiplicity
 _atom_site_fract_x
 _atom_site_fract_y
 _atom_site_fract_z
 _atom_site_occupancy
  V  V0  1  0.51532900  0.75000000  0.26810200  1
  V  V1  1  0.98467100  0.75000000  0.76810200  1
  V  V2  1  0.48467100  0.25000000  0.73189800  1
  V  V3  1  0.01532900  0.25000000  0.23189800  1
  P  P0  1  0.08098900  0.75000000  0.09682400  1
  P  P1  1  0.41901100  0.75000000  0.59682400  1
  P  P2  1  0.91901100  0.25000000  0.90317600  1
  P  P3  1  0.58098900  0.25000000  0.40317600  1
  O  O0  1  0.22146100  0.25000000  0.87750300  1
  O  O1  1  0.72821900  0.45217900  0.32910800  1
  O  O2  1  0.22821900  0.54782100  0.17089200  1
  O  O3  1  0.27178100  0.95217900  0.67089200  1
  O  O4  1  0.77178100  0.04782100  0.82910800  1
  O  O5  1  0.27178100  0.54782100  0.67089200  1
  O  O6  1  0.77178100  0.45217900  0.82910800  1
  O  O7  1  0.72821900  0.04782100  0.32910800  1
  O  O8  1  0.77853900  0.75000000  0.12249700  1
  O  O9  1  0.27853900  0.25000000  0.37750300  1
  O  O10  1  0.22821900  0.95217900  0.17089200  1
  O  O11  1  0.72146100  0.75000000  0.62249700  1
  O  O12  1  0.14470800  0.75000000  0.94848500  1
  O  O13  1  0.85529200  0.25000000  0.05151500  1
  O  O14  1  0.64470800  0.25000000  0.55151500  1
  O  O15  1  0.35529200  0.75000000  0.44848500  1
loop_
_geom_bond_atom_site_label_1
_geom_bond_atom_site_label_2
_geom_bond_distance
_geom_bond_site_symmetry_2
O0 P2 1.517761 1_455
O0 V2 1.957492 1_555
O1 P3 1.587722 1_555
O1 V3 2.099125 1_655
O1 V0 2.145491 1_555
O2 P0 1.587722 1_555
O2 V0 2.099125 1_555
O2 V3 2.145491 1_555
O3 P1 1.587722 1_555
O3 V1 2.099125 1_455
O3 V2 2.145491 1_565
O4 P2 1.587722 1_555
O4 V2 2.099125 1_555
O4 V1 2.145491 1_545
O5 P1 1.587722 1_555
O5 V1 2.099125 1_455
O5 V2 2.145491 1_555
O6 P2 1.587722 1_555
O6 V2 2.099125 1_555
O6 V1 2.145491 1_555
O7 P3 1.587722 1_555
O7 V3 2.099125 1_655
O7 V0 2.145491 1_545
O8 P0 1.517761 1_655
O8 V0 1.957492 1_555
O9 P3 1.517761 1_555
O9 V3 1.957492 1_555
O10 P0 1.587722 1_555
O10 V0 2.099125 1_555
O10 V3 2.145491 1_565
O11 P1 1.517761 1_555
O11 V1 1.957492 1_555
O12 P0 1.522427 1_556
O12 V1 1.976576 1_455
O13 P2 1.522427 1_554
O13 V3 1.976576 1_655
O14 P3 1.522427 1_555
O14 V2 1.976576 1_555
O15 P1 1.522427 1_555
O15 V0 1.976576 1_555
