# generated using pymatgen
data_MgTi6(N2O3)2
_symmetry_space_group_name_H-M   'P 1'
_cell_length_a   4.01465600
_cell_length_b   5.28283789
_cell_length_c   9.88457590
_cell_angle_alpha   92.68173261
_cell_angle_beta   90.00000000
_cell_angle_gamma   112.33193092
_symmetry_Int_Tables_number   1
_chemical_formula_structural   MgTi6(N2O3)2
_chemical_formula_sum   'Mg1 Ti6 N4 O6'
_cell_volume   193.66815755
_cell_formula_units_Z   1
loop_
 _symmetry_equiv_pos_site_id
 _symmetry_equiv_pos_as_xyz
  1  'x, y, z'
loop_
 _atom_site_type_symbol
 _atom_site_label
 _atom_site_symmetry_multiplicity
 _atom_site_fract_x
 _atom_site_fract_y
 _atom_site_fract_z
 _atom_site_occupancy
  Mg  Mg0  1  0.50000000  0.00000000  0.00000000  1
  Ti  Ti0  1  0.19436500  0.38873000  0.24914300  1
  Ti  Ti1  1  0.17381300  0.34762700  0.92184000  1
  Ti  Ti2  1  0.14825600  0.29651300  0.54465700  1
  Ti  Ti3  1  0.80563500  0.61127000  0.75085700  1
  Ti  Ti4  1  0.82618700  0.65237300  0.07816000  1
  Ti  Ti5  1  0.85174400  0.70348700  0.45534300  1
  N  N0  1  0.30757900  0.61516000  0.42410400  1
  N  N1  1  0.31517000  0.63034100  0.08011800  1
  N  N2  1  0.69242100  0.38484000  0.57589600  1
  N  N3  1  0.68483000  0.36965900  0.91988200  1
  O  O0  1  0.27514200  0.55028400  0.75102900  1
  O  O1  1  0.03806000  0.07611900  0.11397000  1
  O  O2  1  0.04023900  0.08047500  0.38051700  1
  O  O3  1  0.96194000  0.92388100  0.88603000  1
  O  O4  1  0.72485800  0.44971600  0.24897100  1
  O  O5  1  0.95976100  0.91952500  0.61948300  1
loop_
_geom_bond_atom_site_label_1
_geom_bond_atom_site_label_2
_geom_bond_distance
_geom_bond_site_symmetry_2
Mg0 N3 2.008703 1_554
Mg0 N1 2.008703 1_545
Mg0 O1 2.322591 1_555
Mg0 O3 2.322591 1_544
Mg0 O1 2.322594 1_655
Mg0 O3 2.322594 1_444
N0 Ti0 2.005389 1_555
N0 Ti2 2.008041 1_555
N0 Ti5 2.073042 1_455
N0 Ti5 2.073053 1_555
N1 Ti4 2.010355 1_455
N1 Ti4 2.010363 1_555
N1 Ti1 2.034115 1_554
N1 Ti0 2.094011 1_555
N2 Ti3 2.005389 1_555
N2 Ti5 2.008041 1_555
N2 Ti2 2.073042 1_655
N2 Ti2 2.073053 1_555
N3 Ti1 2.010355 1_655
N3 Ti1 2.010363 1_555
N3 Ti4 2.034115 1_556
N3 Ti3 2.094011 1_555
O0 Ti1 2.000133 1_555
O0 Ti3 2.029343 1_555
O0 Ti3 2.029343 1_455
O0 Ti2 2.333042 1_555
O1 Ti0 1.977965 1_555
O1 Ti4 2.082997 1_445
O1 Ti1 2.371044 1_554
O2 Ti2 1.890390 1_555
O2 Ti5 2.019546 1_445
O2 Ti0 2.037939 1_555
O3 Ti3 1.977965 1_555
O3 Ti1 2.082997 1_665
O3 Ti4 2.371044 1_556
O4 Ti4 2.000133 1_555
O4 Ti0 2.029343 1_555
O4 Ti0 2.029343 1_655
O4 Ti5 2.333042 1_555
O5 Ti5 1.890390 1_555
O5 Ti2 2.019546 1_665
O5 Ti3 2.037939 1_555
