# generated using pymatgen
data_Co2P2O7
_symmetry_space_group_name_H-M   'P 1'
_cell_length_a   8.31521656
_cell_length_b   7.00181644
_cell_length_c   8.97598847
_cell_angle_alpha   66.69733462
_cell_angle_beta   90.00000000
_cell_angle_gamma   90.00000000
_symmetry_Int_Tables_number   1
_chemical_formula_structural   Co2P2O7
_chemical_formula_sum   'Co8 P8 O28'
_cell_volume   479.96733034
_cell_formula_units_Z   4
loop_
 _symmetry_equiv_pos_site_id
 _symmetry_equiv_pos_as_xyz
  1  'x, y, z'
loop_
 _atom_site_type_symbol
 _atom_site_label
 _atom_site_symmetry_multiplicity
 _atom_site_fract_x
 _atom_site_fract_y
 _atom_site_fract_z
 _atom_site_occupancy
  Co  Co0  1  0.93573255  0.30298517  0.31689508  1
  Co  Co1  1  0.43573255  0.69701483  0.18310492  1
  Co  Co2  1  0.06426745  0.69701483  0.68310492  1
  Co  Co3  1  0.56426745  0.30298517  0.81689508  1
  Co  Co4  1  0.42740420  0.76746054  0.60760682  1
  Co  Co5  1  0.92740420  0.23253946  0.89239318  1
  Co  Co6  1  0.57259580  0.23253946  0.39239318  1
  Co  Co7  1  0.07259580  0.76746054  0.10760682  1
  P  P0  1  0.27696113  0.46547939  0.96759045  1
  P  P1  1  0.77696113  0.53452061  0.53240955  1
  P  P2  1  0.72303887  0.53452061  0.03240955  1
  P  P3  1  0.22303887  0.46547939  0.46759045  1
  P  P4  1  0.26793444  0.06279814  0.25802684  1
  P  P5  1  0.76793444  0.93720186  0.24197316  1
  P  P6  1  0.73206556  0.93720186  0.74197316  1
  P  P7  1  0.23206556  0.06279814  0.75802684  1
  O  O0  1  0.11355755  0.44142354  0.89908394  1
  O  O1  1  0.61355755  0.55857646  0.60091606  1
  O  O2  1  0.88644245  0.55857646  0.10091606  1
  O  O3  1  0.38644245  0.44142354  0.39908394  1
  O  O4  1  0.41097897  0.51795656  0.84277936  1
  O  O5  1  0.91097897  0.48204344  0.65722064  1
  O  O6  1  0.58902103  0.48204344  0.15722064  1
  O  O7  1  0.08902103  0.51795656  0.34277936  1
  O  O8  1  0.11047674  0.12059409  0.30890748  1
  O  O9  1  0.61047674  0.87940591  0.19109252  1
  O  O10  1  0.88952326  0.87940591  0.69109252  1
  O  O11  1  0.38952326  0.12059409  0.80890748  1
  O  O12  1  0.40200355  0.02340972  0.38215569  1
  O  O13  1  0.90200355  0.97659028  0.11784431  1
  O  O14  1  0.59799645  0.97659028  0.61784431  1
  O  O15  1  0.09799645  0.02340972  0.88215569  1
  O  O16  1  0.16780202  0.24981166  0.60001668  1
  O  O17  1  0.66780202  0.75018834  0.89998332  1
  O  O18  1  0.83219798  0.75018834  0.39998332  1
  O  O19  1  0.33219798  0.24981166  0.10001668  1
  O  O20  1  0.23340840  0.62040099  0.54838012  1
  O  O21  1  0.73340840  0.37959901  0.95161988  1
  O  O22  1  0.76659160  0.37959901  0.45161988  1
  O  O23  1  0.26659160  0.62040099  0.04838012  1
  O  O24  1  0.24393237  0.88262871  0.70333835  1
  O  O25  1  0.74393237  0.11737129  0.79666165  1
  O  O26  1  0.75606763  0.11737129  0.29666165  1
  O  O27  1  0.25606763  0.88262871  0.20333835  1
loop_
_geom_bond_atom_site_label_1
_geom_bond_atom_site_label_2
_geom_bond_distance
_geom_bond_site_symmetry_2
Co0 O8 1.954431 1_655
Co0 O26 2.034864 1_555
Co0 O7 2.054491 1_655
Co0 O22 2.059482 1_555
Co0 O2 2.093812 1_555
Co1 O9 1.954431 1_555
Co1 O27 2.034864 1_555
Co1 O6 2.054491 1_555
Co1 O23 2.059482 1_555
Co1 O3 2.093812 1_555
Co2 O10 1.954431 1_455
Co2 O24 2.034864 1_555
Co2 O5 2.054491 1_455
Co2 O20 2.059482 1_555
Co2 O0 2.093812 1_555
Co3 O11 1.954431 1_555
Co3 O25 2.034864 1_555
Co3 O4 2.054491 1_555
Co3 O21 2.059482 1_555
Co3 O1 2.093812 1_555
Co4 O24 2.065025 1_555
Co4 O14 2.066692 1_555
Co4 O20 2.092392 1_555
Co4 O12 2.117105 1_565
Co4 O1 2.146676 1_555
Co4 O4 2.146832 1_555
Co5 O25 2.065025 1_555
Co5 O15 2.066692 1_655
Co5 O21 2.092392 1_555
Co5 O13 2.117105 1_546
Co5 O0 2.146676 1_655
Co5 O5 2.146832 1_555
Co6 O26 2.065025 1_555
Co6 O12 2.066692 1_555
Co6 O22 2.092392 1_555
Co6 O14 2.117105 1_545
Co6 O3 2.146676 1_555
Co6 O6 2.146832 1_555
Co7 O27 2.065025 1_555
Co7 O13 2.066692 1_455
Co7 O23 2.092392 1_555
Co7 O15 2.117105 1_564
Co7 O2 2.146676 1_455
Co7 O7 2.146832 1_555
O0 P0 1.527939 1_555
O1 P1 1.527939 1_555
O2 P2 1.527939 1_555
O3 P3 1.527939 1_555
O4 P0 1.518640 1_555
O5 P1 1.518640 1_555
O6 P2 1.518640 1_555
O7 P3 1.518640 1_555
O8 P4 1.494262 1_555
O9 P5 1.494262 1_555
O10 P6 1.494262 1_555
O11 P7 1.494262 1_555
O12 P4 1.522220 1_555
O13 P5 1.522220 1_555
O14 P6 1.522220 1_555
O15 P7 1.522220 1_555
O16 P3 1.576085 1_555
O16 P7 1.594486 1_555
O17 P2 1.576085 1_556
O17 P6 1.594486 1_555
O18 P1 1.576085 1_555
O18 P5 1.594486 1_555
O19 P0 1.576085 1_554
O19 P4 1.594486 1_555
O20 P3 1.527186 1_555
O21 P2 1.527186 1_556
O22 P1 1.527186 1_555
O23 P0 1.527186 1_554
O24 P7 1.527108 1_565
O25 P6 1.527108 1_545
O26 P5 1.527108 1_545
O27 P4 1.527108 1_565
