# generated using pymatgen
data_Sr4MgMn4O10
_symmetry_space_group_name_H-M   'P 1'
_cell_length_a   5.59581198
_cell_length_b   5.60630187
_cell_length_c   9.39467581
_cell_angle_alpha   106.79700938
_cell_angle_beta   106.76962403
_cell_angle_gamma   91.80314805
_symmetry_Int_Tables_number   1
_chemical_formula_structural   Sr4MgMn4O10
_chemical_formula_sum   'Sr4 Mg1 Mn4 O10'
_cell_volume   268.02526953
_cell_formula_units_Z   1
loop_
 _symmetry_equiv_pos_site_id
 _symmetry_equiv_pos_as_xyz
  1  'x, y, z'
loop_
 _atom_site_type_symbol
 _atom_site_label
 _atom_site_symmetry_multiplicity
 _atom_site_fract_x
 _atom_site_fract_y
 _atom_site_fract_z
 _atom_site_occupancy
  Sr  Sr0  1  0.62696500  0.11999700  0.20858000  1
  Sr  Sr1  1  0.41691600  0.90412500  0.79839200  1
  Sr  Sr2  1  0.11854800  0.60574600  0.20162100  1
  Sr  Sr3  1  0.91817700  0.41165600  0.79140300  1
  Mg  Mg0  1  0.98437500  0.57696000  0.50008600  1
  Mn  Mn0  1  0.03014800  0.00873700  0.01462000  1
  Mn  Mn1  1  0.51535300  0.49398300  0.98513300  1
  Mn  Mn2  1  0.20293400  0.14137300  0.50006200  1
  Mn  Mn3  1  0.65866200  0.88831500  0.50004500  1
  O  O0  1  0.27533900  0.25693100  0.00748200  1
  O  O1  1  0.27767800  0.75384800  0.00546900  1
  O  O2  1  0.77216100  0.24851200  0.99442400  1
  O  O3  1  0.76787000  0.74962000  0.99242500  1
  O  O4  1  0.15303000  0.11924700  0.27771200  1
  O  O5  1  0.91514600  0.80947700  0.68626700  1
  O  O6  1  0.72892800  0.62328300  0.31390400  1
  O  O7  1  0.37549600  0.34239100  0.72224800  1
  O  O8  1  0.85336300  0.23029100  0.50005800  1
  O  O9  1  0.29643400  0.78693600  0.50007100  1
loop_
_geom_bond_atom_site_label_1
_geom_bond_atom_site_label_2
_geom_bond_distance
_geom_bond_site_symmetry_2
Mg0 O6 2.003317 1_555
Mg0 O5 2.003426 1_555
Mg0 O8 2.055408 1_555
Mg0 O9 2.075077 1_655
Mn0 O0 1.951925 1_555
Mn0 O3 1.954985 1_444
Mn0 O2 2.009628 1_454
Mn0 O1 2.022437 1_545
Mn0 O4 2.252376 1_555
Mn1 O3 1.953284 1_555
Mn1 O0 1.955965 1_556
Mn1 O1 2.008869 1_556
Mn1 O2 2.021908 1_555
Mn1 O7 2.250326 1_555
Mn2 O4 1.992071 1_555
Mn2 O7 1.992083 1_555
Mn2 O8 2.033789 1_455
Mn2 O9 2.070685 1_545
Mn3 O6 2.086195 1_555
Mn3 O5 2.086599 1_555
Mn3 O9 2.087934 1_555
Mn3 O8 2.175110 1_565
O0 Sr0 2.611212 1_555
O0 Sr2 2.624972 1_555
O0 Sr1 2.673860 1_544
O0 Sr3 2.766479 1_454
O1 Sr2 2.581255 1_555
O1 Sr1 2.623394 1_554
O1 Sr3 2.639030 1_454
O1 Sr0 2.646992 1_565
O2 Sr1 2.581070 1_545
O2 Sr2 2.623449 1_656
O2 Sr0 2.640331 1_556
O2 Sr3 2.646232 1_555
O3 Sr3 2.610130 1_555
O3 Sr1 2.623710 1_555
O3 Sr2 2.674736 1_656
O3 Sr0 2.765322 1_566
O4 Sr2 2.744450 1_545
O4 Sr0 2.826068 1_455
O4 Sr0 2.906891 1_555
O4 Sr2 3.011258 1_555
O5 Sr1 2.674215 1_655
O5 Sr3 2.686271 1_555
O5 Sr1 3.260192 1_555
O6 Sr2 2.675168 1_655
O6 Sr0 2.687971 1_555
O6 Sr2 3.260119 1_555
O7 Sr1 2.749285 1_545
O7 Sr3 2.828049 1_455
O7 Sr3 2.904510 1_555
O7 Sr1 3.006587 1_555
O8 Sr3 2.540182 1_555
O8 Sr0 2.540877 1_555
O9 Sr1 2.560953 1_555
O9 Sr2 2.562018 1_555
