# generated using pymatgen
data_Na14Y4Ta4Si11SO48
_symmetry_space_group_name_H-M   'P 1'
_cell_length_a   18.58856531
_cell_length_b   9.29230193
_cell_length_c   22.89526407
_cell_angle_alpha   89.92975235
_cell_angle_beta   90.00448269
_cell_angle_gamma   119.97901833
_symmetry_Int_Tables_number   1
_chemical_formula_structural   Na14Y4Ta4Si11SO48
_chemical_formula_sum   'Na42 Y12 Ta12 Si33 S3 O144'
_cell_volume   3425.60154286
_cell_formula_units_Z   3
loop_
 _symmetry_equiv_pos_site_id
 _symmetry_equiv_pos_as_xyz
  1  'x, y, z'
loop_
 _atom_site_type_symbol
 _atom_site_label
 _atom_site_symmetry_multiplicity
 _atom_site_fract_x
 _atom_site_fract_y
 _atom_site_fract_z
 _atom_site_occupancy
  Na  Na0  1  0.32527850  0.99957889  0.24998108  1
  Na  Na1  1  0.82604242  0.00037501  0.24987758  1
  Na  Na2  1  0.32380528  0.63940941  0.74916520  1
  Na  Na3  1  0.82371744  0.64554209  0.74862268  1
  Na  Na4  1  0.49331403  0.35904813  0.74822535  1
  Na  Na5  1  0.68007206  0.00571398  0.75110483  1
  Na  Na6  1  0.15043917  0.32519077  0.58101490  1
  Na  Na7  1  0.65374309  0.32866847  0.58163547  1
  Na  Na8  1  0.01398931  0.70451716  0.58459426  1
  Na  Na9  1  0.51033990  0.68844182  0.58297083  1
  Na  Na10  1  0.33124397  0.98029309  0.58276018  1
  Na  Na11  1  0.84011397  0.97437390  0.58551476  1
  Na  Na12  1  0.14582343  0.95622073  0.07966539  1
  Na  Na13  1  0.64573758  0.95624636  0.07925996  1
  Na  Na14  1  0.33250093  0.71136381  0.08359844  1
  Na  Na15  1  0.83262671  0.71123497  0.08413987  1
  Na  Na16  1  0.02360383  0.33562188  0.08362436  1
  Na  Na17  1  0.52326671  0.33513095  0.08373786  1
  Na  Na18  1  0.48577362  0.68007644  0.91466185  1
  Na  Na19  1  0.98641871  0.67646769  0.91498909  1
  Na  Na20  1  0.35406254  0.02621350  0.91504402  1
  Na  Na21  1  0.85331458  0.02866298  0.91500914  1
  Na  Na22  1  0.16071877  0.29911919  0.91955098  1
  Na  Na23  1  0.66054256  0.29384193  0.91594124  1
  Na  Na24  1  0.47632053  0.28781200  0.41549503  1
  Na  Na25  1  0.97778522  0.29010994  0.41649968  1
  Na  Na26  1  0.16784205  0.04393104  0.42176490  1
  Na  Na27  1  0.66721968  0.04296282  0.41963650  1
  Na  Na28  1  0.35507616  0.66487114  0.41584880  1
  Na  Na29  1  0.85635749  0.66450498  0.41626028  1
  Na  Na30  1  0.00158936  0.99970740  0.50063088  1
  Na  Na31  1  0.49885780  0.99883732  0.49552276  1
  Na  Na32  1  0.00012695  0.00171633  0.00020488  1
  Na  Na33  1  0.49971341  0.99966947  0.99935925  1
  Na  Na34  1  0.33456758  0.32499083  0.83001362  1
  Na  Na35  1  0.83975760  0.33464048  0.83196426  1
  Na  Na36  1  0.33845581  0.34926867  0.33515581  1
  Na  Na37  1  0.83940572  0.35096360  0.33461701  1
  Na  Na38  1  0.16391404  0.64991158  0.16567244  1
  Na  Na39  1  0.66391329  0.64994818  0.16549212  1
  Na  Na40  1  0.16310008  0.67835941  0.66840987  1
  Na  Na41  1  0.66712948  0.66707359  0.66712215  1
  Y  Y0  1  0.99505782  0.99573134  0.35038234  1
  Y  Y1  1  0.49460051  0.99517767  0.34991693  1
  Y  Y2  1  0.99487349  0.99213944  0.84695701  1
  Y  Y3  1  0.50205532  0.00324122  0.84862896  1
  Y  Y4  1  0.99871229  0.99143828  0.65288131  1
  Y  Y5  1  0.99708241  0.00475851  0.14933405  1
  Y  Y6  1  0.49691754  0.00465273  0.14909869  1
  Y  Y7  1  0.33198321  0.32522877  0.67881353  1
  Y  Y8  1  0.33612741  0.33614678  0.48252476  1
  Y  Y9  1  0.83238270  0.32974119  0.48116037  1
  Y  Y10  1  0.16701010  0.66662644  0.01997148  1
  Y  Y11  1  0.66764819  0.66649739  0.02074209  1
  Ta  Ta0  1  0.49864348  0.99826990  0.65108420  1
  Ta  Ta1  1  0.83613168  0.33555474  0.68330376  1
  Ta  Ta2  1  0.33836887  0.34705707  0.18517878  1
  Ta  Ta3  1  0.83864898  0.34757588  0.18519032  1
  Ta  Ta4  1  0.33360567  0.33483657  0.97863083  1
  Ta  Ta5  1  0.83339012  0.33298011  0.97864282  1
  Ta  Ta6  1  0.16534043  0.66708566  0.51906053  1
  Ta  Ta7  1  0.66762217  0.66622838  0.52003211  1
  Ta  Ta8  1  0.16498663  0.65233487  0.31503550  1
  Ta  Ta9  1  0.66479165  0.65274177  0.31457066  1
  Ta  Ta10  1  0.16685605  0.67695705  0.81846537  1
  Ta  Ta11  1  0.66608836  0.66853464  0.81582660  1
  Si  Si0  1  0.34534977  0.69205523  0.25028522  1
  Si  Si1  1  0.84550360  0.69233523  0.25032410  1
  Si  Si2  1  0.99945785  0.30799704  0.24972817  1
  Si  Si3  1  0.49921961  0.30767015  0.24963685  1
  Si  Si4  1  0.65088519  0.30224780  0.74878032  1
  Si  Si5  1  0.00154537  0.68820502  0.74967535  1
  Si  Si6  1  0.50038799  0.70008488  0.75148678  1
  Si  Si7  1  0.34765405  0.99476481  0.75217660  1
  Si  Si8  1  0.84569363  0.00154675  0.75020440  1
  Si  Si9  1  0.48657549  0.33162732  0.58320877  1
  Si  Si10  1  0.98307922  0.33638346  0.58181451  1
  Si  Si11  1  0.18184704  0.02951668  0.57869686  1
  Si  Si12  1  0.68357961  0.03497442  0.58449817  1
  Si  Si13  1  0.33335681  0.63911985  0.58412775  1
  Si  Si14  1  0.83170740  0.62748999  0.58191604  1
  Si  Si15  1  0.47660447  0.62170783  0.08167868  1
  Si  Si16  1  0.97651594  0.62173097  0.08140007  1
  Si  Si17  1  0.33326355  0.05245724  0.08443150  1
  Si  Si18  1  0.83338691  0.05219942  0.08476809  1
  Si  Si19  1  0.19126258  0.32983177  0.08336550  1
  Si  Si20  1  0.69143786  0.32946044  0.08335328  1
  Si  Si21  1  0.31304844  0.66177653  0.91712746  1
  Si  Si22  1  0.81257955  0.66077241  0.91722603  1
  Si  Si23  1  0.01902929  0.37386052  0.91836089  1
  Si  Si24  1  0.51800029  0.37560743  0.91795838  1
  Si  Si25  1  0.16917767  0.96805551  0.91886163  1
  Si  Si26  1  0.66935228  0.96465032  0.91895217  1
  Si  Si27  1  0.30772009  0.95061410  0.41479323  1
  Si  Si28  1  0.80763006  0.94867474  0.41518991  1
  Si  Si29  1  0.16648853  0.37767176  0.41881656  1
  Si  Si30  1  0.66616549  0.37770303  0.41764014  1
  Si  Si31  1  0.02466485  0.66806163  0.41557521  1
  Si  Si32  1  0.52642228  0.67023729  0.41690653  1
  S  S0  1  0.15368588  -0.00005640  0.24984843  1
  S  S1  1  0.65366232  0.00001063  0.24999131  1
  S  S2  1  0.15206558  0.31192406  0.75226205  1
  O  O0  1  0.11532127  0.02451052  0.30226007  1
  O  O1  1  0.61527181  0.02424819  0.30255103  1
  O  O2  1  0.40075373  0.76661030  0.30886013  1
  O  O3  1  0.90070231  0.76693008  0.30879220  1
  O  O4  1  0.47859093  0.18802081  0.30666083  1
  O  O5  1  0.97808072  0.18776053  0.30657500  1
  O  O6  1  0.11134155  0.21031596  0.80417059  1
  O  O7  1  0.62059235  0.19306755  0.80722257  1
  O  O8  1  0.48677991  0.77792533  0.80966197  1
  O  O9  1  0.97775534  0.76028276  0.80641003  1
  O  O10  1  0.40214279  0.02559686  0.80989584  1
  O  O11  1  0.89880370  0.03535969  0.80899983  1
  O  O12  1  0.40230279  0.97262938  0.69607345  1
  O  O13  1  0.88174848  0.95363756  0.69389142  1
  O  O14  1  0.10435466  0.23480416  0.69887223  1
  O  O15  1  0.58428142  0.19756194  0.69507160  1
  O  O16  1  0.01827818  0.79697790  0.69123792  1
  O  O17  1  0.51324514  0.83050539  0.69563867  1
  O  O18  1  0.38475976  0.81255849  0.19360220  1
  O  O19  1  0.88443219  0.81228713  0.19344180  1
  O  O20  1  0.01711115  0.23263158  0.19124201  1
  O  O21  1  0.51740058  0.23287999  0.19127316  1
  O  O22  1  0.10312068  0.97562816  0.19742557  1
  O  O23  1  0.60301519  0.97547221  0.19769213  1
  O  O24  1  0.45099028  0.37992800  0.63960047  1
  O  O25  1  0.92789694  0.36067033  0.63568586  1
  O  O26  1  0.24478712  0.10389001  0.63330565  1
  O  O27  1  0.74843565  0.13550379  0.63857926  1
  O  O28  1  0.31060505  0.52295822  0.64142206  1
  O  O29  1  0.81834985  0.50005275  0.63797315  1
  O  O30  1  0.42475117  0.50357741  0.13852588  1
  O  O31  1  0.92474866  0.50380430  0.13831837  1
  O  O32  1  0.32644829  0.15131252  0.14202451  1
  O  O33  1  0.82661766  0.15163030  0.14211334  1
  O  O34  1  0.25086845  0.34212543  0.13835867  1
  O  O35  1  0.75102365  0.34204380  0.13833029  1
  O  O36  1  0.24021317  0.31676537  0.02330780  1
  O  O37  1  0.74072927  0.31689974  0.02323371  1
  O  O38  1  0.41819462  0.52151293  0.02361341  1
  O  O39  1  0.91814782  0.52103401  0.02320542  1
  O  O40  1  0.34124272  0.16781040  0.02535322  1
  O  O41  1  0.84117713  0.16724847  0.02543421  1
  O  O42  1  0.22137676  0.14434674  0.52111295  1
  O  O43  1  0.71377578  0.14431238  0.52558727  1
  O  O44  1  0.35957154  0.56953341  0.52785953  1
  O  O45  1  0.84730237  0.55127519  0.52369665  1
  O  O46  1  0.42824822  0.28342551  0.52601376  1
  O  O47  1  0.92751933  0.29513446  0.52367247  1
  O  O48  1  0.27545710  0.69601327  0.97512134  1
  O  O49  1  0.77633600  0.69684811  0.97516755  1
  O  O50  1  0.07105054  0.44354002  0.97766286  1
  O  O51  1  0.57278387  0.45124179  0.97556603  1
  O  O52  1  0.14840842  0.85591479  0.97638754  1
  O  O53  1  0.65283705  0.85597842  0.97679613  1
  O  O54  1  0.25688307  0.83439260  0.47261092  1
  O  O55  1  0.75853556  0.83567765  0.47487008  1
  O  O56  1  0.15707066  0.47470508  0.47688987  1
  O  O57  1  0.65996842  0.48169466  0.47509234  1
  O  O58  1  0.07998393  0.67854114  0.47440463  1
  O  O59  1  0.58162570  0.68241279  0.47701199  1
  O  O60  1  0.07850591  0.65569028  0.36069530  1
  O  O61  1  0.57944635  0.65724615  0.36186061  1
  O  O62  1  0.25133706  0.85136301  0.35720621  1
  O  O63  1  0.75070364  0.84876003  0.35808095  1
  O  O64  1  0.17393232  0.49653291  0.36184651  1
  O  O65  1  0.67285372  0.49535970  0.36091533  1
  O  O66  1  0.07392347  0.50840817  0.86442901  1
  O  O67  1  0.56880646  0.50065906  0.85992033  1
  O  O68  1  0.18320429  0.86263588  0.86315803  1
  O  O69  1  0.67925695  0.85853870  0.86173993  1
  O  O70  1  0.24936360  0.63557655  0.86027972  1
  O  O71  1  0.74923007  0.63768233  0.85985632  1
  O  O72  1  0.02089512  0.83858314  0.41517567  1
  O  O73  1  0.52206312  0.84031848  0.41632063  1
  O  O74  1  0.39797584  0.96066744  0.41675267  1
  O  O75  1  0.89780973  0.96053826  0.41671341  1
  O  O76  1  0.08309699  0.19810740  0.41532242  1
  O  O77  1  0.58173077  0.19891007  0.41645551  1
  O  O78  1  0.00570732  0.18964579  0.90918576  1
  O  O79  1  0.50417474  0.19088174  0.91134358  1
  O  O80  1  0.09265922  0.99972773  0.90710993  1
  O  O81  1  0.59198649  0.99600123  0.91273475  1
  O  O82  1  0.40622909  0.81727241  0.91130293  1
  O  O83  1  0.90570685  0.81758315  0.91038965  1
  O  O84  1  0.49866215  0.16726034  0.59516694  1
  O  O85  1  0.99899956  0.18346897  0.59352406  1
  O  O86  1  0.08998408  0.00802117  0.58572886  1
  O  O87  1  0.58992800  0.00800931  0.59848655  1
  O  O88  1  0.41714927  0.82843060  0.59537693  1
  O  O89  1  0.90985156  0.81283774  0.58943912  1
  O  O90  1  0.48234673  0.80087085  0.08395033  1
  O  O91  1  0.98206336  0.80077614  0.08365265  1
  O  O92  1  0.41788309  0.04104441  0.08294942  1
  O  O93  1  0.91803220  0.04103623  0.08288087  1
  O  O94  1  0.10203081  0.15960319  0.08389715  1
  O  O95  1  0.60222512  0.15969215  0.08392174  1
  O  O96  1  0.34053379  0.15898324  0.74404005  1
  O  O97  1  0.82960181  0.16032898  0.73907322  1
  O  O98  1  0.23683611  0.33585391  0.74923420  1
  O  O99  1  0.74361597  0.32820921  0.73478714  1
  O  O100  1  0.42014315  0.51757662  0.74403343  1
  O  O101  1  0.91418769  0.50420104  0.73880185  1
  O  O102  1  0.33241750  0.50392960  0.23984265  1
  O  O103  1  0.83233390  0.50397184  0.23977716  1
  O  O104  1  0.41198025  0.31660238  0.24112284  1
  O  O105  1  0.91217563  0.31725313  0.24100262  1
  O  O106  1  0.23872572  0.14797440  0.24405951  1
  O  O107  1  0.73865469  0.14772511  0.24422136  1
  O  O108  1  0.31584626  0.48490765  0.92112104  1
  O  O109  1  0.81612049  0.48521940  0.92023826  1
  O  O110  1  0.42676083  0.36899232  0.92102502  1
  O  O111  1  0.92728885  0.36659167  0.92108055  1
  O  O112  1  0.25805509  0.14714211  0.92170116  1
  O  O113  1  0.75850546  0.14616928  0.92099959  1
  O  O114  1  0.31647144  0.13319239  0.41550426  1
  O  O115  1  0.81312858  0.12801064  0.41568356  1
  O  O116  1  0.25214029  0.37285167  0.41746549  1
  O  O117  1  0.75026185  0.36808003  0.41541481  1
  O  O118  1  0.43656828  0.50244118  0.41666266  1
  O  O119  1  0.93442877  0.50067044  0.41553679  1
  O  O120  1  0.18503755  0.49734333  0.08483764  1
  O  O121  1  0.68529533  0.49691463  0.08491812  1
  O  O122  1  0.06513629  0.63032078  0.08470085  1
  O  O123  1  0.56518321  0.62993198  0.08485709  1
  O  O124  1  0.24996106  0.87139230  0.08490554  1
  O  O125  1  0.75026272  0.87128469  0.08554985  1
  O  O126  1  0.17208138  0.84124741  0.57189716  1
  O  O127  1  0.67591744  0.84877516  0.57890901  1
  O  O128  1  0.25134118  0.66252583  0.57349777  1
  O  O129  1  0.74496348  0.63972202  0.57853131  1
  O  O130  1  0.07431238  0.51103571  0.57849052  1
  O  O131  1  0.57984857  0.49804317  0.57407916  1
  O  O132  1  0.16481918  0.85217719  0.25573754  1
  O  O133  1  0.66474019  0.85205072  0.25600023  1
  O  O134  1  0.25366801  0.68329466  0.25900869  1
  O  O135  1  0.75361714  0.68339751  0.25908166  1
  O  O136  1  0.08090400  0.49592556  0.26022426  1
  O  O137  1  0.58038298  0.49606038  0.26027411  1
  O  O138  1  0.15953892  0.47956187  0.75754875  1
  O  O139  1  0.65653677  0.48602092  0.75528256  1
  O  O140  1  0.08503385  0.67015026  0.76197934  1
  O  O141  1  0.58802009  0.69118242  0.75577781  1
  O  O142  1  0.25809325  0.81404293  0.75693842  1
  O  O143  1  0.75211605  0.83058317  0.76048263  1
loop_
_geom_bond_atom_site_label_1
_geom_bond_atom_site_label_2
_geom_bond_distance
_geom_bond_site_symmetry_2
Na0 O134 2.557583 1_555
Na0 O104 2.563322 1_565
Na0 O132 2.589748 1_555
Na0 O106 2.593268 1_565
Na0 O18 2.799074 1_555
Na0 O4 2.808880 1_565
Na0 O62 2.813044 1_555
Na0 O32 2.838757 1_565
Na1 O105 2.561667 1_555
Na1 O135 2.562848 1_545
Na1 O107 2.598568 1_555
Na1 O133 2.603686 1_545
Na1 O5 2.791288 1_555
Na1 O19 2.793538 1_545
Na1 O33 2.835415 1_555
Na1 O63 2.846675 1_545
Na2 O98 2.452104 1_555
Na2 O142 2.477637 1_555
Na2 O100 2.555153 1_555
Na2 O138 2.652096 1_555
Na2 O28 2.656575 1_555
Na2 O70 2.887744 1_555
Na2 O12 2.944500 1_555
Na2 O8 2.976526 1_555
Na3 O99 2.574279 1_555
Na3 O101 2.609944 1_555
Na3 O143 2.662711 1_555
Na3 O139 2.697020 1_555
Na3 O13 2.799151 1_555
Na3 O9 2.835119 1_555
Na3 O29 2.851156 1_555
Na3 O71 2.882243 1_555
Na4 O100 2.455847 1_555
Na4 O96 2.500954 1_555
Na4 O24 2.644391 1_555
Na4 O139 2.654556 1_555
Na4 O141 2.688071 1_555
Na4 O67 2.898758 1_555
Na4 O15 3.022031 1_555
Na4 O10 3.034542 1_555
Na5 O97 2.423668 1_555
Na5 O141 2.546171 1_545
Na5 O143 2.581656 1_545
Na5 O99 2.641023 1_555
Na5 O7 2.798835 1_555
Na5 O27 2.857973 1_555
Na5 O69 2.873594 1_545
Na5 O17 2.973019 1_545
Na6 O85 2.456653 1_455
Na6 O86 2.578765 1_555
Na6 O130 2.725810 1_555
Na6 O56 2.729381 1_555
Na6 O128 2.737976 1_555
Na6 O14 2.827766 1_555
Na6 O42 2.943480 1_555
Na6 O28 2.948177 1_555
Na7 O84 2.516695 1_555
Na7 O129 2.517186 1_555
Na7 O131 2.559997 1_555
Na7 O87 2.626653 1_555
Na7 O43 2.782579 1_555
Na7 O57 2.795142 1_555
Na7 O15 2.883974 1_555
Na7 O29 2.949066 1_555
Na8 O86 2.443101 1_565
Na8 O130 2.554341 1_555
Na8 O126 2.569557 1_555
Na8 O16 2.577358 1_555
Na8 O89 2.592329 1_455
Na8 O58 2.868046 1_555
Na8 O25 3.003222 1_455
Na8 O45 3.027714 1_455
Na9 O87 2.597121 1_565
Na9 O88 2.650761 1_555
Na9 O127 2.668058 1_555
Na9 O131 2.669559 1_555
Na9 O44 2.752372 1_555
Na9 O59 2.778366 1_555
Na9 O24 2.819060 1_555
Na9 O17 2.887349 1_555
Na10 O128 2.566816 1_555
Na10 O126 2.581670 1_555
Na10 O88 2.622146 1_555
Na10 O26 2.662560 1_565
Na10 O84 2.716942 1_565
Na10 O46 2.790915 1_565
Na10 O54 2.871184 1_555
Na10 O12 2.928037 1_555
Na11 O89 2.426088 1_555
Na11 O85 2.607224 1_565
Na11 O13 2.634494 1_555
Na11 O127 2.672304 1_555
Na11 O129 2.707135 1_555
Na11 O55 2.903814 1_555
Na11 O47 2.946000 1_565
Na11 O27 3.029325 1_565
Na12 O94 2.404512 1_565
Na12 O124 2.430550 1_555
Na12 O52 2.551952 1_554
Na12 O122 2.625600 1_555
Na12 O91 2.639434 1_455
Na12 O22 2.841906 1_555
Na13 O95 2.401695 1_565
Na13 O125 2.439638 1_555
Na13 O53 2.552885 1_554
Na13 O123 2.629536 1_555
Na13 O90 2.634013 1_555
Na13 O23 2.856278 1_555
Na14 O120 2.453902 1_555
Na14 O90 2.476927 1_555
Na14 O124 2.616573 1_555
Na14 O92 2.654242 1_565
Na14 O48 2.676256 1_554
Na14 O18 2.695106 1_555
Na15 O121 2.452772 1_555
Na15 O91 2.469585 1_555
Na15 O125 2.613928 1_555
Na15 O93 2.655306 1_565
Na15 O19 2.678297 1_555
Na15 O49 2.682934 1_554
Na16 O93 2.444639 1_455
Na16 O122 2.446017 1_555
Na16 O120 2.599504 1_555
Na16 O50 2.603753 1_554
Na16 O20 2.623024 1_555
Na16 O94 2.680213 1_555
Na17 O92 2.440465 1_555
Na17 O123 2.445209 1_555
Na17 O121 2.609073 1_555
Na17 O21 2.620519 1_555
Na17 O51 2.673261 1_554
Na17 O95 2.683854 1_555
Na18 O82 2.387697 1_555
Na18 O110 2.531927 1_555
Na18 O8 2.565918 1_555
Na18 O81 2.593354 1_555
Na18 O108 2.750062 1_555
Na18 O38 2.848359 1_556
Na19 O83 2.438699 1_555
Na19 O111 2.520907 1_555
Na19 O9 2.633055 1_555
Na19 O80 2.650652 1_655
Na19 O109 2.751560 1_555
Na19 O39 2.827588 1_556
Na19 O52 2.968310 1_655
Na19 O66 2.994640 1_655
Na20 O79 2.422281 1_555
Na20 O112 2.544698 1_555
Na20 O82 2.568889 1_545
Na20 O10 2.569017 1_555
Na20 O110 2.773061 1_555
Na20 O40 2.913426 1_556
Na20 O48 2.991829 1_545
Na20 O68 2.998001 1_545
Na21 O78 2.458610 1_655
Na21 O113 2.498102 1_555
Na21 O11 2.560685 1_555
Na21 O83 2.591593 1_545
Na21 O111 2.730652 1_555
Na21 O41 2.898200 1_556
Na22 O80 2.430205 1_545
Na22 O108 2.514346 1_555
Na22 O78 2.542638 1_555
Na22 O36 2.758966 1_556
Na22 O6 2.783850 1_555
Na22 O112 2.797120 1_555
Na22 O50 2.930795 1_555
Na22 O70 3.028692 1_555
Na23 O81 2.401022 1_545
Na23 O109 2.529111 1_555
Na23 O79 2.568291 1_555
Na23 O7 2.633375 1_555
Na23 O113 2.776543 1_555
Na23 O37 2.825519 1_556
Na24 O118 2.448940 1_555
Na24 O77 2.477880 1_555
Na24 O114 2.574269 1_555
Na24 O74 2.634073 1_545
Na24 O4 2.667479 1_555
Na24 O46 2.677046 1_555
Na25 O119 2.460496 1_555
Na25 O76 2.497271 1_655
Na25 O47 2.634455 1_555
Na25 O115 2.651409 1_555
Na25 O75 2.653102 1_545
Na25 O5 2.692526 1_555
Na26 O72 2.432457 1_545
Na26 O114 2.459930 1_555
Na26 O42 2.472174 1_555
Na26 O76 2.609721 1_555
Na26 O116 2.649498 1_555
Na26 O0 2.880388 1_555
Na27 O73 2.398913 1_545
Na27 O115 2.418005 1_555
Na27 O43 2.590561 1_555
Na27 O117 2.618765 1_555
Na27 O77 2.632789 1_555
Na27 O1 2.825205 1_555
Na28 O116 2.415937 1_555
Na28 O74 2.449685 1_555
Na28 O2 2.609092 1_555
Na28 O118 2.618785 1_555
Na28 O73 2.689950 1_555
Na28 O44 2.727073 1_555
Na29 O75 2.458190 1_555
Na29 O117 2.459312 1_555
Na29 O119 2.575282 1_555
Na29 O3 2.617246 1_555
Na29 O45 2.646252 1_555
Na29 O72 2.650919 1_655
Na30 O86 2.524854 1_565
Na30 O76 2.590248 1_565
Na30 O72 2.596663 1_555
Na30 O75 2.616264 1_455
Na30 O89 2.662727 1_455
Na30 O85 2.744543 1_465
Na31 O74 2.496233 1_555
Na31 O77 2.497314 1_565
Na31 O73 2.507133 1_555
Na31 O88 2.762077 1_555
Na31 O84 2.769205 1_565
Na31 O87 2.878539 1_565
Na32 O93 2.569948 1_455
Na32 O91 2.571808 1_445
Na32 O94 2.577068 1_555
Na32 O78 2.685714 1_554
Na32 O83 2.691381 1_444
Na32 O80 2.744873 1_544
Na33 O90 2.581282 1_556
Na33 O92 2.590559 1_566
Na33 O95 2.601037 1_566
Na33 O81 2.633576 1_555
Na33 O82 2.649785 1_555
Na33 O79 2.658701 1_565
Na34 O96 2.538679 1_555
Na34 O110 2.597554 1_555
Na34 O100 2.599048 1_555
Na34 O112 2.608383 1_555
Na34 O98 2.629325 1_555
Na34 O108 2.684195 1_555
Na35 O111 2.533125 1_555
Na35 O101 2.600003 1_555
Na35 O113 2.617641 1_555
Na35 O109 2.618593 1_555
Na35 O97 2.623961 1_555
Na35 O99 2.835587 1_555
Na36 O118 2.499242 1_555
Na36 O116 2.554721 1_555
Na36 O114 2.598775 1_555
Na36 O102 2.644538 1_555
Na36 O104 2.647966 1_555
Na36 O106 2.798045 1_555
Na37 O119 2.457189 1_555
Na37 O117 2.541221 1_555
Na37 O103 2.633034 1_555
Na37 O105 2.635772 1_555
Na37 O115 2.637235 1_555
Na37 O107 2.798529 1_555
Na38 O120 2.480356 1_555
Na38 O122 2.551001 1_555
Na38 O136 2.626999 1_555
Na38 O124 2.629607 1_555
Na38 O134 2.632531 1_555
Na38 O132 2.786190 1_555
Na39 O121 2.480867 1_555
Na39 O123 2.543664 1_555
Na39 O125 2.616973 1_555
Na39 O137 2.634174 1_555
Na39 O135 2.636585 1_555
Na39 O133 2.793178 1_555
Na40 O140 2.567202 1_555
Na40 O142 2.568405 1_555
Na40 O130 2.612007 1_555
Na40 O126 2.634558 1_555
Na40 O138 2.729564 1_555
Na40 O128 2.770698 1_555
Na41 O139 2.569838 1_555
Na41 O129 2.577043 1_555
Na41 O141 2.581380 1_555
Na41 O127 2.583129 1_555
Na41 O143 2.642319 1_555
Na41 O131 2.664247 1_555
O0 S0 1.471100 1_555
O0 Y0 2.384365 1_445
O1 S1 1.472923 1_555
O1 Y1 2.382153 1_545
O2 Si0 1.621157 1_555
O2 Y1 2.177085 1_555
O3 Si1 1.617568 1_555
O3 Y0 2.186620 1_555
O4 Si3 1.630389 1_555
O4 Y1 2.192949 1_545
O5 Si2 1.628801 1_555
O5 Y0 2.201805 1_545
O6 S2 1.469712 1_555
O6 Y2 2.316462 1_445
O7 Si4 1.600816 1_555
O7 Y3 2.230980 1_555
O8 Si6 1.595774 1_555
O8 Y3 2.161153 1_565
O9 Si5 1.621622 1_655
O9 Y2 2.219140 1_555
O10 Si7 1.601579 1_545
O10 Y3 2.159570 1_555
O11 Si8 1.605081 1_555
O11 Y2 2.195736 1_545
O12 Si7 1.712846 1_555
O12 Ta0 1.974365 1_555
O13 Si8 1.615360 1_565
O13 Y4 2.228987 1_555
O14 S2 1.470076 1_555
O14 Y4 2.376250 1_445
O15 Si4 1.670420 1_555
O15 Ta0 2.008988 1_545
O16 Si5 1.609662 1_555
O16 Y4 2.195797 1_455
O17 Si6 1.693397 1_555
O17 Ta0 1.990827 1_555
O18 Si0 1.628352 1_555
O18 Y6 2.201772 1_565
O19 Si1 1.628691 1_555
O19 Y5 2.203760 1_565
O20 Si2 1.619639 1_455
O20 Y5 2.181738 1_455
O21 Si3 1.618593 1_555
O21 Y6 2.184709 1_555
O22 S0 1.470830 1_565
O22 Y5 2.388095 1_465
O23 S1 1.469037 1_565
O23 Y6 2.394629 1_565
O24 Si9 1.613752 1_555
O24 Y7 2.198541 1_555
O25 Si10 1.690152 1_555
O25 Ta1 1.937673 1_555
O26 Si11 1.613532 1_555
O26 Y7 2.148575 1_555
O27 Si12 1.654184 1_555
O27 Ta1 2.034093 1_555
O28 Si13 1.614039 1_555
O28 Y7 2.234385 1_555
O29 Si14 1.677394 1_555
O29 Ta1 2.005966 1_555
O30 Si15 1.663524 1_555
O30 Ta2 1.870067 1_555
O31 Si16 1.663699 1_555
O31 Ta3 1.869526 1_555
O32 Si17 1.648600 1_555
O32 Ta2 1.983770 1_555
O33 Si18 1.646963 1_555
O33 Ta3 1.983785 1_555
O34 Si19 1.643052 1_555
O34 Ta2 1.929269 1_555
O35 Si20 1.641814 1_555
O35 Ta3 1.929499 1_555
O36 Si19 1.686547 1_555
O36 Ta4 1.948547 1_554
O37 Si20 1.689746 1_555
O37 Ta5 1.942697 1_554
O38 Si15 1.675000 1_555
O38 Ta4 1.954585 1_554
O39 Si16 1.678160 1_555
O39 Ta5 1.956920 1_554
O40 Si17 1.684670 1_555
O40 Ta4 1.946648 1_554
O41 Si18 1.688510 1_555
O41 Ta5 1.938823 1_554
O42 Si11 1.621670 1_555
O42 Y8 2.168894 1_555
O43 Si12 1.610393 1_555
O43 Y9 2.250330 1_555
O44 Si13 1.622424 1_555
O44 Y8 2.243091 1_555
O45 Si14 1.603090 1_555
O45 Y9 2.167338 1_555
O46 Si9 1.614567 1_555
O46 Y8 2.236204 1_555
O47 Si10 1.609661 1_555
O47 Y9 2.178416 1_555
O48 Si21 1.604945 1_555
O48 Y10 2.154590 1_556
O49 Si22 1.597822 1_555
O49 Y11 2.163400 1_556
O50 Si23 1.604368 1_555
O50 Y10 2.174089 1_556
O51 Si24 1.599187 1_555
O51 Y11 2.158726 1_556
O52 Si25 1.601328 1_555
O52 Y10 2.193757 1_556
O53 Si26 1.598390 1_555
O53 Y11 2.160631 1_556
O54 Si27 1.669859 1_555
O54 Ta6 1.948329 1_555
O55 Si28 1.685653 1_555
O55 Ta7 1.934265 1_555
O56 Si29 1.664997 1_555
O56 Ta6 1.970061 1_555
O57 Si30 1.670828 1_555
O57 Ta7 1.944154 1_555
O58 Si31 1.667664 1_555
O58 Ta6 1.934526 1_555
O59 Si32 1.686316 1_555
O59 Ta7 1.946219 1_555
O60 Si31 1.645956 1_555
O60 Ta8 1.930927 1_555
O61 Si32 1.641302 1_555
O61 Ta9 1.938448 1_555
O62 Si27 1.650510 1_555
O62 Ta8 1.991604 1_555
O63 Si28 1.646904 1_555
O63 Ta9 1.989384 1_555
O64 Si29 1.668572 1_555
O64 Ta8 1.873250 1_555
O65 Si30 1.660773 1_555
O65 Ta9 1.871435 1_555
O66 Si23 1.688347 1_555
O66 Ta10 1.958828 1_555
O67 Si24 1.705164 1_555
O67 Ta11 1.974837 1_555
O68 Si25 1.706594 1_555
O68 Ta10 1.896477 1_555
O69 Si26 1.704868 1_555
O69 Ta11 1.963362 1_555
O70 Si21 1.693282 1_555
O70 Ta10 2.001208 1_555
O71 Si22 1.704681 1_555
O71 Ta11 1.982111 1_555
O72 Si31 1.620704 1_555
O72 Y0 2.293289 1_455
O73 Si32 1.622494 1_555
O73 Y1 2.317620 1_555
O74 Si27 1.633667 1_555
O74 Y1 2.257001 1_555
O75 Si28 1.624410 1_555
O75 Y0 2.255994 1_555
O76 Si29 1.615199 1_555
O76 Y0 2.314336 1_445
O77 Si30 1.618188 1_555
O77 Y1 2.338895 1_545
O78 Si23 1.616441 1_555
O78 Y2 2.252939 1_445
O79 Si24 1.610968 1_555
O79 Y3 2.245202 1_555
O80 Si25 1.612525 1_555
O80 Y2 2.253326 1_455
O81 Si26 1.609930 1_555
O81 Y3 2.250565 1_565
O82 Si21 1.613733 1_555
O82 Y3 2.266346 1_565
O83 Si22 1.619595 1_555
O83 Y2 2.189804 1_555
O84 Si9 1.673359 1_555
O84 Ta0 2.024701 1_545
O85 Si10 1.611762 1_555
O85 Y4 2.239542 1_545
O86 Si11 1.625059 1_555
O86 Y4 2.237100 1_445
O87 Si12 1.661288 1_555
O87 Ta0 2.045545 1_545
O88 Si13 1.688116 1_555
O88 Ta0 2.006898 1_555
O89 Si14 1.614464 1_555
O89 Y4 2.204200 1_555
O90 Si15 1.615054 1_555
O90 Y6 2.319102 1_565
O91 Si16 1.615576 1_555
O91 Y5 2.325985 1_565
O92 Si17 1.628900 1_555
O92 Y6 2.249740 1_555
O93 Si18 1.628329 1_555
O93 Y5 2.254139 1_555
O94 Si19 1.622165 1_555
O94 Y5 2.304485 1_455
O95 Si20 1.620000 1_555
O95 Y6 2.304568 1_555
O96 Si7 1.606841 1_545
O96 Y7 2.209422 1_555
O97 Si8 1.664786 1_555
O97 Ta1 2.023292 1_555
O98 S2 1.478881 1_555
O98 Y7 2.431609 1_555
O99 Si4 1.648156 1_555
O99 Ta1 2.057754 1_555
O100 Si6 1.613328 1_555
O100 Y7 2.277912 1_555
O101 Si5 1.687782 1_655
O101 Ta1 1.976832 1_555
O102 Si0 1.658892 1_555
O102 Ta2 1.967019 1_555
O103 Si1 1.659729 1_555
O103 Ta3 1.965379 1_555
O104 Si3 1.676030 1_555
O104 Ta2 1.994698 1_555
O105 Si2 1.678994 1_555
O105 Ta3 1.990977 1_555
O106 S0 1.495015 1_555
O106 Ta2 2.289169 1_555
O107 S1 1.493300 1_555
O107 Ta3 2.296716 1_555
O108 Si21 1.672505 1_555
O108 Ta4 2.059812 1_555
O109 Si22 1.666502 1_555
O109 Ta5 2.083627 1_555
O110 Si24 1.667627 1_555
O110 Ta4 2.070949 1_555
O111 Si23 1.673757 1_655
O111 Ta5 2.082194 1_555
O112 Si25 1.660022 1_545
O112 Ta4 2.066533 1_555
O113 Si26 1.673416 1_545
O113 Ta5 2.069605 1_555
O114 Si27 1.621524 1_545
O114 Y8 2.315835 1_555
O115 Si28 1.617849 1_545
O115 Y9 2.285968 1_555
O116 Si29 1.615290 1_555
O116 Y8 2.302818 1_555
O117 Si30 1.610590 1_555
O117 Y9 2.294509 1_555
O118 Si32 1.618122 1_555
O118 Y8 2.293259 1_555
O119 Si31 1.620361 1_655
O119 Y9 2.315602 1_555
O120 Si19 1.617888 1_555
O120 Y10 2.305062 1_555
O121 Si20 1.616558 1_555
O121 Y11 2.293591 1_555
O122 Si16 1.610700 1_455
O122 Y10 2.292801 1_555
O123 Si15 1.611369 1_555
O123 Y11 2.291401 1_555
O124 Si17 1.620190 1_565
O124 Y10 2.298427 1_555
O125 Si18 1.618015 1_565
O125 Y11 2.295052 1_555
O126 Si11 1.673639 1_565
O126 Ta6 1.974921 1_555
O127 Si12 1.668708 1_565
O127 Ta7 2.112447 1_555
O128 Si13 1.661921 1_555
O128 Ta6 2.044032 1_555
O129 Si14 1.673924 1_555
O129 Ta7 2.067410 1_555
O130 Si10 1.662793 1_455
O130 Ta6 2.088225 1_555
O131 Si9 1.661604 1_555
O131 Ta7 2.020648 1_555
O132 S0 1.493289 1_565
O132 Ta8 2.300267 1_555
O133 S1 1.494697 1_565
O133 Ta9 2.285601 1_555
O134 Si0 1.676989 1_555
O134 Ta8 1.992765 1_555
O135 Si1 1.680101 1_555
O135 Ta9 1.987663 1_555
O136 Si2 1.660781 1_455
O136 Ta8 1.965722 1_555
O137 Si3 1.661804 1_555
O137 Ta9 1.961674 1_555
O138 S2 1.498234 1_555
O138 Ta10 2.255017 1_555
O139 Si4 1.664539 1_555
O139 Ta11 2.129346 1_555
O140 Si5 1.666137 1_555
O140 Ta10 1.973219 1_555
O141 Si6 1.674698 1_555
O141 Ta11 2.084360 1_555
O142 Si7 1.676066 1_555
O142 Ta10 2.078533 1_555
O143 Si8 1.685951 1_565
O143 Ta11 2.004853 1_555
