# generated using pymatgen
data_MgV5O12
_symmetry_space_group_name_H-M   'P 1'
_cell_length_a   6.79249193
_cell_length_b   6.88559714
_cell_length_c   5.88471375
_cell_angle_alpha   74.49087023
_cell_angle_beta   104.86936369
_cell_angle_gamma   95.23760123
_symmetry_Int_Tables_number   1
_chemical_formula_structural   MgV5O12
_chemical_formula_sum   'Mg1 V5 O12'
_cell_volume   256.25161018
_cell_formula_units_Z   1
loop_
 _symmetry_equiv_pos_site_id
 _symmetry_equiv_pos_as_xyz
  1  'x, y, z'
loop_
 _atom_site_type_symbol
 _atom_site_label
 _atom_site_symmetry_multiplicity
 _atom_site_fract_x
 _atom_site_fract_y
 _atom_site_fract_z
 _atom_site_occupancy
  Mg  Mg0  1  0.07922500  0.06482800  0.75918500  1
  V  V0  1  0.20396200  0.58274000  0.76624600  1
  V  V1  1  0.38678600  0.77856500  0.26124000  1
  V  V2  1  0.60922100  0.19233900  0.76420000  1
  V  V3  1  0.78396900  0.37460900  0.25450500  1
  V  V4  1  0.91400500  0.89649700  0.27552300  1
  O  O0  1  0.04024200  0.80804400  0.61747400  1
  O  O1  1  0.07373900  0.36134600  0.76809800  1
  O  O2  1  0.17966400  0.94107900  0.14907200  1
  O  O3  1  0.36898500  0.62670600  0.54405000  1
  O  O4  1  0.38178600  0.07603400  0.74636300  1
  O  O5  1  0.35953700  0.62591100  0.05738800  1
  O  O6  1  0.63264500  0.35730700  0.96114300  1
  O  O7  1  0.62330100  0.89824000  0.28802900  1
  O  O8  1  0.62555200  0.33162600  0.46447300  1
  O  O9  1  0.80464100  0.02276300  0.88942400  1
  O  O10  1  0.89465300  0.60623800  0.23057700  1
  O  O11  1  0.95617700  0.18322100  0.35926200  1
loop_
_geom_bond_atom_site_label_1
_geom_bond_atom_site_label_2
_geom_bond_distance
_geom_bond_site_symmetry_2
Mg0 O1 2.060305 1_555
Mg0 O4 2.069488 1_555
Mg0 O0 2.116953 1_545
Mg0 O9 2.160144 1_455
Mg0 O2 2.170924 1_546
Mg0 O11 2.233973 1_455
O0 V0 1.870513 1_555
O0 V4 1.926093 1_455
O1 V0 1.690057 1_555
O2 V1 1.755841 1_555
O2 V4 2.090452 1_455
O3 V1 1.739910 1_555
O3 V0 1.880532 1_555
O4 V2 1.665763 1_555
O5 V1 1.761537 1_555
O5 V0 1.851005 1_554
O6 V3 1.796640 1_556
O6 V2 1.798652 1_555
O7 V1 1.727022 1_555
O7 V4 1.995997 1_555
O8 V3 1.789091 1_555
O8 V2 1.794293 1_555
O9 V2 1.728917 1_555
O9 V4 2.159939 1_546
O10 V3 1.686444 1_555
O10 V4 2.073295 1_555
O11 V3 1.720994 1_555
O11 V4 2.137100 1_545
