# generated using pymatgen
data_Na4Ca2Sc2SiS5O24
_symmetry_space_group_name_H-M   'P 1'
_cell_length_a   9.13815243
_cell_length_b   9.10895125
_cell_length_c   23.29218987
_cell_angle_alpha   89.99003253
_cell_angle_beta   90.03272344
_cell_angle_gamma   119.85787980
_symmetry_Int_Tables_number   1
_chemical_formula_structural   Na4Ca2Sc2SiS5O24
_chemical_formula_sum   'Na12 Ca6 Sc6 Si3 S15 O72'
_cell_volume   1681.46498296
_cell_formula_units_Z   3
loop_
 _symmetry_equiv_pos_site_id
 _symmetry_equiv_pos_as_xyz
  1  'x, y, z'
loop_
 _atom_site_type_symbol
 _atom_site_label
 _atom_site_symmetry_multiplicity
 _atom_site_fract_x
 _atom_site_fract_y
 _atom_site_fract_z
 _atom_site_occupancy
  Na  Na0  1  0.99743242  0.63204714  0.23692018  1
  Na  Na1  1  0.99232654  0.35664074  0.75639927  1
  Na  Na2  1  0.37287588  0.99683338  0.75086198  1
  Na  Na3  1  0.66012188  0.97731762  0.59144984  1
  Na  Na4  1  0.67989968  0.68260814  0.07611687  1
  Na  Na5  1  0.33845765  0.03887206  0.42594417  1
  Na  Na6  1  0.02270600  0.00540385  0.50409114  1
  Na  Na7  1  0.01625686  0.99394455  0.00178166  1
  Na  Na8  1  0.66629627  0.33690552  0.84268130  1
  Na  Na9  1  0.66614514  0.33346904  0.32901032  1
  Na  Na10  1  0.31448968  0.66051338  0.15998967  1
  Na  Na11  1  0.35475811  0.68020473  0.66677403  1
  Ca  Ca0  1  0.99319822  0.00421234  0.35322176  1
  Ca  Ca1  1  0.67052741  0.32991852  0.17610016  1
  Ca  Ca2  1  0.67531734  0.33926902  0.98717670  1
  Ca  Ca3  1  0.66297487  0.33582989  0.48660396  1
  Ca  Ca4  1  0.34019164  0.66256464  0.31223389  1
  Ca  Ca5  1  0.34939153  0.67426066  0.81579827  1
  Sc  Sc0  1  0.98073906  0.99801177  0.85180144  1
  Sc  Sc1  1  -0.00018521  0.99436334  0.64803835  1
  Sc  Sc2  1  0.00618990  0.00380235  0.14759797  1
  Sc  Sc3  1  0.65743926  0.31852635  0.68104282  1
  Sc  Sc4  1  0.31662351  0.66857998  0.01622010  1
  Sc  Sc5  1  0.32873097  0.66851147  0.52096325  1
  Si  Si0  1  0.70840354  0.00484952  0.74470205  1
  Si  Si1  1  0.35841210  0.02653308  0.58148352  1
  Si  Si2  1  0.97615200  0.64523305  0.08755706  1
  S  S0  1  0.29430459  0.00229280  0.25129422  1
  S  S1  1  0.70771031  0.70559546  0.24687445  1
  S  S2  1  0.99646401  0.29699662  0.24870381  1
  S  S3  1  0.28797416  0.28138494  0.74887978  1
  S  S4  1  0.99111569  0.70536544  0.75018599  1
  S  S5  1  0.96886201  0.33446420  0.58579425  1
  S  S6  1  0.66566477  0.63386886  0.58529601  1
  S  S7  1  0.66400918  0.01806524  0.08218677  1
  S  S8  1  0.35898160  0.33695531  0.08190091  1
  S  S9  1  0.63827857  0.67111913  0.91780360  1
  S  S10  1  0.03820202  0.36502004  0.91307547  1
  S  S11  1  0.32561304  0.96687022  0.91363864  1
  S  S12  1  0.62519894  0.95787319  0.42082088  1
  S  S13  1  0.33342926  0.37180054  0.41959766  1
  S  S14  1  0.04291266  0.66758952  0.41704990  1
  O  O0  1  0.22088154  0.01417918  0.30682223  1
  O  O1  1  0.80577063  0.79059555  0.29904379  1
  O  O2  1  0.99396469  0.21057851  0.30228887  1
  O  O3  1  0.21187863  0.17585253  0.80104482  1
  O  O4  1  0.97692993  0.78980183  0.80259021  1
  O  O5  1  0.83214603  0.03168602  0.80118572  1
  O  O6  1  0.80443923  0.99456871  0.68712576  1
  O  O7  1  0.18499152  0.19463227  0.69760915  1
  O  O8  1  0.01817558  0.81329824  0.69903800  1
  O  O9  1  0.79940908  0.80507134  0.19473659  1
  O  O10  1  0.00130874  0.20186521  0.19782205  1
  O  O11  1  0.18326789  0.99463080  0.20273318  1
  O  O12  1  0.89095364  0.36132173  0.63852878  1
  O  O13  1  0.49429299  0.12687879  0.63617906  1
  O  O14  1  0.64897892  0.52846266  0.63600738  1
  O  O15  1  0.91506862  0.54440845  0.14788536  1
  O  O16  1  0.62781890  0.08505096  0.13405261  1
  O  O17  1  0.46613219  0.37023845  0.13323861  1
  O  O18  1  0.42767543  0.29766933  0.03123567  1
  O  O19  1  0.83465507  0.55961583  0.03776048  1
  O  O20  1  0.69059596  0.12129522  0.03113258  1
  O  O21  1  0.43016708  0.12657702  0.52198028  1
  O  O22  1  0.69473167  0.56706217  0.53232321  1
  O  O23  1  0.86176231  0.30634322  0.53551981  1
  O  O24  1  0.55614735  0.68748506  0.97094213  1
  O  O25  1  0.14797088  0.46110865  0.96264053  1
  O  O26  1  0.31141062  0.85425863  0.96283545  1
  O  O27  1  0.53486289  0.85975826  0.47396574  1
  O  O28  1  0.32965252  0.46704971  0.47118240  1
  O  O29  1  0.15211596  0.67572515  0.46706562  1
  O  O30  1  0.11853762  0.65588856  0.36276721  1
  O  O31  1  0.52540743  0.87187955  0.36946610  1
  O  O32  1  0.33667063  0.45833410  0.36658831  1
  O  O33  1  0.11136455  0.45423481  0.85824380  1
  O  O34  1  0.34235026  0.89364452  0.85872397  1
  O  O35  1  0.53969370  0.65764284  0.86652992  1
  O  O36  1  0.04084974  0.83126540  0.41977981  1
  O  O37  1  0.79380514  0.97365244  0.42111383  1
  O  O38  1  0.18105570  0.19735104  0.42233269  1
  O  O39  1  0.02994322  0.19536734  0.91221579  1
  O  O40  1  0.16684367  0.97702659  0.91244507  1
  O  O41  1  0.80968053  0.83054598  0.91345747  1
  O  O42  1  0.98405335  0.17895847  0.59144970  1
  O  O43  1  0.17029420  -0.00154132  0.59394971  1
  O  O44  1  0.81048937  0.81092315  0.59183534  1
  O  O45  1  0.00126668  0.84021015  0.09390762  1
  O  O46  1  0.81765658  -0.00068494  0.09016995  1
  O  O47  1  0.18399414  0.19518752  0.09187615  1
  O  O48  1  0.69727391  0.18498479  0.74233902  1
  O  O49  1  0.46050708  0.30206772  0.74290496  1
  O  O50  1  0.83872142  0.53554923  0.74426511  1
  O  O51  1  0.69337945  0.53517486  0.24551334  1
  O  O52  1  0.84367814  0.31659012  0.24849255  1
  O  O53  1  0.46553149  0.14759033  0.24598622  1
  O  O54  1  0.66152407  0.52226649  0.91945159  1
  O  O55  1  0.86727146  0.34111658  0.91884735  1
  O  O56  1  0.47469341  0.13626448  0.92030543  1
  O  O57  1  0.63870575  0.12810046  0.42202669  1
  O  O58  1  0.48556509  0.35040689  0.41963721  1
  O  O59  1  0.87162042  0.52136969  0.42225566  1
  O  O60  1  0.35111585  0.49699717  0.07250545  1
  O  O61  1  0.16417028  0.66827263  0.07159637  1
  O  O62  1  0.51949893  0.83968693  0.07340107  1
  O  O63  1  0.35541963  0.84023035  0.57885363  1
  O  O64  1  0.50921192  0.64932094  0.58168521  1
  O  O65  1  0.14017816  0.48458749  0.57962594  1
  O  O66  1  0.29492881  0.83780430  0.24861346  1
  O  O67  1  0.53898982  0.69041321  0.24675483  1
  O  O68  1  0.14874156  0.47092682  0.24632549  1
  O  O69  1  0.29591095  0.44731040  0.75246557  1
  O  O70  1  0.14253660  0.68268728  0.75343553  1
  O  O71  1  0.51608670  0.84747052  0.74701271  1
loop_
_geom_bond_atom_site_label_1
_geom_bond_atom_site_label_2
_geom_bond_distance
_geom_bond_site_symmetry_2
Na0 O15 2.214726 1_555
Na0 O66 2.429722 1_655
Na0 O51 2.469419 1_555
Na0 O68 2.476665 1_655
Na0 O52 2.506763 1_555
Na1 O48 2.371339 1_555
Na1 O69 2.470949 1_655
Na1 O33 2.575992 1_655
Na1 O70 2.578830 1_655
Na1 O50 2.642545 1_555
Na1 O5 2.771094 1_555
Na1 O12 2.904119 1_555
Na2 O71 2.311880 1_555
Na2 O49 2.487794 1_565
Na2 O70 2.573967 1_555
Na2 O48 2.589637 1_565
Na2 O34 2.648033 1_555
Na2 O13 2.909173 1_565
Na2 O3 2.929374 1_565
Na3 O63 2.436296 1_555
Na3 O44 2.501830 1_555
Na3 O6 2.553537 1_555
Na3 O42 2.592757 1_565
Na3 O64 2.603323 1_555
Na3 O13 2.701045 1_565
Na3 O23 2.928735 1_565
Na3 O27 2.953321 1_555
Na4 O19 2.373297 1_555
Na4 O62 2.507554 1_555
Na4 O46 2.529460 1_565
Na4 O45 2.580289 1_655
Na4 O60 2.614261 1_555
Na4 O24 2.707200 1_554
Na4 O17 2.854736 1_555
Na4 O9 2.975793 1_555
Na5 O21 2.382456 1_555
Na5 O36 2.423170 1_545
Na5 O57 2.444732 1_555
Na5 O58 2.466428 1_555
Na5 O38 2.495428 1_555
Na6 O38 2.502046 1_555
Na6 O43 2.507049 1_555
Na6 O36 2.581355 1_545
Na6 O42 2.705964 1_455
Na6 O37 2.754562 1_445
Na6 O44 2.767409 1_445
Na7 O45 2.528356 1_555
Na7 O40 2.542008 1_554
Na7 O41 2.685179 1_454
Na7 O47 2.704336 1_565
Na7 O39 2.739453 1_564
Na7 O46 2.761742 1_465
Na8 O54 2.474808 1_555
Na8 O55 2.539263 1_555
Na8 O56 2.547763 1_555
Na8 O48 2.801703 1_555
Na8 O50 2.859266 1_555
Na8 O49 2.905029 1_555
Na9 O52 2.534712 1_555
Na9 O51 2.600785 1_555
Na9 O53 2.621766 1_555
Na9 O58 2.731364 1_555
Na9 O57 2.790785 1_555
Na9 O59 2.822925 1_555
Na10 O61 2.494842 1_555
Na10 O68 2.591945 1_555
Na10 O60 2.642147 1_555
Na10 O66 2.681431 1_555
Na10 O62 2.683234 1_555
Na10 O67 2.793967 1_555
Na11 O71 2.397715 1_555
Na11 O63 2.511723 1_555
Na11 O64 2.529416 1_555
Na11 O69 2.763559 1_555
Na11 O65 2.767336 1_555
Na11 O70 2.807861 1_555
Ca0 O2 2.219717 1_555
Ca0 O1 2.234321 1_545
Ca0 O0 2.306431 1_655
Ca0 O37 2.322988 1_545
Ca0 O38 2.371504 1_655
Ca0 O36 2.399205 1_645
Ca1 O15 2.212873 1_555
Ca1 O16 2.284760 1_555
Ca1 O17 2.302392 1_555
Ca1 O52 2.355779 1_555
Ca1 O51 2.401078 1_555
Ca1 O53 2.412877 1_555
Ca2 O19 2.150760 1_556
Ca2 O20 2.298941 1_556
Ca2 O18 2.338065 1_556
Ca2 O54 2.343278 1_555
Ca2 O55 2.363040 1_555
Ca2 O56 2.414278 1_555
Ca3 O21 2.191323 1_555
Ca3 O22 2.246436 1_555
Ca3 O23 2.270126 1_555
Ca3 O58 2.300060 1_555
Ca3 O57 2.339834 1_555
Ca3 O59 2.352005 1_555
Ca4 O32 2.237033 1_555
Ca4 O31 2.249917 1_555
Ca4 O67 2.287974 1_555
Ca4 O30 2.317723 1_555
Ca4 O68 2.328446 1_555
Ca4 O66 2.360270 1_555
Ca5 O35 2.168655 1_555
Ca5 O71 2.232829 1_555
Ca5 O34 2.264075 1_555
Ca5 O33 2.320894 1_555
Ca5 O69 2.383872 1_555
Ca5 O70 2.414593 1_555
O0 S0 1.485959 1_555
O1 S1 1.478945 1_555
O2 S2 1.469608 1_555
O3 S3 1.489603 1_555
O3 Sc0 2.253553 1_445
O4 S4 1.482575 1_555
O4 Sc0 2.201600 1_555
O5 Si0 1.671069 1_555
O5 Sc0 1.934057 1_545
O6 Si0 1.631147 1_565
O6 Sc1 2.005399 1_655
O7 S3 1.481479 1_555
O7 Sc1 2.109330 1_545
O8 S4 1.484895 1_455
O8 Sc1 2.105731 1_555
O9 S1 1.497585 1_555
O9 Sc2 2.156109 1_665
O10 S2 1.481909 1_455
O10 Sc2 2.169412 1_555
O11 S0 1.497332 1_565
O11 Sc2 2.099251 1_565
O12 S5 1.499987 1_555
O12 Sc3 2.204553 1_555
O13 Si1 1.693761 1_555
O13 Sc3 1.941537 1_555
O14 S6 1.481331 1_555
O14 Sc3 2.215769 1_555
O15 Si2 1.618511 1_555
O16 S7 1.463812 1_555
O17 S8 1.477747 1_555
O18 S8 1.462676 1_555
O19 Si2 1.618627 1_555
O20 S7 1.459384 1_555
O21 Si1 1.608392 1_555
O22 S6 1.457684 1_555
O23 S5 1.464199 1_555
O24 S9 1.493311 1_555
O24 Sc4 2.357970 1_556
O25 S10 1.493295 1_555
O25 Sc4 2.145406 1_556
O26 S11 1.499783 1_555
O26 Sc4 2.118601 1_556
O27 S12 1.509530 1_555
O27 Sc5 2.124999 1_555
O28 S13 1.492593 1_555
O28 Sc5 2.174459 1_555
O29 S14 1.511147 1_555
O29 Sc5 2.070838 1_555
O30 S14 1.470353 1_555
O31 S12 1.470989 1_555
O32 S13 1.457098 1_555
O33 S10 1.482612 1_555
O34 S11 1.485411 1_555
O35 S9 1.463443 1_555
O36 S14 1.501748 1_555
O37 S12 1.474482 1_555
O38 S13 1.504965 1_555
O39 S10 1.509341 1_555
O39 Sc0 2.146949 1_445
O40 S11 1.499308 1_555
O40 Sc0 2.290159 1_455
O41 S9 1.519134 1_555
O41 Sc0 2.111959 1_555
O42 S5 1.496258 1_555
O42 Sc1 2.196714 1_645
O43 Si1 1.633299 1_555
O43 Sc1 1.989951 1_545
O44 S6 1.500118 1_555
O44 Sc1 2.149116 1_655
O45 Si2 1.680196 1_455
O45 Sc2 1.928815 1_565
O46 S7 1.507838 1_555
O46 Sc2 2.164804 1_655
O47 S8 1.490914 1_555
O47 Sc2 2.131876 1_555
O48 Si0 1.694658 1_555
O48 Sc3 2.022444 1_555
O49 S3 1.498370 1_555
O49 Sc3 2.251994 1_555
O50 S4 1.485285 1_555
O50 Sc3 2.357584 1_555
O51 S1 1.491827 1_555
O52 S2 1.493085 1_555
O53 S0 1.467452 1_555
O54 S9 1.473700 1_555
O55 S10 1.472034 1_655
O56 S11 1.472312 1_545
O57 S12 1.493254 1_545
O58 S13 1.496830 1_555
O59 S14 1.470757 1_655
O60 S8 1.510789 1_555
O60 Sc4 2.179496 1_555
O61 Si2 1.666111 1_455
O61 Sc4 1.898075 1_555
O62 S7 1.513007 1_565
O62 Sc4 2.181952 1_555
O63 Si1 1.684700 1_565
O63 Sc5 1.986157 1_555
O64 S6 1.507025 1_555
O64 Sc5 2.243950 1_555
O65 S5 1.486621 1_455
O65 Sc5 2.184091 1_555
O66 S0 1.502475 1_565
O67 S1 1.477820 1_555
O68 S2 1.501470 1_455
O69 S3 1.479012 1_555
O70 S4 1.499177 1_455
O71 Si0 1.624211 1_565
