# generated using pymatgen
data_PbSO3
_symmetry_space_group_name_H-M   'P 1'
_cell_length_a   5.57030200
_cell_length_b   6.90710200
_cell_length_c   8.05401800
_cell_angle_alpha   90.00000000
_cell_angle_beta   90.00000000
_cell_angle_gamma   90.00000000
_symmetry_Int_Tables_number   1
_chemical_formula_structural   PbSO3
_chemical_formula_sum   'Pb4 S4 O12'
_cell_volume   309.87547600
_cell_formula_units_Z   4
loop_
 _symmetry_equiv_pos_site_id
 _symmetry_equiv_pos_as_xyz
  1  'x, y, z'
loop_
 _atom_site_type_symbol
 _atom_site_label
 _atom_site_symmetry_multiplicity
 _atom_site_fract_x
 _atom_site_fract_y
 _atom_site_fract_z
 _atom_site_occupancy
  Pb  Pb0  1  0.25000000  0.35836300  0.68350800  1
  Pb  Pb1  1  0.75000000  0.64163700  0.31649200  1
  Pb  Pb2  1  0.75000000  0.85836300  0.81649200  1
  Pb  Pb3  1  0.25000000  0.14163700  0.18350800  1
  S  S0  1  0.75000000  0.35117900  0.96510800  1
  S  S1  1  0.25000000  0.64882100  0.03489200  1
  S  S2  1  0.25000000  0.85117900  0.53489200  1
  S  S3  1  0.75000000  0.14882100  0.46510800  1
  O  O0  1  0.03034500  0.78417300  0.06227800  1
  O  O1  1  0.53034500  0.21582700  0.93772200  1
  O  O2  1  0.96965500  0.28417300  0.43772200  1
  O  O3  1  0.46965500  0.71582700  0.56227800  1
  O  O4  1  0.96965500  0.21582700  0.93772200  1
  O  O5  1  0.46965500  0.78417300  0.06227800  1
  O  O6  1  0.03034500  0.71582700  0.56227800  1
  O  O7  1  0.53034500  0.28417300  0.43772200  1
  O  O8  1  0.75000000  0.01600400  0.31222700  1
  O  O9  1  0.25000000  0.98399600  0.68777300  1
  O  O10  1  0.25000000  0.51600400  0.18777300  1
  O  O11  1  0.75000000  0.48399600  0.81222700  1
loop_
_geom_bond_atom_site_label_1
_geom_bond_atom_site_label_2
_geom_bond_distance
_geom_bond_site_symmetry_2
O0 S1 1.555548 1_555
O0 Pb2 2.572914 1_454
O0 Pb1 2.756792 1_455
O1 S0 1.555548 1_555
O1 Pb3 2.572914 1_556
O1 Pb0 2.756792 1_555
O2 S3 1.555548 1_555
O2 Pb0 2.572914 1_655
O2 Pb3 2.756792 1_655
O3 S2 1.555548 1_555
O3 Pb1 2.572914 1_555
O3 Pb2 2.756792 1_555
O4 S0 1.555548 1_555
O4 Pb3 2.572914 1_656
O4 Pb0 2.756792 1_655
O5 S1 1.555548 1_555
O5 Pb2 2.572914 1_554
O5 Pb1 2.756792 1_555
O6 S2 1.555548 1_555
O6 Pb1 2.572914 1_455
O6 Pb2 2.756792 1_455
O7 S3 1.555548 1_555
O7 Pb0 2.572914 1_555
O7 Pb3 2.756792 1_555
O8 S3 1.535481 1_555
O8 Pb1 2.586019 1_545
O9 S2 1.535481 1_555
O9 Pb0 2.586019 1_565
O10 S1 1.535481 1_555
O10 Pb3 2.586019 1_555
O11 S0 1.535481 1_555
O11 Pb2 2.586019 1_555
