# generated using pymatgen
data_Na10La6Nb2Si7S5O48
_symmetry_space_group_name_H-M   'P 1'
_cell_length_a   19.07145052
_cell_length_b   9.57323515
_cell_length_c   23.99788750
_cell_angle_alpha   90.00699705
_cell_angle_beta   90.15943327
_cell_angle_gamma   120.14174962
_symmetry_Int_Tables_number   1
_chemical_formula_structural   Na10La6Nb2Si7S5O48
_chemical_formula_sum   'Na30 La18 Nb6 Si21 S15 O144'
_cell_volume   3788.97413875
_cell_formula_units_Z   3
loop_
 _symmetry_equiv_pos_site_id
 _symmetry_equiv_pos_as_xyz
  1  'x, y, z'
loop_
 _atom_site_type_symbol
 _atom_site_label
 _atom_site_symmetry_multiplicity
 _atom_site_fract_x
 _atom_site_fract_y
 _atom_site_fract_z
 _atom_site_occupancy
  Na  Na0  1  0.31247464  0.99904531  0.24173309  1
  Na  Na1  1  0.81848567  0.02276017  0.23938544  1
  Na  Na2  1  0.18338497  0.36966290  0.24679018  1
  Na  Na3  1  0.32255025  0.61873615  0.74055847  1
  Na  Na4  1  0.81184337  0.62609592  0.74219777  1
  Na  Na5  1  0.68382612  0.99782372  0.74880294  1
  Na  Na6  1  0.16799987  0.34457959  0.59012451  1
  Na  Na7  1  0.65893276  0.33393420  0.57934444  1
  Na  Na8  1  0.00718659  0.70250626  0.57554833  1
  Na  Na9  1  0.16328987  0.98970718  0.08556746  1
  Na  Na10  1  0.66805808  0.99171559  0.08873002  1
  Na  Na11  1  0.50633764  0.31130111  0.07424635  1
  Na  Na12  1  0.84732618  0.00849450  0.91854407  1
  Na  Na13  1  0.66294348  0.31086611  0.91645012  1
  Na  Na14  1  0.48760491  0.28860838  0.42291150  1
  Na  Na15  1  0.16462104  0.01788161  0.41847672  1
  Na  Na16  1  0.66690124  0.05737252  0.41479636  1
  Na  Na17  1  0.85051486  0.65098271  0.41349541  1
  Na  Na18  1  0.99898211  0.98577958  0.50332601  1
  Na  Na19  1  0.48401918  0.98447103  0.49658841  1
  Na  Na20  1  0.99110766  0.98436559  0.00080110  1
  Na  Na21  1  0.48733233  0.00861061  0.99945769  1
  Na  Na22  1  0.34349411  0.34118664  0.83242733  1
  Na  Na23  1  0.83301672  0.33746986  0.83454928  1
  Na  Na24  1  0.32676838  0.34156373  0.33424053  1
  Na  Na25  1  0.84029594  0.34538872  0.33179049  1
  Na  Na26  1  0.17088886  0.64834783  0.16528401  1
  Na  Na27  1  0.67924304  0.67449487  0.16060233  1
  Na  Na28  1  0.18118494  0.69163105  0.65933298  1
  Na  Na29  1  0.67140805  0.69517970  0.66338829  1
  La  La0  1  0.00450116  0.00819560  0.34785773  1
  La  La1  1  0.50018850  0.98953727  0.34670638  1
  La  La2  1  0.00601274  0.01243201  0.84846648  1
  La  La3  1  0.49892338  0.00189268  0.85055239  1
  La  La4  1  0.33249931  0.32691366  0.68273833  1
  La  La5  1  0.82990593  0.31675572  0.68195428  1
  La  La6  1  0.32908126  0.33942472  0.17991075  1
  La  La7  1  0.83231103  0.34003877  0.18250295  1
  La  La8  1  0.33841092  0.32060615  0.98317674  1
  La  La9  1  0.82775275  0.33531111  0.99110322  1
  La  La10  1  0.32395816  0.33214055  0.49155243  1
  La  La11  1  0.83683424  0.34892558  0.48649419  1
  La  La12  1  0.17031727  0.65800897  0.02120535  1
  La  La13  1  0.67417894  0.65761971  0.01795188  1
  La  La14  1  0.17778071  0.69442455  0.51577341  1
  La  La15  1  0.67034280  0.67106856  0.52210909  1
  La  La16  1  0.66141250  0.65634842  0.30977679  1
  La  La17  1  0.16054020  0.64777214  0.81015759  1
  Nb  Nb0  1  0.99654444  0.00704950  0.65372314  1
  Nb  Nb1  1  0.50805606  0.98420984  0.65144837  1
  Nb  Nb2  1  0.00793008  0.03222805  0.15136896  1
  Nb  Nb3  1  0.49602505  0.98375424  0.15394918  1
  Nb  Nb4  1  0.16305883  0.68843713  0.30915885  1
  Nb  Nb5  1  0.66159693  0.63648843  0.80850253  1
  Si  Si0  1  0.14650324  0.99822093  0.24908702  1
  Si  Si1  1  0.64949887  0.99113958  0.25029622  1
  Si  Si2  1  0.34363596  0.70159029  0.25120980  1
  Si  Si3  1  0.00613289  0.31205020  0.25251303  1
  Si  Si4  1  0.14936798  0.30531193  0.74677651  1
  Si  Si5  1  0.64480784  0.29165577  0.74970722  1
  Si  Si6  1  0.50656877  0.70377629  0.75333773  1
  Si  Si7  1  0.84597659  0.98589214  0.75480874  1
  Si  Si8  1  0.16839324  0.02417955  0.58513500  1
  Si  Si9  1  0.67516707  0.02407808  0.58543353  1
  Si  Si10  1  0.33711430  0.64668406  0.59182199  1
  Si  Si11  1  0.83997446  0.65106620  0.58986057  1
  Si  Si12  1  0.33926203  0.03010367  0.09196735  1
  Si  Si13  1  0.83791903  0.03046149  0.08768882  1
  Si  Si14  1  0.17759172  0.32274118  0.08787732  1
  Si  Si15  1  0.66824094  0.31202944  0.08558256  1
  Si  Si16  1  0.81298456  0.65858798  0.90784175  1
  Si  Si17  1  0.51784805  0.37746475  0.91505030  1
  Si  Si18  1  0.31387721  0.97868486  0.40731045  1
  Si  Si19  1  0.66670940  0.36636509  0.42015128  1
  Si  Si20  1  0.01743349  0.66087890  0.41443927  1
  S  S0  1  0.85525282  0.72157170  0.24713471  1
  S  S1  1  0.50124161  0.28896548  0.24397125  1
  S  S2  1  0.00247043  0.71523060  0.74388084  1
  S  S3  1  0.35316069  0.98668423  0.74533967  1
  S  S4  1  0.48707954  0.31235015  0.58400522  1
  S  S5  1  0.98832495  0.31954867  0.58579041  1
  S  S6  1  0.48714689  0.65514386  0.08576811  1
  S  S7  1  0.98895268  0.66409110  0.08601919  1
  S  S8  1  0.31748812  0.66071254  0.91474417  1
  S  S9  1  0.00913695  0.36230034  0.91815635  1
  S  S10  1  0.16684884  0.96298453  0.91861809  1
  S  S11  1  0.67176008  0.96196224  0.91365543  1
  S  S12  1  0.81619568  0.96785869  0.41426551  1
  S  S13  1  0.17037155  0.38012133  0.41335890  1
  S  S14  1  0.51384160  0.65621541  0.41791476  1
  O  O0  1  0.11395194  0.02929036  0.30694902  1
  O  O1  1  0.61321346  0.99430141  0.31113817  1
  O  O2  1  0.39499243  0.78610300  0.30607492  1
  O  O3  1  0.88838578  0.78144161  0.30391880  1
  O  O4  1  0.49944693  0.21376107  0.29780745  1
  O  O5  1  0.98767774  0.18981534  0.30328891  1
  O  O6  1  0.10634142  0.21603110  0.80376526  1
  O  O7  1  0.61148270  0.19220408  0.80673553  1
  O  O8  1  0.49012952  0.79307046  0.80374956  1
  O  O9  1  0.99648993  0.78918733  0.79568582  1
  O  O10  1  0.39088278  -0.00196017  0.80044635  1
  O  O11  1  0.89476074  0.00707979  0.81183365  1
  O  O12  1  0.40537635  0.98343163  0.69991165  1
  O  O13  1  0.90778183  0.98285028  0.70189102  1
  O  O14  1  0.08546700  0.18386023  0.69436121  1
  O  O15  1  0.58512462  0.18768872  0.69584130  1
  O  O16  1  0.00525382  0.81615815  0.69460857  1
  O  O17  1  0.51960441  0.83551969  0.69724540  1
  O  O18  1  0.40314561  0.82421760  0.19732576  1
  O  O19  1  0.91108961  0.83241879  0.20364492  1
  O  O20  1  0.01938686  0.20412226  0.19720608  1
  O  O21  1  0.50136331  0.18520354  0.19671820  1
  O  O22  1  0.08644830  0.98410850  0.19569877  1
  O  O23  1  0.58089052  0.98623702  0.20028845  1
  O  O24  1  0.44373879  0.32987275  0.63097876  1
  O  O25  1  0.95181606  0.35220484  0.63424890  1
  O  O26  1  0.23360815  0.12690559  0.63256959  1
  O  O27  1  0.72442491  0.10625770  0.64249586  1
  O  O28  1  0.32538920  0.54022402  0.64702605  1
  O  O29  1  0.83243653  0.53745788  0.64222089  1
  O  O30  1  0.45200383  0.55091967  0.13482888  1
  O  O31  1  0.95233088  0.56487347  0.13534718  1
  O  O32  1  0.32447156  0.10596097  0.14813390  1
  O  O33  1  0.82796830  0.12358253  0.14078760  1
  O  O34  1  0.21964036  0.34458314  0.14842803  1
  O  O35  1  0.73398089  0.34330676  0.13299407  1
  O  O36  1  0.22327002  0.28017915  0.03882284  1
  O  O37  1  0.70225680  0.27662765  0.02614838  1
  O  O38  1  0.43779486  0.58273929  0.03548988  1
  O  O39  1  0.94099458  0.58432548  0.03479236  1
  O  O40  1  0.36755385  0.16223345  0.04024007  1
  O  O41  1  0.85258363  0.13382816  0.02931648  1
  O  O42  1  0.19956154  0.12927454  0.52590142  1
  O  O43  1  0.71567304  0.14111756  0.53084747  1
  O  O44  1  0.35253264  0.56293946  0.53659331  1
  O  O45  1  0.86563068  0.58909155  0.53267837  1
  O  O46  1  0.44483303  0.30255863  0.52998879  1
  O  O47  1  0.93982667  0.29277917  0.53492055  1
  O  O48  1  0.26989619  0.66430766  0.96278699  1
  O  O49  1  0.77110295  0.68541529  0.96233742  1
  O  O50  1  0.05427087  0.45430976  0.96755647  1
  O  O51  1  0.56096783  0.46167293  0.97364144  1
  O  O52  1  0.16898410  0.88302532  0.97116262  1
  O  O53  1  0.66500975  0.87750963  0.96665764  1
  O  O54  1  0.27212790  0.87988948  0.46364707  1
  O  O55  1  0.77034652  0.86849601  0.46258970  1
  O  O56  1  0.16723342  0.45455538  0.46670152  1
  O  O57  1  0.66030132  0.44816647  0.47850445  1
  O  O58  1  0.06335265  0.66935941  0.47221989  1
  O  O59  1  0.56230055  0.66608448  0.46714815  1
  O  O60  1  0.07978322  0.66419596  0.36002371  1
  O  O61  1  0.55535624  0.64909516  0.36633236  1
  O  O62  1  0.25180204  0.85413065  0.35316244  1
  O  O63  1  0.77254973  0.89002553  0.36147456  1
  O  O64  1  0.16959753  0.47204483  0.36393603  1
  O  O65  1  0.67313317  0.48411355  0.36729621  1
  O  O66  1  0.05276532  0.44930764  0.86661007  1
  O  O67  1  0.57992933  0.50002535  0.86022644  1
  O  O68  1  0.16449626  0.86459961  0.86951591  1
  O  O69  1  0.67275790  0.86927434  0.86435671  1
  O  O70  1  0.27615009  0.66302313  0.86172422  1
  O  O71  1  0.75092244  0.65076322  0.85275390  1
  O  O72  1  0.01113861  0.82725492  0.41220158  1
  O  O73  1  0.50576089  0.80266410  0.41800935  1
  O  O74  1  0.40737986  0.01911640  0.40491683  1
  O  O75  1  0.89667068  0.97755926  0.41610463  1
  O  O76  1  0.09935086  0.21054430  0.41342474  1
  O  O77  1  0.58633786  0.18353123  0.41725878  1
  O  O78  1  0.00035029  0.19798346  0.92059496  1
  O  O79  1  0.52103919  0.20890632  0.91273173  1
  O  O80  1  0.09360838  0.97975416  0.92000945  1
  O  O81  1  0.60452666  0.99886475  0.91156727  1
  O  O82  1  0.39930949  0.80743256  0.91928784  1
  O  O83  1  0.90215698  0.81957661  0.90541059  1
  O  O84  1  0.49368102  0.16302392  0.58894771  1
  O  O85  1  0.99166808  0.16594281  0.59482829  1
  O  O86  1  0.07890685  0.01583084  0.59851156  1
  O  O87  1  0.58536406  0.02290118  0.59507236  1
  O  O88  1  0.41885737  0.83232488  0.60453875  1
  O  O89  1  0.92015983  0.83585295  0.60144594  1
  O  O90  1  0.49132147  0.81607327  0.09488042  1
  O  O91  1  0.99528294  0.82663750  0.09098207  1
  O  O92  1  0.42022283  0.00691314  0.10096695  1
  O  O93  1  0.91908872  0.00658569  0.10401379  1
  O  O94  1  0.08538745  0.14789615  0.09488429  1
  O  O95  1  0.58033907  0.13882004  0.09945876  1
  O  O96  1  0.33875281  0.12250766  0.74067408  1
  O  O97  1  0.82516755  0.13023921  0.74774958  1
  O  O98  1  0.24093725  0.33486214  0.74495759  1
  O  O99  1  0.73943155  0.34013796  0.74329510  1
  O  O100  1  0.42972005  0.52759882  0.74382588  1
  O  O101  1  0.92935494  0.55309720  0.74028282  1
  O  O102  1  0.32376177  0.51585562  0.24621029  1
  O  O103  1  0.84210755  0.55786413  0.24229791  1
  O  O104  1  0.42750098  0.30230330  0.24067451  1
  O  O105  1  0.92916865  0.33333409  0.24249257  1
  O  O106  1  0.24028814  0.14072821  0.24295910  1
  O  O107  1  0.74013779  0.14949611  0.24520860  1
  O  O108  1  0.32300981  0.51214697  0.91588177  1
  O  O109  1  0.80735760  0.48112614  0.90947651  1
  O  O110  1  0.42798312  0.35614726  0.90861961  1
  O  O111  1  0.92595810  0.34118878  0.91639160  1
  O  O112  1  0.24157711  0.12533901  0.91470944  1
  O  O113  1  0.75107065  0.12145186  0.91375054  1
  O  O114  1  0.30930071  0.14650247  0.40660351  1
  O  O115  1  0.82295056  0.12892316  0.41790152  1
  O  O116  1  0.24525610  0.36551763  0.41186562  1
  O  O117  1  0.75064688  0.35328728  0.41909584  1
  O  O118  1  0.43353836  0.50357268  0.41955749  1
  O  O119  1  0.92602487  0.50515378  0.40879755  1
  O  O120  1  0.15723707  0.46712001  0.08033902  1
  O  O121  1  0.64433127  0.45373452  0.08460309  1
  O  O122  1  0.07407998  0.69577274  0.08049778  1
  O  O123  1  0.57219112  0.69277343  0.07953687  1
  O  O124  1  0.25527177  0.85974441  0.08036415  1
  O  O125  1  0.75380568  0.85543353  0.08515187  1
  O  O126  1  0.14610710  0.83544366  0.58367785  1
  O  O127  1  0.65404541  0.83846017  0.58288811  1
  O  O128  1  0.25335471  0.65332935  0.58523593  1
  O  O129  1  0.75571648  0.65462294  0.58599106  1
  O  O130  1  0.07315692  0.45263980  0.57980746  1
  O  O131  1  0.57160587  0.45351915  0.58398710  1
  O  O132  1  0.14950483  0.82327677  0.25561489  1
  O  O133  1  0.65765441  0.82887485  0.24025657  1
  O  O134  1  0.25624203  0.70462789  0.25173467  1
  O  O135  1  0.77681803  0.72176695  0.24137494  1
  O  O136  1  0.09508556  0.48156812  0.25971560  1
  O  O137  1  0.57517932  0.44999286  0.23860730  1
  O  O138  1  0.15587549  0.48508352  0.74120919  1
  O  O139  1  0.64817325  0.47321690  0.75584367  1
  O  O140  1  0.07704369  0.70297804  0.74235479  1
  O  O141  1  0.59560554  0.71077923  0.75983671  1
  O  O142  1  0.27403764  0.82867742  0.74293536  1
  O  O143  1  0.75840264  0.80866610  0.75265631  1
loop_
_geom_bond_atom_site_label_1
_geom_bond_atom_site_label_2
_geom_bond_distance
_geom_bond_site_symmetry_2
Na0 O106 2.368842 1_565
Na0 O32 2.431776 1_565
Na0 O134 2.473416 1_555
Na0 O104 2.616434 1_565
Na0 O132 2.712215 1_555
Na0 O62 2.969874 1_555
Na1 O107 2.354991 1_555
Na1 O33 2.527957 1_555
Na1 O135 2.576301 1_545
Na1 O105 2.645263 1_555
Na1 O133 2.671440 1_545
Na2 O102 2.315941 1_555
Na2 O136 2.427827 1_555
Na2 O34 2.506649 1_555
Na2 O134 2.784226 1_555
Na2 O106 2.894581 1_555
Na3 O98 2.360525 1_555
Na3 O28 2.376369 1_555
Na3 O100 2.595156 1_555
Na3 O142 2.601220 1_555
Na3 O138 2.767196 1_555
Na4 O99 2.367589 1_555
Na4 O143 2.438602 1_555
Na4 O29 2.640085 1_555
Na4 O101 2.662052 1_555
Na4 O139 2.722205 1_555
Na4 O71 2.955878 1_555
Na5 O97 2.332907 1_565
Na5 O141 2.410717 1_555
Na5 O27 2.718432 1_565
Na5 O143 2.810070 1_555
Na5 O99 2.896884 1_565
Na5 O17 2.974043 1_555
Na5 O69 2.998668 1_555
Na6 O130 2.505982 1_555
Na6 O128 2.563020 1_555
Na6 O86 2.732038 1_555
Na6 O42 2.869921 1_555
Na6 O85 2.910831 1_455
Na6 O14 2.948362 1_555
Na6 O28 2.951779 1_555
Na7 O131 2.452048 1_555
Na7 O87 2.604742 1_555
Na7 O57 2.650482 1_555
Na7 O129 2.676718 1_555
Na7 O84 2.736458 1_555
Na7 O43 2.818730 1_555
Na8 O126 2.299554 1_555
Na8 O45 2.562432 1_455
Na8 O89 2.627528 1_455
Na8 O86 2.654582 1_565
Na8 O58 2.784382 1_555
Na9 O122 2.453219 1_555
Na9 O94 2.609983 1_565
Na9 O124 2.614178 1_555
Na9 O36 2.666994 1_565
Na9 O52 2.950393 1_554
Na10 O123 2.514837 1_555
Na10 O125 2.554850 1_555
Na10 O95 2.686357 1_565
Na10 O37 2.887937 1_565
Na10 O90 2.919107 1_555
Na10 O33 2.926959 1_565
Na11 O121 2.288994 1_555
Na11 O40 2.429495 1_555
Na11 O92 2.607645 1_555
Na11 O95 2.724003 1_555
Na11 O51 2.737748 1_554
Na12 O83 2.522837 1_545
Na12 O78 2.548056 1_655
Na12 O113 2.558312 1_555
Na12 O11 2.720584 1_555
Na12 O111 2.756681 1_555
Na12 O49 2.877104 1_545
Na12 O41 2.897100 1_556
Na13 O79 2.372889 1_555
Na13 O109 2.400938 1_555
Na13 O81 2.614111 1_545
Na13 O37 2.799251 1_556
Na13 O7 2.837454 1_555
Na14 O74 2.283683 1_555
Na14 O77 2.545496 1_555
Na14 O46 2.721620 1_555
Na14 O118 2.726774 1_555
Na15 O114 2.408982 1_555
Na15 O72 2.560065 1_545
Na15 O76 2.696480 1_555
Na15 O42 2.739208 1_555
Na15 O0 2.863682 1_555
Na15 O116 2.885716 1_555
Na16 O77 2.384732 1_555
Na16 O117 2.458002 1_555
Na16 O1 2.639237 1_545
Na16 O115 2.698763 1_555
Na16 O73 2.805669 1_545
Na16 O43 2.915506 1_555
Na17 O119 2.460780 1_555
Na17 O117 2.513545 1_555
Na17 O72 2.653608 1_655
Na17 O75 2.790868 1_555
Na17 O3 2.846357 1_555
Na17 O45 2.963430 1_555
Na18 O86 2.676578 1_665
Na18 O72 2.737566 1_655
Na18 O89 2.778125 1_555
Na18 O75 2.831553 1_555
Na18 O85 2.838733 1_565
Na18 O76 2.972582 1_665
Na19 O77 2.711197 1_565
Na19 O73 2.735966 1_555
Na19 O84 2.747507 1_565
Na19 O74 2.748662 1_565
Na19 O88 2.928819 1_555
Na19 O87 2.952453 1_565
Na20 O91 2.662798 1_555
Na20 O78 2.749319 1_664
Na20 O80 2.773109 1_654
Na20 O83 2.810104 1_554
Na20 O94 2.816220 1_665
Na20 O93 2.894643 1_565
Na21 O82 2.638730 1_545
Na21 O79 2.681797 1_555
Na21 O92 2.751173 1_556
Na21 O95 2.866054 1_556
Na21 O90 2.964444 1_546
Na22 O110 2.389960 1_555
Na22 O100 2.735511 1_555
Na22 O108 2.736388 1_555
Na22 O112 2.817025 1_555
Na22 O98 2.844927 1_555
Na22 O96 3.007777 1_555
Na23 O109 2.458477 1_555
Na23 O111 2.630174 1_555
Na23 O113 2.665198 1_555
Na23 O97 2.827733 1_555
Na23 O99 2.829474 1_555
Na23 O101 2.994951 1_555
Na24 O114 2.448048 1_555
Na24 O116 2.512653 1_555
Na24 O102 2.710424 1_555
Na24 O118 2.747383 1_555
Na24 O106 2.830122 1_555
Na25 O119 2.428722 1_555
Na25 O117 2.732815 1_555
Na25 O105 2.773983 1_555
Na25 O107 2.803960 1_555
Na25 O115 2.826749 1_555
Na25 O103 2.946505 1_555
Na26 O134 2.518788 1_555
Na26 O120 2.603040 1_555
Na26 O136 2.734171 1_555
Na26 O124 2.754439 1_555
Na26 O132 2.891329 1_555
Na26 O122 2.928481 1_555
Na27 O125 2.417101 1_555
Na27 O135 2.561051 1_555
Na27 O133 2.573423 1_555
Na27 O121 2.610594 1_555
Na27 O137 2.792868 1_555
Na27 O123 2.884483 1_555
Na28 O128 2.389786 1_555
Na28 O142 2.555121 1_555
Na28 O126 2.560875 1_555
Na28 O138 2.655406 1_555
Na28 O140 2.857373 1_555
Na28 O130 2.892153 1_555
Na29 O127 2.485217 1_555
Na29 O143 2.586816 1_555
Na29 O129 2.613284 1_555
Na29 O141 2.775749 1_555
Na29 O131 2.856965 1_555
Na29 O139 2.948787 1_555
La0 O5 2.197435 1_455
La0 O0 2.224826 1_555
La0 O72 2.370774 1_545
La0 O3 2.426265 1_445
La0 O76 2.442289 1_555
La0 O75 2.531918 1_445
La1 O2 2.198484 1_555
La1 O1 2.299687 1_555
La1 O74 2.383588 1_565
La1 O77 2.436073 1_565
La1 O4 2.452735 1_565
La1 O73 2.516019 1_555
La2 O6 2.208492 1_555
La2 O11 2.271048 1_455
La2 O83 2.354220 1_445
La2 O9 2.411035 1_445
La2 O80 2.519004 1_545
La2 O78 2.521123 1_555
La3 O8 2.224353 1_545
La3 O7 2.262398 1_555
La3 O79 2.342709 1_555
La3 O10 2.367006 1_555
La3 O81 2.498652 1_545
La3 O82 2.502404 1_545
La4 O26 2.243392 1_555
La4 O28 2.280524 1_555
La4 O98 2.330761 1_555
La4 O100 2.384259 1_555
La4 O24 2.449232 1_555
La4 O96 2.451642 1_555
La5 O27 2.218573 1_555
La5 O29 2.296504 1_555
La5 O97 2.351367 1_555
La5 O99 2.365641 1_555
La5 O25 2.460477 1_555
La5 O101 2.520029 1_555
La6 O34 2.241514 1_555
La6 O32 2.320857 1_555
La6 O106 2.356938 1_555
La6 O102 2.359412 1_555
La6 O30 2.452230 1_555
La6 O104 2.535859 1_555
La7 O35 2.230662 1_555
La7 O33 2.264874 1_555
La7 O107 2.340308 1_555
La7 O105 2.364981 1_555
La7 O103 2.459461 1_555
La7 O31 2.493973 1_555
La8 O40 2.307681 1_556
La8 O110 2.380900 1_555
La8 O36 2.432693 1_556
La8 O112 2.473862 1_555
La8 O108 2.568190 1_555
La8 O38 2.583634 1_556
La9 O37 2.326413 1_556
La9 O41 2.387678 1_556
La9 O39 2.502531 1_556
La9 O109 2.545344 1_555
La9 O111 2.576515 1_555
La9 O113 2.598687 1_555
La10 O44 2.265845 1_555
La10 O42 2.337447 1_555
La10 O116 2.545145 1_555
La10 O118 2.573373 1_555
La10 O46 2.624707 1_555
La10 O114 2.624753 1_555
La11 O117 2.318133 1_555
La11 O45 2.354582 1_555
La11 O43 2.414046 1_555
La11 O119 2.463780 1_555
La11 O47 2.558386 1_555
La11 O115 2.579179 1_555
La12 O120 2.227172 1_555
La12 O124 2.283514 1_555
La12 O48 2.339974 1_554
La12 O50 2.451051 1_554
La12 O52 2.477623 1_554
La12 O122 2.490932 1_555
La13 O49 2.188325 1_554
La13 O51 2.287027 1_554
La13 O121 2.362644 1_555
La13 O125 2.364421 1_555
La13 O53 2.519170 1_554
La13 O123 2.598841 1_555
La14 O54 2.181625 1_555
La14 O58 2.318151 1_555
La14 O128 2.359474 1_555
La14 O126 2.380507 1_555
La14 O56 2.496896 1_555
La14 O130 2.660833 1_555
La15 O129 2.295564 1_555
La15 O57 2.296325 1_555
La15 O127 2.300897 1_555
La15 O55 2.376028 1_555
La15 O59 2.423587 1_555
La15 O131 2.483176 1_555
La16 O65 2.245660 1_555
La16 O133 2.373875 1_555
La16 O61 2.410851 1_555
La16 O137 2.498996 1_555
La16 O63 2.501779 1_555
La16 O135 2.562614 1_555
La17 O138 2.242931 1_555
La17 O66 2.400853 1_555
La17 O70 2.464860 1_555
La17 O68 2.486949 1_555
La17 O140 2.508696 1_555
La17 O142 2.557808 1_555
Nb0 O14 1.949286 1_655
Nb0 O13 1.967898 1_545
Nb0 O89 1.993403 1_545
Nb0 O86 2.027044 1_655
Nb0 O85 2.112319 1_555
Nb0 O16 2.152721 1_645
Nb1 O17 1.896433 1_555
Nb1 O87 1.898449 1_565
Nb1 O88 1.944277 1_555
Nb1 O15 2.050658 1_565
Nb1 O12 2.277155 1_555
Nb1 O84 2.392660 1_565
Nb2 O20 1.898104 1_555
Nb2 O94 1.901186 1_555
Nb2 O93 1.947818 1_455
Nb2 O22 2.066477 1_545
Nb2 O19 2.260369 1_445
Nb2 O91 2.356379 1_445
Nb3 O23 1.951440 1_555
Nb3 O18 1.961516 1_555
Nb3 O92 2.016784 1_565
Nb3 O95 2.028350 1_565
Nb3 O90 2.109117 1_555
Nb3 O21 2.141201 1_565
Nb4 O60 1.925329 1_555
Nb4 O132 1.928174 1_555
Nb4 O62 1.946581 1_555
Nb4 O136 2.103085 1_555
Nb4 O134 2.195072 1_555
Nb4 O64 2.508818 1_555
Nb5 O67 1.908135 1_555
Nb5 O139 1.923907 1_555
Nb5 O71 1.950546 1_555
Nb5 O141 2.084380 1_555
Nb5 O143 2.209003 1_555
Nb5 O69 2.515851 1_555
O0 Si0 1.610003 1_545
O1 Si1 1.624278 1_555
O2 Si2 1.595051 1_555
O3 S0 1.488634 1_555
O4 S1 1.471181 1_555
O5 Si3 1.602214 1_655
O6 Si4 1.605118 1_555
O7 Si5 1.606488 1_555
O8 Si6 1.601128 1_555
O9 S2 1.463395 1_655
O10 S3 1.481338 1_545
O11 Si7 1.607113 1_545
O12 S3 1.489397 1_555
O13 Si7 1.745191 1_555
O14 Si4 1.728389 1_555
O15 Si5 1.676594 1_555
O16 S2 1.511168 1_555
O17 Si6 1.775338 1_555
O18 Si2 1.734594 1_555
O19 S0 1.490264 1_555
O20 Si3 1.776752 1_555
O21 S1 1.508203 1_555
O22 Si0 1.675686 1_555
O23 Si1 1.756144 1_555
O24 S4 1.458244 1_555
O25 S5 1.468979 1_555
O26 Si8 1.604149 1_555
O27 Si9 1.620796 1_555
O28 Si10 1.617668 1_555
O29 Si11 1.620722 1_555
O30 S6 1.471050 1_555
O31 S7 1.459430 1_555
O32 Si12 1.622130 1_555
O33 Si13 1.620321 1_555
O34 Si14 1.619667 1_555
O35 Si15 1.603452 1_555
O36 Si14 1.634870 1_555
O37 Si15 1.672084 1_555
O38 S6 1.469841 1_555
O39 S7 1.490980 1_555
O40 Si12 1.658539 1_555
O41 Si13 1.656590 1_555
O42 Si8 1.670516 1_555
O43 Si9 1.644648 1_555
O44 Si10 1.650597 1_555
O45 Si11 1.664204 1_555
O46 S4 1.502197 1_555
O47 S5 1.472088 1_555
O48 S8 1.480349 1_555
O49 Si16 1.620490 1_555
O50 S9 1.467930 1_555
O51 Si17 1.621933 1_555
O52 S10 1.486227 1_555
O53 S11 1.478069 1_555
O54 Si18 1.614405 1_555
O55 S12 1.478128 1_555
O56 S13 1.480898 1_555
O57 Si19 1.638894 1_555
O58 Si20 1.618032 1_555
O59 S14 1.471456 1_555
O60 Si20 1.758114 1_555
O61 S14 1.491126 1_555
O62 Si18 1.756488 1_555
O63 S12 1.491326 1_555
O64 S13 1.481395 1_555
O65 Si19 1.660438 1_555
O66 S9 1.492059 1_555
O67 Si17 1.767295 1_555
O68 S10 1.494864 1_555
O69 S11 1.484646 1_555
O70 S8 1.500960 1_555
O71 Si16 1.748269 1_555
O72 Si20 1.657163 1_555
O73 S14 1.485366 1_555
O74 Si18 1.624940 1_545
O75 S12 1.490835 1_555
O76 S13 1.503918 1_555
O77 Si19 1.650121 1_555
O78 S9 1.497104 1_555
O79 Si17 1.645992 1_555
O80 S10 1.484387 1_555
O81 S11 1.491986 1_555
O82 S8 1.489162 1_555
O83 Si16 1.624559 1_555
O84 S4 1.501398 1_555
O85 S5 1.519095 1_555
O86 Si8 1.699444 1_555
O87 Si9 1.723285 1_555
O88 Si10 1.701959 1_555
O89 Si11 1.681061 1_555
O90 S6 1.517989 1_555
O91 S7 1.503795 1_555
O92 Si12 1.680001 1_555
O93 Si13 1.718747 1_555
O94 Si14 1.722769 1_555
O95 Si15 1.697749 1_555
O96 S3 1.461992 1_545
O97 Si7 1.626712 1_545
O98 Si4 1.623571 1_555
O99 Si5 1.629760 1_555
O100 Si6 1.600089 1_555
O101 S2 1.478748 1_655
O102 Si2 1.625576 1_555
O103 S0 1.462083 1_555
O104 S1 1.476509 1_555
O105 Si3 1.597574 1_655
O106 Si0 1.622620 1_545
O107 Si1 1.634219 1_545
O108 S8 1.478190 1_555
O109 Si16 1.648092 1_555
O110 Si17 1.627890 1_555
O111 S9 1.495581 1_655
O112 S10 1.493936 1_545
O113 S11 1.516488 1_545
O114 Si18 1.652196 1_545
O115 S12 1.483950 1_545
O116 S13 1.503750 1_555
O117 Si19 1.667455 1_555
O118 S14 1.495061 1_555
O119 Si20 1.633551 1_655
O120 Si14 1.622448 1_555
O121 Si15 1.634003 1_555
O122 S7 1.500666 1_455
O123 S6 1.482340 1_555
O124 Si12 1.636150 1_565
O125 Si13 1.638487 1_565
O126 Si8 1.635577 1_565
O127 Si9 1.613868 1_565
O128 Si10 1.637505 1_555
O129 Si11 1.626684 1_555
O130 S5 1.480757 1_455
O131 S4 1.495716 1_555
O132 Si0 1.711435 1_555
O133 Si1 1.654706 1_555
O134 Si2 1.681601 1_555
O135 S0 1.502790 1_555
O136 Si3 1.665796 1_555
O137 S1 1.483018 1_555
O138 Si4 1.667550 1_555
O139 Si5 1.713109 1_555
O140 S2 1.485138 1_555
O141 Si6 1.672251 1_555
O142 S3 1.508515 1_555
O143 Si7 1.680588 1_555
