# generated using pymatgen
data_Li3FePCO7
_symmetry_space_group_name_H-M   'P 1'
_cell_length_a   8.18513999
_cell_length_b   8.18513999
_cell_length_c   8.56688739
_cell_angle_alpha   94.17405368
_cell_angle_beta   85.82594632
_cell_angle_gamma   75.99689212
_symmetry_Int_Tables_number   1
_chemical_formula_structural   Li3FePCO7
_chemical_formula_sum   'Li12 Fe4 P4 C4 O28'
_cell_volume   552.98939531
_cell_formula_units_Z   4
loop_
 _symmetry_equiv_pos_site_id
 _symmetry_equiv_pos_as_xyz
  1  'x, y, z'
loop_
 _atom_site_type_symbol
 _atom_site_label
 _atom_site_symmetry_multiplicity
 _atom_site_fract_x
 _atom_site_fract_y
 _atom_site_fract_z
 _atom_site_occupancy
  Li  Li0  1  0.52368400  0.72631700  0.10447900  1
  Li  Li1  1  0.02368400  0.22631700  0.10447900  1
  Li  Li2  1  0.47631600  0.27368400  0.89552100  1
  Li  Li3  1  0.97631600  0.77368400  0.89552100  1
  Li  Li4  1  0.85646900  0.12703900  0.72590800  1
  Li  Li5  1  0.35646900  0.62703900  0.72590800  1
  Li  Li6  1  0.14353000  0.87296200  0.27409100  1
  Li  Li7  1  0.64353000  0.37296200  0.27409100  1
  Li  Li8  1  0.62296100  0.89353100  0.72590800  1
  Li  Li9  1  0.12296100  0.39353100  0.72590800  1
  Li  Li10  1  0.37703900  0.10647000  0.27409100  1
  Li  Li11  1  0.87703900  0.60647000  0.27409100  1
  Fe  Fe0  1  0.26927900  0.48072100  0.32991000  1
  Fe  Fe1  1  0.73072200  0.51927900  0.67008900  1
  Fe  Fe2  1  0.76927900  0.98072100  0.32991000  1
  Fe  Fe3  1  0.23072200  0.01927900  0.67008900  1
  P  P0  1  0.49020000  0.75980100  0.41116000  1
  P  P1  1  0.99020000  0.25980100  0.41116000  1
  P  P2  1  0.50980000  0.24020000  0.58884000  1
  P  P3  1  0.00980000  0.74020000  0.58884000  1
  C  C0  1  0.70931300  0.04068700  0.03648400  1
  C  C1  1  0.20931300  0.54068700  0.03648400  1
  C  C2  1  0.29068700  0.95931300  0.96351600  1
  C  C3  1  0.79068700  0.45931300  0.96351600  1
  O  O0  1  0.46039200  0.28960800  0.42605500  1
  O  O1  1  0.96039200  0.78960800  0.42605500  1
  O  O2  1  0.53960800  0.71039300  0.57394600  1
  O  O3  1  0.03960800  0.21039300  0.57394600  1
  O  O4  1  0.83303100  0.91696900  0.06266600  1
  O  O5  1  0.33303100  0.41696900  0.06266600  1
  O  O6  1  0.16697000  0.08303100  0.93733400  1
  O  O7  1  0.66697000  0.58303100  0.93733400  1
  O  O8  1  0.38230400  0.86769600  0.84144500  1
  O  O9  1  0.88230400  0.36769600  0.84144500  1
  O  O10  1  0.61769700  0.13230300  0.15855600  1
  O  O11  1  0.11769700  0.63230300  0.15855600  1
  O  O12  1  0.33417900  0.91582200  0.43055200  1
  O  O13  1  0.83417900  0.41582200  0.43055200  1
  O  O14  1  0.66582200  0.08417800  0.56944900  1
  O  O15  1  0.16582200  0.58417800  0.56944900  1
  O  O16  1  0.67538700  0.07461300  0.89487300  1
  O  O17  1  0.17538700  0.57461300  0.89487300  1
  O  O18  1  0.32461300  0.92538800  0.10512700  1
  O  O19  1  0.82461300  0.42538800  0.10512700  1
  O  O20  1  0.36181700  0.20094100  0.69323400  1
  O  O21  1  0.86181700  0.70094100  0.69323400  1
  O  O22  1  0.54905900  0.38818300  0.69323400  1
  O  O23  1  0.04905900  0.88818300  0.69323400  1
  O  O24  1  0.63818200  0.79905900  0.30676700  1
  O  O25  1  0.13818200  0.29905900  0.30676700  1
  O  O26  1  0.45094100  0.61181800  0.30676700  1
  O  O27  1  0.95094100  0.11181800  0.30676700  1
loop_
_geom_bond_atom_site_label_1
_geom_bond_atom_site_label_2
_geom_bond_distance
_geom_bond_site_symmetry_2
Li0 O7 1.909648 1_554
Li0 O18 2.005629 1_555
Li0 O24 2.142964 1_555
Li0 O26 2.142972 1_555
Li1 O6 1.909648 1_554
Li1 O19 2.005629 1_455
Li1 O25 2.142964 1_555
Li1 O27 2.142972 1_455
Li2 O5 1.909641 1_556
Li2 O16 2.005629 1_555
Li2 O22 2.142965 1_555
Li2 O20 2.142965 1_555
Li3 O4 1.909641 1_556
Li3 O17 2.005629 1_655
Li3 O21 2.142965 1_555
Li3 O23 2.142965 1_655
Li4 O16 2.135924 1_555
Li4 O3 2.178874 1_655
Li4 O23 2.179499 1_645
Li4 O9 2.202905 1_555
Li4 O14 2.203565 1_555
Li5 O17 2.135924 1_555
Li5 O2 2.178874 1_555
Li5 O22 2.179499 1_555
Li5 O8 2.202905 1_555
Li5 O15 2.203565 1_555
Li6 O18 2.135925 1_555
Li6 O1 2.178878 1_455
Li6 O27 2.179495 1_465
Li6 O11 2.202907 1_555
Li6 O12 2.203587 1_555
Li7 O19 2.135925 1_555
Li7 O0 2.178878 1_555
Li7 O26 2.179495 1_555
Li7 O10 2.202907 1_555
Li7 O13 2.203587 1_555
Li8 O16 2.135924 1_565
Li8 O2 2.178864 1_555
Li8 O21 2.179499 1_555
Li8 O8 2.202905 1_555
Li8 O14 2.203565 1_565
Li9 O17 2.135924 1_555
Li9 O3 2.178864 1_555
Li9 O20 2.179499 1_555
Li9 O9 2.202905 1_455
Li9 O15 2.203565 1_555
Li10 O18 2.135919 1_545
Li10 O0 2.178874 1_555
Li10 O25 2.179501 1_555
Li10 O10 2.202900 1_555
Li10 O12 2.203581 1_545
Li11 O19 2.135919 1_555
Li11 O1 2.178874 1_555
Li11 O24 2.179501 1_555
Li11 O11 2.202900 1_655
Li11 O13 2.203581 1_555
Fe0 O26 2.040077 1_555
Fe0 O25 2.040077 1_555
Fe0 O0 2.182502 1_555
Fe0 O15 2.189140 1_555
Fe0 O11 2.240313 1_555
Fe0 O5 2.303598 1_555
Fe1 O21 2.040067 1_555
Fe1 O22 2.040079 1_555
Fe1 O2 2.182503 1_555
Fe1 O13 2.189125 1_555
Fe1 O9 2.240329 1_555
Fe1 O7 2.303607 1_555
Fe2 O27 2.040077 1_565
Fe2 O24 2.040077 1_555
Fe2 O1 2.182502 1_555
Fe2 O14 2.189140 1_565
Fe2 O10 2.240313 1_565
Fe2 O4 2.303598 1_555
Fe3 O20 2.040067 1_555
Fe3 O23 2.040079 1_545
Fe3 O3 2.182503 1_555
Fe3 O12 2.189125 1_545
Fe3 O8 2.240329 1_545
Fe3 O6 2.303607 1_555
C0 O4 1.292705 1_545
C0 O16 1.298752 1_554
C0 O10 1.310670 1_555
C1 O5 1.292705 1_555
C1 O17 1.298752 1_554
C1 O11 1.310670 1_555
C2 O6 1.292700 1_565
C2 O18 1.298750 1_556
C2 O8 1.310670 1_555
C3 O7 1.292700 1_555
C3 O19 1.298750 1_556
C3 O9 1.310670 1_555
O0 P2 1.535235 1_555
O1 P3 1.535235 1_655
O2 P0 1.535243 1_555
O3 P1 1.535243 1_455
O12 P0 1.561508 1_555
O13 P1 1.561508 1_555
O14 P2 1.561518 1_555
O15 P3 1.561518 1_555
O20 P2 1.562930 1_555
O21 P3 1.562930 1_655
O22 P2 1.562930 1_555
O23 P3 1.562930 1_555
O24 P0 1.562915 1_555
O25 P1 1.562915 1_455
O26 P0 1.562925 1_555
O27 P1 1.562925 1_555
