# generated using pymatgen
data_MgNbCrO4
_symmetry_space_group_name_H-M   'P 1'
_cell_length_a   5.68747909
_cell_length_b   5.68748111
_cell_length_c   5.68747947
_cell_angle_alpha   137.89531699
_cell_angle_beta   136.08807485
_cell_angle_gamma   62.46257661
_symmetry_Int_Tables_number   1
_chemical_formula_structural   MgNbCrO4
_chemical_formula_sum   'Mg1 Nb1 Cr1 O4'
_cell_volume   84.51554938
_cell_formula_units_Z   1
loop_
 _symmetry_equiv_pos_site_id
 _symmetry_equiv_pos_as_xyz
  1  'x, y, z'
loop_
 _atom_site_type_symbol
 _atom_site_label
 _atom_site_symmetry_multiplicity
 _atom_site_fract_x
 _atom_site_fract_y
 _atom_site_fract_z
 _atom_site_occupancy
  Mg  Mg0  1  0.43032200  0.43032200  0.00000000  1
  Nb  Nb0  1  0.00436200  0.00436200  0.00000000  1
  Cr  Cr0  1  0.73186200  0.23186200  0.50000000  1
  O  O0  1  0.49931500  0.99931500  0.50000000  1
  O  O1  1  0.22231200  0.22231200  0.00000000  1
  O  O2  1  0.99120900  0.49120900  0.50000000  1
  O  O3  1  0.79918800  0.79918800  0.00000000  1
loop_
_geom_bond_atom_site_label_1
_geom_bond_atom_site_label_2
_geom_bond_distance
_geom_bond_site_symmetry_2
Mg0 O1 2.023212 1_555
Mg0 O0 2.150446 1_544
Mg0 O0 2.150447 1_555
Mg0 O2 2.207438 1_555
Mg0 O2 2.207438 1_454
Nb0 O3 1.995628 1_445
Nb0 O2 2.047062 1_455
Nb0 O2 2.047062 1_444
Nb0 O1 2.119894 1_555
Nb0 O0 2.127080 1_444
Nb0 O0 2.127080 1_545
Cr0 O1 2.128541 1_555
Cr0 O1 2.128541 1_656
Cr0 O3 2.145442 1_545
Cr0 O3 2.145442 1_556
Cr0 O0 2.261872 1_545
Cr0 O2 2.522543 1_555
