# generated using pymatgen
data_Na7Ca3ZrP5SO24
_symmetry_space_group_name_H-M   'P 1'
_cell_length_a   9.39974176
_cell_length_b   9.41243191
_cell_length_c   22.72387999
_cell_angle_alpha   90.05069653
_cell_angle_beta   89.96839665
_cell_angle_gamma   120.10746512
_symmetry_Int_Tables_number   1
_chemical_formula_structural   Na7Ca3ZrP5SO24
_chemical_formula_sum   'Na21 Ca9 Zr3 P15 S3 O72'
_cell_volume   1739.23955012
_cell_formula_units_Z   3
loop_
 _symmetry_equiv_pos_site_id
 _symmetry_equiv_pos_as_xyz
  1  'x, y, z'
loop_
 _atom_site_type_symbol
 _atom_site_label
 _atom_site_symmetry_multiplicity
 _atom_site_fract_x
 _atom_site_fract_y
 _atom_site_fract_z
 _atom_site_occupancy
  Na  Na0  1  0.62062880  0.99725691  0.25072901  1
  Na  Na1  1  0.36620440  0.35253761  0.25351686  1
  Na  Na2  1  0.01382355  0.64843329  0.25024617  1
  Na  Na3  1  0.65463944  0.64438280  0.74805481  1
  Na  Na4  1  0.98864991  0.34945772  0.74787245  1
  Na  Na5  1  0.29648718  0.34539144  0.58624302  1
  Na  Na6  1  0.02522160  0.69231140  0.58891355  1
  Na  Na7  1  0.67509612  0.95642000  0.58571963  1
  Na  Na8  1  0.29517999  0.96031146  0.07798961  1
  Na  Na9  1  0.66202109  0.70095811  0.07272366  1
  Na  Na10  1  0.04237897  0.33920366  0.07377026  1
  Na  Na11  1  0.97937680  0.67785339  0.90609578  1
  Na  Na12  1  0.32088548  0.29600655  0.90599182  1
  Na  Na13  1  0.32563375  0.01402917  0.41101065  1
  Na  Na14  1  0.69339484  0.67895739  0.41942544  1
  Na  Na15  1  0.99256419  0.01638689  0.49571936  1
  Na  Na16  1  0.98270241  0.00005879  0.99290109  1
  Na  Na17  1  0.64844682  0.30192018  0.82497367  1
  Na  Na18  1  0.66637527  0.31985815  0.33639930  1
  Na  Na19  1  0.33220483  0.67755191  0.15987667  1
  Na  Na20  1  0.33336130  0.67039095  0.67167898  1
  Ca  Ca0  1  0.00587153  0.00962816  0.35142289  1
  Ca  Ca1  1  0.99689389  0.00046793  0.84744115  1
  Ca  Ca2  1  0.00020891  0.99885465  0.65718762  1
  Ca  Ca3  1  0.00603530  0.99977420  0.14606328  1
  Ca  Ca4  1  0.66309168  0.33187514  0.68567285  1
  Ca  Ca5  1  0.66263125  0.32928901  0.17940613  1
  Ca  Ca6  1  0.33838208  0.67291319  0.01200184  1
  Ca  Ca7  1  0.32677317  0.65808699  0.51172080  1
  Ca  Ca8  1  0.32806662  0.66316676  0.32537224  1
  Zr  Zr0  1  0.66636732  0.32813513  0.98132039  1
  Zr  Zr1  1  0.68057692  0.34065607  0.48209820  1
  Zr  Zr2  1  0.33655937  0.67587046  0.81955102  1
  P  P0  1  0.30650195  0.99658598  0.25017757  1
  P  P1  1  0.30788375  0.31895705  0.75301386  1
  P  P2  1  0.00639502  0.69098211  0.75138255  1
  P  P3  1  0.68868850  0.99221344  0.74791911  1
  P  P4  1  0.96625866  0.33150854  0.58629885  1
  P  P5  1  0.66816808  0.63407131  0.58337425  1
  P  P6  1  0.96347216  0.63031079  0.08342125  1
  P  P7  1  0.66818144  0.03472286  0.08507635  1
  P  P8  1  0.36886138  0.33480363  0.08303660  1
  P  P9  1  0.63386240  0.65752402  0.91972629  1
  P  P10  1  0.03093051  0.37027738  0.92012171  1
  P  P11  1  0.33586661  0.97243554  0.92131712  1
  P  P12  1  0.63879178  0.97740821  0.41835619  1
  P  P13  1  0.34408520  0.35649129  0.41841783  1
  P  P14  1  0.02061507  0.66738462  0.41652264  1
  S  S0  1  0.69376307  0.69660021  0.25048752  1
  S  S1  1  0.00218823  0.30708671  0.24738235  1
  S  S2  1  0.36852638  0.03745585  0.58014084  1
  O  O0  1  0.21670390  0.00785114  0.30527840  1
  O  O1  1  0.78893415  0.78335107  0.30354380  1
  O  O2  1  0.98440865  0.20148092  0.29793036  1
  O  O3  1  0.22272999  0.21755856  0.80802999  1
  O  O4  1  0.98515813  0.77845044  0.80488786  1
  O  O5  1  0.81038361  0.01539136  0.79662172  1
  O  O6  1  0.74657290  0.95448845  0.68898583  1
  O  O7  1  0.20607882  0.24349066  0.69635713  1
  O  O8  1  0.02741325  0.78408301  0.69335918  1
  O  O9  1  0.77595317  0.79308222  0.19675395  1
  O  O10  1  0.01257196  0.22956694  0.19184930  1
  O  O11  1  0.20833596  0.98491750  0.19377191  1
  O  O12  1  0.88784818  0.34238445  0.64372731  1
  O  O13  1  0.46804724  0.11950373  0.63212961  1
  O  O14  1  0.65228663  0.53822919  0.63967658  1
  O  O15  1  0.88792087  0.54197211  0.14149835  1
  O  O16  1  0.65615846  0.10622958  0.14413722  1
  O  O17  1  0.45680075  0.34847379  0.14127518  1
  O  O18  1  0.47783532  0.32839161  0.03056165  1
  O  O19  1  0.85093915  0.52138399  0.03029732  1
  O  O20  1  0.67186323  0.15179710  0.03390404  1
  O  O21  1  0.45701629  0.13393076  0.52587476  1
  O  O22  1  0.67163232  0.52759196  0.52919785  1
  O  O23  1  0.85040515  0.32570117  0.53403773  1
  O  O24  1  0.56420079  0.67713304  0.97757411  1
  O  O25  1  0.12200242  0.44417165  0.97761153  1
  O  O26  1  0.31364742  0.88385286  0.97950203  1
  O  O27  1  0.55054476  0.87137625  0.47237034  1
  O  O28  1  0.33083517  0.44326363  0.47328916  1
  O  O29  1  0.12868068  0.69023312  0.47012935  1
  O  O30  1  0.09217755  0.64416032  0.35897769  1
  O  O31  1  0.53357295  0.90494247  0.36206737  1
  O  O32  1  0.36948155  0.45800592  0.36178504  1
  O  O33  1  0.13018251  0.49250624  0.86829744  1
  O  O34  1  0.35110228  0.86774589  0.87038197  1
  O  O35  1  0.51517555  0.64092200  0.86763480  1
  O  O36  1  0.98893049  0.81337617  0.41486278  1
  O  O37  1  0.80889189  0.99271027  0.41431182  1
  O  O38  1  0.19915953  0.17882427  0.41640567  1
  O  O39  1  0.01488434  0.20158858  0.91187162  1
  O  O40  1  0.18686659  0.99645173  0.91237701  1
  O  O41  1  0.81196348  0.79706483  0.91215499  1
  O  O42  1  0.97897408  0.17411135  0.58124222  1
  O  O43  1  0.20625861  0.02912699  0.58148654  1
  O  O44  1  0.83137987  0.80107637  0.58006988  1
  O  O45  1  0.96785941  0.79707382  0.07832329  1
  O  O46  1  0.82902351  0.02801815  0.07862518  1
  O  O47  1  0.20012777  0.17383333  0.07800837  1
  O  O48  1  0.66769585  0.14345244  0.74690135  1
  O  O49  1  0.48658352  0.35449904  0.75029224  1
  O  O50  1  0.85556728  0.51421567  0.75068807  1
  O  O51  1  0.68105504  0.53166562  0.24965927  1
  O  O52  1  0.85718300  0.33206404  0.24838206  1
  O  O53  1  0.48166647  0.15428330  0.25114605  1
  O  O54  1  0.63470521  0.48871045  0.91963016  1
  O  O55  1  0.85878700  0.36213197  0.92057537  1
  O  O56  1  0.49615765  0.14656358  0.92059823  1
  O  O57  1  0.65582261  0.15291815  0.42510868  1
  O  O58  1  0.50616933  0.34226595  0.42256270  1
  O  O59  1  0.84335873  0.50863425  0.42328051  1
  O  O60  1  0.34743570  0.48665447  0.07832770  1
  O  O61  1  0.13827316  0.65411075  0.07945004  1
  O  O62  1  0.51550292  0.86140238  0.08016074  1
  O  O63  1  0.34406475  0.86860133  0.57756682  1
  O  O64  1  0.51705309  0.65819260  0.57916351  1
  O  O65  1  0.13789676  0.48802707  0.58094435  1
  O  O66  1  0.32370812  0.83951987  0.25111275  1
  O  O67  1  0.52491019  0.67439290  0.25222958  1
  O  O68  1  0.15604620  0.47066621  0.25149702  1
  O  O69  1  0.31841425  0.49340865  0.75921805  1
  O  O70  1  0.16371344  0.67180261  0.75909224  1
  O  O71  1  0.51656751  0.83239671  0.76074826  1
loop_
_geom_bond_atom_site_label_1
_geom_bond_atom_site_label_2
_geom_bond_distance
_geom_bond_site_symmetry_2
Na0 O53 2.414036 1_565
Na0 O66 2.415935 1_555
Na0 O16 2.586577 1_565
Na0 O31 2.667205 1_555
Na0 O67 2.702380 1_555
Na0 O52 2.801473 1_565
Na1 O51 2.569640 1_555
Na1 O53 2.587385 1_555
Na1 O67 2.621059 1_555
Na1 O32 2.646593 1_555
Na1 O17 2.694839 1_555
Na1 O68 2.710069 1_555
Na2 O66 2.542423 1_555
Na2 O52 2.576464 1_455
Na2 O30 2.584729 1_555
Na2 O68 2.613791 1_555
Na2 O15 2.705638 1_455
Na2 O51 2.746483 1_455
Na3 O49 2.370387 1_555
Na3 O14 2.652849 1_555
Na3 O71 2.683692 1_555
Na3 O50 2.719097 1_555
Na3 O69 2.750654 1_555
Na3 O6 2.922888 1_555
Na3 O4 2.996795 1_555
Na3 O35 3.009453 1_555
Na4 O50 2.433066 1_555
Na4 O12 2.538075 1_555
Na4 O70 2.639791 1_655
Na4 O48 2.644443 1_555
Na4 O69 2.701332 1_655
Na4 O7 2.929608 1_655
Na4 O5 2.939422 1_555
Na4 O33 3.044955 1_655
Na5 O65 2.459162 1_555
Na5 O42 2.586954 1_455
Na5 O64 2.620923 1_555
Na5 O43 2.656890 1_555
Na5 O7 2.662216 1_555
Na5 O28 2.691832 1_555
Na6 O44 2.506091 1_455
Na6 O8 2.521550 1_555
Na6 O63 2.610133 1_555
Na6 O65 2.625643 1_555
Na6 O43 2.750103 1_565
Na6 O29 2.871950 1_555
Na7 O64 2.434033 1_555
Na7 O6 2.443844 1_555
Na7 O44 2.542996 1_555
Na7 O42 2.548719 1_565
Na7 O27 2.775844 1_555
Na7 O63 2.796369 1_555
Na8 O26 2.383030 1_554
Na8 O61 2.493673 1_555
Na8 O47 2.576606 1_565
Na8 O45 2.661654 1_455
Na8 O62 2.663191 1_555
Na8 O11 2.797948 1_555
Na9 O24 2.316285 1_554
Na9 O62 2.508356 1_555
Na9 O45 2.547567 1_555
Na9 O60 2.616289 1_555
Na9 O46 2.666511 1_565
Na9 O9 2.984930 1_555
Na10 O25 2.360324 1_554
Na10 O60 2.483284 1_555
Na10 O46 2.592377 1_455
Na10 O61 2.633199 1_555
Na10 O47 2.635663 1_555
Na10 O10 2.838495 1_555
Na11 O41 2.350596 1_555
Na11 O4 2.478073 1_555
Na11 O55 2.616499 1_555
Na11 O40 2.636063 1_655
Na11 O54 2.823791 1_555
Na11 O33 2.875359 1_655
Na12 O3 2.380705 1_555
Na12 O40 2.448449 1_545
Na12 O39 2.552687 1_555
Na12 O54 2.592227 1_555
Na12 O56 2.670100 1_555
Na12 O35 2.947835 1_555
Na13 O38 2.384076 1_555
Na13 O0 2.601389 1_555
Na13 O58 2.689406 1_555
Na13 O57 2.715565 1_555
Na13 O36 2.755819 1_445
Na13 O31 2.849661 1_545
Na13 O21 2.865624 1_555
Na13 O29 2.977338 1_545
Na14 O36 2.408809 1_555
Na14 O37 2.587923 1_555
Na14 O59 2.613882 1_555
Na14 O58 2.747781 1_555
Na14 O1 2.796934 1_555
Na14 O22 2.829718 1_555
Na14 O32 2.992977 1_555
Na14 O27 2.994131 1_555
Na15 O37 2.463590 1_545
Na15 O42 2.486362 1_555
Na15 O38 2.525745 1_655
Na15 O36 2.637564 1_545
Na15 O44 2.645718 1_545
Na15 O43 2.758596 1_655
Na16 O46 2.515547 1_556
Na16 O39 2.551465 1_655
Na16 O41 2.552203 1_545
Na16 O40 2.663397 1_645
Na16 O45 2.678915 1_546
Na16 O47 2.690263 1_656
Na17 O48 2.381319 1_555
Na17 O49 2.489887 1_555
Na17 O50 2.594643 1_555
Na17 O56 2.609853 1_555
Na17 O55 2.797890 1_555
Na17 O54 2.820506 1_555
Na18 O57 2.528124 1_555
Na18 O58 2.541750 1_555
Na18 O53 2.545599 1_555
Na18 O59 2.618085 1_555
Na18 O52 2.649546 1_555
Na18 O51 2.758507 1_555
Na19 O62 2.501078 1_555
Na19 O61 2.512223 1_555
Na19 O66 2.597154 1_555
Na19 O60 2.633425 1_555
Na19 O68 2.763489 1_555
Na19 O67 2.782897 1_555
Na20 O70 2.550774 1_555
Na20 O69 2.553922 1_555
Na20 O71 2.598325 1_555
Na20 O65 2.721618 1_555
Na20 O64 2.758386 1_555
Na20 O63 2.807639 1_555
Ca0 O0 2.249032 1_555
Ca0 O38 2.261344 1_555
Ca0 O2 2.269108 1_455
Ca0 O37 2.279820 1_445
Ca0 O36 2.285848 1_445
Ca0 O1 2.349305 1_445
Ca1 O5 2.162507 1_555
Ca1 O4 2.253759 1_545
Ca1 O3 2.265624 1_655
Ca1 O39 2.330236 1_655
Ca1 O40 2.332004 1_645
Ca1 O41 2.347963 1_545
Ca2 O8 2.312865 1_555
Ca2 O7 2.316670 1_565
Ca2 O6 2.319549 1_455
Ca2 O42 2.464759 1_465
Ca2 O44 2.467449 1_455
Ca2 O43 2.497025 1_565
Ca3 O11 2.253926 1_555
Ca3 O47 2.325265 1_565
Ca3 O45 2.333861 1_455
Ca3 O9 2.359894 1_455
Ca3 O10 2.372176 1_565
Ca3 O46 2.373781 1_465
Ca4 O14 2.253200 1_555
Ca4 O13 2.271305 1_555
Ca4 O48 2.272558 1_555
Ca4 O12 2.273741 1_555
Ca4 O50 2.298876 1_555
Ca4 O49 2.303363 1_555
Ca5 O17 2.208914 1_555
Ca5 O16 2.218777 1_555
Ca5 O15 2.232038 1_555
Ca5 O53 2.335604 1_555
Ca5 O52 2.399348 1_555
Ca5 O51 2.423016 1_555
Ca6 O25 2.233495 1_554
Ca6 O26 2.237723 1_554
Ca6 O24 2.243402 1_554
Ca6 O62 2.313648 1_555
Ca6 O60 2.346670 1_555
Ca6 O61 2.362590 1_555
Ca7 O28 2.219675 1_555
Ca7 O27 2.240284 1_555
Ca7 O29 2.240443 1_555
Ca7 O65 2.310609 1_555
Ca7 O64 2.355633 1_555
Ca7 O63 2.421432 1_555
Ca8 O30 2.265388 1_555
Ca8 O31 2.278984 1_555
Ca8 O32 2.307070 1_555
Ca8 O66 2.382809 1_555
Ca8 O68 2.402913 1_555
Ca8 O67 2.449081 1_555
O0 P0 1.542682 1_545
O1 S0 1.478921 1_555
O2 S1 1.473268 1_655
O3 P1 1.532683 1_555
O4 P2 1.535833 1_655
O5 P3 1.526933 1_545
O6 P3 1.551692 1_555
O7 P1 1.547787 1_555
O8 P2 1.540615 1_555
O9 S0 1.486452 1_555
O10 S1 1.484606 1_555
O11 P0 1.551059 1_555
O12 P4 1.526801 1_555
O13 S2 1.463558 1_555
O14 P5 1.529605 1_555
O15 P6 1.531634 1_555
O16 P7 1.530205 1_555
O17 P8 1.531483 1_555
O18 P8 1.592273 1_555
O18 Zr0 2.096350 1_554
O19 P6 1.593283 1_555
O19 Zr0 2.095171 1_554
O20 P7 1.591114 1_555
O20 Zr0 2.067583 1_554
O21 S2 1.510017 1_555
O21 Zr1 2.256222 1_555
O22 P5 1.597386 1_555
O22 Zr1 2.096063 1_555
O23 P4 1.593996 1_555
O23 Zr1 2.046694 1_555
O24 P9 1.520092 1_555
O25 P10 1.524968 1_555
O26 P11 1.521160 1_555
O27 P12 1.536603 1_555
O28 P13 1.528851 1_555
O29 P14 1.530918 1_555
O30 P14 1.535007 1_555
O31 P12 1.550024 1_555
O32 P13 1.548910 1_555
O33 P10 1.582782 1_555
O33 Zr2 2.147326 1_555
O34 P11 1.571796 1_555
O34 Zr2 2.088870 1_555
O35 P9 1.580020 1_555
O35 Zr2 2.162798 1_555
O36 P14 1.545658 1_655
O37 P12 1.534434 1_555
O38 P13 1.539098 1_555
O39 P10 1.529104 1_555
O40 P11 1.540118 1_555
O41 P9 1.533440 1_555
O42 P4 1.549074 1_555
O43 S2 1.487796 1_555
O44 P5 1.552701 1_555
O45 P6 1.553797 1_555
O46 P7 1.551353 1_555
O47 P8 1.553461 1_555
O48 P3 1.532245 1_545
O49 P1 1.540586 1_555
O50 P2 1.553047 1_655
O51 S0 1.496191 1_555
O52 S1 1.495000 1_655
O53 P0 1.569319 1_545
O54 P9 1.592934 1_555
O54 Zr0 2.189421 1_555
O55 P10 1.581066 1_655
O55 Zr0 2.167153 1_555
O56 P11 1.574544 1_545
O56 Zr0 2.153968 1_555
O57 P12 1.585073 1_545
O57 Zr1 2.106548 1_555
O58 P13 1.597761 1_555
O58 Zr1 2.132018 1_555
O59 P14 1.592109 1_655
O59 Zr1 2.049845 1_555
O60 P8 1.544004 1_555
O61 P6 1.545527 1_455
O62 P7 1.544174 1_565
O63 S2 1.488452 1_565
O64 P5 1.549868 1_555
O65 P4 1.550371 1_455
O66 P0 1.565930 1_555
O67 S0 1.493816 1_555
O68 S1 1.495616 1_555
O69 P1 1.600759 1_555
O69 Zr2 2.135520 1_555
O70 P2 1.586869 1_555
O70 Zr2 2.113903 1_555
O71 P3 1.588708 1_555
O71 Zr2 2.078244 1_555
