# generated using pymatgen
data_Na4Nb3AlSi5SO24
_symmetry_space_group_name_H-M   'P 1'
_cell_length_a   8.91133235
_cell_length_b   8.89833448
_cell_length_c   22.59908969
_cell_angle_alpha   89.72102171
_cell_angle_beta   90.72463513
_cell_angle_gamma   119.70003794
_symmetry_Int_Tables_number   1
_chemical_formula_structural   Na4Nb3AlSi5SO24
_chemical_formula_sum   'Na12 Nb9 Al3 Si15 S3 O72'
_cell_volume   1556.47602289
_cell_formula_units_Z   3
loop_
 _symmetry_equiv_pos_site_id
 _symmetry_equiv_pos_as_xyz
  1  'x, y, z'
loop_
 _atom_site_type_symbol
 _atom_site_label
 _atom_site_symmetry_multiplicity
 _atom_site_fract_x
 _atom_site_fract_y
 _atom_site_fract_z
 _atom_site_occupancy
  Na  Na0  1  0.63547238  0.62908454  0.74659197  1
  Na  Na1  1  0.99334173  0.36255098  0.74834309  1
  Na  Na2  1  0.37185797  0.00623921  0.74677444  1
  Na  Na3  1  0.66409680  0.69233652  0.08402039  1
  Na  Na4  1  0.02788852  0.33688662  0.08367485  1
  Na  Na5  1  0.32747583  0.02831315  0.41597704  1
  Na  Na6  1  0.99220632  0.99607211  0.49592716  1
  Na  Na7  1  0.00607555  0.99740079  0.99629587  1
  Na  Na8  1  0.66696029  0.33298161  0.83398153  1
  Na  Na9  1  0.68035505  0.33788182  0.32897179  1
  Na  Na10  1  0.33071558  0.67079676  0.16804975  1
  Na  Na11  1  0.33764667  0.66993114  0.66283370  1
  Nb  Nb0  1  0.99852819  0.00069485  0.85460863  1
  Nb  Nb1  1  0.00155539  0.99143544  0.64424361  1
  Nb  Nb2  1  0.00833080  0.01220355  0.14549092  1
  Nb  Nb3  1  0.66608650  0.33419896  0.97845418  1
  Nb  Nb4  1  0.66119480  0.34109823  0.47682965  1
  Nb  Nb5  1  0.33247110  0.67016324  0.02110542  1
  Nb  Nb6  1  0.34692743  0.67997717  0.51888694  1
  Nb  Nb7  1  0.32119794  0.65485544  0.31488767  1
  Nb  Nb8  1  0.33385063  0.66667813  0.81450775  1
  Al  Al0  1  0.99049088  0.01403023  0.35920778  1
  Al  Al1  1  0.65005778  0.32882548  0.68843562  1
  Al  Al2  1  0.68459820  0.33271302  0.18117968  1
  Si  Si0  1  0.98555287  0.28464416  0.25336190  1
  Si  Si1  1  0.29168086  0.28817595  0.74869764  1
  Si  Si2  1  0.99218771  0.70075358  0.74933049  1
  Si  Si3  1  0.71077331  0.00692119  0.74707052  1
  Si  Si4  1  0.38527874  0.05105517  0.58621250  1
  Si  Si5  1  0.66337046  0.61467925  0.58753566  1
  Si  Si6  1  0.95269845  0.61983438  0.08625057  1
  Si  Si7  1  0.65948401  0.04846038  0.08651594  1
  Si  Si8  1  0.39168939  0.33227609  0.08797369  1
  Si  Si9  1  0.62594303  0.66773945  0.91784557  1
  Si  Si10  1  0.04143830  0.37586662  0.91716607  1
  Si  Si11  1  0.33411470  0.95998358  0.91629723  1
  Si  Si12  1  0.63248446  0.95821868  0.41339146  1
  Si  Si13  1  0.32096209  0.37128350  0.41706900  1
  Si  Si14  1  0.03840587  0.67332907  0.41564970  1
  S  S0  1  0.29306621  0.00568478  0.25184505  1
  S  S1  1  0.71464578  0.71065245  0.25140422  1
  S  S2  1  0.95329968  0.33499295  0.58501854  1
  O  O0  1  0.20994816  0.02343805  0.30437576  1
  O  O1  1  0.82309719  0.79548849  0.30322438  1
  O  O2  1  0.97383766  0.16127461  0.30711132  1
  O  O3  1  0.19925782  0.16250752  0.80602037  1
  O  O4  1  0.95979519  0.79610318  0.80552589  1
  O  O5  1  0.83524277  0.03804243  0.80560493  1
  O  O6  1  0.80214429  0.96334946  0.69249184  1
  O  O7  1  0.15937706  0.19934744  0.69261527  1
  O  O8  1  0.03850319  0.83590640  0.69314877  1
  O  O9  1  0.79393440  0.81674685  0.19565889  1
  O  O10  1  0.02355513  0.19524974  0.19283102  1
  O  O11  1  0.17875325  0.97497864  0.19727720  1
  O  O12  1  0.87539491  0.35862227  0.63896206  1
  O  O13  1  0.50002311  0.13637238  0.64489944  1
  O  O14  1  0.64141406  0.50153973  0.64563165  1
  O  O15  1  0.86859640  0.49491631  0.14149605  1
  O  O16  1  0.63223509  0.13501951  0.14324428  1
  O  O17  1  0.51663472  0.36980958  0.14401531  1
  O  O18  1  0.46986282  0.30062095  0.02686273  1
  O  O19  1  0.83082641  0.53669645  0.02673675  1
  O  O20  1  0.70830446  0.17050403  0.02736034  1
  O  O21  1  0.47296921  0.16425527  0.52559068  1
  O  O22  1  0.69552607  0.52733729  0.52781822  1
  O  O23  1  0.84617144  0.30804670  0.53103489  1
  O  O24  1  0.53344496  0.69493295  0.97599547  1
  O  O25  1  0.16245231  0.46606205  0.97604886  1
  O  O26  1  0.30487182  0.83372827  0.97350515  1
  O  O27  1  0.53363399  0.83574889  0.47259477  1
  O  O28  1  0.29954533  0.46923423  0.47430362  1
  O  O29  1  0.16946373  0.70525070  0.47235460  1
  O  O30  1  0.13459707  0.63416098  0.35908859  1
  O  O31  1  0.49361319  0.86464815  0.35839103  1
  O  O32  1  0.36480451  0.50070594  0.35933595  1
  O  O33  1  0.13382115  0.49594031  0.85790946  1
  O  O34  1  0.36191496  0.86791461  0.85727848  1
  O  O35  1  0.50541088  0.63819285  0.85801878  1
  O  O36  1  0.03086137  0.84704640  0.40249352  1
  O  O37  1  0.81623577  0.97109160  0.40912781  1
  O  O38  1  0.16608916  0.17763726  0.40736678  1
  O  O39  1  0.02722731  0.18760227  0.91008991  1
  O  O40  1  0.16003844  0.97313873  0.91029657  1
  O  O41  1  0.81314387  0.83981635  0.91031646  1
  O  O42  1  0.97118572  0.17641291  0.58897512  1
  O  O43  1  0.18967552  0.03092459  0.59027219  1
  O  O44  1  0.83380939  0.81241573  0.59027701  1
  O  O45  1  0.96924185  0.81124554  0.09364672  1
  O  O46  1  0.83379184  0.02084383  0.09313104  1
  O  O47  1  0.18939169  0.16530609  0.09214001  1
  O  O48  1  0.69307002  0.17858098  0.74047990  1
  O  O49  1  0.48228880  0.30951102  0.74382713  1
  O  O50  1  0.82652142  0.51120190  0.74001730  1
  O  O51  1  0.69219867  0.53556647  0.24415244  1
  O  O52  1  0.81953205  0.31055948  0.24203303  1
  O  O53  1  0.46340788  0.16042463  0.24354239  1
  O  O54  1  0.64043255  0.49379901  0.92209756  1
  O  O55  1  0.85346298  0.36010797  0.92259991  1
  O  O56  1  0.50662297  0.14634405  0.92250459  1
  O  O57  1  0.63779595  0.14297136  0.42493259  1
  O  O58  1  0.49788295  0.35390747  0.42268108  1
  O  O59  1  0.85504477  0.49496597  0.42436389  1
  O  O60  1  0.35809372  0.49861199  0.07881611  1
  O  O61  1  0.14379827  0.63710970  0.07732977  1
  O  O62  1  0.50101957  0.84883849  0.07830746  1
  O  O63  1  0.35409900  0.85236417  0.57739960  1
  O  O64  1  0.49166330  0.63712526  0.57764393  1
  O  O65  1  0.12787541  0.48975266  0.57890973  1
  O  O66  1  0.30863551  0.84445633  0.25404613  1
  O  O67  1  0.53926368  0.69815728  0.25488791  1
  O  O68  1  0.16888049  0.47954038  0.25640545  1
  O  O69  1  0.30903060  0.48064977  0.75546365  1
  O  O70  1  0.17060591  0.69004821  0.75510890  1
  O  O71  1  0.52061165  0.83126372  0.75537144  1
loop_
_geom_bond_atom_site_label_1
_geom_bond_atom_site_label_2
_geom_bond_distance
_geom_bond_site_symmetry_2
Na0 O50 2.407998 1_555
Na0 O49 2.471195 1_555
Na0 O71 2.481329 1_555
Na0 O69 2.540076 1_555
Na0 O14 2.566019 1_555
Na0 O35 2.803541 1_555
Na0 O4 2.828632 1_555
Na0 O6 2.860196 1_555
Na1 O48 2.349819 1_555
Na1 O50 2.435988 1_555
Na1 O69 2.470847 1_655
Na1 O70 2.539246 1_655
Na1 O12 2.667399 1_555
Na1 O33 2.754066 1_655
Na1 O5 2.824201 1_555
Na1 O7 2.842261 1_655
Na2 O49 2.371442 1_555
Na2 O70 2.484214 1_545
Na2 O48 2.494768 1_555
Na2 O71 2.500979 1_545
Na2 O13 2.583768 1_555
Na2 O34 2.761688 1_545
Na2 O8 2.838278 1_545
Na2 O3 2.877766 1_555
Na3 O45 2.386921 1_555
Na3 O60 2.399422 1_555
Na3 O62 2.463093 1_555
Na3 O46 2.547895 1_565
Na3 O24 2.696307 1_554
Na3 O9 2.759265 1_555
Na3 O19 2.811872 1_555
Na3 O17 2.841089 1_555
Na4 O61 2.343069 1_555
Na4 O46 2.475802 1_455
Na4 O60 2.559729 1_555
Na4 O47 2.570325 1_555
Na4 O25 2.712143 1_554
Na4 O10 2.756644 1_555
Na4 O20 2.769622 1_455
Na4 O15 2.782565 1_455
Na5 O36 2.332568 1_545
Na5 O38 2.399111 1_555
Na5 O57 2.433355 1_555
Na5 O58 2.522258 1_555
Na5 O0 2.710892 1_555
Na5 O21 2.770283 1_555
Na5 O29 2.805105 1_545
Na5 O31 2.865344 1_545
Na6 O37 2.436658 1_555
Na6 O38 2.565746 1_665
Na6 O36 2.614183 1_655
Na6 O44 2.639295 1_555
Na6 O43 2.666351 1_665
Na6 O42 2.715275 1_565
Na7 O40 2.464000 1_555
Na7 O41 2.500150 1_455
Na7 O39 2.521201 1_565
Na7 O47 2.667559 1_566
Na7 O45 2.671295 1_456
Na7 O46 2.756159 1_466
Na8 O55 2.520763 1_555
Na8 O54 2.538499 1_555
Na8 O49 2.545905 1_555
Na8 O56 2.547624 1_555
Na8 O48 2.600812 1_555
Na8 O50 2.618236 1_555
Na9 O52 2.413008 1_555
Na9 O51 2.562818 1_555
Na9 O59 2.610135 1_555
Na9 O53 2.620801 1_555
Na9 O57 2.680899 1_555
Na9 O58 2.732965 1_555
Na10 O61 2.548032 1_555
Na10 O66 2.558081 1_555
Na10 O68 2.563375 1_555
Na10 O62 2.567169 1_555
Na10 O67 2.613119 1_555
Na10 O60 2.624243 1_555
Na11 O63 2.474932 1_555
Na11 O64 2.478854 1_555
Na11 O65 2.575295 1_555
Na11 O71 2.591583 1_555
Na11 O69 2.614870 1_555
Na11 O70 2.634893 1_555
Nb0 O5 1.972053 1_555
Nb0 O3 1.990152 1_655
Nb0 O39 1.998578 1_655
Nb0 O40 2.004078 1_645
Nb0 O4 2.012744 1_545
Nb0 O41 2.013713 1_545
Nb1 O8 1.916416 1_555
Nb1 O44 1.967924 1_455
Nb1 O43 1.971117 1_565
Nb1 O7 1.999552 1_565
Nb1 O6 2.003854 1_455
Nb1 O42 2.180693 1_465
Nb2 O10 1.900081 1_555
Nb2 O47 1.941151 1_555
Nb2 O46 1.973911 1_455
Nb2 O45 2.021023 1_445
Nb2 O11 2.058045 1_545
Nb2 O9 2.168737 1_445
Nb3 O18 1.967542 1_556
Nb3 O19 1.987451 1_556
Nb3 O54 1.996992 1_555
Nb3 O20 2.000409 1_556
Nb3 O56 2.008386 1_555
Nb3 O55 2.025734 1_555
Nb4 O22 1.917037 1_555
Nb4 O58 1.935561 1_555
Nb4 O21 1.979489 1_555
Nb4 O59 1.989188 1_555
Nb4 O57 2.043733 1_555
Nb4 O23 2.174877 1_555
Nb5 O26 1.915410 1_554
Nb5 O25 1.970553 1_554
Nb5 O24 1.986999 1_554
Nb5 O62 2.014811 1_555
Nb5 O61 2.021933 1_555
Nb5 O60 2.098054 1_555
Nb6 O27 1.878465 1_555
Nb6 O28 1.983193 1_555
Nb6 O29 1.991336 1_555
Nb6 O64 2.002810 1_555
Nb6 O63 2.006526 1_555
Nb6 O65 2.299145 1_555
Nb7 O30 1.879792 1_555
Nb7 O32 1.883185 1_555
Nb7 O68 1.974648 1_555
Nb7 O31 1.987375 1_555
Nb7 O66 2.215884 1_555
Nb7 O67 2.254525 1_555
Nb8 O35 1.926658 1_555
Nb8 O34 1.941725 1_555
Nb8 O33 1.947772 1_555
Nb8 O70 2.051601 1_555
Nb8 O69 2.054457 1_555
Nb8 O71 2.079107 1_555
Al0 O37 1.811689 1_545
Al0 O2 1.816059 1_555
Al0 O38 1.862130 1_655
Al0 O36 1.949566 1_645
Al0 O1 2.170080 1_545
Al0 O0 2.294594 1_655
Al1 O13 1.844611 1_555
Al1 O14 1.845148 1_555
Al1 O49 1.903240 1_555
Al1 O48 1.949024 1_555
Al1 O50 1.977015 1_555
Al1 O12 2.208835 1_555
Al2 O16 1.799572 1_555
Al2 O15 1.804301 1_555
Al2 O17 1.873448 1_555
Al2 O52 1.888491 1_555
Al2 O51 2.278057 1_555
Al2 O53 2.297090 1_555
O0 S0 1.457022 1_555
O1 S1 1.460266 1_555
O2 Si0 1.602545 1_555
O3 Si1 1.645361 1_555
O4 Si2 1.636601 1_555
O5 Si3 1.648919 1_555
O6 Si3 1.636318 1_565
O7 Si1 1.633909 1_555
O8 Si2 1.653853 1_455
O9 S1 1.525621 1_555
O10 Si0 1.705275 1_455
O11 S0 1.526043 1_565
O12 S2 1.476775 1_555
O13 Si4 1.608472 1_555
O14 Si5 1.604375 1_555
O15 Si6 1.593943 1_555
O16 Si7 1.580693 1_555
O17 Si8 1.598507 1_555
O18 Si8 1.641495 1_555
O19 Si6 1.646902 1_555
O20 Si7 1.639585 1_555
O21 Si4 1.654035 1_555
O22 Si5 1.657751 1_555
O23 S2 1.484513 1_555
O24 Si9 1.641062 1_555
O25 Si10 1.641432 1_555
O26 Si11 1.644931 1_555
O27 Si12 1.678697 1_555
O28 Si13 1.628244 1_555
O29 Si14 1.650401 1_555
O30 Si14 1.678755 1_555
O31 Si12 1.649187 1_555
O32 Si13 1.653364 1_555
O33 Si10 1.659815 1_555
O34 Si11 1.652762 1_555
O35 Si9 1.654601 1_555
O36 Si14 1.606363 1_555
O37 Si12 1.587995 1_555
O38 Si13 1.600463 1_555
O39 Si10 1.624780 1_555
O40 Si11 1.616458 1_555
O41 Si9 1.621703 1_555
O42 S2 1.498626 1_555
O43 Si4 1.665333 1_555
O44 Si5 1.660468 1_555
O45 Si6 1.644394 1_555
O46 Si7 1.693381 1_555
O47 Si8 1.677806 1_555
O48 Si3 1.617487 1_555
O49 Si1 1.618112 1_555
O50 Si2 1.611475 1_555
O51 S1 1.478849 1_555
O52 Si0 1.623411 1_555
O53 S0 1.472720 1_555
O54 Si9 1.617963 1_555
O55 Si10 1.616482 1_655
O56 Si11 1.613553 1_545
O57 Si12 1.643085 1_545
O58 Si13 1.661917 1_555
O59 Si14 1.631867 1_655
O60 Si8 1.660644 1_555
O61 Si6 1.647211 1_455
O62 Si7 1.641574 1_565
O63 Si4 1.660723 1_565
O64 Si5 1.650742 1_555
O65 S2 1.488743 1_455
O66 S0 1.508761 1_565
O67 S1 1.513940 1_555
O68 Si0 1.694735 1_455
O69 Si1 1.649294 1_555
O70 Si2 1.642790 1_455
O71 Si3 1.652417 1_565
