# generated using pymatgen
data_Na3Zr3Sc(PO4)6
_symmetry_space_group_name_H-M   'P 1'
_cell_length_a   9.04341206
_cell_length_b   9.04155848
_cell_length_c   23.42745891
_cell_angle_alpha   89.97217515
_cell_angle_beta   90.01584635
_cell_angle_gamma   120.24975364
_symmetry_Int_Tables_number   1
_chemical_formula_structural   Na3Zr3Sc(PO4)6
_chemical_formula_sum   'Na9 Zr9 Sc3 P18 O72'
_cell_volume   1654.75190016
_cell_formula_units_Z   3
loop_
 _symmetry_equiv_pos_site_id
 _symmetry_equiv_pos_as_xyz
  1  'x, y, z'
loop_
 _atom_site_type_symbol
 _atom_site_label
 _atom_site_symmetry_multiplicity
 _atom_site_fract_x
 _atom_site_fract_y
 _atom_site_fract_z
 _atom_site_occupancy
  Na  Na0  1  0.36587199  0.36194606  0.24821320  1
  Na  Na1  1  0.63654430  0.63280354  0.74868026  1
  Na  Na2  1  0.96987538  0.29934347  0.41500470  1
  Na  Na3  1  0.00042136  0.99304709  0.49861269  1
  Na  Na4  1  0.99990729  0.99990773  0.00108868  1
  Na  Na5  1  0.66701672  0.32639701  0.83291133  1
  Na  Na6  1  0.66734166  0.33357412  0.32982877  1
  Na  Na7  1  0.33273447  0.67341783  0.16511728  1
  Na  Na8  1  0.32645313  0.66701516  0.66559472  1
  Zr  Zr0  1  0.00137203  0.00192038  0.85364653  1
  Zr  Zr1  1  0.00201117  0.00243094  0.64612423  1
  Zr  Zr2  1  0.99784776  0.99776758  0.14660657  1
  Zr  Zr3  1  0.66632947  0.33371072  0.98166708  1
  Zr  Zr4  1  0.66087185  0.33420461  0.48199917  1
  Zr  Zr5  1  0.33375182  0.66645670  0.02066961  1
  Zr  Zr6  1  0.33485721  0.66833469  0.52024884  1
  Zr  Zr7  1  0.33497124  0.67418847  0.31327135  1
  Zr  Zr8  1  0.32774941  0.66731559  0.81506419  1
  Sc  Sc0  1  0.99854106  0.99249429  0.35059263  1
  Sc  Sc1  1  0.66767432  0.32726532  0.68454805  1
  Sc  Sc2  1  0.67319292  0.33274382  0.18435087  1
  P  P0  1  0.29132762  0.00232900  0.25006156  1
  P  P1  1  0.70995097  0.70658841  0.25038523  1
  P  P2  1  0.99601116  0.28850742  0.25163306  1
  P  P3  1  0.29368936  0.29146775  0.74985822  1
  P  P4  1  -0.00124135  0.70833774  0.74945550  1
  P  P5  1  0.71022218  0.00315488  0.75005742  1
  P  P6  1  0.95622572  0.33347482  0.58331978  1
  P  P7  1  0.37631906  0.04266929  0.58442607  1
  P  P8  1  0.66622089  0.62335614  0.58530819  1
  P  P9  1  0.95679585  0.62314930  0.08392937  1
  P  P10  1  0.66681529  0.04420705  0.08403976  1
  P  P11  1  0.37718799  0.33354371  0.08497516  1
  P  P12  1  0.62358150  0.66573704  0.91616080  1
  P  P13  1  0.04126803  0.37547192  0.91732166  1
  P  P14  1  0.33364706  0.95793121  0.91718103  1
  P  P15  1  0.62776214  0.95898458  0.41701551  1
  P  P16  1  0.33227478  0.37450793  0.41567541  1
  P  P17  1  0.04288777  0.67005015  0.41708277  1
  O  O0  1  0.20776420  0.03162967  0.30310065  1
  O  O1  1  0.81906747  0.79202650  0.30375339  1
  O  O2  1  0.97427354  0.18395875  0.30648375  1
  O  O3  1  0.20553838  0.17977680  0.80330803  1
  O  O4  1  0.97046020  0.79457099  0.80274433  1
  O  O5  1  0.82144998  0.02526959  0.80357940  1
  O  O6  1  0.79314894  0.96814610  0.69716523  1
  O  O7  1  0.17938249  0.20685819  0.69667149  1
  O  O8  1  0.02719976  0.82231987  0.69627525  1
  O  O9  1  0.79272247  0.82013710  0.19668602  1
  O  O10  1  0.03139946  0.20521469  0.19861632  1
  O  O11  1  0.17790851  0.97278378  0.19632976  1
  O  O12  1  0.87238874  0.36083180  0.63606817  1
  O  O13  1  0.48669317  0.12561326  0.63730588  1
  O  O14  1  0.63899883  0.51699700  0.63953714  1
  O  O15  1  0.87462069  0.51323379  0.13707262  1
  O  O16  1  0.63855706  0.12552772  0.13717136  1
  O  O17  1  0.48293272  0.36093546  0.13940823  1
  O  O18  1  0.46272912  0.30735730  0.03100641  1
  O  O19  1  0.84611881  0.53935787  0.02960662  1
  O  O20  1  0.69370730  0.15465180  0.02968081  1
  O  O21  1  0.45999031  0.15342523  0.52998717  1
  O  O22  1  0.69250545  0.53768865  0.53127223  1
  O  O23  1  0.84905429  0.30669800  0.52781925  1
  O  O24  1  0.53685481  0.69259316  0.96889518  1
  O  O25  1  0.15415764  0.46089579  0.97015272  1
  O  O26  1  0.30637294  0.84526254  0.97005627  1
  O  O27  1  0.53904940  0.84671176  0.47015053  1
  O  O28  1  0.30472172  0.46315888  0.46846486  1
  O  O29  1  0.15465845  0.69189984  0.47037031  1
  O  O30  1  0.12609037  0.63487546  0.36406127  1
  O  O31  1  0.51316765  0.87407814  0.36368539  1
  O  O32  1  0.36046860  0.48525444  0.36129624  1
  O  O33  1  0.12708027  0.48710145  0.86327461  1
  O  O34  1  0.35980249  0.87274625  0.86315888  1
  O  O35  1  0.51561503  0.64027708  0.86107953  1
  O  O36  1  0.02274937  0.82731501  0.41062971  1
  O  O37  1  0.80912843  0.98437624  0.41089868  1
  O  O38  1  0.16751135  0.19782731  0.41038438  1
  O  O39  1  0.02345051  0.19605402  0.90992843  1
  O  O40  1  0.17237713  0.97593570  0.90961172  1
  O  O41  1  0.80431319  0.82774608  0.90955652  1
  O  O42  1  0.97576291  0.17209092  0.58975193  1
  O  O43  1  0.19539355  0.02327496  0.58974185  1
  O  O44  1  0.82829852  0.80514892  0.58997352  1
  O  O45  1  0.97661070  0.80456802  0.08962183  1
  O  O46  1  0.82815850  0.02421560  0.08993103  1
  O  O47  1  0.19465540  0.17173031  0.08991293  1
  O  O48  1  0.68957155  0.16051948  0.74383430  1
  O  O49  1  0.47557220  0.31759497  0.74388456  1
  O  O50  1  0.83440602  0.53174569  0.74352683  1
  O  O51  1  0.68088840  0.52330304  0.24381889  1
  O  O52  1  0.83982593  0.31150961  0.24399915  1
  O  O53  1  0.46922546  0.16580172  0.24333344  1
  O  O54  1  0.64211669  0.50488692  0.92293440  1
  O  O55  1  0.86175259  0.35668174  0.92313972  1
  O  O56  1  0.49497951  0.13810249  0.92308127  1
  O  O57  1  0.64899581  0.14153401  0.42355756  1
  O  O58  1  0.49400284  0.35728697  0.42321498  1
  O  O59  1  0.86525152  0.50067119  0.42376622  1
  O  O60  1  0.35672324  0.49382002  0.07620921  1
  O  O61  1  0.13803560  0.64421804  0.07603750  1
  O  O62  1  0.50632865  0.86223034  0.07610596  1
  O  O63  1  0.35569139  0.86180199  0.57648149  1
  O  O64  1  0.50585973  0.64327646  0.57637719  1
  O  O65  1  0.13847720  0.49410862  0.57606692  1
  O  O66  1  0.30961276  0.84005093  0.25660943  1
  O  O67  1  0.52524585  0.68453876  0.25670382  1
  O  O68  1  0.16619226  0.46891615  0.25719001  1
  O  O69  1  0.31545786  0.47466621  0.75660360  1
  O  O70  1  0.16047931  0.69026639  0.75639394  1
  O  O71  1  0.53199727  0.83393400  0.75683156  1
loop_
_geom_bond_atom_site_label_1
_geom_bond_atom_site_label_2
_geom_bond_distance
_geom_bond_site_symmetry_2
Na0 O53 2.387916 1_555
Na0 O68 2.449615 1_555
Na0 O51 2.463191 1_555
Na0 O67 2.527666 1_555
Na0 O17 2.762166 1_555
Na0 O10 2.861543 1_555
Na0 O0 2.883107 1_555
Na0 O32 2.884742 1_555
Na1 O50 2.387202 1_555
Na1 O71 2.443396 1_555
Na1 O49 2.464605 1_555
Na1 O69 2.515424 1_555
Na1 O14 2.767828 1_555
Na1 O35 2.865427 1_555
Na1 O6 2.885541 1_555
Na1 O4 2.900338 1_555
Na2 O38 2.387828 1_655
Na2 O59 2.446765 1_555
Na2 O37 2.462024 1_545
Na2 O57 2.514972 1_555
Na2 O2 2.756457 1_555
Na2 O23 2.873756 1_555
Na2 O30 2.881489 1_655
Na2 O28 2.900491 1_655
Na3 O36 2.615895 1_555
Na3 O37 2.661403 1_455
Na3 O38 2.676371 1_565
Na3 O44 2.687785 1_455
Na3 O43 2.693413 1_565
Na3 O42 2.756194 1_465
Na4 O45 2.662228 1_555
Na4 O47 2.662693 1_665
Na4 O46 2.671873 1_565
Na4 O39 2.714345 1_664
Na4 O41 2.716085 1_554
Na4 O40 2.723116 1_654
Na5 O48 2.637691 1_555
Na5 O56 2.666653 1_555
Na5 O55 2.675305 1_555
Na5 O49 2.685728 1_555
Na5 O50 2.699999 1_555
Na5 O54 2.733640 1_555
Na6 O51 2.608255 1_555
Na6 O52 2.613766 1_555
Na6 O53 2.622957 1_555
Na6 O57 2.751421 1_555
Na6 O59 2.757837 1_555
Na6 O58 2.762374 1_555
Na7 O62 2.650574 1_555
Na7 O61 2.656174 1_555
Na7 O66 2.688627 1_555
Na7 O60 2.716769 1_555
Na7 O67 2.732506 1_555
Na7 O68 2.744468 1_555
Na8 O65 2.656418 1_555
Na8 O63 2.656629 1_555
Na8 O70 2.672487 1_555
Na8 O64 2.720342 1_555
Na8 O69 2.720779 1_555
Na8 O71 2.734234 1_555
O0 P0 1.545250 1_555
O0 Sc0 2.066242 1_445
O1 P1 1.538153 1_555
O1 Sc0 2.039765 1_555
O2 P2 1.547641 1_555
O2 Sc0 2.119846 1_545
O3 P3 1.552906 1_555
O3 Zr0 2.096098 1_555
O4 P4 1.560165 1_655
O4 Zr0 2.118704 1_665
O5 P5 1.555924 1_555
O5 Zr0 2.100632 1_655
O6 P5 1.561446 1_565
O6 Zr1 2.122396 1_665
O7 P3 1.552370 1_555
O7 Zr1 2.098936 1_555
O8 P4 1.553163 1_555
O8 Zr1 2.110927 1_565
O9 P1 1.556267 1_555
O9 Zr2 2.096345 1_555
O10 P2 1.567232 1_455
O10 Zr2 2.126819 1_445
O11 P0 1.559338 1_565
O11 Zr2 2.104486 1_455
O12 P6 1.533908 1_555
O12 Sc1 2.060137 1_555
O13 P7 1.529533 1_555
O13 Sc1 2.054818 1_555
O14 P8 1.536189 1_555
O14 Sc1 2.137369 1_555
O15 P9 1.531394 1_555
O15 Sc2 2.052414 1_555
O16 P10 1.531560 1_555
O16 Sc2 2.059260 1_555
O17 P11 1.537221 1_555
O17 Sc2 2.138841 1_555
O18 P11 1.561552 1_555
O18 Zr3 2.083727 1_554
O19 P9 1.559363 1_555
O19 Zr3 2.077800 1_554
O20 P10 1.559604 1_555
O20 Zr3 2.085563 1_554
O21 P7 1.561335 1_555
O21 Zr4 2.059953 1_555
O22 P8 1.563857 1_555
O22 Zr4 2.066602 1_555
O23 P6 1.565810 1_555
O23 Zr4 2.129665 1_555
O24 P12 1.546965 1_555
O24 Zr5 2.112898 1_556
O25 P13 1.541579 1_555
O25 Zr5 2.110101 1_556
O26 P14 1.542346 1_555
O26 Zr5 2.117129 1_556
O27 P15 1.549988 1_555
O27 Zr6 2.094582 1_555
O28 P16 1.560898 1_555
O28 Zr6 2.116624 1_555
O29 P17 1.554848 1_555
O29 Zr6 2.101196 1_555
O30 P17 1.565972 1_555
O30 Zr7 2.105893 1_555
O31 P15 1.556576 1_555
O31 Zr7 2.079622 1_555
O32 P16 1.559600 1_555
O32 Zr7 2.152213 1_555
O33 P13 1.560222 1_555
O33 Zr8 2.060097 1_555
O34 P14 1.560634 1_555
O34 Zr8 2.064686 1_555
O35 P12 1.563529 1_555
O35 Zr8 2.127327 1_555
O36 P17 1.529237 1_555
O36 Sc0 2.141007 1_455
O37 P15 1.544056 1_555
O37 Sc0 2.193206 1_555
O38 P16 1.545741 1_555
O38 Sc0 2.210632 1_445
O39 P13 1.557064 1_555
O39 Zr0 2.123296 1_555
O40 P14 1.556920 1_555
O40 Zr0 2.128487 1_565
O41 P12 1.558433 1_555
O41 Zr0 2.131474 1_665
O42 P6 1.562883 1_555
O42 Zr1 2.125641 1_655
O43 P7 1.560247 1_555
O43 Zr1 2.123128 1_555
O44 P8 1.560367 1_555
O44 Zr1 2.134926 1_665
O45 P9 1.563507 1_555
O45 Zr2 2.129468 1_555
O46 P10 1.564054 1_555
O46 Zr2 2.131511 1_545
O47 P11 1.563780 1_555
O47 Zr2 2.141150 1_445
O48 P5 1.532336 1_555
O48 Sc1 2.130712 1_555
O49 P3 1.545800 1_555
O49 Sc1 2.192322 1_555
O50 P4 1.544933 1_655
O50 Sc1 2.189393 1_555
O51 P1 1.549321 1_555
O51 Sc2 2.189940 1_555
O52 P2 1.538194 1_555
O52 Sc2 2.133195 1_555
O53 P0 1.549779 1_555
O53 Sc2 2.187311 1_555
O54 P12 1.553624 1_555
O54 Zr3 2.162358 1_555
O55 P13 1.550866 1_655
O55 Zr3 2.162809 1_555
O56 P14 1.551435 1_545
O56 Zr3 2.157056 1_555
O57 P15 1.570195 1_545
O57 Zr4 2.175894 1_555
O58 P16 1.556869 1_555
O58 Zr4 2.129156 1_555
O59 P17 1.572156 1_655
O59 Zr4 2.176984 1_555
O60 P11 1.564085 1_555
O60 Zr5 2.120651 1_555
O61 P9 1.562828 1_455
O61 Zr5 2.120876 1_555
O62 P10 1.562787 1_565
O62 Zr5 2.115043 1_555
O63 P7 1.560972 1_565
O63 Zr6 2.121534 1_555
O64 P8 1.562785 1_555
O64 Zr6 2.126854 1_555
O65 P6 1.562962 1_455
O65 Zr6 2.127458 1_555
O66 P0 1.564580 1_565
O66 Zr7 2.099540 1_555
O67 P1 1.586305 1_555
O67 Zr7 2.136543 1_555
O68 P2 1.586511 1_455
O68 Zr7 2.155830 1_555
O69 P3 1.574511 1_555
O69 Zr8 2.174698 1_555
O70 P4 1.559697 1_555
O70 Zr8 2.129642 1_555
O71 P5 1.574549 1_565
O71 Zr8 2.176745 1_555
