# generated using pymatgen
data_Na18Ta20Zn4Si27(SO16)9
_symmetry_space_group_name_H-M   'P 1'
_cell_length_a   17.85869489
_cell_length_b   8.92116532
_cell_length_c   22.87206843
_cell_angle_alpha   90.05427992
_cell_angle_beta   89.77105314
_cell_angle_gamma   120.02720983
_symmetry_Int_Tables_number   1
_chemical_formula_structural   Na18Ta20Zn4Si27(SO16)9
_chemical_formula_sum   'Na18 Ta20 Zn4 Si27 S9 O144'
_cell_volume   3154.89164679
_cell_formula_units_Z   1
loop_
 _symmetry_equiv_pos_site_id
 _symmetry_equiv_pos_as_xyz
  1  'x, y, z'
loop_
 _atom_site_type_symbol
 _atom_site_label
 _atom_site_symmetry_multiplicity
 _atom_site_fract_x
 _atom_site_fract_y
 _atom_site_fract_z
 _atom_site_occupancy
  Na  Na0  1  0.31750906  0.01736308  0.24409698  1
  Na  Na1  1  0.81660468  0.01174613  0.24989347  1
  Na  Na2  1  0.99361495  0.62233366  0.24442667  1
  Na  Na3  1  0.31715565  0.62188691  0.75130801  1
  Na  Na4  1  0.81697519  0.61849231  0.74718178  1
  Na  Na5  1  0.49348471  0.36508795  0.74586451  1
  Na  Na6  1  0.99617640  0.99598990  0.49583738  1
  Na  Na7  1  0.50053149  0.00254968  0.49840553  1
  Na  Na8  1  0.00059962  0.99899592  0.99988194  1
  Na  Na9  1  0.49549536  0.99212815  0.99851566  1
  Na  Na10  1  0.32851888  0.32573936  0.82964094  1
  Na  Na11  1  0.83288565  0.33162105  0.82838123  1
  Na  Na12  1  0.33403921  0.33555127  0.32506358  1
  Na  Na13  1  0.82872563  0.33059132  0.32530257  1
  Na  Na14  1  0.16562697  0.66573965  0.16186388  1
  Na  Na15  1  0.65901036  0.65756908  0.16876988  1
  Na  Na16  1  0.16376690  0.66641304  0.67224113  1
  Na  Na17  1  0.66381442  0.66354020  0.66354464  1
  Ta  Ta0  1  0.99886940  0.00004544  0.35453573  1
  Ta  Ta1  1  0.50634564  0.01251248  0.35604282  1
  Ta  Ta2  1  0.00718811  0.99956321  0.85805660  1
  Ta  Ta3  1  0.49846883  0.99663584  0.85560912  1
  Ta  Ta4  1  0.00221530  0.99248585  0.64808092  1
  Ta  Ta5  1  0.50055870  0.01155651  0.65028464  1
  Ta  Ta6  1  0.00143609  0.99105687  0.14937392  1
  Ta  Ta7  1  0.50242570  0.00320467  0.14367811  1
  Ta  Ta8  1  0.33973694  0.33892263  0.97813349  1
  Ta  Ta9  1  0.83912989  0.34808396  0.97476568  1
  Ta  Ta10  1  0.34006547  0.33240984  0.47426159  1
  Ta  Ta11  1  0.83310887  0.34201912  0.47496133  1
  Ta  Ta12  1  0.16687075  0.67476790  0.01950141  1
  Ta  Ta13  1  0.66203304  0.66745448  0.01748127  1
  Ta  Ta14  1  0.16675520  0.66442865  0.51536984  1
  Ta  Ta15  1  0.66617061  0.65869868  0.51935211  1
  Ta  Ta16  1  0.16335499  0.66114574  0.31385378  1
  Ta  Ta17  1  0.66371468  0.66511274  0.31091272  1
  Ta  Ta18  1  0.16476961  0.66410045  0.81302062  1
  Ta  Ta19  1  0.66251534  0.66432112  0.81547744  1
  Zn  Zn0  1  0.33733658  0.33047820  0.69111274  1
  Zn  Zn1  1  0.83164317  0.34894195  0.68653598  1
  Zn  Zn2  1  0.34080435  0.32387397  0.18333771  1
  Zn  Zn3  1  0.83624017  0.34340919  0.19009204  1
  Si  Si0  1  0.14889194  0.01059428  0.25195108  1
  Si  Si1  1  0.64516662  0.00358716  0.24858490  1
  Si  Si2  1  0.85326593  0.70736729  0.25143908  1
  Si  Si3  1  0.00211099  0.28779723  0.24911455  1
  Si  Si4  1  0.49985062  0.29072320  0.25011135  1
  Si  Si5  1  0.14510260  0.28851977  0.74914266  1
  Si  Si6  1  0.64761388  0.28812292  0.75271323  1
  Si  Si7  1  0.00046965  0.70474455  0.75244078  1
  Si  Si8  1  0.50290021  0.71684815  0.74917842  1
  Si  Si9  1  0.35283754  0.99892326  0.75216759  1
  Si  Si10  1  0.47732050  0.33286570  0.58591480  1
  Si  Si11  1  0.83338957  0.62529483  0.58471192  1
  Si  Si12  1  0.47713987  0.62042035  0.08595409  1
  Si  Si13  1  0.97747150  0.62090376  0.08601097  1
  Si  Si14  1  0.33257693  0.04344361  0.08515936  1
  Si  Si15  1  0.30942544  0.66383454  0.91669266  1
  Si  Si16  1  0.81009494  0.67172211  0.91637053  1
  Si  Si17  1  0.02542929  0.37906673  0.91733583  1
  Si  Si18  1  0.52138884  0.37282848  0.91721608  1
  Si  Si19  1  0.17106279  0.95816099  0.91654194  1
  Si  Si20  1  0.66726440  0.96036005  0.91651926  1
  Si  Si21  1  0.31176557  0.95187784  0.41470119  1
  Si  Si22  1  0.80980303  0.95243377  0.41669309  1
  Si  Si23  1  0.16696705  0.37341819  0.41621133  1
  Si  Si24  1  0.66691717  0.38319339  0.41531123  1
  Si  Si25  1  0.02251822  0.67039829  0.41682492  1
  Si  Si26  1  0.52624146  0.67416074  0.41695742  1
  S  S0  1  0.35723907  0.71163918  0.25078275  1
  S  S1  1  0.85750119  0.00360281  0.75032969  1
  S  S2  1  0.97864828  0.33394651  0.58346406  1
  S  S3  1  0.18907924  0.04305514  0.58344650  1
  S  S4  1  0.68946748  0.04463017  0.58373544  1
  S  S5  1  0.33259481  0.62318572  0.58294337  1
  S  S6  1  0.83343379  0.04303143  0.08293730  1
  S  S7  1  0.18834612  0.33356381  0.08358649  1
  S  S8  1  0.69021402  0.33637456  0.08295039  1
  O  O0  1  0.09477113  0.02031467  0.30803519  1
  O  O1  1  0.59383475  0.02058186  0.30637843  1
  O  O2  1  0.40953344  0.79686880  0.30373537  1
  O  O3  1  0.91743381  0.80943968  0.30683050  1
  O  O4  1  0.48691719  0.16081537  0.30647718  1
  O  O5  1  0.98898813  0.16643898  0.30646499  1
  O  O6  1  0.09243316  0.16415155  0.80526864  1
  O  O7  1  0.59475252  0.16911421  0.80792195  1
  O  O8  1  0.48888624  0.81168079  0.80581202  1
  O  O9  1  0.98403602  0.80895465  0.80564023  1
  O  O10  1  0.41779530  0.02600723  0.80642739  1
  O  O11  1  0.90919950  0.02505606  0.80263815  1
  O  O12  1  0.40128936  0.96384776  0.69358486  1
  O  O13  1  0.89817476  0.96911407  0.69643170  1
  O  O14  1  0.08013051  0.19209955  0.69168883  1
  O  O15  1  0.58185136  0.20208745  0.69435504  1
  O  O16  1  0.01316789  0.83407542  0.69381346  1
  O  O17  1  0.51758561  0.83978221  0.69074671  1
  O  O18  1  0.39593359  0.82498668  0.19758159  1
  O  O19  1  0.90159621  0.83962722  0.19373812  1
  O  O20  1  0.01750108  0.19564305  0.19129277  1
  O  O21  1  0.51300361  0.18875011  0.19356973  1
  O  O22  1  0.08136750  0.96130770  0.19467313  1
  O  O23  1  0.58090256  0.96927648  0.19253449  1
  O  O24  1  0.43850822  0.36652988  0.64374776  1
  O  O25  1  0.94188021  0.36215629  0.63647900  1
  O  O26  1  0.23836015  0.11418479  0.63588775  1
  O  O27  1  0.74120469  0.11848705  0.63629963  1
  O  O28  1  0.31562169  0.52297894  0.63665976  1
  O  O29  1  0.81577124  0.51798754  0.64351246  1
  O  O30  1  0.43864926  0.51059559  0.14326965  1
  O  O31  1  0.93884632  0.51121558  0.14429778  1
  O  O32  1  0.30985417  0.10307899  0.14497317  1
  O  O33  1  0.81722204  0.11075549  0.13693791  1
  O  O34  1  0.23830091  0.36185216  0.13670732  1
  O  O35  1  0.73981100  0.36233714  0.13600512  1
  O  O36  1  0.22798305  0.30531855  0.03055430  1
  O  O37  1  0.72899539  0.30572065  0.02993864  1
  O  O38  1  0.41856492  0.53175511  0.02625730  1
  O  O39  1  0.91451477  0.52336271  0.02792119  1
  O  O40  1  0.34647928  0.16741076  0.02729793  1
  O  O41  1  0.84420740  0.15167588  0.03082567  1
  O  O42  1  0.22696350  0.14839680  0.52995245  1
  O  O43  1  0.73167964  0.15406843  0.53080377  1
  O  O44  1  0.34282729  0.53632887  0.53063469  1
  O  O45  1  0.84776489  0.52581131  0.52761448  1
  O  O46  1  0.41432884  0.30579279  0.52785629  1
  O  O47  1  0.92613976  0.30857817  0.53043171  1
  O  O48  1  0.26245177  0.69394190  0.97285178  1
  O  O49  1  0.76371500  0.69489411  0.97407222  1
  O  O50  1  0.08342175  0.46673400  0.97451865  1
  O  O51  1  0.58386731  0.47203205  0.97303244  1
  O  O52  1  0.15077320  0.83359591  0.97344412  1
  O  O53  1  0.65286560  0.83391447  0.97293957  1
  O  O54  1  0.26281542  0.83261436  0.47319099  1
  O  O55  1  0.76261963  0.83125677  0.47362448  1
  O  O56  1  0.15337722  0.47355246  0.47363571  1
  O  O57  1  0.65138879  0.46733830  0.47401756  1
  O  O58  1  0.08367761  0.69259828  0.47385511  1
  O  O59  1  0.58362009  0.69883546  0.47468068  1
  O  O60  1  0.06703076  0.63449328  0.35940201  1
  O  O61  1  0.56735877  0.63269485  0.36000018  1
  O  O62  1  0.25092325  0.86490224  0.35768509  1
  O  O63  1  0.75126122  0.86956946  0.35803136  1
  O  O64  1  0.18346240  0.50300077  0.36072595  1
  O  O65  1  0.68420343  0.50298926  0.35865140  1
  O  O66  1  0.06661585  0.50050286  0.85941704  1
  O  O67  1  0.56684988  0.49797561  0.85889414  1
  O  O68  1  0.18245210  0.86391983  0.85881848  1
  O  O69  1  0.68354778  0.86482234  0.85984041  1
  O  O70  1  0.25113613  0.63608532  0.85743674  1
  O  O71  1  0.75139505  0.63800945  0.85709379  1
  O  O72  1  0.01265437  0.83826223  0.41170633  1
  O  O73  1  0.50912396  0.83461921  0.40792699  1
  O  O74  1  0.40603603  0.97225825  0.40926981  1
  O  O75  1  0.90603109  0.97595528  0.40979969  1
  O  O76  1  0.08098414  0.18754408  0.41076686  1
  O  O77  1  0.58241612  0.18892130  0.41021893  1
  O  O78  1  0.00915826  0.18424902  0.90677488  1
  O  O79  1  0.51311564  0.18636112  0.91055186  1
  O  O80  1  0.08271087  0.97394719  0.90970083  1
  O  O81  1  0.58148758  0.97468303  0.90945049  1
  O  O82  1  0.40516916  0.83523418  0.90883223  1
  O  O83  1  0.90567838  0.83856663  0.90742753  1
  O  O84  1  0.48841451  0.15635006  0.58882379  1
  O  O85  1  0.98991022  0.17832931  0.58836118  1
  O  O86  1  0.09878997  0.02267539  0.58856066  1
  O  O87  1  0.60126349  0.02713435  0.58805121  1
  O  O88  1  0.41126516  0.79883225  0.58643363  1
  O  O89  1  0.92106572  0.82447174  0.59102159  1
  O  O90  1  0.49158854  0.81964331  0.09072532  1
  O  O91  1  0.98810202  0.81933259  0.08906743  1
  O  O92  1  0.42048049  0.02325062  0.09153716  1
  O  O93  1  0.91302771  0.02700331  0.08686286  1
  O  O94  1  0.09869960  0.17371341  0.08858989  1
  O  O95  1  0.60072057  0.17765743  0.08762106  1
  O  O96  1  0.34888928  0.17132903  0.74766407  1
  O  O97  1  0.84685712  0.15208256  0.74167703  1
  O  O98  1  0.24019144  0.31754050  0.74225515  1
  O  O99  1  0.74135737  0.31023948  0.74823669  1
  O  O100  1  0.41801303  0.52958893  0.74703767  1
  O  O101  1  0.91491662  0.52117650  0.74670966  1
  O  O102  1  0.34455561  0.54089118  0.24502745  1
  O  O103  1  0.84919549  0.52653045  0.24809563  1
  O  O104  1  0.41407988  0.30295978  0.25052528  1
  O  O105  1  0.91778533  0.30696001  0.24781253  1
  O  O106  1  0.24223861  0.17463035  0.24728474  1
  O  O107  1  0.74133280  0.16355059  0.24357534  1
  O  O108  1  0.31867447  0.49258164  0.92611822  1
  O  O109  1  0.81889663  0.49675485  0.92522517  1
  O  O110  1  0.42800316  0.36093966  0.92340791  1
  O  O111  1  0.92762459  0.35596972  0.92650764  1
  O  O112  1  0.25199785  0.15026799  0.92625816  1
  O  O113  1  0.75296625  0.14695809  0.92903003  1
  O  O114  1  0.31829367  0.14055782  0.42595146  1
  O  O115  1  0.82133043  0.14535746  0.43048784  1
  O  O116  1  0.25261123  0.35948999  0.43023107  1
  O  O117  1  0.75051893  0.35474226  0.42629725  1
  O  O118  1  0.42826765  0.50003629  0.42685151  1
  O  O119  1  0.92907638  0.49383050  0.42644870  1
  O  O120  1  0.17628771  0.48690545  0.07519581  1
  O  O121  1  0.67840959  0.49002673  0.07476280  1
  O  O122  1  0.07380584  0.64536419  0.07392308  1
  O  O123  1  0.57659655  0.64778238  0.07385101  1
  O  O124  1  0.25052011  0.84538398  0.07299047  1
  O  O125  1  0.75629937  0.86372107  0.07440606  1
  O  O126  1  0.17543888  0.86227498  0.57494203  1
  O  O127  1  0.67785457  0.86816185  0.57547757  1
  O  O128  1  0.25404624  0.64726205  0.57423233  1
  O  O129  1  0.75073716  0.65504050  0.57357887  1
  O  O130  1  0.06849317  0.49221770  0.57516120  1
  O  O131  1  0.57398412  0.50210610  0.57389935  1
  O  O132  1  0.15348628  0.82648873  0.25840818  1
  O  O133  1  0.65282698  0.82756427  0.25739551  1
  O  O134  1  0.27035768  0.70602536  0.25682505  1
  O  O135  1  0.76228471  0.70751581  0.25630126  1
  O  O136  1  0.08957272  0.48263455  0.25708182  1
  O  O137  1  0.58907800  0.47696435  0.25742141  1
  O  O138  1  0.15232838  0.47874388  0.75650633  1
  O  O139  1  0.65442348  0.48260263  0.75734897  1
  O  O140  1  0.08985212  0.70093215  0.75606776  1
  O  O141  1  0.58994622  0.69595246  0.75651688  1
  O  O142  1  0.26179590  0.81632704  0.75564884  1
  O  O143  1  0.77120981  0.83755790  0.75469532  1
loop_
_geom_bond_atom_site_label_1
_geom_bond_atom_site_label_2
_geom_bond_distance
_geom_bond_site_symmetry_2
Na0 O104 2.256353 1_555
Na0 O106 2.380598 1_555
Na0 O32 2.419476 1_555
Na0 O134 2.483369 1_545
Na0 O132 2.566803 1_545
Na1 O105 2.332428 1_555
Na1 O107 2.342195 1_555
Na1 O135 2.386080 1_545
Na1 O133 2.543767 1_545
Na1 O33 2.729334 1_555
Na1 O63 2.754902 1_545
Na1 O19 2.936749 1_545
Na1 O5 2.971966 1_555
Na2 O103 2.276347 1_555
Na2 O105 2.437629 1_555
Na2 O31 2.495471 1_555
Na2 O132 2.524458 1_655
Na2 O136 2.591490 1_655
Na2 O22 2.853946 1_655
Na2 O60 2.920770 1_655
Na2 O3 2.987837 1_555
Na3 O100 2.326919 1_555
Na3 O98 2.360132 1_555
Na3 O142 2.389873 1_555
Na3 O138 2.558333 1_555
Na3 O70 2.724764 1_555
Na3 O28 2.761791 1_555
Na3 O8 2.942141 1_555
Na3 O12 2.951544 1_555
Na4 O101 2.309288 1_555
Na4 O99 2.381127 1_555
Na4 O143 2.472597 1_555
Na4 O29 2.530561 1_555
Na4 O139 2.534545 1_555
Na4 O71 2.810955 1_555
Na4 O9 2.920628 1_555
Na4 O13 2.947558 1_555
Na5 O96 2.278111 1_555
Na5 O100 2.439320 1_555
Na5 O139 2.533517 1_555
Na5 O24 2.539737 1_555
Na5 O141 2.579240 1_555
Na5 O15 2.876038 1_555
Na5 O67 2.876138 1_555
Na5 O10 2.966005 1_555
Na6 O72 2.484769 1_655
Na6 O75 2.496558 1_555
Na6 O76 2.528337 1_665
Na6 O89 2.609407 1_555
Na6 O85 2.703836 1_565
Na6 O86 2.739717 1_665
Na7 O84 2.548425 1_555
Na7 O77 2.553549 1_555
Na7 O74 2.578239 1_545
Na7 O73 2.602339 1_545
Na7 O88 2.641912 1_545
Na7 O87 2.668729 1_555
Na8 O91 2.534630 1_456
Na8 O80 2.599541 1_555
Na8 O93 2.613694 1_466
Na8 O94 2.627700 1_566
Na8 O83 2.643554 1_455
Na8 O78 2.653476 1_565
Na9 O82 2.555414 1_555
Na9 O79 2.570057 1_565
Na9 O90 2.591945 1_556
Na9 O81 2.597309 1_555
Na9 O92 2.597464 1_566
Na9 O95 2.708451 1_566
Na10 O96 2.456959 1_555
Na10 O98 2.529388 1_555
Na10 O100 2.550402 1_555
Na10 O112 2.653829 1_555
Na10 O110 2.706553 1_555
Na10 O108 2.714430 1_555
Na11 O99 2.404081 1_555
Na11 O101 2.449479 1_555
Na11 O97 2.636357 1_555
Na11 O109 2.738019 1_555
Na11 O111 2.758349 1_555
Na11 O113 2.770948 1_555
Na12 O104 2.330197 1_555
Na12 O106 2.361435 1_555
Na12 O102 2.530093 1_555
Na12 O114 2.818271 1_555
Na12 O118 2.821097 1_555
Na12 O116 2.868471 1_555
Na13 O103 2.380894 1_555
Na13 O107 2.416828 1_555
Na13 O105 2.455137 1_555
Na13 O117 2.758160 1_555
Na13 O119 2.845904 1_555
Na13 O115 2.884904 1_555
Na14 O122 2.548536 1_555
Na14 O124 2.559045 1_555
Na14 O120 2.608829 1_555
Na14 O136 2.649281 1_555
Na14 O132 2.698320 1_555
Na14 O134 2.775433 1_555
Na15 O137 2.497826 1_555
Na15 O133 2.565359 1_555
Na15 O123 2.604534 1_555
Na15 O135 2.610285 1_555
Na15 O121 2.735574 1_555
Na15 O125 2.799800 1_555
Na16 O140 2.428740 1_555
Na16 O142 2.484235 1_555
Na16 O138 2.493994 1_555
Na16 O130 2.759999 1_555
Na16 O126 2.772770 1_555
Na16 O128 2.810647 1_555
Na17 O131 2.561280 1_555
Na17 O141 2.589192 1_555
Na17 O129 2.596458 1_555
Na17 O139 2.640000 1_555
Na17 O127 2.645248 1_555
Na17 O143 2.735117 1_555
O0 Si0 1.631236 1_555
O0 Ta0 1.942420 1_455
O1 Si1 1.655206 1_555
O1 Ta1 1.900036 1_555
O2 S0 1.487878 1_555
O2 Ta1 2.191996 1_565
O3 Si2 1.646978 1_555
O3 Ta0 1.931636 1_565
O4 Si4 1.670646 1_555
O4 Ta1 1.903004 1_555
O5 Si3 1.641336 1_655
O5 Ta0 1.926218 1_555
O6 Si5 1.646894 1_555
O6 Ta2 1.919066 1_545
O7 Si6 1.613325 1_555
O7 Ta3 1.963198 1_545
O8 Si8 1.632022 1_555
O8 Ta3 1.940223 1_555
O9 Si7 1.642881 1_655
O9 Ta2 1.948389 1_655
O10 Si9 1.635451 1_545
O10 Ta3 1.949627 1_545
O11 S1 1.466960 1_555
O11 Ta2 2.266555 1_645
O12 Si9 1.703794 1_555
O12 Ta5 1.880551 1_565
O13 S1 1.535508 1_565
O13 Ta4 2.077260 1_655
O14 Si5 1.680540 1_555
O14 Ta4 1.905249 1_545
O15 Si6 1.690694 1_555
O15 Ta5 1.884573 1_555
O16 Si7 1.708615 1_555
O16 Ta4 1.846782 1_555
O17 Si8 1.664268 1_555
O17 Ta5 1.941276 1_565
O18 S0 1.508959 1_555
O18 Ta7 2.150229 1_565
O19 Si2 1.689226 1_555
O19 Ta6 1.900313 1_655
O20 Si3 1.649734 1_555
O20 Ta6 1.951290 1_545
O21 Si4 1.662648 1_555
O21 Ta7 1.939845 1_555
O22 Si0 1.686613 1_565
O22 Ta6 1.890260 1_555
O23 Si1 1.647353 1_565
O23 Ta7 1.934476 1_565
O24 Si10 1.587634 1_555
O24 Zn0 1.986200 1_555
O25 S2 1.457137 1_555
O25 Zn1 2.224953 1_555
O26 S3 1.436645 1_555
O26 Zn0 2.245625 1_555
O27 S4 1.459909 1_555
O27 Zn1 2.200617 1_555
O28 S5 1.458912 1_555
O28 Zn0 2.307641 1_555
O29 Si11 1.588007 1_555
O29 Zn1 1.938002 1_555
O30 Si12 1.572313 1_555
O30 Zn2 1.935192 1_555
O31 Si13 1.590661 1_555
O31 Zn3 1.984464 1_555
O32 Si14 1.590463 1_555
O32 Zn2 1.966304 1_555
O33 S6 1.464627 1_555
O33 Zn3 2.279094 1_555
O34 S7 1.455513 1_555
O34 Zn2 2.289173 1_555
O35 S8 1.453763 1_555
O35 Zn3 2.198399 1_555
O36 S7 1.485564 1_555
O36 Ta8 2.212079 1_554
O37 S8 1.485531 1_555
O37 Ta9 2.200211 1_554
O38 Si12 1.662973 1_555
O38 Ta8 1.933329 1_554
O39 Si13 1.678441 1_555
O39 Ta9 1.907430 1_554
O40 Si14 1.661772 1_555
O40 Ta8 1.951634 1_554
O41 S6 1.486870 1_555
O41 Ta9 2.210576 1_554
O42 S3 1.482273 1_555
O42 Ta10 2.249896 1_555
O43 S4 1.498506 1_555
O43 Ta11 2.160962 1_555
O44 S5 1.484389 1_555
O44 Ta10 2.209217 1_555
O45 Si11 1.667995 1_555
O45 Ta11 1.943323 1_555
O46 Si10 1.681255 1_555
O46 Ta10 1.909629 1_555
O47 S2 1.482567 1_555
O47 Ta11 2.229925 1_555
O48 Si15 1.625421 1_555
O48 Ta12 1.942922 1_556
O49 Si16 1.622548 1_555
O49 Ta13 1.970880 1_556
O50 Si17 1.610307 1_555
O50 Ta12 1.991081 1_556
O51 Si18 1.636755 1_555
O51 Ta13 1.895767 1_556
O52 Si19 1.629727 1_555
O52 Ta12 1.900781 1_556
O53 Si20 1.647319 1_555
O53 Ta13 1.875494 1_556
O54 Si21 1.657822 1_555
O54 Ta14 1.881042 1_555
O55 Si22 1.629869 1_555
O55 Ta15 1.940471 1_555
O56 Si23 1.671581 1_555
O56 Ta14 1.859966 1_555
O57 Si24 1.626901 1_555
O57 Ta15 1.899217 1_555
O58 Si25 1.651678 1_555
O58 Ta14 1.884374 1_555
O59 Si26 1.620510 1_555
O59 Ta15 1.971441 1_555
O60 Si25 1.644747 1_555
O60 Ta16 1.917762 1_555
O61 Si26 1.623715 1_555
O61 Ta17 1.947406 1_555
O62 Si21 1.627549 1_555
O62 Ta16 1.979626 1_555
O63 Si22 1.635708 1_555
O63 Ta17 2.021994 1_555
O64 Si23 1.640936 1_555
O64 Ta16 1.944662 1_555
O65 Si24 1.608142 1_555
O65 Ta17 1.988416 1_555
O66 Si17 1.633091 1_555
O66 Ta18 1.938166 1_555
O67 Si18 1.664939 1_555
O67 Ta19 1.886528 1_555
O68 Si19 1.630394 1_555
O68 Ta18 1.952029 1_555
O69 Si20 1.653632 1_555
O69 Ta19 1.922838 1_555
O70 Si15 1.653628 1_555
O70 Ta18 1.967810 1_555
O71 Si16 1.650025 1_555
O71 Ta19 1.966202 1_555
O72 Si25 1.597461 1_555
O72 Ta0 2.053120 1_465
O73 Si26 1.619956 1_555
O73 Ta1 2.003042 1_565
O74 Si21 1.604632 1_555
O74 Ta1 2.039538 1_565
O75 Si22 1.630690 1_555
O75 Ta0 2.004971 1_565
O76 Si23 1.604947 1_555
O76 Ta0 2.039261 1_455
O77 Si24 1.636482 1_555
O77 Ta1 1.930739 1_555
O78 Si17 1.630262 1_555
O78 Ta2 1.973910 1_545
O79 Si18 1.601884 1_555
O79 Ta3 2.016903 1_545
O80 Si19 1.660824 1_555
O80 Ta2 1.894279 1_555
O81 Si20 1.608411 1_555
O81 Ta3 2.014603 1_555
O82 Si15 1.635675 1_555
O82 Ta3 1.979241 1_555
O83 Si16 1.620516 1_555
O83 Ta2 2.001305 1_655
O84 Si10 1.684040 1_555
O84 Ta5 1.994479 1_555
O85 S2 1.503415 1_555
O85 Ta4 2.243681 1_645
O86 S3 1.533577 1_555
O86 Ta4 2.101770 1_545
O87 S4 1.506024 1_555
O87 Ta5 2.238218 1_555
O88 S5 1.494319 1_555
O88 Ta5 2.293859 1_565
O89 Si11 1.687201 1_555
O89 Ta4 1.971674 1_655
O90 Si12 1.666783 1_555
O90 Ta7 1.966446 1_565
O91 Si13 1.684672 1_555
O91 Ta6 1.984879 1_655
O92 Si14 1.674231 1_555
O92 Ta7 1.967772 1_555
O93 S6 1.501157 1_555
O93 Ta6 2.272769 1_645
O94 S7 1.524377 1_555
O94 Ta6 2.181167 1_545
O95 S8 1.518128 1_555
O95 Ta7 2.097395 1_555
O96 Si9 1.578008 1_545
O96 Zn0 2.007528 1_555
O97 S1 1.443155 1_555
O97 Zn1 2.287620 1_555
O98 Si5 1.591706 1_555
O98 Zn0 2.043296 1_555
O99 Si6 1.587522 1_555
O99 Zn1 2.033746 1_555
O100 Si8 1.599123 1_555
O100 Zn0 2.077568 1_555
O101 Si7 1.590743 1_655
O101 Zn1 2.047478 1_555
O102 S0 1.429520 1_555
O102 Zn2 2.368412 1_555
O103 Si2 1.579946 1_555
O103 Zn3 2.025452 1_555
O104 Si4 1.589185 1_555
O104 Zn2 2.090392 1_555
O105 Si3 1.598754 1_655
O105 Zn3 2.111757 1_555
O106 Si0 1.577746 1_555
O106 Zn2 2.155907 1_555
O107 Si1 1.595301 1_555
O107 Zn3 2.051600 1_555
O108 Si15 1.631356 1_555
O108 Ta8 1.989655 1_555
O109 Si16 1.657884 1_555
O109 Ta9 1.912943 1_555
O110 Si18 1.622897 1_555
O110 Ta8 1.940338 1_555
O111 Si17 1.665609 1_655
O111 Ta9 1.896269 1_555
O112 Si19 1.611952 1_545
O112 Ta8 2.016753 1_555
O113 Si20 1.627328 1_545
O113 Ta9 1.981808 1_555
O114 Si21 1.648071 1_545
O114 Ta10 1.906648 1_555
O115 Si22 1.658015 1_545
O115 Ta11 1.945771 1_555
O116 Si23 1.628439 1_555
O116 Ta10 1.975471 1_555
O117 Si24 1.655007 1_555
O117 Ta11 1.899512 1_555
O118 Si26 1.674203 1_555
O118 Ta10 1.877565 1_555
O119 Si25 1.637486 1_655
O119 Ta11 1.915021 1_555
O120 S7 1.500084 1_555
O120 Ta12 2.178904 1_555
O121 S8 1.499498 1_555
O121 Ta13 2.185812 1_555
O122 Si13 1.644517 1_455
O122 Ta12 1.981978 1_555
O123 Si12 1.689160 1_555
O123 Ta13 1.933341 1_555
O124 Si14 1.660681 1_565
O124 Ta12 1.944359 1_555
O125 S6 1.513514 1_565
O125 Ta13 2.158271 1_555
O126 S3 1.518155 1_565
O126 Ta14 2.172337 1_555
O127 S4 1.493352 1_565
O127 Ta15 2.188761 1_555
O128 S5 1.535406 1_555
O128 Ta14 2.126565 1_555
O129 Si11 1.645957 1_555
O129 Ta15 1.970933 1_555
O130 S2 1.528025 1_455
O130 Ta14 2.143949 1_555
O131 Si10 1.650338 1_555
O131 Ta15 1.975753 1_555
O132 Si0 1.691617 1_565
O132 Ta16 2.020042 1_555
O133 Si1 1.655621 1_565
O133 Ta17 1.980843 1_555
O134 S0 1.532828 1_555
O134 Ta16 2.174549 1_555
O135 Si2 1.628826 1_555
O135 Ta17 2.029515 1_555
O136 Si3 1.666929 1_555
O136 Ta16 1.966741 1_555
O137 Si4 1.636936 1_555
O137 Ta17 1.964912 1_555
O138 Si5 1.644798 1_555
O138 Ta18 2.021163 1_555
O139 Si6 1.680713 1_555
O139 Ta19 2.044404 1_555
O140 Si7 1.616003 1_555
O140 Ta18 2.012357 1_555
O141 Si8 1.664827 1_555
O141 Ta19 1.989600 1_555
O142 Si9 1.628466 1_555
O142 Ta18 2.049084 1_555
O143 S1 1.514428 1_565
O143 Ta19 2.251503 1_555
