# generated using pymatgen
data_SrC20
_symmetry_space_group_name_H-M   'P 1'
_cell_length_a   11.20754600
_cell_length_b   11.20754600
_cell_length_c   11.20754600
_cell_angle_alpha   90.00000000
_cell_angle_beta   90.00000000
_cell_angle_gamma   90.00000000
_symmetry_Int_Tables_number   1
_chemical_formula_structural   SrC20
_chemical_formula_sum   'Sr6 C120'
_cell_volume   1407.76962440
_cell_formula_units_Z   6
loop_
 _symmetry_equiv_pos_site_id
 _symmetry_equiv_pos_as_xyz
  1  'x, y, z'
loop_
 _atom_site_type_symbol
 _atom_site_label
 _atom_site_symmetry_multiplicity
 _atom_site_fract_x
 _atom_site_fract_y
 _atom_site_fract_z
 _atom_site_occupancy
  Sr  Sr0  1  0.00000000  0.24255900  0.50000000  1
  Sr  Sr1  1  0.50000000  0.00000000  0.24255900  1
  Sr  Sr2  1  0.24255900  0.50000000  0.00000000  1
  Sr  Sr3  1  0.75744100  0.50000000  0.00000000  1
  Sr  Sr4  1  0.50000000  0.00000000  0.75744100  1
  Sr  Sr5  1  0.00000000  0.75744100  0.50000000  1
  C  C0  1  0.06372100  0.00000000  0.31152800  1
  C  C1  1  0.31152800  0.06372100  0.00000000  1
  C  C2  1  0.00000000  0.31152800  0.06372100  1
  C  C3  1  0.00000000  0.68847200  0.06372100  1
  C  C4  1  0.31152800  0.93627900  0.00000000  1
  C  C5  1  0.00000000  0.31152800  0.93627900  1
  C  C6  1  0.68847200  0.93627900  0.00000000  1
  C  C7  1  0.68847200  0.06372100  0.00000000  1
  C  C8  1  0.00000000  0.68847200  0.93627900  1
  C  C9  1  0.06372100  0.00000000  0.68847200  1
  C  C10  1  0.93627900  0.00000000  0.68847200  1
  C  C11  1  0.93627900  0.00000000  0.31152800  1
  C  C12  1  0.12799600  0.10430200  0.27170800  1
  C  C13  1  0.27170800  0.12799600  0.10430200  1
  C  C14  1  0.10430200  0.27170800  0.12799600  1
  C  C15  1  0.89569800  0.72829200  0.12799600  1
  C  C16  1  0.27170800  0.87200400  0.89569800  1
  C  C17  1  0.89569800  0.27170800  0.87200400  1
  C  C18  1  0.72829200  0.87200400  0.10430200  1
  C  C19  1  0.72829200  0.12799600  0.89569800  1
  C  C20  1  0.10430200  0.72829200  0.87200400  1
  C  C21  1  0.12799600  0.89569800  0.72829200  1
  C  C22  1  0.87200400  0.10430200  0.72829200  1
  C  C23  1  0.87200400  0.89569800  0.27170800  1
  C  C24  1  0.87200400  0.89569800  0.72829200  1
  C  C25  1  0.72829200  0.87200400  0.89569800  1
  C  C26  1  0.89569800  0.72829200  0.87200400  1
  C  C27  1  0.10430200  0.27170800  0.87200400  1
  C  C28  1  0.72829200  0.12799600  0.10430200  1
  C  C29  1  0.10430200  0.72829200  0.12799600  1
  C  C30  1  0.27170800  0.12799600  0.89569800  1
  C  C31  1  0.27170800  0.87200400  0.10430200  1
  C  C32  1  0.89569800  0.27170800  0.12799600  1
  C  C33  1  0.87200400  0.10430200  0.27170800  1
  C  C34  1  0.12799600  0.89569800  0.27170800  1
  C  C35  1  0.12799600  0.10430200  0.72829200  1
  C  C36  1  0.06447600  0.20690000  0.23211700  1
  C  C37  1  0.23211700  0.06447600  0.20690000  1
  C  C38  1  0.20690000  0.23211700  0.06447600  1
  C  C39  1  0.79310000  0.76788300  0.06447600  1
  C  C40  1  0.23211700  0.93552400  0.79310000  1
  C  C41  1  0.79310000  0.23211700  0.93552400  1
  C  C42  1  0.76788300  0.93552400  0.20690000  1
  C  C43  1  0.76788300  0.06447600  0.79310000  1
  C  C44  1  0.20690000  0.76788300  0.93552400  1
  C  C45  1  0.06447600  0.79310000  0.76788300  1
  C  C46  1  0.93552400  0.20690000  0.76788300  1
  C  C47  1  0.93552400  0.79310000  0.23211700  1
  C  C48  1  0.93552400  0.79310000  0.76788300  1
  C  C49  1  0.76788300  0.93552400  0.79310000  1
  C  C50  1  0.79310000  0.76788300  0.93552400  1
  C  C51  1  0.20690000  0.23211700  0.93552400  1
  C  C52  1  0.76788300  0.06447600  0.20690000  1
  C  C53  1  0.20690000  0.76788300  0.06447600  1
  C  C54  1  0.23211700  0.06447600  0.79310000  1
  C  C55  1  0.23211700  0.93552400  0.20690000  1
  C  C56  1  0.79310000  0.23211700  0.06447600  1
  C  C57  1  0.93552400  0.20690000  0.23211700  1
  C  C58  1  0.06447600  0.79310000  0.23211700  1
  C  C59  1  0.06447600  0.20690000  0.76788300  1
  C  C60  1  0.56384200  0.50000000  0.81327900  1
  C  C61  1  0.81327900  0.56384200  0.50000000  1
  C  C62  1  0.50000000  0.81327900  0.56384200  1
  C  C63  1  0.50000000  0.18672100  0.56384200  1
  C  C64  1  0.81327900  0.43615800  0.50000000  1
  C  C65  1  0.50000000  0.81327900  0.43615800  1
  C  C66  1  0.18672100  0.43615800  0.50000000  1
  C  C67  1  0.18672100  0.56384200  0.50000000  1
  C  C68  1  0.50000000  0.18672100  0.43615800  1
  C  C69  1  0.56384200  0.50000000  0.18672100  1
  C  C70  1  0.43615800  0.50000000  0.18672100  1
  C  C71  1  0.43615800  0.50000000  0.81327900  1
  C  C72  1  0.62801600  0.60439500  0.77192200  1
  C  C73  1  0.77192200  0.62801600  0.60439500  1
  C  C74  1  0.60439500  0.77192200  0.62801600  1
  C  C75  1  0.39560500  0.22807800  0.62801600  1
  C  C76  1  0.77192200  0.37198400  0.39560500  1
  C  C77  1  0.39560500  0.77192200  0.37198400  1
  C  C78  1  0.22807800  0.37198400  0.60439500  1
  C  C79  1  0.22807800  0.62801600  0.39560500  1
  C  C80  1  0.60439500  0.22807800  0.37198400  1
  C  C81  1  0.62801600  0.39560500  0.22807800  1
  C  C82  1  0.37198400  0.60439500  0.22807800  1
  C  C83  1  0.37198400  0.39560500  0.77192200  1
  C  C84  1  0.37198400  0.39560500  0.22807800  1
  C  C85  1  0.22807800  0.37198400  0.39560500  1
  C  C86  1  0.39560500  0.22807800  0.37198400  1
  C  C87  1  0.60439500  0.77192200  0.37198400  1
  C  C88  1  0.22807800  0.62801600  0.60439500  1
  C  C89  1  0.60439500  0.22807800  0.62801600  1
  C  C90  1  0.77192200  0.62801600  0.39560500  1
  C  C91  1  0.77192200  0.37198400  0.60439500  1
  C  C92  1  0.39560500  0.77192200  0.62801600  1
  C  C93  1  0.37198400  0.60439500  0.77192200  1
  C  C94  1  0.62801600  0.39560500  0.77192200  1
  C  C95  1  0.62801600  0.60439500  0.22807800  1
  C  C96  1  0.56416400  0.70657900  0.73163700  1
  C  C97  1  0.73163700  0.56416400  0.70657900  1
  C  C98  1  0.70657900  0.73163700  0.56416400  1
  C  C99  1  0.29342100  0.26836300  0.56416400  1
  C  C100  1  0.73163700  0.43583600  0.29342100  1
  C  C101  1  0.29342100  0.73163700  0.43583600  1
  C  C102  1  0.26836300  0.43583600  0.70657900  1
  C  C103  1  0.26836300  0.56416400  0.29342100  1
  C  C104  1  0.70657900  0.26836300  0.43583600  1
  C  C105  1  0.56416400  0.29342100  0.26836300  1
  C  C106  1  0.43583600  0.70657900  0.26836300  1
  C  C107  1  0.43583600  0.29342100  0.73163700  1
  C  C108  1  0.43583600  0.29342100  0.26836300  1
  C  C109  1  0.26836300  0.43583600  0.29342100  1
  C  C110  1  0.29342100  0.26836300  0.43583600  1
  C  C111  1  0.70657900  0.73163700  0.43583600  1
  C  C112  1  0.26836300  0.56416400  0.70657900  1
  C  C113  1  0.70657900  0.26836300  0.56416400  1
  C  C114  1  0.73163700  0.56416400  0.29342100  1
  C  C115  1  0.73163700  0.43583600  0.70657900  1
  C  C116  1  0.29342100  0.73163700  0.56416400  1
  C  C117  1  0.43583600  0.70657900  0.73163700  1
  C  C118  1  0.56416400  0.29342100  0.73163700  1
  C  C119  1  0.56416400  0.70657900  0.26836300  1
loop_
_geom_bond_atom_site_label_1
_geom_bond_atom_site_label_2
_geom_bond_distance
_geom_bond_site_symmetry_2
C0 C11 1.428312 1_455
C0 C12 1.443809 1_555
C0 C34 1.443809 1_545
C1 C4 1.428312 1_545
C1 C13 1.443809 1_555
C1 C30 1.443809 1_554
C2 C5 1.428312 1_554
C2 C32 1.443809 1_455
C3 C8 1.428312 1_554
C6 C7 1.428312 1_565
C10 C9 1.428312 1_655
C10 C22 1.443809 1_555
C10 C24 1.443809 1_545
C11 C33 1.443809 1_555
C11 C23 1.443809 1_545
C12 C36 1.423340 1_555
C12 C37 1.445181 1_555
C13 C37 1.423340 1_555
C13 C38 1.445181 1_555
C14 C38 1.423340 1_555
C14 C2 1.443809 1_555
C14 C36 1.445181 1_555
C15 C39 1.423340 1_555
C15 C3 1.443809 1_655
C15 C47 1.445181 1_555
C16 C40 1.423340 1_555
C16 C4 1.443809 1_556
C16 C44 1.445181 1_555
C17 C41 1.423340 1_555
C17 C5 1.443809 1_655
C17 C46 1.445181 1_555
C18 C42 1.423340 1_555
C18 C6 1.443809 1_555
C18 C39 1.445181 1_555
C19 C43 1.423340 1_555
C19 C7 1.443809 1_556
C19 C41 1.445181 1_555
C20 C44 1.423340 1_555
C20 C8 1.443809 1_555
C20 C45 1.445181 1_555
C21 C45 1.423340 1_555
C21 C9 1.443809 1_565
C21 C40 1.445181 1_555
C22 C46 1.423340 1_555
C22 C43 1.445181 1_555
C23 C47 1.423340 1_555
C23 C42 1.445181 1_555
C24 C48 1.423340 1_555
C24 C49 1.445181 1_555
C25 C49 1.423340 1_555
C25 C6 1.443809 1_556
C25 C50 1.445181 1_555
C26 C50 1.423340 1_555
C26 C8 1.443809 1_655
C26 C48 1.445181 1_555
C27 C51 1.423340 1_555
C27 C5 1.443809 1_555
C27 C59 1.445181 1_555
C28 C52 1.423340 1_555
C28 C7 1.443809 1_555
C28 C56 1.445181 1_555
C29 C53 1.423340 1_555
C29 C3 1.443809 1_555
C29 C58 1.445181 1_555
C30 C54 1.423340 1_555
C30 C51 1.445181 1_555
C31 C55 1.423340 1_555
C31 C4 1.443809 1_555
C31 C53 1.445181 1_555
C32 C56 1.423340 1_555
C32 C57 1.445181 1_555
C33 C57 1.423340 1_555
C33 C52 1.445181 1_555
C34 C58 1.423340 1_555
C34 C55 1.445181 1_555
C35 C59 1.423340 1_555
C35 C9 1.443809 1_555
C35 C54 1.445181 1_555
C36 C57 1.445235 1_455
C36 Sr0 3.113803 1_555
C37 C55 1.445235 1_545
C37 Sr1 3.113803 1_555
C38 C51 1.445235 1_554
C38 Sr2 3.113803 1_555
C39 C50 1.445235 1_554
C39 Sr3 3.113803 1_555
C40 C54 1.445235 1_565
C40 Sr4 3.113803 1_565
C41 C56 1.445235 1_556
C41 Sr3 3.113803 1_556
C42 C52 1.445235 1_565
C42 Sr1 3.113803 1_565
C43 C49 1.445235 1_545
C43 Sr4 3.113803 1_555
C44 C53 1.445235 1_556
C44 Sr2 3.113803 1_556
C45 C48 1.445235 1_455
C45 Sr5 3.113803 1_555
C46 C59 1.445235 1_655
C46 Sr0 3.113803 1_655
C47 C58 1.445235 1_655
C47 Sr5 3.113803 1_655
C48 Sr5 3.113803 1_655
C49 Sr4 3.113803 1_565
C50 Sr3 3.113803 1_556
C51 Sr2 3.113803 1_556
C52 Sr1 3.113803 1_555
C53 Sr2 3.113803 1_555
C54 Sr4 3.113803 1_555
C55 Sr1 3.113803 1_565
C56 Sr3 3.113803 1_555
C57 Sr0 3.113803 1_655
C58 Sr5 3.113803 1_555
C59 Sr0 3.113803 1_555
C60 C71 1.431024 1_555
C60 C94 1.449505 1_555
C60 C72 1.449505 1_555
C60 Sr3 3.014503 1_556
C61 C64 1.431024 1_555
C61 C90 1.449505 1_555
C61 C73 1.449505 1_555
C61 Sr5 3.014503 1_655
C62 C65 1.431024 1_555
C62 C92 1.449505 1_555
C62 C74 1.449505 1_555
C62 Sr4 3.014503 1_565
C63 C68 1.431024 1_555
C63 C75 1.449505 1_555
C63 C89 1.449505 1_555
C63 Sr4 3.014503 1_555
C64 C91 1.449505 1_555
C64 C76 1.449505 1_555
C64 Sr0 3.014503 1_655
C65 C77 1.449505 1_555
C65 C87 1.449505 1_555
C65 Sr1 3.014503 1_565
C66 C67 1.431024 1_555
C66 C85 1.449505 1_555
C66 C78 1.449505 1_555
C66 Sr0 3.014503 1_555
C67 C88 1.449505 1_555
C67 C79 1.449505 1_555
C67 Sr5 3.014503 1_555
C68 C80 1.449505 1_555
C68 C86 1.449505 1_555
C68 Sr1 3.014503 1_555
C69 C70 1.431024 1_555
C69 C81 1.449505 1_555
C69 C95 1.449505 1_555
C69 Sr3 3.014503 1_555
C70 C82 1.449505 1_555
C70 C84 1.449505 1_555
C70 Sr2 3.014503 1_555
C71 C83 1.449505 1_555
C71 C93 1.449505 1_555
C71 Sr2 3.014503 1_556
C72 C96 1.423911 1_555
C72 C97 1.445102 1_555
C72 Sr3 3.163402 1_556
C73 C97 1.423911 1_555
C73 C98 1.445102 1_555
C73 Sr5 3.163402 1_655
C74 C98 1.423911 1_555
C74 C96 1.445102 1_555
C74 Sr4 3.163402 1_565
C75 C99 1.423911 1_555
C75 Sr4 3.163402 1_555
C76 Sr0 3.163402 1_655
C77 Sr1 3.163402 1_565
C78 C99 1.445102 1_555
C78 Sr0 3.163402 1_555
C79 Sr5 3.163402 1_555
C80 Sr1 3.163402 1_555
C81 Sr3 3.163402 1_555
C82 Sr2 3.163402 1_555
C83 Sr2 3.163402 1_556
C84 Sr2 3.163402 1_555
C85 Sr0 3.163402 1_555
C86 Sr1 3.163402 1_555
C87 Sr1 3.163402 1_565
C88 Sr5 3.163402 1_555
C89 Sr4 3.163402 1_555
C90 Sr5 3.163402 1_655
C91 Sr0 3.163402 1_655
C92 Sr4 3.163402 1_565
C93 Sr2 3.163402 1_556
C94 Sr3 3.163402 1_556
C95 Sr3 3.163402 1_555
C100 C76 1.423911 1_555
C100 C114 1.438242 1_555
C100 C81 1.445102 1_555
C101 C77 1.423911 1_555
C101 C116 1.438242 1_555
C101 C79 1.445102 1_555
C102 C78 1.423911 1_555
C102 C112 1.438242 1_555
C102 C83 1.445102 1_555
C103 C79 1.423911 1_555
C103 C109 1.438242 1_555
C103 C82 1.445102 1_555
C104 C80 1.423911 1_555
C104 C113 1.438242 1_555
C104 C76 1.445102 1_555
C105 C81 1.423911 1_555
C105 C108 1.438242 1_555
C105 C80 1.445102 1_555
C106 C82 1.423911 1_555
C106 C119 1.438242 1_555
C106 C77 1.445102 1_555
C107 C83 1.423911 1_555
C107 C118 1.438242 1_555
C107 C75 1.445102 1_555
C108 C84 1.423911 1_555
C108 C86 1.445102 1_555
C109 C85 1.423911 1_555
C109 C84 1.445102 1_555
C110 C86 1.423911 1_555
C110 C99 1.438242 1_555
C110 C85 1.445102 1_555
C111 C87 1.423911 1_555
C111 C98 1.438242 1_555
C111 C90 1.445102 1_555
C112 C88 1.423911 1_555
C112 C93 1.445102 1_555
C113 C89 1.423911 1_555
C113 C91 1.445102 1_555
C114 C90 1.423911 1_555
C114 C95 1.445102 1_555
C115 C91 1.423911 1_555
C115 C97 1.438242 1_555
C115 C94 1.445102 1_555
C116 C92 1.423911 1_555
C116 C88 1.445102 1_555
C117 C93 1.423911 1_555
C117 C96 1.438242 1_555
C117 C92 1.445102 1_555
C118 C94 1.423911 1_555
C118 C89 1.445102 1_555
C119 C95 1.423911 1_555
C119 C87 1.445102 1_555
