# generated using pymatgen
data_Cd(IO3)2
_symmetry_space_group_name_H-M   'P 1'
_cell_length_a   5.58085731
_cell_length_b   5.85403463
_cell_length_c   17.40753756
_cell_angle_alpha   90.00000000
_cell_angle_beta   90.00000000
_cell_angle_gamma   90.00000000
_symmetry_Int_Tables_number   1
_chemical_formula_structural   Cd(IO3)2
_chemical_formula_sum   'Cd4 I8 O24'
_cell_volume   568.71351216
_cell_formula_units_Z   4
loop_
 _symmetry_equiv_pos_site_id
 _symmetry_equiv_pos_as_xyz
  1  'x, y, z'
loop_
 _atom_site_type_symbol
 _atom_site_label
 _atom_site_symmetry_multiplicity
 _atom_site_fract_x
 _atom_site_fract_y
 _atom_site_fract_z
 _atom_site_occupancy
  Cd  Cd0  1  0.70900476  0.17282552  0.09375655  1
  Cd  Cd1  1  0.20900476  0.32717448  0.90624345  1
  Cd  Cd2  1  0.29099524  0.67282552  0.40624345  1
  Cd  Cd3  1  0.79099524  0.82717448  0.59375655  1
  I  I0  1  0.24756994  0.77997724  0.70997365  1
  I  I1  1  0.74756994  0.72002276  0.29002635  1
  I  I2  1  0.75243006  0.27997724  0.79002635  1
  I  I3  1  0.25243006  0.22002276  0.20997365  1
  I  I4  1  0.03713726  0.63829778  0.07732180  1
  I  I5  1  0.53713726  0.86170222  0.92267820  1
  I  I6  1  0.96286274  0.13829778  0.42267820  1
  I  I7  1  0.46286274  0.36170222  0.57732180  1
  O  O0  1  0.54135833  0.60407594  0.51579567  1
  O  O1  1  0.04135833  0.89592406  0.48420433  1
  O  O2  1  0.45864167  0.10407594  0.98420433  1
  O  O3  1  0.95864167  0.39592406  0.01579567  1
  O  O4  1  0.60796306  0.49370468  0.66119069  1
  O  O5  1  0.10796306  0.00629532  0.33880931  1
  O  O6  1  0.39203694  0.99370468  0.83880931  1
  O  O7  1  0.89203694  0.50629532  0.16119069  1
  O  O8  1  0.71681365  0.18522282  0.54671183  1
  O  O9  1  0.21681365  0.31477718  0.45328817  1
  O  O10  1  0.28318635  0.68522282  0.95328817  1
  O  O11  1  0.78318635  0.81477718  0.04671183  1
  O  O12  1  0.04393064  0.02391033  0.16357157  1
  O  O13  1  0.54393064  0.47608967  0.83642843  1
  O  O14  1  0.95606936  0.52391033  0.33642843  1
  O  O15  1  0.45606936  0.97608967  0.66357157  1
  O  O16  1  0.36113583  0.37433486  0.12484749  1
  O  O17  1  0.86113583  0.12566514  0.87515251  1
  O  O18  1  0.63886417  0.87433486  0.37515251  1
  O  O19  1  0.13886417  0.62566514  0.62484749  1
  O  O20  1  0.51503643  0.03656217  0.20891545  1
  O  O21  1  0.01503643  0.46343783  0.79108455  1
  O  O22  1  0.48496357  0.53656217  0.29108455  1
  O  O23  1  0.98496357  0.96343783  0.70891545  1
loop_
_geom_bond_atom_site_label_1
_geom_bond_atom_site_label_2
_geom_bond_distance
_geom_bond_site_symmetry_2
Cd0 O11 2.288094 1_545
Cd0 O16 2.335280 1_555
Cd0 O3 2.342737 1_555
Cd0 O12 2.393896 1_655
Cd0 O2 2.398132 1_554
Cd0 O20 2.413854 1_555
Cd0 O7 2.496444 1_555
Cd1 O10 2.288094 1_555
Cd1 O17 2.335280 1_455
Cd1 O2 2.342737 1_555
Cd1 O13 2.393896 1_555
Cd1 O3 2.398132 1_456
Cd1 O21 2.413854 1_555
Cd1 O6 2.496444 1_545
Cd2 O9 2.288094 1_555
Cd2 O18 2.335280 1_555
Cd2 O1 2.342737 1_555
Cd2 O14 2.393896 1_455
Cd2 O0 2.398132 1_555
Cd2 O22 2.413854 1_555
Cd2 O5 2.496444 1_565
Cd3 O8 2.288094 1_565
Cd3 O19 2.335280 1_655
Cd3 O0 2.342737 1_555
Cd3 O15 2.393896 1_555
Cd3 O1 2.398132 1_655
Cd3 O23 2.413854 1_555
Cd3 O4 2.496444 1_555
I0 O23 1.817051 1_455
I0 O15 1.823307 1_555
I0 O19 1.838458 1_555
I0 O21 2.666726 1_555
I1 O22 1.817051 1_555
I1 O14 1.823307 1_555
I1 O18 1.838458 1_555
I1 O20 2.666726 1_565
I2 O21 1.817051 1_655
I2 O13 1.823307 1_555
I2 O17 1.838458 1_555
I2 O23 2.666726 1_545
I3 O20 1.817051 1_555
I3 O12 1.823307 1_555
I3 O16 1.838458 1_555
I3 O22 2.666726 1_555
I4 O3 1.830891 1_455
I4 O11 1.833000 1_455
I4 O7 1.839659 1_455
I4 O16 2.518288 1_555
I4 O10 2.573488 1_554
I5 O2 1.830891 1_565
I5 O10 1.833000 1_555
I5 O6 1.839659 1_555
I5 O17 2.518288 1_565
I5 O11 2.573488 1_556
I6 O1 1.830891 1_645
I6 O9 1.833000 1_655
I6 O5 1.839659 1_655
I6 O18 2.518288 1_545
I6 O8 2.573488 1_555
I7 O0 1.830891 1_555
I7 O8 1.833000 1_555
I7 O4 1.839659 1_555
I7 O19 2.518288 1_555
I7 O9 2.573488 1_555
