# generated using pymatgen
data_CeInPd
_symmetry_space_group_name_H-M   'P 1'
_cell_length_a   7.70132549
_cell_length_b   7.70137818
_cell_length_c   4.11431493
_cell_angle_alpha   90.00000000
_cell_angle_beta   90.00000000
_cell_angle_gamma   120.00383884
_symmetry_Int_Tables_number   1
_chemical_formula_structural   CeInPd
_chemical_formula_sum   'Ce3 In3 Pd3'
_cell_volume   211.32228196
_cell_formula_units_Z   3
loop_
 _symmetry_equiv_pos_site_id
 _symmetry_equiv_pos_as_xyz
  1  'x, y, z'
loop_
 _atom_site_type_symbol
 _atom_site_label
 _atom_site_symmetry_multiplicity
 _atom_site_fract_x
 _atom_site_fract_y
 _atom_site_fract_z
 _atom_site_occupancy
  Ce  Ce0  1  0.41540947  0.41539332  -0.00000000  1
  Ce  Ce1  1  0.58457909  0.99997656  -0.00000000  1
  Ce  Ce2  1  -0.00000258  0.58458933  -0.00000000  1
  In  In0  1  0.75280177  0.75281860  0.50000000  1
  In  In1  1  0.24721711  0.00003077  0.50000000  1
  In  In2  1  0.00000091  0.24719906  0.50000000  1
  Pd  Pd0  1  0.99993661  -0.00002729  -0.00000000  1
  Pd  Pd1  1  0.66670345  0.33326801  0.50000000  1
  Pd  Pd2  1  0.33335417  0.66675063  0.50000000  1
loop_
_geom_bond_atom_site_label_1
_geom_bond_atom_site_label_2
_geom_bond_distance
_geom_bond_site_symmetry_2
Ce0 Pd1 3.098624 1_554
Ce0 Pd1 3.098624 1_555
Ce0 Pd2 3.098708 1_554
Ce0 Pd2 3.098708 1_555
Ce0 Pd0 3.199316 1_455
Ce0 In0 3.314112 1_555
Ce0 In0 3.314112 1_554
Ce0 In1 3.463879 1_554
Ce0 In1 3.463879 1_555
Ce0 In2 3.464122 1_554
Ce0 In2 3.464122 1_555
Ce1 Pd2 3.097635 1_554
Ce1 Pd2 3.097635 1_555
Ce1 Pd1 3.097868 1_565
Ce1 Pd1 3.097868 1_564
Ce1 Pd0 3.198818 1_565
Ce1 In1 3.314104 1_564
Ce1 In1 3.314104 1_565
Ce1 In0 3.464065 1_555
Ce1 In0 3.464065 1_554
Ce1 In2 3.464163 1_665
Ce1 In2 3.464163 1_664
Ce2 Pd1 3.098055 1_454
Ce2 Pd1 3.098055 1_455
Ce2 Pd2 3.098160 1_555
Ce2 Pd2 3.098160 1_554
Ce2 Pd0 3.199259 1_465
Ce2 In2 3.314135 1_554
Ce2 In2 3.314135 1_555
Ce2 In1 3.464272 1_564
Ce2 In1 3.464272 1_565
Ce2 In0 3.464308 1_455
Ce2 In0 3.464308 1_454
In0 Pd0 2.802535 1_566
In0 Pd0 2.802535 1_565
In0 Pd2 2.955129 1_555
In0 Pd1 2.955854 1_555
In0 In2 3.297187 1_665
In0 In1 3.297397 1_665
In1 Pd0 2.803166 1_455
In1 Pd0 2.803166 1_456
In1 Pd2 2.954822 1_545
In1 Pd1 2.954858 1_555
In1 In2 3.297394 1_555
In2 Pd0 2.802875 1_455
In2 Pd0 2.802875 1_456
In2 Pd1 2.954593 1_455
In2 Pd2 2.955486 1_555
