# generated using pymatgen
data_HfFeP
_symmetry_space_group_name_H-M   'P 1'
_cell_length_a   3.71189998
_cell_length_b   6.20591972
_cell_length_c   6.94762095
_cell_angle_alpha   89.99847162
_cell_angle_beta   90.00000192
_cell_angle_gamma   89.99999975
_symmetry_Int_Tables_number   1
_chemical_formula_structural   HfFeP
_chemical_formula_sum   'Hf4 Fe4 P4'
_cell_volume   160.04368209
_cell_formula_units_Z   4
loop_
 _symmetry_equiv_pos_site_id
 _symmetry_equiv_pos_as_xyz
  1  'x, y, z'
loop_
 _atom_site_type_symbol
 _atom_site_label
 _atom_site_symmetry_multiplicity
 _atom_site_fract_x
 _atom_site_fract_y
 _atom_site_fract_z
 _atom_site_occupancy
  Hf  Hf0  1  0.25000009  0.51501398  0.31374912  1
  Hf  Hf1  1  0.74999994  0.48496235  0.68624472  1
  Hf  Hf2  1  0.25000000  0.01503450  0.18631446  1
  Hf  Hf3  1  0.75000006  0.98497909  0.81368924  1
  Fe  Fe0  1  0.74999995  0.85246014  0.43753404  1
  Fe  Fe1  1  0.25000005  0.14753177  0.56247871  1
  Fe  Fe2  1  0.74999997  0.35246108  0.06247776  1
  Fe  Fe3  1  0.24999998  0.64756103  0.93750604  1
  P  P0  1  0.24999997  0.28146428  0.88678602  1
  P  P1  1  0.75000000  0.71852794  0.11322929  1
  P  P2  1  0.24999997  0.78147315  0.61318604  1
  P  P3  1  0.75000001  0.21853169  0.38680357  1
loop_
_geom_bond_atom_site_label_1
_geom_bond_atom_site_label_2
_geom_bond_distance
_geom_bond_site_symmetry_2
Hf0 P1 2.642050 1_555
Hf0 P1 2.642051 1_455
Hf0 P2 2.657558 1_555
Hf0 P3 2.662238 1_555
Hf0 P3 2.662238 1_455
Hf1 P0 2.642082 1_555
Hf1 P0 2.642082 1_655
Hf1 P3 2.657471 1_555
Hf1 P2 2.662366 1_555
Hf1 P2 2.662366 1_655
Hf2 P3 2.641924 1_555
Hf2 P3 2.641924 1_455
Hf2 P0 2.657873 1_554
Hf2 P1 2.662401 1_445
Hf2 P1 2.662401 1_545
Hf3 P2 2.642001 1_655
Hf3 P2 2.642002 1_555
Hf3 P1 2.658019 1_556
Hf3 P0 2.662325 1_665
Hf3 P0 2.662325 1_565
Fe0 P2 2.264483 1_555
Fe0 P2 2.264483 1_655
Fe0 P3 2.298979 1_565
Fe0 P1 2.401586 1_555
Fe0 Hf3 2.739751 1_555
Fe0 Hf2 2.740206 1_565
Fe0 Hf2 2.740206 1_665
Fe0 Hf1 2.861295 1_555
Fe0 Hf0 2.927419 1_555
Fe0 Hf0 2.927420 1_655
Fe1 P3 2.264585 1_555
Fe1 P3 2.264585 1_455
Fe1 P2 2.298875 1_545
Fe1 P0 2.401604 1_555
Fe1 Hf2 2.739770 1_555
Fe1 Hf3 2.740116 1_545
Fe1 Hf3 2.740116 1_445
Fe1 Hf0 2.861298 1_555
Fe1 Hf1 2.927312 1_555
Fe1 Hf1 2.927312 1_455
Fe2 P0 2.264656 1_554
Fe2 P0 2.264656 1_654
Fe2 P1 2.298992 1_555
Fe2 P3 2.401676 1_555
Fe2 Hf1 2.740192 1_554
Fe2 Hf0 2.740420 1_555
Fe2 Hf0 2.740421 1_655
Fe2 Hf3 2.861617 1_544
Fe2 Hf2 2.927406 1_555
Fe2 Hf2 2.927406 1_655
Fe3 P1 2.264738 1_456
Fe3 P1 2.264738 1_556
Fe3 P0 2.299141 1_555
Fe3 P2 2.401601 1_555
Fe3 Hf0 2.740344 1_556
Fe3 Hf1 2.740480 1_555
Fe3 Hf1 2.740481 1_455
Fe3 Hf2 2.861659 1_566
Fe3 Hf3 2.927327 1_455
Fe3 Hf3 2.927328 1_555
