# generated using pymatgen
data_Na4Mg(Ni2O5)2
_symmetry_space_group_name_H-M   'P 1'
_cell_length_a   5.08996761
_cell_length_b   6.16242070
_cell_length_c   6.99857168
_cell_angle_alpha   107.02176451
_cell_angle_beta   95.21941458
_cell_angle_gamma   105.16576318
_symmetry_Int_Tables_number   1
_chemical_formula_structural   Na4Mg(Ni2O5)2
_chemical_formula_sum   'Na4 Mg1 Ni4 O10'
_cell_volume   199.22724499
_cell_formula_units_Z   1
loop_
 _symmetry_equiv_pos_site_id
 _symmetry_equiv_pos_as_xyz
  1  'x, y, z'
loop_
 _atom_site_type_symbol
 _atom_site_label
 _atom_site_symmetry_multiplicity
 _atom_site_fract_x
 _atom_site_fract_y
 _atom_site_fract_z
 _atom_site_occupancy
  Na  Na0  1  0.20125600  0.39195100  0.39113500  1
  Na  Na1  1  0.56451000  0.71296800  0.21984400  1
  Na  Na2  1  0.84034100  0.08293700  0.56866500  1
  Na  Na3  1  0.99942000  0.52674900  0.03746000  1
  Mg  Mg0  1  0.41338800  0.29286900  0.79250300  1
  Ni  Ni0  1  0.40282700  0.79696800  0.79953400  1
  Ni  Ni1  1  0.99421600  0.00290900  0.98538200  1
  Ni  Ni2  1  0.79893700  0.58917500  0.60751200  1
  Ni  Ni3  1  0.58596000  0.20131200  0.18797600  1
  O  O0  1  0.11413100  0.91812800  0.72468400  1
  O  O1  1  0.11788300  0.49657200  0.71732900  1
  O  O2  1  0.30451100  0.88996100  0.06394400  1
  O  O3  1  0.31369400  0.32132000  0.07397300  1
  O  O4  1  0.53246400  0.73026700  0.55291000  1
  O  O5  1  0.67874300  0.65836900  0.86769100  1
  O  O6  1  0.54763600  0.28503000  0.52478200  1
  O  O7  1  0.67879500  0.10606200  0.88868400  1
  O  O8  1  0.84035700  0.51932100  0.33330600  1
  O  O9  1  0.86444100  0.05715100  0.23214500  1
loop_
_geom_bond_atom_site_label_1
_geom_bond_atom_site_label_2
_geom_bond_distance
_geom_bond_site_symmetry_2
Na0 O9 2.211806 1_455
Na0 O4 2.214107 1_555
Na0 O8 2.226982 1_455
Na0 O6 2.255214 1_555
Na0 O3 2.289058 1_555
Na0 O1 2.294570 1_555
Na1 O9 2.238674 1_565
Na1 O3 2.281489 1_555
Na1 O8 2.292284 1_555
Na1 O2 2.306665 1_555
Na1 O4 2.324706 1_555
Na1 O5 2.530408 1_554
Na2 O6 2.230801 1_555
Na2 O4 2.288545 1_545
Na2 O0 2.297562 1_645
Na2 O9 2.330392 1_555
Na2 O1 2.423083 1_655
Na2 O7 2.433533 1_555
Na3 O8 2.299053 1_555
Na3 O2 2.311235 1_655
Na3 O3 2.324081 1_655
Na3 O1 2.340587 1_654
Na3 O5 2.374410 1_554
Na3 O7 2.522911 1_554
Mg0 O6 2.043794 1_555
Mg0 O3 2.048146 1_556
Mg0 O7 2.169151 1_555
Mg0 O5 2.181593 1_555
Mg0 O0 2.294477 1_545
Mg0 O1 2.312039 1_555
Ni0 O4 1.875430 1_555
Ni0 O0 1.911588 1_555
Ni0 O5 1.916672 1_555
Ni0 O1 1.918649 1_555
Ni0 O2 1.923751 1_556
Ni0 O7 1.932704 1_565
Ni1 O9 1.875007 1_556
Ni1 O0 1.945695 1_645
Ni1 O2 1.980528 1_646
Ni1 O7 2.006940 1_555
Ni1 O3 2.076942 1_656
Ni1 O5 2.171746 1_545
Ni2 O4 1.859817 1_555
Ni2 O6 1.860048 1_555
Ni2 O8 1.884131 1_555
Ni2 O5 1.938118 1_555
Ni2 O1 2.016518 1_655
Ni2 O0 2.107464 1_655
Ni3 O9 1.906277 1_555
Ni3 O3 1.945388 1_555
Ni3 O8 1.953798 1_555
Ni3 O2 1.961522 1_545
Ni3 O7 2.135559 1_554
Ni3 O6 2.298860 1_555
