# generated using pymatgen
data_YIn2Ni
_symmetry_space_group_name_H-M   'P 1'
_cell_length_a   4.33312298
_cell_length_b   5.65591218
_cell_length_c   7.29475995
_cell_angle_alpha   90.00000000
_cell_angle_beta   90.00000000
_cell_angle_gamma   112.52345192
_symmetry_Int_Tables_number   1
_chemical_formula_structural   YIn2Ni
_chemical_formula_sum   'Y2 In4 Ni2'
_cell_volume   165.14154723
_cell_formula_units_Z   2
loop_
 _symmetry_equiv_pos_site_id
 _symmetry_equiv_pos_as_xyz
  1  'x, y, z'
loop_
 _atom_site_type_symbol
 _atom_site_label
 _atom_site_symmetry_multiplicity
 _atom_site_fract_x
 _atom_site_fract_y
 _atom_site_fract_z
 _atom_site_occupancy
  Y  Y0  1  0.06825917  0.13651734  0.75000000  1
  Y  Y1  1  0.93174083  0.86348266  0.25000000  1
  In  In0  1  0.35558886  0.71117671  0.94997982  1
  In  In1  1  0.64441114  0.28882329  0.05002018  1
  In  In2  1  0.64441114  0.28882329  0.44997982  1
  In  In3  1  0.35558886  0.71117671  0.55002018  1
  Ni  Ni0  1  0.78776680  0.57553360  0.75000000  1
  Ni  Ni1  1  0.21223320  0.42446640  0.25000000  1
loop_
_geom_bond_atom_site_label_1
_geom_bond_atom_site_label_2
_geom_bond_distance
_geom_bond_site_symmetry_2
In0 Ni1 2.652096 1_556
In0 Ni0 2.706344 1_555
In0 Ni0 2.706348 1_455
In0 In3 2.917610 1_555
In0 In1 3.104892 1_566
In0 In1 3.177349 1_556
In0 In1 3.177354 1_456
In0 Y1 3.180724 1_556
In0 Y1 3.180730 1_456
In0 Y0 3.337956 1_555
In0 Y0 3.429319 1_665
In0 Y0 3.429319 1_565
In1 Ni0 2.652096 1_554
In1 Ni1 2.706344 1_555
In1 Ni1 2.706348 1_655
In1 In2 2.917610 1_555
In1 Y0 3.180724 1_554
In1 Y0 3.180730 1_654
In1 Y1 3.337956 1_555
In1 Y1 3.429319 1_445
In1 Y1 3.429319 1_545
In2 Ni0 2.652096 1_555
In2 Ni1 2.706344 1_555
In2 Ni1 2.706348 1_655
In2 In3 3.104892 1_545
In2 In3 3.177349 1_555
In2 In3 3.177354 1_655
In2 Y0 3.180724 1_555
In2 Y0 3.180730 1_655
In2 Y1 3.337956 1_555
In2 Y1 3.429319 1_445
In2 Y1 3.429319 1_545
In3 Ni1 2.652096 1_555
In3 Ni0 2.706344 1_555
In3 Ni0 2.706348 1_455
In3 Y1 3.180724 1_555
In3 Y1 3.180730 1_455
In3 Y0 3.337956 1_555
In3 Y0 3.429319 1_665
In3 Y0 3.429319 1_565
Ni0 Y0 2.930857 1_665
Ni0 Y0 3.155116 1_555
Ni0 Y0 3.155119 1_655
Ni1 Y1 2.930857 1_445
Ni1 Y1 3.155116 1_555
Ni1 Y1 3.155119 1_455
