# generated using pymatgen
data_Mg(BiO3)2
_symmetry_space_group_name_H-M   'P 1'
_cell_length_a   4.85468882
_cell_length_b   4.85468882
_cell_length_c   9.81484282
_cell_angle_alpha   90.00000000
_cell_angle_beta   90.00000000
_cell_angle_gamma   90.00000000
_symmetry_Int_Tables_number   1
_chemical_formula_structural   Mg(BiO3)2
_chemical_formula_sum   'Mg2 Bi4 O12'
_cell_volume   231.31625032
_cell_formula_units_Z   2
loop_
 _symmetry_equiv_pos_site_id
 _symmetry_equiv_pos_as_xyz
  1  'x, y, z'
loop_
 _atom_site_type_symbol
 _atom_site_label
 _atom_site_symmetry_multiplicity
 _atom_site_fract_x
 _atom_site_fract_y
 _atom_site_fract_z
 _atom_site_occupancy
  Mg  Mg0  1  -0.00000000  0.00000000  0.00000000  1
  Mg  Mg1  1  0.50000000  0.50000000  0.50000000  1
  Bi  Bi0  1  0.50000000  0.50000000  0.83320869  1
  Bi  Bi1  1  -0.00000000  0.00000000  0.33320869  1
  Bi  Bi2  1  0.50000000  0.50000000  0.16679131  1
  Bi  Bi3  1  -0.00000000  0.00000000  0.66679131  1
  O  O0  1  0.69182447  0.69182447  0.66479149  1
  O  O1  1  0.30817553  0.30817553  0.66479149  1
  O  O2  1  0.69182447  0.69182447  0.33520851  1
  O  O3  1  0.19182447  0.80817553  0.16479149  1
  O  O4  1  0.80817553  0.19182447  0.16479149  1
  O  O5  1  0.80817553  0.19182447  0.83520851  1
  O  O6  1  0.30233672  0.30233672  0.00000000  1
  O  O7  1  0.19766328  0.80233672  0.50000000  1
  O  O8  1  0.80233672  0.19766328  0.50000000  1
  O  O9  1  0.69766328  0.69766328  0.00000000  1
  O  O10  1  0.30817553  0.30817553  0.33520851  1
  O  O11  1  0.19182447  0.80817553  0.83520851  1
loop_
_geom_bond_atom_site_label_1
_geom_bond_atom_site_label_2
_geom_bond_distance
_geom_bond_site_symmetry_2
Mg0 O9 2.075713 1_445
Mg0 O6 2.075713 1_555
Mg0 O3 2.085770 1_545
Mg0 O5 2.085770 1_454
Mg0 O11 2.085770 1_544
Mg0 O4 2.085770 1_455
Mg1 O7 2.075713 1_555
Mg1 O8 2.075713 1_555
Mg1 O2 2.085770 1_555
Mg1 O10 2.085770 1_555
Mg1 O1 2.085770 1_555
Mg1 O0 2.085770 1_555
Bi0 O1 2.113484 1_555
Bi0 O0 2.113484 1_555
Bi0 O5 2.115891 1_555
Bi0 O11 2.115891 1_555
Bi0 O9 2.126384 1_556
Bi0 O6 2.126384 1_556
Bi1 O3 2.113484 1_545
Bi1 O4 2.113484 1_455
Bi1 O10 2.115891 1_555
Bi1 O2 2.115891 1_445
Bi1 O7 2.126384 1_545
Bi1 O8 2.126384 1_455
Bi2 O10 2.113484 1_555
Bi2 O2 2.113484 1_555
Bi2 O4 2.115891 1_555
Bi2 O3 2.115891 1_555
Bi2 O9 2.126384 1_555
Bi2 O6 2.126384 1_555
Bi3 O11 2.113484 1_545
Bi3 O5 2.113484 1_455
Bi3 O1 2.115891 1_555
Bi3 O0 2.115891 1_445
Bi3 O7 2.126384 1_545
Bi3 O8 2.126384 1_455
