# generated using pymatgen
data_Ba2TmMgCu3O7
_symmetry_space_group_name_H-M   'P 1'
_cell_length_a   3.66361400
_cell_length_b   3.98293100
_cell_length_c   14.81117100
_cell_angle_alpha   90.00000000
_cell_angle_beta   90.00000000
_cell_angle_gamma   90.00000000
_symmetry_Int_Tables_number   1
_chemical_formula_structural   Ba2TmMgCu3O7
_chemical_formula_sum   'Ba2 Tm1 Mg1 Cu3 O7'
_cell_volume   216.12344859
_cell_formula_units_Z   1
loop_
 _symmetry_equiv_pos_site_id
 _symmetry_equiv_pos_as_xyz
  1  'x, y, z'
loop_
 _atom_site_type_symbol
 _atom_site_label
 _atom_site_symmetry_multiplicity
 _atom_site_fract_x
 _atom_site_fract_y
 _atom_site_fract_z
 _atom_site_occupancy
  Ba  Ba0  1  0.50000000  0.50000000  0.17911500  1
  Ba  Ba1  1  0.50000000  0.50000000  0.90005600  1
  Tm  Tm0  1  0.50000000  0.50000000  0.43163100  1
  Mg  Mg0  1  0.50000000  0.50000000  0.63960800  1
  Cu  Cu0  1  0.00000000  0.00000000  0.57725700  1
  Cu  Cu1  1  0.00000000  0.00000000  0.32491300  1
  Cu  Cu2  1  0.00000000  0.00000000  0.04082100  1
  O  O0  1  0.50000000  0.00000000  0.37541800  1
  O  O1  1  0.00000000  0.00000000  0.91286700  1
  O  O2  1  0.50000000  0.00000000  0.66310000  1
  O  O3  1  0.00000000  0.50000000  0.34511100  1
  O  O4  1  0.00000000  0.50000000  0.55056800  1
  O  O5  1  0.00000000  0.00000000  0.17164900  1
  O  O6  1  0.00000000  0.50000000  0.03788300  1
loop_
_geom_bond_atom_site_label_1
_geom_bond_atom_site_label_2
_geom_bond_distance
_geom_bond_site_symmetry_2
Ba0 O5 2.708077 1_555
Ba0 O5 2.708077 1_655
Ba0 O5 2.708077 1_565
Ba0 O5 2.708077 1_665
Ba0 O6 2.780502 1_655
Ba0 O6 2.780502 1_555
Ba0 O3 3.065976 1_555
Ba0 O3 3.065976 1_655
Ba1 O1 2.712463 1_555
Ba1 O1 2.712463 1_655
Ba1 O1 2.712463 1_565
Ba1 O1 2.712463 1_665
Ba1 O6 2.742763 1_656
Ba1 O6 2.742763 1_556
Mg0 O2 2.021633 1_565
Mg0 O2 2.021633 1_555
Mg0 O4 2.257148 1_655
Mg0 O4 2.257148 1_555
Cu0 O4 2.030319 1_545
Cu0 O4 2.030319 1_555
Cu0 O2 2.229813 1_555
Cu0 O2 2.229813 1_455
Cu1 O0 1.978656 1_455
Cu1 O0 1.978656 1_555
Cu1 O3 2.013810 1_545
Cu1 O3 2.013810 1_555
Cu1 O5 2.270019 1_555
Cu2 O1 1.895149 1_554
Cu2 O5 1.937716 1_555
Cu2 O6 1.991941 1_545
Cu2 O6 1.991941 1_555
O0 Tm0 2.158501 1_545
O0 Tm0 2.158501 1_555
O3 Tm0 2.235545 1_455
O3 Tm0 2.235545 1_555
O4 Tm0 2.541405 1_455
O4 Tm0 2.541405 1_555
