# generated using pymatgen
data_MgFe6(O2F)4
_symmetry_space_group_name_H-M   'P 1'
_cell_length_a   4.73462466
_cell_length_b   4.71776786
_cell_length_c   9.12851789
_cell_angle_alpha   90.04411747
_cell_angle_beta   90.02522015
_cell_angle_gamma   90.95029298
_symmetry_Int_Tables_number   1
_chemical_formula_structural   MgFe6(O2F)4
_chemical_formula_sum   'Mg1 Fe6 O8 F4'
_cell_volume   203.87430016
_cell_formula_units_Z   1
loop_
 _symmetry_equiv_pos_site_id
 _symmetry_equiv_pos_as_xyz
  1  'x, y, z'
loop_
 _atom_site_type_symbol
 _atom_site_label
 _atom_site_symmetry_multiplicity
 _atom_site_fract_x
 _atom_site_fract_y
 _atom_site_fract_z
 _atom_site_occupancy
  Mg  Mg0  1  0.49981700  0.99984600  0.33318600  1
  Fe  Fe0  1  0.00165400  0.00003000  0.01339100  1
  Fe  Fe1  1  0.99948600  0.99960900  0.33378300  1
  Fe  Fe2  1  0.99985900  0.00049000  0.65495600  1
  Fe  Fe3  1  0.50096700  0.49945200  0.13697500  1
  Fe  Fe4  1  0.49992500  0.49993900  0.83315400  1
  Fe  Fe5  1  0.49969400  0.50028400  0.52888800  1
  O  O0  1  0.22449600  0.83556000  0.18009500  1
  O  O1  1  0.22368200  0.83691600  0.48722800  1
  O  O2  1  0.27972600  0.30543400  0.99569700  1
  O  O3  1  0.28148900  0.30779000  0.67072700  1
  O  O4  1  0.72060900  0.69392000  0.99601200  1
  O  O5  1  0.71766000  0.69324600  0.67098800  1
  O  O6  1  0.77535800  0.16360500  0.17988400  1
  O  O7  1  0.77594700  0.16346500  0.48727700  1
  F  F0  1  0.19962100  0.82258300  0.83337400  1
  F  F1  1  0.28248700  0.34378500  0.33315600  1
  F  F2  1  0.71746900  0.65588700  0.33355700  1
  F  F3  1  0.80005100  0.17815800  0.83338600  1
loop_
_geom_bond_atom_site_label_1
_geom_bond_atom_site_label_2
_geom_bond_distance
_geom_bond_site_symmetry_2
Mg0 O0 2.053326 1_555
Mg0 O6 2.055974 1_565
Mg0 O7 2.060800 1_565
Mg0 O1 2.060924 1_555
Fe0 O2 1.942431 1_554
Fe0 O4 1.953736 1_444
Fe0 O0 2.014588 1_545
Fe0 O6 2.020010 1_455
Fe1 O1 1.924911 1_655
Fe1 O7 1.925564 1_565
Fe1 O6 1.930265 1_565
Fe1 O0 1.931108 1_655
Fe2 O3 1.958554 1_655
Fe2 O5 1.960593 1_545
Fe2 O7 2.021240 1_555
Fe2 O1 2.022265 1_645
Fe3 O4 1.884230 1_554
Fe3 O2 1.887719 1_554
Fe3 O6 2.102486 1_555
Fe3 O0 2.109764 1_555
Fe4 O3 2.013777 1_555
Fe4 O5 2.014466 1_555
Fe4 O2 2.025412 1_555
Fe4 O4 2.025880 1_555
Fe5 O3 1.881589 1_555
Fe5 O5 1.882075 1_555
Fe5 O1 2.108066 1_555
Fe5 O7 2.109148 1_555
F0 Fe2 2.068506 1_465
F0 Fe0 2.074854 1_566
F0 Fe4 2.100083 1_555
F1 Mg0 1.935739 1_545
F1 Fe1 2.088006 1_445
F1 Fe5 2.183194 1_555
F1 Fe3 2.189736 1_555
F2 Mg0 1.936655 1_555
F2 Fe1 2.083421 1_555
F2 Fe5 2.181730 1_555
F2 Fe3 2.187900 1_555
F3 Fe2 2.067866 1_555
F3 Fe0 2.084395 1_656
F3 Fe4 2.096508 1_555
