# generated using pymatgen
data_MgTe4Mo2WS2
_symmetry_space_group_name_H-M   'P 1'
_cell_length_a   3.43107741
_cell_length_b   3.43139781
_cell_length_c   37.37145068
_cell_angle_alpha   90.00468163
_cell_angle_beta   89.94637689
_cell_angle_gamma   120.00611478
_symmetry_Int_Tables_number   1
_chemical_formula_structural   MgTe4Mo2WS2
_chemical_formula_sum   'Mg1 Te4 Mo2 W1 S2'
_cell_volume   381.01772371
_cell_formula_units_Z   1
loop_
 _symmetry_equiv_pos_site_id
 _symmetry_equiv_pos_as_xyz
  1  'x, y, z'
loop_
 _atom_site_type_symbol
 _atom_site_label
 _atom_site_symmetry_multiplicity
 _atom_site_fract_x
 _atom_site_fract_y
 _atom_site_fract_z
 _atom_site_occupancy
  Mg  Mg0  1  0.00162000  0.00087200  0.44695100  1
  Te  Te0  1  0.66705000  0.33342900  0.06599700  1
  Te  Te1  1  0.66749800  0.33372400  0.53450500  1
  Te  Te2  1  0.66595900  0.33298000  0.16544100  1
  Te  Te3  1  0.66646100  0.33328500  0.63489100  1
  Mo  Mo0  1  0.33312100  0.66649200  0.11571800  1
  Mo  Mo1  1  0.66592100  0.33295500  0.34050300  1
  W  W0  1  0.33364800  0.66681700  0.58486800  1
  S  S0  1  0.33219300  0.66611800  0.38096000  1
  S  S1  1  0.33312800  0.66652900  0.30092300  1
loop_
_geom_bond_atom_site_label_1
_geom_bond_atom_site_label_2
_geom_bond_distance
_geom_bond_site_symmetry_2
Mg0 S0 3.159960 1_545
Mg0 S0 3.159971 1_555
Mg0 S0 3.169914 1_445
Te1 W0 2.732402 1_555
Te1 W0 2.732451 1_545
Te1 W0 2.732706 1_655
Te3 W0 2.723391 1_655
Te3 W0 2.723976 1_555
Te3 W0 2.723983 1_545
Mo0 Te2 2.715661 1_455
Mo0 Te0 2.716047 1_555
Mo0 Te0 2.716047 1_455
Mo0 Te0 2.716054 1_565
Mo0 Te2 2.716300 1_555
Mo0 Te2 2.716341 1_565
Mo1 S1 2.472213 1_655
Mo1 S1 2.472255 1_545
Mo1 S1 2.472355 1_555
Mo1 S0 2.491913 1_545
Mo1 S0 2.491943 1_555
Mo1 S0 2.492210 1_655
