# generated using pymatgen
data_Na8Mg(FeO4)2
_symmetry_space_group_name_H-M   'P 1'
_cell_length_a   5.64719841
_cell_length_b   5.92114669
_cell_length_c   8.98087445
_cell_angle_alpha   72.47243480
_cell_angle_beta   86.32990524
_cell_angle_gamma   70.86812288
_symmetry_Int_Tables_number   1
_chemical_formula_structural   Na8Mg(FeO4)2
_chemical_formula_sum   'Na8 Mg1 Fe2 O8'
_cell_volume   270.34191110
_cell_formula_units_Z   1
loop_
 _symmetry_equiv_pos_site_id
 _symmetry_equiv_pos_as_xyz
  1  'x, y, z'
loop_
 _atom_site_type_symbol
 _atom_site_label
 _atom_site_symmetry_multiplicity
 _atom_site_fract_x
 _atom_site_fract_y
 _atom_site_fract_z
 _atom_site_occupancy
  Na  Na0  1  0.24284820  0.51107509  0.40516453  1
  Na  Na1  1  0.75663039  0.43601064  0.58022513  1
  Na  Na2  1  0.75438596  0.22759690  0.01034034  1
  Na  Na3  1  0.42431904  0.91746840  0.94923112  1
  Na  Na4  1  0.73794263  0.01355403  0.43034044  1
  Na  Na5  1  0.25477620  0.94435362  0.57847436  1
  Na  Na6  1  0.25536119  0.10453496  0.22917700  1
  Na  Na7  1  0.76132620  0.77510763  0.78251307  1
  Mg  Mg0  1  0.19096704  0.55804061  0.02227736  1
  Fe  Fe0  1  0.27016241  0.42310096  0.75088061  1
  Fe  Fe1  1  0.71178672  0.57280297  0.24175921  1
  O  O0  1  0.84490292  0.76734620  0.05679245  1
  O  O1  1  0.14351891  0.28124677  0.95574907  1
  O  O2  1  0.96380613  0.29380641  0.37132617  1
  O  O3  1  0.01964046  0.65621411  0.60358580  1
  O  O4  1  0.40631161  0.62870841  0.82882481  1
  O  O5  1  0.46804799  0.44481760  0.17963648  1
  O  O6  1  0.52999452  0.76514959  0.37202519  1
  O  O7  1  0.49243848  0.17906510  0.66730186  1
loop_
_geom_bond_atom_site_label_1
_geom_bond_atom_site_label_2
_geom_bond_distance
_geom_bond_site_symmetry_2
Na0 O3 2.329746 1_555
Na0 O5 2.386519 1_555
Na0 O2 2.419953 1_455
Na0 O6 2.499785 1_555
Na0 O7 2.685997 1_555
Na1 O6 2.325697 1_555
Na1 O3 2.328980 1_655
Na1 O2 2.371136 1_555
Na1 O7 2.402917 1_555
Na2 O1 2.322968 1_654
Na2 O5 2.465884 1_555
Na2 O0 2.508287 1_545
Na2 O4 2.679566 1_554
Na3 O1 2.232214 1_565
Na3 O4 2.311869 1_555
Na3 O0 2.399400 1_556
Na3 O7 2.619488 1_565
Na3 O5 2.880865 1_556
Na4 O2 2.330783 1_555
Na4 O6 2.343415 1_545
Na4 O3 2.357114 1_645
Na4 O7 2.720172 1_555
Na4 O5 2.887610 1_555
Na5 O3 2.437170 1_555
Na5 O4 2.438733 1_555
Na5 O2 2.507291 1_465
Na5 O7 2.529158 1_565
Na5 O6 2.591185 1_555
Na6 O6 2.179087 1_545
Na6 O2 2.231539 1_455
Na6 O1 2.396154 1_554
Na6 O5 2.584212 1_555
Na7 O3 2.216731 1_655
Na7 O7 2.329633 1_565
Na7 O4 2.399802 1_555
Na7 O0 2.521706 1_556
Mg0 O5 1.979860 1_555
Mg0 O1 2.003265 1_554
Mg0 O0 2.004376 1_455
Mg0 O4 2.073069 1_554
Fe0 O3 1.875208 1_555
Fe0 O7 1.889640 1_555
Fe0 O4 1.938833 1_555
Fe0 O1 1.973996 1_555
Fe1 O6 1.897924 1_555
Fe1 O2 1.903055 1_555
Fe1 O5 1.953680 1_555
Fe1 O0 1.976525 1_555
