# generated using pymatgen
data_YbIn2Au
_symmetry_space_group_name_H-M   'P 1'
_cell_length_a   4.47394778
_cell_length_b   5.79731254
_cell_length_c   7.47153146
_cell_angle_alpha   90.00000000
_cell_angle_beta   90.00000000
_cell_angle_gamma   112.69738551
_symmetry_Int_Tables_number   1
_chemical_formula_structural   YbIn2Au
_chemical_formula_sum   'Yb2 In4 Au2'
_cell_volume   178.78037734
_cell_formula_units_Z   2
loop_
 _symmetry_equiv_pos_site_id
 _symmetry_equiv_pos_as_xyz
  1  'x, y, z'
loop_
 _atom_site_type_symbol
 _atom_site_label
 _atom_site_symmetry_multiplicity
 _atom_site_fract_x
 _atom_site_fract_y
 _atom_site_fract_z
 _atom_site_occupancy
  Yb  Yb0  1  0.92391299  0.84782598  0.25000000  1
  Yb  Yb1  1  0.07608701  0.15217402  0.75000000  1
  In  In0  1  0.37062253  0.74124506  0.54739328  1
  In  In1  1  0.62937747  0.25875494  0.45260672  1
  In  In2  1  0.37062253  0.74124506  0.95260672  1
  In  In3  1  0.62937747  0.25875494  0.04739328  1
  Au  Au0  1  0.78881466  0.57762931  0.75000000  1
  Au  Au1  1  0.21118534  0.42237069  0.25000000  1
loop_
_geom_bond_atom_site_label_1
_geom_bond_atom_site_label_2
_geom_bond_distance
_geom_bond_site_symmetry_2
In0 Yb0 3.204091 1_455
In0 Yb0 3.204091 1_555
In0 Yb1 3.482222 1_665
In0 Yb1 3.482222 1_565
In0 Yb1 3.495358 1_555
In1 Yb1 3.204091 1_655
In1 Yb1 3.204091 1_555
In1 Yb0 3.482222 1_445
In1 Yb0 3.482222 1_545
In1 Yb0 3.495358 1_555
In2 Yb0 3.204091 1_456
In2 Yb0 3.204091 1_556
In2 Yb1 3.482222 1_665
In2 Yb1 3.482222 1_565
In2 Yb1 3.495358 1_555
In3 Yb1 3.204091 1_654
In3 Yb1 3.204091 1_554
In3 Yb0 3.482222 1_445
In3 Yb0 3.482222 1_545
In3 Yb0 3.495358 1_555
Au0 In3 2.801030 1_556
Au0 In1 2.801030 1_555
Au0 In2 2.839250 1_655
Au0 In0 2.839250 1_655
Au0 In2 2.839250 1_555
Au0 In0 2.839250 1_555
Au0 Yb1 3.072863 1_665
Au0 Yb1 3.190904 1_655
Au0 Yb1 3.190904 1_555
Au1 In0 2.801030 1_555
Au1 In2 2.801030 1_554
Au1 In1 2.839250 1_455
Au1 In3 2.839250 1_455
Au1 In1 2.839250 1_555
Au1 In3 2.839250 1_555
Au1 Yb0 3.072863 1_445
Au1 Yb0 3.190904 1_455
Au1 Yb0 3.190904 1_555
