# generated using pymatgen
data_Na3YHfSi(PO6)2
_symmetry_space_group_name_H-M   'P 1'
_cell_length_a   15.98192369
_cell_length_b   9.25320760
_cell_length_c   9.23584933
_cell_angle_alpha   90.00000000
_cell_angle_beta   124.93121184
_cell_angle_gamma   90.00000000
_symmetry_Int_Tables_number   1
_chemical_formula_structural   Na3YHfSi(PO6)2
_chemical_formula_sum   'Na12 Y4 Hf4 Si4 P8 O48'
_cell_volume   1119.76617094
_cell_formula_units_Z   4
loop_
 _symmetry_equiv_pos_site_id
 _symmetry_equiv_pos_as_xyz
  1  'x, y, z'
loop_
 _atom_site_type_symbol
 _atom_site_label
 _atom_site_symmetry_multiplicity
 _atom_site_fract_x
 _atom_site_fract_y
 _atom_site_fract_z
 _atom_site_occupancy
  Na  Na0  1  0.25411740  0.71749815  0.00388146  1
  Na  Na1  1  0.75411740  0.78250185  0.50388146  1
  Na  Na2  1  0.75411740  0.21749815  0.00388146  1
  Na  Na3  1  0.25411740  0.28250185  0.50388146  1
  Na  Na4  1  0.50915207  0.09286532  0.76441792  1
  Na  Na5  1  0.50915207  0.90713468  0.26441792  1
  Na  Na6  1  0.00915207  0.59286532  0.76441792  1
  Na  Na7  1  0.00915207  0.40713468  0.26441792  1
  Na  Na8  1  0.18249276  0.92669169  0.29744415  1
  Na  Na9  1  0.18249276  0.07330831  0.79744415  1
  Na  Na10  1  0.68249276  0.42669169  0.29744415  1
  Na  Na11  1  0.68249276  0.57330831  0.79744415  1
  Y  Y0  1  0.10479456  0.74647217  0.56325987  1
  Y  Y1  1  0.10479456  0.25352783  0.06325987  1
  Y  Y2  1  0.60479456  0.24647217  0.56325987  1
  Y  Y3  1  0.60479456  0.75352783  0.06325987  1
  Hf  Hf0  1  0.89682341  0.75693648  0.94039599  1
  Hf  Hf1  1  0.89682341  0.24306352  0.44039599  1
  Hf  Hf2  1  0.39682341  0.25693648  0.94039599  1
  Hf  Hf3  1  0.39682341  0.74306352  0.44039599  1
  Si  Si0  1  0.64854536  0.88965988  0.74048920  1
  Si  Si1  1  0.64854536  0.11034012  0.24048920  1
  Si  Si2  1  0.14854536  0.38965988  0.74048920  1
  Si  Si3  1  0.14854536  0.61034012  0.24048920  1
  P  P0  1  0.99426008  0.95579364  0.75451955  1
  P  P1  1  0.99426008  0.04420636  0.25451955  1
  P  P2  1  0.49426008  0.45579364  0.75451955  1
  P  P3  1  0.49426008  0.54420636  0.25451955  1
  P  P4  1  0.35280129  0.91005377  0.75178089  1
  P  P5  1  0.35280129  0.08994623  0.25178089  1
  P  P6  1  0.85280129  0.41005377  0.75178089  1
  P  P7  1  0.85280129  0.58994623  0.25178089  1
  O  O0  1  0.15504839  0.56527168  0.75063630  1
  O  O1  1  0.85303059  0.57976996  0.75234835  1
  O  O2  1  0.85303059  0.42023004  0.25234835  1
  O  O3  1  0.15504839  0.43472832  0.25063630  1
  O  O4  1  0.65504839  0.06527168  0.75063630  1
  O  O5  1  0.35303059  0.07976996  0.75234835  1
  O  O6  1  0.35303059  0.92023004  0.25234835  1
  O  O7  1  0.65504839  0.93472832  0.25063630  1
  O  O8  1  0.43656904  0.56254072  0.59355562  1
  O  O9  1  0.55813329  0.54093103  0.92570807  1
  O  O10  1  0.55813329  0.45906897  0.42570807  1
  O  O11  1  0.43656904  0.43745928  0.09355562  1
  O  O12  1  0.93656904  0.06254072  0.59355562  1
  O  O13  1  0.05813329  0.04093103  0.92570807  1
  O  O14  1  0.05813329  0.95906897  0.42570807  1
  O  O15  1  0.93656904  0.93745928  0.09355562  1
  O  O16  1  0.25835118  0.86090331  0.74460031  1
  O  O17  1  0.74523889  0.80933729  0.75401103  1
  O  O18  1  0.74523889  0.19066271  0.25401103  1
  O  O19  1  0.25835118  0.13909669  0.24460031  1
  O  O20  1  0.75835118  0.36090331  0.74460031  1
  O  O21  1  0.24523889  0.30933729  0.75401103  1
  O  O22  1  0.24523889  0.69066271  0.25401103  1
  O  O23  1  0.75835118  0.63909669  0.24460031  1
  O  O24  1  0.35199235  0.86493604  0.58527281  1
  O  O25  1  0.64681191  0.83307212  0.90317313  1
  O  O26  1  0.64681191  0.16692788  0.40317313  1
  O  O27  1  0.35199235  0.13506396  0.08527281  1
  O  O28  1  0.85199235  0.36493604  0.58527281  1
  O  O29  1  0.14681191  0.33307212  0.90317313  1
  O  O30  1  0.14681191  0.66692788  0.40317313  1
  O  O31  1  0.85199235  0.63506396  0.08527281  1
  O  O32  1  0.44972083  0.85339543  0.92023651  1
  O  O33  1  0.53950784  0.83003107  0.55830615  1
  O  O34  1  0.53950784  0.16996893  0.05830615  1
  O  O35  1  0.44972083  0.14660457  0.42023651  1
  O  O36  1  0.94972083  0.35339543  0.92023651  1
  O  O37  1  0.03950784  0.33003107  0.55830615  1
  O  O38  1  0.03950784  0.66996893  0.05830615  1
  O  O39  1  0.94972083  0.64660457  0.42023651  1
  O  O40  1  0.06827030  0.85754843  0.74288950  1
  O  O41  1  0.91433846  0.85884181  0.75307319  1
  O  O42  1  0.91433846  0.14115819  0.25307319  1
  O  O43  1  0.06827030  0.14245157  0.24288950  1
  O  O44  1  0.56827030  0.35754843  0.74288950  1
  O  O45  1  0.41433846  0.35884181  0.75307319  1
  O  O46  1  0.41433846  0.64115819  0.25307319  1
  O  O47  1  0.56827030  0.64245157  0.24288950  1
loop_
_geom_bond_atom_site_label_1
_geom_bond_atom_site_label_2
_geom_bond_distance
_geom_bond_site_symmetry_2
Na0 O46 2.367241 1_555
Na0 O0 2.391793 1_554
Na0 O22 2.407078 1_555
Na0 O6 2.670175 1_555
Na0 O16 2.772265 1_554
Na0 O40 2.848299 1_554
Na1 O41 2.367241 1_555
Na1 O7 2.391793 1_555
Na1 O17 2.407078 1_555
Na1 O1 2.670175 1_555
Na1 O23 2.772265 1_555
Na1 O47 2.848299 1_555
Na2 O42 2.367241 1_555
Na2 O4 2.391793 1_554
Na2 O18 2.407078 1_555
Na2 O2 2.670175 1_555
Na2 O20 2.772265 1_554
Na2 O44 2.848299 1_554
Na3 O45 2.367241 1_555
Na3 O3 2.391793 1_555
Na3 O21 2.407078 1_555
Na3 O5 2.670175 1_555
Na3 O19 2.772265 1_555
Na3 O43 2.848299 1_555
Na4 O4 2.420355 1_555
Na4 O5 2.436026 1_555
Na4 O34 2.569793 1_556
Na4 O44 2.673160 1_555
Na4 O35 2.792236 1_555
Na5 O7 2.420355 1_555
Na5 O6 2.436026 1_555
Na5 O33 2.569793 1_555
Na5 O47 2.673160 1_555
Na5 O32 2.792236 1_554
Na6 O0 2.420355 1_555
Na6 O1 2.436026 1_455
Na6 O38 2.569793 1_556
Na6 O40 2.673160 1_555
Na6 O39 2.792236 1_455
Na7 O3 2.420355 1_555
Na7 O2 2.436026 1_455
Na7 O37 2.569793 1_555
Na7 O43 2.673160 1_555
Na7 O36 2.792236 1_454
Na8 O19 2.499708 1_565
Na8 O22 2.529262 1_555
Na8 O24 2.546536 1_555
Na8 O43 2.553208 1_565
Na8 O30 2.773797 1_555
Na8 O14 2.852989 1_555
Na8 O6 2.984209 1_555
Na8 O13 3.006782 1_564
Na9 O16 2.499708 1_545
Na9 O21 2.529262 1_555
Na9 O27 2.546536 1_556
Na9 O40 2.553208 1_545
Na9 O29 2.773797 1_555
Na9 O13 2.852989 1_555
Na9 O5 2.984209 1_555
Na9 O14 3.006782 1_545
Na10 O23 2.499708 1_555
Na10 O18 2.529262 1_555
Na10 O28 2.546536 1_555
Na10 O47 2.553208 1_555
Na10 O26 2.773797 1_555
Na10 O10 2.852989 1_555
Na10 O2 2.984209 1_555
Na10 O9 3.006782 1_554
Na11 O20 2.499708 1_555
Na11 O17 2.529262 1_555
Na11 O31 2.546536 1_556
Na11 O44 2.553208 1_555
Na11 O25 2.773797 1_555
Na11 O9 2.852989 1_555
Na11 O1 2.984209 1_555
Na11 O10 3.006782 1_555
Hf0 O15 2.041019 1_556
Hf0 O38 2.046885 1_656
Hf0 O17 2.071627 1_555
Hf0 O41 2.124927 1_555
Hf0 O31 2.161801 1_556
Hf0 O1 2.191280 1_555
Hf1 O12 2.041019 1_555
Hf1 O37 2.046885 1_655
Hf1 O18 2.071627 1_555
Hf1 O42 2.124927 1_555
Hf1 O28 2.161801 1_555
Hf1 O2 2.191280 1_555
Hf2 O11 2.041019 1_556
Hf2 O34 2.046885 1_556
Hf2 O21 2.071627 1_555
Hf2 O45 2.124927 1_555
Hf2 O27 2.161801 1_556
Hf2 O5 2.191280 1_555
Hf3 O8 2.041019 1_555
Hf3 O33 2.046885 1_555
Hf3 O22 2.071627 1_555
Hf3 O46 2.124927 1_555
Hf3 O24 2.161801 1_555
Hf3 O6 2.191280 1_555
O0 Si2 1.627564 1_555
O0 Y0 2.204432 1_555
O1 P6 1.570425 1_555
O2 P7 1.570425 1_555
O3 Si3 1.627564 1_555
O3 Y1 2.204432 1_555
O4 Si0 1.627564 1_545
O4 Y2 2.204432 1_555
O5 P4 1.570425 1_545
O6 P5 1.570425 1_565
O7 Si1 1.627564 1_565
O7 Y3 2.204432 1_555
O8 P2 1.570399 1_555
O9 P2 1.521237 1_555
O9 Y3 2.225985 1_556
O10 P3 1.521237 1_555
O10 Y2 2.225985 1_555
O11 P3 1.570399 1_555
O12 P0 1.570399 1_545
O13 P0 1.521237 1_445
O13 Y1 2.225985 1_556
O14 P1 1.521237 1_465
O14 Y0 2.225985 1_555
O15 P1 1.570399 1_565
O16 P4 1.541159 1_555
O16 Y0 2.289539 1_555
O17 Si0 1.653812 1_555
O18 Si1 1.653812 1_555
O19 P5 1.541159 1_555
O19 Y1 2.289539 1_555
O20 P6 1.541159 1_555
O20 Y2 2.289539 1_555
O21 Si2 1.653812 1_555
O22 Si3 1.653812 1_555
O23 P7 1.541159 1_555
O23 Y3 2.289539 1_555
O24 P4 1.586397 1_555
O25 Si0 1.606298 1_555
O25 Y3 2.077445 1_556
O26 Si1 1.606298 1_555
O26 Y2 2.077445 1_555
O27 P5 1.586397 1_555
O28 P6 1.586397 1_555
O29 Si2 1.606298 1_555
O29 Y1 2.077445 1_556
O30 Si3 1.606298 1_555
O30 Y0 2.077445 1_555
O31 P7 1.586397 1_555
O32 P4 1.528052 1_555
O32 Y3 2.234299 1_556
O33 Si0 1.677649 1_555
O34 Si1 1.677649 1_555
O35 P5 1.528052 1_555
O35 Y2 2.234299 1_555
O36 P6 1.528052 1_555
O36 Y1 2.234299 1_656
O37 Si2 1.677649 1_555
O38 Si3 1.677649 1_555
O39 P7 1.528052 1_555
O39 Y0 2.234299 1_655
O40 P0 1.543549 1_455
O40 Y0 2.293152 1_555
O41 P0 1.554655 1_555
O42 P1 1.554655 1_555
O43 P1 1.543549 1_455
O43 Y1 2.293152 1_555
O44 P2 1.543549 1_555
O44 Y2 2.293152 1_555
O45 P2 1.554655 1_555
O46 P3 1.554655 1_555
O47 P3 1.543549 1_555
O47 Y3 2.293152 1_555
