# generated using pymatgen
data_La2MgFe2(WO6)2
_symmetry_space_group_name_H-M   'P 1'
_cell_length_a   5.68197809
_cell_length_b   5.47799327
_cell_length_c   7.88459203
_cell_angle_alpha   90.06604504
_cell_angle_beta   90.31153199
_cell_angle_gamma   88.49803751
_symmetry_Int_Tables_number   1
_chemical_formula_structural   La2MgFe2(WO6)2
_chemical_formula_sum   'La2 Mg1 Fe2 W2 O12'
_cell_volume   245.32646298
_cell_formula_units_Z   1
loop_
 _symmetry_equiv_pos_site_id
 _symmetry_equiv_pos_as_xyz
  1  'x, y, z'
loop_
 _atom_site_type_symbol
 _atom_site_label
 _atom_site_symmetry_multiplicity
 _atom_site_fract_x
 _atom_site_fract_y
 _atom_site_fract_z
 _atom_site_occupancy
  La  La0  1  0.05269328  0.98545789  0.24605266  1
  La  La1  1  0.44295725  0.48866989  0.74879469  1
  Mg  Mg0  1  0.54705916  0.50707850  0.22146786  1
  Fe  Fe0  1  0.50500228  0.00392752  0.99954365  1
  Fe  Fe1  1  0.99711685  0.49676334  0.50463463  1
  W  W0  1  0.51814241  0.00515739  0.50080102  1
  W  W1  1  0.98689158  0.49287294  0.99758030  1
  O  O0  1  0.01541650  0.57156012  0.76638594  1
  O  O1  1  0.20317833  0.19765165  0.97449813  1
  O  O2  1  0.22900428  0.19632746  0.53178823  1
  O  O3  1  0.29118784  0.68609831  0.05976990  1
  O  O4  1  0.33918497  0.71139089  0.43200129  1
  O  O5  1  0.49098764  0.12097045  0.25704977  1
  O  O6  1  0.51090361  0.91606930  0.74068074  1
  O  O7  1  0.69468192  0.28832035  0.54616270  1
  O  O8  1  0.68125665  0.31011134  0.96472156  1
  O  O9  1  0.79570275  0.80908362  0.45189932  1
  O  O10  1  0.76493356  0.77942985  0.06535121  1
  O  O11  1  0.94560516  0.41226618  0.24119440  1
loop_
_geom_bond_atom_site_label_1
_geom_bond_atom_site_label_2
_geom_bond_distance
_geom_bond_site_symmetry_2
La0 O11 2.400744 1_465
La0 O9 2.408995 1_455
La0 O10 2.458614 1_455
La0 O3 2.565629 1_555
La0 O1 2.596984 1_564
La0 O5 2.618203 1_565
La0 O4 2.627625 1_555
La0 O2 2.728308 1_565
La1 O8 2.365997 1_555
La1 O6 2.383859 1_555
La1 O7 2.396110 1_555
La1 O0 2.464244 1_555
La1 O2 2.653899 1_555
La1 O1 2.776925 1_555
La1 O3 2.809480 1_556
La1 O4 2.833453 1_555
Mg0 O3 2.146816 1_555
Mg0 O5 2.165990 1_555
Mg0 O4 2.313219 1_555
Mg0 O11 2.314464 1_555
Mg0 O10 2.321896 1_555
Mg0 O8 2.410850 1_554
Fe0 O10 1.964904 1_546
Fe0 O8 1.995917 1_555
Fe0 O1 2.001913 1_555
Fe0 O6 2.096710 1_545
Fe0 O5 2.129730 1_556
Fe0 O3 2.202685 1_546
Fe1 O9 2.074505 1_555
Fe1 O2 2.091538 1_655
Fe1 O0 2.106164 1_655
Fe1 O7 2.115153 1_555
Fe1 O11 2.147700 1_555
Fe1 O4 2.370955 1_655
O0 W1 1.882452 1_455
O1 W1 2.014044 1_455
O2 W0 1.941393 1_555
O3 W1 2.106136 1_454
O4 W0 1.998916 1_565
O5 W0 2.028392 1_555
O6 W0 1.954764 1_565
O7 W0 1.901740 1_555
O8 W1 2.042285 1_555
O9 W0 1.925204 1_565
O10 W1 2.059563 1_554
O11 W1 1.987903 1_554
