# generated using pymatgen
data_MgAg3(AsO4)2
_symmetry_space_group_name_H-M   'P 1'
_cell_length_a   5.74955547
_cell_length_b   5.71437255
_cell_length_c   6.71235586
_cell_angle_alpha   88.44849759
_cell_angle_beta   86.40902286
_cell_angle_gamma   87.66501941
_symmetry_Int_Tables_number   1
_chemical_formula_structural   MgAg3(AsO4)2
_chemical_formula_sum   'Mg1 Ag3 As2 O8'
_cell_volume   219.85287738
_cell_formula_units_Z   1
loop_
 _symmetry_equiv_pos_site_id
 _symmetry_equiv_pos_as_xyz
  1  'x, y, z'
loop_
 _atom_site_type_symbol
 _atom_site_label
 _atom_site_symmetry_multiplicity
 _atom_site_fract_x
 _atom_site_fract_y
 _atom_site_fract_z
 _atom_site_occupancy
  Mg  Mg0  1  0.03962100  0.53152800  0.20607000  1
  Ag  Ag0  1  0.52113100  0.77524400  0.00332800  1
  Ag  Ag1  1  0.72425200  0.02341700  0.50356900  1
  Ag  Ag2  1  0.00349100  0.47077100  0.71137800  1
  As  As0  1  0.99008700  0.00665800  0.01414700  1
  As  As1  1  0.50665600  0.50665300  0.49180700  1
  O  O0  1  0.14588300  0.74916100  0.93926700  1
  O  O1  1  0.15112500  0.21459500  0.10891900  1
  O  O2  1  0.36426200  0.29106800  0.62371100  1
  O  O3  1  0.31875800  0.65152900  0.33697800  1
  O  O4  1  0.75172700  0.38165500  0.35836400  1
  O  O5  1  0.63793300  0.69245300  0.65327500  1
  O  O6  1  0.81631200  0.12416500  0.83643000  1
  O  O7  1  0.82042700  0.85193800  0.20234300  1
loop_
_geom_bond_atom_site_label_1
_geom_bond_atom_site_label_2
_geom_bond_distance
_geom_bond_site_symmetry_2
Mg0 O1 2.008287 1_555
Mg0 O3 2.029052 1_555
Mg0 O4 2.091532 1_455
Mg0 O7 2.180527 1_455
Mg0 O0 2.220673 1_554
Ag0 O0 2.237822 1_554
Ag0 O7 2.306279 1_555
Ag0 O5 2.456106 1_554
Ag0 O3 2.554254 1_555
Ag1 O5 2.178078 1_545
Ag1 O4 2.250464 1_555
Ag1 O7 2.297231 1_545
Ag1 O6 2.417901 1_555
Ag1 O2 2.621704 1_555
Ag2 O2 2.325864 1_555
Ag2 O6 2.399207 1_455
Ag2 O0 2.436318 1_555
Ag2 O5 2.456287 1_455
As0 O1 1.696530 1_655
As0 O6 1.709798 1_554
As0 O0 1.759653 1_644
As0 O7 1.784497 1_545
As1 O2 1.704159 1_555
As1 O3 1.718646 1_555
As1 O4 1.758541 1_555
As1 O5 1.761178 1_555
