# generated using pymatgen
data_MgZr4(CuS4)2
_symmetry_space_group_name_H-M   'P 1'
_cell_length_a   7.32826195
_cell_length_b   7.52559712
_cell_length_c   7.32826300
_cell_angle_alpha   60.86368642
_cell_angle_beta   59.99999977
_cell_angle_gamma   60.86368649
_symmetry_Int_Tables_number   1
_chemical_formula_structural   MgZr4(CuS4)2
_chemical_formula_sum   'Mg1 Zr4 Cu2 S8'
_cell_volume   289.45154365
_cell_formula_units_Z   1
loop_
 _symmetry_equiv_pos_site_id
 _symmetry_equiv_pos_as_xyz
  1  'x, y, z'
loop_
 _atom_site_type_symbol
 _atom_site_label
 _atom_site_symmetry_multiplicity
 _atom_site_fract_x
 _atom_site_fract_y
 _atom_site_fract_z
 _atom_site_occupancy
  Mg  Mg0  1  0.00000000  0.50000000  0.00000000  1
  Zr  Zr0  1  0.50000000  0.50000000  0.00000000  1
  Zr  Zr1  1  0.50000000  0.50000000  0.50000000  1
  Zr  Zr2  1  0.00000000  0.50000000  0.50000000  1
  Zr  Zr3  1  0.50000000  0.00000000  0.50000000  1
  Cu  Cu0  1  0.86218800  0.91343600  0.86218800  1
  Cu  Cu1  1  0.13781200  0.08656400  0.13781200  1
  S  S0  1  0.75039900  0.75107100  0.75039900  1
  S  S1  1  0.24960100  0.24892900  0.75186900  1
  S  S2  1  0.25514900  0.73455500  0.25514900  1
  S  S3  1  0.75186900  0.24892900  0.24960100  1
  S  S4  1  0.74485100  0.26544500  0.74485100  1
  S  S5  1  0.24813100  0.75107100  0.75039900  1
  S  S6  1  0.24960100  0.24892900  0.24960100  1
  S  S7  1  0.75039900  0.75107100  0.24813100  1
loop_
_geom_bond_atom_site_label_1
_geom_bond_atom_site_label_2
_geom_bond_distance
_geom_bond_site_symmetry_2
Mg0 S5 2.622290 1_554
Mg0 S3 2.622290 1_455
Mg0 S7 2.622290 1_455
Mg0 S1 2.622290 1_554
Mg0 S6 2.622290 1_555
Mg0 S0 2.622290 1_454
Cu0 S4 2.190771 1_565
Cu0 S5 2.335783 1_655
Cu0 S0 2.335784 1_555
Cu0 S7 2.335784 1_556
Cu0 Mg0 2.573069 1_656
Cu1 S2 2.190771 1_545
Cu1 S3 2.335783 1_455
Cu1 S6 2.335784 1_555
Cu1 S1 2.335784 1_554
Cu1 Mg0 2.573069 1_555
S0 Zr3 2.629852 1_565
S0 Zr0 2.633876 1_556
S0 Zr2 2.633877 1_655
S1 Zr3 2.629852 1_555
S1 Zr1 2.633876 1_555
S1 Zr2 2.633877 1_555
S2 Zr1 2.570255 1_555
S2 Zr2 2.570266 1_555
S2 Zr0 2.570266 1_555
S3 Zr3 2.629852 1_555
S3 Zr0 2.633877 1_555
S3 Zr1 2.633877 1_555
S4 Zr1 2.570255 1_555
S4 Zr2 2.570266 1_655
S4 Zr0 2.570266 1_556
S5 Zr3 2.629852 1_565
S5 Zr0 2.633877 1_556
S5 Zr1 2.633877 1_555
S6 Zr3 2.629852 1_555
S6 Zr0 2.633876 1_555
S6 Zr2 2.633877 1_555
S7 Zr3 2.629852 1_565
S7 Zr1 2.633876 1_555
S7 Zr2 2.633877 1_655
