# generated using pymatgen
data_SrMgCuO2
_symmetry_space_group_name_H-M   'P 1'
_cell_length_a   3.31964774
_cell_length_b   6.16490180
_cell_length_c   3.88750670
_cell_angle_alpha   90.00000000
_cell_angle_beta   90.00000000
_cell_angle_gamma   90.00000000
_symmetry_Int_Tables_number   1
_chemical_formula_structural   SrMgCuO2
_chemical_formula_sum   'Sr1 Mg1 Cu1 O2'
_cell_volume   79.55899992
_cell_formula_units_Z   1
loop_
 _symmetry_equiv_pos_site_id
 _symmetry_equiv_pos_as_xyz
  1  'x, y, z'
loop_
 _atom_site_type_symbol
 _atom_site_label
 _atom_site_symmetry_multiplicity
 _atom_site_fract_x
 _atom_site_fract_y
 _atom_site_fract_z
 _atom_site_occupancy
  Sr  Sr0  1  0.50000000  0.66515703  0.50000000  1
  Mg  Mg0  1  0.50000000  0.25888314  -0.00000000  1
  Cu  Cu0  1  -0.00000000  0.94421325  -0.00000000  1
  O  O0  1  0.00000000  0.45501304  0.00000000  1
  O  O1  1  0.00000000  -0.05659946  0.50000000  1
loop_
_geom_bond_atom_site_label_1
_geom_bond_atom_site_label_2
_geom_bond_distance
_geom_bond_site_symmetry_2
Mg0 O0 2.053531 1_655
Mg0 O0 2.053531 1_555
Cu0 O1 1.943760 1_565
Cu0 O1 1.943760 1_564
O0 Sr0 2.865581 1_455
O0 Sr0 2.865581 1_454
O0 Sr0 2.865581 1_555
O0 Sr0 2.865581 1_554
O1 Sr0 2.386927 1_445
O1 Sr0 2.386927 1_545
