# generated using pymatgen
data_CaPH3O4
_symmetry_space_group_name_H-M   'P 1'
_cell_length_a   6.79294700
_cell_length_b   7.74876200
_cell_length_c   7.97936929
_cell_angle_alpha   69.87809684
_cell_angle_beta   90.00000000
_cell_angle_gamma   90.00000000
_symmetry_Int_Tables_number   1
_chemical_formula_structural   CaPH3O4
_chemical_formula_sum   'Ca4 P4 H12 O16'
_cell_volume   394.37329925
_cell_formula_units_Z   4
loop_
 _symmetry_equiv_pos_site_id
 _symmetry_equiv_pos_as_xyz
  1  'x, y, z'
loop_
 _atom_site_type_symbol
 _atom_site_label
 _atom_site_symmetry_multiplicity
 _atom_site_fract_x
 _atom_site_fract_y
 _atom_site_fract_z
 _atom_site_occupancy
  Ca  Ca0  1  0.87156000  0.38976500  0.35189500  1
  Ca  Ca1  1  0.37156000  0.61023500  0.14810500  1
  Ca  Ca2  1  0.12844000  0.61023500  0.64810500  1
  Ca  Ca3  1  0.62844000  0.38976500  0.85189500  1
  P  P0  1  0.86629500  0.72415900  0.98901600  1
  P  P1  1  0.36629500  0.27584100  0.51098400  1
  P  P2  1  0.13370500  0.27584100  0.01098400  1
  P  P3  1  0.63370500  0.72415900  0.48901600  1
  H  H0  1  0.94567900  0.18713500  0.72234300  1
  H  H1  1  0.44567900  0.81286500  0.77765700  1
  H  H2  1  0.05432100  0.81286500  0.27765700  1
  H  H3  1  0.55432100  0.18713500  0.22234300  1
  H  H4  1  0.91887700  0.00347500  0.67929200  1
  H  H5  1  0.41887700  0.99652500  0.82070800  1
  H  H6  1  0.08112300  0.99652500  0.32070800  1
  H  H7  1  0.58112300  0.00347500  0.17929200  1
  H  H8  1  0.22630400  0.11409500  0.00924600  1
  H  H9  1  0.72630400  0.88590500  0.49075400  1
  H  H10  1  0.77369600  0.88590500  0.99075400  1
  H  H11  1  0.27369600  0.11409500  0.50924600  1
  O  O0  1  0.90478000  0.13920200  0.62750700  1
  O  O1  1  0.78954000  0.56723700  0.54184600  1
  O  O2  1  0.21046000  0.43276300  0.45815400  1
  O  O3  1  0.71046000  0.56723700  0.04184600  1
  O  O4  1  0.47557300  0.67555100  0.63852000  1
  O  O5  1  0.97557300  0.32444900  0.86148000  1
  O  O6  1  0.52442700  0.32444900  0.36148000  1
  O  O7  1  0.02442700  0.67555100  0.13852000  1
  O  O8  1  0.55234600  0.76550900  0.30037600  1
  O  O9  1  0.05234600  0.23449100  0.19962400  1
  O  O10  1  0.44765400  0.23449100  0.69962400  1
  O  O11  1  0.94765400  0.76550900  0.80037600  1
  O  O12  1  0.09522000  0.86079800  0.37249300  1
  O  O13  1  0.59522000  0.13920200  0.12750700  1
  O  O14  1  0.28954000  0.43276300  0.95815400  1
  O  O15  1  0.40478000  0.86079800  0.87249300  1
loop_
_geom_bond_atom_site_label_1
_geom_bond_atom_site_label_2
_geom_bond_distance
_geom_bond_site_symmetry_2
Ca0 O9 2.331937 1_655
Ca0 O0 2.391493 1_555
Ca0 O6 2.407447 1_555
Ca0 O1 2.435774 1_555
Ca0 O7 2.507378 1_655
Ca0 O2 2.514772 1_655
Ca0 O3 2.620789 1_555
Ca1 O8 2.331937 1_555
Ca1 O15 2.391493 1_554
Ca1 O7 2.407447 1_555
Ca1 O14 2.435774 1_554
Ca1 O6 2.507378 1_555
Ca1 O3 2.514772 1_555
Ca1 O2 2.620789 1_555
Ca2 O11 2.331937 1_455
Ca2 O12 2.391493 1_555
Ca2 O4 2.407447 1_555
Ca2 O2 2.435774 1_555
Ca2 O5 2.507378 1_455
Ca2 O1 2.514772 1_455
Ca2 O14 2.620789 1_555
Ca3 O10 2.331937 1_555
Ca3 O13 2.391493 1_556
Ca3 O5 2.407447 1_555
Ca3 O3 2.435774 1_556
Ca3 O4 2.507378 1_555
Ca3 O14 2.514772 1_555
Ca3 O1 2.620789 1_555
H0 O0 0.990539 1_555
H1 O15 0.990539 1_555
H2 O12 0.990539 1_555
H3 O13 0.990539 1_555
H4 O0 0.993485 1_555
H5 O15 0.993485 1_555
H6 O12 0.993485 1_555
H7 O13 0.993485 1_555
H8 P2 1.406647 1_555
H9 P3 1.406647 1_555
H10 P0 1.406647 1_555
H11 P1 1.406647 1_555
O1 P3 1.556969 1_555
O2 P1 1.556969 1_555
O3 P0 1.556969 1_554
O4 P3 1.552323 1_555
O5 P2 1.552323 1_656
O6 P1 1.552323 1_555
O7 P0 1.552323 1_454
O8 P3 1.530353 1_555
O9 P2 1.530353 1_555
O10 P1 1.530353 1_555
O11 P0 1.530353 1_555
O14 P2 1.556969 1_556
