# generated using pymatgen
data_K6Mg(SbS4)2
_symmetry_space_group_name_H-M   'P 1'
_cell_length_a   8.29517006
_cell_length_b   8.07196989
_cell_length_c   8.49059743
_cell_angle_alpha   108.85258458
_cell_angle_beta   87.64846395
_cell_angle_gamma   91.88032859
_symmetry_Int_Tables_number   1
_chemical_formula_structural   K6Mg(SbS4)2
_chemical_formula_sum   'K6 Mg1 Sb2 S8'
_cell_volume   537.44933015
_cell_formula_units_Z   1
loop_
 _symmetry_equiv_pos_site_id
 _symmetry_equiv_pos_as_xyz
  1  'x, y, z'
loop_
 _atom_site_type_symbol
 _atom_site_label
 _atom_site_symmetry_multiplicity
 _atom_site_fract_x
 _atom_site_fract_y
 _atom_site_fract_z
 _atom_site_occupancy
  K  K0  1  0.97004868  0.36747077  0.74877493  1
  K  K1  1  0.47757603  0.56193594  0.29413097  1
  K  K2  1  0.62778006  0.03717209  0.24539936  1
  K  K3  1  0.97607112  0.81584007  0.70523531  1
  K  K4  1  0.43542590  0.74385094  0.78732473  1
  K  K5  1  0.00315231  0.32924120  0.15697257  1
  Mg  Mg0  1  0.20595022  0.16879725  0.41369056  1
  Sb  Sb0  1  0.51661142  0.25737952  0.74832911  1
  Sb  Sb1  1  0.06624042  0.78197751  0.19868566  1
  S  S0  1  0.18080619  0.47742899  0.48796700  1
  S  S1  1  0.65031683  0.40878894  0.58126657  1
  S  S2  1  0.23279974  0.99735712  0.10573080  1
  S  S3  1  0.69654147  0.13723123  0.89223165  1
  S  S4  1  0.94513855  0.00878789  0.43688829  1
  S  S5  1  0.38202194  0.01020442  0.55603523  1
  S  S6  1  0.83228022  0.70276147  0.02743242  1
  S  S7  1  0.32683889  0.43544166  0.93890485  1
loop_
_geom_bond_atom_site_label_1
_geom_bond_atom_site_label_2
_geom_bond_distance
_geom_bond_site_symmetry_2
K0 S0 3.098157 1_655
K0 S1 3.137275 1_555
K0 S6 3.173565 1_556
K0 S4 3.238593 1_555
K0 S3 3.323321 1_555
K0 S7 3.373365 1_655
K1 S0 3.084967 1_555
K1 S7 3.152496 1_554
K1 S1 3.446110 1_555
K1 S5 3.675539 1_565
K2 S4 3.202770 1_555
K2 S6 3.225446 1_545
K2 S5 3.325706 1_555
K2 S3 3.371041 1_554
K2 S1 3.412318 1_555
K2 S2 3.499713 1_545
K3 S4 3.170223 1_565
K3 S0 3.246520 1_655
K3 S6 3.318754 1_556
K3 S3 3.472507 1_565
K4 S7 3.239372 1_555
K4 S1 3.248965 1_555
K4 S2 3.255576 1_556
K4 S5 3.396721 1_565
K4 S0 3.486566 1_555
K4 S3 3.667001 1_565
K5 S0 3.090661 1_555
K5 S2 3.241702 1_545
K5 S7 3.440812 1_554
K5 S3 3.447114 1_454
K5 Sb1 3.578788 1_555
Mg0 S0 2.378144 1_555
Mg0 S4 2.516684 1_455
Mg0 S2 2.536847 1_545
Mg0 S5 2.549536 1_555
S1 Sb0 2.374485 1_555
S2 Sb1 2.488773 1_555
S3 Sb0 2.381505 1_555
S4 Sb1 2.452022 1_645
S5 Sb0 2.406464 1_555
S6 Sb1 2.416369 1_655
S7 Sb0 2.366142 1_555
