# generated using pymatgen
data_NaNbIn3P3(SO8)3
_symmetry_space_group_name_H-M   'P 1'
_cell_length_a   8.87118983
_cell_length_b   8.84488385
_cell_length_c   23.21333244
_cell_angle_alpha   90.35319265
_cell_angle_beta   90.06505696
_cell_angle_gamma   120.11644877
_symmetry_Int_Tables_number   1
_chemical_formula_structural   NaNbIn3P3(SO8)3
_chemical_formula_sum   'Na3 Nb3 In9 P9 S9 O72'
_cell_volume   1575.49810209
_cell_formula_units_Z   3
loop_
 _symmetry_equiv_pos_site_id
 _symmetry_equiv_pos_as_xyz
  1  'x, y, z'
loop_
 _atom_site_type_symbol
 _atom_site_label
 _atom_site_symmetry_multiplicity
 _atom_site_fract_x
 _atom_site_fract_y
 _atom_site_fract_z
 _atom_site_occupancy
  Na  Na0  1  0.00092261  0.01790475  0.99969775  1
  Na  Na1  1  0.68437796  0.34295193  0.83438559  1
  Na  Na2  1  0.66322189  0.34219159  0.33733461  1
  Nb  Nb0  1  0.00221520  0.99356512  0.64523273  1
  Nb  Nb1  1  0.65938038  0.33253554  0.18269520  1
  Nb  Nb2  1  0.32961325  0.65562761  0.52219442  1
  In  In0  1  0.99822572  0.99846487  0.35562637  1
  In  In1  1  0.99936132  0.00393589  0.85277247  1
  In  In2  1  0.99560685  0.00289655  0.14881567  1
  In  In3  1  0.67122274  0.33768744  0.68098640  1
  In  In4  1  0.66838813  0.32860856  0.98045778  1
  In  In5  1  0.66334010  0.33371921  0.48635737  1
  In  In6  1  0.33457702  0.65999763  0.02322393  1
  In  In7  1  0.34289864  0.66376276  0.31269280  1
  In  In8  1  0.31868110  0.66165936  0.81105962  1
  P  P0  1  0.71311033  0.70806454  0.25032743  1
  P  P1  1  0.99549041  0.70853715  0.75114725  1
  P  P2  1  0.95662248  0.32756426  0.58334989  1
  P  P3  1  0.37509424  0.03806153  0.58330934  1
  P  P4  1  0.66625304  0.62666169  0.58333419  1
  P  P5  1  0.66647054  0.03998053  0.08163337  1
  P  P6  1  0.37101252  0.32773977  0.08107989  1
  P  P7  1  0.03898373  0.37333043  0.91693122  1
  P  P8  1  0.33608474  0.37347513  0.41561386  1
  S  S0  1  0.29642423  0.00217913  0.25018862  1
  S  S1  1  0.99412525  0.29565893  0.25053056  1
  S  S2  1  0.29415417  0.28965741  0.74912424  1
  S  S3  1  0.70807136  0.00047802  0.74939386  1
  S  S4  1  0.95663622  0.62515980  0.08371066  1
  S  S5  1  0.62613822  0.66623326  0.91574029  1
  S  S6  1  0.33255602  0.95910557  0.91670677  1
  S  S7  1  0.62033988  0.95815417  0.41751603  1
  S  S8  1  0.04483419  0.66335424  0.41632486  1
  O  O0  1  0.22748325  0.04449346  0.30196442  1
  O  O1  1  0.82728262  0.77812329  0.30523380  1
  O  O2  1  0.95773583  0.18571864  0.30216472  1
  O  O3  1  0.21769131  0.18789069  0.80177754  1
  O  O4  1  0.96792681  0.79231111  0.80473272  1
  O  O5  1  0.81383398  0.03420137  0.80217016  1
  O  O6  1  0.80265144  0.98605628  0.69785200  1
  O  O7  1  0.18201050  0.19560166  0.69753169  1
  O  O8  1  0.00795872  0.82568667  0.69687539  1
  O  O9  1  0.79574059  0.81621410  0.19689010  1
  O  O10  1  0.02757654  0.22066942  0.19890742  1
  O  O11  1  0.19291597  0.97668015  0.19801690  1
  O  O12  1  0.89297762  0.38017174  0.63601133  1
  O  O13  1  0.48882290  0.10681738  0.63674238  1
  O  O14  1  0.61669978  0.51191332  0.63592868  1
  O  O15  1  0.86046315  0.51455152  0.13595244  1
  O  O16  1  0.65411867  0.14695529  0.13654655  1
  O  O17  1  0.49160598  0.34610489  0.13671904  1
  O  O18  1  0.45468721  0.29988590  0.02821829  1
  O  O19  1  0.85121917  0.55127248  0.03152212  1
  O  O20  1  0.70309771  0.15343285  0.02883087  1
  O  O21  1  0.43994392  0.15271115  0.53051914  1
  O  O22  1  0.71605966  0.56303958  0.52994283  1
  O  O23  1  0.84443325  0.28356105  0.52952088  1
  O  O24  1  0.54860848  0.69197363  0.96846575  1
  O  O25  1  0.14582274  0.45693938  0.97213046  1
  O  O26  1  0.31503587  0.85882741  0.96914238  1
  O  O27  1  0.52633331  0.84983096  0.46850732  1
  O  O28  1  0.32126083  0.47737897  0.46982583  1
  O  O29  1  0.15261971  0.67885289  0.46834660  1
  O  O30  1  0.12372425  0.64042587  0.36350202  1
  O  O31  1  0.51648733  0.88575919  0.36423063  1
  O  O32  1  0.36554630  0.48392675  0.36219706  1
  O  O33  1  0.12010685  0.47592195  0.86122380  1
  O  O34  1  0.35741894  0.88028111  0.86373192  1
  O  O35  1  0.52507218  0.64730287  0.86270339  1
  O  O36  1  0.03538298  0.82488394  0.41456708  1
  O  O37  1  0.78873263  0.96330052  0.41412041  1
  O  O38  1  0.16451028  0.19852603  0.41277492  1
  O  O39  1  0.01934937  0.18776348  0.91361770  1
  O  O40  1  0.17275104  0.97381780  0.91298275  1
  O  O41  1  0.80450313  0.82229133  0.91285417  1
  O  O42  1  0.98861601  0.17453061  0.59809801  1
  O  O43  1  0.18827703  0.00939403  0.59765535  1
  O  O44  1  0.82220275  0.81375177  0.59726634  1
  O  O45  1  0.97792931  0.80012255  0.09121231  1
  O  O46  1  0.82709005  0.01998631  0.08974580  1
  O  O47  1  0.19496453  0.16232304  0.09100279  1
  O  O48  1  0.68540503  0.15461536  0.74302763  1
  O  O49  1  0.46648243  0.30410712  0.74247433  1
  O  O50  1  0.83253128  0.52696137  0.74381052  1
  O  O51  1  0.69152152  0.51928647  0.23871901  1
  O  O52  1  0.83397498  0.31120093  0.24132045  1
  O  O53  1  0.47735002  0.16228319  0.24180256  1
  O  O54  1  0.64142109  0.50633762  0.91957335  1
  O  O55  1  0.85522926  0.35479845  0.91939630  1
  O  O56  1  0.48726288  0.13824065  0.91905506  1
  O  O57  1  0.64483465  0.13603923  0.42336998  1
  O  O58  1  0.49904250  0.35587365  0.42315047  1
  O  O59  1  0.87010732  0.50535837  0.42188660  1
  O  O60  1  0.36610878  0.49627326  0.08191632  1
  O  O61  1  0.12314019  0.62979631  0.08238162  1
  O  O62  1  0.49415255  0.86864070  0.08002488  1
  O  O63  1  0.34368824  0.85186083  0.56809678  1
  O  O64  1  0.51017118  0.65721324  0.56922612  1
  O  O65  1  0.14401335  0.48742380  0.56906378  1
  O  O66  1  0.31905481  0.85076506  0.25787356  1
  O  O67  1  0.53032836  0.67996563  0.25674791  1
  O  O68  1  0.14205902  0.47326638  0.25782612  1
  O  O69  1  0.30661754  0.46142989  0.75135415  1
  O  O70  1  0.16685700  0.70720839  0.75131775  1
  O  O71  1  0.54026307  0.83663932  0.75327950  1
loop_
_geom_bond_atom_site_label_1
_geom_bond_atom_site_label_2
_geom_bond_distance
_geom_bond_site_symmetry_2
Na0 O39 2.463329 1_555
Na0 O46 2.604452 1_456
Na0 O47 2.615118 1_556
Na0 O41 2.649024 1_445
Na0 O40 2.668584 1_545
Na0 O45 2.814625 1_446
Na1 O55 2.456361 1_555
Na1 O54 2.581320 1_555
Na1 O50 2.588213 1_555
Na1 O56 2.659624 1_555
Na1 O48 2.691507 1_555
Na1 O49 2.778802 1_555
Na2 O58 2.506947 1_555
Na2 O59 2.569510 1_555
Na2 O57 2.662182 1_555
Na2 O51 2.721744 1_555
Na2 O53 2.735682 1_555
Na2 O52 2.784619 1_555
Nb0 O43 1.933379 1_565
Nb0 O8 1.934494 1_555
Nb0 O44 1.935154 1_455
Nb0 O42 1.997193 1_465
Nb0 O7 2.078416 1_565
Nb0 O6 2.125681 1_455
Nb1 O17 1.883054 1_555
Nb1 O16 1.935308 1_555
Nb1 O51 2.000263 1_555
Nb1 O15 2.023673 1_555
Nb1 O53 2.085217 1_555
Nb1 O52 2.139691 1_555
Nb2 O65 1.916741 1_555
Nb2 O64 1.931602 1_555
Nb2 O28 1.956492 1_555
Nb2 O63 1.980634 1_555
Nb2 O29 2.095807 1_555
Nb2 O27 2.138301 1_555
In0 O38 2.101016 1_665
In0 O1 2.113831 1_555
In0 O37 2.196633 1_555
In0 O36 2.206931 1_655
In0 O2 2.243572 1_565
In0 O0 2.243844 1_665
In1 O4 2.067541 1_545
In1 O39 2.086104 1_655
In1 O5 2.145203 1_555
In1 O3 2.160206 1_655
In1 O41 2.181890 1_545
In1 O40 2.191200 1_645
In2 O9 2.050557 1_545
In2 O46 2.088681 1_555
In2 O47 2.107913 1_655
In2 O10 2.136848 1_655
In2 O45 2.171866 1_545
In2 O11 2.197278 1_645
In3 O12 2.090180 1_555
In3 O14 2.114084 1_555
In3 O13 2.120727 1_555
In3 O50 2.130325 1_555
In3 O49 2.212279 1_555
In3 O48 2.223671 1_555
In4 O20 2.062963 1_556
In4 O18 2.100626 1_556
In4 O55 2.105752 1_555
In4 O19 2.162353 1_556
In4 O56 2.167665 1_555
In4 O54 2.220340 1_555
In5 O22 2.092396 1_555
In5 O21 2.093428 1_555
In5 O23 2.121012 1_555
In5 O58 2.144959 1_555
In5 O57 2.214004 1_555
In5 O59 2.269099 1_555
In6 O25 2.094645 1_554
In6 O60 2.112232 1_555
In6 O62 2.119498 1_555
In6 O24 2.184461 1_554
In6 O61 2.232255 1_555
In6 O26 2.243110 1_554
In7 O32 2.057606 1_555
In7 O67 2.059077 1_555
In7 O31 2.142582 1_555
In7 O68 2.142742 1_555
In7 O66 2.185471 1_555
In7 O30 2.195364 1_555
In8 O33 2.069338 1_555
In8 O70 2.108732 1_555
In8 O34 2.157608 1_555
In8 O69 2.201821 1_555
In8 O35 2.244065 1_555
In8 O71 2.244300 1_555
O0 S0 1.477998 1_555
O1 P0 1.546557 1_555
O2 S1 1.478739 1_555
O3 S2 1.472064 1_555
O4 P1 1.525535 1_555
O5 S3 1.477231 1_555
O6 S3 1.503186 1_565
O7 S2 1.506852 1_555
O8 P1 1.604513 1_455
O9 P0 1.517936 1_555
O10 S1 1.467158 1_455
O11 S0 1.465275 1_565
O12 P2 1.512568 1_555
O13 P3 1.516035 1_555
O14 P4 1.510856 1_555
O15 S4 1.528080 1_555
O16 P5 1.619154 1_555
O17 P6 1.630618 1_555
O18 P6 1.516349 1_555
O19 S4 1.464125 1_555
O20 P5 1.517826 1_555
O21 P3 1.514089 1_555
O22 P4 1.513321 1_555
O23 P2 1.518501 1_555
O24 S5 1.475976 1_555
O25 P7 1.539238 1_555
O26 S6 1.472353 1_555
O27 S7 1.492961 1_555
O28 P8 1.597798 1_555
O29 S8 1.501724 1_555
O30 S8 1.475052 1_555
O31 S7 1.477987 1_555
O32 P8 1.523057 1_555
O33 P7 1.541041 1_555
O34 S6 1.480306 1_555
O35 S5 1.480524 1_555
O36 S8 1.473374 1_555
O37 S7 1.473747 1_555
O38 P8 1.533125 1_555
O39 P7 1.562595 1_555
O40 S6 1.489682 1_555
O41 S5 1.490997 1_555
O42 P2 1.555928 1_555
O43 P3 1.581898 1_555
O44 P4 1.565849 1_555
O45 S4 1.471086 1_555
O46 P5 1.532877 1_555
O47 P6 1.531247 1_555
O48 S3 1.482716 1_555
O49 S2 1.477149 1_555
O50 P1 1.537644 1_555
O51 P0 1.603336 1_555
O52 S1 1.509544 1_555
O53 S0 1.530550 1_555
O54 S5 1.490089 1_555
O55 P7 1.555514 1_655
O56 S6 1.487801 1_545
O57 S7 1.481685 1_545
O58 P8 1.539578 1_555
O59 S8 1.483614 1_655
O60 P6 1.512962 1_555
O61 S4 1.457311 1_455
O62 P5 1.519623 1_565
O63 P3 1.564234 1_565
O64 P4 1.572584 1_555
O65 P2 1.587756 1_455
O66 S0 1.462316 1_565
O67 P0 1.519808 1_555
O68 S1 1.464955 1_455
O69 S2 1.467530 1_555
O70 P1 1.526157 1_455
O71 S3 1.470133 1_565
