# generated using pymatgen
data_Na10Ta6In2Si11SO48
_symmetry_space_group_name_H-M   'P 1'
_cell_length_a   18.11737207
_cell_length_b   9.06555546
_cell_length_c   22.65140289
_cell_angle_alpha   90.02550446
_cell_angle_beta   89.97106678
_cell_angle_gamma   120.03949023
_symmetry_Int_Tables_number   1
_chemical_formula_structural   Na10Ta6In2Si11SO48
_chemical_formula_sum   'Na30 Ta18 In6 Si33 S3 O144'
_cell_volume   3220.64114371
_cell_formula_units_Z   3
loop_
 _symmetry_equiv_pos_site_id
 _symmetry_equiv_pos_as_xyz
  1  'x, y, z'
loop_
 _atom_site_type_symbol
 _atom_site_label
 _atom_site_symmetry_multiplicity
 _atom_site_fract_x
 _atom_site_fract_y
 _atom_site_fract_z
 _atom_site_occupancy
  Na  Na0  1  0.31681557  0.99034875  0.25276543  1
  Na  Na1  1  0.81845669  0.99154147  0.25275340  1
  Na  Na2  1  0.81857399  0.64352227  0.74741929  1
  Na  Na3  1  0.18334170  0.98552288  0.75003587  1
  Na  Na4  1  0.67979792  0.00077934  0.74898282  1
  Na  Na5  1  0.01872033  0.71121209  0.58592948  1
  Na  Na6  1  0.83562630  0.96143376  0.58539090  1
  Na  Na7  1  0.64742214  0.96888115  0.08426856  1
  Na  Na8  1  0.33643154  0.71027980  0.08692618  1
  Na  Na9  1  0.83757567  0.71124887  0.08860323  1
  Na  Na10  1  0.01873436  0.32511608  0.08758112  1
  Na  Na11  1  0.51541987  0.32283844  0.08774710  1
  Na  Na12  1  0.98792452  0.65961940  0.91406216  1
  Na  Na13  1  0.34614943  0.03005644  0.91364690  1
  Na  Na14  1  0.48681397  0.31711986  0.41550987  1
  Na  Na15  1  0.98829018  0.31838144  0.41521610  1
  Na  Na16  1  0.34213661  0.65860209  0.41574213  1
  Na  Na17  1  0.84325826  0.65914611  0.41550270  1
  Na  Na18  1  0.01172680  0.01210956  0.50539617  1
  Na  Na19  1  0.50606119  0.99965861  0.50481448  1
  Na  Na20  1  0.00805417  0.01188115  0.00461497  1
  Na  Na21  1  0.50221547  0.99845984  0.99982223  1
  Na  Na22  1  0.33759645  0.35487462  0.83398075  1
  Na  Na23  1  0.83712231  0.32586828  0.83390816  1
  Na  Na24  1  0.33029636  0.33713496  0.33359114  1
  Na  Na25  1  0.83114453  0.33859744  0.33342345  1
  Na  Na26  1  0.16195968  0.65291093  0.17338742  1
  Na  Na27  1  0.66297368  0.64376380  0.17555604  1
  Na  Na28  1  0.17223732  0.66676659  0.67083788  1
  Na  Na29  1  0.65643978  0.64760227  0.66402258  1
  Ta  Ta0  1  0.99593657  0.99707691  0.35485619  1
  Ta  Ta1  1  0.49485433  0.99700799  0.35452173  1
  Ta  Ta2  1  0.99435231  0.99649544  0.85652021  1
  Ta  Ta3  1  0.49939805  0.99725030  0.85486855  1
  Ta  Ta4  1  0.49906127  0.00078947  0.64491725  1
  Ta  Ta5  1  0.33944450  0.33512622  0.68554885  1
  Ta  Ta6  1  0.83531687  0.33709716  0.68805094  1
  Ta  Ta7  1  0.33764236  0.34281497  0.18723893  1
  Ta  Ta8  1  0.83931841  0.34609857  0.18737049  1
  Ta  Ta9  1  0.33290765  0.33949568  0.97874140  1
  Ta  Ta10  1  0.83063787  0.32644508  0.97712682  1
  Ta  Ta11  1  0.33301134  0.33183272  0.48235076  1
  Ta  Ta12  1  0.83049694  0.32701627  0.48147829  1
  Ta  Ta13  1  0.16686960  0.66882317  0.01979268  1
  Ta  Ta14  1  0.66674825  0.66607884  0.01959126  1
  Ta  Ta15  1  0.16923670  0.66801909  0.52195347  1
  Ta  Ta16  1  0.66263061  0.66226810  0.52074707  1
  Ta  Ta17  1  0.66213496  0.66248782  0.81280661  1
  In  In0  1  0.99884728  0.99808944  0.64521084  1
  In  In1  1  0.00137526  0.00107626  0.14512215  1
  In  In2  1  0.49689810  0.00288537  0.14672447  1
  In  In3  1  0.16448492  0.65278714  0.31736823  1
  In  In4  1  0.66487335  0.65312463  0.31730659  1
  In  In5  1  0.16878116  0.67019617  0.81634590  1
  Si  Si0  1  0.35125352  0.70225019  0.24815796  1
  Si  Si1  1  0.85255564  0.70548179  0.24786948  1
  Si  Si2  1  0.00145248  0.29655543  0.24725942  1
  Si  Si3  1  0.50099623  0.29849967  0.24764033  1
  Si  Si4  1  0.64208612  0.28882568  0.74945315  1
  Si  Si5  1  0.00187514  0.70753173  0.74915434  1
  Si  Si6  1  0.49645961  0.70975546  0.74983422  1
  Si  Si7  1  0.35521551  0.99932217  0.74999364  1
  Si  Si8  1  0.85408464  0.00249715  0.74900962  1
  Si  Si9  1  0.48033082  0.33212219  0.58217297  1
  Si  Si10  1  0.98056125  0.33720716  0.58345922  1
  Si  Si11  1  0.18974617  0.04273066  0.58497498  1
  Si  Si12  1  0.68703920  0.04114766  0.58529239  1
  Si  Si13  1  0.33320843  0.62172218  0.58458115  1
  Si  Si14  1  0.82913839  0.61871266  0.58309210  1
  Si  Si15  1  0.48011229  0.62279376  0.08312219  1
  Si  Si16  1  0.97957462  0.62282716  0.08033478  1
  Si  Si17  1  0.32943446  0.04384115  0.08260075  1
  Si  Si18  1  0.83052004  0.04392273  0.08406554  1
  Si  Si19  1  0.18998741  0.33420806  0.08315651  1
  Si  Si20  1  0.69074985  0.33626915  0.08315954  1
  Si  Si21  1  0.31220021  0.66559017  0.91575018  1
  Si  Si22  1  0.80901271  0.66251222  0.91552680  1
  Si  Si23  1  0.02279503  0.37584089  0.91676399  1
  Si  Si24  1  0.52124293  0.37477748  0.91735120  1
  Si  Si25  1  0.16706244  0.96247350  0.91527483  1
  Si  Si26  1  0.66499663  0.95486022  0.91629346  1
  Si  Si27  1  0.30880998  0.96035798  0.41424650  1
  Si  Si28  1  0.80880296  0.95729206  0.41516670  1
  Si  Si29  1  0.16743934  0.37251470  0.41782698  1
  Si  Si30  1  0.66691950  0.37181262  0.41712593  1
  Si  Si31  1  0.02222631  0.66942919  0.41843342  1
  Si  Si32  1  0.52164457  0.67023696  0.41667861  1
  S  S0  1  0.14630069  0.00450775  0.25058624  1
  S  S1  1  0.64661673  0.00548382  0.24945826  1
  S  S2  1  0.14578241  0.28867081  0.75074247  1
  O  O0  1  0.10178771  0.02311686  0.30336692  1
  O  O1  1  0.60023986  0.02186718  0.30124291  1
  O  O2  1  0.41440005  0.80529386  0.30689511  1
  O  O3  1  0.91471872  0.80543961  0.30697196  1
  O  O4  1  0.48877422  0.16775653  0.30520100  1
  O  O5  1  0.98827919  0.16735689  0.30558095  1
  O  O6  1  0.10129038  0.17630403  0.80306845  1
  O  O7  1  0.59728667  0.16417639  0.80671227  1
  O  O8  1  0.48530479  0.80479121  0.80818769  1
  O  O9  1  0.98712270  0.80758724  0.80712095  1
  O  O10  1  0.41344459  0.02572017  0.80998203  1
  O  O11  1  0.91710442  0.02643456  0.80560417  1
  O  O12  1  0.40870193  0.98549882  0.69350531  1
  O  O13  1  0.88618437  0.95385877  0.68976085  1
  O  O14  1  0.09658493  0.21231279  0.69595627  1
  O  O15  1  0.58530660  0.19710077  0.69122421  1
  O  O16  1  0.01706844  0.81907019  0.69003096  1
  O  O17  1  0.51695168  0.83705276  0.69344411  1
  O  O18  1  0.39271335  0.80786218  0.18804075  1
  O  O19  1  0.89392523  0.81255040  0.18819958  1
  O  O20  1  0.01096488  0.21452143  0.18674732  1
  O  O21  1  0.51360134  0.22144533  0.18662068  1
  O  O22  1  0.09811007  0.98196297  0.19585276  1
  O  O23  1  0.60045716  0.98500156  0.19344159  1
  O  O24  1  0.43145788  0.35832772  0.63983360  1
  O  O25  1  0.92941394  0.36329989  0.64040816  1
  O  O26  1  0.24685599  0.13550505  0.64483426  1
  O  O27  1  0.74821742  0.13272949  0.64379741  1
  O  O28  1  0.32009551  0.49647370  0.64109990  1
  O  O29  1  0.81878225  0.50370041  0.64277355  1
  O  O30  1  0.43414653  0.49907429  0.14167580  1
  O  O31  1  0.93193740  0.49560138  0.13908227  1
  O  O32  1  0.31930170  0.13685493  0.14265439  1
  O  O33  1  0.81408847  0.13118108  0.14311894  1
  O  O34  1  0.25241090  0.36294105  0.14080594  1
  O  O35  1  0.75284463  0.36608203  0.14051815  1
  O  O36  1  0.24046338  0.31795732  0.02607229  1
  O  O37  1  0.73825907  0.31386037  0.02518868  1
  O  O38  1  0.41916677  0.52600285  0.02721324  1
  O  O39  1  0.91852101  0.52630444  0.02308543  1
  O  O40  1  0.34413966  0.16593312  0.02537896  1
  O  O41  1  0.83992905  0.16643860  0.02802089  1
  O  O42  1  0.24330684  0.16593126  0.52937795  1
  O  O43  1  0.73767063  0.16024880  0.52832577  1
  O  O44  1  0.34728684  0.53295999  0.52553361  1
  O  O45  1  0.84043378  0.51953155  0.52649340  1
  O  O46  1  0.42435431  0.31188476  0.52332212  1
  O  O47  1  0.92101719  0.31439919  0.52538994  1
  O  O48  1  0.26584562  0.69904731  0.97437663  1
  O  O49  1  0.76473744  0.69119768  0.97471478  1
  O  O50  1  0.08211393  0.46523523  0.97629797  1
  O  O51  1  0.58101868  0.46916235  0.97613532  1
  O  O52  1  0.14923556  0.82622045  0.97047081  1
  O  O53  1  0.65366993  0.83589791  0.97521329  1
  O  O54  1  0.26265322  0.82720341  0.46979146  1
  O  O55  1  0.76474777  0.83023051  0.47254475  1
  O  O56  1  0.14754989  0.46645051  0.47371486  1
  O  O57  1  0.64795204  0.46723910  0.47317947  1
  O  O58  1  0.08164543  0.69736831  0.47729493  1
  O  O59  1  0.58326752  0.69793410  0.47456896  1
  O  O60  1  0.05556588  0.61119902  0.36285090  1
  O  O61  1  0.55539827  0.61257112  0.36134256  1
  O  O62  1  0.25894264  0.89274354  0.35342314  1
  O  O63  1  0.75784204  0.88945195  0.35468727  1
  O  O64  1  0.19957349  0.49632112  0.36173846  1
  O  O65  1  0.69938382  0.49626366  0.36137207  1
  O  O66  1  0.05655298  0.50222395  0.86172114  1
  O  O67  1  0.57039240  0.49858763  0.86067755  1
  O  O68  1  0.19325557  0.90268994  0.85608229  1
  O  O69  1  0.67752447  0.86091778  0.85829295  1
  O  O70  1  0.25620339  0.62552759  0.85804013  1
  O  O71  1  0.75135446  0.64111453  0.85741598  1
  O  O72  1  0.00952960  0.83707350  0.40915450  1
  O  O73  1  0.51003325  0.83901761  0.40897199  1
  O  O74  1  0.40609078  0.97492384  0.40909106  1
  O  O75  1  0.90603806  0.97361499  0.40929393  1
  O  O76  1  0.07903011  0.18731691  0.40828830  1
  O  O77  1  0.57856513  0.18727544  0.40816916  1
  O  O78  1  0.01284034  0.18587004  0.90836555  1
  O  O79  1  0.51136614  0.18650039  0.91037193  1
  O  O80  1  0.07837606  0.97073818  0.90900016  1
  O  O81  1  0.58049605  0.97338938  0.91007319  1
  O  O82  1  0.40573510  0.84506050  0.91184312  1
  O  O83  1  0.90521479  0.83371369  0.90892308  1
  O  O84  1  0.48897919  0.16272221  0.58887814  1
  O  O85  1  0.98369113  0.16359958  0.58629898  1
  O  O86  1  0.09478384  0.01542361  0.58434001  1
  O  O87  1  0.59368639  0.02246597  0.59031014  1
  O  O88  1  0.41769061  0.81048292  0.59241208  1
  O  O89  1  0.91478916  0.80396538  0.58235793  1
  O  O90  1  0.49293327  0.81169404  0.08605697  1
  O  O91  1  0.98515943  0.80447257  0.08415309  1
  O  O92  1  0.41384492  0.02294115  0.08217655  1
  O  O93  1  0.91358711  0.02331034  0.08281844  1
  O  O94  1  0.09499179  0.17410010  0.08439832  1
  O  O95  1  0.59771227  0.16737263  0.08543810  1
  O  O96  1  0.34579457  0.17379831  0.74359066  1
  O  O97  1  0.84117922  0.16941534  0.74523542  1
  O  O98  1  0.23007277  0.29268538  0.74782945  1
  O  O99  1  0.73758837  0.30739968  0.74307564  1
  O  O100  1  0.41244538  0.52054066  0.74281755  1
  O  O101  1  0.90965423  0.52250412  0.74516261  1
  O  O102  1  0.34450498  0.51294151  0.24482277  1
  O  O103  1  0.84514815  0.51482047  0.24415139  1
  O  O104  1  0.40608612  0.29071657  0.24551285  1
  O  O105  1  0.90634278  0.29158395  0.24457775  1
  O  O106  1  0.23214470  0.16431498  0.24777040  1
  O  O107  1  0.73223790  0.16499030  0.24774327  1
  O  O108  1  0.32890905  0.50597178  0.92620677  1
  O  O109  1  0.82516672  0.50085343  0.92110939  1
  O  O110  1  0.42553792  0.34823395  0.92284957  1
  O  O111  1  0.92630532  0.35019971  0.92767615  1
  O  O112  1  0.25019316  0.14984933  0.92796693  1
  O  O113  1  0.75065119  0.14304858  0.92266953  1
  O  O114  1  0.33181485  0.15761638  0.42516132  1
  O  O115  1  0.83119348  0.15465845  0.42563021  1
  O  O116  1  0.24907061  0.34477944  0.42990315  1
  O  O117  1  0.74824150  0.34337192  0.42874881  1
  O  O118  1  0.42424539  0.50698561  0.42693665  1
  O  O119  1  0.92352949  0.50551183  0.42809997  1
  O  O120  1  0.18551668  0.51233168  0.07703693  1
  O  O121  1  0.68375491  0.51060894  0.07706122  1
  O  O122  1  0.07061101  0.62665802  0.07633082  1
  O  O123  1  0.57314461  0.63273444  0.07746580  1
  O  O124  1  0.24453254  0.85318968  0.07611391  1
  O  O125  1  0.74346553  0.85475226  0.07684416  1
  O  O126  1  0.18291976  0.85510315  0.57656710  1
  O  O127  1  0.68408033  0.85750095  0.57698357  1
  O  O128  1  0.24749961  0.63764412  0.57559941  1
  O  O129  1  0.74536687  0.64163492  0.57703334  1
  O  O130  1  0.07202577  0.51394177  0.57825123  1
  O  O131  1  0.57333814  0.50640870  0.57727123  1
  O  O132  1  0.16016354  0.85926637  0.25593464  1
  O  O133  1  0.66002731  0.85905151  0.25462615  1
  O  O134  1  0.26136571  0.69715557  0.25341147  1
  O  O135  1  0.76186904  0.69791217  0.25314378  1
  O  O136  1  0.07853375  0.48725740  0.25303654  1
  O  O137  1  0.57878060  0.48842620  0.25350486  1
  O  O138  1  0.15831076  0.45850501  0.75608721  1
  O  O139  1  0.65734645  0.48325245  0.75650708  1
  O  O140  1  0.08405340  0.68575427  0.75443037  1
  O  O141  1  0.58386369  0.69439979  0.75754721  1
  O  O142  1  0.26049248  0.83636639  0.74972016  1
  O  O143  1  0.75803759  0.83399084  0.76007275  1
loop_
_geom_bond_atom_site_label_1
_geom_bond_atom_site_label_2
_geom_bond_distance
_geom_bond_site_symmetry_2
Na0 O134 2.323967 1_555
Na0 O104 2.376630 1_565
Na0 O132 2.468895 1_555
Na0 O62 2.480201 1_555
Na0 O106 2.697362 1_565
Na0 O32 2.816001 1_565
Na0 O4 2.947678 1_565
Na0 O18 3.008401 1_555
Na1 O135 2.324789 1_555
Na1 O105 2.373230 1_565
Na1 O133 2.496290 1_555
Na1 O63 2.524982 1_555
Na1 O107 2.717507 1_565
Na1 O33 2.806999 1_565
Na1 O5 2.920766 1_565
Na1 O19 2.976202 1_555
Na2 O101 2.396156 1_555
Na2 O143 2.482301 1_555
Na2 O139 2.536985 1_555
Na2 O99 2.640300 1_555
Na2 O29 2.688401 1_555
Na2 O71 2.768023 1_555
Na2 O13 2.769952 1_555
Na2 O9 2.970006 1_555
Na3 O142 2.382121 1_555
Na3 O140 2.395135 1_555
Na3 O98 2.472448 1_565
Na3 O68 2.550160 1_555
Na3 O96 2.562681 1_565
Na3 O26 2.699078 1_565
Na4 O99 2.434571 1_555
Na4 O141 2.437196 1_545
Na4 O97 2.533315 1_555
Na4 O143 2.550528 1_545
Na4 O27 2.675673 1_555
Na4 O69 2.773165 1_545
Na4 O17 2.847453 1_545
Na4 O7 2.890008 1_555
Na5 O86 2.387695 1_565
Na5 O89 2.417548 1_455
Na5 O130 2.426915 1_555
Na5 O16 2.558227 1_555
Na5 O126 2.590519 1_555
Na5 O58 2.740573 1_555
Na6 O85 2.373428 1_565
Na6 O127 2.423378 1_555
Na6 O89 2.479767 1_555
Na6 O129 2.523550 1_555
Na6 O13 2.549144 1_555
Na6 O55 2.840582 1_555
Na7 O95 2.381645 1_565
Na7 O90 2.423424 1_555
Na7 O125 2.434868 1_555
Na7 O23 2.642490 1_555
Na7 O123 2.648603 1_555
Na7 O53 2.775258 1_554
Na8 O120 2.415384 1_555
Na8 O92 2.456164 1_565
Na8 O18 2.483069 1_555
Na8 O90 2.505031 1_555
Na8 O124 2.582809 1_555
Na8 O48 2.831595 1_554
Na9 O91 2.368787 1_555
Na9 O93 2.452864 1_565
Na9 O19 2.457022 1_555
Na9 O121 2.463427 1_555
Na9 O125 2.625273 1_555
Na9 O49 2.862231 1_554
Na9 O35 2.953476 1_555
Na10 O94 2.383647 1_555
Na10 O122 2.418503 1_555
Na10 O93 2.430664 1_455
Na10 O20 2.435378 1_555
Na10 O120 2.633079 1_555
Na10 O50 2.797444 1_554
Na10 O31 2.941483 1_455
Na11 O92 2.405159 1_555
Na11 O21 2.415232 1_555
Na11 O123 2.469679 1_555
Na11 O95 2.513084 1_555
Na11 O121 2.656948 1_555
Na11 O51 2.825820 1_554
Na11 O30 2.926548 1_555
Na12 O80 2.454834 1_655
Na12 O111 2.464740 1_555
Na12 O109 2.557869 1_555
Na12 O66 2.600161 1_655
Na12 O83 2.667971 1_555
Na12 O39 2.760135 1_556
Na12 O9 2.773067 1_555
Na12 O52 2.835083 1_655
Na13 O82 2.406706 1_545
Na13 O112 2.489221 1_555
Na13 O110 2.505663 1_555
Na13 O79 2.593511 1_555
Na13 O10 2.654593 1_555
Na13 O68 2.739815 1_545
Na13 O40 2.822425 1_556
Na13 O48 2.940126 1_545
Na14 O114 2.441057 1_555
Na14 O77 2.476899 1_555
Na14 O118 2.503488 1_555
Na14 O61 2.625393 1_555
Na14 O46 2.681449 1_555
Na14 O74 2.690931 1_545
Na14 O57 2.847080 1_555
Na14 O4 2.850095 1_555
Na15 O76 2.468651 1_655
Na15 O115 2.475789 1_555
Na15 O119 2.516289 1_555
Na15 O60 2.588662 1_655
Na15 O75 2.709998 1_545
Na15 O47 2.769068 1_555
Na15 O56 2.829765 1_655
Na15 O5 2.835211 1_555
Na16 O118 2.492843 1_555
Na16 O116 2.497468 1_555
Na16 O74 2.502424 1_555
Na16 O64 2.555216 1_555
Na16 O73 2.640094 1_555
Na16 O44 2.756819 1_555
Na16 O2 2.796059 1_555
Na16 O54 2.847631 1_555
Na17 O119 2.482937 1_555
Na17 O75 2.488875 1_555
Na17 O117 2.512909 1_555
Na17 O65 2.574168 1_555
Na17 O72 2.613804 1_655
Na17 O3 2.785548 1_555
Na17 O45 2.804123 1_555
Na17 O55 2.881551 1_555
Na18 O86 2.328149 1_555
Na18 O85 2.489490 1_455
Na18 O89 2.523089 1_445
Na18 O76 2.628571 1_555
Na18 O72 2.684347 1_545
Na18 O75 2.803827 1_445
Na19 O87 2.446947 1_565
Na19 O84 2.522261 1_565
Na19 O88 2.586962 1_555
Na19 O73 2.634585 1_555
Na19 O77 2.678491 1_565
Na19 O74 2.762072 1_555
Na20 O94 2.364523 1_555
Na20 O91 2.484921 1_445
Na20 O93 2.500438 1_455
Na20 O80 2.631598 1_544
Na20 O78 2.667312 1_554
Na20 O83 2.786853 1_444
Na21 O90 2.535361 1_556
Na21 O92 2.538667 1_566
Na21 O95 2.539183 1_566
Na21 O81 2.552509 1_555
Na21 O82 2.555014 1_555
Na21 O79 2.599736 1_565
Na22 O100 2.513859 1_555
Na22 O108 2.545224 1_555
Na22 O110 2.587217 1_555
Na22 O98 2.612310 1_555
Na22 O96 2.673889 1_555
Na22 O112 2.747334 1_555
Na23 O97 2.480540 1_555
Na23 O101 2.569183 1_555
Na23 O113 2.577553 1_555
Na23 O109 2.608776 1_555
Na23 O111 2.610908 1_555
Na23 O99 2.685945 1_555
Na24 O102 2.498201 1_555
Na24 O106 2.570445 1_555
Na24 O104 2.572531 1_555
Na24 O114 2.645651 1_555
Na24 O116 2.651135 1_555
Na24 O118 2.667501 1_555
Na25 O103 2.510411 1_555
Na25 O107 2.575232 1_555
Na25 O105 2.581794 1_555
Na25 O117 2.642335 1_555
Na25 O115 2.673476 1_555
Na25 O119 2.674945 1_555
Na26 O136 2.349866 1_555
Na26 O134 2.443263 1_555
Na26 O132 2.656057 1_555
Na26 O120 2.666582 1_555
Na26 O122 2.690312 1_555
Na26 O124 2.769521 1_555
Na27 O137 2.297001 1_555
Na27 O135 2.379449 1_555
Na27 O121 2.651084 1_555
Na27 O133 2.668510 1_555
Na27 O123 2.726891 1_555
Na27 O125 2.827110 1_555
Na28 O142 2.377462 1_555
Na28 O140 2.537605 1_555
Na28 O138 2.623523 1_555
Na28 O128 2.634352 1_555
Na28 O130 2.664011 1_555
Na28 O126 2.680367 1_555
Na29 O131 2.416167 1_555
Na29 O129 2.562264 1_555
Na29 O139 2.576058 1_555
Na29 O127 2.609012 1_555
Na29 O141 2.636606 1_555
Na29 O143 2.804217 1_555
In0 O16 2.076468 1_655
In0 O85 2.126522 1_565
In0 O13 2.127034 1_555
In0 O86 2.161291 1_665
In0 O89 2.181725 1_555
In0 O14 2.187566 1_665
In1 O20 2.079751 1_555
In1 O19 2.081174 1_445
In1 O94 2.136587 1_555
In1 O91 2.155042 1_445
In1 O22 2.174462 1_545
In1 O93 2.210305 1_455
In2 O18 2.055004 1_545
In2 O21 2.057291 1_555
In2 O92 2.170553 1_555
In2 O95 2.181567 1_555
In2 O90 2.184284 1_545
In2 O23 2.230020 1_545
In3 O64 2.081099 1_555
In3 O60 2.085903 1_555
In3 O136 2.112103 1_555
In3 O62 2.144853 1_555
In3 O134 2.152319 1_555
In3 O132 2.365488 1_555
In4 O65 2.073995 1_555
In4 O61 2.081412 1_555
In4 O137 2.102260 1_555
In4 O63 2.128596 1_555
In4 O135 2.156125 1_555
In4 O133 2.382273 1_555
In5 O70 2.051474 1_555
In5 O66 2.099718 1_555
In5 O68 2.124177 1_555
In5 O140 2.135955 1_555
In5 O142 2.191161 1_555
In5 O138 2.283734 1_555
O0 S0 1.497748 1_555
O0 Ta0 2.153710 1_445
O1 S1 1.492565 1_555
O1 Ta1 2.172516 1_545
O2 Si0 1.697675 1_555
O2 Ta1 1.942337 1_555
O3 Si1 1.691294 1_555
O3 Ta0 1.949453 1_555
O4 Si3 1.700636 1_555
O4 Ta1 1.956707 1_545
O5 Si2 1.701529 1_655
O5 Ta0 1.965732 1_545
O6 S2 1.506746 1_555
O6 Ta2 2.171216 1_445
O7 Si4 1.643133 1_555
O7 Ta3 1.984353 1_545
O8 Si6 1.644165 1_555
O8 Ta3 1.944226 1_555
O9 Si5 1.691016 1_655
O9 Ta2 1.993978 1_555
O10 Si7 1.662827 1_545
O10 Ta3 1.982332 1_545
O11 Si8 1.657481 1_555
O11 Ta2 1.935125 1_545
O12 Si7 1.646857 1_555
O12 Ta4 1.918759 1_565
O13 Si8 1.609101 1_565
O14 S2 1.481993 1_555
O15 Si4 1.622750 1_555
O15 Ta4 1.981124 1_555
O16 Si5 1.616758 1_555
O17 Si6 1.634935 1_555
O17 Ta4 2.000037 1_565
O18 Si0 1.617197 1_555
O19 Si1 1.613231 1_555
O20 Si2 1.608948 1_555
O21 Si3 1.615263 1_555
O22 S0 1.470831 1_565
O23 S1 1.479610 1_565
O24 Si9 1.659970 1_555
O24 Ta5 1.882273 1_555
O25 Si10 1.672319 1_555
O25 Ta6 1.928805 1_555
O26 Si11 1.656964 1_555
O26 Ta5 1.974874 1_555
O27 Si12 1.659280 1_555
O27 Ta6 2.000080 1_555
O28 Si13 1.647902 1_555
O28 Ta5 1.947084 1_555
O29 Si14 1.659822 1_555
O29 Ta6 1.969117 1_555
O30 Si15 1.666033 1_555
O30 Ta7 1.910116 1_555
O31 Si16 1.688054 1_555
O31 Ta8 1.889847 1_555
O32 Si17 1.657965 1_555
O32 Ta7 1.998508 1_555
O33 Si18 1.654718 1_555
O33 Ta8 2.028988 1_555
O34 Si19 1.660832 1_555
O34 Ta7 1.951375 1_555
O35 Si20 1.650292 1_555
O35 Ta8 1.974742 1_555
O36 Si19 1.632013 1_555
O36 Ta9 1.914058 1_554
O37 Si20 1.637108 1_555
O37 Ta10 1.951014 1_554
O38 Si15 1.619674 1_555
O38 Ta9 1.964985 1_554
O39 Si16 1.643844 1_555
O39 Ta10 2.003335 1_554
O40 Si17 1.637610 1_555
O40 Ta9 1.988815 1_554
O41 Si18 1.638822 1_555
O41 Ta10 1.925506 1_554
O42 Si11 1.640107 1_555
O42 Ta11 1.894854 1_555
O43 Si12 1.637296 1_555
O43 Ta12 1.922003 1_555
O44 Si13 1.644896 1_555
O44 Ta11 1.968435 1_555
O45 Si14 1.636115 1_555
O45 Ta12 1.949888 1_555
O46 Si9 1.629127 1_555
O46 Ta11 1.983431 1_555
O47 Si10 1.647586 1_555
O47 Ta12 1.970166 1_555
O48 Si21 1.677603 1_555
O48 Ta13 1.963507 1_556
O49 Si22 1.648022 1_555
O49 Ta14 1.957168 1_556
O50 Si23 1.660957 1_555
O50 Ta13 1.974184 1_556
O51 Si24 1.658515 1_555
O51 Ta14 1.947330 1_556
O52 Si25 1.671757 1_555
O52 Ta13 1.960725 1_556
O53 Si26 1.663075 1_555
O53 Ta14 1.950262 1_556
O54 Si27 1.651991 1_555
O54 Ta15 1.974131 1_555
O55 Si28 1.653149 1_555
O55 Ta16 2.027932 1_555
O56 Si29 1.662362 1_555
O56 Ta15 1.991802 1_555
O57 Si30 1.665776 1_555
O57 Ta16 1.971167 1_555
O58 Si31 1.651932 1_555
O58 Ta15 2.009229 1_555
O59 Si32 1.658168 1_555
O59 Ta16 1.932188 1_555
O60 Si31 1.595785 1_555
O61 Si32 1.592822 1_555
O62 Si27 1.592538 1_555
O63 Si28 1.593565 1_555
O64 Si29 1.599720 1_555
O65 Si30 1.596836 1_555
O66 Si23 1.593800 1_555
O67 Si24 1.643221 1_555
O67 Ta17 1.916565 1_555
O68 Si25 1.604017 1_555
O69 Si26 1.641673 1_555
O69 Ta17 1.967679 1_555
O70 Si21 1.581762 1_555
O71 Si22 1.630876 1_555
O71 Ta17 1.996698 1_555
O72 Si31 1.660481 1_555
O72 Ta0 2.009212 1_455
O73 Si32 1.654824 1_555
O73 Ta1 2.011095 1_555
O74 Si27 1.704166 1_555
O74 Ta1 1.957041 1_555
O75 Si28 1.697578 1_555
O75 Ta0 1.967198 1_555
O76 Si29 1.654889 1_555
O76 Ta0 2.026353 1_445
O77 Si30 1.649590 1_555
O77 Ta1 2.032958 1_545
O78 Si23 1.650282 1_555
O78 Ta2 1.965086 1_445
O79 Si24 1.632269 1_555
O79 Ta3 2.048664 1_545
O80 Si25 1.651749 1_555
O80 Ta2 2.035427 1_455
O81 Si26 1.627734 1_555
O81 Ta3 2.022261 1_555
O82 Si21 1.663193 1_555
O82 Ta3 2.025827 1_555
O83 Si22 1.661511 1_555
O83 Ta2 1.951488 1_555
O84 Si9 1.627006 1_555
O84 Ta4 2.017441 1_555
O85 Si10 1.604307 1_555
O86 Si11 1.610933 1_555
O87 Si12 1.617147 1_555
O87 Ta4 2.041670 1_555
O88 Si13 1.637118 1_555
O88 Ta4 2.004437 1_565
O89 Si14 1.618495 1_555
O90 Si15 1.610168 1_555
O91 Si16 1.600768 1_555
O92 Si17 1.632428 1_555
O93 Si18 1.606898 1_555
O94 Si19 1.602673 1_555
O95 Si20 1.613787 1_555
O96 Si7 1.680042 1_545
O96 Ta5 2.012724 1_555
O97 Si8 1.645033 1_555
O97 Ta6 2.040450 1_555
O98 S2 1.510639 1_555
O98 Ta5 2.301964 1_555
O99 Si4 1.658632 1_555
O99 Ta6 2.069238 1_555
O100 Si6 1.634143 1_555
O100 Ta5 2.007835 1_555
O101 Si5 1.675546 1_655
O101 Ta6 2.011459 1_555
O102 Si0 1.660051 1_555
O102 Ta7 1.975310 1_555
O103 Si1 1.667419 1_555
O103 Ta8 1.959992 1_555
O104 Si3 1.686021 1_555
O104 Ta7 2.022784 1_555
O105 Si2 1.702138 1_655
O105 Ta8 2.000233 1_555
O106 S0 1.505287 1_555
O106 Ta7 2.248217 1_555
O107 S1 1.500998 1_555
O107 Ta8 2.267106 1_555
O108 Si21 1.637248 1_555
O108 Ta9 1.951957 1_555
O109 Si22 1.636778 1_555
O109 Ta10 2.068476 1_555
O110 Si24 1.631557 1_555
O110 Ta9 2.071318 1_555
O111 Si23 1.662497 1_655
O111 Ta10 1.982359 1_555
O112 Si25 1.635560 1_545
O112 Ta9 1.986147 1_555
O113 Si26 1.639806 1_545
O113 Ta10 1.993391 1_555
O114 Si27 1.638962 1_545
O114 Ta11 2.033942 1_555
O115 Si28 1.641687 1_545
O115 Ta12 2.014922 1_555
O116 Si29 1.642587 1_555
O116 Ta11 1.979543 1_555
O117 Si30 1.639299 1_555
O117 Ta12 1.972968 1_555
O118 Si32 1.656310 1_555
O118 Ta11 2.049617 1_555
O119 Si31 1.671259 1_655
O119 Ta12 2.047020 1_555
O120 Si19 1.662673 1_555
O120 Ta13 2.071246 1_555
O121 Si20 1.653429 1_555
O121 Ta14 2.052521 1_555
O122 Si16 1.634704 1_455
O122 Ta13 2.039205 1_555
O123 Si15 1.647170 1_555
O123 Ta14 2.042233 1_555
O124 Si17 1.647163 1_565
O124 Ta13 2.011530 1_555
O125 Si18 1.657500 1_565
O125 Ta14 2.039346 1_555
O126 Si11 1.653453 1_565
O126 Ta15 2.011415 1_555
O127 Si12 1.649372 1_565
O127 Ta16 2.053307 1_555
O128 Si13 1.642626 1_555
O128 Ta15 1.988938 1_555
O129 Si14 1.637525 1_555
O129 Ta16 2.047015 1_555
O130 Si10 1.633624 1_455
O130 Ta15 2.053148 1_555
O131 Si9 1.637845 1_555
O131 Ta16 1.990936 1_555
O132 S0 1.463799 1_565
O133 S1 1.469030 1_565
O134 Si0 1.610252 1_555
O135 Si1 1.614115 1_555
O136 Si2 1.593414 1_555
O137 Si3 1.593376 1_555
O138 S2 1.444524 1_555
O139 Si4 1.649418 1_555
O139 Ta17 2.032524 1_555
O140 Si5 1.601385 1_555
O141 Si6 1.666878 1_555
O141 Ta17 2.018472 1_555
O142 Si7 1.609124 1_555
O143 Si8 1.662198 1_565
O143 Ta17 2.039109 1_555
