# generated using pymatgen
data_AgH5S2O9
_symmetry_space_group_name_H-M   'P 1'
_cell_length_a   13.30717500
_cell_length_b   7.41014600
_cell_length_c   8.28320700
_cell_angle_alpha   72.27705275
_cell_angle_beta   90.00000000
_cell_angle_gamma   90.00000000
_symmetry_Int_Tables_number   1
_chemical_formula_structural   AgH5S2O9
_chemical_formula_sum   'Ag4 H20 S8 O36'
_cell_volume   778.02616920
_cell_formula_units_Z   4
loop_
 _symmetry_equiv_pos_site_id
 _symmetry_equiv_pos_as_xyz
  1  'x, y, z'
loop_
 _atom_site_type_symbol
 _atom_site_label
 _atom_site_symmetry_multiplicity
 _atom_site_fract_x
 _atom_site_fract_y
 _atom_site_fract_z
 _atom_site_occupancy
  Ag  Ag0  1  0.03842900  0.89662700  0.27847500  1
  Ag  Ag1  1  0.53842900  0.10337300  0.22152500  1
  Ag  Ag2  1  0.96157100  0.10337300  0.72152500  1
  Ag  Ag3  1  0.46157100  0.89662700  0.77847500  1
  H  H0  1  0.77249400  0.31252000  0.45484800  1
  H  H1  1  0.27249400  0.68748000  0.04515200  1
  H  H2  1  0.22750600  0.68748000  0.54515200  1
  H  H3  1  0.72750600  0.31252000  0.95484800  1
  H  H4  1  0.70138200  0.45435300  0.29545500  1
  H  H5  1  0.20138200  0.54564700  0.20454500  1
  H  H6  1  0.29861800  0.54564700  0.70454500  1
  H  H7  1  0.79861800  0.45435300  0.79545500  1
  H  H8  1  0.82861800  0.46619000  0.28290100  1
  H  H9  1  0.32861800  0.53381000  0.21709900  1
  H  H10  1  0.17138200  0.53381000  0.71709900  1
  H  H11  1  0.67138200  0.46619000  0.78290100  1
  H  H12  1  0.77882100  0.85903700  0.45433100  1
  H  H13  1  0.27882100  0.14096300  0.04566900  1
  H  H14  1  0.22117900  0.14096300  0.54566900  1
  H  H15  1  0.72117900  0.85903700  0.95433100  1
  H  H16  1  0.06795000  0.36477300  0.02291100  1
  H  H17  1  0.56795000  0.63522700  0.47708900  1
  H  H18  1  0.93205000  0.63522700  0.97708900  1
  H  H19  1  0.43205000  0.36477300  0.52291100  1
  S  S0  1  0.69461400  0.99365400  0.61157900  1
  S  S1  1  0.19461400  0.00634600  0.88842100  1
  S  S2  1  0.30538600  0.00634600  0.38842100  1
  S  S3  1  0.80538600  0.99365400  0.11157900  1
  S  S4  1  0.01957000  0.39627100  0.26508500  1
  S  S5  1  0.51957000  0.60372900  0.23491500  1
  S  S6  1  0.98043000  0.60372900  0.73491500  1
  S  S7  1  0.48043000  0.39627100  0.76508500  1
  O  O0  1  0.76769800  0.44180400  0.36079100  1
  O  O1  1  0.26769800  0.55819600  0.13920900  1
  O  O2  1  0.23230200  0.55819600  0.63920900  1
  O  O3  1  0.73230200  0.44180400  0.86079100  1
  O  O4  1  0.74181500  0.81945300  0.56801100  1
  O  O5  1  0.24181500  0.18054700  0.93198900  1
  O  O6  1  0.25818500  0.18054700  0.43198900  1
  O  O7  1  0.75818500  0.81945300  0.06801100  1
  O  O8  1  0.77708700  0.13216100  0.60321900  1
  O  O9  1  0.27708700  0.86783900  0.89678100  1
  O  O10  1  0.22291300  0.86783900  0.39678100  1
  O  O11  1  0.72291300  0.13216100  0.10321900  1
  O  O12  1  0.61404700  0.07578200  0.49250500  1
  O  O13  1  0.11404700  0.92421800  0.00749500  1
  O  O14  1  0.38595300  0.92421800  0.50749500  1
  O  O15  1  0.88595300  0.07578200  0.99250500  1
  O  O16  1  0.65638500  0.91043300  0.78564800  1
  O  O17  1  0.15638500  0.08956700  0.71435200  1
  O  O18  1  0.34361500  0.08956700  0.21435200  1
  O  O19  1  0.84361500  0.91043300  0.28564800  1
  O  O20  1  0.06645700  0.28534000  0.14707400  1
  O  O21  1  0.56645700  0.71466000  0.35292600  1
  O  O22  1  0.93354300  0.71466000  0.85292600  1
  O  O23  1  0.43354300  0.28534000  0.64707400  1
  O  O24  1  0.09559600  0.53170100  0.28658800  1
  O  O25  1  0.59559600  0.46829900  0.21341200  1
  O  O26  1  0.90440400  0.46829900  0.71341200  1
  O  O27  1  0.40440400  0.53170100  0.78658800  1
  O  O28  1  0.92963600  0.50001800  0.17342200  1
  O  O29  1  0.42963600  0.49998200  0.32657800  1
  O  O30  1  0.07036400  0.49998200  0.82657800  1
  O  O31  1  0.57036400  0.50001800  0.67342200  1
  O  O32  1  0.99223400  0.24911900  0.41847100  1
  O  O33  1  0.49223400  0.75088100  0.08152900  1
  O  O34  1  0.00776600  0.75088100  0.58152900  1
  O  O35  1  0.50776600  0.24911900  0.91847100  1
loop_
_geom_bond_atom_site_label_1
_geom_bond_atom_site_label_2
_geom_bond_distance
_geom_bond_site_symmetry_2
Ag0 O13 2.411041 1_555
Ag0 O34 2.446162 1_555
Ag0 O19 2.595835 1_455
Ag0 O10 2.627808 1_555
Ag0 O20 2.777021 1_565
Ag0 O24 2.790169 1_555
Ag1 O12 2.411041 1_555
Ag1 O35 2.446162 1_554
Ag1 O18 2.595835 1_555
Ag1 O11 2.627808 1_555
Ag1 O21 2.777021 1_545
Ag1 O25 2.790169 1_555
Ag2 O15 2.411041 1_555
Ag2 O32 2.446162 1_555
Ag2 O17 2.595835 1_655
Ag2 O8 2.627808 1_555
Ag2 O22 2.777021 1_545
Ag2 O26 2.790169 1_555
Ag3 O14 2.411041 1_555
Ag3 O33 2.446162 1_556
Ag3 O16 2.595835 1_555
Ag3 O9 2.627808 1_555
Ag3 O23 2.777021 1_565
Ag3 O27 2.790169 1_555
H0 O0 1.036547 1_555
H0 O8 1.516682 1_555
H1 O1 1.036547 1_555
H1 O9 1.516682 1_554
H2 O2 1.036547 1_555
H2 O10 1.516682 1_555
H3 O3 1.036547 1_555
H3 O11 1.516682 1_556
H4 O0 1.024531 1_555
H4 O25 1.552870 1_555
H5 O1 1.024531 1_555
H5 O24 1.552870 1_555
H6 O2 1.024531 1_555
H6 O27 1.552870 1_555
H7 O3 1.024531 1_555
H7 O26 1.552870 1_555
H8 O0 1.017408 1_555
H8 O28 1.598073 1_555
H9 O1 1.017408 1_555
H9 O29 1.598073 1_555
H10 O2 1.017408 1_555
H10 O30 1.598073 1_555
H11 O3 1.017408 1_555
H11 O31 1.598073 1_555
H12 O4 1.023258 1_555
H12 O19 1.586432 1_555
H13 O5 1.023258 1_554
H13 O18 1.586432 1_555
H14 O6 1.023258 1_555
H14 O17 1.586432 1_555
H15 O7 1.023258 1_556
H15 O16 1.586432 1_555
H16 O20 1.017859 1_555
H16 O30 1.630214 1_554
H17 O21 1.017859 1_555
H17 O31 1.630214 1_555
H18 O22 1.017859 1_555
H18 O28 1.630214 1_556
H19 O23 1.017859 1_555
H19 O29 1.630214 1_555
O4 S0 1.573114 1_555
O5 S1 1.573114 1_555
O6 S2 1.573114 1_555
O7 S3 1.573114 1_555
O8 S0 1.489765 1_545
O9 S1 1.489765 1_565
O10 S2 1.489765 1_565
O11 S3 1.489765 1_545
O12 S0 1.458484 1_545
O13 S1 1.458484 1_564
O14 S2 1.458484 1_565
O15 S3 1.458484 1_546
O16 S0 1.475356 1_555
O17 S1 1.475356 1_555
O18 S2 1.475356 1_555
O19 S3 1.475356 1_555
O20 S4 1.584215 1_555
O21 S5 1.584215 1_555
O22 S6 1.584215 1_555
O23 S7 1.584215 1_555
O24 S4 1.473498 1_555
O25 S5 1.473498 1_555
O26 S6 1.473498 1_555
O27 S7 1.473498 1_555
O28 S4 1.498125 1_655
O29 S5 1.498125 1_555
O30 S6 1.498125 1_455
O31 S7 1.498125 1_555
O32 S4 1.446410 1_655
O33 S5 1.446410 1_555
O34 S6 1.446410 1_455
O35 S7 1.446410 1_555
