# generated using pymatgen
data_Sr5P3BrO12
_symmetry_space_group_name_H-M   'P 1'
_cell_length_a   10.12349042
_cell_length_b   10.12349042
_cell_length_c   7.26310300
_cell_angle_alpha   90.00000000
_cell_angle_beta   90.00000000
_cell_angle_gamma   120.00000275
_symmetry_Int_Tables_number   1
_chemical_formula_structural   Sr5P3BrO12
_chemical_formula_sum   'Sr10 P6 Br2 O24'
_cell_volume   644.63424841
_cell_formula_units_Z   2
loop_
 _symmetry_equiv_pos_site_id
 _symmetry_equiv_pos_as_xyz
  1  'x, y, z'
loop_
 _atom_site_type_symbol
 _atom_site_label
 _atom_site_symmetry_multiplicity
 _atom_site_fract_x
 _atom_site_fract_y
 _atom_site_fract_z
 _atom_site_occupancy
  Sr  Sr0  1  0.99728900  0.73857700  0.75000000  1
  Sr  Sr1  1  0.25871200  0.99728900  0.25000000  1
  Sr  Sr2  1  0.73857700  0.74128800  0.25000000  1
  Sr  Sr3  1  0.26142300  0.25871200  0.75000000  1
  Sr  Sr4  1  0.74128800  0.00271100  0.75000000  1
  Sr  Sr5  1  0.00271100  0.26142300  0.25000000  1
  Sr  Sr6  1  0.33333300  0.66666700  0.49863000  1
  Sr  Sr7  1  0.66666700  0.33333300  0.99863000  1
  Sr  Sr8  1  0.66666700  0.33333300  0.50137000  1
  Sr  Sr9  1  0.33333300  0.66666700  0.00137000  1
  P  P0  1  0.40814700  0.37284300  0.25000000  1
  P  P1  1  0.03530400  0.40814700  0.75000000  1
  P  P2  1  0.59185300  0.62715700  0.75000000  1
  P  P3  1  0.96469600  0.59185300  0.25000000  1
  P  P4  1  0.62715700  0.03530400  0.25000000  1
  P  P5  1  0.37284300  0.96469600  0.75000000  1
  Br  Br0  1  0.00000000  0.00000000  0.50000000  1
  Br  Br1  1  0.00000000  0.00000000  0.00000000  1
  O  O0  1  0.35767200  0.26914900  0.42379500  1
  O  O1  1  0.08852300  0.35767200  0.92379500  1
  O  O2  1  0.26914900  0.91147700  0.92379500  1
  O  O3  1  0.73085100  0.08852300  0.42379500  1
  O  O4  1  0.91147700  0.64232800  0.42379500  1
  O  O5  1  0.64232800  0.73085100  0.92379500  1
  O  O6  1  0.64232800  0.73085100  0.57620500  1
  O  O7  1  0.91147700  0.64232800  0.07620500  1
  O  O8  1  0.73085100  0.08852300  0.07620500  1
  O  O9  1  0.26914900  0.91147700  0.57620500  1
  O  O10  1  0.08852300  0.35767200  0.57620500  1
  O  O11  1  0.35767200  0.26914900  0.07620500  1
  O  O12  1  0.41305200  0.53610700  0.75000000  1
  O  O13  1  0.87694500  0.41305200  0.25000000  1
  O  O14  1  0.53610700  0.12305500  0.25000000  1
  O  O15  1  0.46389300  0.87694500  0.75000000  1
  O  O16  1  0.12305500  0.58694800  0.75000000  1
  O  O17  1  0.58694800  0.46389300  0.25000000  1
  O  O18  1  0.34258000  0.48326100  0.25000000  1
  O  O19  1  0.85932000  0.34258000  0.75000000  1
  O  O20  1  0.48326100  0.14068000  0.75000000  1
  O  O21  1  0.51673900  0.85932000  0.25000000  1
  O  O22  1  0.14068000  0.65742000  0.25000000  1
  O  O23  1  0.65742000  0.51673900  0.75000000  1
loop_
_geom_bond_atom_site_label_1
_geom_bond_atom_site_label_2
_geom_bond_distance
_geom_bond_site_symmetry_2
Br0 Sr3 3.198311 1_555
Br0 Sr2 3.198311 1_445
Br0 Sr0 3.198311 1_445
Br0 Sr5 3.198311 1_555
Br0 Sr1 3.198311 1_545
Br0 Sr4 3.198311 1_455
Br1 Sr3 3.198311 1_554
Br1 Sr2 3.198311 1_445
Br1 Sr0 3.198311 1_444
Br1 Sr5 3.198311 1_555
Br1 Sr1 3.198311 1_545
Br1 Sr4 3.198311 1_454
O0 P0 1.555649 1_555
O0 Sr3 2.543819 1_555
O0 Sr1 2.722920 1_545
O0 Sr8 2.914134 1_555
O1 P1 1.555649 1_555
O1 Sr5 2.543819 1_556
O1 Sr3 2.722920 1_555
O1 Sr9 2.914131 1_556
O2 P5 1.555649 1_555
O2 Sr1 2.543819 1_556
O2 Sr0 2.722920 1_455
O2 Sr9 2.914124 1_556
O3 P4 1.555649 1_555
O3 Sr4 2.543819 1_555
O3 Sr5 2.722920 1_655
O3 Sr8 2.914124 1_555
O4 P3 1.555649 1_555
O4 Sr0 2.543819 1_555
O4 Sr2 2.722920 1_555
O4 Sr8 2.914131 1_555
O5 P2 1.555649 1_555
O5 Sr2 2.543819 1_556
O5 Sr4 2.722920 1_565
O5 Sr9 2.914134 1_556
O6 P2 1.555649 1_555
O6 Sr2 2.543819 1_555
O6 Sr4 2.722920 1_565
O6 Sr6 2.914134 1_555
O7 P3 1.555649 1_555
O7 Sr0 2.543819 1_554
O7 Sr2 2.722920 1_555
O7 Sr7 2.914131 1_554
O8 P4 1.555649 1_555
O8 Sr4 2.543819 1_554
O8 Sr5 2.722920 1_655
O8 Sr7 2.914124 1_554
O9 P5 1.555649 1_555
O9 Sr1 2.543819 1_555
O9 Sr0 2.722920 1_455
O9 Sr6 2.914124 1_555
O10 P1 1.555649 1_555
O10 Sr5 2.543819 1_555
O10 Sr3 2.722920 1_555
O10 Sr6 2.914131 1_555
O11 P0 1.555649 1_555
O11 Sr3 2.543819 1_554
O11 Sr1 2.722920 1_545
O11 Sr7 2.914134 1_554
O12 P2 1.567673 1_555
O12 Sr3 2.435498 1_555
O12 Sr6 2.607337 1_555
O12 Sr9 2.607337 1_556
O13 P3 1.567673 1_555
O13 Sr5 2.435498 1_655
O13 Sr8 2.607331 1_555
O13 Sr7 2.607331 1_554
O14 P4 1.567673 1_555
O14 Sr1 2.435498 1_545
O14 Sr7 2.607332 1_554
O14 Sr8 2.607332 1_555
O15 P5 1.567673 1_555
O15 Sr4 2.435498 1_565
O15 Sr6 2.607332 1_555
O15 Sr9 2.607332 1_556
O16 P1 1.567673 1_555
O16 Sr0 2.435498 1_455
O16 Sr6 2.607331 1_555
O16 Sr9 2.607331 1_556
O17 P0 1.567673 1_555
O17 Sr2 2.435498 1_555
O17 Sr7 2.607337 1_554
O17 Sr8 2.607337 1_555
O18 P0 1.559509 1_555
O18 Sr6 2.625061 1_555
O18 Sr9 2.625061 1_555
O18 Sr5 3.025674 1_555
O19 P1 1.559499 1_655
O19 Sr8 2.625061 1_555
O19 Sr7 2.625061 1_555
O19 Sr4 3.025672 1_555
O20 P5 1.559501 1_545
O20 Sr7 2.625061 1_555
O20 Sr8 2.625061 1_555
O20 Sr3 3.025681 1_555
O21 P4 1.559501 1_565
O21 Sr9 2.625061 1_555
O21 Sr6 2.625061 1_555
O21 Sr2 3.025681 1_555
O22 P3 1.559499 1_455
O22 Sr9 2.625061 1_555
O22 Sr6 2.625061 1_555
O22 Sr1 3.025672 1_555
O23 P2 1.559509 1_555
O23 Sr8 2.625061 1_555
O23 Sr7 2.625061 1_555
O23 Sr0 3.025674 1_555
