# generated using pymatgen
data_BaBrCl
_symmetry_space_group_name_H-M   'P 1'
_cell_length_a   5.06240900
_cell_length_b   8.14812600
_cell_length_c   10.28632700
_cell_angle_alpha   90.00000000
_cell_angle_beta   90.00000000
_cell_angle_gamma   90.00000000
_symmetry_Int_Tables_number   1
_chemical_formula_structural   BaBrCl
_chemical_formula_sum   'Ba4 Br4 Cl4'
_cell_volume   424.30220830
_cell_formula_units_Z   4
loop_
 _symmetry_equiv_pos_site_id
 _symmetry_equiv_pos_as_xyz
  1  'x, y, z'
loop_
 _atom_site_type_symbol
 _atom_site_label
 _atom_site_symmetry_multiplicity
 _atom_site_fract_x
 _atom_site_fract_y
 _atom_site_fract_z
 _atom_site_occupancy
  Ba  Ba0  1  0.25000000  0.22826000  0.90674300  1
  Ba  Ba1  1  0.75000000  0.77174000  0.09325700  1
  Ba  Ba2  1  0.25000000  0.72826000  0.59325700  1
  Ba  Ba3  1  0.75000000  0.27174000  0.40674300  1
  Br  Br0  1  0.75000000  0.36152100  0.09199300  1
  Br  Br1  1  0.25000000  0.63847900  0.90800700  1
  Br  Br2  1  0.75000000  0.86152100  0.40800700  1
  Br  Br3  1  0.25000000  0.13847900  0.59199300  1
  Cl  Cl0  1  0.25000000  0.99691400  0.14754300  1
  Cl  Cl1  1  0.75000000  0.00308600  0.85245700  1
  Cl  Cl2  1  0.25000000  0.49691400  0.35245700  1
  Cl  Cl3  1  0.75000000  0.50308600  0.64754300  1
loop_
_geom_bond_atom_site_label_1
_geom_bond_atom_site_label_2
_geom_bond_distance
_geom_bond_site_symmetry_2
Ba0 Cl0 3.112657 1_546
Ba0 Cl1 3.175705 1_455
Ba0 Cl1 3.175705 1_555
Ba0 Br3 3.319240 1_555
Ba0 Br1 3.342541 1_555
Ba0 Br0 3.349195 1_456
Ba0 Br0 3.349195 1_556
Ba1 Cl1 3.112657 1_564
Ba1 Cl0 3.175705 1_555
Ba1 Cl0 3.175705 1_655
Ba1 Br2 3.319240 1_555
Ba1 Br0 3.342541 1_555
Ba1 Br1 3.349195 1_654
Ba1 Br1 3.349195 1_554
Ba2 Cl2 3.112657 1_555
Ba2 Cl3 3.175705 1_455
Ba2 Cl3 3.175705 1_555
Ba2 Br1 3.319240 1_555
Ba2 Br3 3.342541 1_565
Ba2 Br2 3.349195 1_455
Ba2 Br2 3.349195 1_555
Ba3 Cl3 3.112657 1_555
Ba3 Cl2 3.175705 1_555
Ba3 Cl2 3.175705 1_655
Ba3 Br0 3.319240 1_555
Ba3 Br2 3.342541 1_545
Ba3 Br3 3.349195 1_555
Ba3 Br3 3.349195 1_655
