# generated using pymatgen
data_P3Pb5O12F
_symmetry_space_group_name_H-M   'P 1'
_cell_length_a   10.02957324
_cell_length_b   10.02957324
_cell_length_c   7.48452100
_cell_angle_alpha   90.00000000
_cell_angle_beta   90.00000000
_cell_angle_gamma   119.99999501
_symmetry_Int_Tables_number   1
_chemical_formula_structural   P3Pb5O12F
_chemical_formula_sum   'P6 Pb10 O24 F2'
_cell_volume   652.01798206
_cell_formula_units_Z   2
loop_
 _symmetry_equiv_pos_site_id
 _symmetry_equiv_pos_as_xyz
  1  'x, y, z'
loop_
 _atom_site_type_symbol
 _atom_site_label
 _atom_site_symmetry_multiplicity
 _atom_site_fract_x
 _atom_site_fract_y
 _atom_site_fract_z
 _atom_site_occupancy
  P  P0  1  0.62904500  0.02997500  0.25000000  1
  P  P1  1  0.97002500  0.59907100  0.25000000  1
  P  P2  1  0.37095500  0.97002500  0.75000000  1
  P  P3  1  0.02997500  0.40092900  0.75000000  1
  P  P4  1  0.40092900  0.37095500  0.25000000  1
  P  P5  1  0.59907100  0.62904500  0.75000000  1
  Pb  Pb0  1  0.66666700  0.33333300  0.50232800  1
  Pb  Pb1  1  0.66666700  0.33333300  0.99767200  1
  Pb  Pb2  1  0.99538200  0.24562200  0.25000000  1
  Pb  Pb3  1  0.75437800  0.74976100  0.25000000  1
  Pb  Pb4  1  0.33333300  0.66666700  0.00232800  1
  Pb  Pb5  1  0.25023900  0.00461800  0.25000000  1
  Pb  Pb6  1  0.24562200  0.25023900  0.75000000  1
  Pb  Pb7  1  0.74976100  0.99538200  0.75000000  1
  Pb  Pb8  1  0.00461800  0.75437800  0.75000000  1
  Pb  Pb9  1  0.33333300  0.66666700  0.49767200  1
  O  O0  1  0.58210300  0.46356500  0.25000000  1
  O  O1  1  0.41789700  0.53643500  0.75000000  1
  O  O2  1  0.08341300  0.34697400  0.58239700  1
  O  O3  1  0.91658700  0.65302600  0.08239700  1
  O  O4  1  0.26356100  0.91658700  0.58239700  1
  O  O5  1  0.73643900  0.08341300  0.41760300  1
  O  O6  1  0.65302600  0.73643900  0.91760300  1
  O  O7  1  0.66299700  0.51665000  0.75000000  1
  O  O8  1  0.48335000  0.14634700  0.75000000  1
  O  O9  1  0.53643500  0.11853800  0.25000000  1
  O  O10  1  0.33700300  0.48335000  0.25000000  1
  O  O11  1  0.51665000  0.85365300  0.25000000  1
  O  O12  1  0.34697400  0.26356100  0.41760300  1
  O  O13  1  0.88146200  0.41789700  0.25000000  1
  O  O14  1  0.65302600  0.73643900  0.58239700  1
  O  O15  1  0.26356100  0.91658700  0.91760300  1
  O  O16  1  0.11853800  0.58210300  0.75000000  1
  O  O17  1  0.08341300  0.34697400  0.91760300  1
  O  O18  1  0.46356500  0.88146200  0.75000000  1
  O  O19  1  0.91658700  0.65302600  0.41760300  1
  O  O20  1  0.73643900  0.08341300  0.08239700  1
  O  O21  1  0.14634700  0.66299700  0.25000000  1
  O  O22  1  0.34697400  0.26356100  0.08239700  1
  O  O23  1  0.85365300  0.33700300  0.75000000  1
  F  F0  1  0.00000000  0.00000000  0.25000000  1
  F  F1  1  0.00000000  0.00000000  0.75000000  1
loop_
_geom_bond_atom_site_label_1
_geom_bond_atom_site_label_2
_geom_bond_distance
_geom_bond_site_symmetry_2
O0 P4 1.573784 1_555
O0 Pb3 2.503025 1_555
O0 Pb0 2.664560 1_555
O0 Pb1 2.664560 1_554
O1 P5 1.573784 1_555
O1 Pb6 2.503025 1_555
O1 Pb4 2.664560 1_556
O1 Pb9 2.664560 1_555
O2 P3 1.563239 1_555
O2 Pb6 2.596167 1_555
O2 Pb2 2.665456 1_455
O3 P1 1.563239 1_555
O3 Pb3 2.596167 1_555
O3 Pb8 2.665456 1_654
O4 P2 1.563244 1_555
O4 Pb8 2.596160 1_555
O4 Pb5 2.665458 1_565
O5 P0 1.563244 1_555
O5 Pb2 2.596160 1_555
O5 Pb7 2.665458 1_545
O6 P5 1.563244 1_555
O6 Pb7 2.596159 1_555
O6 Pb3 2.665455 1_556
O7 P5 1.550668 1_555
O7 Pb0 2.624057 1_555
O7 Pb1 2.624057 1_555
O8 P2 1.550676 1_545
O8 Pb0 2.624054 1_555
O8 Pb1 2.624054 1_555
O9 P0 1.573775 1_555
O9 Pb5 2.503026 1_555
O9 Pb1 2.664555 1_554
O9 Pb0 2.664555 1_555
O10 P4 1.550668 1_555
O10 Pb9 2.624057 1_555
O10 Pb4 2.624057 1_555
O11 P0 1.550676 1_565
O11 Pb9 2.624054 1_555
O11 Pb4 2.624054 1_555
O12 P4 1.563244 1_555
O12 Pb5 2.596159 1_555
O12 Pb6 2.665455 1_555
O13 P1 1.573784 1_555
O13 Pb2 2.503017 1_555
O13 Pb1 2.664554 1_554
O13 Pb0 2.664554 1_555
O14 P5 1.563244 1_555
O14 Pb7 2.596159 1_555
O14 Pb3 2.665455 1_555
O15 P2 1.563244 1_555
O15 Pb8 2.596160 1_555
O15 Pb5 2.665458 1_566
O16 P3 1.573784 1_555
O16 Pb8 2.503017 1_555
O16 Pb4 2.664554 1_556
O16 Pb9 2.664554 1_555
O17 P3 1.563239 1_555
O17 Pb6 2.596167 1_555
O17 Pb2 2.665456 1_456
O18 P2 1.573775 1_555
O18 Pb7 2.503026 1_555
O18 Pb4 2.664555 1_556
O18 Pb9 2.664555 1_555
O19 P1 1.563239 1_555
O19 Pb3 2.596167 1_555
O19 Pb8 2.665456 1_655
O20 P0 1.563244 1_555
O20 Pb2 2.596160 1_555
O20 Pb7 2.665458 1_544
O21 P1 1.550678 1_455
O21 Pb9 2.624050 1_555
O21 Pb4 2.624050 1_555
O22 P4 1.563244 1_555
O22 Pb5 2.596159 1_555
O22 Pb6 2.665455 1_554
O23 P3 1.550678 1_655
O23 Pb1 2.624050 1_555
O23 Pb0 2.624050 1_555
F0 Pb5 2.486956 1_555
F0 Pb3 2.486961 1_445
F0 Pb2 2.486966 1_455
F1 Pb7 2.486956 1_445
F1 Pb6 2.486961 1_555
F1 Pb8 2.486966 1_545
