# generated using pymatgen
data_Ca(Cu2As)2
_symmetry_space_group_name_H-M   'P 1'
_cell_length_a   7.91907043
_cell_length_b   7.91907113
_cell_length_c   7.91907009
_cell_angle_alpha   30.15245069
_cell_angle_beta   30.15244346
_cell_angle_gamma   30.15244514
_symmetry_Int_Tables_number   1
_chemical_formula_structural   Ca(Cu2As)2
_chemical_formula_sum   'Ca1 Cu4 As2'
_cell_volume   111.01417877
_cell_formula_units_Z   1
loop_
 _symmetry_equiv_pos_site_id
 _symmetry_equiv_pos_as_xyz
  1  'x, y, z'
loop_
 _atom_site_type_symbol
 _atom_site_label
 _atom_site_symmetry_multiplicity
 _atom_site_fract_x
 _atom_site_fract_y
 _atom_site_fract_z
 _atom_site_occupancy
  Ca  Ca0  1  0.00000000  -0.00000000  -0.00000000  1
  Cu  Cu0  1  0.14454057  0.14454057  0.14454057  1
  Cu  Cu1  1  0.56133980  0.56133980  0.56133980  1
  Cu  Cu2  1  0.85545943  0.85545943  0.85545943  1
  Cu  Cu3  1  0.43866020  0.43866020  0.43866020  1
  As  As0  1  0.25217040  0.25217040  0.25217040  1
  As  As1  1  0.74782960  0.74782960  0.74782960  1
loop_
_geom_bond_atom_site_label_1
_geom_bond_atom_site_label_2
_geom_bond_distance
_geom_bond_site_symmetry_2
As0 Cu0 2.438933 1_555
As0 Cu1 2.440646 1_455
As0 Cu1 2.440646 1_554
As0 Cu1 2.440647 1_545
As0 Cu2 2.778396 1_544
As0 Cu2 2.778397 1_454
As0 Cu2 2.778397 1_445
As0 Ca0 3.006579 1_655
As0 Ca0 3.006579 1_556
As0 Ca0 3.006580 1_565
As1 Cu2 2.438933 1_555
As1 Cu3 2.440646 1_655
As1 Cu3 2.440646 1_556
As1 Cu3 2.440647 1_565
As1 Cu0 2.778396 1_566
As1 Cu0 2.778397 1_656
As1 Cu0 2.778397 1_665
As1 Ca0 3.006579 1_566
As1 Ca0 3.006579 1_665
As1 Ca0 3.006580 1_656
