# generated using pymatgen
data_Na14Ca4Mg4Si3(S3O16)3
_symmetry_space_group_name_H-M   'P 1'
_cell_length_a   18.54649736
_cell_length_b   9.26128791
_cell_length_c   22.69403963
_cell_angle_alpha   89.88832639
_cell_angle_beta   89.89882126
_cell_angle_gamma   120.00754963
_symmetry_Int_Tables_number   1
_chemical_formula_structural   Na14Ca4Mg4Si3(S3O16)3
_chemical_formula_sum   'Na42 Ca12 Mg12 Si9 S27 O144'
_cell_volume   3375.51221755
_cell_formula_units_Z   3
loop_
 _symmetry_equiv_pos_site_id
 _symmetry_equiv_pos_as_xyz
  1  'x, y, z'
loop_
 _atom_site_type_symbol
 _atom_site_label
 _atom_site_symmetry_multiplicity
 _atom_site_fract_x
 _atom_site_fract_y
 _atom_site_fract_z
 _atom_site_occupancy
  Na  Na0  1  0.80896986  0.99659691  0.25990964  1
  Na  Na1  1  0.18159485  0.36554188  0.26241307  1
  Na  Na2  1  0.68331819  0.34421626  0.25407731  1
  Na  Na3  1  0.99265108  0.62341412  0.23586615  1
  Na  Na4  1  0.51270775  0.66451684  0.24855187  1
  Na  Na5  1  0.31142974  0.62482433  0.75998832  1
  Na  Na6  1  0.00991680  0.36013231  0.74870702  1
  Na  Na7  1  0.50472249  0.35404965  0.73497587  1
  Na  Na8  1  0.18326094  0.02269801  0.75366547  1
  Na  Na9  1  0.67461485  0.00918793  0.76705093  1
  Na  Na10  1  0.14921806  0.33186973  0.58662746  1
  Na  Na11  1  0.63760574  0.32932529  0.59600625  1
  Na  Na12  1  0.34105575  0.99627462  0.58451411  1
  Na  Na13  1  0.82967565  0.95542198  0.57266505  1
  Na  Na14  1  0.13885104  0.94457201  0.07968953  1
  Na  Na15  1  0.64920119  0.96662455  0.07781909  1
  Na  Na16  1  0.33384337  0.70719586  0.06797081  1
  Na  Na17  1  0.84086709  0.68256567  0.07694945  1
  Na  Na18  1  0.48900618  0.69087414  0.91372973  1
  Na  Na19  1  0.98310895  0.65766641  0.92748756  1
  Na  Na20  1  0.34745244  0.00195696  0.91574065  1
  Na  Na21  1  0.83361858  0.02987612  0.90948561  1
  Na  Na22  1  0.17553256  0.32897469  0.89916942  1
  Na  Na23  1  0.66280013  0.28627417  0.90172521  1
  Na  Na24  1  0.48401013  0.30690094  0.43454502  1
  Na  Na25  1  0.98713361  0.28726214  0.42094960  1
  Na  Na26  1  0.16853158  0.04014276  0.42179154  1
  Na  Na27  1  0.67515433  0.02490615  0.40577847  1
  Na  Na28  1  0.33740502  0.64267784  0.41729757  1
  Na  Na29  1  0.84347265  0.68920361  0.42400632  1
  Na  Na30  1  0.99766520  0.00381318  0.49198987  1
  Na  Na31  1  0.50131226  0.00113869  0.50852034  1
  Na  Na32  1  0.99695873  0.99333867  0.00214578  1
  Na  Na33  1  0.49953203  0.99540871  0.98710606  1
  Na  Na34  1  0.32985692  0.35200423  0.83086189  1
  Na  Na35  1  0.81759254  0.32402531  0.83604461  1
  Na  Na36  1  0.32851840  0.32836080  0.34200518  1
  Na  Na37  1  0.82418819  0.30098299  0.33349111  1
  Na  Na38  1  0.15489924  0.65526977  0.15907916  1
  Na  Na39  1  0.66285231  0.67670478  0.17045116  1
  Na  Na40  1  0.16364918  0.65268643  0.67351366  1
  Na  Na41  1  0.65329954  0.62660293  0.66869817  1
  Ca  Ca0  1  0.00264833  0.99462721  0.65143397  1
  Ca  Ca1  1  0.50053094  0.00674569  0.65104262  1
  Ca  Ca2  1  0.99656754  0.99595596  0.14706745  1
  Ca  Ca3  1  0.50355703  0.01002143  0.15082860  1
  Ca  Ca4  1  0.83018759  0.34520435  0.68969894  1
  Ca  Ca5  1  0.33660328  0.32496268  0.18680110  1
  Ca  Ca6  1  0.16138415  0.65379676  0.01357027  1
  Ca  Ca7  1  0.66466141  0.66673368  0.01278919  1
  Ca  Ca8  1  0.16357850  0.65859585  0.51419264  1
  Ca  Ca9  1  0.65974774  0.66443377  0.51622336  1
  Ca  Ca10  1  0.16906087  0.66238302  0.32255559  1
  Ca  Ca11  1  0.66874747  0.66840338  0.81932336  1
  Mg  Mg0  1  0.99965448  0.00802274  0.35435398  1
  Mg  Mg1  1  0.50837735  0.00641522  0.34276305  1
  Mg  Mg2  1  0.00702789  0.00951903  0.84153587  1
  Mg  Mg3  1  0.50480788  0.99615329  0.85136642  1
  Mg  Mg4  1  0.33601086  0.33949012  0.68200322  1
  Mg  Mg5  1  0.83257445  0.32775901  0.17994536  1
  Mg  Mg6  1  0.33558351  0.34361470  0.98106016  1
  Mg  Mg7  1  0.83374826  0.33371134  0.98669837  1
  Mg  Mg8  1  0.33411467  0.33775018  0.48892440  1
  Mg  Mg9  1  0.83521681  0.32738758  0.48291223  1
  Mg  Mg10  1  0.67144881  0.69200671  0.31926256  1
  Mg  Mg11  1  0.17097052  0.65170277  0.81835704  1
  Si  Si0  1  0.65455505  0.00031013  0.24725534  1
  Si  Si1  1  0.15466070  0.30880110  0.74691375  1
  Si  Si2  1  0.64827410  0.30051966  0.75256525  1
  Si  Si3  1  0.47838100  0.33295353  0.58279541  1
  Si  Si4  1  0.97914351  0.62236300  0.08411283  1
  Si  Si5  1  0.32051702  0.66626491  0.91708214  1
  Si  Si6  1  0.67031012  0.98631015  0.92036651  1
  Si  Si7  1  0.81997994  0.97600776  0.41749812  1
  Si  Si8  1  0.17019481  0.35157220  0.41683641  1
  S  S0  1  0.14542790  0.99755664  0.25266586  1
  S  S1  1  0.35063567  0.70263783  0.25035285  1
  S  S2  1  0.84799503  0.69833452  0.25407299  1
  S  S3  1  -0.00034887  0.29866105  0.25148092  1
  S  S4  1  0.50479695  0.30763887  0.25766550  1
  S  S5  1  0.00729223  0.70353647  0.75802236  1
  S  S6  1  0.49558964  0.69512010  0.75119224  1
  S  S7  1  0.34423455  0.99557657  0.75331214  1
  S  S8  1  0.85296698  0.00169911  0.75055293  1
  S  S9  1  0.98044593  0.33117638  0.58289194  1
  S  S10  1  0.18883401  0.04155464  0.58309978  1
  S  S11  1  0.68886398  0.04559712  0.58044178  1
  S  S12  1  0.33154419  0.62491521  0.58285801  1
  S  S13  1  0.83525299  0.62999439  0.57640732  1
  S  S14  1  0.48117342  0.62988089  0.08341170  1
  S  S15  1  0.33261830  0.03708974  0.07869203  1
  S  S16  1  0.83127093  0.03849059  0.08348014  1
  S  S17  1  0.18969176  0.33195226  0.08353667  1
  S  S18  1  0.68981059  0.33827982  0.08471121  1
  S  S19  1  0.82651896  0.67453113  0.91900067  1
  S  S20  1  0.01379106  0.35450131  0.91125460  1
  S  S21  1  0.50806624  0.35555121  0.91727679  1
  S  S22  1  0.16358528  0.96901639  0.91536252  1
  S  S23  1  0.32489101  0.97663610  0.41652491  1
  S  S24  1  0.66320240  0.36020315  0.41295517  1
  S  S25  1  0.01000200  0.66504818  0.41429060  1
  S  S26  1  0.51404487  0.67329189  0.40988088  1
  O  O0  1  0.09736349  0.00687040  0.30344138  1
  O  O1  1  0.60889152  0.03085636  0.30459780  1
  O  O2  1  0.40043579  0.79848338  0.30227907  1
  O  O3  1  0.90294011  0.79032760  0.30430662  1
  O  O4  1  0.49338365  0.20089861  0.30972962  1
  O  O5  1  0.99535673  0.20359677  0.30547632  1
  O  O6  1  0.10862516  0.18674049  0.80439493  1
  O  O7  1  0.59411425  0.18052224  0.80799340  1
  O  O8  1  0.48629927  0.77540908  0.80541776  1
  O  O9  1  0.99500255  0.78570439  0.81042643  1
  O  O10  1  0.39687813  0.01182145  0.80451366  1
  O  O11  1  0.90232361  -0.00003964  0.80254530  1
  O  O12  1  0.37771557  0.96337211  0.69845746  1
  O  O13  1  0.89076667  0.98555528  0.69502809  1
  O  O14  1  0.09866439  0.23035592  0.68741831  1
  O  O15  1  0.60215029  0.22038517  0.68966679  1
  O  O16  1  0.01538927  0.80086036  0.70396117  1
  O  O17  1  0.50210791  0.79289937  0.69868586  1
  O  O18  1  0.39032839  0.78901152  0.19490326  1
  O  O19  1  0.88220278  0.79584766  0.19878193  1
  O  O20  1  0.01081391  0.21840237  0.19911966  1
  O  O21  1  0.51049397  0.22695308  0.20317655  1
  O  O22  1  0.10230147  0.98755619  0.19644886  1
  O  O23  1  0.59760691  0.96517143  0.18833382  1
  O  O24  1  0.42724279  0.32807283  0.64254652  1
  O  O25  1  0.93963473  0.33534277  0.63787296  1
  O  O26  1  0.23487443  0.12836639  0.63700669  1
  O  O27  1  0.73554140  0.12759874  0.63455484  1
  O  O28  1  0.32518948  0.52354065  0.63525764  1
  O  O29  1  0.83547186  0.53936727  0.62922848  1
  O  O30  1  0.44159758  0.54631892  0.13983195  1
  O  O31  1  0.93022066  0.52601864  0.14506756  1
  O  O32  1  0.32984761  0.12395016  0.13247878  1
  O  O33  1  0.82727046  0.12519622  0.13716780  1
  O  O34  1  0.23309499  0.34091801  0.13956262  1
  O  O35  1  0.73521482  0.34471839  0.13972228  1
  O  O36  1  0.23697979  0.32162794  0.03222820  1
  O  O37  1  0.73443516  0.32842348  0.03212103  1
  O  O38  1  0.43151242  0.53000417  0.03236401  1
  O  O39  1  0.92578201  0.52966162  0.02481255  1
  O  O40  1  0.33563760  0.13251128  0.02514960  1
  O  O41  1  0.83372390  0.12996553  0.02946824  1
  O  O42  1  0.23187044  0.13840438  0.52906533  1
  O  O43  1  0.73378112  0.14850274  0.52749656  1
  O  O44  1  0.33357513  0.54103823  0.52751900  1
  O  O45  1  0.83827405  0.54298834  0.52180237  1
  O  O46  1  0.42720058  0.32636169  0.52250229  1
  O  O47  1  0.93366801  0.33416460  0.52999356  1
  O  O48  1  0.28381655  0.70372172  0.97722000  1
  O  O49  1  0.79145781  0.69946828  0.97512990  1
  O  O50  1  0.06699351  0.42571015  0.96375518  1
  O  O51  1  0.56401413  0.43480295  0.96818566  1
  O  O52  1  0.14993815  0.86943420  0.97007634  1
  O  O53  1  0.65495624  0.87184639  0.97941487  1
  O  O54  1  0.28739631  0.87802011  0.47148760  1
  O  O55  1  0.78223901  0.86114416  0.47644105  1
  O  O56  1  0.15004517  0.43866161  0.47227600  1
  O  O57  1  0.64989573  0.43489381  0.46662469  1
  O  O58  1  0.06834976  0.70064331  0.46395443  1
  O  O59  1  0.56679745  0.70543161  0.46215335  1
  O  O60  1  0.04469723  0.63254680  0.36005444  1
  O  O61  1  0.55519666  0.64920497  0.35714546  1
  O  O62  1  0.26876935  0.89239255  0.36630576  1
  O  O63  1  0.75732309  0.88714510  0.36125141  1
  O  O64  1  0.19056320  0.46825980  0.35734092  1
  O  O65  1  0.67322477  0.46564034  0.36068158  1
  O  O66  1  0.05537115  0.46275052  0.85896678  1
  O  O67  1  0.54327785  0.46083555  0.86417591  1
  O  O68  1  0.17369269  0.88183291  0.86413681  1
  O  O69  1  0.69054199  0.90432917  0.86303210  1
  O  O70  1  0.25481639  0.62845256  0.86275650  1
  O  O71  1  0.76983516  0.64941162  0.86996441  1
  O  O72  1  -0.00022605  0.81372787  0.40730363  1
  O  O73  1  0.50072981  0.81948167  0.40281856  1
  O  O74  1  0.40814323  0.99035429  0.40862544  1
  O  O75  1  0.91239422  0.99363384  0.40823056  1
  O  O76  1  0.08820369  0.16453303  0.40954062  1
  O  O77  1  0.58862776  0.18829289  0.40795268  1
  O  O78  1  0.00040115  0.18180554  0.90355904  1
  O  O79  1  0.49748405  0.18606839  0.91044441  1
  O  O80  1  0.08892008  0.99095589  0.90955100  1
  O  O81  1  0.58514237  0.99772066  0.91307277  1
  O  O82  1  0.41200136  0.83322629  0.90636554  1
  O  O83  1  0.91056139  0.82726497  0.91074032  1
  O  O84  1  0.48448952  0.15864598  0.57893879  1
  O  O85  1  0.98420472  0.17228627  0.57888995  1
  O  O86  1  0.10393106  0.02205597  0.58263148  1
  O  O87  1  0.60463476  0.02762076  0.58021078  1
  O  O88  1  0.40503012  0.79422113  0.58383269  1
  O  O89  1  0.90846527  0.80393522  0.57583151  1
  O  O90  1  0.48454614  0.79549251  0.07941707  1
  O  O91  1  0.98790742  0.81252298  0.08131145  1
  O  O92  1  0.40607216  0.01216163  0.07925013  1
  O  O93  1  0.90554109  0.01597847  0.08340304  1
  O  O94  1  0.10602674  0.17883205  0.08236930  1
  O  O95  1  0.60519925  0.18777592  0.08431771  1
  O  O96  1  0.33892109  0.15185055  0.74870318  1
  O  O97  1  0.85661110  0.16719005  0.75201139  1
  O  O98  1  0.24815267  0.32698841  0.74299659  1
  O  O99  1  0.73861105  0.30530484  0.75689261  1
  O  O100  1  0.41993489  0.52418745  0.74829504  1
  O  O101  1  0.93696923  0.52998578  0.75428460  1
  O  O102  1  0.34578906  0.53473724  0.25280248  1
  O  O103  1  0.84200024  0.53095730  0.25067765  1
  O  O104  1  0.43299005  0.33931603  0.25561248  1
  O  O105  1  0.92176755  0.30867960  0.24862081  1
  O  O106  1  0.22897416  0.15424541  0.25382395  1
  O  O107  1  0.74832195  0.16976353  0.24315445  1
  O  O108  1  0.33062201  0.49791040  0.92168082  1
  O  O109  1  0.83604199  0.52427548  0.92243253  1
  O  O110  1  0.42353820  0.33486524  0.92704734  1
  O  O111  1  0.93122329  0.34305528  0.91846686  1
  O  O112  1  0.24051224  0.13713179  0.91999448  1
  O  O113  1  0.75360651  0.17582370  0.92609074  1
  O  O114  1  0.33440705  0.14604624  0.42057205  1
  O  O115  1  0.83151214  0.16582272  0.42203759  1
  O  O116  1  0.25483877  0.33546359  0.42587767  1
  O  O117  1  0.74029603  0.34623229  0.41771568  1
  O  O118  1  0.43067714  0.51967989  0.41634293  1
  O  O119  1  0.92663043  0.51608858  0.42514514  1
  O  O120  1  0.18305367  0.48518207  0.08054634  1
  O  O121  1  0.68498013  0.49453733  0.08316501  1
  O  O122  1  0.07561275  0.65900196  0.08486074  1
  O  O123  1  0.56711618  0.65664186  0.08290808  1
  O  O124  1  0.25498437  0.86961136  0.07927174  1
  O  O125  1  0.75513404  0.86732997  0.08463631  1
  O  O126  1  0.18424365  0.87577455  0.58159244  1
  O  O127  1  0.68319147  0.88015354  0.57782684  1
  O  O128  1  0.25441778  0.64172530  0.58347024  1
  O  O129  1  0.75730589  0.64020959  0.57768219  1
  O  O130  1  0.06730596  0.47590204  0.58276816  1
  O  O131  1  0.57466930  0.48921252  0.58500098  1
  O  O132  1  0.15382594  0.84660377  0.25623624  1
  O  O133  1  0.66222128  0.82958711  0.25402220  1
  O  O134  1  0.26406802  0.67361802  0.25153573  1
  O  O135  1  0.76188304  0.67114579  0.26154363  1
  O  O136  1  0.07319540  0.47279888  0.25363896  1
  O  O137  1  0.58331557  0.47267356  0.26184486  1
  O  O138  1  0.16209693  0.49411358  0.75408797  1
  O  O139  1  0.65325159  0.48235280  0.75389352  1
  O  O140  1  0.08648521  0.69824881  0.76308260  1
  O  O141  1  0.57174642  0.67984779  0.75461763  1
  O  O142  1  0.25717663  0.85161135  0.76056623  1
  O  O143  1  0.76562080  0.86703317  0.75293469  1
loop_
_geom_bond_atom_site_label_1
_geom_bond_atom_site_label_2
_geom_bond_distance
_geom_bond_site_symmetry_2
Na0 O133 2.368367 1_555
Na0 O107 2.405249 1_565
Na0 O63 2.499262 1_555
Na0 O105 2.596771 1_565
Na0 O135 2.686159 1_555
Na0 O33 2.978611 1_565
Na1 O64 2.329081 1_555
Na1 O134 2.484342 1_555
Na1 O106 2.521971 1_555
Na1 O102 2.645719 1_555
Na1 O136 2.658258 1_555
Na2 O107 2.464553 1_555
Na2 O103 2.562408 1_555
Na2 O135 2.628579 1_555
Na2 O137 2.663265 1_555
Na2 O65 2.715167 1_555
Na2 O1 2.759842 1_555
Na2 O35 2.765507 1_555
Na3 O31 2.317610 1_555
Na3 O103 2.501086 1_555
Na3 O136 2.534562 1_655
Na3 O105 2.543799 1_555
Na3 O132 2.692614 1_655
Na4 O133 2.409065 1_555
Na4 O104 2.612623 1_555
Na4 O61 2.613763 1_555
Na4 O137 2.699830 1_555
Na4 O102 2.704518 1_555
Na4 O30 2.757387 1_555
Na4 O23 2.773492 1_555
Na5 O138 2.408835 1_555
Na5 O98 2.429469 1_555
Na5 O70 2.563163 1_555
Na5 O100 2.619908 1_555
Na5 O142 2.745535 1_555
Na6 O138 2.453454 1_555
Na6 O97 2.489939 1_455
Na6 O101 2.539652 1_455
Na6 O66 2.662790 1_555
Na6 O140 2.736140 1_555
Na6 O25 2.791574 1_455
Na6 O14 2.839974 1_555
Na7 O139 2.432436 1_555
Na7 O24 2.487874 1_555
Na7 O141 2.665277 1_555
Na7 O96 2.700788 1_555
Na7 O100 2.743268 1_555
Na7 O15 2.844378 1_555
Na8 O98 2.460236 1_555
Na8 O96 2.514412 1_555
Na8 O142 2.566483 1_545
Na8 O140 2.626367 1_545
Na8 O6 2.766632 1_555
Na8 O68 2.787978 1_545
Na8 O26 2.815496 1_555
Na8 O16 2.968202 1_545
Na9 O99 2.392406 1_555
Na9 O69 2.460865 1_545
Na9 O143 2.628127 1_545
Na9 O141 2.684673 1_545
Na9 O7 2.825012 1_555
Na9 O97 2.950366 1_555
Na10 O14 2.469272 1_555
Na10 O130 2.474246 1_555
Na10 O128 2.538759 1_555
Na10 O86 2.556795 1_555
Na10 O85 2.657079 1_455
Na10 O56 2.772656 1_555
Na11 O15 2.300293 1_555
Na11 O131 2.312122 1_555
Na11 O84 2.495867 1_555
Na11 O87 2.570114 1_555
Na11 O129 2.643842 1_555
Na12 O84 2.313180 1_565
Na12 O126 2.542186 1_555
Na12 O88 2.670303 1_555
Na12 O12 2.729843 1_555
Na12 O54 2.774709 1_555
Na12 O128 2.843845 1_555
Na13 O55 2.356024 1_555
Na13 O127 2.446383 1_555
Na13 O89 2.481801 1_555
Na13 O129 2.532911 1_555
Na13 O85 2.551995 1_565
Na13 O13 2.961542 1_555
Na14 O122 2.297768 1_555
Na14 O91 2.430861 1_455
Na14 O94 2.530357 1_565
Na14 O124 2.572308 1_555
Na14 O52 2.619651 1_554
Na14 O22 2.811901 1_555
Na15 O53 2.422708 1_554
Na15 O123 2.489835 1_555
Na15 O125 2.556798 1_555
Na15 O95 2.560319 1_565
Na15 O90 2.645206 1_555
Na15 O23 2.680397 1_555
Na16 O48 2.254016 1_554
Na16 O92 2.461053 1_565
Na16 O90 2.503104 1_555
Na16 O120 2.524594 1_555
Na16 O124 2.582252 1_555
Na17 O91 2.369345 1_555
Na17 O49 2.520537 1_554
Na17 O121 2.524469 1_555
Na17 O93 2.700492 1_565
Na17 O39 2.848879 1_555
Na17 O125 2.865024 1_555
Na17 O19 2.923565 1_555
Na18 O82 2.385151 1_555
Na18 O81 2.487320 1_555
Na18 O108 2.569268 1_555
Na18 O8 2.586435 1_555
Na19 O109 2.368607 1_555
Na19 O39 2.476880 1_556
Na19 O83 2.556418 1_555
Na19 O111 2.579947 1_555
Na19 O80 2.734586 1_655
Na19 O9 2.869889 1_555
Na19 O52 2.881379 1_655
Na20 O82 2.406645 1_545
Na20 O79 2.432459 1_555
Na20 O10 2.669707 1_555
Na20 O110 2.686193 1_555
Na20 O48 2.772548 1_545
Na20 O40 2.819516 1_556
Na20 O112 2.827299 1_555
Na21 O113 2.485427 1_555
Na21 O69 2.536399 1_545
Na21 O111 2.546170 1_555
Na21 O78 2.685224 1_655
Na21 O11 2.816938 1_555
Na21 O83 2.869928 1_545
Na21 O41 2.877748 1_556
Na22 O6 2.507297 1_555
Na22 O70 2.538729 1_555
Na22 O108 2.547421 1_555
Na22 O112 2.640618 1_555
Na22 O80 2.720627 1_545
Na22 O78 2.826284 1_555
Na22 O50 2.966774 1_555
Na23 O81 2.329910 1_545
Na23 O7 2.424159 1_555
Na23 O113 2.431593 1_555
Na23 O79 2.729849 1_555
Na23 O109 2.885912 1_555
Na23 O71 3.013069 1_555
Na24 O46 2.304549 1_555
Na24 O114 2.426707 1_555
Na24 O74 2.608447 1_545
Na24 O118 2.642016 1_555
Na24 O77 2.732365 1_555
Na24 O57 2.786412 1_555
Na25 O75 2.373581 1_545
Na25 O115 2.519655 1_555
Na25 O76 2.646361 1_655
Na25 O5 2.759649 1_555
Na25 O47 2.778882 1_555
Na25 O119 2.852776 1_555
Na25 O56 2.869356 1_655
Na26 O76 2.311021 1_555
Na26 O116 2.381987 1_555
Na26 O42 2.661625 1_555
Na26 O114 2.721872 1_555
Na26 O72 2.782614 1_545
Na26 O58 2.896976 1_545
Na26 O0 2.942757 1_555
Na27 O115 2.543413 1_555
Na27 O117 2.607127 1_555
Na27 O1 2.619747 1_555
Na27 O63 2.629759 1_545
Na27 O77 2.701156 1_555
Na27 O73 2.816798 1_545
Na27 O59 2.908336 1_545
Na27 O43 2.983407 1_555
Na28 O116 2.473236 1_555
Na28 O118 2.502291 1_555
Na28 O73 2.645359 1_555
Na28 O44 2.659188 1_555
Na28 O64 2.738441 1_555
Na28 O74 2.810547 1_555
Na28 O2 2.923928 1_555
Na28 O54 3.025154 1_555
Na29 O75 2.470002 1_555
Na29 O72 2.554899 1_655
Na29 O45 2.574027 1_555
Na29 O55 2.655731 1_555
Na29 O119 2.724522 1_555
Na29 O117 2.773902 1_555
Na29 O3 2.901564 1_555
Na30 O75 2.446494 1_545
Na30 O76 2.452404 1_655
Na30 O89 2.587638 1_545
Na30 O85 2.604973 1_555
Na30 O72 2.622221 1_645
Na30 O86 2.797641 1_655
Na31 O84 2.289459 1_555
Na31 O87 2.433449 1_555
Na31 O88 2.517116 1_545
Na31 O74 2.824409 1_545
Na31 O77 2.828351 1_555
Na31 O73 2.929574 1_545
Na32 O91 2.401287 1_555
Na32 O93 2.581703 1_565
Na32 O83 2.606770 1_554
Na32 O94 2.628115 1_665
Na32 O80 2.711137 1_654
Na32 O78 2.815869 1_664
Na33 O81 2.302324 1_555
Na33 O82 2.414786 1_555
Na33 O79 2.490270 1_565
Na33 O90 2.713299 1_556
Na33 O92 2.767460 1_566
Na33 O95 2.901719 1_566
Na34 O98 2.446901 1_555
Na34 O108 2.462896 1_555
Na34 O100 2.481441 1_555
Na34 O96 2.695340 1_555
Na34 O112 2.733441 1_555
Na34 O110 2.845457 1_555
Na35 O99 2.271318 1_555
Na35 O113 2.412345 1_555
Na35 O109 2.604202 1_555
Na35 O97 2.706945 1_555
Na35 O111 2.759504 1_555
Na35 O101 2.780398 1_555
Na36 O116 2.361316 1_555
Na36 O114 2.493058 1_555
Na36 O118 2.498086 1_555
Na36 O106 2.657321 1_555
Na36 O102 2.687761 1_555
Na36 O104 2.719862 1_555
Na37 O115 2.405115 1_555
Na37 O107 2.443186 1_555
Na37 O105 2.616885 1_555
Na37 O117 2.625774 1_555
Na37 O103 2.730551 1_555
Na37 O119 2.854669 1_555
Na38 O122 2.249401 1_555
Na38 O120 2.600139 1_555
Na38 O124 2.637216 1_555
Na38 O136 2.677707 1_555
Na38 O132 2.837650 1_555
Na38 O134 2.864095 1_555
Na39 O133 2.372508 1_555
Na39 O125 2.606011 1_555
Na39 O123 2.611145 1_555
Na39 O137 2.689667 1_555
Na39 O121 2.764291 1_555
Na39 O135 2.785165 1_555
Na40 O138 2.334150 1_555
Na40 O140 2.637243 1_555
Na40 O142 2.671277 1_555
Na40 O128 2.679468 1_555
Na40 O130 2.685961 1_555
Na40 O126 2.820870 1_555
Na41 O139 2.347683 1_555
Na41 O131 2.348775 1_555
Na41 O141 2.659361 1_555
Na41 O129 2.782965 1_555
Na41 O143 2.888467 1_555
Na41 O127 2.957906 1_555
Ca0 O14 2.174321 1_565
Ca0 O13 2.260432 1_455
Ca0 O16 2.261409 1_555
Ca0 O86 2.354118 1_565
Ca0 O89 2.459809 1_455
Ca0 O85 2.467574 1_465
Ca1 O15 2.125528 1_555
Ca1 O17 2.267584 1_545
Ca1 O84 2.270798 1_555
Ca1 O12 2.362632 1_545
Ca1 O88 2.423197 1_545
Ca1 O87 2.442051 1_555
Ca2 O91 2.208276 1_555
Ca2 O20 2.274980 1_665
Ca2 O22 2.295091 1_655
Ca2 O93 2.300571 1_565
Ca2 O19 2.315556 1_555
Ca2 O94 2.384587 1_665
Ca3 O23 2.160579 1_545
Ca3 O21 2.283751 1_555
Ca3 O18 2.298968 1_545
Ca3 O95 2.327711 1_555
Ca3 O92 2.440092 1_555
Ca3 O90 2.451944 1_545
Ca4 O99 2.169656 1_555
Ca4 O29 2.222615 1_555
Ca4 O27 2.277729 1_555
Ca4 O101 2.372575 1_555
Ca4 O25 2.385247 1_555
Ca4 O97 2.399876 1_555
Ca5 O32 2.185715 1_555
Ca5 O30 2.263181 1_555
Ca5 O34 2.268652 1_555
Ca5 O104 2.329146 1_555
Ca5 O106 2.370865 1_555
Ca5 O102 2.393352 1_555
Ca6 O48 2.234302 1_554
Ca6 O50 2.263256 1_554
Ca6 O122 2.284350 1_555
Ca6 O52 2.329113 1_554
Ca6 O120 2.351806 1_555
Ca6 O124 2.404554 1_555
Ca7 O53 2.133409 1_554
Ca7 O51 2.264404 1_554
Ca7 O49 2.373032 1_554
Ca7 O123 2.373597 1_555
Ca7 O125 2.414311 1_555
Ca7 O121 2.414403 1_555
Ca8 O56 2.147971 1_555
Ca8 O58 2.294366 1_555
Ca8 O130 2.330445 1_555
Ca8 O128 2.367754 1_555
Ca8 O54 2.378881 1_555
Ca8 O126 2.403131 1_555
Ca9 O131 2.231518 1_555
Ca9 O55 2.267531 1_555
Ca9 O127 2.297628 1_555
Ca9 O59 2.298273 1_555
Ca9 O57 2.332608 1_555
Ca9 O129 2.383938 1_555
Ca10 O64 2.174194 1_555
Ca10 O62 2.240039 1_555
Ca10 O60 2.339917 1_555
Ca10 O134 2.349307 1_555
Ca10 O136 2.363924 1_555
Ca10 O132 2.393648 1_555
Ca11 O139 2.184618 1_555
Ca11 O69 2.246753 1_555
Ca11 O71 2.281080 1_555
Ca11 O143 2.357059 1_555
Ca11 O141 2.367169 1_555
Ca11 O67 2.378273 1_555
Mg0 O75 1.976990 1_545
Mg0 O76 1.999988 1_655
Mg0 O0 2.151979 1_655
Mg0 O5 2.157388 1_555
Mg0 O72 2.162737 1_645
Mg0 O3 2.229603 1_545
Mg1 O1 1.961648 1_555
Mg1 O4 2.092840 1_555
Mg1 O73 2.149266 1_545
Mg1 O2 2.171999 1_545
Mg1 O77 2.179693 1_555
Mg1 O74 2.329119 1_545
Mg2 O6 1.962251 1_555
Mg2 O9 2.094895 1_445
Mg2 O11 2.096711 1_455
Mg2 O78 2.178654 1_555
Mg2 O80 2.233221 1_545
Mg2 O83 2.340025 1_445
Mg3 O7 1.945941 1_565
Mg3 O81 2.041304 1_555
Mg3 O82 2.045639 1_555
Mg3 O8 2.166171 1_555
Mg3 O79 2.270918 1_565
Mg3 O10 2.335796 1_565
Mg4 O24 1.962123 1_555
Mg4 O98 2.094571 1_555
Mg4 O28 2.099292 1_555
Mg4 O26 2.174939 1_555
Mg4 O100 2.228715 1_555
Mg4 O96 2.323343 1_555
Mg5 O31 1.985167 1_555
Mg5 O33 2.072274 1_555
Mg5 O107 2.082642 1_555
Mg5 O35 2.099366 1_555
Mg5 O105 2.344581 1_555
Mg5 O103 2.415038 1_555
Mg6 O108 1.997700 1_555
Mg6 O110 2.072582 1_555
Mg6 O36 2.086462 1_556
Mg6 O38 2.108080 1_556
Mg6 O40 2.194960 1_556
Mg6 O112 2.309278 1_555
Mg7 O39 1.966730 1_556
Mg7 O113 2.019990 1_555
Mg7 O37 2.088182 1_556
Mg7 O41 2.120068 1_556
Mg7 O109 2.271190 1_555
Mg7 O111 2.346595 1_555
Mg8 O46 1.938757 1_555
Mg8 O116 2.045911 1_555
Mg8 O42 2.078412 1_555
Mg8 O44 2.082565 1_555
Mg8 O114 2.361926 1_555
Mg8 O118 2.391642 1_555
Mg9 O115 2.014376 1_555
Mg9 O43 2.043751 1_555
Mg9 O47 2.090953 1_555
Mg9 O45 2.159382 1_555
Mg9 O119 2.160282 1_555
Mg9 O117 2.373664 1_555
Mg10 O63 1.960558 1_555
Mg10 O133 2.014083 1_555
Mg10 O61 2.163827 1_555
Mg10 O135 2.209880 1_555
Mg10 O137 2.278750 1_555
Mg10 O65 2.311102 1_555
Mg11 O70 1.954331 1_555
Mg11 O138 2.013295 1_555
Mg11 O142 2.174024 1_555
Mg11 O66 2.177679 1_555
Mg11 O140 2.212462 1_555
Mg11 O68 2.350650 1_555
O0 S0 1.484436 1_545
O1 Si0 1.651640 1_555
O2 S1 1.489142 1_555
O3 S2 1.484387 1_555
O4 S4 1.484370 1_555
O5 S3 1.486046 1_655
O6 Si1 1.653319 1_555
O7 Si2 1.643119 1_555
O8 S6 1.492627 1_555
O9 S5 1.490451 1_655
O10 S7 1.477782 1_545
O11 S8 1.499630 1_555
O12 S7 1.486007 1_555
O13 S8 1.484618 1_565
O14 Si1 1.638135 1_555
O15 Si2 1.641194 1_555
O16 S5 1.483181 1_555
O17 S6 1.462980 1_555
O18 S1 1.472794 1_555
O19 S2 1.487361 1_555
O20 S3 1.471013 1_555
O21 S4 1.476747 1_555
O22 S0 1.485241 1_555
O23 Si0 1.634731 1_565
O24 Si3 1.640923 1_555
O25 S9 1.468781 1_555
O26 S10 1.480877 1_555
O27 S11 1.477861 1_555
O28 S12 1.481190 1_555
O29 S13 1.463191 1_555
O30 S14 1.483828 1_555
O31 Si4 1.647405 1_555
O32 S15 1.478065 1_555
O33 S16 1.482526 1_555
O34 S17 1.486154 1_555
O35 S18 1.491647 1_555
O36 S17 1.488235 1_555
O37 S18 1.479935 1_555
O38 S14 1.483842 1_555
O39 Si4 1.639193 1_555
O40 S15 1.485476 1_555
O41 S16 1.476293 1_555
O42 S10 1.490466 1_555
O43 S11 1.497949 1_555
O44 S12 1.488271 1_555
O45 S13 1.495618 1_555
O46 Si3 1.650431 1_555
O47 S9 1.490687 1_555
O48 Si5 1.637371 1_555
O49 S19 1.499058 1_555
O50 S20 1.477981 1_555
O51 S21 1.481877 1_555
O52 S22 1.489071 1_555
O53 Si6 1.640659 1_555
O54 S23 1.493577 1_555
O55 Si7 1.630113 1_555
O56 Si8 1.636127 1_555
O57 S24 1.481839 1_555
O58 S25 1.482884 1_555
O59 S26 1.472159 1_555
O60 S25 1.487281 1_555
O61 S26 1.494209 1_555
O62 S23 1.478633 1_555
O63 Si7 1.646152 1_555
O64 Si8 1.648565 1_555
O65 S24 1.486113 1_555
O66 S20 1.492202 1_555
O67 S21 1.478229 1_555
O68 S22 1.480816 1_555
O69 Si6 1.642356 1_555
O70 Si5 1.645466 1_555
O71 S19 1.469092 1_555
O72 S25 1.489187 1_555
O73 S26 1.501148 1_555
O74 S23 1.495009 1_555
O75 Si7 1.651450 1_555
O76 Si8 1.645505 1_555
O77 S24 1.503122 1_555
O78 S20 1.501390 1_555
O79 S21 1.489706 1_555
O80 S22 1.502752 1_555
O81 Si6 1.643594 1_555
O82 Si5 1.643730 1_555
O83 S19 1.502714 1_555
O84 Si3 1.676289 1_555
O85 S9 1.510499 1_555
O86 S10 1.492615 1_555
O87 S11 1.485926 1_555
O88 S12 1.476255 1_555
O89 S13 1.500310 1_555
O90 S14 1.506014 1_555
O91 Si4 1.686783 1_555
O92 S15 1.491304 1_555
O93 S16 1.492678 1_555
O94 S17 1.489558 1_555
O95 S18 1.489209 1_555
O96 S7 1.502474 1_545
O97 S8 1.500435 1_555
O98 Si1 1.658348 1_555
O99 Si2 1.656810 1_555
O100 S6 1.502716 1_555
O101 S5 1.481823 1_655
O102 S1 1.512931 1_555
O103 S2 1.499769 1_555
O104 S4 1.500932 1_555
O105 S3 1.494547 1_655
O106 S0 1.502887 1_545
O107 Si0 1.662792 1_555
O108 Si5 1.663961 1_555
O109 S19 1.489684 1_555
O110 S21 1.497247 1_555
O111 S20 1.489872 1_655
O112 S22 1.500012 1_545
O113 Si6 1.665386 1_545
O114 S23 1.491596 1_545
O115 Si7 1.664749 1_545
O116 Si8 1.662545 1_555
O117 S24 1.502772 1_555
O118 S26 1.494763 1_555
O119 S25 1.489447 1_655
O120 S17 1.485943 1_555
O121 S18 1.494315 1_555
O122 Si4 1.646035 1_455
O123 S14 1.485592 1_555
O124 S15 1.498389 1_565
O125 S16 1.506061 1_565
O126 S10 1.495043 1_565
O127 S11 1.483722 1_565
O128 S12 1.514341 1_555
O129 S13 1.495440 1_555
O130 S9 1.493968 1_455
O131 Si3 1.643640 1_555
O132 S0 1.484142 1_555
O133 Si0 1.663644 1_565
O134 S1 1.489593 1_555
O135 S2 1.496475 1_555
O136 S3 1.504685 1_555
O137 S4 1.496839 1_555
O138 Si1 1.659940 1_555
O139 Si2 1.640131 1_555
O140 S5 1.498444 1_555
O141 S6 1.490372 1_555
O142 S7 1.502242 1_555
O143 S8 1.470118 1_565
