# generated using pymatgen
data_Na2Nb3GaSi4(SO12)2
_symmetry_space_group_name_H-M   'P 1'
_cell_length_a   8.82938946
_cell_length_b   8.86111787
_cell_length_c   22.77527207
_cell_angle_alpha   89.46409682
_cell_angle_beta   90.94145427
_cell_angle_gamma   119.76857404
_symmetry_Int_Tables_number   1
_chemical_formula_structural   Na2Nb3GaSi4(SO12)2
_chemical_formula_sum   'Na6 Nb9 Ga3 Si12 S6 O72'
_cell_volume   1546.54445965
_cell_formula_units_Z   3
loop_
 _symmetry_equiv_pos_site_id
 _symmetry_equiv_pos_as_xyz
  1  'x, y, z'
loop_
 _atom_site_type_symbol
 _atom_site_label
 _atom_site_symmetry_multiplicity
 _atom_site_fract_x
 _atom_site_fract_y
 _atom_site_fract_z
 _atom_site_occupancy
  Na  Na0  1  0.98488059  0.98071985  0.49877092  1
  Na  Na1  1  0.00142223  0.99136679  0.99769827  1
  Na  Na2  1  0.65815643  0.32267887  0.82978599  1
  Na  Na3  1  0.67092387  0.32168858  0.32283913  1
  Na  Na4  1  0.32181013  0.65359565  0.16279465  1
  Na  Na5  1  0.34671980  0.66379198  0.66453241  1
  Nb  Nb0  1  0.00122560  0.00300960  0.35355692  1
  Nb  Nb1  1  0.00268825  0.01660737  0.85718476  1
  Nb  Nb2  1  0.98403180  0.99588814  0.64628158  1
  Nb  Nb3  1  0.02055937  0.01133942  0.14142203  1
  Nb  Nb4  1  0.66233164  0.34299432  0.97556724  1
  Nb  Nb5  1  0.67884955  0.34337060  0.47671290  1
  Nb  Nb6  1  0.32316369  0.65833545  0.02164676  1
  Nb  Nb7  1  0.32072196  0.67578278  0.30988289  1
  Nb  Nb8  1  0.34054756  0.66680832  0.81095638  1
  Ga  Ga0  1  0.64003532  0.32935940  0.69071942  1
  Ga  Ga1  1  0.67426009  0.33434637  0.18704547  1
  Ga  Ga2  1  0.36227922  0.69088058  0.51885433  1
  Si  Si0  1  0.30190259  0.01813966  0.24932626  1
  Si  Si1  1  0.99424879  0.28935426  0.24765315  1
  Si  Si2  1  0.28980104  0.29052976  0.74886232  1
  Si  Si3  1  0.70526802  0.01296482  0.74840900  1
  Si  Si4  1  0.65267970  0.61257997  0.58566501  1
  Si  Si5  1  0.94765309  0.61349424  0.08767093  1
  Si  Si6  1  0.39621203  0.34385711  0.08690325  1
  Si  Si7  1  0.62230897  0.67442756  0.91832943  1
  Si  Si8  1  0.04401310  0.38516843  0.91497623  1
  Si  Si9  1  0.33483094  0.95118062  0.91561751  1
  Si  Si10  1  0.62124394  0.95261805  0.41829960  1
  Si  Si11  1  0.06162804  0.67586525  0.42211021  1
  S  S0  1  0.71063052  0.71156211  0.25021927  1
  S  S1  1  0.99546504  0.70968142  0.74945712  1
  S  S2  1  0.95831876  0.33771914  0.58470190  1
  S  S3  1  0.37810221  0.04321257  0.58384415  1
  S  S4  1  0.66420891  0.04431101  0.08491104  1
  S  S5  1  0.33223507  0.37942945  0.41816786  1
  O  O0  1  0.19174926  0.02239159  0.30638981  1
  O  O1  1  0.81727319  0.80150509  0.30493311  1
  O  O2  1  0.97689407  0.16896888  0.30656314  1
  O  O3  1  0.18965205  0.16973425  0.80604894  1
  O  O4  1  0.97710134  0.79459900  0.80186216  1
  O  O5  1  0.82795374  0.02737858  0.80519778  1
  O  O6  1  0.79950965  0.97352001  0.69062437  1
  O  O7  1  0.16602738  0.18349908  0.69070348  1
  O  O8  1  0.01570071  0.81880050  0.69506632  1
  O  O9  1  0.78833801  0.81751051  0.19793013  1
  O  O10  1  0.01813818  0.18720739  0.19187322  1
  O  O11  1  0.17320599  0.97555269  0.19130211  1
  O  O12  1  0.87240465  0.35247081  0.63588751  1
  O  O13  1  0.48161857  0.12082526  0.63769534  1
  O  O14  1  0.63964456  0.49790760  0.64213998  1
  O  O15  1  0.87223431  0.49855406  0.14536253  1
  O  O16  1  0.64038474  0.11928668  0.13854336  1
  O  O17  1  0.50383081  0.36199263  0.14524510  1
  O  O18  1  0.47284319  0.30697140  0.02693570  1
  O  O19  1  0.83276889  0.52051809  0.02766858  1
  O  O20  1  0.68978351  0.14804489  0.03125688  1
  O  O21  1  0.46389082  0.14849679  0.53071510  1
  O  O22  1  0.68167927  0.51676129  0.52660339  1
  O  O23  1  0.84773354  0.30778577  0.52925784  1
  O  O24  1  0.53095344  0.69835583  0.97562505  1
  O  O25  1  0.16290663  0.46892827  0.97446870  1
  O  O26  1  0.30491113  0.83272846  0.97411692  1
  O  O27  1  0.55549239  0.83827473  0.47670498  1
  O  O28  1  0.30627964  0.45385021  0.47124407  1
  O  O29  1  0.17542812  0.69169789  0.47896667  1
  O  O30  1  0.13722608  0.63857625  0.36081166  1
  O  O31  1  0.49863846  0.85566874  0.36012232  1
  O  O32  1  0.35910680  0.48209808  0.36436368  1
  O  O33  1  0.13574680  0.50146008  0.85705268  1
  O  O34  1  0.36133669  0.85911052  0.85765368  1
  O  O35  1  0.50330234  0.64007451  0.85805408  1
  O  O36  1  0.03031825  0.84073304  0.41104341  1
  O  O37  1  0.81955787  0.98638744  0.40656030  1
  O  O38  1  0.17776796  0.20056788  0.41187070  1
  O  O39  1  0.03109867  0.19380881  0.91064406  1
  O  O40  1  0.16066127  0.96936434  0.90660563  1
  O  O41  1  0.81515445  0.84021929  0.90892315  1
  O  O42  1  0.97107114  0.17133120  0.58636990  1
  O  O43  1  0.20149748  0.02949088  0.58663217  1
  O  O44  1  0.83489020  0.80870249  0.58974391  1
  O  O45  1  0.95947280  0.80735138  0.09188141  1
  O  O46  1  0.82206241  0.02216653  0.08949476  1
  O  O47  1  0.19194850  0.16897289  0.08917484  1
  O  O48  1  0.70374986  0.19088801  0.73763355  1
  O  O49  1  0.48089440  0.31117665  0.74745569  1
  O  O50  1  0.84355246  0.53749725  0.74347878  1
  O  O51  1  0.69927555  0.54176219  0.24997163  1
  O  O52  1  0.82659283  0.31286418  0.24477296  1
  O  O53  1  0.48887557  0.18491800  0.24507880  1
  O  O54  1  0.63641244  0.49693681  0.92233887  1
  O  O55  1  0.85078246  0.35676081  0.92350805  1
  O  O56  1  0.50639710  0.14166925  0.92439229  1
  O  O57  1  0.63514985  0.14518331  0.42606246  1
  O  O58  1  0.48912895  0.35409444  0.42352372  1
  O  O59  1  0.86089788  0.50034729  0.42738157  1
  O  O60  1  0.36649817  0.51106655  0.07906732  1
  O  O61  1  0.14917719  0.65155449  0.07747601  1
  O  O62  1  0.50939092  0.86754039  0.07942665  1
  O  O63  1  0.35471999  0.86550443  0.57961962  1
  O  O64  1  0.48109857  0.63513432  0.57766716  1
  O  O65  1  0.13266407  0.48721625  0.57745668  1
  O  O66  1  0.30999215  0.83342325  0.25582974  1
  O  O67  1  0.53434476  0.69350486  0.25717169  1
  O  O68  1  0.17850336  0.47611495  0.25809497  1
  O  O69  1  0.29558698  0.47820941  0.75272746  1
  O  O70  1  0.15930592  0.70163795  0.75116171  1
  O  O71  1  0.51446075  0.83613295  0.75339172  1
loop_
_geom_bond_atom_site_label_1
_geom_bond_atom_site_label_2
_geom_bond_distance
_geom_bond_site_symmetry_2
Na0 O36 2.501716 1_655
Na0 O44 2.529178 1_555
Na0 O37 2.552222 1_555
Na0 O43 2.630339 1_665
Na0 O42 2.669008 1_565
Na0 O38 2.712345 1_665
Na1 O41 2.518078 1_455
Na1 O40 2.587399 1_555
Na1 O39 2.588712 1_565
Na1 O45 2.599649 1_456
Na1 O47 2.639036 1_566
Na1 O46 2.738984 1_466
Na2 O49 2.392632 1_555
Na2 O48 2.543862 1_555
Na2 O56 2.628087 1_555
Na2 O55 2.631127 1_555
Na2 O50 2.666169 1_555
Na2 O54 2.689431 1_555
Na3 O53 2.280602 1_555
Na3 O52 2.290435 1_555
Na3 O51 2.467410 1_555
Na3 O57 2.745532 1_555
Na3 O59 2.879457 1_555
Na3 O58 2.916896 1_555
Na4 O60 2.439610 1_555
Na4 O61 2.444473 1_555
Na4 O68 2.614529 1_555
Na4 O62 2.619239 1_555
Na4 O66 2.697279 1_555
Na4 O67 2.736675 1_555
Na5 O64 2.402484 1_555
Na5 O69 2.484678 1_555
Na5 O71 2.516901 1_555
Na5 O63 2.598894 1_555
Na5 O65 2.636584 1_555
Na5 O70 2.722889 1_555
Nb0 O2 1.905525 1_455
Nb0 O0 1.944830 1_555
Nb0 O37 1.969140 1_445
Nb0 O1 2.037325 1_445
Nb0 O36 2.041663 1_545
Nb0 O38 2.126970 1_555
Nb1 O39 1.909318 1_555
Nb1 O3 1.931825 1_555
Nb1 O5 1.968582 1_455
Nb1 O40 1.976627 1_545
Nb1 O41 2.008221 1_445
Nb1 O4 2.259279 1_445
Nb2 O6 1.855597 1_555
Nb2 O7 1.922188 1_665
Nb2 O44 1.989636 1_555
Nb2 O8 2.041555 1_655
Nb2 O42 2.103250 1_565
Nb2 O43 2.265269 1_665
Nb3 O11 1.890761 1_545
Nb3 O47 1.893714 1_555
Nb3 O10 1.953638 1_555
Nb3 O45 1.970104 1_445
Nb3 O46 2.139217 1_455
Nb3 O9 2.314896 1_445
Nb4 O54 1.911213 1_555
Nb4 O19 1.942362 1_556
Nb4 O18 1.948541 1_556
Nb4 O56 1.995937 1_555
Nb4 O55 2.012419 1_555
Nb4 O20 2.239708 1_556
Nb5 O59 1.894932 1_555
Nb5 O22 1.909443 1_555
Nb5 O57 1.978417 1_555
Nb5 O23 2.038696 1_555
Nb5 O58 2.090875 1_555
Nb5 O21 2.208915 1_555
Nb6 O25 1.897142 1_554
Nb6 O26 1.948350 1_554
Nb6 O61 1.987809 1_555
Nb6 O24 2.000135 1_554
Nb6 O60 2.001757 1_555
Nb6 O62 2.195369 1_555
Nb7 O66 1.889756 1_555
Nb7 O30 1.898210 1_555
Nb7 O31 1.950986 1_555
Nb7 O68 1.970422 1_555
Nb7 O67 2.190946 1_555
Nb7 O32 2.263621 1_555
Nb8 O35 1.885310 1_555
Nb8 O34 1.945603 1_555
Nb8 O33 1.980277 1_555
Nb8 O71 2.017307 1_555
Nb8 O69 2.018570 1_555
Nb8 O70 2.218472 1_555
Ga0 O14 1.851716 1_555
Ga0 O49 1.871101 1_555
Ga0 O48 1.898642 1_555
Ga0 O13 2.061326 1_555
Ga0 O50 2.180360 1_555
Ga0 O12 2.339454 1_555
Ga1 O17 1.882909 1_555
Ga1 O15 1.891296 1_555
Ga1 O52 1.940441 1_555
Ga1 O53 2.016340 1_555
Ga1 O16 2.098527 1_555
Ga1 O51 2.261970 1_555
Ga2 O27 1.831804 1_555
Ga2 O29 1.873394 1_555
Ga2 O64 1.896015 1_555
Ga2 O63 2.111809 1_555
Ga2 O28 2.196702 1_555
Ga2 O65 2.357799 1_555
O0 Si0 1.647800 1_555
O1 S0 1.519687 1_555
O2 Si1 1.667104 1_555
O3 Si2 1.641915 1_555
O4 S1 1.470149 1_555
O5 Si3 1.637748 1_555
O6 Si3 1.697044 1_565
O7 Si2 1.671837 1_555
O8 S1 1.521417 1_455
O9 S0 1.461741 1_555
O10 Si1 1.642432 1_455
O11 Si0 1.647481 1_565
O12 S2 1.442878 1_555
O13 S3 1.472194 1_555
O14 Si4 1.601387 1_555
O15 Si5 1.592940 1_555
O16 S4 1.462898 1_555
O17 Si6 1.582774 1_555
O18 Si6 1.639601 1_555
O19 Si5 1.649503 1_555
O20 S4 1.473471 1_555
O21 S3 1.488481 1_555
O22 Si4 1.686547 1_555
O23 S2 1.525397 1_555
O24 Si7 1.614931 1_555
O25 Si8 1.639256 1_555
O26 Si9 1.629934 1_555
O27 Si10 1.596598 1_555
O28 S5 1.456962 1_555
O29 Si11 1.589579 1_555
O30 Si11 1.661940 1_555
O31 Si10 1.648095 1_555
O32 S5 1.469671 1_555
O33 Si8 1.624545 1_555
O34 Si9 1.637999 1_555
O35 Si7 1.650483 1_555
O36 Si11 1.632812 1_555
O37 Si10 1.649423 1_555
O38 S5 1.497994 1_555
O39 Si8 1.645832 1_555
O40 Si9 1.633405 1_555
O41 Si7 1.620350 1_555
O42 S2 1.533488 1_555
O43 S3 1.505029 1_555
O44 Si4 1.684894 1_555
O45 Si5 1.672014 1_555
O46 S4 1.502781 1_555
O47 Si6 1.697976 1_555
O48 Si3 1.599909 1_555
O49 Si2 1.605120 1_555
O50 S1 1.453015 1_555
O51 S0 1.457499 1_555
O52 Si1 1.594291 1_555
O53 Si0 1.580715 1_555
O54 Si7 1.639773 1_555
O55 Si8 1.611040 1_655
O56 Si9 1.625151 1_545
O57 Si10 1.659769 1_545
O58 S5 1.512289 1_555
O59 Si11 1.685466 1_655
O60 Si6 1.635701 1_555
O61 Si5 1.658285 1_455
O62 S4 1.486469 1_565
O63 S3 1.486909 1_565
O64 Si4 1.630681 1_555
O65 S2 1.459814 1_455
O66 Si0 1.678494 1_565
O67 S0 1.494548 1_555
O68 Si1 1.662271 1_455
O69 Si2 1.641440 1_555
O70 S1 1.483162 1_455
O71 Si3 1.639518 1_565
