# generated using pymatgen
data_LaCrHO5
_symmetry_space_group_name_H-M   'P 1'
_cell_length_a   13.28796700
_cell_length_b   4.78338900
_cell_length_c   7.28711153
_cell_angle_alpha   68.54628789
_cell_angle_beta   90.00000000
_cell_angle_gamma   90.00000000
_symmetry_Int_Tables_number   1
_chemical_formula_structural   LaCrHO5
_chemical_formula_sum   'La4 Cr4 H4 O20'
_cell_volume   431.08767099
_cell_formula_units_Z   4
loop_
 _symmetry_equiv_pos_site_id
 _symmetry_equiv_pos_as_xyz
  1  'x, y, z'
loop_
 _atom_site_type_symbol
 _atom_site_label
 _atom_site_symmetry_multiplicity
 _atom_site_fract_x
 _atom_site_fract_y
 _atom_site_fract_z
 _atom_site_occupancy
  La  La0  1  0.05676800  0.33607000  0.79918900  1
  La  La1  1  0.55676800  0.66393000  0.70081100  1
  La  La2  1  0.94323200  0.66393000  0.20081100  1
  La  La3  1  0.44323200  0.33607000  0.29918900  1
  Cr  Cr0  1  0.35119600  0.09047500  0.88197800  1
  Cr  Cr1  1  0.85119600  0.90952500  0.61802200  1
  Cr  Cr2  1  0.64880400  0.90952500  0.11802200  1
  Cr  Cr3  1  0.14880400  0.09047500  0.38197800  1
  H  H0  1  0.14764700  0.72238100  0.99866700  1
  H  H1  1  0.64764700  0.27761900  0.50133300  1
  H  H2  1  0.85235300  0.27761900  0.00133300  1
  H  H3  1  0.35235300  0.72238100  0.49866700  1
  O  O0  1  0.07928100  0.72951600  0.94712200  1
  O  O1  1  0.57928100  0.27048400  0.55287800  1
  O  O2  1  0.92071900  0.27048400  0.05287800  1
  O  O3  1  0.42071900  0.72951600  0.44712200  1
  O  O4  1  0.07000800  0.31997400  0.44667900  1
  O  O5  1  0.57000800  0.68002600  0.05332100  1
  O  O6  1  0.92999200  0.68002600  0.55332100  1
  O  O7  1  0.42999200  0.31997400  0.94667900  1
  O  O8  1  0.26139900  0.24385000  0.32106900  1
  O  O9  1  0.76139900  0.75615000  0.17893100  1
  O  O10  1  0.73860100  0.75615000  0.67893100  1
  O  O11  1  0.23860100  0.24385000  0.82106900  1
  O  O12  1  0.16035000  0.77323800  0.56933700  1
  O  O13  1  0.66035000  0.22676200  0.93066300  1
  O  O14  1  0.83965000  0.22676200  0.43066300  1
  O  O15  1  0.33965000  0.77323800  0.06933700  1
  O  O16  1  0.09703800  0.02679800  0.19270200  1
  O  O17  1  0.59703800  0.97320200  0.30729800  1
  O  O18  1  0.90296200  0.97320200  0.80729800  1
  O  O19  1  0.40296200  0.02679800  0.69270200  1
loop_
_geom_bond_atom_site_label_1
_geom_bond_atom_site_label_2
_geom_bond_distance
_geom_bond_site_symmetry_2
La0 O11 2.450825 1_555
La0 O0 2.505514 1_555
La0 O2 2.521887 1_456
La0 O12 2.551607 1_555
La0 O6 2.568767 1_455
La0 O4 2.603879 1_555
La0 O18 2.668004 1_445
La0 O0 2.716929 1_545
La0 O16 2.755845 1_556
La1 O10 2.450825 1_555
La1 O1 2.505514 1_555
La1 O3 2.521887 1_555
La1 O13 2.551607 1_555
La1 O7 2.568767 1_555
La1 O5 2.603879 1_556
La1 O19 2.668004 1_565
La1 O1 2.716929 1_565
La1 O17 2.755845 1_555
La2 O9 2.450825 1_555
La2 O2 2.505514 1_555
La2 O0 2.521887 1_654
La2 O14 2.551607 1_555
La2 O4 2.568767 1_655
La2 O6 2.603879 1_555
La2 O16 2.668004 1_665
La2 O2 2.716929 1_565
La2 O18 2.755845 1_554
La3 O8 2.450825 1_555
La3 O3 2.505514 1_555
La3 O1 2.521887 1_555
La3 O15 2.551607 1_555
La3 O5 2.568767 1_555
La3 O7 2.603879 1_554
La3 O17 2.668004 1_545
La3 O3 2.716929 1_545
La3 O19 2.755845 1_555
Cr0 O15 1.635476 1_546
Cr0 O11 1.653947 1_555
Cr0 O19 1.666028 1_555
Cr0 O7 1.703622 1_555
Cr1 O14 1.635476 1_565
Cr1 O10 1.653947 1_555
Cr1 O18 1.666028 1_555
Cr1 O6 1.703622 1_555
Cr2 O13 1.635476 1_564
Cr2 O9 1.653947 1_555
Cr2 O17 1.666028 1_555
Cr2 O5 1.703622 1_555
Cr3 O12 1.635476 1_545
Cr3 O8 1.653947 1_555
Cr3 O16 1.666028 1_555
Cr3 O4 1.703622 1_555
H0 O0 0.978849 1_555
H1 O1 0.978849 1_555
H2 O2 0.978849 1_555
H3 O3 0.978849 1_555
