# generated using pymatgen
data_Na2HfZrSi(PO6)2
_symmetry_space_group_name_H-M   'P 1'
_cell_length_a   9.00809246
_cell_length_b   9.00597123
_cell_length_c   23.19187206
_cell_angle_alpha   90.02200276
_cell_angle_beta   89.96434638
_cell_angle_gamma   119.76477354
_symmetry_Int_Tables_number   1
_chemical_formula_structural   Na2HfZrSi(PO6)2
_chemical_formula_sum   'Na12 Hf6 Zr6 Si6 P12 O72'
_cell_volume   1633.25605792
_cell_formula_units_Z   6
loop_
 _symmetry_equiv_pos_site_id
 _symmetry_equiv_pos_as_xyz
  1  'x, y, z'
loop_
 _atom_site_type_symbol
 _atom_site_label
 _atom_site_symmetry_multiplicity
 _atom_site_fract_x
 _atom_site_fract_y
 _atom_site_fract_z
 _atom_site_occupancy
  Na  Na0  1  0.00020857  0.63359807  0.25030852  1
  Na  Na1  1  0.36689498  0.99957270  0.75051106  1
  Na  Na2  1  0.66431045  0.96852115  0.58493843  1
  Na  Na3  1  0.03174117  0.33566864  0.08481830  1
  Na  Na4  1  0.97233989  0.66933460  0.91829266  1
  Na  Na5  1  0.33059046  0.02804389  0.41819702  1
  Na  Na6  1  0.00343130  0.99720648  0.50020940  1
  Na  Na7  1  0.00289535  0.99649750  0.00009161  1
  Na  Na8  1  0.66504276  0.32784636  0.83373963  1
  Na  Na9  1  0.67184284  0.33465390  0.33349457  1
  Na  Na10  1  0.34226502  0.67017447  0.16666540  1
  Na  Na11  1  0.32991837  0.65760102  0.66686621  1
  Hf  Hf0  1  0.99882246  0.00749510  0.85325623  1
  Hf  Hf1  1  0.66766631  0.33067024  0.18523192  1
  Hf  Hf2  1  0.65958769  0.32940697  0.98070340  1
  Hf  Hf3  1  0.33379342  0.67474864  0.01912156  1
  Hf  Hf4  1  0.33009771  0.65943355  0.31413663  1
  Hf  Hf5  1  0.34087829  0.67039551  0.81485193  1
  Zr  Zr0  1  0.99199876  0.00149831  0.35228380  1
  Zr  Zr1  1  0.00405491  0.99914057  0.64850241  1
  Zr  Zr2  1  0.00099037  0.99573030  0.14772791  1
  Zr  Zr3  1  0.66946828  0.33189464  0.68632163  1
  Zr  Zr4  1  0.67120652  0.34126654  0.48073353  1
  Zr  Zr5  1  0.32460036  0.66609529  0.51915499  1
  Si  Si0  1  -0.00001729  0.29428515  0.24841399  1
  Si  Si1  1  0.70726078  0.99802195  0.74968430  1
  Si  Si2  1  0.37246273  0.04202042  0.58243770  1
  Si  Si3  1  0.95680906  0.62471979  0.08202636  1
  Si  Si4  1  0.33502275  0.96168101  0.91543955  1
  Si  Si5  1  0.03837173  0.66532155  0.41458093  1
  P  P0  1  0.29493619  0.00209848  0.25136006  1
  P  P1  1  0.70586446  0.70755977  0.24959469  1
  P  P2  1  0.28888798  0.29256651  0.75080816  1
  P  P3  1  0.99964443  0.70842279  0.75249383  1
  P  P4  1  0.95882045  0.33360533  0.58349755  1
  P  P5  1  0.66678778  0.62568956  0.58397482  1
  P  P6  1  0.66437087  0.04253377  0.08296077  1
  P  P7  1  0.37762625  0.33483204  0.08340052  1
  P  P8  1  0.62363184  0.66661905  0.91706664  1
  P  P9  1  0.04481368  0.37753031  0.91762272  1
  P  P10  1  0.62219484  0.95515308  0.41709465  1
  P  P11  1  0.33345362  0.37610934  0.41638066  1
  O  O0  1  0.21108922  0.02647129  0.30592013  1
  O  O1  1  0.82359895  0.78810959  0.30272232  1
  O  O2  1  0.97162247  0.17409743  0.30452905  1
  O  O3  1  0.20505568  0.17373989  0.80342207  1
  O  O4  1  0.97690407  0.79540813  0.80644674  1
  O  O5  1  0.82856473  0.02550512  0.80509010  1
  O  O6  1  0.79159055  0.97166545  0.69086323  1
  O  O7  1  0.17981291  0.20681456  0.69681663  1
  O  O8  1  0.03461648  0.82484289  0.69899683  1
  O  O9  1  0.79325094  0.81962859  0.19633393  1
  O  O10  1  0.02792964  0.20790422  0.19045646  1
  O  O11  1  0.17565214  0.96595601  0.19854674  1
  O  O12  1  0.87502245  0.36235650  0.63717860  1
  O  O13  1  0.49385846  0.12884389  0.63977069  1
  O  O14  1  0.64282740  0.51514079  0.63721315  1
  O  O15  1  0.86915412  0.50377148  0.13934820  1
  O  O16  1  0.63674449  0.12667849  0.13685678  1
  O  O17  1  0.48727558  0.35768714  0.13688188  1
  O  O18  1  0.46302914  0.30720843  0.03005200  1
  O  O19  1  0.84320795  0.53303317  0.02460690  1
  O  O20  1  0.69450638  0.15874473  0.03018853  1
  O  O21  1  0.46301842  0.15446499  0.52453348  1
  O  O22  1  0.69483709  0.54165819  0.53023959  1
  O  O23  1  0.84381342  0.30329763  0.53040554  1
  O  O24  1  0.53759101  0.69165393  0.97030151  1
  O  O25  1  0.15311819  0.45840250  0.97258455  1
  O  O26  1  0.30029171  0.83360254  0.97056486  1
  O  O27  1  0.54338101  0.84913752  0.47249791  1
  O  O28  1  0.30841577  0.46016831  0.47007426  1
  O  O29  1  0.16405477  0.70024797  0.47039068  1
  O  O30  1  0.13262536  0.64279968  0.35770752  1
  O  O31  1  0.50752027  0.86818063  0.36435006  1
  O  O32  1  0.36009823  0.48823579  0.36307271  1
  O  O33  1  0.13004467  0.49252944  0.86469427  1
  O  O34  1  0.35823404  0.86860841  0.85817355  1
  O  O35  1  0.51182961  0.63856669  0.86347127  1
  O  O36  1  0.03282772  0.84403404  0.40974342  1
  O  O37  1  0.80159080  0.97578116  0.41089856  1
  O  O38  1  0.17654726  0.19400003  0.40969677  1
  O  O39  1  0.02411545  0.19813989  0.91035645  1
  O  O40  1  0.15628558  0.96759942  0.90929863  1
  O  O41  1  0.80590618  0.82361293  0.90935380  1
  O  O42  1  0.96776595  0.16722973  0.58963381  1
  O  O43  1  0.18318086  0.01962025  0.58879814  1
  O  O44  1  0.82429326  0.80789844  0.58923390  1
  O  O45  1  0.97987547  0.81479865  0.08878162  1
  O  O46  1  0.83094276  0.03297443  0.08934375  1
  O  O47  1  0.19465925  0.17739170  0.08901872  1
  O  O48  1  0.67880667  0.16525414  0.74535160  1
  O  O49  1  0.46619358  0.30485498  0.74413304  1
  O  O50  1  0.84038631  0.53242442  0.74473297  1
  O  O51  1  0.69258683  0.53010855  0.24188542  1
  O  O52  1  0.83296805  0.32204896  0.24341391  1
  O  O53  1  0.47051873  0.16084148  0.24241952  1
  O  O54  1  0.65053382  0.50944328  0.92320401  1
  O  O55  1  0.86723632  0.36528256  0.92421748  1
  O  O56  1  0.50349953  0.14873857  0.92310832  1
  O  O57  1  0.63334083  0.13204400  0.42250438  1
  O  O58  1  0.49090712  0.35002753  0.42132244  1
  O  O59  1  0.85173615  0.49608946  0.42119017  1
  O  O60  1  0.35391442  0.49262900  0.07587706  1
  O  O61  1  0.14304913  0.63080459  0.07647104  1
  O  O62  1  0.50796617  0.86305342  0.07583265  1
  O  O63  1  0.36832099  0.85708586  0.57789863  1
  O  O64  1  0.50932919  0.64896587  0.57708045  1
  O  O65  1  0.13776519  0.49022695  0.57733027  1
  O  O66  1  0.30916237  0.83787868  0.25756961  1
  O  O67  1  0.52986048  0.69097588  0.25744366  1
  O  O68  1  0.16640025  0.48755963  0.25562037  1
  O  O69  1  0.30654530  0.46918604  0.75827416  1
  O  O70  1  0.16336517  0.69336213  0.75840282  1
  O  O71  1  0.51314114  0.83230700  0.75625902  1
loop_
_geom_bond_atom_site_label_1
_geom_bond_atom_site_label_2
_geom_bond_distance
_geom_bond_site_symmetry_2
Na0 O68 2.437520 1_555
Na0 O52 2.443511 1_455
Na0 O51 2.453965 1_455
Na0 O66 2.464794 1_555
Na0 O30 2.745741 1_555
Na0 O15 2.830903 1_455
Na0 O1 2.852948 1_455
Na0 O11 2.863852 1_555
Na1 O49 2.437082 1_565
Na1 O48 2.443856 1_565
Na1 O70 2.445376 1_555
Na1 O71 2.448118 1_555
Na1 O34 2.746334 1_555
Na1 O13 2.817107 1_565
Na1 O8 2.861681 1_555
Na1 O3 2.891059 1_565
Na2 O63 2.342350 1_555
Na2 O42 2.414518 1_565
Na2 O44 2.499901 1_555
Na2 O64 2.505059 1_555
Na2 O6 2.705818 1_555
Na2 O27 2.825115 1_555
Na2 O13 2.873467 1_565
Na2 O23 2.909331 1_565
Na3 O61 2.337040 1_555
Na3 O46 2.412128 1_455
Na3 O47 2.504495 1_555
Na3 O60 2.527848 1_555
Na3 O10 2.700043 1_555
Na3 O25 2.826855 1_554
Na3 O15 2.869514 1_455
Na3 O20 2.927424 1_455
Na4 O40 2.363335 1_655
Na4 O55 2.416506 1_555
Na4 O41 2.508009 1_555
Na4 O54 2.518935 1_555
Na4 O19 2.742310 1_556
Na4 O4 2.824011 1_555
Na4 O26 2.837148 1_655
Na4 O33 2.888076 1_655
Na5 O36 2.359305 1_545
Na5 O57 2.406028 1_555
Na5 O38 2.501593 1_555
Na5 O58 2.518252 1_555
Na5 O21 2.730235 1_555
Na5 O0 2.815614 1_555
Na5 O29 2.834447 1_545
Na5 O31 2.906368 1_545
Na6 O43 2.561833 1_565
Na6 O36 2.595139 1_555
Na6 O44 2.653377 1_455
Na6 O38 2.689622 1_565
Na6 O42 2.689644 1_465
Na6 O37 2.699879 1_455
Na7 O45 2.572285 1_455
Na7 O40 2.600727 1_554
Na7 O47 2.664430 1_565
Na7 O41 2.694513 1_454
Na7 O46 2.700465 1_465
Na7 O39 2.706137 1_564
Na8 O48 2.557188 1_555
Na8 O56 2.585249 1_555
Na8 O54 2.684413 1_555
Na8 O49 2.684434 1_555
Na8 O55 2.688619 1_555
Na8 O50 2.694417 1_555
Na9 O59 2.557112 1_555
Na9 O52 2.577533 1_555
Na9 O58 2.654117 1_555
Na9 O57 2.661732 1_555
Na9 O51 2.706122 1_555
Na9 O53 2.717401 1_555
Na10 O68 2.623407 1_555
Na10 O67 2.648197 1_555
Na10 O61 2.663460 1_555
Na10 O62 2.666010 1_555
Na10 O60 2.676715 1_555
Na10 O66 2.694188 1_555
Na11 O71 2.630810 1_555
Na11 O63 2.643763 1_555
Na11 O65 2.644174 1_555
Na11 O69 2.658047 1_555
Na11 O64 2.659781 1_555
Na11 O70 2.708635 1_555
Hf0 O5 1.968661 1_555
Hf0 O3 2.065349 1_655
Hf0 O40 2.083036 1_645
Hf0 O39 2.088945 1_655
Hf0 O4 2.118969 1_545
Hf0 O41 2.143948 1_545
Hf1 O15 2.011586 1_555
Hf1 O52 2.039957 1_555
Hf1 O16 2.049899 1_555
Hf1 O17 2.086185 1_555
Hf1 O53 2.134003 1_555
Hf1 O51 2.145006 1_555
Hf2 O19 2.030920 1_556
Hf2 O18 2.032510 1_556
Hf2 O56 2.034157 1_555
Hf2 O20 2.064019 1_556
Hf2 O54 2.132360 1_555
Hf2 O55 2.171771 1_555
Hf3 O26 1.958639 1_554
Hf3 O61 2.049484 1_555
Hf3 O24 2.096525 1_554
Hf3 O62 2.103926 1_555
Hf3 O25 2.112358 1_554
Hf3 O60 2.180062 1_555
Hf4 O30 1.985229 1_555
Hf4 O68 2.036356 1_555
Hf4 O32 2.038052 1_555
Hf4 O31 2.112392 1_555
Hf4 O67 2.130111 1_555
Hf4 O66 2.154566 1_555
Hf5 O34 1.985493 1_555
Hf5 O71 2.032990 1_555
Hf5 O35 2.041008 1_555
Hf5 O33 2.118305 1_555
Hf5 O69 2.131494 1_555
Hf5 O70 2.155194 1_555
O0 P0 1.543690 1_555
O0 Zr0 2.158390 1_455
O1 P1 1.551205 1_555
O1 Zr0 2.102743 1_565
O2 Si0 1.629926 1_655
O2 Zr0 1.990323 1_555
O3 P2 1.549803 1_555
O4 P3 1.542593 1_555
O5 Si1 1.624621 1_545
O6 Si1 1.634584 1_555
O6 Zr1 2.053543 1_655
O7 P2 1.541796 1_555
O7 Zr1 2.078641 1_545
O8 P3 1.552557 1_455
O8 Zr1 2.083765 1_555
O9 P1 1.541101 1_555
O9 Zr2 2.083246 1_655
O10 Si0 1.633562 1_555
O10 Zr2 2.056843 1_545
O11 P0 1.553977 1_565
O11 Zr2 2.087557 1_555
O12 P4 1.542545 1_555
O12 Zr3 2.072699 1_555
O13 Si2 1.651445 1_555
O13 Zr3 2.034804 1_555
O14 P5 1.532819 1_555
O14 Zr3 2.115008 1_555
O15 Si3 1.650185 1_555
O16 P6 1.544249 1_555
O17 P7 1.534886 1_555
O18 P7 1.540499 1_555
O19 Si3 1.632249 1_555
O20 P6 1.544483 1_555
O21 Si2 1.635181 1_555
O21 Zr4 2.060468 1_555
O22 P5 1.542197 1_555
O22 Zr4 2.058601 1_555
O23 P4 1.544170 1_555
O23 Zr4 2.095713 1_555
O24 P8 1.532297 1_555
O25 P9 1.549966 1_555
O26 Si4 1.644738 1_555
O27 P10 1.547062 1_555
O27 Zr5 2.131996 1_555
O28 P11 1.530713 1_555
O28 Zr5 2.118134 1_555
O29 Si5 1.644372 1_555
O29 Zr5 1.977144 1_555
O30 Si5 1.634371 1_555
O31 P10 1.540912 1_555
O32 P11 1.538093 1_555
O33 P9 1.542460 1_555
O34 Si4 1.637984 1_555
O35 P8 1.540068 1_555
O36 Si5 1.638737 1_555
O36 Zr0 2.107620 1_465
O37 P10 1.538935 1_555
O37 Zr0 2.108658 1_565
O38 P11 1.552449 1_555
O38 Zr0 2.163701 1_455
O39 P9 1.540787 1_555
O40 Si4 1.643467 1_555
O41 P8 1.556239 1_555
O42 P4 1.546587 1_555
O42 Zr1 2.180806 1_645
O43 Si2 1.621080 1_555
O43 Zr1 2.063216 1_545
O44 P5 1.552129 1_555
O44 Zr1 2.170201 1_655
O45 Si3 1.626285 1_555
O45 Zr2 2.061823 1_655
O46 P6 1.552210 1_555
O46 Zr2 2.192127 1_645
O47 P7 1.556754 1_555
O47 Zr2 2.176914 1_545
O48 Si1 1.651525 1_545
O48 Zr3 2.064129 1_555
O49 P2 1.552874 1_555
O49 Zr3 2.182745 1_555
O50 P3 1.531413 1_555
O50 Zr3 2.169588 1_555
O51 P1 1.552509 1_555
O52 Si0 1.647173 1_655
O53 P0 1.530760 1_555
O54 P8 1.556750 1_555
O55 P9 1.555283 1_655
O56 Si4 1.623119 1_545
O57 P10 1.550728 1_545
O57 Zr4 2.202483 1_555
O58 P11 1.552757 1_555
O58 Zr4 2.161640 1_555
O59 Si5 1.621311 1_655
O59 Zr4 2.059866 1_555
O60 P7 1.548309 1_555
O61 Si3 1.656088 1_455
O62 P6 1.537540 1_565
O63 Si2 1.650633 1_565
O63 Zr5 2.072687 1_555
O64 P5 1.541719 1_555
O64 Zr5 2.203502 1_555
O65 P4 1.533228 1_455
O65 Zr5 2.124533 1_555
O66 P0 1.553334 1_565
O67 P1 1.527638 1_555
O68 Si0 1.647516 1_555
O69 P2 1.527745 1_555
O70 P3 1.552780 1_455
O71 Si1 1.648347 1_555
