# generated using pymatgen
data_HoAsSe
_symmetry_space_group_name_H-M   'P 1'
_cell_length_a   3.89924600
_cell_length_b   3.91757900
_cell_length_c   8.76156200
_cell_angle_alpha   90.00000000
_cell_angle_beta   90.00000000
_cell_angle_gamma   90.00000000
_symmetry_Int_Tables_number   1
_chemical_formula_structural   HoAsSe
_chemical_formula_sum   'Ho2 As2 Se2'
_cell_volume   133.83815368
_cell_formula_units_Z   2
loop_
 _symmetry_equiv_pos_site_id
 _symmetry_equiv_pos_as_xyz
  1  'x, y, z'
loop_
 _atom_site_type_symbol
 _atom_site_label
 _atom_site_symmetry_multiplicity
 _atom_site_fract_x
 _atom_site_fract_y
 _atom_site_fract_z
 _atom_site_occupancy
  Ho  Ho0  1  0.75000000  0.25000000  0.72170000  1
  Ho  Ho1  1  0.25000000  0.75000000  0.27830000  1
  As  As0  1  0.25000000  0.25000000  0.00204600  1
  As  As1  1  0.75000000  0.75000000  0.99795400  1
  Se  Se0  1  0.75000000  0.25000000  0.37565400  1
  Se  Se1  1  0.25000000  0.75000000  0.62434600  1
loop_
_geom_bond_atom_site_label_1
_geom_bond_atom_site_label_2
_geom_bond_distance
_geom_bond_site_symmetry_2
Ho0 Se1 2.892309 1_555
Ho0 Se1 2.892309 1_655
Ho0 Se1 2.892309 1_545
Ho0 Se1 2.892309 1_645
Ho0 Se0 3.031903 1_555
Ho1 Se0 2.892309 1_555
Ho1 Se0 2.892309 1_455
Ho1 Se0 2.892309 1_565
Ho1 Se0 2.892309 1_465
Ho1 Se1 3.031903 1_555
As0 As1 2.763905 1_454
As0 As1 2.763905 1_544
As0 As1 2.763905 1_444
As0 As1 2.763905 1_554
As0 Ho1 3.113723 1_545
As0 Ho1 3.113723 1_555
As0 Ho0 3.135967 1_454
As0 Ho0 3.135967 1_554
As1 Ho0 3.113723 1_555
As1 Ho0 3.113723 1_565
As1 Ho1 3.135967 1_556
As1 Ho1 3.135967 1_656
