# generated using pymatgen
data_Ca2Al3Si3HO13
_symmetry_space_group_name_H-M   'P 1'
_cell_length_a   5.60632600
_cell_length_b   10.11876500
_cell_length_c   16.37346200
_cell_angle_alpha   90.00000000
_cell_angle_beta   90.00000000
_cell_angle_gamma   90.00000000
_symmetry_Int_Tables_number   1
_chemical_formula_structural   Ca2Al3Si3HO13
_chemical_formula_sum   'Ca8 Al12 Si12 H4 O52'
_cell_volume   928.85168631
_cell_formula_units_Z   4
loop_
 _symmetry_equiv_pos_site_id
 _symmetry_equiv_pos_as_xyz
  1  'x, y, z'
loop_
 _atom_site_type_symbol
 _atom_site_label
 _atom_site_symmetry_multiplicity
 _atom_site_fract_x
 _atom_site_fract_y
 _atom_site_fract_z
 _atom_site_occupancy
  Ca  Ca0  1  0.25000000  0.38390500  0.95086100  1
  Ca  Ca1  1  0.75000000  0.61609500  0.04913900  1
  Ca  Ca2  1  0.75000000  0.88390500  0.54913900  1
  Ca  Ca3  1  0.25000000  0.11609500  0.45086100  1
  Ca  Ca4  1  0.25000000  0.06431200  0.86697200  1
  Ca  Ca5  1  0.75000000  0.93568800  0.13302800  1
  Ca  Ca6  1  0.75000000  0.56431200  0.63302800  1
  Ca  Ca7  1  0.25000000  0.43568800  0.36697200  1
  Al  Al0  1  0.75000000  0.19950700  0.60621100  1
  Al  Al1  1  0.25000000  0.80049300  0.39378900  1
  Al  Al2  1  0.25000000  0.69950700  0.89378900  1
  Al  Al3  1  0.75000000  0.30049300  0.10621100  1
  Al  Al4  1  0.49669800  0.68918500  0.25070500  1
  Al  Al5  1  0.99669800  0.31081500  0.74929500  1
  Al  Al6  1  0.50330200  0.18918500  0.24929500  1
  Al  Al7  1  0.00330200  0.81081500  0.75070500  1
  Al  Al8  1  0.50330200  0.31081500  0.74929500  1
  Al  Al9  1  0.00330200  0.68918500  0.25070500  1
  Al  Al10  1  0.49669800  0.81081500  0.75070500  1
  Al  Al11  1  0.99669800  0.18918500  0.24929500  1
  Si  Si0  1  0.25000000  0.06507000  0.66029200  1
  Si  Si1  1  0.75000000  0.93493000  0.33970800  1
  Si  Si2  1  0.75000000  0.56507000  0.83970800  1
  Si  Si3  1  0.25000000  0.43493000  0.16029200  1
  Si  Si4  1  0.75000000  0.21797900  0.91076800  1
  Si  Si5  1  0.25000000  0.78202100  0.08923200  1
  Si  Si6  1  0.25000000  0.71797900  0.58923200  1
  Si  Si7  1  0.75000000  0.28202100  0.41076800  1
  Si  Si8  1  0.25000000  0.39311600  0.58157800  1
  Si  Si9  1  0.75000000  0.60688400  0.41842200  1
  Si  Si10  1  0.75000000  0.89311600  0.91842200  1
  Si  Si11  1  0.25000000  0.10688400  0.08157800  1
  H  H0  1  0.25000000  0.52420100  0.76869400  1
  H  H1  1  0.75000000  0.47579900  0.23130600  1
  H  H2  1  0.75000000  0.02420100  0.73130600  1
  H  H3  1  0.25000000  0.97579900  0.26869400  1
  O  O0  1  0.25000000  0.42601000  0.76630700  1
  O  O1  1  0.75000000  0.57399000  0.23369300  1
  O  O2  1  0.75000000  0.92601000  0.73369300  1
  O  O3  1  0.25000000  0.07399000  0.26630700  1
  O  O4  1  0.75000000  0.05613200  0.91956400  1
  O  O5  1  0.25000000  0.94386800  0.08043600  1
  O  O6  1  0.25000000  0.55613200  0.58043600  1
  O  O7  1  0.75000000  0.44386800  0.41956400  1
  O  O8  1  0.75000000  0.20604600  0.49690700  1
  O  O9  1  0.25000000  0.79395400  0.50309300  1
  O  O10  1  0.25000000  0.70604600  0.00309300  1
  O  O11  1  0.75000000  0.29395400  0.99690700  1
  O  O12  1  0.25000000  0.33644300  0.49090000  1
  O  O13  1  0.75000000  0.66355700  0.50910000  1
  O  O14  1  0.75000000  0.83644300  0.00910000  1
  O  O15  1  0.25000000  0.16355700  0.99090000  1
  O  O16  1  0.75000000  0.44060100  0.77135600  1
  O  O17  1  0.25000000  0.55939900  0.22864400  1
  O  O18  1  0.25000000  0.94060100  0.72864400  1
  O  O19  1  0.75000000  0.05939900  0.27135600  1
  O  O20  1  0.25000000  0.18850300  0.72824500  1
  O  O21  1  0.75000000  0.81149700  0.27175500  1
  O  O22  1  0.75000000  0.68850300  0.77175500  1
  O  O23  1  0.25000000  0.31149700  0.22824500  1
  O  O24  1  0.75000000  0.19899100  0.71892800  1
  O  O25  1  0.25000000  0.80100900  0.28107200  1
  O  O26  1  0.25000000  0.69899100  0.78107200  1
  O  O27  1  0.75000000  0.30100900  0.21892800  1
  O  O28  1  0.49096500  0.74335600  0.14100100  1
  O  O29  1  0.99096500  0.25664400  0.85899900  1
  O  O30  1  0.50903500  0.24335600  0.35899900  1
  O  O31  1  0.00903500  0.75664400  0.64100100  1
  O  O32  1  0.50903500  0.25664400  0.85899900  1
  O  O33  1  0.00903500  0.74335600  0.14100100  1
  O  O34  1  0.49096500  0.75664400  0.64100100  1
  O  O35  1  0.99096500  0.24335600  0.35899900  1
  O  O36  1  0.51225500  0.93004100  0.39838600  1
  O  O37  1  0.01225500  0.06995900  0.60161400  1
  O  O38  1  0.48774500  0.43004100  0.10161400  1
  O  O39  1  0.98774500  0.56995900  0.89838600  1
  O  O40  1  0.48774500  0.06995900  0.60161400  1
  O  O41  1  0.98774500  0.93004100  0.39838600  1
  O  O42  1  0.51225500  0.56995900  0.89838600  1
  O  O43  1  0.01225500  0.43004100  0.10161400  1
  O  O44  1  0.49743700  0.64690900  0.36994500  1
  O  O45  1  0.99743700  0.35309100  0.63005500  1
  O  O46  1  0.50256300  0.14690900  0.13005500  1
  O  O47  1  0.00256300  0.85309100  0.86994500  1
  O  O48  1  0.50256300  0.35309100  0.63005500  1
  O  O49  1  0.00256300  0.64690900  0.36994500  1
  O  O50  1  0.49743700  0.85309100  0.86994500  1
  O  O51  1  0.99743700  0.14690900  0.13005500  1
loop_
_geom_bond_atom_site_label_1
_geom_bond_atom_site_label_2
_geom_bond_distance
_geom_bond_site_symmetry_2
Ca0 O15 2.324031 1_555
Ca0 O29 2.455511 1_455
Ca0 O32 2.455511 1_555
Ca0 O39 2.538560 1_455
Ca0 O42 2.538560 1_555
Ca0 O38 2.843808 1_556
Ca0 O43 2.843808 1_556
Ca1 O14 2.324031 1_555
Ca1 O33 2.455511 1_655
Ca1 O28 2.455511 1_555
Ca1 O43 2.538560 1_655
Ca1 O38 2.538560 1_555
Ca1 O42 2.843808 1_554
Ca1 O39 2.843808 1_554
Ca2 O13 2.324031 1_555
Ca2 O31 2.455511 1_655
Ca2 O34 2.455511 1_555
Ca2 O40 2.538560 1_565
Ca2 O37 2.538560 1_665
Ca2 O36 2.843808 1_555
Ca2 O41 2.843808 1_555
Ca3 O12 2.324031 1_555
Ca3 O35 2.455511 1_455
Ca3 O30 2.455511 1_555
Ca3 O36 2.538560 1_545
Ca3 O41 2.538560 1_445
Ca3 O40 2.843808 1_555
Ca3 O37 2.843808 1_555
Ca4 O15 2.264037 1_555
Ca4 O29 2.431784 1_455
Ca4 O32 2.431784 1_555
Ca4 O50 2.548482 1_545
Ca4 O47 2.548482 1_545
Ca4 O18 2.587821 1_545
Ca4 O20 2.595889 1_555
Ca4 O4 2.933614 1_455
Ca4 O4 2.933614 1_555
Ca5 O14 2.264037 1_555
Ca5 O33 2.431784 1_655
Ca5 O28 2.431784 1_555
Ca5 O51 2.548482 1_565
Ca5 O46 2.548482 1_565
Ca5 O19 2.587821 1_565
Ca5 O21 2.595889 1_555
Ca5 O5 2.933614 1_555
Ca5 O5 2.933614 1_655
Ca6 O13 2.264037 1_555
Ca6 O31 2.431784 1_655
Ca6 O34 2.431784 1_555
Ca6 O45 2.548482 1_555
Ca6 O48 2.548482 1_555
Ca6 O16 2.587821 1_555
Ca6 O22 2.595889 1_555
Ca6 O6 2.933614 1_555
Ca6 O6 2.933614 1_655
Ca7 O12 2.264037 1_555
Ca7 O35 2.431784 1_455
Ca7 O30 2.431784 1_555
Ca7 O44 2.548482 1_555
Ca7 O49 2.548482 1_555
Ca7 O17 2.587821 1_555
Ca7 O23 2.595889 1_555
Ca7 O7 2.933614 1_455
Ca7 O7 2.933614 1_555
Al0 O8 1.790908 1_555
Al0 O24 1.845575 1_555
Al0 O37 1.971238 1_655
Al0 O40 1.971238 1_555
Al0 O45 2.119421 1_555
Al0 O48 2.119421 1_555
Al1 O9 1.790908 1_555
Al1 O25 1.845575 1_555
Al1 O41 1.971238 1_455
Al1 O36 1.971238 1_555
Al1 O44 2.119421 1_555
Al1 O49 2.119421 1_555
Al2 O10 1.790908 1_556
Al2 O26 1.845575 1_555
Al2 O39 1.971238 1_455
Al2 O42 1.971238 1_555
Al2 O50 2.119421 1_555
Al2 O47 2.119421 1_555
Al3 O11 1.790908 1_554
Al3 O27 1.845575 1_555
Al3 O43 1.971238 1_655
Al3 O38 1.971238 1_555
Al3 O51 2.119421 1_555
Al3 O46 2.119421 1_555
Al4 O25 1.854843 1_555
Al4 O1 1.858211 1_555
Al4 O28 1.878284 1_555
Al4 O21 1.915000 1_555
Al4 O17 1.941146 1_555
Al4 O44 1.998692 1_555
Al5 O24 1.854843 1_555
Al5 O0 1.858211 1_655
Al5 O29 1.878284 1_555
Al5 O20 1.915000 1_655
Al5 O16 1.941146 1_555
Al5 O45 1.998692 1_555
Al6 O27 1.854843 1_555
Al6 O3 1.858211 1_555
Al6 O30 1.878284 1_555
Al6 O23 1.915000 1_555
Al6 O19 1.941146 1_555
Al6 O46 1.998692 1_555
Al7 O26 1.854843 1_555
Al7 O2 1.858211 1_455
Al7 O31 1.878284 1_555
Al7 O22 1.915000 1_455
Al7 O18 1.941146 1_555
Al7 O47 1.998692 1_555
Al8 O24 1.854843 1_555
Al8 O0 1.858211 1_555
Al8 O32 1.878284 1_555
Al8 O20 1.915000 1_555
Al8 O16 1.941146 1_555
Al8 O48 1.998692 1_555
Al9 O25 1.854843 1_555
Al9 O1 1.858211 1_455
Al9 O33 1.878284 1_555
Al9 O21 1.915000 1_455
Al9 O17 1.941146 1_555
Al9 O49 1.998692 1_555
Al10 O26 1.854843 1_555
Al10 O2 1.858211 1_555
Al10 O34 1.878284 1_555
Al10 O22 1.915000 1_555
Al10 O18 1.941146 1_555
Al10 O50 1.998692 1_555
Al11 O27 1.854843 1_555
Al11 O3 1.858211 1_655
Al11 O35 1.878284 1_555
Al11 O23 1.915000 1_655
Al11 O19 1.941146 1_555
Al11 O51 1.998692 1_555
H0 O0 0.994340 1_555
H1 O1 0.994340 1_555
H2 O2 0.994340 1_545
H3 O3 0.994340 1_565
O4 Si4 1.644012 1_555
O4 Si10 1.649627 1_545
O5 Si5 1.644012 1_555
O5 Si11 1.649627 1_565
O6 Si6 1.644012 1_555
O6 Si8 1.649627 1_555
O7 Si7 1.644012 1_555
O7 Si9 1.649627 1_555
O8 Si7 1.606307 1_555
O9 Si6 1.606307 1_555
O10 Si5 1.606307 1_555
O11 Si4 1.606307 1_555
O12 Si8 1.591612 1_555
O13 Si9 1.591612 1_555
O14 Si10 1.591612 1_554
O15 Si11 1.591612 1_556
O16 Si2 1.684870 1_555
O17 Si3 1.684870 1_555
O18 Si0 1.684870 1_565
O19 Si1 1.684870 1_545
O20 Si0 1.672696 1_555
O21 Si1 1.672696 1_555
O22 Si2 1.672696 1_555
O23 Si3 1.672696 1_555
O28 Si5 1.642123 1_555
O29 Si4 1.642123 1_555
O30 Si7 1.642123 1_555
O31 Si6 1.642123 1_555
O32 Si4 1.642123 1_555
O33 Si5 1.642123 1_555
O34 Si6 1.642123 1_555
O35 Si7 1.642123 1_555
O36 Si1 1.643797 1_555
O37 Si0 1.643797 1_555
O38 Si3 1.643797 1_555
O39 Si2 1.643797 1_555
O40 Si0 1.643797 1_555
O41 Si1 1.643797 1_555
O42 Si2 1.643797 1_555
O43 Si3 1.643797 1_555
O44 Si9 1.673010 1_555
O45 Si8 1.673010 1_655
O46 Si11 1.673010 1_555
O47 Si10 1.673010 1_455
O48 Si8 1.673010 1_555
O49 Si9 1.673010 1_455
O50 Si10 1.673010 1_555
O51 Si11 1.673010 1_655
