# generated using pymatgen
data_Na14Zr4Sc4Si9(SO16)3
_symmetry_space_group_name_H-M   'P 1'
_cell_length_a   18.44788937
_cell_length_b   9.21915167
_cell_length_c   22.87075334
_cell_angle_alpha   90.06276388
_cell_angle_beta   90.03862519
_cell_angle_gamma   119.95811377
_symmetry_Int_Tables_number   1
_chemical_formula_structural   Na14Zr4Sc4Si9(SO16)3
_chemical_formula_sum   'Na42 Zr12 Sc12 Si27 S9 O144'
_cell_volume   3370.01011746
_cell_formula_units_Z   3
loop_
 _symmetry_equiv_pos_site_id
 _symmetry_equiv_pos_as_xyz
  1  'x, y, z'
loop_
 _atom_site_type_symbol
 _atom_site_label
 _atom_site_symmetry_multiplicity
 _atom_site_fract_x
 _atom_site_fract_y
 _atom_site_fract_z
 _atom_site_occupancy
  Na  Na0  1  0.81834014  0.00629849  0.25442297  1
  Na  Na1  1  0.17522954  0.35622480  0.25372569  1
  Na  Na2  1  0.69190914  0.37047678  0.25314252  1
  Na  Na3  1  0.99649954  0.62945784  0.24653193  1
  Na  Na4  1  0.50362890  0.64871184  0.25063019  1
  Na  Na5  1  0.31798963  0.62867951  0.75182752  1
  Na  Na6  1  0.00096299  0.35540227  0.74492904  1
  Na  Na7  1  0.49758822  0.36476673  0.74407209  1
  Na  Na8  1  0.19032669  0.01377506  0.74982208  1
  Na  Na9  1  0.68041184  0.99982315  0.74977073  1
  Na  Na10  1  0.14724473  0.32281952  0.58267386  1
  Na  Na11  1  0.65101110  0.33205961  0.58206875  1
  Na  Na12  1  0.33552163  0.98711663  0.58593629  1
  Na  Na13  1  0.83312860  0.97058875  0.58209905  1
  Na  Na14  1  0.14336887  0.96527562  0.08122367  1
  Na  Na15  1  0.65081156  0.97415354  0.08044063  1
  Na  Na16  1  0.33313651  0.68633788  0.08177816  1
  Na  Na17  1  0.83557193  0.68459088  0.08602094  1
  Na  Na18  1  0.48185330  0.68102253  0.91514224  1
  Na  Na19  1  0.98170809  0.67817211  0.92153692  1
  Na  Na20  1  0.34531076  0.02228442  0.90889930  1
  Na  Na21  1  0.84428484  0.02179962  0.91116258  1
  Na  Na22  1  0.17125820  0.29555593  0.91111903  1
  Na  Na23  1  0.66935075  0.29205943  0.91153237  1
  Na  Na24  1  0.48436740  0.29130413  0.42468556  1
  Na  Na25  1  0.97861913  0.28107874  0.41918832  1
  Na  Na26  1  0.16855684  0.04669180  0.41430745  1
  Na  Na27  1  0.67529490  0.05065536  0.41636436  1
  Na  Na28  1  0.34498565  0.66649966  0.41409633  1
  Na  Na29  1  0.84470721  0.66520299  0.41816351  1
  Na  Na30  1  0.99802007  0.99750562  0.50031103  1
  Na  Na31  1  0.50533722  0.01429518  0.50168580  1
  Na  Na32  1  0.00302116  0.99344902  0.99987417  1
  Na  Na33  1  0.50400657  0.99792788  0.99558841  1
  Na  Na34  1  0.32904466  0.33343817  0.82666177  1
  Na  Na35  1  0.82321418  0.32835614  0.83090989  1
  Na  Na36  1  0.32367288  0.31599676  0.33699050  1
  Na  Na37  1  0.82849237  0.32345471  0.33235007  1
  Na  Na38  1  0.15805749  0.65344475  0.16942635  1
  Na  Na39  1  0.66506254  0.66010467  0.16950698  1
  Na  Na40  1  0.16285201  0.66745734  0.66800869  1
  Na  Na41  1  0.66379771  0.66370597  0.66489928  1
  Zr  Zr0  1  0.99826660  0.00529152  0.64479142  1
  Zr  Zr1  1  0.50478366  0.00684460  0.65157335  1
  Zr  Zr2  1  0.00388660  0.00268497  0.15192854  1
  Zr  Zr3  1  0.50335926  0.99159861  0.14815482  1
  Zr  Zr4  1  0.82877078  0.32715191  0.68150639  1
  Zr  Zr5  1  0.33060475  0.34305921  0.18545995  1
  Zr  Zr6  1  0.16329947  0.66442556  0.01817868  1
  Zr  Zr7  1  0.66587568  0.66505627  0.01859162  1
  Zr  Zr8  1  0.16513820  0.66614647  0.51882591  1
  Zr  Zr9  1  0.66978742  0.66114557  0.52170217  1
  Zr  Zr10  1  0.17588274  0.67447536  0.31116724  1
  Zr  Zr11  1  0.67686747  0.67921025  0.80979078  1
  Sc  Sc0  1  0.99870761  0.00909815  0.34858761  1
  Sc  Sc1  1  0.50236881  0.00186766  0.35120790  1
  Sc  Sc2  1  0.00160393  0.00101480  0.84886292  1
  Sc  Sc3  1  0.49947768  0.98976767  0.84746123  1
  Sc  Sc4  1  0.33566019  0.32296004  0.68641860  1
  Sc  Sc5  1  0.83596582  0.34861829  0.18687624  1
  Sc  Sc6  1  0.32760226  0.34203506  0.98155115  1
  Sc  Sc7  1  0.82648291  0.34207129  0.98382771  1
  Sc  Sc8  1  0.32747944  0.31257548  0.48395902  1
  Sc  Sc9  1  0.82837546  0.32641107  0.48527326  1
  Sc  Sc10  1  0.67854498  0.68019440  0.31657132  1
  Sc  Sc11  1  0.17796602  0.67649252  0.81471743  1
  Si  Si0  1  0.14840165  0.00007477  0.25225307  1
  Si  Si1  1  0.64853637  0.99611778  0.25196968  1
  Si  Si2  1  0.35625684  0.71147373  0.25040006  1
  Si  Si3  1  0.85317392  0.70805465  0.25082679  1
  Si  Si4  1  0.99825474  0.29567016  0.25099626  1
  Si  Si5  1  0.14682681  0.29731750  0.75101112  1
  Si  Si6  1  0.64869436  0.29539590  0.75334688  1
  Si  Si7  1  0.49825331  0.70100475  0.75139699  1
  Si  Si8  1  0.35338221  0.99893496  0.75111345  1
  Si  Si9  1  0.85704646  0.00897419  0.75126668  1
  Si  Si10  1  0.47917034  0.33251997  0.58317848  1
  Si  Si11  1  0.98090349  0.34045781  0.58286422  1
  Si  Si12  1  0.18623785  0.03741405  0.58465765  1
  Si  Si13  1  0.68220532  0.03338282  0.58153478  1
  Si  Si14  1  0.83663069  0.62661206  0.58045638  1
  Si  Si15  1  0.48106811  0.62298909  0.08269893  1
  Si  Si16  1  0.98009136  0.62636356  0.08321364  1
  Si  Si17  1  0.18277156  0.33255193  0.08181884  1
  Si  Si18  1  0.68470107  0.33397824  0.08482988  1
  Si  Si19  1  0.31595352  0.67071956  0.91778776  1
  Si  Si20  1  0.81555900  0.66871687  0.91754405  1
  Si  Si21  1  0.16737106  0.96332982  0.91543752  1
  Si  Si22  1  0.66772379  0.96521615  0.91746901  1
  Si  Si23  1  0.31559238  0.96285830  0.41744930  1
  Si  Si24  1  0.81659319  0.96640187  0.41702761  1
  Si  Si25  1  0.16769746  0.37010395  0.41685110  1
  Si  Si26  1  0.66658136  0.37006713  0.41418213  1
  S  S0  1  0.49860752  0.29110296  0.25043179  1
  S  S1  1  0.99948383  0.70549174  0.75148025  1
  S  S2  1  0.33408715  0.62561249  0.58227549  1
  S  S3  1  0.33449871  0.04421644  0.08205774  1
  S  S4  1  0.83433805  0.04273172  0.08227925  1
  S  S5  1  0.01967087  0.37325398  0.91546117  1
  S  S6  1  0.51977370  0.37360305  0.91666661  1
  S  S7  1  0.02085015  0.66631728  0.41527719  1
  S  S8  1  0.52039727  0.66630705  0.41541041  1
  O  O0  1  0.10813337  0.03914242  0.30887518  1
  O  O1  1  0.60276591  0.02965548  0.30726554  1
  O  O2  1  0.41391736  0.79389173  0.30761757  1
  O  O3  1  0.91277155  0.79512761  0.30744531  1
  O  O4  1  0.48683301  0.19204256  0.30399260  1
  O  O5  1  0.98319126  0.18179419  0.30909441  1
  O  O6  1  0.10384399  0.17795399  0.80892634  1
  O  O7  1  0.60574235  0.17774905  0.81046401  1
  O  O8  1  0.48239726  0.78231388  0.81045564  1
  O  O9  1  0.98839947  0.78232509  0.80547241  1
  O  O10  1  0.41094962  0.02840460  0.80912645  1
  O  O11  1  0.91267208  0.03268793  0.80983858  1
  O  O12  1  0.39630990  0.96618918  0.69308143  1
  O  O13  1  0.89989219  0.98052001  0.69349834  1
  O  O14  1  0.08644836  0.20179815  0.69426384  1
  O  O15  1  0.59050899  0.21008575  0.69421998  1
  O  O16  1  0.01223427  0.81314906  0.70022819  1
  O  O17  1  0.51750601  0.83180330  0.69704740  1
  O  O18  1  0.39798394  0.82114810  0.19115478  1
  O  O19  1  0.89623120  0.82560129  0.19204718  1
  O  O20  1  0.01843037  0.20498401  0.19603447  1
  O  O21  1  0.51010521  0.20677953  0.19876729  1
  O  O22  1  0.09117588  0.97130190  0.19261917  1
  O  O23  1  0.58745232  0.96954241  0.19373843  1
  O  O24  1  0.43645227  0.35548498  0.64186871  1
  O  O25  1  0.93803221  0.36183598  0.64269803  1
  O  O26  1  0.24529818  0.12245701  0.64156912  1
  O  O27  1  0.74220320  0.12032735  0.64010581  1
  O  O28  1  0.32118526  0.52356623  0.63484915  1
  O  O29  1  0.81875221  0.50240247  0.63657318  1
  O  O30  1  0.43675237  0.51228046  0.14163996  1
  O  O31  1  0.93802834  0.51808787  0.14165482  1
  O  O32  1  0.32270584  0.12623169  0.13385579  1
  O  O33  1  0.82121919  0.11878456  0.13474748  1
  O  O34  1  0.24424046  0.36230178  0.13934041  1
  O  O35  1  0.74323024  0.36360639  0.14152576  1
  O  O36  1  0.22716984  0.30005729  0.02551369  1
  O  O37  1  0.72381765  0.29504989  0.02607499  1
  O  O38  1  0.42247508  0.53624297  0.02585094  1
  O  O39  1  0.92378581  0.53808911  0.02449325  1
  O  O40  1  0.34501358  0.14050212  0.02847736  1
  O  O41  1  0.84353895  0.13992209  0.02886326  1
  O  O42  1  0.22590881  0.15279827  0.52559875  1
  O  O43  1  0.72494060  0.15342799  0.52495820  1
  O  O44  1  0.34337446  0.54680247  0.52882559  1
  O  O45  1  0.84770429  0.54470673  0.52105847  1
  O  O46  1  0.42167540  0.30454497  0.52464770  1
  O  O47  1  0.92347650  0.30721961  0.52533048  1
  O  O48  1  0.26672456  0.69157929  0.97513461  1
  O  O49  1  0.76975828  0.69554214  0.97565395  1
  O  O50  1  0.07423485  0.45675964  0.96763263  1
  O  O51  1  0.57440204  0.45895735  0.96859959  1
  O  O52  1  0.15234201  0.84212769  0.97357386  1
  O  O53  1  0.65322348  0.84330670  0.97488388  1
  O  O54  1  0.26982448  0.84360730  0.47489229  1
  O  O55  1  0.76662381  0.84286006  0.47282053  1
  O  O56  1  0.15395427  0.46521908  0.47367263  1
  O  O57  1  0.64925712  0.45842700  0.47141768  1
  O  O58  1  0.07502872  0.69053665  0.46744854  1
  O  O59  1  0.57415074  0.69162422  0.46671976  1
  O  O60  1  0.06089241  0.64315784  0.36260508  1
  O  O61  1  0.55690618  0.63913017  0.36172489  1
  O  O62  1  0.25069308  0.86871093  0.36295319  1
  O  O63  1  0.75689863  0.88180615  0.35892547  1
  O  O64  1  0.17982383  0.49044945  0.35982524  1
  O  O65  1  0.67638019  0.48505599  0.35680193  1
  O  O66  1  0.05738375  0.47627815  0.86309160  1
  O  O67  1  0.55729634  0.47659281  0.86405285  1
  O  O68  1  0.17850143  0.86810842  0.85899962  1
  O  O69  1  0.67949129  0.86766325  0.86120825  1
  O  O70  1  0.25507665  0.63255463  0.86097415  1
  O  O71  1  0.74977162  0.63148777  0.86391119  1
  O  O72  1  0.01408581  0.81933886  0.41206122  1
  O  O73  1  0.51233372  0.81965703  0.41123008  1
  O  O74  1  0.40682875  0.97529295  0.41079515  1
  O  O75  1  0.90707631  0.97231339  0.41384179  1
  O  O76  1  0.08520176  0.18363806  0.41407429  1
  O  O77  1  0.58197340  0.18182761  0.41129521  1
  O  O78  1  0.01345118  0.20638278  0.91230561  1
  O  O79  1  0.51300822  0.20726388  0.91356942  1
  O  O80  1  0.08350097  0.98334235  0.91313498  1
  O  O81  1  0.58491243  0.98654722  0.91506886  1
  O  O82  1  0.40678972  0.84296004  0.91556226  1
  O  O83  1  0.90718655  0.83844443  0.91187506  1
  O  O84  1  0.48529408  0.15775277  0.58732045  1
  O  O85  1  0.99002708  0.16971293  0.58805760  1
  O  O86  1  0.09465924  0.02321009  0.59103031  1
  O  O87  1  0.59176285  0.02501723  0.58818613  1
  O  O88  1  0.40625290  0.79770446  0.58693777  1
  O  O89  1  0.91434728  0.81741618  0.58866294  1
  O  O90  1  0.48612759  0.80981727  0.08795326  1
  O  O91  1  0.98728231  0.81432566  0.08658380  1
  O  O92  1  0.40697659  0.01754618  0.08874352  1
  O  O93  1  0.90648347  0.01453514  0.08679380  1
  O  O94  1  0.09246982  0.16191766  0.08770555  1
  O  O95  1  0.59105908  0.16525864  0.09078598  1
  O  O96  1  0.34352163  0.16576222  0.74721376  1
  O  O97  1  0.84906955  0.17912554  0.74711348  1
  O  O98  1  0.24020530  0.32101636  0.74432060  1
  O  O99  1  0.73988672  0.30664954  0.74600978  1
  O  O100  1  0.41450327  0.51899997  0.74408968  1
  O  O101  1  0.92544238  0.53609538  0.74602937  1
  O  O102  1  0.34871521  0.52330553  0.24489153  1
  O  O103  1  0.84323608  0.52139410  0.24612721  1
  O  O104  1  0.42383369  0.31129834  0.24380432  1
  O  O105  1  0.91455319  0.30982588  0.24322292  1
  O  O106  1  0.24119156  0.16849454  0.24202523  1
  O  O107  1  0.74054943  0.15904423  0.24347925  1
  O  O108  1  0.32629382  0.50325320  0.92193487  1
  O  O109  1  0.82576744  0.50136784  0.92108782  1
  O  O110  1  0.43568391  0.35434718  0.92474623  1
  O  O111  1  0.93546694  0.35240515  0.92381695  1
  O  O112  1  0.25434901  0.14460635  0.92227203  1
  O  O113  1  0.75557642  0.14554138  0.92240605  1
  O  O114  1  0.32559175  0.15032661  0.42013062  1
  O  O115  1  0.82765204  0.15408042  0.42088645  1
  O  O116  1  0.25581446  0.36601014  0.42115922  1
  O  O117  1  0.75209832  0.35820487  0.41863469  1
  O  O118  1  0.43520369  0.51829250  0.42244593  1
  O  O119  1  0.93802011  0.51565282  0.42115785  1
  O  O120  1  0.18232264  0.50987731  0.07762343  1
  O  O121  1  0.68066536  0.50777635  0.07684461  1
  O  O122  1  0.07793133  0.66304389  0.07786121  1
  O  O123  1  0.57831993  0.66311424  0.07934496  1
  O  O124  1  0.25679468  0.87386154  0.07854498  1
  O  O125  1  0.75611875  0.87088434  0.07774549  1
  O  O126  1  0.18218390  0.85525782  0.57653112  1
  O  O127  1  0.67891110  0.85374561  0.57652492  1
  O  O128  1  0.25588717  0.64075731  0.57777879  1
  O  O129  1  0.75031334  0.64193848  0.57837171  1
  O  O130  1  0.07845292  0.49802341  0.57902067  1
  O  O131  1  0.57492304  0.49062891  0.57721119  1
  O  O132  1  0.14976443  0.82445296  0.25596884  1
  O  O133  1  0.64893360  0.81876098  0.25466265  1
  O  O134  1  0.25983252  0.67473228  0.25272228  1
  O  O135  1  0.75893074  0.68759174  0.25303039  1
  O  O136  1  0.08229298  0.48233881  0.25658829  1
  O  O137  1  0.57376343  0.46008561  0.25449923  1
  O  O138  1  0.14918288  0.47831518  0.75573047  1
  O  O139  1  0.64948699  0.47355668  0.75757243  1
  O  O140  1  0.07551426  0.68813687  0.75648652  1
  O  O141  1  0.58221623  0.68235796  0.75767305  1
  O  O142  1  0.25909497  0.83074348  0.75359060  1
  O  O143  1  0.76099669  0.84724230  0.75380600  1
loop_
_geom_bond_atom_site_label_1
_geom_bond_atom_site_label_2
_geom_bond_distance
_geom_bond_site_symmetry_2
Na0 O105 2.467393 1_555
Na0 O107 2.474602 1_555
Na0 O135 2.572713 1_545
Na0 O63 2.650425 1_545
Na0 O133 2.712879 1_545
Na0 O5 2.916515 1_555
Na0 O33 2.919108 1_555
Na1 O136 2.507261 1_555
Na1 O134 2.545936 1_555
Na1 O106 2.578860 1_555
Na1 O64 2.704645 1_555
Na1 O102 2.781068 1_555
Na1 O20 2.831073 1_555
Na1 O0 2.839846 1_555
Na1 O34 2.898513 1_555
Na2 O103 2.424213 1_555
Na2 O107 2.529758 1_555
Na2 O135 2.542767 1_555
Na2 O65 2.667600 1_555
Na2 O137 2.689262 1_555
Na2 O35 2.734914 1_555
Na3 O103 2.484641 1_555
Na3 O132 2.488873 1_655
Na3 O105 2.554337 1_555
Na3 O136 2.557649 1_655
Na3 O31 2.618415 1_555
Na3 O60 2.884369 1_655
Na3 O3 3.002292 1_555
Na3 O22 3.002822 1_655
Na4 O133 2.335374 1_555
Na4 O102 2.494068 1_555
Na4 O137 2.636881 1_555
Na4 O104 2.700540 1_555
Na4 O61 2.741059 1_555
Na4 O30 2.785101 1_555
Na4 O23 2.876782 1_555
Na4 O2 2.905250 1_555
Na5 O100 2.453959 1_555
Na5 O98 2.463201 1_555
Na5 O142 2.583332 1_555
Na5 O138 2.704923 1_555
Na5 O70 2.761297 1_555
Na5 O28 2.855137 1_555
Na5 O8 2.950076 1_555
Na5 O12 3.016002 1_555
Na6 O138 2.392837 1_555
Na6 O97 2.438794 1_455
Na6 O25 2.623629 1_455
Na6 O101 2.652262 1_455
Na6 O140 2.674951 1_555
Na6 O14 2.839774 1_555
Na6 O66 2.908556 1_555
Na6 O11 2.980183 1_455
Na7 O139 2.478885 1_555
Na7 O96 2.498389 1_555
Na7 O141 2.557128 1_555
Na7 O100 2.558855 1_555
Na7 O24 2.577344 1_555
Na8 O96 2.449358 1_555
Na8 O98 2.506689 1_555
Na8 O142 2.569493 1_545
Na8 O26 2.675082 1_555
Na8 O140 2.678226 1_545
Na8 O68 2.793098 1_545
Na9 O99 2.472579 1_565
Na9 O143 2.507169 1_555
Na9 O141 2.566439 1_555
Na9 O97 2.698270 1_565
Na9 O27 2.751264 1_565
Na9 O69 2.822527 1_555
Na9 O17 2.868241 1_555
Na9 O7 2.961292 1_565
Na10 O86 2.435634 1_555
Na10 O130 2.504768 1_555
Na10 O85 2.516278 1_455
Na10 O128 2.598988 1_555
Na10 O14 2.788641 1_555
Na10 O56 2.792637 1_555
Na10 O42 2.921753 1_555
Na10 O28 3.033906 1_555
Na11 O87 2.477496 1_555
Na11 O131 2.483791 1_555
Na11 O129 2.509661 1_555
Na11 O84 2.652780 1_555
Na11 O57 2.794025 1_555
Na11 O15 2.801083 1_555
Na11 O43 2.918741 1_555
Na11 O29 2.955150 1_555
Na12 O84 2.401784 1_565
Na12 O126 2.467820 1_555
Na12 O88 2.651061 1_555
Na12 O12 2.741006 1_555
Na12 O128 2.775325 1_555
Na12 O26 2.831883 1_565
Na12 O54 2.838346 1_555
Na12 O46 2.901991 1_565
Na13 O127 2.491795 1_555
Na13 O89 2.524846 1_555
Na13 O85 2.541366 1_565
Na13 O129 2.626341 1_555
Na13 O55 2.772146 1_555
Na13 O13 2.810549 1_555
Na13 O27 2.964950 1_565
Na13 O47 2.990111 1_565
Na14 O122 2.422158 1_555
Na14 O94 2.426904 1_565
Na14 O91 2.498353 1_455
Na14 O124 2.617955 1_555
Na14 O22 2.734476 1_555
Na14 O52 2.749560 1_554
Na15 O123 2.486278 1_555
Na15 O95 2.512797 1_565
Na15 O125 2.555683 1_555
Na15 O90 2.638001 1_555
Na15 O53 2.707893 1_554
Na15 O23 2.834970 1_555
Na15 O37 2.853586 1_565
Na15 O33 3.001315 1_565
Na16 O120 2.423860 1_555
Na16 O90 2.464112 1_555
Na16 O92 2.655009 1_565
Na16 O124 2.722040 1_555
Na16 O48 2.739985 1_554
Na16 O18 2.781661 1_555
Na16 O34 2.909540 1_555
Na16 O38 2.922970 1_555
Na17 O91 2.433178 1_555
Na17 O121 2.492732 1_555
Na17 O93 2.643841 1_565
Na17 O19 2.712730 1_555
Na17 O125 2.765581 1_555
Na17 O49 2.823934 1_554
Na17 O35 2.871725 1_555
Na17 O39 2.940533 1_555
Na18 O81 2.489978 1_555
Na18 O82 2.492231 1_555
Na18 O108 2.499889 1_555
Na18 O8 2.569082 1_555
Na18 O110 2.698827 1_555
Na18 O38 2.818394 1_556
Na19 O83 2.480139 1_555
Na19 O80 2.490730 1_655
Na19 O109 2.499911 1_555
Na19 O39 2.643107 1_556
Na19 O111 2.681768 1_555
Na19 O9 2.805557 1_555
Na19 O52 2.974722 1_655
Na20 O82 2.432205 1_545
Na20 O112 2.463941 1_555
Na20 O10 2.571421 1_555
Na20 O110 2.679935 1_555
Na20 O79 2.687088 1_555
Na20 O68 2.900979 1_545
Na20 O40 2.943917 1_556
Na21 O113 2.431062 1_555
Na21 O83 2.482591 1_545
Na21 O11 2.617217 1_555
Na21 O111 2.660820 1_555
Na21 O78 2.707682 1_655
Na21 O69 2.871229 1_545
Na21 O41 2.905344 1_556
Na21 O49 2.999182 1_545
Na22 O80 2.500877 1_545
Na22 O108 2.536959 1_555
Na22 O112 2.545982 1_555
Na22 O78 2.600306 1_555
Na22 O6 2.613165 1_555
Na22 O36 2.804278 1_556
Na22 O70 2.927619 1_555
Na23 O81 2.446399 1_545
Na23 O109 2.556347 1_555
Na23 O113 2.561802 1_555
Na23 O7 2.566433 1_555
Na23 O79 2.584621 1_555
Na23 O37 2.800305 1_556
Na23 O71 2.924451 1_555
Na24 O77 2.483905 1_555
Na24 O74 2.543615 1_545
Na24 O114 2.544946 1_555
Na24 O46 2.592910 1_555
Na24 O118 2.664597 1_555
Na24 O57 2.842602 1_555
Na24 O4 2.914647 1_555
Na25 O115 2.423283 1_555
Na25 O75 2.471151 1_545
Na25 O76 2.539851 1_655
Na25 O119 2.618622 1_555
Na25 O47 2.689388 1_555
Na25 O5 2.693927 1_555
Na26 O76 2.428492 1_555
Na26 O116 2.558879 1_555
Na26 O72 2.559429 1_545
Na26 O114 2.560828 1_555
Na26 O0 2.642032 1_555
Na26 O42 2.740839 1_555
Na27 O117 2.456980 1_555
Na27 O115 2.478414 1_555
Na27 O77 2.553234 1_555
Na27 O43 2.651417 1_555
Na27 O73 2.681728 1_545
Na27 O1 2.790942 1_555
Na27 O63 2.958678 1_545
Na28 O116 2.420020 1_555
Na28 O74 2.483642 1_555
Na28 O118 2.635276 1_555
Na28 O73 2.678770 1_555
Na28 O2 2.728681 1_555
Na28 O44 2.842074 1_555
Na28 O64 2.917180 1_555
Na28 O54 2.963209 1_555
Na29 O75 2.469232 1_555
Na29 O117 2.469848 1_555
Na29 O45 2.615711 1_555
Na29 O119 2.690594 1_555
Na29 O72 2.714555 1_655
Na29 O3 2.816428 1_555
Na30 O75 2.526859 1_555
Na30 O89 2.583470 1_555
Na30 O76 2.583910 1_665
Na30 O85 2.607071 1_565
Na30 O86 2.666713 1_665
Na30 O72 2.709103 1_655
Na31 O84 2.491067 1_555
Na31 O87 2.510675 1_555
Na31 O77 2.547177 1_555
Na31 O74 2.663379 1_545
Na31 O88 2.738252 1_545
Na31 O73 2.782078 1_545
Na32 O91 2.504624 1_456
Na32 O80 2.508010 1_555
Na32 O94 2.568930 1_566
Na32 O83 2.585339 1_455
Na32 O93 2.740613 1_466
Na32 O78 2.744740 1_565
Na33 O81 2.406170 1_555
Na33 O82 2.457283 1_555
Na33 O79 2.638016 1_565
Na33 O90 2.648860 1_556
Na33 O95 2.685672 1_566
Na33 O92 2.846680 1_566
Na34 O98 2.460383 1_555
Na34 O96 2.483819 1_555
Na34 O100 2.509163 1_555
Na34 O108 2.696933 1_555
Na34 O112 2.706949 1_555
Na34 O110 2.924707 1_555
Na35 O99 2.421009 1_555
Na35 O97 2.538511 1_555
Na35 O113 2.585988 1_555
Na35 O109 2.591831 1_555
Na35 O101 2.720094 1_555
Na35 O111 2.896028 1_555
Na36 O114 2.451510 1_555
Na36 O116 2.462340 1_555
Na36 O106 2.608501 1_555
Na36 O102 2.726036 1_555
Na36 O118 2.772283 1_555
Na36 O104 2.836070 1_555
Na37 O117 2.536998 1_555
Na37 O115 2.553717 1_555
Na37 O107 2.567796 1_555
Na37 O103 2.608756 1_555
Na37 O105 2.625741 1_555
Na37 O119 2.785416 1_555
Na38 O136 2.494880 1_555
Na38 O132 2.580887 1_555
Na38 O122 2.589437 1_555
Na38 O134 2.611357 1_555
Na38 O120 2.635804 1_555
Na38 O124 2.843418 1_555
Na39 O135 2.503626 1_555
Na39 O133 2.539725 1_555
Na39 O123 2.617944 1_555
Na39 O137 2.631735 1_555
Na39 O121 2.635201 1_555
Na39 O125 2.784915 1_555
Na40 O130 2.562434 1_555
Na40 O142 2.563017 1_555
Na40 O138 2.588140 1_555
Na40 O126 2.625681 1_555
Na40 O140 2.652811 1_555
Na40 O128 2.773163 1_555
Na41 O131 2.575248 1_555
Na41 O127 2.598676 1_555
Na41 O129 2.612872 1_555
Na41 O141 2.656811 1_555
Na41 O143 2.677725 1_555
Na41 O139 2.679877 1_555
O0 Si0 1.620514 1_555
O0 Sc0 2.102685 1_455
O1 Si1 1.633780 1_545
O1 Sc1 2.008774 1_555
O2 Si2 1.615552 1_555
O2 Sc1 2.049804 1_565
O3 Si3 1.626136 1_555
O3 Sc0 2.039744 1_565
O4 S0 1.478671 1_555
O4 Sc1 2.197200 1_555
O5 Si4 1.630074 1_555
O5 Sc0 1.972448 1_555
O6 Si5 1.651458 1_555
O6 Sc2 1.996345 1_555
O7 Si6 1.629984 1_555
O7 Sc3 2.043225 1_545
O8 Si7 1.639878 1_555
O8 Sc3 1.966633 1_555
O9 S1 1.487102 1_555
O9 Sc2 2.147960 1_665
O10 Si8 1.634380 1_545
O10 Sc3 2.035315 1_545
O11 Si9 1.633634 1_555
O11 Sc2 2.012580 1_655
O12 Si8 1.648984 1_555
O12 Zr1 2.073740 1_565
O13 Si9 1.626924 1_565
O13 Zr0 2.043509 1_565
O14 Si5 1.648176 1_555
O14 Zr0 2.063553 1_455
O15 Si6 1.658905 1_555
O15 Zr1 1.999399 1_555
O16 S1 1.477888 1_455
O16 Zr0 2.296102 1_465
O17 Si7 1.643609 1_555
O17 Zr1 2.030390 1_565
O18 Si2 1.636441 1_555
O18 Zr3 2.042186 1_555
O19 Si3 1.660564 1_555
O19 Zr2 2.054009 1_665
O20 Si4 1.651276 1_455
O20 Zr2 2.015840 1_555
O21 S0 1.486111 1_555
O21 Zr3 2.244774 1_545
O22 Si0 1.662103 1_565
O22 Zr2 2.001682 1_565
O23 Si1 1.680792 1_555
O23 Zr3 1.961684 1_555
O24 Si10 1.623281 1_555
O24 Sc4 2.007935 1_555
O25 Si11 1.641197 1_555
O25 Zr4 2.076580 1_555
O26 Si12 1.624402 1_555
O26 Sc4 2.040563 1_555
O27 Si13 1.664808 1_555
O27 Zr4 2.008834 1_555
O28 S2 1.471975 1_555
O28 Sc4 2.319547 1_555
O29 Si14 1.641293 1_555
O29 Zr4 2.000553 1_555
O30 Si15 1.642677 1_555
O30 Zr5 2.056157 1_555
O31 Si16 1.617331 1_555
O31 Sc5 2.030750 1_555
O32 S3 1.478217 1_555
O32 Zr5 2.261352 1_555
O33 S4 1.469069 1_555
O33 Sc5 2.324512 1_555
O34 Si17 1.666852 1_555
O34 Zr5 1.990700 1_555
O35 Si18 1.620062 1_555
O35 Sc5 2.062921 1_555
O36 Si17 1.632331 1_555
O36 Sc6 1.969951 1_554
O37 Si18 1.647467 1_555
O37 Sc7 1.972812 1_554
O38 Si15 1.621985 1_555
O38 Sc6 2.039450 1_554
O39 Si16 1.642040 1_555
O39 Sc7 2.026611 1_554
O40 S3 1.469008 1_555
O40 Sc6 2.303685 1_554
O41 S4 1.474753 1_555
O41 Sc7 2.285276 1_554
O42 Si12 1.648808 1_555
O42 Sc8 1.958721 1_555
O43 Si13 1.629039 1_555
O43 Sc9 1.993591 1_555
O44 S2 1.474539 1_555
O44 Sc8 2.272483 1_555
O45 Si14 1.615409 1_555
O45 Sc9 2.031364 1_555
O46 Si10 1.645481 1_555
O46 Sc8 2.004390 1_555
O47 Si11 1.618855 1_555
O47 Sc9 2.063197 1_555
O48 Si19 1.660555 1_555
O48 Zr6 2.048956 1_556
O49 Si20 1.658564 1_555
O49 Zr7 2.044799 1_556
O50 S5 1.500682 1_555
O50 Zr6 2.133609 1_556
O51 S6 1.499963 1_555
O51 Zr7 2.134358 1_556
O52 Si21 1.669626 1_555
O52 Zr6 2.024744 1_556
O53 Si22 1.662060 1_555
O53 Zr7 2.034844 1_556
O54 Si23 1.650792 1_555
O54 Zr8 2.065566 1_555
O55 Si24 1.652695 1_555
O55 Zr9 2.065308 1_555
O56 Si25 1.655903 1_555
O56 Zr8 2.038173 1_555
O57 Si26 1.654538 1_555
O57 Zr9 2.060724 1_555
O58 S7 1.499154 1_555
O58 Zr8 2.136791 1_555
O59 S8 1.477010 1_555
O59 Zr9 2.294748 1_555
O60 S7 1.483441 1_555
O60 Zr10 2.315119 1_555
O61 S8 1.480854 1_555
O61 Sc10 2.323954 1_555
O62 Si23 1.642550 1_555
O62 Zr10 2.009713 1_555
O63 Si24 1.650689 1_555
O63 Sc10 1.947643 1_555
O64 Si25 1.654593 1_555
O64 Zr10 2.061372 1_555
O65 Si26 1.640327 1_555
O65 Sc10 2.004133 1_555
O66 S5 1.471177 1_555
O66 Sc11 2.342304 1_555
O67 S6 1.475078 1_555
O67 Zr11 2.405967 1_555
O68 Si21 1.629971 1_555
O68 Sc11 2.031030 1_555
O69 Si22 1.644524 1_555
O69 Zr11 2.077294 1_555
O70 Si19 1.635784 1_555
O70 Sc11 1.970096 1_555
O71 Si20 1.635964 1_555
O71 Zr11 2.030861 1_555
O72 S7 1.478909 1_555
O72 Sc0 2.397715 1_465
O73 S8 1.496760 1_555
O73 Sc1 2.247930 1_565
O74 Si23 1.636114 1_555
O74 Sc1 2.143926 1_565
O75 Si24 1.644354 1_555
O75 Sc0 2.152149 1_565
O76 Si25 1.631577 1_555
O76 Sc0 2.192185 1_455
O77 Si26 1.657277 1_555
O77 Sc1 2.087255 1_555
O78 S5 1.486114 1_555
O78 Sc2 2.306090 1_555
O79 S6 1.476764 1_555
O79 Sc3 2.421118 1_545
O80 Si21 1.647948 1_555
O80 Sc2 2.171006 1_565
O81 Si22 1.635694 1_555
O81 Sc3 2.217959 1_555
O82 Si19 1.635508 1_555
O82 Sc3 2.208692 1_555
O83 Si20 1.637564 1_555
O83 Sc2 2.181262 1_665
O84 Si10 1.673268 1_555
O84 Zr1 2.174315 1_555
O85 Si11 1.668918 1_555
O85 Zr0 2.058790 1_555
O86 Si12 1.634624 1_555
O86 Zr0 2.100298 1_455
O87 Si13 1.638518 1_555
O87 Zr1 2.107037 1_555
O88 S2 1.480135 1_555
O88 Zr1 2.386775 1_565
O89 Si14 1.632529 1_555
O89 Zr0 2.087823 1_565
O90 Si15 1.681897 1_555
O90 Zr3 2.065820 1_555
O91 Si16 1.672250 1_555
O91 Zr2 2.192086 1_665
O92 S3 1.483145 1_555
O92 Zr3 2.342488 1_545
O93 S4 1.481560 1_555
O93 Zr2 2.377535 1_655
O94 Si17 1.628316 1_555
O94 Zr2 2.143600 1_555
O95 Si18 1.655107 1_555
O95 Zr3 2.079127 1_545
O96 Si8 1.638965 1_545
O96 Sc4 2.066072 1_555
O97 Si9 1.649908 1_555
O97 Zr4 2.183606 1_555
O98 Si5 1.631920 1_555
O98 Sc4 2.196950 1_555
O99 Si6 1.641700 1_555
O99 Zr4 2.143616 1_555
O100 Si7 1.624912 1_555
O100 Sc4 2.118597 1_555
O101 S1 1.479542 1_555
O101 Zr4 2.372332 1_555
O102 Si2 1.674229 1_555
O102 Zr5 2.039716 1_555
O103 Si3 1.640419 1_555
O103 Sc5 2.042828 1_555
O104 S0 1.488865 1_555
O104 Zr5 2.307596 1_555
O105 Si4 1.622921 1_555
O105 Sc5 2.099234 1_555
O106 Si0 1.656075 1_555
O106 Zr5 2.083417 1_555
O107 Si1 1.621678 1_545
O107 Sc5 2.182734 1_555
O108 Si19 1.650284 1_555
O108 Sc6 2.027049 1_555
O109 Si20 1.647043 1_555
O109 Sc7 2.059080 1_555
O110 S6 1.482413 1_555
O110 Sc6 2.335394 1_555
O111 S5 1.479444 1_655
O111 Sc7 2.397442 1_555
O112 Si21 1.647097 1_545
O112 Sc6 2.124314 1_555
O113 Si22 1.646683 1_545
O113 Sc7 2.142918 1_555
O114 Si23 1.645037 1_545
O114 Sc8 2.076721 1_555
O115 Si24 1.640192 1_545
O115 Sc9 2.160192 1_555
O116 Si25 1.647630 1_555
O116 Sc8 2.168613 1_555
O117 Si26 1.638075 1_555
O117 Sc9 2.190619 1_555
O118 S8 1.488933 1_555
O118 Sc8 2.402251 1_555
O119 S7 1.470796 1_655
O119 Sc9 2.402197 1_555
O120 Si17 1.641852 1_555
O120 Zr6 2.122398 1_555
O121 Si18 1.651039 1_555
O121 Zr7 2.085846 1_555
O122 Si16 1.666718 1_455
O122 Zr6 2.080009 1_555
O123 Si15 1.642834 1_555
O123 Zr7 2.124639 1_555
O124 S3 1.509626 1_565
O124 Zr6 2.296518 1_555
O125 S4 1.522875 1_565
O125 Zr7 2.244747 1_555
O126 Si12 1.653523 1_565
O126 Zr8 2.080171 1_555
O127 Si13 1.630508 1_565
O127 Zr9 2.109404 1_555
O128 S2 1.520604 1_555
O128 Zr8 2.250422 1_555
O129 Si14 1.668087 1_555
O129 Zr9 2.044161 1_555
O130 Si11 1.657112 1_455
O130 Zr8 2.094547 1_555
O131 Si10 1.640981 1_555
O131 Zr9 2.098897 1_555
O132 Si0 1.634087 1_565
O132 Zr10 2.099052 1_555
O133 Si1 1.639975 1_555
O133 Sc10 2.152898 1_555
O134 Si2 1.637123 1_555
O134 Zr10 2.045560 1_555
O135 Si3 1.653295 1_555
O135 Sc10 2.053723 1_555
O136 Si4 1.648057 1_455
O136 Zr10 2.148152 1_555
O137 S0 1.483315 1_555
O137 Sc10 2.437632 1_555
O138 Si5 1.650782 1_555
O138 Sc11 2.112987 1_555
O139 Si6 1.637985 1_555
O139 Zr11 2.076976 1_555
O140 S1 1.493302 1_455
O140 Sc11 2.357309 1_555
O141 Si7 1.647743 1_555
O141 Zr11 2.125661 1_555
O142 Si8 1.655200 1_555
O142 Sc11 2.024408 1_555
O143 Si9 1.651643 1_565
O143 Zr11 2.013398 1_555
