# generated using pymatgen
data_Mn8Cl3O10
_symmetry_space_group_name_H-M   'P 1'
_cell_length_a   9.23787605
_cell_length_b   9.23787418
_cell_length_c   9.23761637
_cell_angle_alpha   119.18226097
_cell_angle_beta   119.18227387
_cell_angle_gamma   91.42288237
_symmetry_Int_Tables_number   1
_chemical_formula_structural   Mn8Cl3O10
_chemical_formula_sum   'Mn16 Cl6 O20'
_cell_volume   564.12712813
_cell_formula_units_Z   2
loop_
 _symmetry_equiv_pos_site_id
 _symmetry_equiv_pos_as_xyz
  1  'x, y, z'
loop_
 _atom_site_type_symbol
 _atom_site_label
 _atom_site_symmetry_multiplicity
 _atom_site_fract_x
 _atom_site_fract_y
 _atom_site_fract_z
 _atom_site_occupancy
  Mn  Mn0  1  0.50000003  0.49999871  -0.00000132  1
  Mn  Mn1  1  0.00000008  0.00000043  0.00000043  1
  Mn  Mn2  1  0.74999975  0.25000059  0.50000016  1
  Mn  Mn3  1  0.25000028  0.74999977  0.50000000  1
  Mn  Mn4  1  0.00000411  0.64935740  0.64934910  1
  Mn  Mn5  1  0.64934335  -0.00001385  0.64934588  1
  Mn  Mn6  1  0.35064230  -0.00000726  0.35064707  1
  Mn  Mn7  1  0.00001054  0.35065648  0.35065056  1
  Mn  Mn8  1  0.99936724  0.99937398  0.35112564  1
  Mn  Mn9  1  0.64824748  0.64824098  0.64887586  1
  Mn  Mn10  1  0.00062410  0.00063089  0.64887353  1
  Mn  Mn11  1  0.64825158  0.99937830  0.00001294  1
  Mn  Mn12  1  0.99936736  0.64824103  -0.00001197  1
  Mn  Mn13  1  0.00062114  0.35174844  -0.00001315  1
  Mn  Mn14  1  0.35175883  0.00063293  0.00001172  1
  Mn  Mn15  1  0.35176008  0.35175351  0.35112495  1
  Cl  Cl0  1  0.30309093  0.30309087  -0.00000051  1
  Cl  Cl1  1  0.69712844  0.69712965  0.39426108  1
  Cl  Cl2  1  0.69713254  0.30286893  0.00000125  1
  Cl  Cl3  1  0.30286889  0.69713239  0.00000104  1
  Cl  Cl4  1  0.30287047  0.30287165  0.60573870  1
  Cl  Cl5  1  0.69690926  0.69690922  0.00000050  1
  O  O0  1  0.10059074  0.90008038  0.20050595  1
  O  O1  1  0.69957182  0.90008170  0.79949264  1
  O  O2  1  0.09991959  0.89940906  0.79949432  1
  O  O3  1  0.90009716  0.10062009  0.20052296  1
  O  O4  1  0.90009443  0.69957239  0.79947532  1
  O  O5  1  0.89937936  0.09990245  0.79947699  1
  O  O6  1  0.30042806  0.09990597  0.20052464  1
  O  O7  1  0.09991868  0.30042858  0.20050732  1
  O  O8  1  0.40150862  0.90150843  0.49999982  1
  O  O9  1  0.90152939  0.40153043  0.50000247  1
  O  O10  1  0.59847050  0.09847084  0.49999810  1
  O  O11  1  0.09849150  0.59849195  0.50000066  1
  O  O12  1  0.59524785  0.09524890  0.19049936  1
  O  O13  1  0.90476100  0.09523840  0.50000042  1
  O  O14  1  0.59523872  0.40476261  0.50000027  1
  O  O15  1  0.09524217  0.59524122  0.19048277  1
  O  O16  1  0.09524033  0.90475894  0.50000052  1
  O  O17  1  0.40475912  0.59524204  0.50000020  1
  O  O18  1  0.90475269  0.40475305  0.80950225  1
  O  O19  1  0.40475948  0.90475853  0.80951859  1
loop_
_geom_bond_atom_site_label_1
_geom_bond_atom_site_label_2
_geom_bond_distance
_geom_bond_site_symmetry_2
Mn1 O0 2.275421 1_545
Mn1 O2 2.275422 1_544
Mn1 O5 2.275426 1_454
Mn1 O3 2.275426 1_455
Mn1 O7 2.275465 1_555
Mn1 O1 2.275466 1_444
Mn1 O6 2.275470 1_555
Mn1 O4 2.275471 1_444
Mn2 O10 1.954885 1_555
Mn2 O9 1.954886 1_555
Mn2 O12 2.046579 1_555
Mn2 O18 2.046588 1_555
Mn2 O14 2.046804 1_555
Mn2 O13 2.046807 1_555
Mn3 O8 1.954628 1_555
Mn3 O11 1.954629 1_555
Mn3 O15 2.046688 1_555
Mn3 O19 2.046697 1_555
Mn3 O17 2.046761 1_555
Mn3 O16 2.046778 1_555
Mn4 O9 1.888073 1_455
Mn4 O11 1.888125 1_555
Mn4 O4 1.905878 1_455
Mn4 O2 1.906010 1_555
Mn5 O10 1.888092 1_555
Mn5 O8 1.888137 1_545
Mn5 O5 1.905902 1_555
Mn5 O1 1.905985 1_545
Mn6 O10 1.888082 1_555
Mn6 O8 1.888134 1_545
Mn6 O6 1.905877 1_555
Mn6 O0 1.906011 1_545
Mn7 O9 1.888096 1_455
Mn7 O11 1.888142 1_555
Mn7 O3 1.905905 1_455
Mn7 O7 1.905987 1_555
Mn8 O13 1.860705 1_565
Mn8 O16 1.860784 1_655
Mn8 O0 1.928329 1_655
Mn8 O3 1.928362 1_565
Mn9 O14 1.860703 1_555
Mn9 O17 1.860793 1_555
Mn9 O1 1.928328 1_555
Mn9 O4 1.928366 1_555
Mn10 O13 1.860702 1_455
Mn10 O16 1.860780 1_545
Mn10 O2 1.928325 1_545
Mn10 O5 1.928359 1_455
Mn11 O12 1.860769 1_565
Mn11 O19 1.860812 1_554
Mn11 O1 1.928297 1_554
Mn11 O3 1.928339 1_565
Mn12 O18 1.860775 1_554
Mn12 O15 1.860807 1_655
Mn12 O0 1.928309 1_655
Mn12 O4 1.928309 1_554
Mn13 O18 1.860760 1_454
Mn13 O15 1.860818 1_555
Mn13 O7 1.928296 1_555
Mn13 O5 1.928341 1_454
Mn14 O12 1.860784 1_555
Mn14 O19 1.860801 1_544
Mn14 O6 1.928307 1_555
Mn14 O2 1.928307 1_544
Mn15 O14 1.860705 1_555
Mn15 O17 1.860794 1_555
Mn15 O7 1.928333 1_555
Mn15 O6 1.928370 1_555
Cl0 Mn0 2.540342 1_555
Cl0 Mn15 2.840926 1_555
Cl0 Mn10 2.841001 1_554
Cl0 Mn13 2.841053 1_555
Cl0 Mn14 2.841055 1_555
Cl1 Mn0 2.607066 1_555
Cl1 Mn9 2.828674 1_555
Cl1 Mn10 2.828711 1_665
Cl1 Mn5 2.867326 1_565
Cl1 Mn4 2.867372 1_655
Cl2 Mn0 2.607165 1_555
Cl2 Mn13 2.828703 1_655
Cl2 Mn11 2.828709 1_545
Cl2 Mn7 2.867355 1_655
Cl2 Mn5 2.867400 1_554
Cl3 Mn0 2.607182 1_555
Cl3 Mn12 2.828694 1_455
Cl3 Mn14 2.828694 1_565
Cl3 Mn6 2.867324 1_565
Cl3 Mn4 2.867367 1_554
Cl4 Mn0 2.607050 1_556
Cl4 Mn15 2.828674 1_555
Cl4 Mn8 2.828731 1_445
Cl4 Mn7 2.867356 1_555
Cl4 Mn6 2.867401 1_555
Cl5 Mn0 2.540343 1_555
Cl5 Mn9 2.840925 1_554
Cl5 Mn8 2.840984 1_555
Cl5 Mn11 2.841047 1_555
Cl5 Mn12 2.841058 1_555
