# generated using pymatgen
data_Tb2MgNb2O8
_symmetry_space_group_name_H-M   'P 1'
_cell_length_a   5.92408689
_cell_length_b   5.92408689
_cell_length_c   6.21387394
_cell_angle_alpha   106.75457827
_cell_angle_beta   106.75457827
_cell_angle_gamma   107.26899095
_symmetry_Int_Tables_number   1
_chemical_formula_structural   Tb2MgNb2O8
_chemical_formula_sum   'Tb2 Mg1 Nb2 O8'
_cell_volume   181.97602988
_cell_formula_units_Z   1
loop_
 _symmetry_equiv_pos_site_id
 _symmetry_equiv_pos_as_xyz
  1  'x, y, z'
loop_
 _atom_site_type_symbol
 _atom_site_label
 _atom_site_symmetry_multiplicity
 _atom_site_fract_x
 _atom_site_fract_y
 _atom_site_fract_z
 _atom_site_occupancy
  Tb  Tb0  1  0.00402791  0.99597209  0.00000000  1
  Tb  Tb1  1  0.72569053  0.27430947  0.50000000  1
  Mg  Mg0  1  0.02905864  0.97094136  0.50000000  1
  Nb  Nb0  1  0.46748418  0.53251582  0.00000000  1
  Nb  Nb1  1  0.33178416  0.66821584  0.50000000  1
  O  O0  1  0.46849437  0.39524011  0.25083427  1
  O  O1  1  0.70827047  0.88905918  0.21127417  1
  O  O2  1  0.03976591  0.32477004  0.32925463  1
  O  O3  1  0.60475989  0.53150563  0.74916573  1
  O  O4  1  0.11094082  0.29172953  0.78872583  1
  O  O5  1  0.23445018  0.88954000  0.31267398  1
  O  O6  1  0.67522996  0.96023409  0.67074537  1
  O  O7  1  0.11046000  0.76554982  0.68732602  1
loop_
_geom_bond_atom_site_label_1
_geom_bond_atom_site_label_2
_geom_bond_distance
_geom_bond_site_symmetry_2
Mg0 O7 1.977196 1_555
Mg0 O5 1.977196 1_555
Mg0 O1 2.012652 1_455
Mg0 O4 2.012652 1_565
Mg0 O2 2.601054 1_565
Mg0 O6 2.601054 1_455
Nb0 O1 1.937107 1_555
Nb0 O4 1.937107 1_554
Nb0 O0 1.954250 1_555
Nb0 O3 1.954250 1_554
Nb1 O2 1.966080 1_555
Nb1 O6 1.966080 1_555
Nb1 O7 2.085267 1_555
Nb1 O5 2.085267 1_555
Nb1 O3 2.392739 1_555
Nb1 O0 2.392739 1_555
O0 Tb1 2.271434 1_555
O0 Tb0 2.670732 1_545
O1 Tb1 2.414715 1_565
O1 Tb0 2.518177 1_655
O2 Tb0 2.287479 1_545
O2 Tb1 2.380697 1_455
O3 Tb1 2.271434 1_555
O3 Tb0 2.670732 1_656
O4 Tb1 2.414715 1_455
O4 Tb0 2.518177 1_546
O5 Tb0 2.392489 1_555
O5 Tb1 2.756534 1_565
O6 Tb0 2.287479 1_656
O6 Tb1 2.380697 1_565
O7 Tb0 2.392489 1_556
O7 Tb1 2.756534 1_455
