# generated using pymatgen
data_KMnF3
_symmetry_space_group_name_H-M   'P 1'
_cell_length_a   8.38969975
_cell_length_b   5.88689110
_cell_length_c   5.88930463
_cell_angle_alpha   89.93764172
_cell_angle_beta   90.00000000
_cell_angle_gamma   90.00000000
_symmetry_Int_Tables_number   1
_chemical_formula_structural   KMnF3
_chemical_formula_sum   'K4 Mn4 F12'
_cell_volume   290.86815946
_cell_formula_units_Z   4
loop_
 _symmetry_equiv_pos_site_id
 _symmetry_equiv_pos_as_xyz
  1  'x, y, z'
loop_
 _atom_site_type_symbol
 _atom_site_label
 _atom_site_symmetry_multiplicity
 _atom_site_fract_x
 _atom_site_fract_y
 _atom_site_fract_z
 _atom_site_occupancy
  K  K0  1  0.25000000  0.99302402  0.49735328  1
  K  K1  1  0.75000000  0.00697598  0.50264672  1
  K  K2  1  0.25000000  0.49478495  -0.00421402  1
  K  K3  1  0.75000000  0.50521505  0.00421402  1
  Mn  Mn0  1  0.00000000  -0.00000000  0.00000000  1
  Mn  Mn1  1  0.50000000  -0.00000000  0.00000000  1
  Mn  Mn2  1  0.00000000  0.50000000  0.50000000  1
  Mn  Mn3  1  0.50000000  0.50000000  0.50000000  1
  F  F0  1  0.25000000  0.00912414  0.98033982  1
  F  F1  1  0.75000000  0.99087586  0.01966018  1
  F  F2  1  0.25000000  0.49504827  0.52142125  1
  F  F3  1  0.75000000  0.50495173  0.47857875  1
  F  F4  1  0.01308617  0.71954515  0.21933745  1
  F  F5  1  0.98691383  0.28045485  0.78066255  1
  F  F6  1  0.51308617  0.28045485  0.78066255  1
  F  F7  1  0.48691383  0.71954515  0.21933745  1
  F  F8  1  0.00658922  0.21972663  0.28055476  1
  F  F9  1  0.99341078  0.78027337  0.71944524  1
  F  F10  1  0.50658922  0.78027337  0.71944524  1
  F  F11  1  0.49341078  0.21972663  0.28055476  1
loop_
_geom_bond_atom_site_label_1
_geom_bond_atom_site_label_2
_geom_bond_distance
_geom_bond_site_symmetry_2
F0 Mn1 2.101302 1_556
F0 Mn0 2.101302 1_556
F0 K0 2.846137 1_545
F0 K2 2.860578 1_556
F0 K2 3.029126 1_546
F0 K0 3.046221 1_546
F1 Mn0 2.101302 1_665
F1 Mn1 2.101302 1_565
F1 K1 2.846137 1_565
F1 K3 2.860578 1_555
F1 K3 3.029126 1_565
F1 K1 3.046221 1_564
F2 Mn2 2.101416 1_555
F2 Mn3 2.101416 1_555
F2 K2 2.793677 1_556
F2 K0 2.934800 1_555
F2 K0 2.958913 1_545
F2 K2 3.095628 1_555
F3 Mn3 2.101416 1_555
F3 Mn2 2.101416 1_655
F3 K3 2.793677 1_555
F3 K1 2.934800 1_555
F3 K1 2.958913 1_565
F3 K3 3.095628 1_556
F4 Mn0 2.098057 1_565
F4 Mn2 2.099977 1_555
F4 K2 2.727365 1_555
F4 K3 2.841190 1_455
F4 K0 3.037953 1_555
F4 K1 3.244214 1_465
F5 Mn0 2.098057 1_656
F5 Mn2 2.099977 1_655
F5 K3 2.727365 1_556
F5 K2 2.841190 1_656
F5 K1 3.037953 1_555
F5 K0 3.244214 1_645
F6 Mn1 2.098057 1_556
F6 Mn3 2.099977 1_555
F6 K3 2.727365 1_556
F6 K2 2.841190 1_556
F6 K1 3.037953 1_555
F6 K0 3.244214 1_545
F7 Mn1 2.098057 1_565
F7 Mn3 2.099977 1_555
F7 K2 2.727365 1_555
F7 K3 2.841190 1_555
F7 K0 3.037953 1_555
F7 K1 3.244214 1_565
F8 Mn2 2.097675 1_555
F8 Mn0 2.100208 1_555
F8 K0 2.752803 1_545
F8 K1 2.812466 1_455
F8 K2 3.098226 1_555
F8 K3 3.178262 1_455
F9 Mn2 2.097675 1_655
F9 Mn0 2.100208 1_666
F9 K1 2.752803 1_565
F9 K0 2.812466 1_655
F9 K3 3.098226 1_556
F9 K2 3.178262 1_656
F10 Mn3 2.097675 1_555
F10 Mn1 2.100208 1_566
F10 K1 2.752803 1_565
F10 K0 2.812466 1_555
F10 K3 3.098226 1_556
F10 K2 3.178262 1_556
F11 Mn3 2.097675 1_555
F11 Mn1 2.100208 1_555
F11 K0 2.752803 1_545
F11 K1 2.812466 1_555
F11 K2 3.098226 1_555
F11 K3 3.178262 1_555
