# generated using pymatgen
data_Na2Al4In4SiS11O48
_symmetry_space_group_name_H-M   'P 1'
_cell_length_a   17.24558720
_cell_length_b   8.61221994
_cell_length_c   22.43406555
_cell_angle_alpha   90.08933512
_cell_angle_beta   89.98091845
_cell_angle_gamma   120.02023724
_symmetry_Int_Tables_number   1
_chemical_formula_structural   Na2Al4In4SiS11O48
_chemical_formula_sum   'Na6 Al12 In12 Si3 S33 O144'
_cell_volume   2884.97816048
_cell_formula_units_Z   3
loop_
 _symmetry_equiv_pos_site_id
 _symmetry_equiv_pos_as_xyz
  1  'x, y, z'
loop_
 _atom_site_type_symbol
 _atom_site_label
 _atom_site_symmetry_multiplicity
 _atom_site_fract_x
 _atom_site_fract_y
 _atom_site_fract_z
 _atom_site_occupancy
  Na  Na0  1  0.00184259  0.96883361  0.49288239  1
  Na  Na1  1  0.50348411  0.02569621  0.00203207  1
  Na  Na2  1  0.34036461  0.33126630  0.83581865  1
  Na  Na3  1  0.84133461  0.35653623  0.83234275  1
  Na  Na4  1  0.33232767  0.33083842  0.33208455  1
  Na  Na5  1  0.83832953  0.34110908  0.32969865  1
  Al  Al0  1  0.00153493  0.99589313  0.34710605  1
  Al  Al1  1  0.50098228  0.00132440  0.35210671  1
  Al  Al2  1  0.99840018  0.99827921  0.14759249  1
  Al  Al3  1  0.50033903  0.00173346  0.15550062  1
  Al  Al4  1  0.32589195  0.32717954  0.18341292  1
  Al  Al5  1  0.84210624  0.34023978  0.18554214  1
  Al  Al6  1  0.83553769  0.33603144  0.98876720  1
  Al  Al7  1  0.33356646  0.33153645  0.47842360  1
  Al  Al8  1  0.16309845  0.66241591  0.02373714  1
  Al  Al9  1  0.66522972  0.66787288  0.51238317  1
  Al  Al10  1  0.16878911  0.67013301  0.31466726  1
  Al  Al11  1  0.66197184  0.65984015  0.31057900  1
  In  In0  1  0.00013707  0.99261238  0.85647504  1
  In  In1  1  0.49849124  0.00422319  0.85671154  1
  In  In2  1  0.00075571  0.99658582  0.64914104  1
  In  In3  1  0.49838251  0.99886356  0.63949926  1
  In  In4  1  0.33879438  0.34240745  0.68211520  1
  In  In5  1  0.83493233  0.34190012  0.68168297  1
  In  In6  1  0.33754953  0.33774207  0.98719799  1
  In  In7  1  0.84131097  0.34312751  0.47449514  1
  In  In8  1  0.66258644  0.65594113  0.02752515  1
  In  In9  1  0.16065300  0.67075553  0.51156362  1
  In  In10  1  0.15730654  0.66335256  0.81280463  1
  In  In11  1  0.66834965  0.66220324  0.81818098  1
  Si  Si0  1  0.99724336  0.69874248  0.74756886  1
  Si  Si1  1  0.51622919  0.37261954  0.92137191  1
  Si  Si2  1  0.02212717  0.67549832  0.40697596  1
  S  S0  1  0.14514375  0.00253411  0.24616626  1
  S  S1  1  0.64460363  0.00080528  0.25385170  1
  S  S2  1  0.35514786  0.71168358  0.25398300  1
  S  S3  1  0.85451311  0.70980769  0.24646960  1
  S  S4  1  0.00085553  0.28459962  0.25067435  1
  S  S5  1  0.49922218  0.28871800  0.24912260  1
  S  S6  1  0.15498584  0.30015215  0.75237166  1
  S  S7  1  0.64460393  0.29356109  0.74688252  1
  S  S8  1  0.50184646  0.70961863  0.75121822  1
  S  S9  1  0.35205355  0.00054706  0.74668643  1
  S  S10  1  0.84963980  0.00116347  0.75308261  1
  S  S11  1  0.48311530  0.34595381  0.57243056  1
  S  S12  1  0.98568061  0.32733893  0.58040291  1
  S  S13  1  0.19104469  0.04871881  0.57551822  1
  S  S14  1  0.68845374  0.03148807  0.57543545  1
  S  S15  1  0.33297716  0.62270227  0.57405282  1
  S  S16  1  0.82344126  0.63224047  0.57539759  1
  S  S17  1  0.47633096  0.63426336  0.09503823  1
  S  S18  1  0.97838208  0.62713561  0.08736302  1
  S  S19  1  0.33334309  0.03304477  0.09050877  1
  S  S20  1  0.83964039  0.05434904  0.08986420  1
  S  S21  1  0.18267288  0.33059982  0.08843504  1
  S  S22  1  0.69109020  0.32060191  0.09173204  1
  S  S23  1  0.30325787  0.66112228  0.92383213  1
  S  S24  1  0.81778833  0.65798691  0.92600400  1
  S  S25  1  0.01700936  0.37142707  0.92722477  1
  S  S26  1  0.16354103  0.94950930  0.92667395  1
  S  S27  1  0.67760345  0.97744338  0.92419442  1
  S  S28  1  0.31894164  0.96690807  0.41029499  1
  S  S29  1  0.80534110  0.93910099  0.40910674  1
  S  S30  1  0.17029605  0.37276353  0.40995567  1
  S  S31  1  0.65805557  0.37596210  0.40913701  1
  S  S32  1  0.52207402  0.67068512  0.41207257  1
  O  O0  1  0.10545886  0.04337233  0.29837985  1
  O  O1  1  0.60391277  0.03884629  0.30672195  1
  O  O2  1  0.41513371  0.79020775  0.30677800  1
  O  O3  1  0.91379942  0.79485618  0.29852083  1
  O  O4  1  0.48227803  0.16926221  0.30094434  1
  O  O5  1  0.97935860  0.16497649  0.30384369  1
  O  O6  1  0.11080386  0.20409496  0.80773497  1
  O  O7  1  0.60275729  0.19131427  0.80168187  1
  O  O8  1  0.48882893  0.78750119  0.80678758  1
  O  O9  1  0.98743093  0.78903248  0.80839564  1
  O  O10  1  0.40870918  0.02933752  0.79943433  1
  O  O11  1  0.90545946  0.04149437  0.80753758  1
  O  O12  1  0.39363809  0.99440885  0.68945804  1
  O  O13  1  0.89371404  0.99522714  0.69778631  1
  O  O14  1  0.10314868  0.22074331  0.69752246  1
  O  O15  1  0.59075836  0.21303544  0.69218413  1
  O  O16  1  0.00230306  0.79084825  0.68354121  1
  O  O17  1  0.49978966  0.80155815  0.69633083  1
  O  O18  1  0.39746253  0.82999000  0.20173758  1
  O  O19  1  0.89451296  0.82124353  0.19242840  1
  O  O20  1  0.01085122  0.19441000  0.19744438  1
  O  O21  1  0.51823570  0.21057120  0.19543877  1
  O  O22  1  0.08749391  0.96939853  0.19310377  1
  O  O23  1  0.58711775  0.97233557  0.20084130  1
  O  O24  1  0.45057526  0.38129439  0.62917454  1
  O  O25  1  0.94099957  0.33982549  0.63427137  1
  O  O26  1  0.23698818  0.13908510  0.63119012  1
  O  O27  1  0.74155488  0.10495819  0.63048840  1
  O  O28  1  0.32135682  0.52907018  0.63150963  1
  O  O29  1  0.80836509  0.52643928  0.63013851  1
  O  O30  1  0.42586920  0.50545163  0.14396197  1
  O  O31  1  0.94013052  0.51138412  0.14144072  1
  O  O32  1  0.31565372  0.12633245  0.14065387  1
  O  O33  1  0.82763067  0.13912398  0.14471940  1
  O  O34  1  0.24426451  0.36956068  0.14074032  1
  O  O35  1  0.74725262  0.33833129  0.14443372  1
  O  O36  1  0.21906061  0.28471630  0.03612739  1
  O  O37  1  0.73068731  0.29172039  0.03665140  1
  O  O38  1  0.42632067  0.57478364  0.03835871  1
  O  O39  1  0.91639714  0.54155492  0.03635360  1
  O  O40  1  0.35788839  0.14312060  0.03601934  1
  O  O41  1  0.85358491  0.17102117  0.03749575  1
  O  O42  1  0.23938738  0.15611507  0.52145584  1
  O  O43  1  0.72905650  0.15179521  0.52364706  1
  O  O44  1  0.34149494  0.52144627  0.52287814  1
  O  O45  1  0.84466797  0.55441103  0.52320640  1
  O  O46  1  0.42103596  0.31606780  0.52211767  1
  O  O47  1  0.93281711  0.30063139  0.52521620  1
  O  O48  1  0.25961670  0.68324176  0.97811278  1
  O  O49  1  0.77258839  0.67874355  0.97843148  1
  O  O50  1  0.07679885  0.46756292  0.97861919  1
  O  O51  1  0.56419019  0.44889825  0.98549831  1
  O  O52  1  0.16016578  0.84223439  0.98006477  1
  O  O53  1  0.66599555  0.87187910  0.97815537  1
  O  O54  1  0.28441892  0.85982665  0.46458185  1
  O  O55  1  0.76535355  0.82875429  0.46319951  1
  O  O56  1  0.15341582  0.43833753  0.46610309  1
  O  O57  1  0.64530589  0.46264991  0.46208801  1
  O  O58  1  0.06916463  0.71311223  0.47223284  1
  O  O59  1  0.58059763  0.70421676  0.46416413  1
  O  O60  1  0.07891947  0.64608818  0.35507851  1
  O  O61  1  0.55956731  0.63009827  0.35795761  1
  O  O62  1  0.25961011  0.88528301  0.35783797  1
  O  O63  1  0.74996411  0.84778122  0.35556262  1
  O  O64  1  0.19363970  0.50126349  0.35979904  1
  O  O65  1  0.67213081  0.48654813  0.35457349  1
  O  O66  1  0.04863094  0.47345580  0.87135677  1
  O  O67  1  0.56163325  0.48319042  0.86126949  1
  O  O68  1  0.17896974  0.87817185  0.87102941  1
  O  O69  1  0.69677844  0.90788789  0.86945092  1
  O  O70  1  0.25851917  0.65927903  0.86799411  1
  O  O71  1  0.76706991  0.62323798  0.86965112  1
  O  O72  1  0.00987459  0.84992576  0.39640742  1
  O  O73  1  0.51433063  0.83266806  0.40198085  1
  O  O74  1  0.40746833  0.98439876  0.39850673  1
  O  O75  1  0.89736831  0.96995814  0.40204463  1
  O  O76  1  0.08841499  0.19959104  0.39656664  1
  O  O77  1  0.57643580  0.19767028  0.40139658  1
  O  O78  1  0.00937131  0.19469618  0.92184246  1
  O  O79  1  0.50378323  0.17210325  0.92005166  1
  O  O80  1  0.08037173  0.95576454  0.92583258  1
  O  O81  1  0.59506945  0.98833425  0.91802448  1
  O  O82  1  0.39704557  0.81156196  0.92383669  1
  O  O83  1  0.90500601  0.82005000  0.92279485  1
  O  O84  1  0.49147978  0.18457746  0.57721960  1
  O  O85  1  0.99661052  0.16699247  0.58272355  1
  O  O86  1  0.10109047  0.02849783  0.57407712  1
  O  O87  1  0.59809782  0.00753254  0.58219146  1
  O  O88  1  0.41607424  0.79907227  0.57542203  1
  O  O89  1  0.89895079  0.81730743  0.58039690  1
  O  O90  1  0.48508712  0.81307151  0.10661817  1
  O  O91  1  0.98697468  0.80449887  0.09808825  1
  O  O92  1  0.41340788  0.01445822  0.10437618  1
  O  O93  1  0.91968036  0.03464922  0.09668134  1
  O  O94  1  0.09421484  0.17352417  0.10113161  1
  O  O95  1  0.59907321  0.15942280  0.09883712  1
  O  O96  1  0.34117870  0.16201386  0.74546536  1
  O  O97  1  0.82559190  0.14275501  0.74881732  1
  O  O98  1  0.24149612  0.29927494  0.74948290  1
  O  O99  1  0.72966550  0.29339419  0.74277681  1
  O  O100  1  0.42319709  0.52299602  0.74993873  1
  O  O101  1  0.90735473  0.50114230  0.74837388  1
  O  O102  1  0.34308683  0.52873865  0.24396427  1
  O  O103  1  0.84668331  0.52796996  0.23831622  1
  O  O104  1  0.41780708  0.30526134  0.23992922  1
  O  O105  1  0.92158442  0.31342052  0.24269999  1
  O  O106  1  0.23619161  0.17021811  0.23755806  1
  O  O107  1  0.73621375  0.15689468  0.24557700  1
  O  O108  1  0.30135715  0.48817216  0.92636525  1
  O  O109  1  0.82805416  0.49592842  0.93503193  1
  O  O110  1  0.41894398  0.36093743  0.92044535  1
  O  O111  1  0.92695451  0.35078921  0.93882940  1
  O  O112  1  0.24083050  0.13235167  0.93117660  1
  O  O113  1  0.75622749  0.16188882  0.93318747  1
  O  O114  1  0.33058191  0.15097952  0.41894014  1
  O  O115  1  0.80727339  0.11226355  0.41351139  1
  O  O116  1  0.24916088  0.34346719  0.41795008  1
  O  O117  1  0.73651154  0.35246876  0.41446121  1
  O  O118  1  0.43058976  0.51252571  0.42182739  1
  O  O119  1  0.92360878  0.49201940  0.40784711  1
  O  O120  1  0.17418696  0.49084024  0.07759506  1
  O  O121  1  0.68481415  0.48323774  0.08899886  1
  O  O122  1  0.06735624  0.64805742  0.07570052  1
  O  O123  1  0.56540742  0.65435246  0.09269161  1
  O  O124  1  0.25386999  0.85491556  0.08129985  1
  O  O125  1  0.75933896  0.87746413  0.08348103  1
  O  O126  1  0.18875103  0.87637699  0.57545687  1
  O  O127  1  0.68088682  0.85573971  0.56313846  1
  O  O128  1  0.25480326  0.64398651  0.56676064  1
  O  O129  1  0.73964816  0.63455482  0.56347429  1
  O  O130  1  0.07424563  0.48911031  0.57759304  1
  O  O131  1  0.57046624  0.50478187  0.56022154  1
  O  O132  1  0.15953678  0.85036219  0.25575975  1
  O  O133  1  0.65000057  0.83587336  0.26306593  1
  O  O134  1  0.26670025  0.69580390  0.26404472  1
  O  O135  1  0.76411960  0.68441404  0.25681389  1
  O  O136  1  0.08317671  0.45743356  0.25943069  1
  O  O137  1  0.57792096  0.46963892  0.25871768  1
  O  O138  1  0.17607232  0.48662325  0.75546274  1
  O  O139  1  0.65966496  0.47610708  0.75007610  1
  O  O140  1  0.08482298  0.67842668  0.74886455  1
  O  O141  1  0.58634295  0.70910380  0.75250178  1
  O  O142  1  0.26679323  0.83816464  0.75212204  1
  O  O143  1  0.76726081  0.82384488  0.75772750  1
loop_
_geom_bond_atom_site_label_1
_geom_bond_atom_site_label_2
_geom_bond_distance
_geom_bond_site_symmetry_2
Na0 O86 2.372902 1_565
Na0 O72 2.426318 1_555
Na0 O89 2.528794 1_455
Na0 O85 2.669469 1_465
Na0 O75 2.723808 1_455
Na0 O76 2.808867 1_565
Na0 O58 2.994619 1_555
Na1 O79 2.230039 1_554
Na1 O82 2.540191 1_544
Na1 O81 2.579664 1_544
Na1 O95 2.618243 1_555
Na1 O92 2.746260 1_555
Na1 O90 2.896637 1_545
Na2 O110 2.271521 1_555
Na2 O100 2.475264 1_555
Na2 O96 2.498970 1_555
Na2 O98 2.502999 1_555
Na2 O108 2.702773 1_555
Na2 O112 2.743033 1_555
Na3 O101 2.232247 1_555
Na3 O97 2.542455 1_555
Na3 O99 2.644448 1_555
Na3 O109 2.658370 1_555
Na3 O113 2.762300 1_555
Na3 O111 2.822325 1_555
Na4 O116 2.435818 1_555
Na4 O114 2.481877 1_555
Na4 O102 2.557581 1_555
Na4 O118 2.590874 1_555
Na4 O104 2.610997 1_555
Na4 O106 2.618704 1_555
Na5 O119 2.237806 1_555
Na5 O105 2.503369 1_555
Na5 O107 2.525275 1_555
Na5 O103 2.567390 1_555
Na5 O115 2.580935 1_555
Na5 O117 2.622564 1_555
Al0 O72 1.734834 1_555
Al0 O5 1.941804 1_465
Al0 O0 1.959849 1_565
Al0 O3 1.961875 1_455
Al0 O76 1.979553 1_565
Al0 O75 2.096171 1_455
Al1 O74 1.862726 1_545
Al1 O77 1.889119 1_555
Al1 O1 1.928187 1_555
Al1 O73 1.937645 1_545
Al1 O2 1.957946 1_545
Al1 O4 1.996377 1_555
Al2 O94 1.898150 1_665
Al2 O93 1.916568 1_565
Al2 O91 1.929431 1_555
Al2 O20 1.944573 1_665
Al2 O19 1.953584 1_555
Al2 O22 1.961962 1_655
Al3 O90 1.865144 1_545
Al3 O21 1.890119 1_555
Al3 O23 1.928563 1_545
Al3 O92 1.934147 1_555
Al3 O18 1.946569 1_545
Al3 O95 2.012376 1_555
Al4 O30 1.862180 1_555
Al4 O34 1.883468 1_555
Al4 O106 1.899285 1_555
Al4 O32 1.905963 1_555
Al4 O102 2.103407 1_555
Al4 O104 2.111232 1_555
Al5 O33 1.861077 1_555
Al5 O35 1.871014 1_555
Al5 O31 1.875987 1_555
Al5 O103 1.971875 1_555
Al5 O105 1.973612 1_555
Al5 O107 2.182158 1_555
Al6 O109 1.883962 1_555
Al6 O111 1.885599 1_555
Al6 O113 1.901966 1_555
Al6 O39 1.934561 1_556
Al6 O41 1.938836 1_556
Al6 O37 1.969454 1_556
Al7 O42 1.844068 1_555
Al7 O46 1.859178 1_555
Al7 O44 1.859984 1_555
Al7 O114 2.028528 1_555
Al7 O116 2.030111 1_555
Al7 O118 2.058265 1_555
Al8 O52 1.855768 1_554
Al8 O48 1.884442 1_554
Al8 O50 1.884739 1_554
Al8 O122 1.973667 1_555
Al8 O120 1.992070 1_555
Al8 O124 2.065058 1_555
Al9 O129 1.847606 1_555
Al9 O131 1.871387 1_555
Al9 O127 1.882687 1_555
Al9 O55 1.930881 1_555
Al9 O59 1.964078 1_555
Al9 O57 1.975184 1_555
Al10 O60 1.716201 1_555
Al10 O134 1.953393 1_555
Al10 O62 1.978876 1_555
Al10 O64 1.988077 1_555
Al10 O136 2.087799 1_555
Al10 O132 2.106066 1_555
Al11 O63 1.865271 1_555
Al11 O65 1.870427 1_555
Al11 O137 1.938373 1_555
Al11 O133 1.948210 1_555
Al11 O61 1.964986 1_555
Al11 O135 2.056502 1_555
In0 O9 1.973636 1_455
In0 O83 2.163193 1_455
In0 O6 2.163780 1_565
In0 O11 2.176902 1_465
In0 O80 2.208780 1_555
In0 O78 2.218036 1_565
In1 O79 1.994880 1_555
In1 O10 2.105366 1_555
In1 O8 2.109082 1_545
In1 O7 2.111688 1_555
In1 O81 2.216965 1_545
In1 O82 2.276606 1_545
In2 O16 1.946113 1_555
In2 O85 2.119176 1_465
In2 O13 2.139132 1_455
In2 O14 2.146338 1_565
In2 O89 2.264222 1_455
In2 O86 2.330034 1_565
In3 O15 2.095534 1_565
In3 O12 2.109517 1_555
In3 O87 2.118022 1_565
In3 O17 2.135782 1_555
In3 O88 2.142823 1_555
In3 O84 2.173016 1_565
In4 O26 2.091122 1_555
In4 O28 2.110279 1_555
In4 O96 2.122732 1_555
In4 O100 2.140466 1_555
In4 O24 2.143031 1_555
In4 O98 2.148034 1_555
In5 O101 1.990006 1_555
In5 O25 2.123424 1_555
In5 O99 2.142415 1_555
In5 O27 2.186814 1_555
In5 O29 2.192626 1_555
In5 O97 2.228729 1_555
In6 O110 1.992944 1_555
In6 O112 2.129033 1_555
In6 O36 2.157620 1_556
In6 O38 2.166842 1_556
In6 O40 2.173997 1_556
In6 O108 2.178454 1_555
In7 O119 2.019336 1_555
In7 O45 2.096901 1_555
In7 O43 2.119233 1_555
In7 O47 2.121190 1_555
In7 O115 2.234655 1_555
In7 O117 2.287845 1_555
In8 O51 1.978908 1_554
In8 O49 2.115866 1_554
In8 O53 2.141410 1_554
In8 O125 2.192788 1_555
In8 O121 2.199627 1_555
In8 O123 2.218477 1_555
In9 O58 1.994693 1_555
In9 O130 2.129613 1_555
In9 O126 2.135242 1_555
In9 O128 2.144674 1_555
In9 O56 2.192256 1_555
In9 O54 2.200971 1_555
In10 O140 1.949658 1_555
In10 O138 2.136038 1_555
In10 O68 2.137693 1_555
In10 O70 2.154925 1_555
In10 O142 2.201208 1_555
In10 O66 2.202434 1_555
In11 O67 1.965369 1_555
In11 O143 2.077312 1_555
In11 O139 2.162821 1_555
In11 O141 2.215662 1_555
In11 O71 2.217783 1_555
In11 O69 2.234971 1_555
O0 S0 1.484322 1_555
O1 S1 1.494947 1_555
O2 S2 1.492858 1_555
O3 S3 1.481286 1_555
O4 S5 1.482581 1_555
O5 S4 1.497648 1_655
O6 S6 1.476282 1_555
O7 S7 1.474613 1_555
O8 S8 1.484014 1_555
O9 Si0 1.619756 1_555
O10 S9 1.474411 1_555
O11 S10 1.484802 1_555
O12 S9 1.484088 1_565
O13 S10 1.468773 1_565
O14 S6 1.472190 1_555
O15 S7 1.484170 1_555
O16 Si0 1.623051 1_455
O17 S8 1.474991 1_555
O18 S2 1.484448 1_555
O19 S3 1.485719 1_555
O20 S4 1.479867 1_555
O21 S5 1.492966 1_555
O22 S0 1.484179 1_565
O23 S1 1.487915 1_565
O24 S11 1.482327 1_555
O25 S12 1.465485 1_555
O26 S13 1.474431 1_555
O27 S14 1.477457 1_555
O28 S15 1.480971 1_555
O29 S16 1.473844 1_555
O30 S17 1.493247 1_555
O31 S18 1.498655 1_555
O32 S19 1.498754 1_555
O33 S20 1.496234 1_555
O34 S21 1.503568 1_555
O35 S22 1.487110 1_555
O36 S21 1.474167 1_555
O37 S22 1.491153 1_555
O38 S17 1.476385 1_555
O39 S18 1.485020 1_555
O40 S19 1.474424 1_555
O41 S20 1.486411 1_555
O42 S13 1.500919 1_555
O43 S14 1.480180 1_555
O44 S15 1.491645 1_555
O45 S16 1.482224 1_555
O46 S11 1.486812 1_555
O47 S12 1.485555 1_555
O48 S23 1.492558 1_555
O49 S24 1.470066 1_555
O50 S25 1.490517 1_555
O51 Si1 1.624638 1_555
O52 S26 1.497060 1_555
O53 S27 1.467393 1_555
O54 S28 1.463482 1_555
O55 S29 1.482768 1_555
O56 S30 1.467086 1_555
O57 S31 1.475857 1_555
O58 Si2 1.625598 1_555
O59 S32 1.475063 1_555
O60 Si2 1.620334 1_555
O61 S32 1.496131 1_555
O62 S28 1.484767 1_555
O63 S29 1.489885 1_555
O64 S30 1.486839 1_555
O65 S31 1.495481 1_555
O66 S25 1.471011 1_555
O67 Si1 1.610947 1_555
O68 S26 1.472259 1_555
O69 S27 1.473807 1_555
O70 S23 1.467328 1_555
O71 S24 1.480036 1_555
O72 Si2 1.635925 1_555
O73 S32 1.484121 1_555
O74 S28 1.480935 1_555
O75 S29 1.480689 1_555
O76 S30 1.483272 1_555
O77 S31 1.485210 1_555
O78 S25 1.465394 1_555
O79 Si1 1.630355 1_555
O80 S26 1.462129 1_555
O81 S27 1.479064 1_555
O82 S23 1.482512 1_555
O83 S24 1.454381 1_555
O84 S11 1.471393 1_555
O85 S12 1.485234 1_555
O86 S13 1.472290 1_555
O87 S14 1.473741 1_555
O88 S15 1.477700 1_555
O89 S16 1.473568 1_555
O90 S17 1.492578 1_555
O91 S18 1.478334 1_555
O92 S19 1.500172 1_555
O93 S20 1.480558 1_555
O94 S21 1.474546 1_555
O95 S22 1.505612 1_555
O96 S9 1.493564 1_555
O97 S10 1.474634 1_555
O98 S6 1.497096 1_555
O99 S7 1.470513 1_555
O100 S8 1.497429 1_555
O101 Si0 1.630900 1_555
O102 S2 1.499062 1_555
O103 S3 1.513824 1_555
O104 S5 1.494873 1_555
O105 S4 1.517348 1_655
O106 S0 1.523154 1_555
O107 S1 1.487626 1_555
O108 S23 1.474543 1_555
O109 S24 1.506135 1_555
O110 Si1 1.629873 1_555
O111 S25 1.494991 1_655
O112 S26 1.471687 1_545
O113 S27 1.498836 1_545
O114 S28 1.507188 1_545
O115 S29 1.478076 1_545
O116 S30 1.513038 1_555
O117 S31 1.469684 1_555
O118 S32 1.497581 1_555
O119 Si2 1.642450 1_655
O120 S21 1.479250 1_555
O121 S22 1.459203 1_555
O122 S18 1.475999 1_455
O123 S17 1.458279 1_555
O124 S19 1.473057 1_565
O125 S20 1.465432 1_565
O126 S13 1.464855 1_565
O127 S14 1.478227 1_565
O128 S15 1.457875 1_555
O129 S16 1.479609 1_555
O130 S12 1.465880 1_455
O131 S11 1.467795 1_555
O132 S0 1.466919 1_565
O133 S1 1.483990 1_565
O134 S2 1.478995 1_555
O135 S3 1.480069 1_555
O136 S4 1.467812 1_555
O137 S5 1.482992 1_555
O138 S6 1.459924 1_555
O139 S7 1.461249 1_555
O140 Si0 1.605340 1_455
O141 S8 1.459709 1_555
O142 S9 1.440645 1_565
O143 S10 1.480128 1_565
