# generated using pymatgen
data_Fe3(SiO4)2
_symmetry_space_group_name_H-M   'P 1'
_cell_length_a   4.89060100
_cell_length_b   5.88488900
_cell_length_c   10.32220287
_cell_angle_alpha   88.91174136
_cell_angle_beta   90.00000000
_cell_angle_gamma   90.00000000
_symmetry_Int_Tables_number   1
_chemical_formula_structural   Fe3(SiO4)2
_chemical_formula_sum   'Fe6 Si4 O16'
_cell_volume   297.02606057
_cell_formula_units_Z   2
loop_
 _symmetry_equiv_pos_site_id
 _symmetry_equiv_pos_as_xyz
  1  'x, y, z'
loop_
 _atom_site_type_symbol
 _atom_site_label
 _atom_site_symmetry_multiplicity
 _atom_site_fract_x
 _atom_site_fract_y
 _atom_site_fract_z
 _atom_site_occupancy
  Fe  Fe0  1  0.00483200  0.25977400  0.77259500  1
  Fe  Fe1  1  0.50483200  0.74022600  0.72740500  1
  Fe  Fe2  1  0.49516800  0.25977400  0.27259500  1
  Fe  Fe3  1  0.99516800  0.74022600  0.22740500  1
  Fe  Fe4  1  0.50000000  0.00000000  0.00000000  1
  Fe  Fe5  1  0.00000000  0.00000000  0.50000000  1
  Si  Si0  1  0.55739200  0.24915700  0.59593000  1
  Si  Si1  1  0.05739200  0.75084300  0.90407000  1
  Si  Si2  1  0.44260800  0.75084300  0.40407000  1
  Si  Si3  1  0.94260800  0.24915700  0.09593000  1
  O  O0  1  0.72452000  0.03136700  0.66961500  1
  O  O1  1  0.22452000  0.96863300  0.83038500  1
  O  O2  1  0.27548000  0.96863300  0.33038500  1
  O  O3  1  0.77548000  0.03136700  0.16961500  1
  O  O4  1  0.19676700  0.54441400  0.81984300  1
  O  O5  1  0.69676700  0.45558600  0.68015700  1
  O  O6  1  0.80323300  0.45558600  0.18015700  1
  O  O7  1  0.30323300  0.54441400  0.31984300  1
  O  O8  1  0.72582800  0.76486300  0.89216100  1
  O  O9  1  0.22582800  0.23513700  0.60783900  1
  O  O10  1  0.66685900  0.24016000  0.44610900  1
  O  O11  1  0.16685900  0.75984000  0.05389100  1
  O  O12  1  0.33314100  0.75984000  0.55389100  1
  O  O13  1  0.27417200  0.23513700  0.10783900  1
  O  O14  1  0.77417200  0.76486300  0.39216100  1
  O  O15  1  0.83314100  0.24016000  0.94610900  1
loop_
_geom_bond_atom_site_label_1
_geom_bond_atom_site_label_2
_geom_bond_distance
_geom_bond_site_symmetry_2
Fe0 O15 1.979487 1_455
Fe0 O4 1.988939 1_555
Fe0 O9 2.022552 1_555
Fe0 O1 2.099255 1_545
Fe0 O5 2.113397 1_455
Fe0 O0 2.206873 1_455
Fe1 O12 1.979487 1_555
Fe1 O5 1.988939 1_555
Fe1 O8 2.022552 1_555
Fe1 O0 2.099255 1_565
Fe1 O4 2.113397 1_555
Fe1 O1 2.206873 1_555
Fe2 O10 1.979487 1_555
Fe2 O7 1.988939 1_555
Fe2 O13 2.022552 1_555
Fe2 O2 2.099255 1_545
Fe2 O6 2.113397 1_555
Fe2 O3 2.206873 1_555
Fe3 O11 1.979487 1_655
Fe3 O6 1.988939 1_555
Fe3 O14 2.022552 1_555
Fe3 O3 2.099255 1_565
Fe3 O7 2.113397 1_655
Fe3 O2 2.206873 1_655
Fe4 O13 2.105264 1_555
Fe4 O8 2.105264 1_544
Fe4 O3 2.219633 1_555
Fe4 O1 2.219633 1_544
Fe4 O15 2.220703 1_554
Fe4 O11 2.220703 1_545
Fe5 O9 2.105264 1_555
Fe5 O14 2.105264 1_445
Fe5 O0 2.219633 1_455
Fe5 O2 2.219633 1_545
Fe5 O12 2.220703 1_545
Fe5 O10 2.220703 1_455
O0 Si0 1.688852 1_555
O1 Si1 1.688852 1_555
O2 Si2 1.688852 1_555
O3 Si3 1.688852 1_555
O4 Si1 1.654199 1_555
O5 Si0 1.654199 1_555
O6 Si3 1.654199 1_555
O7 Si2 1.654199 1_555
O8 Si1 1.628173 1_655
O9 Si0 1.628173 1_555
O10 Si0 1.638332 1_555
O11 Si1 1.638332 1_554
O12 Si2 1.638332 1_555
O13 Si3 1.628173 1_455
O14 Si2 1.628173 1_555
O15 Si3 1.638332 1_556
