# generated using pymatgen
data_MgFe6(O2F)4
_symmetry_space_group_name_H-M   'P 1'
_cell_length_a   5.15642602
_cell_length_b   5.14707576
_cell_length_c   8.82207337
_cell_angle_alpha   90.50928923
_cell_angle_beta   90.84998216
_cell_angle_gamma   98.60760402
_symmetry_Int_Tables_number   1
_chemical_formula_structural   MgFe6(O2F)4
_chemical_formula_sum   'Mg1 Fe6 O8 F4'
_cell_volume   231.46502953
_cell_formula_units_Z   1
loop_
 _symmetry_equiv_pos_site_id
 _symmetry_equiv_pos_as_xyz
  1  'x, y, z'
loop_
 _atom_site_type_symbol
 _atom_site_label
 _atom_site_symmetry_multiplicity
 _atom_site_fract_x
 _atom_site_fract_y
 _atom_site_fract_z
 _atom_site_occupancy
  Mg  Mg0  1  0.46081804  0.94430423  0.33814307  1
  Fe  Fe0  1  -0.00870112  0.01014241  -0.00165796  1
  Fe  Fe1  1  0.95750750  0.98881903  0.34513609  1
  Fe  Fe2  1  0.05739619  0.02856562  0.66591277  1
  Fe  Fe3  1  0.59120292  0.44120206  0.14344478  1
  Fe  Fe4  1  0.40209167  0.57680540  0.85208663  1
  Fe  Fe5  1  0.58249913  0.44580270  0.52168889  1
  O  O0  1  0.18361713  0.86228907  0.49074911  1
  O  O1  1  0.19284500  0.85329721  0.84026656  1
  O  O2  1  0.28203017  0.33196835  0.01525297  1
  O  O3  1  0.31592940  0.35425234  0.66862034  1
  O  O4  1  0.70520610  0.68965551  0.99208427  1
  O  O5  1  0.67732286  0.66179703  0.33677799  1
  O  O6  1  0.77144074  0.14023921  0.17698765  1
  O  O7  1  0.76996690  0.15554203  0.49818789  1
  F  F0  1  0.18087710  0.84495180  0.17821464  1
  F  F1  1  0.31598554  0.28600702  0.33222016  1
  F  F2  1  0.72525988  0.70758925  0.67256758  1
  F  F3  1  0.83670485  0.17676976  0.82617355  1
loop_
_geom_bond_atom_site_label_1
_geom_bond_atom_site_label_2
_geom_bond_distance
_geom_bond_site_symmetry_2
Mg0 O5 1.961337 1_555
Mg0 O0 1.980000 1_555
Mg0 O7 2.259194 1_565
Mg0 O6 2.283275 1_565
Fe0 O1 1.987632 1_544
Fe0 O4 2.041553 1_444
Fe0 O2 2.063778 1_555
Fe0 O6 2.116355 1_455
Fe1 O0 1.905635 1_655
Fe1 O7 1.939391 1_565
Fe1 O6 1.982581 1_565
Fe1 O5 2.047594 1_555
Fe2 O0 1.927978 1_545
Fe2 O1 1.961878 1_545
Fe2 O3 1.979206 1_555
Fe2 O7 2.248402 1_455
Fe3 O4 1.895416 1_554
Fe3 O6 1.944711 1_555
Fe3 O2 1.950268 1_555
Fe3 O5 2.046368 1_555
Fe4 O1 1.912916 1_555
Fe4 O2 1.966870 1_556
Fe4 O3 1.980565 1_555
Fe4 O4 1.990963 1_555
Fe5 O7 1.908448 1_555
Fe5 O3 1.913505 1_555
Fe5 O5 2.007327 1_555
F0 Mg0 2.010376 1_555
F0 Fe1 2.080798 1_455
F0 Fe0 2.103180 1_565
F1 Mg0 2.011811 1_545
F1 Fe5 2.219925 1_555
F1 Fe1 2.220949 1_445
F1 Fe3 2.275962 1_555
F2 Fe5 1.941995 1_555
F2 Fe2 2.196301 1_665
F2 Fe4 2.345140 1_555
F3 Fe0 1.967204 1_656
F3 Fe2 2.040640 1_655
