# generated using pymatgen
data_Na6Ca2Ti6Si5S7O48
_symmetry_space_group_name_H-M   'P 1'
_cell_length_a   17.73710887
_cell_length_b   8.93659638
_cell_length_c   22.73111249
_cell_angle_alpha   89.90890255
_cell_angle_beta   90.29246218
_cell_angle_gamma   120.25492663
_symmetry_Int_Tables_number   1
_chemical_formula_structural   Na6Ca2Ti6Si5S7O48
_chemical_formula_sum   'Na18 Ca6 Ti18 Si15 S21 O144'
_cell_volume   3112.28240860
_cell_formula_units_Z   3
loop_
 _symmetry_equiv_pos_site_id
 _symmetry_equiv_pos_as_xyz
  1  'x, y, z'
loop_
 _atom_site_type_symbol
 _atom_site_label
 _atom_site_symmetry_multiplicity
 _atom_site_fract_x
 _atom_site_fract_y
 _atom_site_fract_z
 _atom_site_occupancy
  Na  Na0  1  0.66305879  0.35439176  0.58641077  1
  Na  Na1  1  0.51457005  0.67910566  0.58840839  1
  Na  Na2  1  0.82220577  0.97157962  0.58641195  1
  Na  Na3  1  0.16228009  0.96991023  0.08949941  1
  Na  Na4  1  0.32192086  0.67598963  0.08880808  1
  Na  Na5  1  0.01480526  0.35261120  0.09201144  1
  Na  Na6  1  0.00929266  0.00100871  0.49419455  1
  Na  Na7  1  0.49249205  0.00015228  0.49821667  1
  Na  Na8  1  0.99455214  0.98741731  0.00145387  1
  Na  Na9  1  0.50760718  0.01326419  0.99862649  1
  Na  Na10  1  0.32977708  0.32452984  0.82802582  1
  Na  Na11  1  0.82868821  0.32697254  0.83601477  1
  Na  Na12  1  0.32533778  0.32724278  0.33619923  1
  Na  Na13  1  0.83395481  0.33759555  0.32941963  1
  Na  Na14  1  0.16326149  0.66269435  0.16270904  1
  Na  Na15  1  0.66970728  0.66964526  0.16680575  1
  Na  Na16  1  0.17013953  0.66827830  0.66125248  1
  Na  Na17  1  0.66440755  0.66491402  0.65652411  1
  Ca  Ca0  1  0.32936418  0.32827394  0.69279093  1
  Ca  Ca1  1  0.83515517  0.33242887  0.68964973  1
  Ca  Ca2  1  0.33563186  0.33795333  0.18999526  1
  Ca  Ca3  1  0.82903254  0.33162643  0.19326725  1
  Ca  Ca4  1  0.16546078  0.66808292  0.00930758  1
  Ca  Ca5  1  0.66556670  0.66424003  0.50918745  1
  Ti  Ti0  1  0.00392179  0.99166633  0.35717472  1
  Ti  Ti1  1  0.49892461  0.99545301  0.35413524  1
  Ti  Ti2  1  0.99974533  0.00204095  0.85362379  1
  Ti  Ti3  1  0.50417555  0.00070298  0.85187934  1
  Ti  Ti4  1  0.00969370  0.01131732  0.64415627  1
  Ti  Ti5  1  0.48944294  0.00446643  0.64075778  1
  Ti  Ti6  1  0.99180516  0.97745924  0.14586173  1
  Ti  Ti7  1  0.50482041  0.00897148  0.15022084  1
  Ti  Ti8  1  0.32854920  0.31273556  0.98803254  1
  Ti  Ti9  1  0.82987443  0.35181413  0.97645149  1
  Ti  Ti10  1  0.32951577  0.30753109  0.47483847  1
  Ti  Ti11  1  0.83298553  0.35884264  0.48544523  1
  Ti  Ti12  1  0.67187236  0.67924646  0.01058531  1
  Ti  Ti13  1  0.16742902  0.66604182  0.50736492  1
  Ti  Ti14  1  0.16173488  0.65540634  0.32142626  1
  Ti  Ti15  1  0.67513569  0.68553203  0.30839189  1
  Ti  Ti16  1  0.17331265  0.66435439  0.80683707  1
  Ti  Ti17  1  0.67215459  0.67992909  0.81786863  1
  Si  Si0  1  0.63948606  0.98781683  0.25407742  1
  Si  Si1  1  0.85832231  0.72014072  0.25551807  1
  Si  Si2  1  0.13926154  0.29027687  0.75346808  1
  Si  Si3  1  0.35885419  0.99671497  0.75391087  1
  Si  Si4  1  0.47372015  0.33138974  0.58421637  1
  Si  Si5  1  0.68418864  0.04278757  0.58440147  1
  Si  Si6  1  0.83967728  0.64088891  0.58809335  1
  Si  Si7  1  0.97414713  0.62040928  0.08441297  1
  Si  Si8  1  0.34083240  0.03984226  0.08688923  1
  Si  Si9  1  0.18168340  0.32686529  0.08646386  1
  Si  Si10  1  0.81434945  0.67281676  0.91432907  1
  Si  Si11  1  0.66810915  0.96408048  0.91649886  1
  Si  Si12  1  0.31182792  0.95116342  0.41304512  1
  Si  Si13  1  0.16781236  0.37422454  0.41634835  1
  Si  Si14  1  0.01662351  0.65632457  0.41653821  1
  S  S0  1  0.13954917  0.98540993  0.25246410  1
  S  S1  1  0.35405977  0.72594518  0.25087528  1
  S  S2  1  0.01036649  0.28981826  0.25147360  1
  S  S3  1  0.50731816  0.28949063  0.25520930  1
  S  S4  1  0.63997335  0.29493119  0.75299967  1
  S  S5  1  0.00724210  0.72618526  0.75479766  1
  S  S6  1  0.50962350  0.72417528  0.75170447  1
  S  S7  1  0.85315054  0.98294039  0.75220705  1
  S  S8  1  0.98707506  0.33952163  0.58248031  1
  S  S9  1  0.18522139  0.02951079  0.58129180  1
  S  S10  1  0.32760287  0.62593887  0.58191541  1
  S  S11  1  0.48545643  0.63131353  0.08044214  1
  S  S12  1  0.82799187  0.03180326  0.08090178  1
  S  S13  1  0.68349245  0.33867472  0.07995882  1
  S  S14  1  0.31963693  0.66370822  0.91253645  1
  S  S15  1  0.01299693  0.36273807  0.91318915  1
  S  S16  1  0.52220769  0.38030979  0.91533059  1
  S  S17  1  0.16969765  0.97610457  0.91309785  1
  S  S18  1  0.81892788  0.97381592  0.41259859  1
  S  S19  1  0.66742206  0.36378313  0.41264075  1
  S  S20  1  0.51243095  0.66226332  0.41320197  1
  O  O0  1  0.09338172  0.99422221  0.30534855  1
  O  O1  1  0.57808083  0.98873828  0.30747552  1
  O  O2  1  0.40367374  0.83077866  0.30243023  1
  O  O3  1  0.91680965  0.83818535  0.31033292  1
  O  O4  1  0.49987429  0.18583056  0.30753690  1
  O  O5  1  0.01233824  0.18979452  0.30224022  1
  O  O6  1  0.07789088  0.16749836  0.80734533  1
  O  O7  1  0.59301115  0.18872149  0.80613412  1
  O  O8  1  0.51237289  0.83163639  0.80360766  1
  O  O9  1  0.99949278  0.81399230  0.80794152  1
  O  O10  1  0.41743123  0.99505183  0.80998452  1
  O  O11  1  0.90241440  0.97608881  0.80398880  1
  O  O12  1  0.40517854  0.97159379  0.69463440  1
  O  O13  1  0.89308637  0.97273422  0.69604987  1
  O  O14  1  0.08366675  0.19120385  0.69264439  1
  O  O15  1  0.59276639  0.20902353  0.69790869  1
  O  O16  1  0.01326369  0.82427514  0.70029448  1
  O  O17  1  0.51790070  0.81570184  0.69576213  1
  O  O18  1  0.39896935  0.82136802  0.19415617  1
  O  O19  1  0.90474184  0.83720400  0.19541835  1
  O  O20  1  0.01623851  0.21164629  0.19390097  1
  O  O21  1  0.51173766  0.19948922  0.19991019  1
  O  O22  1  0.09171565  0.98024648  0.19675288  1
  O  O23  1  0.58330914  0.97632026  0.19271645  1
  O  O24  1  0.44072588  0.39154731  0.63868954  1
  O  O25  1  0.95548104  0.36704883  0.63786552  1
  O  O26  1  0.23408197  0.09963109  0.63491446  1
  O  O27  1  0.74904940  0.10936793  0.63949890  1
  O  O28  1  0.31193111  0.53328400  0.63713709  1
  O  O29  1  0.81707535  0.51759229  0.64290004  1
  O  O30  1  0.45516759  0.53956738  0.13562388  1
  O  O31  1  0.93859046  0.48575258  0.13659057  1
  O  O32  1  0.31925793  0.12088480  0.14114301  1
  O  O33  1  0.80857316  0.08658662  0.13573329  1
  O  O34  1  0.25079880  0.39055883  0.13861552  1
  O  O35  1  0.73420895  0.37654853  0.13328636  1
  O  O36  1  0.23799855  0.29488278  0.02812402  1
  O  O37  1  0.72518054  0.30911015  0.02720215  1
  O  O38  1  0.42410402  0.53767078  0.02968077  1
  O  O39  1  0.91053575  0.51778021  0.02424363  1
  O  O40  1  0.35266003  0.16819684  0.02615447  1
  O  O41  1  0.83935570  0.14367456  0.02979585  1
  O  O42  1  0.22497248  0.13914293  0.52815671  1
  O  O43  1  0.73898312  0.18395485  0.52783069  1
  O  O44  1  0.34075540  0.53987090  0.53095634  1
  O  O45  1  0.85372274  0.54377329  0.52771187  1
  O  O46  1  0.41069481  0.30908948  0.52507309  1
  O  O47  1  0.92674549  0.30801638  0.53198485  1
  O  O48  1  0.29101355  0.69754913  0.96869258  1
  O  O49  1  0.76245423  0.69335137  0.97068322  1
  O  O50  1  0.05772084  0.41362128  0.96994404  1
  O  O51  1  0.57690855  0.46436785  0.96862604  1
  O  O52  1  0.15375213  0.89091216  0.97020673  1
  O  O53  1  0.65288092  0.83199459  0.97203907  1
  O  O54  1  0.26581926  0.83325907  0.47137386  1
  O  O55  1  0.79000287  0.88043390  0.46852351  1
  O  O56  1  0.15246011  0.47189521  0.47235218  1
  O  O57  1  0.65139738  0.41708243  0.46989106  1
  O  O58  1  0.08195030  0.69126945  0.47281884  1
  O  O59  1  0.55691301  0.70000661  0.47023087  1
  O  O60  1  0.06534562  0.62686609  0.35931875  1
  O  O61  1  0.56337278  0.64511044  0.36537099  1
  O  O62  1  0.24850958  0.85820301  0.35597735  1
  O  O63  1  0.75528709  0.86124998  0.36426456  1
  O  O64  1  0.18510962  0.50202579  0.35892846  1
  O  O65  1  0.67448384  0.48127008  0.36452688  1
  O  O66  1  0.06404540  0.48332475  0.86530368  1
  O  O67  1  0.56528149  0.48793828  0.86238817  1
  O  O68  1  0.17795000  0.87504124  0.86496930  1
  O  O69  1  0.68124839  0.85997591  0.85978145  1
  O  O70  1  0.25664561  0.64513594  0.86422263  1
  O  O71  1  0.75043042  0.64221298  0.85711151  1
  O  O72  1  0.00765318  0.82977568  0.40885807  1
  O  O73  1  0.49595824  0.81036018  0.40332240  1
  O  O74  1  0.41055077  0.98325002  0.40720349  1
  O  O75  1  0.90759867  0.00229772  0.40240073  1
  O  O76  1  0.08305053  0.18206487  0.40827296  1
  O  O77  1  0.59095254  0.18425829  0.40290943  1
  O  O78  1  0.99634934  0.18210885  0.90274877  1
  O  O79  1  0.51396368  0.20619590  0.91075884  1
  O  O80  1  0.09369010  0.00376375  0.90310434  1
  O  O81  1  0.58243805  0.98439638  0.90912475  1
  O  O82  1  0.40867068  0.81638247  0.90253742  1
  O  O83  1  0.91135933  0.83950689  0.90952689  1
  O  O84  1  0.47169399  0.14127646  0.59110943  1
  O  O85  1  0.98996264  0.17009693  0.58628450  1
  O  O86  1  0.09644029  0.01838446  0.58652451  1
  O  O87  1  0.58954653  0.04158282  0.59295584  1
  O  O88  1  0.41489669  0.79953768  0.58643857  1
  O  O89  1  0.93020088  0.83415621  0.59608775  1
  O  O90  1  0.48940659  0.80439799  0.08313204  1
  O  O91  1  0.97370417  0.80642670  0.09342877  1
  O  O92  1  0.43116477  0.02665820  0.09383752  1
  O  O93  1  0.91240744  0.02770614  0.08516610  1
  O  O94  1  0.08919090  0.13985002  0.09222092  1
  O  O95  1  0.59656929  0.17373969  0.08594767  1
  O  O96  1  0.34752191  0.15981085  0.75753000  1
  O  O97  1  0.84788137  0.14082433  0.75727374  1
  O  O98  1  0.23409553  0.32036821  0.75873636  1
  O  O99  1  0.72719589  0.31402390  0.75605974  1
  O  O100  1  0.42903873  0.55791374  0.75636347  1
  O  O101  1  0.93166388  0.55064549  0.75517071  1
  O  O102  1  0.35280429  0.56110878  0.25425120  1
  O  O103  1  0.84555826  0.53295283  0.25744496  1
  O  O104  1  0.43161608  0.31223882  0.25440748  1
  O  O105  1  0.93072543  0.30050841  0.25334458  1
  O  O106  1  0.22638799  0.14258444  0.25412254  1
  O  O107  1  0.73414776  0.14779887  0.25856454  1
  O  O108  1  0.32591142  0.50496128  0.91406781  1
  O  O109  1  0.81854555  0.49446289  0.92283649  1
  O  O110  1  0.43539425  0.36419638  0.92150374  1
  O  O111  1  0.92565774  0.34948482  0.91584676  1
  O  O112  1  0.25171484  0.15167756  0.91632728  1
  O  O113  1  0.75409807  0.15141207  0.92727521  1
  O  O114  1  0.31991083  0.14288851  0.42272287  1
  O  O115  1  0.82055520  0.13922893  0.41296348  1
  O  O116  1  0.25318544  0.35421003  0.42882974  1
  O  O117  1  0.74870440  0.35268690  0.41534397  1
  O  O118  1  0.42508069  0.50134807  0.41560552  1
  O  O119  1  0.92182889  0.48461000  0.42792800  1
  O  O120  1  0.16098174  0.47779170  0.07269416  1
  O  O121  1  0.66619600  0.48352117  0.06823549  1
  O  O122  1  0.07456974  0.68029630  0.07258919  1
  O  O123  1  0.57375627  0.65720864  0.06905801  1
  O  O124  1  0.26258165  0.84778751  0.07400469  1
  O  O125  1  0.75437546  0.84680145  0.07077604  1
  O  O126  1  0.16867942  0.85092827  0.57290982  1
  O  O127  1  0.66028981  0.84695273  0.57186148  1
  O  O128  1  0.25617908  0.66600971  0.57325668  1
  O  O129  1  0.76217270  0.67916176  0.57512877  1
  O  O130  1  0.07669884  0.48584871  0.57291530  1
  O  O131  1  0.57481673  0.47010433  0.57319956  1
  O  O132  1  0.14396530  0.82409501  0.25347750  1
  O  O133  1  0.63900079  0.79991278  0.26006014  1
  O  O134  1  0.26676669  0.70744749  0.25028744  1
  O  O135  1  0.76078418  0.71168058  0.26028106  1
  O  O136  1  0.09047176  0.46902574  0.25363278  1
  O  O137  1  0.59048168  0.45828547  0.25688154  1
  O  O138  1  0.13963758  0.47817580  0.76006957  1
  O  O139  1  0.64328047  0.46434790  0.75761927  1
  O  O140  1  0.09026953  0.72126652  0.75893376  1
  O  O141  1  0.58792666  0.70214624  0.75755284  1
  O  O142  1  0.26129932  0.81091495  0.76059854  1
  O  O143  1  0.76349112  0.82364625  0.75480861  1
loop_
_geom_bond_atom_site_label_1
_geom_bond_atom_site_label_2
_geom_bond_distance
_geom_bond_site_symmetry_2
Na0 O131 2.287878 1_555
Na0 O87 2.421660 1_555
Na0 O129 2.537824 1_555
Na0 O29 2.682154 1_555
Na0 O57 2.734651 1_555
Na0 O43 2.828125 1_555
Na0 O15 2.838186 1_555
Na1 O127 2.274464 1_555
Na1 O88 2.490434 1_555
Na1 O24 2.497971 1_555
Na1 O131 2.601353 1_555
Na1 O17 2.717326 1_555
Na1 O59 2.773596 1_555
Na1 O87 2.816208 1_565
Na1 O44 2.976054 1_555
Na2 O129 2.285578 1_555
Na2 O27 2.507379 1_565
Na2 O127 2.523098 1_555
Na2 O85 2.584903 1_565
Na2 O89 2.755215 1_555
Na2 O55 2.773659 1_555
Na2 O13 2.783297 1_555
Na2 O47 2.898655 1_565
Na3 O122 2.281715 1_555
Na3 O94 2.444572 1_565
Na3 O124 2.538570 1_555
Na3 O32 2.671528 1_565
Na3 O22 2.768976 1_555
Na3 O52 2.787229 1_554
Na3 O36 2.874033 1_565
Na3 O91 2.899727 1_455
Na4 O124 2.280611 1_555
Na4 O34 2.478409 1_555
Na4 O120 2.513256 1_555
Na4 O90 2.593613 1_555
Na4 O92 2.732790 1_565
Na4 O18 2.734474 1_555
Na4 O48 2.807489 1_554
Na4 O38 2.984463 1_555
Na5 O120 2.292134 1_555
Na5 O31 2.430768 1_455
Na5 O93 2.537311 1_455
Na5 O122 2.601273 1_555
Na5 O20 2.640861 1_555
Na5 O94 2.807814 1_555
Na5 O50 2.859080 1_554
Na6 O76 2.455008 1_555
Na6 O72 2.463595 1_545
Na6 O86 2.558182 1_555
Na6 O85 2.705972 1_455
Na6 O89 2.733167 1_445
Na6 O75 2.754979 1_455
Na7 O74 2.482806 1_545
Na7 O88 2.580747 1_545
Na7 O84 2.582740 1_555
Na7 O87 2.657183 1_555
Na7 O77 2.753577 1_555
Na7 O73 2.766127 1_545
Na8 O83 2.510548 1_554
Na8 O93 2.536245 1_565
Na8 O91 2.553092 1_555
Na8 O94 2.568986 1_665
Na8 O80 2.809183 1_664
Na8 O78 2.827492 1_564
Na9 O95 2.486589 1_556
Na9 O81 2.518254 1_545
Na9 O90 2.581827 1_546
Na9 O92 2.594420 1_556
Na9 O79 2.601961 1_555
Na9 O82 2.794226 1_545
Na10 O98 2.295993 1_555
Na10 O96 2.305058 1_555
Na10 O112 2.489037 1_555
Na10 O100 2.534055 1_555
Na10 O108 2.559834 1_555
Na10 O110 2.728125 1_555
Na11 O111 2.431536 1_555
Na11 O99 2.512883 1_555
Na11 O113 2.537952 1_555
Na11 O109 2.540086 1_555
Na11 O97 2.583260 1_555
Na11 O101 2.655594 1_555
Na12 O118 2.451786 1_555
Na12 O106 2.518363 1_555
Na12 O114 2.534475 1_555
Na12 O116 2.543491 1_555
Na12 O102 2.654445 1_555
Na12 O104 2.705445 1_555
Na13 O103 2.323631 1_555
Na13 O107 2.357689 1_555
Na13 O117 2.521096 1_555
Na13 O115 2.524825 1_555
Na13 O105 2.579097 1_555
Na13 O119 2.660768 1_555
Na14 O136 2.588077 1_555
Na14 O134 2.592074 1_555
Na14 O120 2.619412 1_555
Na14 O122 2.628952 1_555
Na14 O132 2.639847 1_555
Na14 O124 2.644695 1_555
Na15 O135 2.573230 1_555
Na15 O133 2.608427 1_555
Na15 O137 2.660287 1_555
Na15 O125 2.674556 1_555
Na15 O123 2.759941 1_555
Na15 O121 2.774325 1_555
Na16 O128 2.528401 1_555
Na16 O130 2.586591 1_555
Na16 O126 2.594068 1_555
Na16 O142 2.689584 1_555
Na16 O138 2.701565 1_555
Na16 O140 2.805855 1_555
Na17 O129 2.501198 1_555
Na17 O131 2.517038 1_555
Na17 O127 2.542397 1_555
Na17 O143 2.747718 1_555
Na17 O141 2.777391 1_555
Na17 O139 2.820059 1_555
Ca0 O24 2.151918 1_555
Ca0 O96 2.238864 1_555
Ca0 O98 2.238893 1_555
Ca0 O26 2.295230 1_555
Ca0 O28 2.368984 1_555
Ca0 O100 2.398464 1_555
Ca1 O29 2.120355 1_555
Ca1 O27 2.127753 1_555
Ca1 O25 2.322794 1_555
Ca1 O101 2.360233 1_555
Ca1 O99 2.384112 1_555
Ca1 O97 2.392354 1_555
Ca2 O32 2.125171 1_555
Ca2 O34 2.131262 1_555
Ca2 O30 2.332228 1_555
Ca2 O104 2.337252 1_555
Ca2 O106 2.353583 1_555
Ca2 O102 2.365546 1_555
Ca3 O31 2.157744 1_555
Ca3 O103 2.218937 1_555
Ca3 O107 2.228444 1_555
Ca3 O35 2.346088 1_555
Ca3 O105 2.382192 1_555
Ca3 O33 2.416787 1_555
Ca4 O120 2.198063 1_555
Ca4 O122 2.209430 1_555
Ca4 O124 2.214322 1_555
Ca4 O52 2.282049 1_554
Ca4 O50 2.287712 1_554
Ca4 O48 2.304397 1_554
Ca5 O127 2.206192 1_555
Ca5 O131 2.218082 1_555
Ca5 O129 2.223696 1_555
Ca5 O55 2.275232 1_555
Ca5 O57 2.276890 1_555
Ca5 O59 2.280974 1_555
O0 S0 1.482294 1_555
O0 Ti0 1.971965 1_555
O1 Si0 1.637739 1_555
O1 Ti1 1.788870 1_555
O2 S1 1.479068 1_555
O2 Ti1 1.970073 1_555
O3 Si1 1.621653 1_555
O3 Ti0 1.804066 1_655
O4 S3 1.471484 1_555
O4 Ti1 1.995581 1_545
O5 S2 1.469596 1_555
O5 Ti0 2.108342 1_545
O6 Si2 1.641479 1_555
O6 Ti2 1.777313 1_455
O7 S4 1.504477 1_555
O7 Ti3 1.931459 1_555
O8 S6 1.507454 1_555
O8 Ti3 1.932917 1_565
O9 S5 1.485714 1_655
O9 Ti2 1.974933 1_565
O10 Si3 1.645097 1_555
O10 Ti3 1.784270 1_565
O11 S7 1.481864 1_555
O11 Ti2 1.970935 1_565
O12 Si3 1.655056 1_555
O12 Ti5 1.842572 1_565
O13 S7 1.488042 1_555
O13 Ti4 2.256788 1_665
O14 Si2 1.666738 1_555
O14 Ti4 1.840116 1_555
O15 S4 1.484344 1_555
O15 Ti5 2.235025 1_555
O16 S5 1.489391 1_555
O16 Ti4 2.127306 1_565
O17 S6 1.478246 1_555
O17 Ti5 2.347045 1_565
O18 S1 1.531815 1_555
O18 Ti7 2.043296 1_565
O19 Si1 1.666617 1_555
O19 Ti6 1.813143 1_555
O20 S2 1.512999 1_555
O20 Ti6 2.201971 1_445
O21 S3 1.516866 1_555
O21 Ti7 1.995943 1_555
O22 S0 1.508456 1_555
O22 Ti6 2.100938 1_455
O23 Si0 1.682850 1_555
O23 Ti7 1.830597 1_565
O24 Si4 1.578381 1_555
O25 S8 1.451431 1_555
O26 S9 1.440092 1_555
O27 Si5 1.594990 1_555
O28 S10 1.451502 1_555
O29 Si6 1.575583 1_555
O30 S11 1.447056 1_555
O31 Si7 1.578259 1_555
O32 Si8 1.574422 1_555
O33 S12 1.445002 1_555
O34 Si9 1.586291 1_555
O35 S13 1.441023 1_555
O36 Si9 1.772135 1_555
O36 Ti8 1.786563 1_554
O37 S13 1.503863 1_555
O37 Ti9 2.056975 1_554
O38 S11 1.512778 1_555
O38 Ti8 2.089512 1_554
O39 Si7 1.711812 1_555
O39 Ti9 1.810482 1_554
O40 Si8 1.738143 1_555
O40 Ti8 1.775263 1_554
O41 S12 1.478274 1_555
O41 Ti9 2.294429 1_554
O42 S9 1.491532 1_555
O42 Ti10 2.092147 1_555
O43 Si5 1.720973 1_555
O43 Ti11 1.880587 1_555
O44 S10 1.474523 1_555
O44 Ti10 2.359406 1_555
O45 Si6 1.710059 1_555
O45 Ti11 1.782837 1_555
O46 Si4 1.690501 1_555
O46 Ti10 1.827682 1_555
O47 S8 1.492214 1_555
O47 Ti11 2.198369 1_555
O48 S14 1.463287 1_555
O49 Si10 1.644653 1_555
O49 Ti12 1.797322 1_556
O50 S15 1.458883 1_555
O51 S16 1.493233 1_555
O51 Ti12 2.040679 1_556
O52 S17 1.458913 1_555
O53 Si11 1.654581 1_555
O53 Ti12 1.789160 1_556
O54 Si12 1.635312 1_555
O54 Ti13 1.825025 1_555
O55 S18 1.465442 1_555
O56 Si13 1.644138 1_555
O56 Ti13 1.803388 1_555
O57 S19 1.464029 1_555
O58 Si14 1.642648 1_555
O58 Ti13 1.816012 1_555
O59 S20 1.462708 1_555
O60 Si14 1.658213 1_555
O60 Ti14 1.817922 1_555
O61 S20 1.473827 1_555
O61 Ti15 2.245187 1_555
O62 Si12 1.637864 1_555
O62 Ti14 1.857838 1_555
O63 S18 1.529655 1_555
O63 Ti15 1.959159 1_555
O64 Si13 1.657824 1_555
O64 Ti14 1.828320 1_555
O65 S19 1.476284 1_555
O65 Ti15 2.220793 1_555
O66 S15 1.479536 1_555
O66 Ti16 2.235978 1_555
O67 S16 1.490737 1_555
O67 Ti17 2.073134 1_555
O68 S17 1.473767 1_555
O68 Ti16 2.269065 1_555
O69 Si11 1.675524 1_555
O69 Ti17 1.806760 1_555
O70 S14 1.511013 1_555
O70 Ti16 2.037451 1_555
O71 Si10 1.650876 1_555
O71 Ti17 1.815189 1_555
O72 Si14 1.644952 1_555
O72 Ti0 1.888905 1_555
O73 S20 1.508463 1_555
O73 Ti1 1.973812 1_555
O74 Si12 1.631668 1_555
O74 Ti1 1.941836 1_555
O75 S18 1.480623 1_545
O75 Ti0 2.041237 1_645
O76 Si13 1.624654 1_555
O76 Ti0 1.948665 1_545
O77 S19 1.505920 1_555
O77 Ti1 1.988128 1_545
O78 S15 1.506445 1_655
O78 Ti2 1.985989 1_555
O79 S16 1.491428 1_555
O79 Ti3 2.208620 1_555
O80 S17 1.504233 1_545
O80 Ti2 1.999237 1_455
O81 Si11 1.626476 1_555
O81 Ti3 1.956082 1_565
O82 S14 1.496176 1_555
O82 Ti3 2.027536 1_565
O83 Si10 1.615597 1_555
O83 Ti2 1.975373 1_565
O84 Si4 1.688197 1_555
O84 Ti5 1.802053 1_555
O85 S8 1.542797 1_555
O85 Ti4 2.087149 1_655
O86 S9 1.532276 1_555
O86 Ti4 2.002489 1_555
O87 Si5 1.685526 1_555
O87 Ti5 1.966812 1_555
O88 S10 1.546946 1_555
O88 Ti5 2.043812 1_565
O89 Si6 1.672611 1_555
O89 Ti4 1.851698 1_665
O90 S11 1.514015 1_555
O90 Ti7 2.289891 1_565
O91 Si7 1.679218 1_555
O91 Ti6 1.834980 1_555
O92 Si8 1.671398 1_555
O92 Ti7 1.888055 1_555
O93 S12 1.518670 1_555
O93 Ti6 2.168836 1_545
O94 Si9 1.655379 1_555
O94 Ti6 2.016509 1_445
O95 S13 1.509848 1_555
O95 Ti7 2.133949 1_555
O96 Si3 1.570767 1_545
O97 S7 1.465017 1_545
O98 Si2 1.567891 1_555
O99 S4 1.469807 1_555
O100 S6 1.456996 1_555
O101 S5 1.462522 1_655
O102 S1 1.463879 1_555
O103 Si1 1.571541 1_555
O104 S3 1.455818 1_555
O105 S2 1.463898 1_655
O106 S0 1.471809 1_545
O107 Si0 1.566302 1_545
O108 S14 1.478205 1_555
O108 Ti8 2.418874 1_555
O109 Si10 1.643713 1_555
O109 Ti9 1.844307 1_555
O110 S16 1.479923 1_555
O110 Ti8 2.288833 1_555
O111 S15 1.494513 1_655
O111 Ti9 2.200954 1_555
O112 S17 1.510858 1_545
O112 Ti8 2.143306 1_555
O113 Si11 1.616588 1_545
O113 Ti9 1.956736 1_555
O114 Si12 1.660701 1_545
O114 Ti10 1.829796 1_555
O115 S18 1.463935 1_545
O115 Ti11 2.487065 1_555
O116 Si13 1.635202 1_555
O116 Ti10 1.911554 1_555
O117 S19 1.495088 1_555
O117 Ti11 2.161025 1_555
O118 S20 1.492262 1_555
O118 Ti10 2.177949 1_555
O119 Si14 1.628518 1_655
O119 Ti11 1.920268 1_555
O120 Si9 1.596408 1_555
O121 S13 1.496308 1_555
O121 Ti12 2.145562 1_555
O122 Si7 1.604735 1_455
O123 S11 1.487336 1_555
O123 Ti12 2.124020 1_555
O124 Si8 1.598396 1_565
O125 S12 1.521203 1_565
O125 Ti12 2.008369 1_555
O126 S9 1.482528 1_565
O126 Ti13 2.218295 1_555
O127 Si5 1.605168 1_565
O128 S10 1.492067 1_555
O128 Ti13 2.167436 1_555
O129 Si6 1.600938 1_555
O130 S8 1.480600 1_455
O130 Ti13 2.192844 1_555
O131 Si4 1.605758 1_555
O132 S0 1.482754 1_555
O132 Ti14 2.285598 1_555
O133 Si0 1.680202 1_555
O133 Ti15 1.819904 1_555
O134 S1 1.471971 1_555
O134 Ti14 2.336043 1_555
O135 Si1 1.697225 1_555
O135 Ti15 1.793558 1_555
O136 S2 1.514117 1_555
O136 Ti14 2.147892 1_555
O137 S3 1.486651 1_555
O137 Ti15 2.160225 1_555
O138 Si2 1.682766 1_555
O138 Ti16 1.803565 1_555
O139 S4 1.489174 1_555
O139 Ti17 2.203751 1_555
O140 S5 1.497773 1_555
O140 Ti16 2.085835 1_555
O141 S6 1.502980 1_555
O141 Ti17 2.104335 1_555
O142 Si3 1.697310 1_555
O142 Ti16 1.791180 1_555
O143 S7 1.509449 1_555
O143 Ti17 2.061537 1_555
