# generated using pymatgen
data_Ba2P3Pd
_symmetry_space_group_name_H-M   'P 1'
_cell_length_a   7.20842495
_cell_length_b   6.53864683
_cell_length_c   12.98182939
_cell_angle_alpha   88.28058662
_cell_angle_beta   90.00000000
_cell_angle_gamma   90.00000000
_symmetry_Int_Tables_number   1
_chemical_formula_structural   Ba2P3Pd
_chemical_formula_sum   'Ba8 P12 Pd4'
_cell_volume   611.60154598
_cell_formula_units_Z   4
loop_
 _symmetry_equiv_pos_site_id
 _symmetry_equiv_pos_as_xyz
  1  'x, y, z'
loop_
 _atom_site_type_symbol
 _atom_site_label
 _atom_site_symmetry_multiplicity
 _atom_site_fract_x
 _atom_site_fract_y
 _atom_site_fract_z
 _atom_site_occupancy
  Ba  Ba0  1  0.25561821  0.62046301  0.33675498  1
  Ba  Ba1  1  0.24438179  0.62046301  0.83675498  1
  Ba  Ba2  1  0.74438179  0.37953699  0.66324502  1
  Ba  Ba3  1  0.75561821  0.37953699  0.16324502  1
  Ba  Ba4  1  0.74860562  0.83314394  0.43954493  1
  Ba  Ba5  1  0.24860562  0.16685606  0.06045507  1
  Ba  Ba6  1  0.25139438  0.16685606  0.56045507  1
  Ba  Ba7  1  0.75139438  0.83314394  0.93954493  1
  P  P0  1  0.09041582  0.68883638  0.59668033  1
  P  P1  1  0.59041582  0.31116362  0.90331967  1
  P  P2  1  0.90958418  0.31116362  0.40331967  1
  P  P3  1  0.40958418  0.68883638  0.09668033  1
  P  P4  1  0.39024255  0.68556373  0.59662537  1
  P  P5  1  0.89024255  0.31443627  0.90337463  1
  P  P6  1  0.60975745  0.31443627  0.40337463  1
  P  P7  1  0.57291177  0.90407558  0.19261866  1
  P  P8  1  0.92708823  0.90407558  0.69261866  1
  P  P9  1  0.42708823  0.09592442  0.80738134  1
  P  P10  1  0.07291177  0.09592442  0.30738134  1
  P  P11  1  0.10975745  0.68556373  0.09662537  1
  Pd  Pd0  1  0.90057474  0.88516787  0.19331206  1
  Pd  Pd1  1  0.09942526  0.11483213  0.80668794  1
  Pd  Pd2  1  0.40057474  0.11483213  0.30668794  1
  Pd  Pd3  1  0.59942526  0.88516787  0.69331206  1
loop_
_geom_bond_atom_site_label_1
_geom_bond_atom_site_label_2
_geom_bond_distance
_geom_bond_site_symmetry_2
Ba0 P11 3.305262 1_555
Ba0 P2 3.309650 1_455
Ba0 P3 3.325850 1_555
Ba0 P6 3.341381 1_555
Ba0 P10 3.387318 1_565
Ba0 Pd2 3.408454 1_565
Ba0 P7 3.458781 1_555
Ba0 Pd2 3.500314 1_555
Ba0 P4 3.548272 1_555
Ba0 Pd0 3.580495 1_455
Ba0 P0 3.618627 1_555
Ba0 P10 3.704293 1_555
Ba1 P4 3.305262 1_555
Ba1 P1 3.309650 1_555
Ba1 P0 3.325850 1_555
Ba1 P5 3.341381 1_455
Ba1 P9 3.387318 1_565
Ba1 Pd1 3.408454 1_565
Ba1 P8 3.458781 1_455
Ba1 Pd1 3.500314 1_555
Ba1 P11 3.548272 1_556
Ba1 Pd3 3.580495 1_555
Ba1 P3 3.618627 1_556
Ba1 P9 3.704293 1_555
Ba2 P5 3.305262 1_555
Ba2 P0 3.309650 1_655
Ba2 P1 3.325850 1_555
Ba2 P4 3.341381 1_555
Ba2 P8 3.387318 1_545
Ba2 Pd3 3.408454 1_545
Ba2 P9 3.458781 1_555
Ba2 Pd3 3.500314 1_555
Ba2 P6 3.548272 1_555
Ba2 Pd1 3.580495 1_655
Ba2 P2 3.618627 1_555
Ba2 P8 3.704293 1_555
Ba3 P6 3.305262 1_555
Ba3 P3 3.309650 1_555
Ba3 P2 3.325850 1_555
Ba3 P11 3.341381 1_655
Ba3 P7 3.387318 1_545
Ba3 Pd0 3.408454 1_545
Ba3 P10 3.458781 1_655
Ba3 Pd0 3.500314 1_555
Ba3 P5 3.548272 1_554
Ba3 Pd2 3.580495 1_555
Ba3 P1 3.618627 1_554
Ba3 P7 3.704293 1_555
Ba4 P0 3.317666 1_655
Ba4 P6 3.322224 1_565
Ba4 P10 3.344268 1_665
Ba4 P2 3.353933 1_565
Ba4 Pd0 3.386509 1_555
Ba4 P4 3.412402 1_555
Ba4 P7 3.464886 1_555
Ba4 Pd3 3.491729 1_555
Ba4 Pd2 3.531338 1_565
Ba4 P8 3.571473 1_555
Ba4 P6 3.580652 1_555
Ba4 P2 3.648682 1_555
Ba5 P1 3.317666 1_554
Ba5 P11 3.322224 1_545
Ba5 P7 3.344268 1_545
Ba5 P3 3.353933 1_545
Ba5 Pd2 3.386509 1_555
Ba5 P5 3.412402 1_454
Ba5 P10 3.464886 1_555
Ba5 Pd1 3.491729 1_554
Ba5 Pd0 3.531338 1_445
Ba5 P9 3.571473 1_554
Ba5 P11 3.580652 1_555
Ba5 P3 3.648682 1_555
Ba6 P2 3.317666 1_455
Ba6 P4 3.322224 1_545
Ba6 P8 3.344268 1_445
Ba6 P0 3.353933 1_545
Ba6 Pd1 3.386509 1_555
Ba6 P6 3.412402 1_555
Ba6 P9 3.464886 1_555
Ba6 Pd2 3.491729 1_555
Ba6 Pd3 3.531338 1_545
Ba6 P10 3.571473 1_555
Ba6 P4 3.580652 1_555
Ba6 P0 3.648682 1_555
Ba7 P3 3.317666 1_556
Ba7 P5 3.322224 1_565
Ba7 P9 3.344268 1_565
Ba7 P1 3.353933 1_565
Ba7 Pd3 3.386509 1_555
Ba7 P11 3.412402 1_656
Ba7 P8 3.464886 1_555
Ba7 Pd0 3.491729 1_556
Ba7 Pd1 3.531338 1_665
Ba7 P7 3.571473 1_556
Ba7 P5 3.580652 1_555
Ba7 P1 3.648682 1_555
P0 P4 2.161385 1_555
P0 P8 2.241241 1_455
P1 P5 2.161385 1_555
P1 P9 2.241241 1_555
P2 P6 2.161385 1_555
P3 P7 2.241241 1_555
P4 Pd3 2.377151 1_555
P5 Pd1 2.377151 1_655
P6 Pd2 2.377151 1_555
P7 Pd0 2.365170 1_555
P7 Pd2 2.399505 1_565
P8 Pd3 2.365170 1_555
P8 Pd1 2.399505 1_665
P9 Pd1 2.365170 1_555
P9 Pd3 2.399505 1_545
P10 P2 2.241241 1_455
P10 Pd2 2.365170 1_555
P10 Pd0 2.399505 1_445
P11 P3 2.161385 1_555
P11 Pd0 2.377151 1_455
