# generated using pymatgen
data_Na5ZrIn3Si3(SO8)3
_symmetry_space_group_name_H-M   'P 1'
_cell_length_a   9.16887565
_cell_length_b   9.19287864
_cell_length_c   22.94062727
_cell_angle_alpha   90.28248618
_cell_angle_beta   90.25819608
_cell_angle_gamma   120.12648819
_symmetry_Int_Tables_number   1
_chemical_formula_structural   Na5ZrIn3Si3(SO8)3
_chemical_formula_sum   'Na15 Zr3 In9 Si9 S9 O72'
_cell_volume   1672.35760780
_cell_formula_units_Z   3
loop_
 _symmetry_equiv_pos_site_id
 _symmetry_equiv_pos_as_xyz
  1  'x, y, z'
loop_
 _atom_site_type_symbol
 _atom_site_label
 _atom_site_symmetry_multiplicity
 _atom_site_fract_x
 _atom_site_fract_y
 _atom_site_fract_z
 _atom_site_occupancy
  Na  Na0  1  0.64704705  0.00621717  0.25837125  1
  Na  Na1  1  0.00091264  0.61866377  0.24664185  1
  Na  Na2  1  0.62868213  0.63379178  0.74182586  1
  Na  Na3  1  0.36915500  0.01720915  0.75949322  1
  Na  Na4  1  0.66659288  0.95268850  0.58658954  1
  Na  Na5  1  0.98028552  0.69192541  0.92392812  1
  Na  Na6  1  0.68746783  0.01169771  0.90864683  1
  Na  Na7  1  0.96043132  0.29954059  0.40568636  1
  Na  Na8  1  0.70961252  0.69281845  0.42592743  1
  Na  Na9  1  0.00126133  0.97013594  0.50173627  1
  Na  Na10  1  0.01357280  0.98244587  0.99836582  1
  Na  Na11  1  0.63668183  0.31512333  0.82966207  1
  Na  Na12  1  0.66633454  0.31584586  0.33207922  1
  Na  Na13  1  0.29646896  0.62586624  0.15931541  1
  Na  Na14  1  0.32948900  0.62718246  0.66551017  1
  Zr  Zr0  1  0.66490997  0.34580239  0.98111877  1
  Zr  Zr1  1  0.67037219  0.34159072  0.48179112  1
  Zr  Zr2  1  0.34675111  0.66756810  0.81495985  1
  In  In0  1  0.99860205  0.99928908  0.35001275  1
  In  In1  1  0.00414678  0.01172516  0.84892236  1
  In  In2  1  0.99155795  0.99768192  0.65178353  1
  In  In3  1  0.00185446  0.00171875  0.14447045  1
  In  In4  1  0.66033478  0.33738871  0.68410186  1
  In  In5  1  0.68831391  0.34395247  0.17812960  1
  In  In6  1  0.33377974  0.68132119  0.01679538  1
  In  In7  1  0.33999585  0.67503806  0.51535048  1
  In  In8  1  0.32071031  0.66256227  0.31907105  1
  Si  Si0  1  0.00426037  0.29562250  0.24973493  1
  Si  Si1  1  0.29161232  0.29360225  0.74734743  1
  Si  Si2  1  0.69972102  0.00422856  0.74963388  1
  Si  Si3  1  0.66592870  0.63732933  0.58526264  1
  Si  Si4  1  0.97801745  0.64252768  0.08554643  1
  Si  Si5  1  0.63220712  0.67257291  0.91889210  1
  Si  Si6  1  0.32984055  0.96532524  0.91538797  1
  Si  Si7  1  0.63221779  0.96608673  0.41486969  1
  Si  Si8  1  0.03642847  0.66935862  0.41603829  1
  S  S0  1  0.30075692  0.00448300  0.24885418  1
  S  S1  1  0.69710135  0.69665363  0.24989073  1
  S  S2  1  0.00196247  0.70058253  0.75112538  1
  S  S3  1  0.96360715  0.33625975  0.58259783  1
  S  S4  1  0.36906031  0.03744881  0.58305000  1
  S  S5  1  0.66576167  0.03680256  0.08386498  1
  S  S6  1  0.37510270  0.33534700  0.08493524  1
  S  S7  1  0.03818282  0.37429676  0.91934043  1
  S  S8  1  0.33529862  0.36994015  0.41718902  1
  O  O0  1  0.22439319  0.02322154  0.30332874  1
  O  O1  1  0.80058630  0.76630072  0.30473816  1
  O  O2  1  0.97506199  0.19075957  0.31092023  1
  O  O3  1  0.21536609  0.16547290  0.80187987  1
  O  O4  1  0.97087101  0.77370944  0.80444157  1
  O  O5  1  0.80323439  0.02438121  0.80992695  1
  O  O6  1  0.76971282  0.95451231  0.69155899  1
  O  O7  1  0.18749009  0.20872441  0.68716822  1
  O  O8  1  0.03465401  0.80968409  0.69956724  1
  O  O9  1  0.78497066  0.80538436  0.19983435  1
  O  O10  1  0.01653754  0.19304587  0.19408011  1
  O  O11  1  0.19143080  0.97493107  0.19751552  1
  O  O12  1  0.87881322  0.34971336  0.63498420  1
  O  O13  1  0.46590228  0.11135768  0.63813129  1
  O  O14  1  0.65680353  0.53926020  0.64524464  1
  O  O15  1  0.90066516  0.55124779  0.14888108  1
  O  O16  1  0.64605264  0.11084618  0.13995431  1
  O  O17  1  0.47021463  0.34438387  0.13911554  1
  O  O18  1  0.46656780  0.32152610  0.03293105  1
  O  O19  1  0.85074669  0.52883299  0.03052113  1
  O  O20  1  0.66913204  0.14013746  0.03339784  1
  O  O21  1  0.46843796  0.14325580  0.53276825  1
  O  O22  1  0.67362145  0.53217787  0.52720710  1
  O  O23  1  0.85928110  0.32231336  0.52904031  1
  O  O24  1  0.53757138  0.69834671  0.97355453  1
  O  O25  1  0.13662514  0.44691751  0.97276824  1
  O  O26  1  0.27771457  0.83634902  0.96975681  1
  O  O27  1  0.55580548  0.84344362  0.47125903  1
  O  O28  1  0.30550959  0.44604964  0.46915661  1
  O  O29  1  0.14994494  0.68564523  0.47213844  1
  O  O30  1  0.09431593  0.61446880  0.35603022  1
  O  O31  1  0.52696896  0.87995514  0.35393884  1
  O  O32  1  0.37220101  0.47748361  0.36481265  1
  O  O33  1  0.11971480  0.47881071  0.86725961  1
  O  O34  1  0.35920131  0.87485332  0.85711005  1
  O  O35  1  0.52119697  0.64382062  0.85869985  1
  O  O36  1  0.00816650  0.83117939  0.41060183  1
  O  O37  1  0.82692856  0.99862121  0.41275901  1
  O  O38  1  0.18587870  0.20124006  0.41034004  1
  O  O39  1  0.00359338  0.19980061  0.91377166  1
  O  O40  1  0.16647237  0.98966285  0.90961418  1
  O  O41  1  0.81986360  0.84034234  0.91429917  1
  O  O42  1  0.96789684  0.17634147  0.58182588  1
  O  O43  1  0.20271185  0.02417867  0.58250168  1
  O  O44  1  0.83790194  0.82713584  0.58388827  1
  O  O45  1  0.98590076  0.82636435  0.08421209  1
  O  O46  1  0.82661020  0.03463295  0.08313729  1
  O  O47  1  0.20655691  0.18170293  0.08360684  1
  O  O48  1  0.66982429  0.16491693  0.74301922  1
  O  O49  1  0.48968531  0.33362900  0.74662825  1
  O  O50  1  0.85084530  0.53180136  0.74423740  1
  O  O51  1  0.67335384  0.52423996  0.24410213  1
  O  O52  1  0.82640085  0.30874118  0.24701188  1
  O  O53  1  0.47234733  0.15592359  0.24367812  1
  O  O54  1  0.66080313  0.50815333  0.92387529  1
  O  O55  1  0.86832571  0.36473661  0.92300971  1
  O  O56  1  0.51428259  0.14231361  0.92439017  1
  O  O57  1  0.65252010  0.15490885  0.42288050  1
  O  O58  1  0.48742159  0.35209604  0.42438298  1
  O  O59  1  0.84074039  0.50344573  0.42468757  1
  O  O60  1  0.36224434  0.48833190  0.08177453  1
  O  O61  1  0.15993484  0.65154459  0.08092787  1
  O  O62  1  0.52005929  0.86539738  0.08157555  1
  O  O63  1  0.35672684  0.86972636  0.57889090  1
  O  O64  1  0.49821370  0.66143647  0.58150997  1
  O  O65  1  0.13348201  0.48465482  0.57895398  1
  O  O66  1  0.32186678  0.85227396  0.25199963  1
  O  O67  1  0.53189796  0.68967301  0.25463727  1
  O  O68  1  0.16643105  0.49042807  0.25205300  1
  O  O69  1  0.30927088  0.48110947  0.75494173  1
  O  O70  1  0.15344465  0.68368334  0.75773229  1
  O  O71  1  0.50638485  0.83314968  0.75507385  1
loop_
_geom_bond_atom_site_label_1
_geom_bond_atom_site_label_2
_geom_bond_distance
_geom_bond_site_symmetry_2
Na0 O52 2.434476 1_555
Na0 O31 2.475881 1_545
Na0 O67 2.550008 1_545
Na0 O66 2.583053 1_545
Na0 O53 2.604991 1_555
Na0 O2 2.863907 1_555
Na0 O16 2.887778 1_555
Na1 O68 2.346040 1_555
Na1 O15 2.377920 1_455
Na1 O52 2.470176 1_455
Na1 O66 2.633873 1_555
Na1 O30 2.654605 1_555
Na1 O51 2.675431 1_455
Na2 O49 2.392611 1_555
Na2 O14 2.437580 1_555
Na2 O69 2.554081 1_555
Na2 O71 2.601710 1_555
Na2 O50 2.635922 1_555
Na2 O6 2.813272 1_555
Na2 O35 2.877666 1_555
Na3 O48 2.417302 1_555
Na3 O49 2.560097 1_555
Na3 O71 2.567690 1_545
Na3 O34 2.578108 1_545
Na3 O3 2.592301 1_555
Na3 O70 2.687919 1_545
Na3 O13 2.926195 1_555
Na3 O8 2.999769 1_545
Na4 O64 2.326305 1_555
Na4 O44 2.371314 1_555
Na4 O42 2.484843 1_565
Na4 O63 2.550271 1_555
Na4 O6 2.579959 1_555
Na4 O27 2.822404 1_555
Na5 O40 2.416024 1_655
Na5 O41 2.467468 1_555
Na5 O54 2.543054 1_555
Na5 O26 2.575058 1_655
Na5 O55 2.645916 1_555
Na5 O19 2.812984 1_556
Na5 O4 2.858259 1_555
Na6 O41 2.427335 1_545
Na6 O56 2.451228 1_555
Na6 O5 2.483778 1_555
Na6 O39 2.523690 1_655
Na6 O55 2.823734 1_555
Na6 O34 2.862149 1_545
Na6 O24 2.913851 1_545
Na7 O37 2.405054 1_545
Na7 O2 2.420769 1_555
Na7 O57 2.478108 1_555
Na7 O59 2.639933 1_555
Na7 O38 2.641017 1_655
Na7 O30 2.768351 1_655
Na8 O36 2.398497 1_655
Na8 O37 2.475286 1_555
Na8 O59 2.564733 1_555
Na8 O27 2.635674 1_555
Na8 O22 2.690636 1_555
Na8 O58 2.748671 1_555
Na8 O1 2.890530 1_555
Na9 O44 2.365739 1_455
Na9 O36 2.462271 1_555
Na9 O43 2.475952 1_565
Na9 O37 2.680685 1_455
Na9 O42 2.759619 1_465
Na9 O38 2.870702 1_565
Na10 O45 2.380855 1_456
Na10 O40 2.459438 1_555
Na10 O41 2.489086 1_455
Na10 O47 2.643876 1_566
Na10 O46 2.792322 1_466
Na10 O39 2.826145 1_565
Na11 O49 2.384146 1_555
Na11 O48 2.519789 1_555
Na11 O56 2.602308 1_555
Na11 O54 2.726343 1_555
Na11 O50 2.794779 1_555
Na11 O55 2.877817 1_555
Na12 O52 2.467249 1_555
Na12 O57 2.527566 1_555
Na12 O53 2.598236 1_555
Na12 O59 2.685093 1_555
Na12 O51 2.768225 1_555
Na12 O58 2.803390 1_555
Na13 O61 2.266531 1_555
Na13 O60 2.424753 1_555
Na13 O68 2.461030 1_555
Na13 O62 2.787874 1_555
Na13 O66 2.893517 1_555
Na13 O67 2.908494 1_555
Na14 O64 2.397844 1_555
Na14 O69 2.414001 1_555
Na14 O65 2.543190 1_555
Na14 O71 2.699292 1_555
Na14 O70 2.865769 1_555
Na14 O63 2.910599 1_555
In0 O2 2.084276 1_565
In0 O36 2.117565 1_655
In0 O37 2.135526 1_555
In0 O1 2.240551 1_555
In0 O0 2.246418 1_665
In0 O38 2.250255 1_665
In1 O3 2.049165 1_555
In1 O5 2.099669 1_455
In1 O40 2.117060 1_545
In1 O41 2.227203 1_445
In1 O39 2.277284 1_555
In1 O4 2.286252 1_445
In2 O7 2.030490 1_665
In2 O6 2.082674 1_555
In2 O44 2.146573 1_555
In2 O8 2.246079 1_655
In2 O42 2.387607 1_565
In2 O43 2.427315 1_665
In3 O10 2.036682 1_555
In3 O45 2.066498 1_445
In3 O11 2.230778 1_545
In3 O46 2.263825 1_455
In3 O47 2.266919 1_555
In3 O9 2.295137 1_445
In4 O14 2.077485 1_555
In4 O49 2.115014 1_555
In4 O48 2.122922 1_555
In4 O13 2.202467 1_555
In4 O50 2.229051 1_555
In4 O12 2.255900 1_555
In5 O15 2.042659 1_555
In5 O52 2.145516 1_555
In5 O16 2.157340 1_555
In5 O17 2.189022 1_555
In5 O51 2.293804 1_555
In5 O53 2.405551 1_555
In6 O26 2.050689 1_554
In6 O24 2.055387 1_554
In6 O61 2.089811 1_555
In6 O25 2.232291 1_554
In6 O62 2.245047 1_555
In6 O60 2.434149 1_555
In7 O29 2.045641 1_555
In7 O27 2.072108 1_555
In7 O64 2.141904 1_555
In7 O28 2.227350 1_555
In7 O63 2.246807 1_555
In7 O65 2.345398 1_555
In8 O30 2.078829 1_555
In8 O31 2.094497 1_555
In8 O68 2.139664 1_555
In8 O32 2.244605 1_555
In8 O66 2.327479 1_555
In8 O67 2.354040 1_555
O0 S0 1.486085 1_555
O1 S1 1.504943 1_555
O2 Si0 1.651906 1_655
O3 Si1 1.623874 1_555
O4 S2 1.488818 1_655
O5 Si2 1.630149 1_555
O6 Si2 1.640670 1_565
O7 Si1 1.629693 1_555
O8 S2 1.485881 1_555
O9 S1 1.475845 1_555
O10 Si0 1.621098 1_555
O11 S0 1.475982 1_565
O12 S3 1.472240 1_555
O13 S4 1.490826 1_555
O14 Si3 1.628118 1_555
O15 Si4 1.655919 1_555
O16 S5 1.506176 1_555
O17 S6 1.492907 1_555
O18 S6 1.502397 1_555
O18 Zr0 2.093920 1_554
O19 Si4 1.672414 1_555
O19 Zr0 2.026000 1_554
O20 S5 1.491788 1_555
O20 Zr0 2.260494 1_554
O21 S4 1.495914 1_555
O21 Zr1 2.184455 1_555
O22 Si3 1.664255 1_555
O22 Zr1 2.021229 1_555
O23 S3 1.518467 1_555
O23 Zr1 2.121204 1_555
O24 Si5 1.610836 1_555
O25 S7 1.462779 1_555
O26 Si6 1.625110 1_555
O27 Si7 1.632494 1_555
O28 S8 1.473751 1_555
O29 Si8 1.609850 1_555
O30 Si8 1.643166 1_555
O31 Si7 1.649827 1_555
O32 S8 1.488350 1_555
O33 S7 1.485866 1_555
O33 Zr2 2.280551 1_555
O34 Si6 1.663915 1_555
O34 Zr2 2.083655 1_555
O35 Si5 1.651143 1_555
O35 Zr2 1.987721 1_555
O36 Si8 1.638336 1_555
O37 Si7 1.656487 1_555
O38 S8 1.472954 1_555
O39 S7 1.475479 1_555
O40 Si6 1.626723 1_555
O41 Si5 1.640014 1_555
O42 S3 1.490260 1_555
O43 S4 1.467787 1_555
O44 Si3 1.664640 1_555
O45 Si4 1.655334 1_555
O46 S5 1.485078 1_555
O47 S6 1.480591 1_555
O48 Si2 1.639684 1_555
O49 Si1 1.662357 1_555
O50 S2 1.479783 1_655
O51 S1 1.492794 1_555
O52 Si0 1.695417 1_655
O53 S0 1.494036 1_555
O54 Si5 1.663029 1_555
O54 Zr0 2.007158 1_555
O55 S7 1.517946 1_655
O55 Zr0 2.232652 1_555
O56 Si6 1.667723 1_545
O56 Zr0 2.113465 1_555
O57 Si7 1.659422 1_545
O57 Zr1 2.119318 1_555
O58 S8 1.492471 1_555
O58 Zr1 2.168309 1_555
O59 Si8 1.686441 1_655
O59 Zr1 2.018565 1_555
O60 S6 1.471192 1_555
O61 Si4 1.631912 1_455
O62 S5 1.468261 1_565
O63 S4 1.490848 1_565
O64 Si3 1.662020 1_555
O65 S3 1.470835 1_455
O66 S0 1.507738 1_565
O67 S1 1.488073 1_555
O68 Si0 1.657158 1_555
O69 Si1 1.656637 1_555
O69 Zr2 2.081609 1_555
O70 S2 1.480250 1_555
O70 Zr2 2.265264 1_555
O71 Si2 1.684261 1_565
O71 Zr2 2.036906 1_555
