# generated using pymatgen
data_MgMn6(O2F)4
_symmetry_space_group_name_H-M   'P 1'
_cell_length_a   5.31048487
_cell_length_b   7.66470875
_cell_length_c   5.73503424
_cell_angle_alpha   97.60098110
_cell_angle_beta   99.78442374
_cell_angle_gamma   83.15242285
_symmetry_Int_Tables_number   1
_chemical_formula_structural   MgMn6(O2F)4
_chemical_formula_sum   'Mg1 Mn6 O8 F4'
_cell_volume   226.89688112
_cell_formula_units_Z   1
loop_
 _symmetry_equiv_pos_site_id
 _symmetry_equiv_pos_as_xyz
  1  'x, y, z'
loop_
 _atom_site_type_symbol
 _atom_site_label
 _atom_site_symmetry_multiplicity
 _atom_site_fract_x
 _atom_site_fract_y
 _atom_site_fract_z
 _atom_site_occupancy
  Mg  Mg0  1  0.99646694  0.16357935  0.66090256  1
  Mn  Mn0  1  0.49230131  0.98162694  0.51401750  1
  Mn  Mn1  1  0.49998624  0.66340785  0.16190516  1
  Mn  Mn2  1  0.50050791  0.34177595  0.81622111  1
  Mn  Mn3  1  0.99971840  0.66342896  0.66199556  1
  Mn  Mn4  1  0.01620045  0.35664449  0.29612671  1
  Mn  Mn5  1  0.98386595  0.97009612  0.02796694  1
  O  O0  1  0.87599955  0.42523817  0.57882138  1
  O  O1  1  0.69748260  0.10616896  0.79821847  1
  O  O2  1  0.70058794  0.76392229  0.45704676  1
  O  O3  1  0.70503233  0.43778316  0.09982049  1
  O  O4  1  0.29839350  0.56294126  0.86754734  1
  O  O5  1  0.30013334  0.21873280  0.52843564  1
  O  O6  1  0.29437844  0.88871240  0.22407968  1
  O  O7  1  0.12461317  0.90221730  0.74389502  1
  F  F0  1  0.77754367  0.75791668  0.95942695  1
  F  F1  1  0.83874375  0.09331978  0.31238038  1
  F  F2  1  0.22316815  0.56807386  0.36446810  1
  F  F3  1  0.16098635  0.23441566  0.01005526  1
loop_
_geom_bond_atom_site_label_1
_geom_bond_atom_site_label_2
_geom_bond_distance
_geom_bond_site_symmetry_2
Mg0 O1 2.004499 1_555
Mg0 O5 2.005067 1_655
Mg0 O0 2.120024 1_555
Mg0 O7 2.125979 1_645
Mn0 O6 1.909982 1_555
Mn0 O2 1.911301 1_555
Mn0 O5 1.974260 1_565
Mn0 O1 1.996963 1_565
Mn0 O7 2.700330 1_555
Mn1 O6 1.954817 1_555
Mn1 O3 1.955239 1_555
Mn1 O4 1.956359 1_554
Mn1 O2 1.957371 1_555
Mn2 O3 1.907894 1_556
Mn2 O4 1.911487 1_555
Mn2 O1 1.975578 1_555
Mn2 O5 1.994072 1_555
Mn2 O0 2.774246 1_555
Mn3 O2 1.952275 1_555
Mn3 O4 1.952441 1_655
Mn3 O0 1.985286 1_555
Mn3 O7 1.991600 1_655
Mn4 O0 1.884323 1_455
Mn4 O3 1.921641 1_455
Mn4 O5 2.115568 1_555
Mn5 O7 1.892201 1_654
Mn5 O6 1.919156 1_655
Mn5 O1 2.107377 1_564
F0 Mn5 2.027127 1_556
F0 Mn3 2.231527 1_555
F0 Mn1 2.259338 1_556
F1 Mn5 1.998162 1_545
F1 Mg0 2.059244 1_555
F1 Mn4 2.345956 1_655
F1 Mn0 2.610652 1_545
F2 Mn4 2.024372 1_555
F2 Mn3 2.237248 1_455
F2 Mn1 2.259568 1_555
F3 Mn4 2.002723 1_555
F3 Mg0 2.073308 1_454
F3 Mn5 2.354138 1_445
F3 Mn2 2.537877 1_554
