# generated using pymatgen
data_Rb4CdCl6
_symmetry_space_group_name_H-M   'P 1'
_cell_length_a   8.89799916
_cell_length_b   8.89799916
_cell_length_c   8.89799791
_cell_angle_alpha   89.24636669
_cell_angle_beta   89.24636669
_cell_angle_gamma   89.24636342
_symmetry_Int_Tables_number   1
_chemical_formula_structural   Rb4CdCl6
_chemical_formula_sum   'Rb8 Cd2 Cl12'
_cell_volume   704.31230900
_cell_formula_units_Z   2
loop_
 _symmetry_equiv_pos_site_id
 _symmetry_equiv_pos_as_xyz
  1  'x, y, z'
loop_
 _atom_site_type_symbol
 _atom_site_label
 _atom_site_symmetry_multiplicity
 _atom_site_fract_x
 _atom_site_fract_y
 _atom_site_fract_z
 _atom_site_occupancy
  Rb  Rb0  1  0.75000000  0.75000000  0.75000000  1
  Rb  Rb1  1  0.25000000  0.25000000  0.25000000  1
  Rb  Rb2  1  0.87360164  0.25000000  0.62639836  1
  Rb  Rb3  1  0.62639836  0.87360164  0.25000000  1
  Rb  Rb4  1  0.25000000  0.62639836  0.87360164  1
  Rb  Rb5  1  0.12639836  0.75000000  0.37360164  1
  Rb  Rb6  1  0.37360164  0.12639836  0.75000000  1
  Rb  Rb7  1  0.75000000  0.37360164  0.12639836  1
  Cd  Cd0  1  0.50000000  0.50000000  0.50000000  1
  Cd  Cd1  1  -0.00000000  -0.00000000  -0.00000000  1
  Cl  Cl0  1  0.28653751  0.94109965  0.06909222  1
  Cl  Cl1  1  0.06909222  0.28653751  0.94109965  1
  Cl  Cl2  1  0.94109965  0.06909222  0.28653751  1
  Cl  Cl3  1  0.21346249  0.43090778  0.55890035  1
  Cl  Cl4  1  0.55890035  0.21346249  0.43090778  1
  Cl  Cl5  1  0.43090778  0.55890035  0.21346249  1
  Cl  Cl6  1  0.71346249  0.05890035  0.93090778  1
  Cl  Cl7  1  0.93090778  0.71346249  0.05890035  1
  Cl  Cl8  1  0.05890035  0.93090778  0.71346249  1
  Cl  Cl9  1  0.78653751  0.56909222  0.44109965  1
  Cl  Cl10  1  0.56909222  0.44109965  0.78653751  1
  Cl  Cl11  1  0.44109965  0.78653751  0.56909222  1
loop_
_geom_bond_atom_site_label_1
_geom_bond_atom_site_label_2
_geom_bond_distance
_geom_bond_site_symmetry_2
Cd0 Cl5 2.674089 1_555
Cd0 Cl10 2.674089 1_555
Cd0 Cl4 2.674089 1_555
Cd0 Cl11 2.674089 1_555
Cd0 Cl3 2.674089 1_555
Cd0 Cl9 2.674089 1_555
Cd1 Cl8 2.674089 1_544
Cd1 Cl2 2.674089 1_455
Cd1 Cl6 2.674089 1_454
Cd1 Cl0 2.674089 1_545
Cd1 Cl7 2.674089 1_445
Cd1 Cl1 2.674089 1_554
Cl0 Rb1 3.214153 1_565
Cl0 Rb4 3.337606 1_554
Cl0 Rb6 3.351532 1_564
Cl0 Rb5 3.479118 1_555
Cl0 Rb3 3.485946 1_555
Cl1 Rb1 3.214152 1_556
Cl1 Rb2 3.337606 1_455
Cl1 Rb7 3.351532 1_456
Cl1 Rb6 3.479118 1_555
Cl1 Rb4 3.485946 1_555
Cl2 Rb1 3.214153 1_655
Cl2 Rb3 3.337606 1_545
Cl2 Rb5 3.351532 1_645
Cl2 Rb7 3.479118 1_555
Cl2 Rb2 3.485946 1_555
Cl3 Rb1 3.214152 1_555
Cl3 Rb4 3.337606 1_555
Cl3 Rb5 3.351532 1_555
Cl3 Rb6 3.479118 1_555
Cl3 Rb2 3.485946 1_455
Cl4 Rb1 3.214153 1_555
Cl4 Rb2 3.337606 1_555
Cl4 Rb6 3.351532 1_555
Cl4 Rb7 3.479118 1_555
Cl4 Rb3 3.485946 1_545
Cl5 Rb1 3.214153 1_555
Cl5 Rb3 3.337606 1_555
Cl5 Rb7 3.351532 1_555
Cl5 Rb5 3.479118 1_555
Cl5 Rb4 3.485946 1_554
Cl6 Rb0 3.214153 1_545
Cl6 Rb7 3.337606 1_556
Cl6 Rb3 3.351532 1_546
Cl6 Rb2 3.479118 1_555
Cl6 Rb6 3.485946 1_555
Cl7 Rb0 3.214152 1_554
Cl7 Rb5 3.337606 1_655
Cl7 Rb4 3.351532 1_654
Cl7 Rb3 3.479118 1_555
Cl7 Rb7 3.485946 1_555
Cl8 Rb0 3.214153 1_455
Cl8 Rb6 3.337606 1_565
Cl8 Rb2 3.351532 1_465
Cl8 Rb4 3.479118 1_555
Cl8 Rb5 3.485946 1_555
Cl9 Rb0 3.214152 1_555
Cl9 Rb7 3.337606 1_555
Cl9 Rb2 3.351532 1_555
Cl9 Rb3 3.479118 1_555
Cl9 Rb5 3.485946 1_655
Cl10 Rb0 3.214153 1_555
Cl10 Rb6 3.337606 1_555
Cl10 Rb4 3.351532 1_555
Cl10 Rb2 3.479118 1_555
Cl10 Rb7 3.485946 1_556
Cl11 Rb0 3.214153 1_555
Cl11 Rb5 3.337606 1_555
Cl11 Rb3 3.351532 1_555
Cl11 Rb4 3.479118 1_555
Cl11 Rb6 3.485946 1_565
