# generated using pymatgen
data_Na10Ca4Ga4Si3(S3O16)3
_symmetry_space_group_name_H-M   'P 1'
_cell_length_a   18.19366122
_cell_length_b   9.18075801
_cell_length_c   22.85215664
_cell_angle_alpha   89.80801210
_cell_angle_beta   87.13997558
_cell_angle_gamma   120.36736894
_symmetry_Int_Tables_number   1
_chemical_formula_structural   Na10Ca4Ga4Si3(S3O16)3
_chemical_formula_sum   'Na30 Ca12 Ga12 Si9 S27 O144'
_cell_volume   3287.43095221
_cell_formula_units_Z   3
loop_
 _symmetry_equiv_pos_site_id
 _symmetry_equiv_pos_as_xyz
  1  'x, y, z'
loop_
 _atom_site_type_symbol
 _atom_site_label
 _atom_site_symmetry_multiplicity
 _atom_site_fract_x
 _atom_site_fract_y
 _atom_site_fract_z
 _atom_site_occupancy
  Na  Na0  1  0.18944118  0.37493288  0.24487634  1
  Na  Na1  1  0.68955385  0.37743264  0.24493539  1
  Na  Na2  1  0.98929328  0.64282045  0.25576661  1
  Na  Na3  1  0.49252462  0.63702725  0.26024788  1
  Na  Na4  1  0.32466483  0.65194280  0.74647100  1
  Na  Na5  1  0.82115393  0.64601597  0.74711472  1
  Na  Na6  1  0.99213234  0.34507611  0.75366874  1
  Na  Na7  1  0.18548878  -0.00209810  0.74115101  1
  Na  Na8  1  0.68762258  0.00233599  0.74241107  1
  Na  Na9  1  0.52026933  0.70730123  0.57486641  1
  Na  Na10  1  0.32427029  0.97328077  0.58929186  1
  Na  Na11  1  0.82316509  0.96671021  0.58761423  1
  Na  Na12  1  0.15289394  0.97922443  0.08188087  1
  Na  Na13  1  0.65293094  0.97959060  0.08140311  1
  Na  Na14  1  0.32708293  0.68361569  0.09185018  1
  Na  Na15  1  0.82694858  0.68361843  0.09215121  1
  Na  Na16  1  0.65827667  0.00828848  0.42465939  1
  Na  Na17  1  0.35637220  0.66728757  0.41046692  1
  Na  Na18  1  0.01613572  0.00586709  0.50319036  1
  Na  Na19  1  0.50937743  0.00906657  0.50101272  1
  Na  Na20  1  0.00774595  0.02493250  0.00217759  1
  Na  Na21  1  0.50854313  0.02679258  0.00183149  1
  Na  Na22  1  0.34490815  0.31452682  0.83329115  1
  Na  Na23  1  0.83376816  0.31658929  0.83716055  1
  Na  Na24  1  0.33587815  0.33039184  0.33716886  1
  Na  Na25  1  0.83928079  0.35220838  0.33504772  1
  Na  Na26  1  0.17032163  0.65099457  0.16849566  1
  Na  Na27  1  0.67132751  0.65315633  0.16931889  1
  Na  Na28  1  0.16459012  0.68269137  0.66157622  1
  Na  Na29  1  0.66137756  0.66250998  0.66514381  1
  Ca  Ca0  1  0.99629444  0.99064975  0.35360525  1
  Ca  Ca1  1  0.49872795  0.99963762  0.35095738  1
  Ca  Ca2  1  0.99843796  0.00290475  0.85413853  1
  Ca  Ca3  1  0.49781322  0.00461388  0.85400552  1
  Ca  Ca4  1  0.33278175  0.32529794  0.68383483  1
  Ca  Ca5  1  0.83128655  0.32913223  0.68089428  1
  Ca  Ca6  1  0.33298788  0.33231652  0.18328791  1
  Ca  Ca7  1  0.83339397  0.33378048  0.18288815  1
  Ca  Ca8  1  0.16235225  0.65039521  0.01742478  1
  Ca  Ca9  1  0.66277311  0.65107562  0.01721927  1
  Ca  Ca10  1  0.16071757  0.66839616  0.51957318  1
  Ca  Ca11  1  0.66687808  0.66454066  0.51469900  1
  Ga  Ga0  1  0.00109357  0.99677889  0.64839745  1
  Ga  Ga1  1  0.50425783  0.01944346  0.65152016  1
  Ga  Ga2  1  0.99588524  0.01595818  0.15499216  1
  Ga  Ga3  1  0.49842312  0.01549573  0.15494512  1
  Ga  Ga4  1  0.32605636  0.32448489  0.98655387  1
  Ga  Ga5  1  0.82442928  0.32303344  0.98602601  1
  Ga  Ga6  1  0.33262508  0.32619224  0.48389376  1
  Ga  Ga7  1  0.82944571  0.33511919  0.49059170  1
  Ga  Ga8  1  0.18102868  0.68316672  0.31956778  1
  Ga  Ga9  1  0.67497762  0.67596316  0.32418190  1
  Ga  Ga10  1  0.18345292  0.68891628  0.82510587  1
  Ga  Ga11  1  0.67202702  0.67691692  0.82068659  1
  Si  Si0  1  0.35091804  0.71201735  0.25138920  1
  Si  Si1  1  0.84968465  0.71367765  0.25112506  1
  Si  Si2  1  0.35180303  0.99420624  0.75195330  1
  Si  Si3  1  0.85251358  0.99253314  0.75009397  1
  Si  Si4  1  0.18155531  0.04513836  0.58689916  1
  Si  Si5  1  0.67882589  0.03746212  0.58778271  1
  Si  Si6  1  0.17881578  0.31948887  0.08924648  1
  Si  Si7  1  0.67863440  0.31990637  0.08900033  1
  Si  Si8  1  0.51507984  0.65046945  0.41960558  1
  S  S0  1  0.14632431  0.98353185  0.24999509  1
  S  S1  1  0.64689479  0.98658363  0.24837663  1
  S  S2  1  0.00462275  0.30294869  0.25107961  1
  S  S3  1  0.50409755  0.30250039  0.24875341  1
  S  S4  1  0.14593044  0.30674815  0.75012328  1
  S  S5  1  0.64592311  0.30934927  0.75027391  1
  S  S6  1  0.00392108  0.70786661  0.75062764  1
  S  S7  1  0.50581055  0.70918376  0.75113047  1
  S  S8  1  0.48096241  0.32068507  0.58163688  1
  S  S9  1  0.97745760  0.31738833  0.58258374  1
  S  S10  1  0.33689461  0.63720733  0.58249622  1
  S  S11  1  0.83917900  0.63788760  0.58209487  1
  S  S12  1  0.47822603  0.63565775  0.08016253  1
  S  S13  1  0.97840770  0.63592548  0.08003425  1
  S  S14  1  0.33779212  0.04389411  0.07887914  1
  S  S15  1  0.83785054  0.04476444  0.07868839  1
  S  S16  1  0.31407618  0.64492117  0.91734648  1
  S  S17  1  0.81300291  0.64442983  0.91628352  1
  S  S18  1  0.01338459  0.38128958  0.91573150  1
  S  S19  1  0.51365437  0.38237651  0.91677209  1
  S  S20  1  0.17415211  0.97314876  0.91767653  1
  S  S21  1  0.67367357  0.97152541  0.91711289  1
  S  S22  1  0.31014129  0.96979997  0.41618722  1
  S  S23  1  0.81524059  0.98229230  0.41825077  1
  S  S24  1  0.16941048  0.37732501  0.41463720  1
  S  S25  1  0.67592676  0.37261069  0.41573434  1
  S  S26  1  0.01358457  0.64636644  0.41626776  1
  O  O0  1  0.10708686  0.01763934  0.30125280  1
  O  O1  1  0.60873569  0.01270590  0.30258212  1
  O  O2  1  0.40285209  0.78709019  0.30859238  1
  O  O3  1  0.91388251  0.79733494  0.30126757  1
  O  O4  1  0.49367027  0.20559375  0.30193058  1
  O  O5  1  0.99405886  0.20329309  0.30328451  1
  O  O6  1  0.11193139  0.19679142  0.80277360  1
  O  O7  1  0.60982945  0.20011154  0.80261605  1
  O  O8  1  0.49448990  0.78999620  0.80286704  1
  O  O9  1  0.99129602  0.78299741  0.80349017  1
  O  O10  1  0.40276472  -0.00025680  0.80623817  1
  O  O11  1  0.91356921  0.02727330  0.80177702  1
  O  O12  1  0.39782034  0.96141178  0.68942165  1
  O  O13  1  0.89705770  0.95423186  0.68808042  1
  O  O14  1  0.09372731  0.22395758  0.69906567  1
  O  O15  1  0.59703196  0.22797090  0.69767478  1
  O  O16  1  0.01904976  0.81731090  0.69722969  1
  O  O17  1  0.52175547  0.81535720  0.69633510  1
  O  O18  1  0.40031276  0.83253650  0.18897947  1
  O  O19  1  0.89550134  0.83025702  0.18651070  1
  O  O20  1  0.01927194  0.22349886  0.19666077  1
  O  O21  1  0.51605833  0.21793655  0.19522419  1
  O  O22  1  0.09639884  0.96102534  0.19671069  1
  O  O23  1  0.59481061  0.97153641  0.19691816  1
  O  O24  1  0.44399895  0.35042314  0.63540038  1
  O  O25  1  0.94452913  0.34028321  0.63976801  1
  O  O26  1  0.23071510  0.11234459  0.64634237  1
  O  O27  1  0.73282645  0.11195139  0.64441789  1
  O  O28  1  0.32827130  0.54631629  0.63785001  1
  O  O29  1  0.82989576  0.54990168  0.63814547  1
  O  O30  1  0.44510232  0.54403644  0.13668687  1
  O  O31  1  0.94582609  0.54548765  0.13697560  1
  O  O32  1  0.32523763  0.11625773  0.13246317  1
  O  O33  1  0.82551405  0.11699470  0.13246513  1
  O  O34  1  0.23101242  0.34748378  0.14666354  1
  O  O35  1  0.73115971  0.34734248  0.14618277  1
  O  O36  1  0.22683513  0.27593500  0.03115930  1
  O  O37  1  0.72615119  0.27547998  0.03082539  1
  O  O38  1  0.42455948  0.53598596  0.03110767  1
  O  O39  1  0.92472587  0.53523572  0.03132923  1
  O  O40  1  0.35112023  0.15363470  0.02561451  1
  O  O41  1  0.85103221  0.15440512  0.02548204  1
  O  O42  1  0.23714909  0.17372667  0.52775975  1
  O  O43  1  0.72833687  0.15850236  0.52595127  1
  O  O44  1  0.34791046  0.54947400  0.53048493  1
  O  O45  1  0.84932586  0.54505313  0.53069145  1
  O  O46  1  0.42819170  0.29963361  0.53080426  1
  O  O47  1  0.92167750  0.30764151  0.53409013  1
  O  O48  1  0.27225348  0.66343798  0.97058916  1
  O  O49  1  0.77195390  0.66168494  0.97023957  1
  O  O50  1  0.06152820  0.46307713  0.96641271  1
  O  O51  1  0.55993734  0.45945579  0.96855809  1
  O  O52  1  0.16336725  0.87435158  0.97111313  1
  O  O53  1  0.66330295  0.87403498  0.97080599  1
  O  O54  1  0.27224352  0.86929900  0.47054093  1
  O  O55  1  0.77859552  0.88999633  0.47437745  1
  O  O56  1  0.16047968  0.45941384  0.46663766  1
  O  O57  1  0.66420414  0.44935895  0.46780253  1
  O  O58  1  0.06318670  0.66200285  0.46607729  1
  O  O59  1  0.56811472  0.68523457  0.47673675  1
  O  O60  1  0.05685994  0.62961596  0.35954163  1
  O  O61  1  0.56913225  0.63492358  0.35838307  1
  O  O62  1  0.25693299  0.87990166  0.36471464  1
  O  O63  1  0.75944966  0.88687625  0.36876482  1
  O  O64  1  0.17995931  0.48443753  0.35914622  1
  O  O65  1  0.68463550  0.47265184  0.36061660  1
  O  O66  1  0.06007108  0.48849411  0.85967082  1
  O  O67  1  0.56094433  0.49298692  0.86184105  1
  O  O68  1  0.18210508  0.88307541  0.86308437  1
  O  O69  1  0.68266634  0.88348240  0.86275178  1
  O  O70  1  0.26250439  0.63024489  0.86404183  1
  O  O71  1  0.76258720  0.63144744  0.86333139  1
  O  O72  1  0.00276180  0.79399301  0.41214236  1
  O  O73  1  0.50264684  0.81470143  0.41325558  1
  O  O74  1  0.39581178  0.99172085  0.40879377  1
  O  O75  1  0.90176856  0.01304454  0.41045322  1
  O  O76  1  0.09607579  0.20618327  0.41118581  1
  O  O77  1  0.60223638  0.19684432  0.41261595  1
  O  O78  1  0.00275076  0.21206850  0.91172648  1
  O  O79  1  0.50309874  0.21368441  0.91146137  1
  O  O80  1  0.10039485  0.99606394  0.91294863  1
  O  O81  1  0.60026110  0.99589045  0.91260145  1
  O  O82  1  0.40017573  0.79079374  0.91123066  1
  O  O83  1  0.89946832  0.79079749  0.91062943  1
  O  O84  1  0.48067657  0.15621877  0.58680284  1
  O  O85  1  0.97439079  0.15106054  0.58270854  1
  O  O86  1  0.08504882  0.03067851  0.59201217  1
  O  O87  1  0.58126604  0.01822400  0.59418604  1
  O  O88  1  0.41664049  0.80813546  0.58153353  1
  O  O89  1  0.91708936  0.80934173  0.58009315  1
  O  O90  1  0.47776688  0.79823825  0.08022711  1
  O  O91  1  0.97808470  0.79844387  0.07988202  1
  O  O92  1  0.41313840  0.02117003  0.08044368  1
  O  O93  1  0.91362845  0.02311600  0.08014652  1
  O  O94  1  0.08274750  0.13564725  0.09601327  1
  O  O95  1  0.58297987  0.13603157  0.09499393  1
  O  O96  1  0.32957981  0.14325572  0.74958689  1
  O  O97  1  0.83567836  0.15044402  0.74643639  1
  O  O98  1  0.23636171  0.35157352  0.74171156  1
  O  O99  1  0.73574195  0.34598704  0.74272264  1
  O  O100  1  0.42787625  0.54140628  0.74661097  1
  O  O101  1  0.92656830  0.53648617  0.74596822  1
  O  O102  1  0.33830827  0.52306694  0.24620350  1
  O  O103  1  0.83587115  0.52327783  0.24569427  1
  O  O104  1  0.43048840  0.32782172  0.24479268  1
  O  O105  1  0.93065852  0.32741435  0.24612645  1
  O  O106  1  0.23459962  0.12466679  0.24321539  1
  O  O107  1  0.73415988  0.13179358  0.24245903  1
  O  O108  1  0.31681551  0.48431026  0.91966727  1
  O  O109  1  0.81691897  0.48393178  0.91910427  1
  O  O110  1  0.42704782  0.36923182  0.92094206  1
  O  O111  1  0.92690978  0.36816157  0.92016962  1
  O  O112  1  0.25560301  0.14074621  0.91746054  1
  O  O113  1  0.75537445  0.13999130  0.91741856  1
  O  O114  1  0.31487113  0.13567565  0.41780107  1
  O  O115  1  0.81519147  0.14675427  0.41875404  1
  O  O116  1  0.25102551  0.37388791  0.41427251  1
  O  O117  1  0.75579552  0.36094425  0.41770896  1
  O  O118  1  0.41540148  0.47613904  0.42619835  1
  O  O119  1  0.92629301  0.48541025  0.42278511  1
  O  O120  1  0.17370324  0.48893212  0.08078400  1
  O  O121  1  0.67365112  0.48961660  0.08094052  1
  O  O122  1  0.06859918  0.67933154  0.07325794  1
  O  O123  1  0.56840635  0.67944428  0.07321172  1
  O  O124  1  0.25947164  0.87320231  0.07442341  1
  O  O125  1  0.75977087  0.87408615  0.07429234  1
  O  O126  1  0.17405752  0.86148233  0.57952854  1
  O  O127  1  0.66697227  0.84904871  0.58157394  1
  O  O128  1  0.26260876  0.66203035  0.57895609  1
  O  O129  1  0.76365701  0.65763774  0.57761011  1
  O  O130  1  0.06542622  0.45578131  0.57465849  1
  O  O131  1  0.56867660  0.46225215  0.57485150  1
  O  O132  1  0.14495674  0.81768630  0.25754827  1
  O  O133  1  0.64722303  0.82437230  0.25172762  1
  O  O134  1  0.25229788  0.68907904  0.25635621  1
  O  O135  1  0.75097504  0.68994840  0.26198436  1
  O  O136  1  0.08385552  0.47421585  0.25162825  1
  O  O137  1  0.58387520  0.47126338  0.24839185  1
  O  O138  1  0.14502035  0.46927261  0.75743822  1
  O  O139  1  0.65050935  0.47666918  0.75641790  1
  O  O140  1  0.08074655  0.68843546  0.75305883  1
  O  O141  1  0.58463700  0.69420376  0.75521199  1
  O  O142  1  0.25291845  0.80645234  0.75818299  1
  O  O143  1  0.75495805  0.81038431  0.75954350  1
loop_
_geom_bond_atom_site_label_1
_geom_bond_atom_site_label_2
_geom_bond_distance
_geom_bond_site_symmetry_2
Na0 O102 2.338872 1_555
Na0 O34 2.387439 1_555
Na0 O136 2.507303 1_555
Na0 O134 2.528808 1_555
Na0 O106 2.803873 1_555
Na0 O64 2.829736 1_555
Na1 O103 2.297931 1_555
Na1 O35 2.405657 1_555
Na1 O137 2.470819 1_555
Na1 O135 2.538045 1_555
Na1 O107 2.755766 1_555
Na1 O65 2.798502 1_555
Na2 O132 2.452469 1_655
Na2 O103 2.453017 1_555
Na2 O105 2.544776 1_555
Na2 O3 2.609832 1_555
Na2 O60 2.754893 1_655
Na2 O136 2.835884 1_655
Na2 O22 2.847493 1_655
Na2 O31 2.882553 1_555
Na3 O133 2.442599 1_555
Na3 O102 2.488772 1_555
Na3 O104 2.502812 1_555
Na3 O61 2.703901 1_555
Na3 O137 2.768900 1_555
Na3 O2 2.807700 1_555
Na3 O23 2.985290 1_555
Na3 O30 2.993440 1_555
Na4 O142 2.372243 1_555
Na4 O98 2.395282 1_555
Na4 O100 2.546225 1_555
Na4 O28 2.677748 1_555
Na4 O12 2.742610 1_555
Na4 O138 2.816223 1_555
Na4 O70 2.828904 1_555
Na5 O143 2.369504 1_555
Na5 O99 2.387822 1_555
Na5 O101 2.575884 1_555
Na5 O29 2.668715 1_555
Na5 O139 2.674463 1_555
Na5 O13 2.751638 1_555
Na5 O71 2.788849 1_555
Na6 O138 2.421273 1_655
Na6 O97 2.495774 1_555
Na6 O101 2.584612 1_555
Na6 O11 2.714694 1_555
Na6 O140 2.719442 1_655
Na6 O25 2.777443 1_555
Na6 O66 2.793570 1_655
Na6 O14 2.840287 1_655
Na7 O96 2.281550 1_555
Na7 O26 2.325462 1_555
Na7 O140 2.499289 1_545
Na7 O142 2.639904 1_545
Na7 O16 2.857292 1_545
Na7 O98 2.891805 1_555
Na7 O68 2.962591 1_545
Na8 O97 2.331419 1_555
Na8 O27 2.380783 1_555
Na8 O141 2.485846 1_545
Na8 O143 2.643057 1_545
Na8 O99 2.815750 1_555
Na8 O17 2.872913 1_545
Na8 O69 2.935504 1_545
Na9 O127 2.317581 1_555
Na9 O59 2.411229 1_555
Na9 O88 2.484327 1_555
Na9 O87 2.535568 1_565
Na9 O131 2.800044 1_555
Na9 O17 2.947690 1_555
Na9 O44 2.948686 1_555
Na10 O126 2.407977 1_555
Na10 O84 2.464235 1_565
Na10 O128 2.503888 1_555
Na10 O12 2.736712 1_555
Na10 O88 2.775378 1_555
Na10 O26 2.865969 1_565
Na10 O46 2.886437 1_565
Na10 O54 2.920891 1_555
Na11 O85 2.388871 1_565
Na11 O127 2.489524 1_555
Na11 O129 2.489750 1_555
Na11 O55 2.737509 1_555
Na11 O89 2.739623 1_555
Na11 O13 2.748355 1_555
Na11 O27 2.859900 1_565
Na11 O47 2.930672 1_565
Na12 O94 2.368631 1_565
Na12 O122 2.394939 1_555
Na12 O124 2.571536 1_555
Na12 O36 2.586822 1_565
Na12 O52 2.743064 1_554
Na12 O22 2.743102 1_555
Na12 O91 2.747674 1_455
Na13 O95 2.364448 1_565
Na13 O123 2.395984 1_555
Na13 O125 2.572199 1_555
Na13 O37 2.579972 1_565
Na13 O53 2.741552 1_554
Na13 O90 2.751908 1_555
Na13 O23 2.780839 1_555
Na14 O90 2.387941 1_555
Na14 O120 2.464988 1_555
Na14 O124 2.628737 1_555
Na14 O18 2.654187 1_555
Na14 O92 2.677901 1_565
Na14 O34 2.906736 1_555
Na14 O48 2.966603 1_554
Na14 O38 3.017646 1_555
Na15 O91 2.396062 1_555
Na15 O121 2.463418 1_555
Na15 O19 2.570568 1_555
Na15 O125 2.631344 1_555
Na15 O93 2.694115 1_565
Na15 O35 2.900469 1_555
Na15 O49 2.980161 1_554
Na15 O39 3.027935 1_555
Na16 O77 2.433371 1_555
Na16 O115 2.464839 1_555
Na16 O73 2.496502 1_545
Na16 O43 2.724537 1_555
Na16 O59 2.786757 1_545
Na16 O117 2.795694 1_555
Na16 O63 2.848087 1_545
Na16 O1 2.980563 1_555
Na17 O73 2.300854 1_555
Na17 O116 2.387168 1_555
Na17 O2 2.488099 1_555
Na17 O118 2.510404 1_555
Na17 O74 2.687678 1_555
Na17 O44 2.912982 1_555
Na18 O86 2.390004 1_555
Na18 O89 2.442624 1_445
Na18 O85 2.560836 1_455
Na18 O76 2.623449 1_555
Na18 O72 2.787659 1_545
Na19 O88 2.481135 1_545
Na19 O87 2.533610 1_555
Na19 O84 2.563231 1_555
Na19 O77 2.568683 1_555
Na19 O73 2.654900 1_545
Na19 O74 2.973159 1_545
Na20 O93 2.402815 1_455
Na20 O94 2.529354 1_555
Na20 O91 2.552078 1_445
Na20 O80 2.679873 1_544
Na20 O78 2.717586 1_554
Na20 O83 3.006327 1_444
Na21 O92 2.416693 1_555
Na21 O95 2.510204 1_555
Na21 O90 2.571512 1_545
Na21 O81 2.676922 1_544
Na21 O79 2.717935 1_554
Na21 O82 2.997754 1_544
Na22 O96 2.416428 1_555
Na22 O112 2.435489 1_555
Na22 O110 2.458491 1_555
Na22 O100 2.652505 1_555
Na22 O108 2.704176 1_555
Na23 O113 2.325437 1_555
Na23 O111 2.491935 1_555
Na23 O109 2.529636 1_555
Na23 O97 2.587239 1_555
Na23 O101 2.728266 1_555
Na23 O99 2.962745 1_555
Na24 O114 2.440048 1_555
Na24 O116 2.450283 1_555
Na24 O118 2.525383 1_555
Na24 O104 2.664309 1_555
Na24 O102 2.709115 1_555
Na24 O106 2.911269 1_555
Na25 O117 2.391576 1_555
Na25 O119 2.529299 1_555
Na25 O115 2.542698 1_555
Na25 O103 2.594139 1_555
Na25 O105 2.644523 1_555
Na25 O107 2.957859 1_555
Na26 O136 2.411951 1_555
Na26 O134 2.480770 1_555
Na26 O120 2.517013 1_555
Na26 O132 2.708795 1_555
Na26 O124 2.773277 1_555
Na27 O137 2.364699 1_555
Na27 O121 2.531986 1_555
Na27 O135 2.552313 1_555
Na27 O133 2.616122 1_555
Na27 O125 2.782223 1_555
Na28 O126 2.429148 1_555
Na28 O140 2.542446 1_555
Na28 O128 2.605637 1_555
Na28 O142 2.696665 1_555
Na28 O138 2.820074 1_555
Na28 O130 2.850472 1_555
Na29 O127 2.524446 1_555
Na29 O141 2.529509 1_555
Na29 O139 2.625752 1_555
Na29 O129 2.679432 1_555
Na29 O143 2.728482 1_555
Na29 O131 2.778439 1_555
Ca0 O3 2.081123 1_555
Ca0 O0 2.192755 1_665
Ca0 O75 2.196336 1_565
Ca0 O5 2.281470 1_565
Ca0 O72 2.297233 1_655
Ca0 O76 2.359312 1_665
Ca1 O2 2.127765 1_555
Ca1 O1 2.185814 1_565
Ca1 O74 2.207464 1_555
Ca1 O4 2.238516 1_565
Ca1 O73 2.242966 1_555
Ca1 O77 2.375772 1_565
Ca2 O11 2.097106 1_555
Ca2 O6 2.199506 1_655
Ca2 O83 2.215111 1_545
Ca2 O9 2.279904 1_545
Ca2 O78 2.302262 1_655
Ca2 O80 2.370027 1_645
Ca3 O10 2.072315 1_555
Ca3 O7 2.191473 1_555
Ca3 O82 2.223597 1_545
Ca3 O8 2.270167 1_545
Ca3 O79 2.293524 1_555
Ca3 O81 2.381777 1_545
Ca4 O26 2.122254 1_555
Ca4 O24 2.162290 1_555
Ca4 O96 2.220432 1_555
Ca4 O98 2.254615 1_555
Ca4 O28 2.321855 1_555
Ca4 O100 2.404952 1_555
Ca5 O27 2.104317 1_555
Ca5 O25 2.175187 1_555
Ca5 O97 2.251434 1_555
Ca5 O99 2.251734 1_555
Ca5 O29 2.259220 1_555
Ca5 O101 2.404173 1_555
Ca6 O34 2.139490 1_555
Ca6 O30 2.198526 1_555
Ca6 O106 2.236412 1_555
Ca6 O102 2.236672 1_555
Ca6 O32 2.247765 1_555
Ca6 O104 2.333731 1_555
Ca7 O35 2.137262 1_555
Ca7 O31 2.194333 1_555
Ca7 O107 2.214561 1_555
Ca7 O103 2.243337 1_555
Ca7 O33 2.247838 1_555
Ca7 O105 2.362732 1_555
Ca8 O120 2.159027 1_555
Ca8 O48 2.168269 1_554
Ca8 O50 2.172217 1_554
Ca8 O122 2.202548 1_555
Ca8 O52 2.300644 1_554
Ca8 O124 2.365601 1_555
Ca9 O121 2.160502 1_555
Ca9 O49 2.167652 1_554
Ca9 O51 2.173643 1_554
Ca9 O123 2.210850 1_555
Ca9 O53 2.297713 1_554
Ca9 O125 2.366775 1_555
Ca10 O126 2.166321 1_555
Ca10 O130 2.178214 1_555
Ca10 O54 2.179418 1_555
Ca10 O58 2.181339 1_555
Ca10 O56 2.269832 1_555
Ca10 O128 2.375177 1_555
Ca11 O59 2.125331 1_555
Ca11 O55 2.193445 1_555
Ca11 O131 2.216676 1_555
Ca11 O57 2.230654 1_555
Ca11 O127 2.284636 1_555
Ca11 O129 2.352866 1_555
Ga0 O86 1.846761 1_565
Ga0 O13 1.906934 1_455
Ga0 O16 2.152919 1_555
Ga0 O14 2.277714 1_565
Ga0 O85 2.291279 1_465
Ga0 O89 2.308758 1_455
Ga1 O87 1.874170 1_555
Ga1 O12 1.889550 1_545
Ga1 O84 2.131587 1_555
Ga1 O15 2.133199 1_555
Ga1 O17 2.298597 1_545
Ga1 O88 2.451722 1_545
Ga2 O19 1.863659 1_545
Ga2 O94 1.882341 1_655
Ga2 O20 1.987742 1_655
Ga2 O93 2.350217 1_555
Ga2 O22 2.368684 1_645
Ga2 O91 2.542313 1_545
Ga3 O18 1.853028 1_545
Ga3 O95 1.877879 1_555
Ga3 O21 1.960217 1_555
Ga3 O23 2.244770 1_545
Ga3 O92 2.377736 1_555
Ga3 O90 2.522701 1_545
Ga4 O36 1.869821 1_556
Ga4 O40 2.054125 1_556
Ga4 O38 2.166940 1_556
Ga4 O110 2.179608 1_555
Ga4 O108 2.185784 1_555
Ga4 O112 2.239457 1_555
Ga5 O37 1.860331 1_556
Ga5 O41 2.058100 1_556
Ga5 O109 2.179281 1_555
Ga5 O39 2.191944 1_556
Ga5 O111 2.201741 1_555
Ga5 O113 2.222620 1_555
Ga6 O42 1.827559 1_555
Ga6 O118 1.896048 1_555
Ga6 O46 2.201056 1_555
Ga6 O44 2.209253 1_555
Ga6 O114 2.222607 1_555
Ga6 O116 2.411504 1_555
Ga7 O43 1.868977 1_555
Ga7 O45 2.006318 1_555
Ga7 O47 2.111946 1_555
Ga7 O119 2.159764 1_555
Ga7 O117 2.273102 1_555
Ga7 O115 2.315363 1_555
Ga8 O134 1.874108 1_555
Ga8 O62 1.966345 1_555
Ga8 O64 2.024463 1_555
Ga8 O60 2.201755 1_555
Ga8 O132 2.205712 1_555
Ga8 O136 2.465934 1_555
Ga9 O135 1.889883 1_555
Ga9 O61 1.890877 1_555
Ga9 O63 2.076039 1_555
Ga9 O65 2.131649 1_555
Ga9 O133 2.369984 1_555
Ga9 O137 2.537239 1_555
Ga10 O142 1.875553 1_555
Ga10 O68 1.995916 1_555
Ga10 O70 2.014482 1_555
Ga10 O66 2.164647 1_555
Ga10 O138 2.376879 1_555
Ga10 O140 2.549737 1_555
Ga11 O143 1.907651 1_555
Ga11 O67 2.041938 1_555
Ga11 O69 2.053678 1_555
Ga11 O71 2.165995 1_555
Ga11 O139 2.244519 1_555
Ga11 O141 2.298428 1_555
O0 S0 1.457653 1_545
O1 S1 1.469158 1_545
O2 Si0 1.596081 1_555
O3 Si1 1.580995 1_555
O4 S3 1.450294 1_555
O5 S2 1.445426 1_655
O6 S4 1.461351 1_555
O7 S5 1.454454 1_555
O8 S7 1.458342 1_555
O9 S6 1.458057 1_655
O10 Si2 1.571210 1_545
O11 Si3 1.582976 1_545
O12 Si2 1.723932 1_555
O13 Si3 1.722087 1_555
O14 S4 1.492573 1_555
O15 S5 1.494993 1_555
O16 S6 1.501005 1_555
O17 S7 1.507298 1_555
O18 Si0 1.709402 1_555
O19 Si1 1.727764 1_555
O20 S2 1.522874 1_555
O21 S3 1.515608 1_555
O22 S0 1.507565 1_555
O23 S1 1.509898 1_555
O24 S8 1.463461 1_555
O25 S9 1.470309 1_555
O26 Si4 1.610839 1_555
O27 Si5 1.600457 1_555
O28 S10 1.470299 1_555
O29 S11 1.468064 1_555
O30 S12 1.463460 1_555
O31 S13 1.467012 1_555
O32 S14 1.457372 1_555
O33 S15 1.459030 1_555
O34 Si6 1.602913 1_555
O35 Si7 1.602402 1_555
O36 Si6 1.710619 1_555
O37 Si7 1.710715 1_555
O38 S12 1.503356 1_555
O39 S13 1.499913 1_555
O40 S14 1.506910 1_555
O41 S15 1.505893 1_555
O42 Si4 1.699636 1_555
O43 Si5 1.700931 1_555
O44 S10 1.499164 1_555
O45 S11 1.511458 1_555
O46 S8 1.494562 1_555
O47 S9 1.512304 1_555
O48 S16 1.458783 1_555
O49 S17 1.460208 1_555
O50 S18 1.454122 1_555
O51 S19 1.453576 1_555
O52 S20 1.463255 1_555
O53 S21 1.463221 1_555
O54 S22 1.460537 1_555
O55 S23 1.464167 1_555
O56 S24 1.455001 1_555
O57 S25 1.445679 1_555
O58 S26 1.450261 1_555
O59 Si8 1.598292 1_555
O60 S26 1.531628 1_555
O61 Si8 1.717790 1_555
O62 S22 1.521251 1_555
O63 S23 1.516140 1_555
O64 S24 1.545458 1_555
O65 S25 1.510082 1_555
O66 S18 1.539188 1_555
O67 S19 1.532160 1_555
O68 S20 1.539814 1_555
O69 S21 1.530853 1_555
O70 S16 1.539379 1_555
O71 S17 1.523486 1_555
O72 S26 1.468124 1_555
O73 Si8 1.640810 1_555
O74 S22 1.467925 1_555
O75 S23 1.453286 1_545
O76 S24 1.465206 1_555
O77 S25 1.493103 1_555
O78 S18 1.469092 1_555
O79 S19 1.467314 1_555
O80 S20 1.468476 1_555
O81 S21 1.469786 1_555
O82 S16 1.456935 1_555
O83 S17 1.462302 1_555
O84 S8 1.511504 1_555
O85 S9 1.499568 1_555
O86 Si4 1.690528 1_555
O87 Si5 1.691173 1_555
O88 S10 1.504201 1_555
O89 S11 1.492028 1_555
O90 S12 1.496858 1_555
O91 S13 1.495015 1_555
O92 S14 1.489282 1_555
O93 S15 1.490957 1_555
O94 Si6 1.707659 1_555
O95 Si7 1.703353 1_555
O96 Si2 1.612443 1_545
O97 Si3 1.628885 1_545
O98 S4 1.482081 1_555
O99 S5 1.492992 1_555
O100 S7 1.483632 1_555
O101 S6 1.498247 1_655
O102 Si0 1.636335 1_555
O103 Si1 1.641495 1_555
O104 S3 1.477321 1_555
O105 S2 1.481471 1_655
O106 S0 1.466991 1_545
O107 S1 1.467502 1_545
O108 S16 1.501192 1_555
O109 S17 1.512079 1_555
O110 S19 1.516286 1_555
O111 S18 1.514046 1_655
O112 S20 1.502443 1_545
O113 S21 1.509400 1_545
O114 S22 1.481916 1_545
O115 S23 1.510420 1_545
O116 S24 1.500688 1_555
O117 S25 1.512910 1_555
O118 Si8 1.705734 1_555
O119 S26 1.526467 1_655
O120 Si6 1.616192 1_555
O121 Si7 1.616258 1_555
O122 S13 1.479343 1_455
O123 S12 1.478330 1_555
O124 S14 1.501452 1_565
O125 S15 1.499365 1_565
O126 Si4 1.631428 1_565
O127 Si5 1.638991 1_565
O128 S10 1.485707 1_555
O129 S11 1.482277 1_555
O130 S9 1.456750 1_455
O131 S8 1.461786 1_555
O132 S0 1.519274 1_555
O133 S1 1.493974 1_555
O134 Si0 1.695311 1_555
O135 Si1 1.701131 1_555
O136 S2 1.503562 1_555
O137 S3 1.494081 1_555
O138 S4 1.510281 1_555
O139 S5 1.503120 1_555
O140 S6 1.499457 1_555
O141 S7 1.515605 1_555
O142 Si2 1.750848 1_555
O143 Si3 1.718046 1_555
