# generated using pymatgen
data_La6Si7Br3
_symmetry_space_group_name_H-M   'P 1'
_cell_length_a   4.15349208
_cell_length_b   11.89989926
_cell_length_c   16.97593138
_cell_angle_alpha   90.00000000
_cell_angle_beta   90.00000000
_cell_angle_gamma   90.00000000
_symmetry_Int_Tables_number   1
_chemical_formula_structural   La6Si7Br3
_chemical_formula_sum   'La12 Si14 Br6'
_cell_volume   839.05471568
_cell_formula_units_Z   2
loop_
 _symmetry_equiv_pos_site_id
 _symmetry_equiv_pos_as_xyz
  1  'x, y, z'
loop_
 _atom_site_type_symbol
 _atom_site_label
 _atom_site_symmetry_multiplicity
 _atom_site_fract_x
 _atom_site_fract_y
 _atom_site_fract_z
 _atom_site_occupancy
  La  La0  1  0.50000000  0.34210757  0.50000000  1
  La  La1  1  0.00000000  0.65789243  0.00000000  1
  La  La2  1  0.50000000  0.35652153  0.75596633  1
  La  La3  1  -0.00000000  0.64347847  0.74403367  1
  La  La4  1  0.50000000  0.35652153  0.24403367  1
  La  La5  1  -0.00000000  0.64347847  0.25596633  1
  La  La6  1  0.50000000  0.06599746  0.88079798  1
  La  La7  1  -0.00000000  0.93400254  0.61920202  1
  La  La8  1  0.50000000  0.06599746  0.11920202  1
  La  La9  1  -0.00000000  0.93400254  0.38079798  1
  La  La10  1  0.50000000  0.35801846  0.00000000  1
  La  La11  1  0.00000000  0.64198154  0.50000000  1
  Si  Si0  1  0.00000000  0.15336349  0.00000000  1
  Si  Si1  1  0.50000000  0.84663651  0.50000000  1
  Si  Si2  1  0.50000000  0.56383053  0.87691731  1
  Si  Si3  1  -0.00000000  0.43616947  0.62308269  1
  Si  Si4  1  0.50000000  0.56383053  0.12308269  1
  Si  Si5  1  -0.00000000  0.43616947  0.37691731  1
  Si  Si6  1  -0.00000000  0.25547811  0.87639716  1
  Si  Si7  1  0.50000000  0.74452189  0.62360284  1
  Si  Si8  1  -0.00000000  0.25547811  0.12360284  1
  Si  Si9  1  0.50000000  0.74452189  0.37639716  1
  Si  Si10  1  0.00000000  0.45807644  0.87568626  1
  Si  Si11  1  0.50000000  0.54192356  0.62431374  1
  Si  Si12  1  0.50000000  0.54192356  0.37568626  1
  Si  Si13  1  0.00000000  0.45807644  0.12431374  1
  Br  Br0  1  0.50000000  0.10783618  0.69224435  1
  Br  Br1  1  -0.00000000  0.89216382  0.80775565  1
  Br  Br2  1  0.00000000  0.13770457  0.50000000  1
  Br  Br3  1  0.50000000  0.86229543  0.00000000  1
  Br  Br4  1  0.50000000  0.10783618  0.30775565  1
  Br  Br5  1  0.00000000  0.89216382  0.19224435  1
loop_
_geom_bond_atom_site_label_1
_geom_bond_atom_site_label_2
_geom_bond_distance
_geom_bond_site_symmetry_2
La0 Si5 3.151435 1_655
La0 Si5 3.151435 1_555
La0 Si3 3.151435 1_655
La0 Si3 3.151435 1_555
La0 Si12 3.179218 1_555
La0 Si11 3.179218 1_555
La1 Si2 3.151435 1_454
La1 Si2 3.151435 1_554
La1 Si4 3.151435 1_455
La1 Si4 3.151435 1_555
La1 Si10 3.179218 1_554
La1 Si13 3.179218 1_555
La2 Si11 3.140462 1_555
La2 Si10 3.147031 1_655
La2 Si10 3.147031 1_555
La2 Si6 3.152512 1_555
La2 Si6 3.152512 1_655
La2 Si3 3.209353 1_555
La2 Si3 3.209353 1_655
La2 Si2 3.209631 1_555
La3 Si10 3.140462 1_555
La3 Si11 3.147031 1_455
La3 Si11 3.147031 1_555
La3 Si7 3.152512 1_455
La3 Si7 3.152512 1_555
La3 Si2 3.209353 1_555
La3 Si2 3.209353 1_455
La3 Si3 3.209631 1_555
La4 Si12 3.140462 1_555
La4 Si13 3.147031 1_555
La4 Si13 3.147031 1_655
La4 Si8 3.152512 1_655
La4 Si8 3.152512 1_555
La4 Si5 3.209353 1_555
La4 Si5 3.209353 1_655
La4 Si4 3.209631 1_555
La5 Si13 3.140462 1_555
La5 Si12 3.147031 1_555
La5 Si12 3.147031 1_455
La5 Si9 3.152512 1_555
La5 Si9 3.152512 1_455
La5 Si4 3.209353 1_455
La5 Si4 3.209353 1_555
La5 Si5 3.209631 1_555
La6 Si6 3.066363 1_555
La6 Si6 3.066363 1_655
La6 Si0 3.080350 1_556
La6 Si0 3.080350 1_656
La7 Si7 3.066363 1_555
La7 Si7 3.066363 1_455
La7 Si1 3.080350 1_455
La7 Si1 3.080350 1_555
La8 Si8 3.066363 1_655
La8 Si8 3.066363 1_555
La8 Si0 3.080350 1_655
La8 Si0 3.080350 1_555
La9 Si9 3.066363 1_455
La9 Si9 3.066363 1_555
La9 Si1 3.080350 1_455
La9 Si1 3.080350 1_555
La10 Si10 3.191259 1_554
La10 Si10 3.191259 1_654
La10 Si13 3.191259 1_555
La10 Si13 3.191259 1_655
La10 Si8 3.194458 1_655
La10 Si6 3.194458 1_654
La10 Si6 3.194458 1_554
La10 Si8 3.194458 1_555
La10 Si0 3.200612 1_655
La10 Si0 3.200612 1_555
La10 Si2 3.219328 1_554
La10 Si4 3.219328 1_555
La11 Si12 3.191259 1_455
La11 Si12 3.191259 1_555
La11 Si11 3.191259 1_555
La11 Si11 3.191259 1_455
La11 Si7 3.194458 1_455
La11 Si7 3.194458 1_555
La11 Si9 3.194458 1_555
La11 Si9 3.194458 1_455
La11 Si1 3.200612 1_455
La11 Si1 3.200612 1_555
La11 Si5 3.219328 1_555
La11 Si3 3.219328 1_555
Si0 Si6 2.424737 1_554
Si0 Si8 2.424737 1_555
Si1 Si9 2.424737 1_555
Si1 Si7 2.424737 1_555
Si10 Si6 2.410930 1_555
Si10 Si2 2.428382 1_555
Si10 Si2 2.428382 1_455
Si11 Si7 2.410930 1_555
Si11 Si3 2.428382 1_655
Si11 Si3 2.428382 1_555
Si12 Si9 2.410930 1_555
Si12 Si5 2.428382 1_555
Si12 Si5 2.428382 1_655
Si13 Si8 2.410930 1_555
Si13 Si4 2.428382 1_555
Si13 Si4 2.428382 1_455
Br0 La2 3.150841 1_555
Br0 La7 3.182687 1_645
Br0 La7 3.182687 1_545
Br0 La6 3.239363 1_555
Br1 La3 3.150841 1_555
Br1 La6 3.182687 1_465
Br1 La6 3.182687 1_565
Br1 La7 3.239363 1_555
Br2 La9 3.157650 1_545
Br2 La7 3.157650 1_545
Br2 La0 3.198331 1_455
Br2 La0 3.198331 1_555
Br3 La6 3.157650 1_564
Br3 La8 3.157650 1_565
Br3 La1 3.198331 1_655
Br3 La1 3.198331 1_555
Br4 La4 3.150841 1_555
Br4 La9 3.182687 1_545
Br4 La9 3.182687 1_645
Br4 La8 3.239363 1_555
Br5 La5 3.150841 1_555
Br5 La8 3.182687 1_465
Br5 La8 3.182687 1_565
Br5 La9 3.239363 1_555
