# generated using pymatgen
data_PrNi5
_symmetry_space_group_name_H-M   'P 1'
_cell_length_a   4.93196901
_cell_length_b   4.93198297
_cell_length_c   3.93010624
_cell_angle_alpha   90.00000000
_cell_angle_beta   90.00000000
_cell_angle_gamma   119.99809018
_symmetry_Int_Tables_number   1
_chemical_formula_structural   PrNi5
_chemical_formula_sum   'Pr1 Ni5'
_cell_volume   82.79139248
_cell_formula_units_Z   1
loop_
 _symmetry_equiv_pos_site_id
 _symmetry_equiv_pos_as_xyz
  1  'x, y, z'
loop_
 _atom_site_type_symbol
 _atom_site_label
 _atom_site_symmetry_multiplicity
 _atom_site_fract_x
 _atom_site_fract_y
 _atom_site_fract_z
 _atom_site_occupancy
  Pr  Pr0  1  0.00000000  0.00000000  -0.00000000  1
  Ni  Ni0  1  0.33333506  0.66666848  -0.00000000  1
  Ni  Ni1  1  0.66666494  0.33333152  0.00000000  1
  Ni  Ni2  1  0.50000000  0.00000000  0.50000000  1
  Ni  Ni3  1  0.50000000  0.50000000  0.50000000  1
  Ni  Ni4  1  -0.00000000  0.50000000  0.50000000  1
loop_
_geom_bond_atom_site_label_1
_geom_bond_atom_site_label_2
_geom_bond_distance
_geom_bond_site_symmetry_2
Ni0 Ni3 2.426608 1_554
Ni0 Ni3 2.426608 1_555
Ni0 Ni2 2.426629 1_565
Ni0 Ni2 2.426629 1_564
Ni0 Ni4 2.426635 1_554
Ni0 Ni4 2.426635 1_555
Ni0 Pr0 2.847450 1_565
Ni0 Ni1 2.847451 1_555
Ni0 Ni1 2.847521 1_565
Ni0 Pr0 2.847521 1_665
Ni0 Ni1 2.847543 1_455
Ni0 Pr0 2.847544 1_555
Ni1 Ni3 2.426608 1_554
Ni1 Ni3 2.426608 1_555
Ni1 Ni2 2.426629 1_555
Ni1 Ni2 2.426629 1_554
Ni1 Ni4 2.426635 1_655
Ni1 Ni4 2.426635 1_654
Ni1 Pr0 2.847450 1_655
Ni1 Pr0 2.847521 1_555
Ni1 Pr0 2.847544 1_665
Ni2 Ni3 2.465991 1_555
Ni2 Ni3 2.465991 1_545
Ni2 Ni4 2.466059 1_545
Ni2 Ni4 2.466059 1_655
Ni2 Pr0 3.153175 1_555
Ni2 Pr0 3.153175 1_656
Ni2 Pr0 3.153175 1_655
Ni2 Pr0 3.153175 1_556
Ni3 Ni4 2.465985 1_655
Ni3 Ni4 2.465985 1_555
Ni3 Pr0 3.153234 1_666
Ni3 Pr0 3.153234 1_555
Ni3 Pr0 3.153234 1_556
Ni3 Pr0 3.153234 1_665
Ni4 Pr0 3.153181 1_566
Ni4 Pr0 3.153181 1_555
Ni4 Pr0 3.153181 1_556
Ni4 Pr0 3.153181 1_565
