# generated using pymatgen
data_Ba2LaMgBiO6
_symmetry_space_group_name_H-M   'P 1'
_cell_length_a   7.35348122
_cell_length_b   7.35348122
_cell_length_c   6.78476586
_cell_angle_alpha   76.20195071
_cell_angle_beta   129.27314555
_cell_angle_gamma   129.49375660
_symmetry_Int_Tables_number   1
_chemical_formula_structural   Ba2LaMgBiO6
_chemical_formula_sum   'Ba2 La1 Mg1 Bi1 O6'
_cell_volume   210.74078943
_cell_formula_units_Z   1
loop_
 _symmetry_equiv_pos_site_id
 _symmetry_equiv_pos_as_xyz
  1  'x, y, z'
loop_
 _atom_site_type_symbol
 _atom_site_label
 _atom_site_symmetry_multiplicity
 _atom_site_fract_x
 _atom_site_fract_y
 _atom_site_fract_z
 _atom_site_occupancy
  Ba  Ba0  1  0.95725925  0.78146551  0.73872576  1
  Ba  Ba1  1  0.04274075  0.21853449  0.26127424  1
  La  La0  1  0.50000000  0.00000000  0.50000000  1
  Mg  Mg0  1  -0.00000000  0.50000000  0.50000000  1
  Bi  Bi0  1  0.50000000  0.50000000  -0.00000000  1
  O  O0  1  0.96241311  0.17555230  0.61487057  1
  O  O1  1  0.56068172  0.34754354  0.38512943  1
  O  O2  1  0.03758689  0.82444770  0.38512943  1
  O  O3  1  0.43931828  0.65245646  0.61487057  1
  O  O4  1  0.73722726  0.35080318  0.08803044  1
  O  O5  1  0.26277274  0.64919682  -0.08803044  1
loop_
_geom_bond_atom_site_label_1
_geom_bond_atom_site_label_2
_geom_bond_distance
_geom_bond_site_symmetry_2
Ba0 O5 2.503136 1_656
Ba0 O1 2.720151 1_555
Ba0 O2 2.720159 1_655
Ba0 O3 2.800796 1_555
Ba0 O0 2.800803 1_565
Ba1 O4 2.503136 1_455
Ba1 O3 2.720151 1_555
Ba1 O0 2.720159 1_455
Ba1 O1 2.800796 1_555
Ba1 O2 2.800803 1_545
La0 O0 2.318946 1_555
La0 O2 2.318946 1_545
La0 O1 2.318953 1_555
La0 O3 2.318953 1_545
Mg0 O5 2.162975 1_556
Mg0 O4 2.162975 1_455
Mg0 O0 2.218768 1_455
Mg0 O2 2.218768 1_555
Mg0 O1 2.218771 1_455
Mg0 O3 2.218771 1_555
Bi0 O5 2.325133 1_555
Bi0 O4 2.325133 1_555
Bi0 O1 2.458982 1_555
Bi0 O3 2.458982 1_554
Bi0 O0 2.458984 1_454
Bi0 O2 2.458984 1_655
