# generated using pymatgen
data_TiNb3O6
_symmetry_space_group_name_H-M   'P 1'
_cell_length_a   6.67884866
_cell_length_b   6.67884934
_cell_length_c   6.67884982
_cell_angle_alpha   73.28761130
_cell_angle_beta   73.28760724
_cell_angle_gamma   73.28760873
_symmetry_Int_Tables_number   1
_chemical_formula_structural   TiNb3O6
_chemical_formula_sum   'Ti2 Nb6 O12'
_cell_volume   266.38360377
_cell_formula_units_Z   2
loop_
 _symmetry_equiv_pos_site_id
 _symmetry_equiv_pos_as_xyz
  1  'x, y, z'
loop_
 _atom_site_type_symbol
 _atom_site_label
 _atom_site_symmetry_multiplicity
 _atom_site_fract_x
 _atom_site_fract_y
 _atom_site_fract_z
 _atom_site_occupancy
  Ti  Ti0  1  0.27307359  0.27307359  0.27307359  1
  Ti  Ti1  1  0.72692641  0.72692641  0.72692641  1
  Nb  Nb0  1  0.11815671  0.94429339  0.70481733  1
  Nb  Nb1  1  0.94429339  0.70481733  0.11815671  1
  Nb  Nb2  1  0.70481733  0.11815671  0.94429339  1
  Nb  Nb3  1  0.88184329  0.05570661  0.29518267  1
  Nb  Nb4  1  0.05570661  0.29518267  0.88184329  1
  Nb  Nb5  1  0.29518267  0.88184329  0.05570661  1
  O  O0  1  0.56894492  0.17147863  0.25919398  1
  O  O1  1  0.17147863  0.25919398  0.56894492  1
  O  O2  1  0.25919398  0.56894492  0.17147863  1
  O  O3  1  0.43105508  0.82852137  0.74080602  1
  O  O4  1  0.82852137  0.74080602  0.43105508  1
  O  O5  1  0.74080602  0.43105508  0.82852137  1
  O  O6  1  0.03259933  0.64791268  0.79854678  1
  O  O7  1  0.64791268  0.79854678  0.03259933  1
  O  O8  1  0.20145322  0.96740067  0.35208732  1
  O  O9  1  0.35208732  0.20145322  0.96740067  1
  O  O10  1  0.96740067  0.35208732  0.20145322  1
  O  O11  1  0.79854678  0.03259933  0.64791268  1
loop_
_geom_bond_atom_site_label_1
_geom_bond_atom_site_label_2
_geom_bond_distance
_geom_bond_site_symmetry_2
Nb0 O3 2.067745 1_555
Nb0 O6 2.090188 1_555
Nb0 O1 2.126239 1_565
Nb0 O11 2.159287 1_465
Nb0 O8 2.229294 1_555
Nb1 O4 2.067746 1_555
Nb1 O7 2.090188 1_555
Nb1 O2 2.126239 1_655
Nb1 O6 2.159287 1_654
Nb1 O10 2.229294 1_555
Nb2 O5 2.067746 1_555
Nb2 O11 2.090188 1_555
Nb2 O0 2.126239 1_556
Nb2 O7 2.159287 1_546
Nb2 O9 2.229294 1_555
Nb3 O0 2.067745 1_555
Nb3 O10 2.090188 1_555
Nb3 O4 2.126239 1_545
Nb3 O8 2.159287 1_645
Nb3 O11 2.229294 1_555
Nb4 O1 2.067746 1_555
Nb4 O9 2.090188 1_555
Nb4 O5 2.126239 1_455
Nb4 O10 2.159287 1_456
Nb4 O6 2.229294 1_555
Nb5 O2 2.067746 1_555
Nb5 O8 2.090188 1_555
Nb5 O3 2.126239 1_554
Nb5 O9 2.159287 1_564
Nb5 O7 2.229294 1_555
O0 Ti0 1.879775 1_555
O1 Ti0 1.879775 1_555
O2 Ti0 1.879775 1_555
O3 Ti1 1.879775 1_555
O4 Ti1 1.879775 1_555
O5 Ti1 1.879775 1_555
O6 Ti1 2.114719 1_455
O7 Ti1 2.114720 1_554
O8 Ti0 2.114719 1_565
O9 Ti0 2.114720 1_556
O10 Ti0 2.114719 1_655
O11 Ti1 2.114719 1_545
