# generated using pymatgen
data_Na4Mg2Si(SO6)2
_symmetry_space_group_name_H-M   'P 1'
_cell_length_a   9.08731958
_cell_length_b   9.09486051
_cell_length_c   22.04053777
_cell_angle_alpha   89.95903349
_cell_angle_beta   90.00000000
_cell_angle_gamma   119.97257600
_symmetry_Int_Tables_number   1
_chemical_formula_structural   Na4Mg2Si(SO6)2
_chemical_formula_sum   'Na24 Mg12 Si6 S12 O72'
_cell_volume   1577.99078259
_cell_formula_units_Z   6
loop_
 _symmetry_equiv_pos_site_id
 _symmetry_equiv_pos_as_xyz
  1  'x, y, z'
loop_
 _atom_site_type_symbol
 _atom_site_label
 _atom_site_symmetry_multiplicity
 _atom_site_fract_x
 _atom_site_fract_y
 _atom_site_fract_z
 _atom_site_occupancy
  Na  Na0  1  0.61653852  0.99717199  0.25747018  1
  Na  Na1  1  0.36026991  0.34407069  0.25273848  1
  Na  Na2  1  0.01085917  0.64961771  0.23828076  1
  Na  Na3  1  0.63875855  0.64961771  0.73828076  1
  Na  Na4  1  0.98380078  0.34407069  0.75273848  1
  Na  Na5  1  0.38063347  0.99717199  0.75747018  1
  Na  Na6  1  0.31986150  0.34594128  0.58660043  1
  Na  Na7  1  0.01385331  0.69255772  0.57993705  1
  Na  Na8  1  0.66732056  0.94834287  0.58363406  1
  Na  Na9  1  0.28102331  0.94834287  0.08363406  1
  Na  Na10  1  0.67870541  0.69255772  0.07993705  1
  Na  Na11  1  0.02608078  0.34594128  0.08660043  1
  Na  Na12  1  0.98491021  0.68058346  0.92783061  1
  Na  Na13  1  0.68128299  0.02889332  0.90585150  1
  Na  Na14  1  0.33309764  0.28741182  0.91650443  1
  Na  Na15  1  0.95431318  0.28741182  0.41650443  1
  Na  Na16  1  0.34760933  0.02889332  0.40585150  1
  Na  Na17  1  0.69567225  0.68058346  0.42783061  1
  Na  Na18  1  0.97295926  0.98400183  0.49946817  1
  Na  Na19  1  0.01104257  0.98400183  0.99946817  1
  Na  Na20  1  0.65634157  0.30772676  0.83345939  1
  Na  Na21  1  0.65138619  0.30772676  0.33345939  1
  Na  Na22  1  0.31742830  0.67832423  0.16689288  1
  Na  Na23  1  0.36089493  0.67832423  0.66689288  1
  Mg  Mg0  1  0.00433541  0.00082037  0.34907437  1
  Mg  Mg1  1  0.99648496  0.00082037  0.84907437  1
  Mg  Mg2  1  0.98204209  0.98583829  0.65017089  1
  Mg  Mg3  1  0.00379620  0.98583829  0.15017089  1
  Mg  Mg4  1  0.66443189  0.33057363  0.68286539  1
  Mg  Mg5  1  0.66614274  0.33057363  0.18286539  1
  Mg  Mg6  1  0.66553925  0.33254764  0.98408923  1
  Mg  Mg7  1  0.66700939  0.33254764  0.48408923  1
  Mg  Mg8  1  0.31931894  0.67625139  0.01596316  1
  Mg  Mg9  1  0.35693145  0.67625139  0.51596316  1
  Mg  Mg10  1  0.34210963  0.68897133  0.31799202  1
  Mg  Mg11  1  0.34686070  0.68897133  0.81799202  1
  Si  Si0  1  0.30085875  0.00201799  0.25013293  1
  Si  Si1  1  0.70115923  0.00201799  0.75013293  1
  Si  Si2  1  0.66675597  0.62710897  0.58331698  1
  Si  Si3  1  0.96035400  0.62710897  0.08331698  1
  Si  Si4  1  0.33266970  0.97240923  0.91687920  1
  Si  Si5  1  0.63973853  0.97240923  0.41687920  1
  S  S0  1  0.70249323  0.70295247  0.25037670  1
  S  S1  1  0.00103821  0.29351886  0.24981986  1
  S  S2  1  0.29248065  0.29351886  0.74981986  1
  S  S3  1  0.00045924  0.70295247  0.75037670  1
  S  S4  1  0.96646003  0.33658772  0.58307690  1
  S  S5  1  0.36761107  0.03739980  0.58356774  1
  S  S6  1  0.66978974  0.03739980  0.08356774  1
  S  S7  1  0.37012868  0.33658772  0.08307690  1
  S  S8  1  0.62382869  0.66387563  0.91715446  1
  S  S9  1  0.04252617  0.37334594  0.91607668  1
  S  S10  1  0.33081878  0.37334594  0.41607668  1
  S  S11  1  0.04004594  0.66387563  0.41715446  1
  O  O0  1  0.21563510  0.03464201  0.31074460  1
  O  O1  1  0.80725993  0.78593869  0.30478306  1
  O  O2  1  0.97628030  0.18756746  0.30437373  1
  O  O3  1  0.21128717  0.18756746  0.80437373  1
  O  O4  1  0.97867876  0.78593869  0.80478306  1
  O  O5  1  0.81900691  0.03464201  0.81074460  1
  O  O6  1  0.79131146  0.97649816  0.69040842  1
  O  O7  1  0.19151316  0.21109322  0.69440612  1
  O  O8  1  0.03333622  0.81109412  0.69550189  1
  O  O9  1  0.77775790  0.81109412  0.19550189  1
  O  O10  1  0.01958006  0.21109322  0.19440612  1
  O  O11  1  0.18518669  0.97649816  0.19040842  1
  O  O12  1  0.88552802  0.35811692  0.63827920  1
  O  O13  1  0.47647665  0.11367936  0.63772555  1
  O  O14  1  0.63986226  0.51032868  0.64342854  1
  O  O15  1  0.87046742  0.51032868  0.14342854  1
  O  O16  1  0.63720371  0.11367936  0.13772555  1
  O  O17  1  0.47258990  0.35811692  0.13827920  1
  O  O18  1  0.44739723  0.30467776  0.02898569  1
  O  O19  1  0.84455971  0.53766797  0.02298879  1
  O  O20  1  0.69221904  0.13992656  0.02846223  1
  O  O21  1  0.44770852  0.13992656  0.52846223  1
  O  O22  1  0.69310925  0.53766797  0.52298879  1
  O  O23  1  0.85728153  0.30467776  0.52898569  1
  O  O24  1  0.54094306  0.68324566  0.97234597  1
  O  O25  1  0.14833716  0.45341191  0.97101246  1
  O  O26  1  0.30036465  0.85484732  0.97680591  1
  O  O27  1  0.55448167  0.85484732  0.47680591  1
  O  O28  1  0.30507376  0.45341191  0.47101246  1
  O  O29  1  0.14230160  0.68324566  0.47234597  1
  O  O30  1  0.12016411  0.63769244  0.36249758  1
  O  O31  1  0.52142611  0.88729787  0.35707215  1
  O  O32  1  0.34898837  0.47555928  0.36104092  1
  O  O33  1  0.12656992  0.47555928  0.86104092  1
  O  O34  1  0.36587076  0.88729787  0.85707215  1
  O  O35  1  0.51752733  0.63769244  0.86249758  1
  O  O36  1  0.02439140  0.81946530  0.41229627  1
  O  O37  1  0.83085396  0.99086791  0.41073555  1
  O  O38  1  0.17857838  0.20037808  0.41281863  1
  O  O39  1  0.02179970  0.20037808  0.91281863  1
  O  O40  1  0.16001395  0.99086791  0.91073555  1
  O  O41  1  0.79507391  0.81946530  0.91229627  1
  O  O42  1  0.99769910  0.19075627  0.58807318  1
  O  O43  1  0.19961639  0.02857907  0.59068687  1
  O  O44  1  0.84112915  0.81825271  0.58559692  1
  O  O45  1  0.97712356  0.81825271  0.08559692  1
  O  O46  1  0.82896268  0.02857907  0.09068687  1
  O  O47  1  0.19305717  0.19075627  0.08807318  1
  O  O48  1  0.67850686  0.17284758  0.74482697  1
  O  O49  1  0.46611400  0.31574368  0.74662309  1
  O  O50  1  0.84383094  0.53391261  0.74475891  1
  O  O51  1  0.69008267  0.53391261  0.24475891  1
  O  O52  1  0.84963069  0.31574368  0.24662309  1
  O  O53  1  0.49434173  0.17284758  0.24482697  1
  O  O54  1  0.64538268  0.51232104  0.92076362  1
  O  O55  1  0.87146514  0.35747658  0.92058239  1
  O  O56  1  0.50576169  0.16329733  0.92243949  1
  O  O57  1  0.65753664  0.16329733  0.42243949  1
  O  O58  1  0.48601244  0.35747658  0.42058239  1
  O  O59  1  0.86693937  0.51232104  0.42076362  1
  O  O60  1  0.36179826  0.49589725  0.07618779  1
  O  O61  1  0.15187139  0.64446591  0.08127510  1
  O  O62  1  0.52375706  0.86024763  0.07815867  1
  O  O63  1  0.33648958  0.86024763  0.57815867  1
  O  O64  1  0.49259352  0.64446591  0.58127510  1
  O  O65  1  0.13409799  0.49589725  0.57618779  1
  O  O66  1  0.31377299  0.82604665  0.25265559  1
  O  O67  1  0.52608999  0.67388589  0.25593533  1
  O  O68  1  0.15826294  0.46341016  0.25549835  1
  O  O69  1  0.30514621  0.46341016  0.75549835  1
  O  O70  1  0.14779490  0.67388589  0.75593533  1
  O  O71  1  0.51227266  0.82604665  0.75265559  1
loop_
_geom_bond_atom_site_label_1
_geom_bond_atom_site_label_2
_geom_bond_distance
_geom_bond_site_symmetry_2
Na0 O53 2.373945 1_565
Na0 O31 2.387207 1_555
Na0 O66 2.392708 1_555
Na0 O52 2.608741 1_565
Na0 O67 2.628156 1_555
Na0 O16 2.814392 1_565
Na1 O53 2.415764 1_555
Na1 O68 2.557814 1_555
Na1 O67 2.599494 1_555
Na1 O51 2.612241 1_555
Na1 O32 2.695399 1_555
Na1 O17 2.700299 1_555
Na1 O0 2.753342 1_555
Na2 O66 2.416565 1_555
Na2 O15 2.447851 1_455
Na2 O51 2.561210 1_455
Na2 O52 2.637223 1_455
Na2 O68 2.659328 1_555
Na2 O11 2.784064 1_555
Na2 O30 2.932777 1_555
Na3 O71 2.416572 1_555
Na3 O14 2.447853 1_555
Na3 O50 2.561218 1_555
Na3 O49 2.637222 1_555
Na3 O69 2.659336 1_555
Na3 O6 2.784064 1_555
Na3 O35 2.932780 1_555
Na4 O48 2.415757 1_555
Na4 O69 2.557805 1_655
Na4 O70 2.599494 1_655
Na4 O50 2.612234 1_555
Na4 O33 2.695397 1_655
Na4 O12 2.700296 1_555
Na4 O5 2.753342 1_555
Na5 O48 2.373953 1_565
Na5 O34 2.387206 1_555
Na5 O71 2.392700 1_555
Na5 O49 2.608739 1_565
Na5 O70 2.628158 1_555
Na5 O13 2.814393 1_565
Na6 O64 2.364412 1_555
Na6 O43 2.526166 1_555
Na6 O42 2.536781 1_455
Na6 O65 2.657493 1_555
Na6 O7 2.660242 1_555
Na6 O28 2.755264 1_555
Na6 O14 2.814056 1_555
Na6 O21 2.946324 1_555
Na7 O44 2.362014 1_455
Na7 O65 2.520498 1_555
Na7 O63 2.540804 1_555
Na7 O43 2.663030 1_565
Na7 O29 2.663096 1_555
Na7 O8 2.737622 1_555
Na7 O22 2.820528 1_455
Na7 O12 2.952221 1_455
Na8 O44 2.400731 1_555
Na8 O64 2.403656 1_555
Na8 O27 2.539699 1_555
Na8 O6 2.566325 1_555
Na8 O42 2.696397 1_565
Na8 O63 2.699656 1_555
Na9 O45 2.400739 1_455
Na9 O61 2.403655 1_555
Na9 O26 2.539695 1_554
Na9 O11 2.566329 1_555
Na9 O47 2.696404 1_565
Na9 O62 2.699638 1_555
Na10 O45 2.362006 1_555
Na10 O60 2.520513 1_555
Na10 O62 2.540819 1_555
Na10 O46 2.663030 1_565
Na10 O24 2.663105 1_554
Na10 O9 2.737621 1_555
Na10 O19 2.820528 1_555
Na10 O17 2.952221 1_555
Na11 O61 2.364414 1_555
Na11 O46 2.526168 1_455
Na11 O47 2.536773 1_555
Na11 O60 2.657476 1_555
Na11 O10 2.660240 1_555
Na11 O25 2.755260 1_554
Na11 O15 2.814056 1_455
Na11 O20 2.946324 1_455
Na12 O19 2.460624 1_556
Na12 O40 2.479796 1_655
Na12 O55 2.587948 1_555
Na12 O41 2.620158 1_555
Na12 O54 2.677390 1_555
Na12 O26 2.712487 1_655
Na12 O4 2.885648 1_555
Na13 O5 2.428505 1_555
Na13 O56 2.474011 1_555
Na13 O41 2.585529 1_545
Na13 O55 2.619894 1_555
Na13 O39 2.685049 1_655
Na13 O34 2.709908 1_545
Na13 O20 2.869890 1_556
Na14 O56 2.350045 1_555
Na14 O40 2.350738 1_545
Na14 O39 2.529500 1_555
Na14 O54 2.538997 1_555
Na14 O18 2.662192 1_556
Na14 O3 2.675197 1_555
Na15 O57 2.350029 1_555
Na15 O37 2.350739 1_545
Na15 O38 2.529509 1_655
Na15 O59 2.538984 1_555
Na15 O23 2.662186 1_555
Na15 O2 2.675200 1_555
Na16 O0 2.428500 1_555
Na16 O57 2.474027 1_555
Na16 O36 2.585522 1_545
Na16 O58 2.619892 1_555
Na16 O38 2.685041 1_555
Na16 O31 2.709908 1_545
Na16 O21 2.869892 1_555
Na17 O22 2.460628 1_555
Na17 O37 2.479795 1_555
Na17 O58 2.587945 1_555
Na17 O36 2.620167 1_655
Na17 O59 2.677406 1_555
Na17 O27 2.712487 1_555
Na17 O1 2.885650 1_555
Na18 O44 2.345791 1_555
Na18 O37 2.361508 1_555
Na18 O36 2.617663 1_655
Na18 O42 2.642562 1_565
Na18 O38 2.707765 1_665
Na18 O43 2.759657 1_665
Na19 O45 2.345791 1_456
Na19 O40 2.361508 1_555
Na19 O41 2.617663 1_455
Na19 O47 2.642562 1_566
Na19 O39 2.707765 1_565
Na19 O46 2.759657 1_466
Na20 O48 2.368940 1_555
Na20 O56 2.375802 1_555
Na20 O49 2.604304 1_555
Na20 O55 2.613639 1_555
Na20 O54 2.713904 1_555
Na20 O50 2.729276 1_555
Na21 O53 2.368940 1_555
Na21 O57 2.375802 1_555
Na21 O52 2.604304 1_555
Na21 O58 2.613639 1_555
Na21 O59 2.713904 1_555
Na21 O51 2.729276 1_555
Na22 O66 2.329684 1_555
Na22 O61 2.336062 1_555
Na22 O68 2.626057 1_555
Na22 O62 2.640787 1_555
Na22 O67 2.743183 1_555
Na22 O60 2.754136 1_555
Na23 O71 2.329684 1_555
Na23 O64 2.336062 1_555
Na23 O69 2.626056 1_555
Na23 O63 2.640787 1_555
Na23 O70 2.743183 1_555
Na23 O65 2.754136 1_555
Mg0 O0 1.976048 1_555
Mg0 O37 2.048838 1_445
Mg0 O2 2.085814 1_455
Mg0 O1 2.117848 1_445
Mg0 O38 2.215253 1_555
Mg0 O36 2.234390 1_545
Mg1 O5 1.976048 1_555
Mg1 O40 2.048838 1_645
Mg1 O3 2.085814 1_655
Mg1 O4 2.117848 1_545
Mg1 O39 2.215253 1_655
Mg1 O41 2.234390 1_545
Mg2 O6 1.910654 1_555
Mg2 O44 2.010333 1_555
Mg2 O8 2.116417 1_655
Mg2 O7 2.208485 1_665
Mg2 O43 2.238418 1_665
Mg2 O42 2.257936 1_565
Mg3 O11 1.910654 1_555
Mg3 O45 2.010333 1_455
Mg3 O9 2.116417 1_455
Mg3 O10 2.208485 1_565
Mg3 O46 2.238418 1_465
Mg3 O47 2.257936 1_565
Mg4 O14 1.959791 1_555
Mg4 O48 2.029706 1_555
Mg4 O13 2.105877 1_555
Mg4 O12 2.135882 1_555
Mg4 O50 2.220350 1_555
Mg4 O49 2.235539 1_555
Mg5 O15 1.959791 1_555
Mg5 O53 2.029706 1_555
Mg5 O16 2.105877 1_555
Mg5 O17 2.135882 1_555
Mg5 O51 2.220350 1_555
Mg5 O52 2.235539 1_555
Mg6 O19 1.957489 1_556
Mg6 O56 2.023312 1_555
Mg6 O18 2.114392 1_556
Mg6 O20 2.122788 1_556
Mg6 O54 2.225052 1_555
Mg6 O55 2.255676 1_555
Mg7 O22 1.957489 1_555
Mg7 O57 2.023312 1_555
Mg7 O23 2.114392 1_555
Mg7 O21 2.122788 1_555
Mg7 O59 2.225052 1_555
Mg7 O58 2.255676 1_555
Mg8 O26 1.921048 1_554
Mg8 O61 2.007750 1_555
Mg8 O25 2.087992 1_554
Mg8 O24 2.203681 1_554
Mg8 O62 2.242293 1_555
Mg8 O60 2.287156 1_555
Mg9 O27 1.921048 1_555
Mg9 O64 2.007750 1_555
Mg9 O28 2.087992 1_555
Mg9 O29 2.203681 1_555
Mg9 O63 2.242293 1_555
Mg9 O65 2.287156 1_555
Mg10 O31 1.927736 1_555
Mg10 O66 2.003112 1_555
Mg10 O30 2.075347 1_555
Mg10 O32 2.188621 1_555
Mg10 O67 2.216815 1_555
Mg10 O68 2.340168 1_555
Mg11 O34 1.927736 1_555
Mg11 O71 2.003112 1_555
Mg11 O35 2.075347 1_555
Mg11 O33 2.188621 1_555
Mg11 O70 2.216815 1_555
Mg11 O69 2.340168 1_555
O0 Si0 1.643973 1_555
O1 S0 1.482337 1_555
O2 S1 1.485480 1_655
O3 S2 1.485480 1_555
O4 S3 1.482337 1_655
O5 Si1 1.643973 1_555
O6 Si1 1.627347 1_565
O7 S2 1.486464 1_555
O8 S3 1.491347 1_555
O9 S0 1.491347 1_555
O10 S1 1.486464 1_555
O11 Si0 1.627347 1_565
O12 S4 1.484517 1_555
O13 S5 1.483330 1_555
O14 Si2 1.637607 1_555
O15 Si3 1.637607 1_555
O16 S6 1.483330 1_555
O17 S7 1.484517 1_555
O18 S7 1.484151 1_555
O19 Si3 1.638066 1_555
O20 S6 1.481439 1_555
O21 S5 1.481439 1_555
O22 Si2 1.638066 1_555
O23 S4 1.484151 1_555
O24 S8 1.486942 1_555
O25 S9 1.490820 1_555
O26 Si4 1.630431 1_555
O27 Si5 1.630431 1_555
O28 S10 1.490820 1_555
O29 S11 1.486942 1_555
O30 S11 1.487159 1_555
O31 Si5 1.631757 1_555
O32 S10 1.485895 1_555
O33 S9 1.485895 1_555
O34 Si4 1.631757 1_555
O35 S8 1.487159 1_555
O36 S11 1.495004 1_555
O37 Si5 1.664749 1_555
O38 S10 1.489777 1_555
O39 S9 1.489781 1_555
O40 Si4 1.664740 1_555
O41 S8 1.495009 1_555
O42 S4 1.492589 1_555
O43 S5 1.496410 1_555
O44 Si2 1.668318 1_555
O45 Si3 1.668322 1_555
O46 S6 1.496401 1_555
O47 S7 1.492595 1_555
O48 Si1 1.670102 1_555
O49 S2 1.488885 1_555
O50 S3 1.489513 1_655
O51 S0 1.489517 1_555
O52 S1 1.488876 1_655
O53 Si0 1.670108 1_555
O54 S8 1.488015 1_555
O55 S9 1.490949 1_655
O56 Si4 1.665831 1_545
O57 Si5 1.665824 1_545
O58 S10 1.490967 1_555
O59 S11 1.488004 1_655
O60 S7 1.495784 1_555
O61 Si3 1.667738 1_455
O62 S6 1.495022 1_565
O63 S5 1.495016 1_565
O64 Si2 1.667756 1_555
O65 S4 1.495774 1_455
O66 Si0 1.663067 1_565
O67 S0 1.493700 1_555
O68 S1 1.496307 1_555
O69 S2 1.496311 1_555
O70 S3 1.493691 1_555
O71 Si1 1.663072 1_565
