# generated using pymatgen
data_NaHf2Sn2P5SO24
_symmetry_space_group_name_H-M   'P 1'
_cell_length_a   8.80380973
_cell_length_b   8.80929871
_cell_length_c   22.94500444
_cell_angle_alpha   90.16862094
_cell_angle_beta   89.72672504
_cell_angle_gamma   120.09660935
_symmetry_Int_Tables_number   1
_chemical_formula_structural   NaHf2Sn2P5SO24
_chemical_formula_sum   'Na3 Hf6 Sn6 P15 S3 O72'
_cell_volume   1539.57951884
_cell_formula_units_Z   3
loop_
 _symmetry_equiv_pos_site_id
 _symmetry_equiv_pos_as_xyz
  1  'x, y, z'
loop_
 _atom_site_type_symbol
 _atom_site_label
 _atom_site_symmetry_multiplicity
 _atom_site_fract_x
 _atom_site_fract_y
 _atom_site_fract_z
 _atom_site_occupancy
  Na  Na0  1  0.66967354  0.33688780  0.83370450  1
  Na  Na1  1  0.66669151  0.33341019  0.33207147  1
  Na  Na2  1  0.33345614  0.66719348  0.16727326  1
  Hf  Hf0  1  0.00072700  0.00045368  0.35561169  1
  Hf  Hf1  1  0.99927917  0.00015531  0.14424569  1
  Hf  Hf2  1  0.66643554  0.33262247  0.18714603  1
  Hf  Hf3  1  0.67311927  0.33973614  0.98182322  1
  Hf  Hf4  1  0.33547385  0.65995483  0.02144008  1
  Hf  Hf5  1  0.33285304  0.66631428  0.31248964  1
  Sn  Sn0  1  0.99437811  0.00027218  0.85335275  1
  Sn  Sn1  1  0.00639884  0.00001720  0.64902666  1
  Sn  Sn2  1  0.66187653  0.32708336  0.68783743  1
  Sn  Sn3  1  0.65965665  0.32812643  0.47853839  1
  Sn  Sn4  1  0.33376725  0.67330492  0.51724138  1
  Sn  Sn5  1  0.33227439  0.66072448  0.81127654  1
  P  P0  1  0.28793318  0.99971327  0.24982404  1
  P  P1  1  0.71206043  0.71158749  0.25008314  1
  P  P2  1  0.99945951  0.28793229  0.25008055  1
  P  P3  1  0.28821976  0.28844444  0.75057902  1
  P  P4  1  0.00075799  0.70942890  0.75049930  1
  P  P5  1  0.70965488  0.99823180  0.74938583  1
  P  P6  1  0.37514489  0.04138582  0.58340400  1
  P  P7  1  0.95852541  0.62521399  0.08394826  1
  P  P8  1  0.66661820  0.04328168  0.08313929  1
  P  P9  1  0.37700348  0.33121844  0.08359303  1
  P  P10  1  0.62435999  0.66794875  0.91521055  1
  P  P11  1  0.04444323  0.37563069  0.91535678  1
  P  P12  1  0.62349719  0.95664108  0.41696293  1
  P  P13  1  0.33351086  0.37910848  0.41784884  1
  P  P14  1  0.04096191  0.66485188  0.41751585  1
  S  S0  1  0.95858978  0.33303919  0.58333420  1
  S  S1  1  0.66659568  0.62535712  0.58348396  1
  S  S2  1  0.33119448  0.95588031  0.91592979  1
  O  O0  1  0.20570439  0.02927201  0.30484754  1
  O  O1  1  0.82360728  0.79451528  0.30482659  1
  O  O2  1  0.97044376  0.17628430  0.30483887  1
  O  O3  1  0.21103938  0.17239006  0.80515891  1
  O  O4  1  0.96348244  0.78834172  0.80514235  1
  O  O5  1  0.82441122  0.03795480  0.80402914  1
  O  O6  1  0.78953017  0.96648444  0.69345251  1
  O  O7  1  0.17814707  0.21300754  0.69469385  1
  O  O8  1  0.03276006  0.81905383  0.69461395  1
  O  O9  1  0.79376233  0.82336074  0.19560176  1
  O  O10  1  0.03003495  0.20644890  0.19555243  1
  O  O11  1  0.17631549  0.97003413  0.19553623  1
  O  O12  1  0.88131152  0.36800102  0.63619321  1
  O  O13  1  0.49239953  0.12383354  0.63777013  1
  O  O14  1  0.63473649  0.51479457  0.63623926  1
  O  O15  1  0.87354360  0.50688315  0.13743038  1
  O  O16  1  0.63377126  0.12712853  0.13734966  1
  O  O17  1  0.49378257  0.36646938  0.13746766  1
  O  O18  1  0.46261257  0.30533597  0.02846780  1
  O  O19  1  0.84443496  0.53937056  0.02916764  1
  O  O20  1  0.69346314  0.15694576  0.02852884  1
  O  O21  1  0.45763170  0.15966214  0.52935319  1
  O  O22  1  0.70183377  0.54816755  0.53098217  1
  O  O23  1  0.84801408  0.30125244  0.53098794  1
  O  O24  1  0.53905302  0.69773255  0.96932286  1
  O  O25  1  0.15754349  0.46298989  0.96939407  1
  O  O26  1  0.30376722  0.84834084  0.96797326  1
  O  O27  1  0.54787180  0.84638926  0.47320397  1
  O  O28  1  0.30131894  0.45754577  0.47436792  1
  O  O29  1  0.15140722  0.69824296  0.47340339  1
  O  O30  1  0.12439431  0.63069358  0.36381002  1
  O  O31  1  0.50554749  0.87352730  0.36366549  1
  O  O32  1  0.36754654  0.49520257  0.36396785  1
  O  O33  1  0.12253066  0.49298216  0.86055143  1
  O  O34  1  0.36631256  0.88098961  0.86248341  1
  O  O35  1  0.50895321  0.63304778  0.86040431  1
  O  O36  1  0.02207740  0.82521964  0.40868066  1
  O  O37  1  0.80351475  0.97696958  0.40858670  1
  O  O38  1  0.17402712  0.19846573  0.40916546  1
  O  O39  1  0.02831849  0.19456980  0.90824002  1
  O  O40  1  0.17400019  0.97322877  0.90887160  1
  O  O41  1  0.80754306  0.83114415  0.90838721  1
  O  O42  1  0.97330489  0.17423065  0.59100255  1
  O  O43  1  0.19295125  0.02439418  0.59148306  1
  O  O44  1  0.82439073  0.80068913  0.59091667  1
  O  O45  1  0.97574996  0.80344190  0.09174260  1
  O  O46  1  0.82686319  0.02438302  0.09172557  1
  O  O47  1  0.19684285  0.17255694  0.09169185  1
  O  O48  1  0.69321115  0.16583911  0.74326516  1
  O  O49  1  0.47390063  0.30902207  0.74378805  1
  O  O50  1  0.83351197  0.52451480  0.74229430  1
  O  O51  1  0.69017064  0.52689575  0.24339061  1
  O  O52  1  0.83658263  0.30971896  0.24345687  1
  O  O53  1  0.47288659  0.16317071  0.24340018  1
  O  O54  1  0.64169718  0.50273523  0.92276584  1
  O  O55  1  0.85982020  0.35446587  0.92272598  1
  O  O56  1  0.48916522  0.13229191  0.92256508  1
  O  O57  1  0.64186439  0.14134435  0.42331102  1
  O  O58  1  0.50119956  0.36236514  0.42342218  1
  O  O59  1  0.85641353  0.49723408  0.42507011  1
  O  O60  1  0.35861608  0.49653860  0.07632944  1
  O  O61  1  0.14067818  0.64359956  0.07488695  1
  O  O62  1  0.50113067  0.86081138  0.07507883  1
  O  O63  1  0.35733916  0.85916450  0.57547771  1
  O  O64  1  0.50799540  0.64039835  0.57619492  1
  O  O65  1  0.13407253  0.49055961  0.57617104  1
  O  O66  1  0.30944202  0.83664066  0.25716057  1
  O  O67  1  0.52721562  0.69032440  0.25723910  1
  O  O68  1  0.16326029  0.47277258  0.25717745  1
  O  O69  1  0.30864542  0.47037388  0.75699701  1
  O  O70  1  0.16373165  0.69164121  0.75853900  1
  O  O71  1  0.52692052  0.83778778  0.75809359  1
loop_
_geom_bond_atom_site_label_1
_geom_bond_atom_site_label_2
_geom_bond_distance
_geom_bond_site_symmetry_2
Na0 O54 2.590298 1_555
Na0 O55 2.601786 1_555
Na0 O50 2.609998 1_555
Na0 O49 2.625644 1_555
Na0 O48 2.628738 1_555
Na0 O56 2.655027 1_555
Na1 O52 2.587732 1_555
Na1 O53 2.597805 1_555
Na1 O51 2.598335 1_555
Na1 O58 2.630898 1_555
Na1 O57 2.634163 1_555
Na1 O59 2.650329 1_555
Na2 O66 2.611679 1_555
Na2 O68 2.617518 1_555
Na2 O67 2.625843 1_555
Na2 O60 2.640940 1_555
Na2 O62 2.651320 1_555
Na2 O61 2.663670 1_555
Hf0 O37 2.038587 1_445
Hf0 O0 2.049368 1_555
Hf0 O36 2.050677 1_545
Hf0 O38 2.053433 1_555
Hf0 O1 2.061143 1_445
Hf0 O2 2.062824 1_455
Hf1 O45 2.031556 1_545
Hf1 O47 2.031587 1_655
Hf1 O46 2.036101 1_555
Hf1 O9 2.062075 1_545
Hf1 O10 2.063668 1_655
Hf1 O11 2.078157 1_645
Hf2 O16 2.033243 1_555
Hf2 O15 2.040995 1_555
Hf2 O17 2.042471 1_555
Hf2 O53 2.058443 1_555
Hf2 O51 2.066151 1_555
Hf2 O52 2.068103 1_555
Hf3 O19 1.972781 1_556
Hf3 O20 2.018586 1_556
Hf3 O18 2.022771 1_556
Hf3 O55 2.079204 1_555
Hf3 O54 2.094752 1_555
Hf3 O56 2.202098 1_555
Hf4 O60 2.001840 1_555
Hf4 O24 2.033888 1_554
Hf4 O25 2.042125 1_554
Hf4 O62 2.046640 1_555
Hf4 O61 2.049114 1_555
Hf4 O26 2.194743 1_554
Hf5 O67 2.048838 1_555
Hf5 O68 2.049182 1_555
Hf5 O66 2.056552 1_555
Hf5 O32 2.058226 1_555
Hf5 O31 2.059965 1_555
Hf5 O30 2.063286 1_555
O0 P0 1.537601 1_545
O1 P1 1.537107 1_555
O2 P2 1.537354 1_555
O3 P3 1.542068 1_555
O3 Sn0 2.061383 1_455
O4 P4 1.543589 1_655
O4 Sn0 2.065088 1_565
O5 P5 1.539504 1_545
O5 Sn0 2.036328 1_555
O6 P5 1.551234 1_555
O6 Sn1 2.046757 1_665
O7 P3 1.544644 1_555
O7 Sn1 2.015671 1_555
O8 P4 1.545064 1_555
O8 Sn1 2.018045 1_565
O9 P1 1.529034 1_555
O10 P2 1.529173 1_455
O11 P0 1.528945 1_555
O12 S0 1.492920 1_555
O12 Sn2 2.132719 1_555
O13 P6 1.550557 1_555
O13 Sn2 2.019091 1_555
O14 S1 1.490726 1_555
O14 Sn2 2.145610 1_555
O15 P7 1.539111 1_555
O16 P8 1.543296 1_555
O17 P9 1.539860 1_555
O18 P9 1.543188 1_555
O19 P7 1.550907 1_555
O20 P8 1.547832 1_555
O21 P6 1.546360 1_555
O21 Sn3 2.017027 1_555
O22 S1 1.487614 1_555
O22 Sn3 2.147546 1_555
O23 S0 1.484748 1_555
O23 Sn3 2.160700 1_555
O24 P10 1.536646 1_555
O25 P11 1.535791 1_555
O26 S2 1.468409 1_555
O27 P12 1.550000 1_555
O27 Sn4 2.001821 1_555
O28 P13 1.557936 1_555
O28 Sn4 2.027084 1_555
O29 P14 1.548931 1_555
O29 Sn4 2.001991 1_555
O30 P14 1.536047 1_555
O31 P12 1.534342 1_555
O32 P13 1.536463 1_555
O33 P11 1.552188 1_555
O33 Sn5 2.030988 1_555
O34 S2 1.493622 1_555
O34 Sn5 2.154564 1_555
O35 P10 1.550750 1_555
O35 Sn5 2.036715 1_555
O36 P14 1.517268 1_555
O37 P12 1.514392 1_555
O38 P13 1.517691 1_555
O39 P11 1.537044 1_555
O39 Sn0 2.020637 1_455
O40 S2 1.476207 1_555
O40 Sn0 2.139873 1_465
O41 P10 1.538116 1_555
O41 Sn0 2.013299 1_565
O42 S0 1.479308 1_555
O42 Sn1 2.162611 1_655
O43 P6 1.544704 1_555
O43 Sn1 2.028314 1_555
O44 S1 1.480998 1_555
O44 Sn1 2.147885 1_665
O45 P7 1.509934 1_555
O46 P8 1.514989 1_555
O47 P9 1.509689 1_555
O48 P5 1.560939 1_545
O48 Sn2 2.029335 1_555
O49 P3 1.558821 1_555
O49 Sn2 2.031992 1_555
O50 P4 1.565976 1_655
O50 Sn2 2.058873 1_555
O51 P1 1.546678 1_555
O52 P2 1.547376 1_555
O53 P0 1.547247 1_545
O54 P10 1.547939 1_555
O55 P11 1.548826 1_655
O56 S2 1.485084 1_545
O57 P12 1.558780 1_545
O57 Sn3 2.017138 1_555
O58 P13 1.561367 1_555
O58 Sn3 2.019272 1_555
O59 P14 1.562969 1_655
O59 Sn3 2.031594 1_555
O60 P9 1.553409 1_555
O61 P7 1.541961 1_455
O62 P8 1.546852 1_565
O63 P6 1.542931 1_565
O63 Sn4 2.039194 1_555
O64 S1 1.477516 1_555
O64 Sn4 2.175915 1_555
O65 S0 1.479259 1_455
O65 Sn4 2.159254 1_555
O66 P0 1.549978 1_555
O67 P1 1.549902 1_555
O68 P2 1.550216 1_455
O69 P3 1.527220 1_555
O69 Sn5 2.011612 1_555
O70 P4 1.531464 1_555
O70 Sn5 2.040715 1_555
O71 P5 1.530968 1_555
O71 Sn5 2.041844 1_555
