# generated using pymatgen
data_KNi4(PO4)3
_symmetry_space_group_name_H-M   'P 1'
_cell_length_a   6.12899160
_cell_length_b   9.45731584
_cell_length_c   16.17895347
_cell_angle_alpha   90.00000000
_cell_angle_beta   90.00000000
_cell_angle_gamma   90.00000000
_symmetry_Int_Tables_number   1
_chemical_formula_structural   KNi4(PO4)3
_chemical_formula_sum   'K4 Ni16 P12 O48'
_cell_volume   937.79377429
_cell_formula_units_Z   4
loop_
 _symmetry_equiv_pos_site_id
 _symmetry_equiv_pos_as_xyz
  1  'x, y, z'
loop_
 _atom_site_type_symbol
 _atom_site_label
 _atom_site_symmetry_multiplicity
 _atom_site_fract_x
 _atom_site_fract_y
 _atom_site_fract_z
 _atom_site_occupancy
  K  K0  1  0.50000000  0.70165103  0.03232388  1
  K  K1  1  0.50000000  0.29834897  0.96767612  1
  K  K2  1  -0.00000000  0.20165103  0.46767612  1
  K  K3  1  -0.00000000  0.79834897  0.53232388  1
  Ni  Ni0  1  0.50000000  0.53346751  0.59256869  1
  Ni  Ni1  1  0.50000000  0.46653249  0.40743131  1
  Ni  Ni2  1  -0.00000000  0.03346751  0.90743131  1
  Ni  Ni3  1  -0.00000000  0.96653249  0.09256869  1
  Ni  Ni4  1  0.50000000  0.01059897  0.35723113  1
  Ni  Ni5  1  0.50000000  0.98940103  0.64276887  1
  Ni  Ni6  1  -0.00000000  0.51059897  0.14276887  1
  Ni  Ni7  1  -0.00000000  0.48940103  0.85723113  1
  Ni  Ni8  1  0.75055250  0.75155748  0.29573218  1
  Ni  Ni9  1  0.75055250  0.24844252  0.70426782  1
  Ni  Ni10  1  0.74944750  0.25155748  0.20426782  1
  Ni  Ni11  1  0.74944750  0.74844252  0.79573218  1
  Ni  Ni12  1  0.24944750  0.24844252  0.70426782  1
  Ni  Ni13  1  0.24944750  0.75155748  0.29573218  1
  Ni  Ni14  1  0.25055250  0.74844252  0.79573218  1
  Ni  Ni15  1  0.25055250  0.25155748  0.20426782  1
  P  P0  1  0.50000000  0.96047375  0.16207246  1
  P  P1  1  0.50000000  0.03952625  0.83792754  1
  P  P2  1  -0.00000000  0.46047375  0.33792754  1
  P  P3  1  -0.00000000  0.53952625  0.66207246  1
  P  P4  1  0.50000000  0.54713766  0.22029426  1
  P  P5  1  0.50000000  0.45286234  0.77970574  1
  P  P6  1  -0.00000000  0.04713766  0.27970574  1
  P  P7  1  -0.00000000  0.95286234  0.72029426  1
  P  P8  1  0.50000000  0.79505938  0.46347723  1
  P  P9  1  0.50000000  0.20494062  0.53652277  1
  P  P10  1  -0.00000000  0.29505938  0.03652277  1
  P  P11  1  -0.00000000  0.70494062  0.96347723  1
  O  O0  1  0.50000000  0.12289263  0.17376197  1
  O  O1  1  0.50000000  0.87710737  0.82623803  1
  O  O2  1  -0.00000000  0.62289263  0.32623803  1
  O  O3  1  -0.00000000  0.37710737  0.67376197  1
  O  O4  1  0.50000000  0.61455121  0.77420983  1
  O  O5  1  0.50000000  0.38544879  0.22579017  1
  O  O6  1  -0.00000000  0.11455121  0.72579017  1
  O  O7  1  -0.00000000  0.88544879  0.27420983  1
  O  O8  1  0.70150288  0.91239658  0.11667449  1
  O  O9  1  0.70150288  0.08760342  0.88332551  1
  O  O10  1  0.79849712  0.41239658  0.38332551  1
  O  O11  1  0.79849712  0.58760342  0.61667449  1
  O  O12  1  0.29849712  0.08760342  0.88332551  1
  O  O13  1  0.29849712  0.91239658  0.11667449  1
  O  O14  1  0.20150288  0.58760342  0.61667449  1
  O  O15  1  0.20150288  0.41239658  0.38332551  1
  O  O16  1  0.50000000  0.60956535  0.31096396  1
  O  O17  1  0.50000000  0.39043465  0.68903604  1
  O  O18  1  -0.00000000  0.10956535  0.18903604  1
  O  O19  1  -0.00000000  0.89043465  0.81096396  1
  O  O20  1  0.50000000  0.88786179  0.25181853  1
  O  O21  1  0.50000000  0.11213821  0.74818147  1
  O  O22  1  -0.00000000  0.38786179  0.24818147  1
  O  O23  1  -0.00000000  0.61213821  0.75181853  1
  O  O24  1  0.50000000  0.13346634  0.45408444  1
  O  O25  1  0.50000000  0.86653366  0.54591556  1
  O  O26  1  -0.00000000  0.63346634  0.04591556  1
  O  O27  1  -0.00000000  0.36653366  0.95408444  1
  O  O28  1  0.69877039  0.84158975  0.40927065  1
  O  O29  1  0.69877039  0.15841025  0.59072935  1
  O  O30  1  0.80122961  0.34158975  0.09072935  1
  O  O31  1  0.80122961  0.65841025  0.90927065  1
  O  O32  1  0.30122961  0.15841025  0.59072935  1
  O  O33  1  0.30122961  0.84158975  0.40927065  1
  O  O34  1  0.19877039  0.65841025  0.90927065  1
  O  O35  1  0.19877039  0.34158975  0.09072935  1
  O  O36  1  0.70921626  0.60750081  0.18268119  1
  O  O37  1  0.70921626  0.39249919  0.81731881  1
  O  O38  1  0.79078374  0.10750081  0.31731881  1
  O  O39  1  0.79078374  0.89249919  0.68268119  1
  O  O40  1  0.29078374  0.39249919  0.81731881  1
  O  O41  1  0.29078374  0.60750081  0.18268119  1
  O  O42  1  0.20921626  0.89249919  0.68268119  1
  O  O43  1  0.20921626  0.10750081  0.31731881  1
  O  O44  1  0.50000000  0.63495659  0.47975191  1
  O  O45  1  0.50000000  0.36504341  0.52024809  1
  O  O46  1  -0.00000000  0.13495659  0.02024809  1
  O  O47  1  -0.00000000  0.86504341  0.97975191  1
loop_
_geom_bond_atom_site_label_1
_geom_bond_atom_site_label_2
_geom_bond_distance
_geom_bond_site_symmetry_2
K0 O13 2.712944 1_555
K0 O8 2.712944 1_555
K0 O34 2.745794 1_554
K0 O31 2.745794 1_554
K0 O41 2.890457 1_555
K0 O36 2.890457 1_555
K0 O26 3.139317 1_555
K0 O26 3.139317 1_655
K1 O9 2.712944 1_555
K1 O12 2.712944 1_555
K1 O30 2.745794 1_556
K1 O35 2.745794 1_556
K1 O37 2.890457 1_555
K1 O40 2.890457 1_555
K1 O27 3.139317 1_555
K1 O27 3.139317 1_655
K2 O15 2.712944 1_555
K2 O10 2.712944 1_455
K2 O32 2.745794 1_555
K2 O29 2.745794 1_455
K2 O38 2.890457 1_455
K2 O43 2.890457 1_555
K2 O24 3.139317 1_455
K2 O24 3.139317 1_555
K3 O11 2.712944 1_455
K3 O14 2.712944 1_555
K3 O33 2.745794 1_555
K3 O28 2.745794 1_455
K3 O39 2.890457 1_455
K3 O42 2.890457 1_555
K3 O25 3.139317 1_555
K3 O25 3.139317 1_455
Ni0 O14 1.939394 1_555
Ni0 O11 1.939394 1_555
Ni0 O45 1.976413 1_555
Ni0 O44 2.062234 1_555
Ni0 O17 2.065364 1_555
Ni1 O15 1.939394 1_555
Ni1 O10 1.939394 1_555
Ni1 O44 1.976413 1_555
Ni1 O45 2.062234 1_555
Ni1 O16 2.065364 1_555
Ni2 O9 1.939394 1_455
Ni2 O12 1.939394 1_555
Ni2 O47 1.976413 1_545
Ni2 O46 2.062234 1_556
Ni2 O19 2.065364 1_545
Ni3 O8 1.939394 1_455
Ni3 O13 1.939394 1_555
Ni3 O46 1.976413 1_565
Ni3 O47 2.062234 1_554
Ni3 O18 2.065364 1_565
Ni4 O24 1.950814 1_555
Ni4 O20 2.063004 1_545
Ni4 O43 2.105493 1_555
Ni4 O38 2.105493 1_555
Ni4 O28 2.178952 1_545
Ni4 O33 2.178952 1_545
Ni5 O25 1.950814 1_555
Ni5 O21 2.063004 1_565
Ni5 O42 2.105493 1_555
Ni5 O39 2.105493 1_555
Ni5 O32 2.178952 1_565
Ni5 O29 2.178952 1_565
Ni6 O26 1.950814 1_555
Ni6 O22 2.063004 1_555
Ni6 O36 2.105493 1_455
Ni6 O41 2.105493 1_555
Ni6 O35 2.178952 1_555
Ni6 O30 2.178952 1_455
Ni7 O27 1.950814 1_555
Ni7 O23 2.063004 1_555
Ni7 O37 2.105493 1_455
Ni7 O40 2.105493 1_555
Ni7 O34 2.178952 1_555
Ni7 O31 2.178952 1_455
Ni8 O2 2.015359 1_655
Ni8 O7 2.015456 1_655
Ni8 O28 2.049400 1_555
Ni8 O16 2.054796 1_555
Ni8 O20 2.127125 1_555
Ni8 O36 2.294712 1_555
Ni9 O3 2.015359 1_655
Ni9 O6 2.015456 1_655
Ni9 O29 2.049400 1_555
Ni9 O17 2.054796 1_555
Ni9 O21 2.127125 1_555
Ni9 O37 2.294712 1_555
Ni10 O0 2.015359 1_555
Ni10 O5 2.015456 1_555
Ni10 O30 2.049400 1_555
Ni10 O18 2.054796 1_655
Ni10 O22 2.127125 1_655
Ni10 O38 2.294712 1_555
Ni11 O1 2.015359 1_555
Ni11 O4 2.015456 1_555
Ni11 O31 2.049400 1_555
Ni11 O19 2.054796 1_655
Ni11 O23 2.127125 1_655
Ni11 O39 2.294712 1_555
Ni12 O3 2.015359 1_555
Ni12 O6 2.015456 1_555
Ni12 O32 2.049400 1_555
Ni12 O17 2.054796 1_555
Ni12 O21 2.127125 1_555
Ni12 O40 2.294712 1_555
Ni13 O2 2.015359 1_555
Ni13 O7 2.015456 1_555
Ni13 O33 2.049400 1_555
Ni13 O16 2.054796 1_555
Ni13 O20 2.127125 1_555
Ni13 O41 2.294712 1_555
Ni14 O1 2.015359 1_555
Ni14 O4 2.015456 1_555
Ni14 O34 2.049400 1_555
Ni14 O19 2.054796 1_555
Ni14 O23 2.127125 1_555
Ni14 O42 2.294712 1_555
Ni15 O0 2.015359 1_555
Ni15 O5 2.015456 1_555
Ni15 O35 2.049400 1_555
Ni15 O18 2.054796 1_555
Ni15 O22 2.127125 1_555
Ni15 O43 2.294712 1_555
O0 P0 1.547646 1_545
O1 P1 1.547646 1_565
O2 P2 1.547646 1_555
O3 P3 1.547646 1_555
O4 P5 1.531726 1_555
O5 P4 1.531726 1_555
O6 P7 1.531726 1_545
O7 P6 1.531726 1_565
O8 P0 1.507137 1_555
O9 P1 1.507137 1_555
O10 P2 1.507137 1_655
O11 P3 1.507137 1_655
O12 P1 1.507137 1_555
O13 P0 1.507137 1_555
O14 P3 1.507137 1_555
O15 P2 1.507137 1_555
O16 P4 1.581292 1_555
O17 P5 1.581292 1_555
O18 P6 1.581292 1_555
O19 P7 1.581292 1_555
O20 P0 1.606198 1_555
O21 P1 1.606198 1_555
O22 P2 1.606198 1_555
O23 P3 1.606198 1_555
O24 P9 1.495275 1_555
O25 P8 1.495275 1_555
O26 P11 1.495275 1_554
O27 P10 1.495275 1_556
O28 P8 1.564272 1_555
O29 P9 1.564272 1_555
O30 P10 1.564272 1_655
O31 P11 1.564272 1_655
O32 P9 1.564272 1_555
O33 P8 1.564272 1_555
O34 P11 1.564272 1_555
O35 P10 1.564272 1_555
O36 P4 1.529860 1_555
O37 P5 1.529860 1_555
O38 P6 1.529860 1_655
O39 P7 1.529860 1_655
O40 P5 1.529860 1_555
O41 P4 1.529860 1_555
O42 P7 1.529860 1_555
O43 P6 1.529860 1_555
O44 P8 1.536867 1_555
O45 P9 1.536867 1_555
O46 P10 1.536867 1_555
O47 P11 1.536867 1_555
