# generated using pymatgen
data_La2Mg(CoO3)2
_symmetry_space_group_name_H-M   'P 1'
_cell_length_a   6.62488376
_cell_length_b   5.83593757
_cell_length_c   5.70701846
_cell_angle_alpha   70.17792190
_cell_angle_beta   64.29007081
_cell_angle_gamma   50.68772140
_symmetry_Int_Tables_number   1
_chemical_formula_structural   La2Mg(CoO3)2
_chemical_formula_sum   'La2 Mg1 Co2 O6'
_cell_volume   153.16023306
_cell_formula_units_Z   1
loop_
 _symmetry_equiv_pos_site_id
 _symmetry_equiv_pos_as_xyz
  1  'x, y, z'
loop_
 _atom_site_type_symbol
 _atom_site_label
 _atom_site_symmetry_multiplicity
 _atom_site_fract_x
 _atom_site_fract_y
 _atom_site_fract_z
 _atom_site_occupancy
  La  La0  1  0.82624054  0.77204653  0.24462857  1
  La  La1  1  0.18940614  0.19047727  0.74567780  1
  Mg  Mg0  1  0.49958411  0.49414400  0.50133477  1
  Co  Co0  1  0.50637126  0.49420901  0.00062198  1
  Co  Co1  1  0.00251665  0.99792261  0.48505230  1
  O  O0  1  0.21477519  0.57600735  0.37299319  1
  O  O1  1  0.79081696  0.40729652  0.62594579  1
  O  O2  1  0.80230508  0.33673060  0.14017389  1
  O  O3  1  0.20940467  0.67117059  0.85634994  1
  O  O4  1  0.64126425  0.04287782  0.60921408  1
  O  O5  1  0.36493514  0.94568970  0.37038670  1
loop_
_geom_bond_atom_site_label_1
_geom_bond_atom_site_label_2
_geom_bond_distance
_geom_bond_site_symmetry_2
La0 O5 2.355381 1_555
La0 O0 2.409831 1_655
La0 O3 2.410658 1_654
La0 O4 2.427561 1_565
La0 O1 2.523935 1_555
La0 O2 2.907590 1_555
La0 O2 3.054198 1_565
La1 O4 2.339776 1_555
La1 O1 2.405460 1_455
La1 O5 2.406150 1_545
La1 O2 2.427809 1_456
La1 O0 2.556898 1_555
La1 O3 2.804801 1_545
La1 O3 3.167235 1_555
Mg0 O0 2.035777 1_555
Mg0 O1 2.047463 1_555
Mg0 O3 2.095627 1_555
Mg0 O4 2.113128 1_555
Mg0 O2 2.116020 1_555
Mg0 O5 2.136050 1_555
Co0 O3 1.967058 1_554
Co0 O2 1.974303 1_555
Co0 O1 2.099755 1_554
Co0 O0 2.105591 1_555
Co1 O5 2.032379 1_555
Co1 O4 2.039051 1_465
Co1 O0 2.085576 1_555
Co1 O1 2.097624 1_465
Co1 O2 2.417722 1_465
Co1 O3 2.544165 1_555
