# generated using pymatgen
data_Na4InGaSi2SO12
_symmetry_space_group_name_H-M   'P 1'
_cell_length_a   9.11586597
_cell_length_b   9.10054815
_cell_length_c   22.24695436
_cell_angle_alpha   89.87304892
_cell_angle_beta   90.00292604
_cell_angle_gamma   119.49662892
_symmetry_Int_Tables_number   1
_chemical_formula_structural   Na4InGaSi2SO12
_chemical_formula_sum   'Na24 In6 Ga6 Si12 S6 O72'
_cell_volume   1606.37117423
_cell_formula_units_Z   6
loop_
 _symmetry_equiv_pos_site_id
 _symmetry_equiv_pos_as_xyz
  1  'x, y, z'
loop_
 _atom_site_type_symbol
 _atom_site_label
 _atom_site_symmetry_multiplicity
 _atom_site_fract_x
 _atom_site_fract_y
 _atom_site_fract_z
 _atom_site_occupancy
  Na  Na0  1  0.64133849  0.99978455  0.25381307  1
  Na  Na1  1  0.36276476  0.37340785  0.24421143  1
  Na  Na2  1  0.99554953  0.62500141  0.25490681  1
  Na  Na3  1  0.62521723  0.63163276  0.73981112  1
  Na  Na4  1  0.99801003  0.35509594  0.75284678  1
  Na  Na5  1  0.37993480  0.01061881  0.75298293  1
  Na  Na6  1  0.30825788  0.33183239  0.58812167  1
  Na  Na7  1  0.03682361  0.71264546  0.57684823  1
  Na  Na8  1  0.66076457  0.95378799  0.58728854  1
  Na  Na9  1  0.28887316  0.96719148  0.07649968  1
  Na  Na10  1  0.67079075  0.69022284  0.08885659  1
  Na  Na11  1  0.04672846  0.34089305  0.08796598  1
  Na  Na12  1  0.98096324  0.66488683  0.92190614  1
  Na  Na13  1  0.69856077  0.04411538  0.90790304  1
  Na  Na14  1  0.32178598  0.28656118  0.92100549  1
  Na  Na15  1  0.95756356  0.30030969  0.40966490  1
  Na  Na16  1  0.33128582  0.02312241  0.42007086  1
  Na  Na17  1  0.70883961  0.67313560  0.42118134  1
  Na  Na18  1  0.99179164  0.98146369  0.49955994  1
  Na  Na19  1  0.02150537  0.01011425  0.00049230  1
  Na  Na20  1  0.65868607  0.31252169  0.83158677  1
  Na  Na21  1  0.68166581  0.33928300  0.33402601  1
  Na  Na22  1  0.32422648  0.64792863  0.16942073  1
  Na  Na23  1  0.35164677  0.67548219  0.66552539  1
  In  In0  1  0.01080484  0.01825325  0.84668476  1
  In  In1  1  0.99791515  0.00197238  0.15428493  1
  In  In2  1  0.66601972  0.33409878  0.98462975  1
  In  In3  1  0.31734204  0.65499868  0.01847024  1
  In  In4  1  0.34501167  0.68447130  0.51578588  1
  In  In5  1  0.33213810  0.66705303  0.81406881  1
  Ga  Ga0  1  0.96308208  0.97875651  0.34932153  1
  Ga  Ga1  1  0.00005427  0.00018691  0.64792883  1
  Ga  Ga2  1  0.63625198  0.31360368  0.68242247  1
  Ga  Ga3  1  0.68653619  0.36894711  0.18657249  1
  Ga  Ga4  1  0.66619209  0.33467708  0.48333261  1
  Ga  Ga5  1  0.32957384  0.66843825  0.31844270  1
  Si  Si0  1  0.69238082  0.69974802  0.25191819  1
  Si  Si1  1  0.00028551  0.29900678  0.25223214  1
  Si  Si2  1  0.29797780  0.29522596  0.74575578  1
  Si  Si3  1  0.70835591  0.00665884  0.74463547  1
  Si  Si4  1  0.36973424  0.04309652  0.58297176  1
  Si  Si5  1  0.67171733  0.62097177  0.58419274  1
  Si  Si6  1  0.96338124  0.63292316  0.08523747  1
  Si  Si7  1  0.37632689  0.33283097  0.08660254  1
  Si  Si8  1  0.03090519  0.36472151  0.91603180  1
  Si  Si9  1  0.33315946  0.96474300  0.91599851  1
  Si  Si10  1  0.63054702  0.96791674  0.41564963  1
  Si  Si11  1  0.03529396  0.66928809  0.41501079  1
  S  S0  1  0.29827426  0.99920384  0.25236519  1
  S  S1  1  0.99507245  0.70406650  0.74724120  1
  S  S2  1  0.95520419  0.33080024  0.58315239  1
  S  S3  1  0.66612062  0.03862041  0.08536659  1
  S  S4  1  0.63218495  0.66870430  0.91629238  1
  S  S5  1  0.33244861  0.37030212  0.41577693  1
  O  O0  1  0.21388596  0.02688694  0.30475443  1
  O  O1  1  0.82380394  0.78170111  0.30792706  1
  O  O2  1  0.96959503  0.16998067  0.30921409  1
  O  O3  1  0.23605561  0.18401362  0.80751568  1
  O  O4  1  0.96770337  0.77619415  0.80352870  1
  O  O5  1  0.81131485  0.03574610  0.80786218  1
  O  O6  1  0.80211436  0.97021792  0.68810882  1
  O  O7  1  0.17041515  0.19975086  0.68908422  1
  O  O8  1  0.02024450  0.81364686  0.69448111  1
  O  O9  1  0.76544006  0.81521791  0.19127148  1
  O  O10  1  0.04785230  0.23143432  0.19147073  1
  O  O11  1  0.19750185  0.96932635  0.19623294  1
  O  O12  1  0.87812348  0.35859807  0.63741856  1
  O  O13  1  0.49064494  0.11941564  0.64179838  1
  O  O14  1  0.64917529  0.50555658  0.64392454  1
  O  O15  1  0.87735150  0.50792493  0.14323455  1
  O  O16  1  0.64319403  0.12192778  0.13857234  1
  O  O17  1  0.49580319  0.35243839  0.14545007  1
  O  O18  1  0.44529846  0.29461204  0.02425522  1
  O  O19  1  0.85461365  0.55721796  0.02356346  1
  O  O20  1  0.68997050  0.13382760  0.02885378  1
  O  O21  1  0.45915441  0.16377910  0.52334423  1
  O  O22  1  0.70492319  0.53714328  0.52340452  1
  O  O23  1  0.85335497  0.30808323  0.52780020  1
  O  O24  1  0.55611389  0.69528778  0.97089039  1
  O  O25  1  0.15077344  0.43804647  0.97547922  1
  O  O26  1  0.31044874  0.85666548  0.97773020  1
  O  O27  1  0.57016770  0.84915122  0.47574975  1
  O  O28  1  0.30038261  0.44272440  0.47142701  1
  O  O29  1  0.14658497  0.70551402  0.47659261  1
  O  O30  1  0.12713049  0.63103303  0.35821047  1
  O  O31  1  0.50314216  0.87587379  0.35843493  1
  O  O32  1  0.35892780  0.48057299  0.36273385  1
  O  O33  1  0.11341511  0.47979307  0.85559886  1
  O  O34  1  0.37311464  0.88649345  0.85601215  1
  O  O35  1  0.53057246  0.64470925  0.86180595  1
  O  O36  1  0.02343752  0.84647388  0.40661115  1
  O  O37  1  0.82420501  0.99519256  0.40971694  1
  O  O38  1  0.18503352  0.19905897  0.40913477  1
  O  O39  1  0.00159233  0.17148244  0.91558526  1
  O  O40  1  0.15261971  0.96603316  0.91278307  1
  O  O41  1  0.80255703  0.81790686  0.91117092  1
  O  O42  1  0.97065385  0.17462125  0.58624452  1
  O  O43  1  0.17985768  0.02782818  0.58890002  1
  O  O44  1  0.83958297  0.81404777  0.58899996  1
  O  O45  1  0.97731113  0.82007177  0.08978688  1
  O  O46  1  0.82034408  0.02131443  0.08827342  1
  O  O47  1  0.18429985  0.16981434  0.08963727  1
  O  O48  1  0.69859875  0.18479870  0.73876847  1
  O  O49  1  0.49215491  0.32386932  0.74257939  1
  O  O50  1  0.84811435  0.53278478  0.74196479  1
  O  O51  1  0.67370939  0.50889619  0.24839872  1
  O  O52  1  0.82061930  0.30713172  0.24583760  1
  O  O53  1  0.46927118  0.14944099  0.24711081  1
  O  O54  1  0.64705739  0.51398564  0.91928503  1
  O  O55  1  0.84545006  0.35485262  0.91949685  1
  O  O56  1  0.49720505  0.15638032  0.91800163  1
  O  O57  1  0.64400099  0.15659655  0.42336140  1
  O  O58  1  0.49018936  0.35852427  0.42004641  1
  O  O59  1  0.84490201  0.49803640  0.42053778  1
  O  O60  1  0.37364674  0.51378404  0.08462917  1
  O  O61  1  0.15391813  0.65529075  0.08649912  1
  O  O62  1  0.51525186  0.86678166  0.08175558  1
  O  O63  1  0.34339740  0.85018688  0.58243429  1
  O  O64  1  0.49403782  0.63096418  0.58137422  1
  O  O65  1  0.12850724  0.48067305  0.57819729  1
  O  O66  1  0.31447406  0.84353580  0.25717500  1
  O  O67  1  0.50410954  0.68162012  0.26144979  1
  O  O68  1  0.16673493  0.48980524  0.26012563  1
  O  O69  1  0.31037946  0.48288079  0.74870776  1
  O  O70  1  0.15252272  0.69121502  0.74954227  1
  O  O71  1  0.51807728  0.83828819  0.74726791  1
loop_
_geom_bond_atom_site_label_1
_geom_bond_atom_site_label_2
_geom_bond_distance
_geom_bond_site_symmetry_2
Na0 O52 2.454010 1_565
Na0 O67 2.531501 1_555
Na0 O53 2.537765 1_565
Na0 O66 2.594828 1_555
Na0 O31 2.620254 1_555
Na0 O16 2.788831 1_565
Na0 O9 2.814013 1_555
Na0 O2 2.883785 1_565
Na1 O67 2.473967 1_555
Na1 O51 2.474337 1_555
Na1 O68 2.511272 1_555
Na1 O17 2.562160 1_555
Na1 O53 2.655047 1_555
Na1 O10 2.764211 1_555
Na1 O32 2.819552 1_555
Na2 O68 2.419188 1_655
Na2 O52 2.532149 1_555
Na2 O30 2.580480 1_655
Na2 O51 2.587055 1_555
Na2 O66 2.591668 1_655
Na2 O15 2.710942 1_555
Na2 O1 2.842939 1_555
Na3 O49 2.444058 1_555
Na3 O14 2.484405 1_555
Na3 O69 2.506328 1_555
Na3 O71 2.515660 1_555
Na3 O50 2.596131 1_555
Na3 O35 2.868306 1_555
Na3 O6 2.917073 1_555
Na4 O48 2.405440 1_555
Na4 O69 2.491557 1_655
Na4 O33 2.540786 1_655
Na4 O50 2.591287 1_555
Na4 O70 2.665009 1_655
Na4 O12 2.797012 1_555
Na4 O5 2.820378 1_555
Na4 O7 2.945825 1_655
Na5 O71 2.450972 1_545
Na5 O49 2.520350 1_555
Na5 O34 2.540261 1_545
Na5 O48 2.552361 1_555
Na5 O70 2.611447 1_545
Na5 O13 2.668808 1_555
Na5 O3 2.780082 1_555
Na6 O64 2.399920 1_555
Na6 O43 2.415649 1_555
Na6 O7 2.563151 1_555
Na6 O65 2.598605 1_555
Na6 O42 2.680363 1_455
Na6 O28 2.796971 1_555
Na6 O21 2.896468 1_555
Na6 O14 2.978052 1_555
Na7 O44 2.406789 1_455
Na7 O63 2.438929 1_555
Na7 O29 2.458612 1_555
Na7 O43 2.513921 1_565
Na7 O65 2.625500 1_555
Na7 O8 2.804239 1_555
Na7 O22 2.892753 1_455
Na8 O44 2.513371 1_555
Na8 O42 2.535496 1_565
Na8 O6 2.554393 1_555
Na8 O64 2.561843 1_555
Na8 O63 2.566094 1_555
Na8 O27 2.642348 1_555
Na8 O13 2.908200 1_565
Na9 O26 2.466430 1_554
Na9 O47 2.475447 1_565
Na9 O61 2.485635 1_555
Na9 O45 2.490018 1_455
Na9 O62 2.638888 1_555
Na9 O11 2.793893 1_555
Na9 O18 2.839649 1_565
Na10 O60 2.375268 1_555
Na10 O45 2.439869 1_555
Na10 O9 2.504873 1_555
Na10 O62 2.619041 1_555
Na10 O46 2.625325 1_565
Na10 O24 2.833548 1_554
Na10 O19 2.896285 1_555
Na10 O17 2.955270 1_555
Na11 O47 2.433212 1_555
Na11 O10 2.508892 1_555
Na11 O61 2.527598 1_555
Na11 O60 2.597004 1_555
Na11 O46 2.608998 1_455
Na11 O25 2.666157 1_554
Na11 O15 2.919958 1_455
Na12 O40 2.403157 1_655
Na12 O55 2.461310 1_555
Na12 O19 2.506088 1_556
Na12 O41 2.621054 1_555
Na12 O54 2.652984 1_555
Na12 O4 2.843402 1_555
Na12 O26 2.908060 1_655
Na12 O33 2.912947 1_655
Na13 O39 2.418952 1_655
Na13 O5 2.468536 1_555
Na13 O55 2.476041 1_555
Na13 O56 2.512216 1_555
Na13 O41 2.657650 1_545
Na13 O20 2.825904 1_556
Na13 O34 2.829851 1_545
Na14 O56 2.414761 1_555
Na14 O18 2.543323 1_556
Na14 O40 2.548135 1_545
Na14 O39 2.573186 1_555
Na14 O54 2.652067 1_555
Na14 O3 2.673640 1_555
Na14 O25 2.814849 1_555
Na15 O37 2.421568 1_545
Na15 O59 2.484543 1_555
Na15 O57 2.508133 1_555
Na15 O2 2.559813 1_555
Na15 O38 2.651514 1_655
Na15 O23 2.807462 1_555
Na15 O30 2.856906 1_655
Na16 O36 2.471606 1_545
Na16 O57 2.489511 1_555
Na16 O38 2.549619 1_555
Na16 O21 2.611374 1_555
Na16 O58 2.657265 1_555
Na16 O0 2.786291 1_555
Na16 O29 2.821744 1_545
Na16 O31 2.864595 1_545
Na17 O59 2.454438 1_555
Na17 O36 2.522076 1_655
Na17 O58 2.559607 1_555
Na17 O22 2.578516 1_555
Na17 O37 2.592801 1_555
Na17 O1 2.718871 1_555
Na17 O27 2.764130 1_555
Na18 O44 2.471997 1_555
Na18 O36 2.495716 1_655
Na18 O43 2.521610 1_665
Na18 O37 2.555571 1_555
Na18 O42 2.682299 1_565
Na18 O38 2.760242 1_665
Na19 O40 2.423382 1_544
Na19 O39 2.451075 1_554
Na19 O47 2.477138 1_555
Na19 O45 2.529522 1_445
Na19 O46 2.715151 1_455
Na19 O41 2.751186 1_444
Na20 O56 2.410458 1_555
Na20 O48 2.484857 1_555
Na20 O55 2.495794 1_555
Na20 O49 2.527717 1_555
Na20 O54 2.717802 1_555
Na20 O50 2.747594 1_555
Na21 O59 2.429138 1_555
Na21 O52 2.430433 1_555
Na21 O51 2.472630 1_555
Na21 O57 2.501034 1_555
Na21 O58 2.653745 1_555
Na21 O53 2.681933 1_555
Na22 O60 2.409044 1_555
Na22 O61 2.432997 1_555
Na22 O68 2.481301 1_555
Na22 O67 2.545970 1_555
Na22 O66 2.675701 1_555
Na22 O62 2.714875 1_555
Na23 O71 2.366874 1_555
Na23 O64 2.423889 1_555
Na23 O69 2.444317 1_555
Na23 O63 2.460732 1_555
Na23 O70 2.658285 1_555
Na23 O65 2.742033 1_555
In0 O3 2.048243 1_555
In0 O5 2.088692 1_455
In0 O39 2.103797 1_555
In0 O40 2.158962 1_545
In0 O4 2.255172 1_445
In0 O41 2.359337 1_445
In1 O10 2.079379 1_655
In1 O9 2.122224 1_545
In1 O45 2.130452 1_545
In1 O47 2.173303 1_655
In1 O11 2.190955 1_645
In1 O46 2.255453 1_555
In2 O18 2.059474 1_556
In2 O19 2.097350 1_556
In2 O55 2.122617 1_555
In2 O20 2.172857 1_556
In2 O56 2.177280 1_555
In2 O54 2.256385 1_555
In3 O25 2.043168 1_554
In3 O26 2.073606 1_554
In3 O61 2.124617 1_555
In3 O60 2.173107 1_555
In3 O24 2.281478 1_554
In3 O62 2.353582 1_555
In4 O27 2.053593 1_555
In4 O29 2.099765 1_555
In4 O63 2.122458 1_555
In4 O64 2.204497 1_555
In4 O28 2.260023 1_555
In4 O65 2.376368 1_555
In5 O34 2.066879 1_555
In5 O33 2.092950 1_555
In5 O69 2.155529 1_555
In5 O35 2.191435 1_555
In5 O71 2.213341 1_555
In5 O70 2.267792 1_555
Ga0 O1 1.855016 1_555
Ga0 O37 1.902085 1_555
Ga0 O2 1.928600 1_565
Ga0 O36 2.005424 1_655
Ga0 O0 2.326842 1_665
Ga0 O38 2.429166 1_665
Ga1 O6 1.908853 1_445
Ga1 O7 1.943768 1_555
Ga1 O43 2.016698 1_555
Ga1 O8 2.070800 1_545
Ga1 O44 2.073055 1_445
Ga1 O42 2.210038 1_455
Ga2 O13 1.843559 1_555
Ga2 O14 1.894653 1_555
Ga2 O49 1.909670 1_555
Ga2 O48 1.979357 1_555
Ga2 O12 2.267346 1_555
Ga2 O50 2.383529 1_555
Ga3 O15 1.839351 1_555
Ga3 O17 1.904153 1_555
Ga3 O51 1.918864 1_555
Ga3 O52 2.054863 1_555
Ga3 O16 2.342206 1_555
Ga3 O53 2.412315 1_555
Ga4 O22 1.918598 1_555
Ga4 O21 1.968939 1_555
Ga4 O57 2.033251 1_555
Ga4 O23 2.086520 1_555
Ga4 O59 2.102800 1_555
Ga4 O58 2.223692 1_555
Ga5 O30 1.919499 1_555
Ga5 O31 1.981083 1_555
Ga5 O67 1.991233 1_555
Ga5 O68 2.040161 1_555
Ga5 O32 2.099646 1_555
Ga5 O66 2.149956 1_555
O0 S0 1.485221 1_545
O1 Si0 1.633462 1_555
O2 Si1 1.653475 1_655
O3 Si2 1.631591 1_555
O4 S1 1.492019 1_555
O5 Si3 1.639010 1_555
O6 Si3 1.644072 1_565
O7 Si2 1.645127 1_555
O8 S1 1.481329 1_455
O9 Si0 1.634869 1_555
O10 Si1 1.630873 1_555
O11 S0 1.494209 1_555
O12 S2 1.480431 1_555
O13 Si4 1.630953 1_555
O14 Si5 1.640911 1_555
O15 Si6 1.639792 1_555
O16 S3 1.476333 1_555
O17 Si7 1.655749 1_555
O18 Si7 1.630255 1_555
O19 Si6 1.634523 1_555
O20 S3 1.479300 1_555
O21 Si4 1.656024 1_555
O22 Si5 1.653631 1_555
O23 S2 1.494367 1_555
O24 S4 1.476938 1_555
O25 Si8 1.635263 1_555
O26 Si9 1.640077 1_555
O27 Si10 1.632998 1_555
O28 S5 1.498652 1_555
O29 Si11 1.639313 1_555
O30 Si11 1.645567 1_555
O31 Si10 1.648403 1_555
O32 S5 1.487980 1_555
O33 Si8 1.639557 1_555
O34 Si9 1.637183 1_555
O35 S4 1.475428 1_555
O36 Si11 1.678393 1_555
O37 Si10 1.662495 1_555
O38 S5 1.481568 1_555
O39 Si8 1.643606 1_555
O40 Si9 1.653132 1_555
O41 S4 1.480350 1_555
O42 S2 1.497126 1_555
O43 Si4 1.672059 1_555
O44 Si5 1.671382 1_555
O45 Si6 1.647694 1_555
O46 S3 1.491131 1_555
O47 Si7 1.646795 1_555
O48 Si3 1.671585 1_555
O49 Si2 1.658834 1_555
O50 S1 1.477372 1_555
O51 Si0 1.661703 1_555
O52 Si1 1.681464 1_655
O53 S0 1.487753 1_545
O54 S4 1.480848 1_555
O55 Si8 1.650014 1_655
O56 Si9 1.646791 1_545
O57 Si10 1.669370 1_545
O58 S5 1.496632 1_555
O59 Si11 1.670870 1_655
O60 Si7 1.659422 1_555
O61 Si6 1.646490 1_455
O62 S3 1.492006 1_565
O63 Si4 1.650725 1_565
O64 Si5 1.667527 1_555
O65 S2 1.498572 1_455
O66 S0 1.498512 1_555
O67 Si0 1.654926 1_555
O68 Si1 1.659813 1_555
O69 Si2 1.656478 1_555
O70 S1 1.497212 1_455
O71 Si3 1.655991 1_565
