# generated using pymatgen
data_Na2Y6Nb2Si3(S3O16)3
_symmetry_space_group_name_H-M   'P 1'
_cell_length_a   18.23738313
_cell_length_b   9.13347011
_cell_length_c   23.99881881
_cell_angle_alpha   89.89516847
_cell_angle_beta   90.12961713
_cell_angle_gamma   120.16122574
_symmetry_Int_Tables_number   1
_chemical_formula_structural   Na2Y6Nb2Si3(S3O16)3
_chemical_formula_sum   'Na6 Y18 Nb6 Si9 S27 O144'
_cell_volume   3456.28641023
_cell_formula_units_Z   3
loop_
 _symmetry_equiv_pos_site_id
 _symmetry_equiv_pos_as_xyz
  1  'x, y, z'
loop_
 _atom_site_type_symbol
 _atom_site_label
 _atom_site_symmetry_multiplicity
 _atom_site_fract_x
 _atom_site_fract_y
 _atom_site_fract_z
 _atom_site_occupancy
  Na  Na0  1  0.99901070  0.98568825  0.49884059  1
  Na  Na1  1  0.50218004  0.01443865  0.99602411  1
  Na  Na2  1  0.34421653  0.33730951  0.83509448  1
  Na  Na3  1  0.83844354  0.36124514  0.83032799  1
  Na  Na4  1  0.33966758  0.31870084  0.33678824  1
  Na  Na5  1  0.84340761  0.34784945  0.34400729  1
  Y  Y0  1  0.00536162  0.98971243  0.35969885  1
  Y  Y1  1  0.50404229  0.01805412  0.85669341  1
  Y  Y2  1  0.00093775  0.99486379  0.64914918  1
  Y  Y3  1  0.50173869  0.00685940  0.14981830  1
  Y  Y4  1  0.32702115  0.33851521  0.68231147  1
  Y  Y5  1  0.83981114  0.33895476  0.68476148  1
  Y  Y6  1  0.34483217  0.33934863  0.18893147  1
  Y  Y7  1  0.82511928  0.31255196  0.18283212  1
  Y  Y8  1  0.33448640  0.33241084  0.98100903  1
  Y  Y9  1  0.83930489  0.33311991  0.98210151  1
  Y  Y10  1  0.33997351  0.34632992  0.48340841  1
  Y  Y11  1  0.82862809  0.32706801  0.48452780  1
  Y  Y12  1  0.16206912  0.66173079  0.01878772  1
  Y  Y13  1  0.66341705  0.67423653  0.52302254  1
  Y  Y14  1  0.16162655  0.67208591  0.31297227  1
  Y  Y15  1  0.66793546  0.66492636  0.30874716  1
  Y  Y16  1  0.16796514  0.67251364  0.80716012  1
  Y  Y17  1  0.66054567  0.64925186  0.81075800  1
  Nb  Nb0  1  0.49245022  0.00450609  0.35628365  1
  Nb  Nb1  1  0.99193975  0.97990410  0.85376753  1
  Nb  Nb2  1  0.49863819  0.99055782  0.64264616  1
  Nb  Nb3  1  0.99522112  0.00045617  0.14572949  1
  Nb  Nb4  1  0.67524242  0.66610379  0.01446295  1
  Nb  Nb5  1  0.17359959  0.68324645  0.51573566  1
  Si  Si0  1  0.49675504  0.28559810  0.25265568  1
  Si  Si1  1  0.99406398  0.70128566  0.75178633  1
  Si  Si2  1  0.68756030  0.04300477  0.58633369  1
  Si  Si3  1  0.32901453  0.62827302  0.58266474  1
  Si  Si4  1  0.82918974  0.03050831  0.08263496  1
  Si  Si5  1  0.81180508  0.66077632  0.91298249  1
  Si  Si6  1  0.52080265  0.37546446  0.91854535  1
  Si  Si7  1  0.31082500  0.96382372  0.41395366  1
  Si  Si8  1  0.01827290  0.65901199  0.41857704  1
  S  S0  1  0.14194219  0.00461965  0.24574097  1
  S  S1  1  0.64422945  0.00793274  0.25478175  1
  S  S2  1  0.35793323  0.71153781  0.25378075  1
  S  S3  1  0.86098753  0.71593332  0.24756173  1
  S  S4  1  0.99891638  0.27926261  0.24763251  1
  S  S5  1  0.14403196  0.27958393  0.75500072  1
  S  S6  1  0.64231278  0.28064995  0.74627898  1
  S  S7  1  0.49806966  0.71810129  0.74823043  1
  S  S8  1  0.36012291  0.00797599  0.74831046  1
  S  S9  1  0.85865296  0.00562179  0.75413024  1
  S  S10  1  0.47907356  0.32147291  0.58699950  1
  S  S11  1  0.98839157  0.34230955  0.57994086  1
  S  S12  1  0.18504934  0.03170179  0.57983451  1
  S  S13  1  0.83547207  0.63330230  0.58195838  1
  S  S14  1  0.48642075  0.63278191  0.08020694  1
  S  S15  1  0.98034384  0.63797705  0.08730951  1
  S  S16  1  0.33311161  0.03582060  0.08249272  1
  S  S17  1  0.18155648  0.32374534  0.08699575  1
  S  S18  1  0.68520552  0.33870899  0.07961564  1
  S  S19  1  0.31282539  0.66711619  0.91730403  1
  S  S20  1  0.02180874  0.36692007  0.91284550  1
  S  S21  1  0.16220421  0.96076122  0.91388236  1
  S  S22  1  0.66648038  0.95019984  0.91871064  1
  S  S23  1  0.81396391  0.96019705  0.41586763  1
  S  S24  1  0.16738016  0.38272295  0.41877517  1
  S  S25  1  0.66293881  0.36392092  0.41298313  1
  S  S26  1  0.52041121  0.67590299  0.41171332  1
  O  O0  1  0.10467821  0.02717719  0.29721364  1
  O  O1  1  0.59680683  0.01996858  0.30278277  1
  O  O2  1  0.41330891  0.80222445  0.30324421  1
  O  O3  1  0.91205756  0.79464241  0.29766725  1
  O  O4  1  0.48888895  0.15682470  0.30724637  1
  O  O5  1  0.98740177  0.17734672  0.29736461  1
  O  O6  1  0.09611964  0.17229706  0.80360441  1
  O  O7  1  0.60429374  0.18346587  0.79852825  1
  O  O8  1  0.48702773  0.79648385  0.79876639  1
  O  O9  1  0.98857651  0.81893036  0.80737495  1
  O  O10  1  0.40991420  0.03027101  0.79983027  1
  O  O11  1  0.91432221  0.02104928  0.80416893  1
  O  O12  1  0.40510817  0.99455106  0.69902329  1
  O  O13  1  0.89857535  0.99092373  0.70315113  1
  O  O14  1  0.09809482  0.20960520  0.70257148  1
  O  O15  1  0.58743013  0.18503335  0.69832209  1
  O  O16  1  0.00466749  0.81405096  0.69788220  1
  O  O17  1  0.50143734  0.81997523  0.69809637  1
  O  O18  1  0.39765244  0.80618344  0.20221684  1
  O  O19  1  0.90815234  0.82298603  0.19725773  1
  O  O20  1  0.00264549  0.18098068  0.19674217  1
  O  O21  1  0.50462650  0.19593138  0.19719344  1
  O  O22  1  0.08719336  0.99173917  0.19703801  1
  O  O23  1  0.59858527  0.98647607  0.20183367  1
  O  O24  1  0.43809276  0.35033129  0.63519764  1
  O  O25  1  0.95249438  0.37040927  0.63124350  1
  O  O26  1  0.23379280  0.10378456  0.63148131  1
  O  O27  1  0.74542057  0.13257885  0.64022894  1
  O  O28  1  0.31026600  0.51253205  0.63754742  1
  O  O29  1  0.82853414  0.53710467  0.63286748  1
  O  O30  1  0.44789427  0.53162517  0.13151659  1
  O  O31  1  0.93984091  0.52853647  0.13567379  1
  O  O32  1  0.32381132  0.11764030  0.13271776  1
  O  O33  1  0.81247933  0.10809110  0.13817575  1
  O  O34  1  0.23683060  0.35429110  0.13517007  1
  O  O35  1  0.73392964  0.36399187  0.13142879  1
  O  O36  1  0.21352319  0.28285196  0.03688405  1
  O  O37  1  0.72838627  0.31581579  0.03174981  1
  O  O38  1  0.42790971  0.54821227  0.03272031  1
  O  O39  1  0.92792265  0.57444092  0.03705321  1
  O  O40  1  0.34448506  0.14133412  0.03288052  1
  O  O41  1  0.85750387  0.15514871  0.03022052  1
  O  O42  1  0.22782101  0.14001306  0.53157501  1
  O  O43  1  0.72027062  0.15673064  0.53097899  1
  O  O44  1  0.35463241  0.55746153  0.52966015  1
  O  O45  1  0.84987678  0.55530139  0.53248109  1
  O  O46  1  0.42633890  0.28317492  0.53665867  1
  O  O47  1  0.93134751  0.31058311  0.53207815  1
  O  O48  1  0.27081032  0.68579791  0.96782905  1
  O  O49  1  0.76426345  0.68650748  0.97019305  1
  O  O50  1  0.07020618  0.44100628  0.96536782  1
  O  O51  1  0.58433928  0.49240736  0.97201050  1
  O  O52  1  0.14756900  0.85802597  0.96497000  1
  O  O53  1  0.66050268  0.84662736  0.96910729  1
  O  O54  1  0.26336153  0.84294592  0.47028349  1
  O  O55  1  0.77278655  0.85717511  0.46579753  1
  O  O56  1  0.16064881  0.47278295  0.46851588  1
  O  O57  1  0.64724392  0.43217374  0.46353386  1
  O  O58  1  0.08341029  0.67211234  0.47133820  1
  O  O59  1  0.56787863  0.70026824  0.46362600  1
  O  O60  1  0.06061745  0.64379556  0.36113434  1
  O  O61  1  0.56359680  0.65158281  0.36393748  1
  O  O62  1  0.25814509  0.87069020  0.35946892  1
  O  O63  1  0.76556878  0.87611361  0.36503504  1
  O  O64  1  0.17629743  0.47540712  0.36687699  1
  O  O65  1  0.67516141  0.47212579  0.36425754  1
  O  O66  1  0.06546025  0.47990152  0.86591733  1
  O  O67  1  0.56048682  0.47803400  0.86170766  1
  O  O68  1  0.17793060  0.88156841  0.86606407  1
  O  O69  1  0.67569474  0.87545344  0.86746299  1
  O  O70  1  0.26431733  0.65283142  0.86697831  1
  O  O71  1  0.75641601  0.64603021  0.86014735  1
  O  O72  1  0.01766337  0.83907078  0.42149286  1
  O  O73  1  0.51272626  0.82957315  0.40131666  1
  O  O74  1  0.40547149  0.96982738  0.40416141  1
  O  O75  1  0.90041611  0.98183639  0.41208425  1
  O  O76  1  0.08807871  0.21403128  0.41715612  1
  O  O77  1  0.58547156  0.18962658  0.40251086  1
  O  O78  1  0.01457055  0.19895273  0.90381618  1
  O  O79  1  0.51707441  0.19251595  0.92145963  1
  O  O80  1  0.08532417  0.97723613  0.90427161  1
  O  O81  1  0.58727121  0.95927183  0.91783200  1
  O  O82  1  0.39926271  0.81718687  0.91447769  1
  O  O83  1  0.90578712  0.84327706  0.90358716  1
  O  O84  1  0.48849243  0.17024036  0.59922138  1
  O  O85  1  0.99925707  0.19230077  0.58627532  1
  O  O86  1  0.09908766  0.00953003  0.58446072  1
  O  O87  1  0.58881435  0.01627841  0.60260883  1
  O  O88  1  0.41029073  0.81992567  0.60185638  1
  O  O89  1  0.90998455  0.80897705  0.58574641  1
  O  O90  1  0.49643510  0.80363868  0.08591854  1
  O  O91  1  0.99259345  0.81165952  0.10012329  1
  O  O92  1  0.40828182  0.01401616  0.08649249  1
  O  O93  1  0.91211073  0.00177043  0.10239303  1
  O  O94  1  0.09400617  0.17079987  0.09972324  1
  O  O95  1  0.59919090  0.18834006  0.08433296  1
  O  O96  1  0.34854000  0.15659915  0.74299356  1
  O  O97  1  0.85535486  0.16360680  0.75419352  1
  O  O98  1  0.22786925  0.28789321  0.75341055  1
  O  O99  1  0.72712299  0.30046799  0.74158680  1
  O  O100  1  0.42289780  0.54478002  0.74251826  1
  O  O101  1  0.90832799  0.52074322  0.75468687  1
  O  O102  1  0.35202715  0.54300243  0.25130323  1
  O  O103  1  0.85097896  0.54727378  0.23954627  1
  O  O104  1  0.40947563  0.29406659  0.25393737  1
  O  O105  1  0.92421224  0.30043026  0.23991789  1
  O  O106  1  0.22610637  0.15715433  0.23841888  1
  O  O107  1  0.72853654  0.16792863  0.25237417  1
  O  O108  1  0.31887565  0.51160838  0.92247286  1
  O  O109  1  0.83122947  0.51107308  0.92465660  1
  O  O110  1  0.42558146  0.34890609  0.92509683  1
  O  O111  1  0.93606415  0.34498855  0.91796656  1
  O  O112  1  0.23519419  0.13388298  0.92099499  1
  O  O113  1  0.74042306  0.12238625  0.92554647  1
  O  O114  1  0.33114746  0.15379695  0.42352092  1
  O  O115  1  0.82140275  0.12879754  0.41940129  1
  O  O116  1  0.24093605  0.35786747  0.42479056  1
  O  O117  1  0.73641774  0.33853164  0.41681270  1
  O  O118  1  0.43365175  0.52721866  0.41577727  1
  O  O119  1  0.92359640  0.49808344  0.42348338  1
  O  O120  1  0.16728953  0.46714094  0.07720847  1
  O  O121  1  0.67681649  0.49196681  0.07083511  1
  O  O122  1  0.06569675  0.66326828  0.07791599  1
  O  O123  1  0.56970911  0.64753531  0.07031253  1
  O  O124  1  0.25641160  0.86749715  0.07484437  1
  O  O125  1  0.74981077  0.84287268  0.06631539  1
  O  O126  1  0.17631825  0.86096050  0.57130601  1
  O  O127  1  0.66643673  0.85136218  0.57574913  1
  O  O128  1  0.24882021  0.65500691  0.56565913  1
  O  O129  1  0.75824546  0.64400721  0.57470943  1
  O  O130  1  0.07290664  0.49403901  0.56948586  1
  O  O131  1  0.56413953  0.46541907  0.57786296  1
  O  O132  1  0.14687008  0.84983297  0.24754954  1
  O  O133  1  0.65727019  0.86327488  0.26140919  1
  O  O134  1  0.27455322  0.69314641  0.26026475  1
  O  O135  1  0.77968656  0.71054610  0.24971703  1
  O  O136  1  0.07784576  0.44128780  0.24742067  1
  O  O137  1  0.57884095  0.46427187  0.26319205  1
  O  O138  1  0.15659153  0.44999160  0.76222675  1
  O  O139  1  0.64681732  0.44568693  0.74860632  1
  O  O140  1  0.07843379  0.69454528  0.76389874  1
  O  O141  1  0.57636977  0.71133977  0.74988481  1
  O  O142  1  0.27751924  0.85142801  0.75249352  1
  O  O143  1  0.77565790  0.85639863  0.76144968  1
loop_
_geom_bond_atom_site_label_1
_geom_bond_atom_site_label_2
_geom_bond_distance
_geom_bond_site_symmetry_2
Na0 O72 2.413373 1_655
Na0 O89 2.638312 1_555
Na0 O86 2.680669 1_665
Na0 O76 2.725118 1_665
Na0 O75 2.736626 1_555
Na0 O85 2.823126 1_565
Na1 O79 2.338574 1_555
Na1 O81 2.643061 1_545
Na1 O82 2.682704 1_545
Na1 O95 2.704803 1_556
Na1 O92 2.767038 1_556
Na1 O90 2.855734 1_546
Na2 O110 2.589771 1_555
Na2 O98 2.751536 1_555
Na2 O96 2.785822 1_555
Na2 O100 2.802233 1_555
Na2 O108 2.810894 1_555
Na2 O112 2.819140 1_555
Na3 O101 2.275289 1_555
Na3 O109 2.684817 1_555
Na3 O97 2.695568 1_555
Na3 O99 2.796013 1_555
Na3 O111 2.804062 1_555
Na4 O104 2.434298 1_555
Na4 O114 2.525867 1_555
Na4 O118 2.622346 1_555
Na4 O102 2.824762 1_555
Na4 O116 2.915085 1_555
Na4 O106 2.993225 1_555
Na5 O119 2.374856 1_555
Na5 O115 2.573111 1_555
Na5 O117 2.591401 1_555
Na5 O107 2.908300 1_555
Na5 O105 3.043247 1_555
Na5 O103 3.058362 1_555
Nb0 O4 1.846362 1_555
Nb0 O74 1.854406 1_545
Nb0 O77 2.020779 1_555
Nb0 O2 2.106543 1_545
Nb0 O73 2.107864 1_545
Nb0 O1 2.242974 1_555
Nb1 O9 1.822098 1_555
Nb1 O83 1.867667 1_555
Nb1 O11 2.021658 1_565
Nb1 O80 2.098188 1_655
Nb1 O78 2.189178 1_665
Nb1 O6 2.189669 1_665
Nb2 O87 1.816907 1_565
Nb2 O88 1.859650 1_555
Nb2 O84 2.027708 1_565
Nb2 O17 2.067099 1_555
Nb2 O15 2.161282 1_565
Nb2 O12 2.194218 1_555
Nb3 O93 1.841275 1_555
Nb3 O20 2.004494 1_655
Nb3 O94 2.017780 1_655
Nb3 O19 2.023164 1_545
Nb3 O91 2.024177 1_545
Nb3 O22 2.111985 1_645
Nb4 O49 1.871448 1_554
Nb4 O51 1.912748 1_554
Nb4 O125 1.948837 1_555
Nb4 O121 2.097262 1_555
Nb4 O53 2.100740 1_554
Nb4 O123 2.283058 1_555
Nb5 O54 1.897388 1_555
Nb5 O58 1.917136 1_555
Nb5 O128 1.931547 1_555
Nb5 O126 2.083834 1_555
Nb5 O56 2.141400 1_555
Nb5 O130 2.199148 1_555
O0 S0 1.475010 1_555
O0 Y0 2.243685 1_545
O1 S1 1.479058 1_555
O2 S2 1.507548 1_555
O3 S3 1.468159 1_555
O3 Y0 2.288623 1_655
O4 Si0 1.716380 1_555
O5 S4 1.461398 1_555
O5 Y0 2.415481 1_645
O6 S5 1.491413 1_555
O7 S6 1.490762 1_555
O7 Y1 2.191332 1_555
O8 S7 1.474149 1_555
O8 Y1 2.345549 1_565
O9 Si1 1.748771 1_555
O10 S8 1.484856 1_555
O10 Y1 2.236722 1_555
O11 S9 1.531028 1_555
O12 S8 1.480951 1_565
O13 S9 1.465528 1_565
O13 Y2 2.260345 1_655
O14 S5 1.467531 1_555
O14 Y2 2.266466 1_545
O15 S6 1.486336 1_555
O16 Si1 1.602429 1_455
O16 Y2 2.050652 1_555
O17 S7 1.501977 1_555
O18 S2 1.474527 1_555
O18 Y3 2.247281 1_565
O19 S3 1.519397 1_555
O20 S4 1.538745 1_455
O21 Si0 1.608088 1_555
O21 Y3 2.047699 1_555
O22 S0 1.501368 1_565
O23 S1 1.475872 1_565
O23 Y3 2.243232 1_565
O24 S10 1.472747 1_555
O24 Y4 2.276751 1_555
O25 S11 1.477824 1_555
O25 Y5 2.317905 1_555
O26 S12 1.473039 1_555
O26 Y4 2.304885 1_555
O27 Si2 1.608088 1_555
O27 Y5 2.096888 1_555
O28 Si3 1.613363 1_555
O28 Y4 2.062493 1_555
O29 S13 1.471642 1_555
O29 Y5 2.287637 1_555
O30 S14 1.486941 1_555
O30 Y6 2.280666 1_555
O31 S15 1.466169 1_555
O31 Y7 2.324840 1_555
O32 S16 1.473656 1_555
O32 Y6 2.301087 1_555
O33 Si4 1.610572 1_555
O33 Y7 2.064614 1_555
O34 S17 1.464220 1_555
O34 Y6 2.412640 1_555
O35 S18 1.476133 1_555
O35 Y7 2.298276 1_555
O36 S17 1.466048 1_555
O36 Y8 2.424335 1_554
O37 S18 1.467612 1_555
O37 Y9 2.285955 1_554
O38 S14 1.484423 1_555
O38 Y8 2.225478 1_554
O39 S15 1.464668 1_555
O39 Y9 2.372901 1_554
O40 S16 1.478314 1_555
O40 Y8 2.222481 1_554
O41 Si4 1.597456 1_555
O41 Y9 2.149298 1_554
O42 S12 1.467287 1_555
O42 Y10 2.280426 1_555
O43 Si2 1.604818 1_555
O43 Y11 2.117201 1_555
O44 Si3 1.601253 1_555
O44 Y10 2.123813 1_555
O45 S13 1.476157 1_555
O45 Y11 2.239416 1_555
O46 S10 1.471427 1_555
O46 Y10 2.312553 1_555
O47 S11 1.475988 1_555
O47 Y11 2.259957 1_555
O48 S19 1.490920 1_555
O48 Y12 2.246945 1_556
O49 Si5 1.703936 1_555
O50 S20 1.491192 1_555
O50 Y12 2.262817 1_556
O51 Si6 1.698373 1_555
O52 S21 1.483404 1_555
O52 Y12 2.327831 1_556
O53 S22 1.504104 1_555
O54 Si7 1.683800 1_555
O55 S23 1.474802 1_555
O55 Y13 2.304637 1_555
O56 S24 1.490760 1_555
O57 S25 1.458058 1_555
O57 Y13 2.523396 1_555
O58 Si8 1.696968 1_555
O59 S26 1.467515 1_555
O59 Y13 2.351189 1_555
O60 Si8 1.621566 1_555
O60 Y14 2.080008 1_555
O61 S26 1.471416 1_555
O61 Y15 2.273286 1_555
O62 Si7 1.591700 1_555
O62 Y14 2.103331 1_555
O63 S23 1.474591 1_555
O63 Y15 2.294166 1_555
O64 S24 1.467322 1_555
O64 Y14 2.333437 1_555
O65 S25 1.472879 1_555
O65 Y15 2.262033 1_555
O66 S20 1.463313 1_555
O66 Y16 2.296974 1_555
O67 Si6 1.606392 1_555
O67 Y17 2.099061 1_555
O68 S21 1.461288 1_555
O68 Y16 2.310230 1_555
O69 S22 1.458154 1_555
O69 Y17 2.373108 1_555
O70 S19 1.462219 1_555
O70 Y16 2.342227 1_555
O71 Si5 1.582542 1_555
O71 Y17 2.122487 1_555
O72 Si8 1.651786 1_555
O72 Y0 2.108040 1_555
O73 S26 1.499352 1_555
O74 Si7 1.715910 1_555
O75 S23 1.490174 1_555
O75 Y0 2.262970 1_655
O76 S24 1.492598 1_555
O76 Y0 2.295618 1_545
O77 S25 1.527482 1_555
O78 S20 1.488458 1_555
O79 Si6 1.639217 1_555
O79 Y1 2.153663 1_555
O80 S21 1.500704 1_555
O81 S22 1.488026 1_555
O81 Y1 2.356050 1_565
O82 S19 1.482312 1_555
O82 Y1 2.328152 1_565
O83 Si5 1.701912 1_555
O84 S10 1.503390 1_555
O85 S11 1.487102 1_555
O85 Y2 2.361128 1_645
O86 S12 1.480796 1_555
O86 Y2 2.324434 1_545
O87 Si2 1.736767 1_555
O88 Si3 1.692902 1_555
O89 S13 1.496110 1_555
O89 Y2 2.262143 1_655
O90 S14 1.483788 1_555
O90 Y3 2.373925 1_565
O91 S15 1.518637 1_555
O92 S16 1.483895 1_555
O92 Y3 2.306247 1_555
O93 Si4 1.725061 1_555
O94 S17 1.534092 1_555
O95 S18 1.481590 1_555
O95 Y3 2.327841 1_555
O96 S8 1.480187 1_555
O96 Y4 2.383124 1_555
O97 S9 1.474093 1_555
O97 Y5 2.422002 1_555
O98 S5 1.492858 1_555
O98 Y4 2.359236 1_555
O99 S6 1.468727 1_555
O99 Y5 2.343487 1_555
O100 S7 1.491099 1_555
O100 Y4 2.320048 1_555
O101 Si1 1.605614 1_555
O101 Y5 2.247264 1_555
O102 S2 1.489402 1_555
O102 Y6 2.341294 1_555
O103 S3 1.470264 1_555
O103 Y7 2.379646 1_555
O104 Si0 1.632341 1_555
O104 Y6 2.115183 1_555
O105 S4 1.480278 1_555
O105 Y7 2.311793 1_555
O106 S0 1.476249 1_555
O106 Y6 2.291646 1_555
O107 S1 1.498377 1_555
O107 Y7 2.302160 1_555
O108 S19 1.483801 1_555
O108 Y8 2.278442 1_555
O109 Si5 1.599500 1_555
O109 Y9 2.189833 1_555
O110 Si6 1.636182 1_555
O110 Y8 2.083522 1_555
O111 S20 1.478709 1_655
O111 Y9 2.305248 1_555
O112 S21 1.478576 1_545
O112 Y8 2.310762 1_555
O113 S22 1.479030 1_545
O113 Y9 2.304215 1_555
O114 Si7 1.598613 1_545
O114 Y10 2.215312 1_555
O115 S23 1.478989 1_545
O115 Y11 2.347167 1_555
O116 S24 1.475443 1_555
O116 Y10 2.330579 1_555
O117 S25 1.472963 1_555
O117 Y11 2.375675 1_555
O118 S26 1.482659 1_555
O118 Y10 2.334331 1_555
O119 Si8 1.614200 1_655
O119 Y11 2.206881 1_555
O120 S17 1.476216 1_555
O120 Y12 2.300823 1_555
O121 S18 1.497050 1_555
O122 S15 1.472175 1_455
O122 Y12 2.266942 1_555
O123 S14 1.475678 1_555
O124 S16 1.480806 1_565
O124 Y12 2.247580 1_555
O125 Si4 1.641025 1_565
O126 S12 1.500219 1_565
O127 Si2 1.612543 1_565
O127 Y13 2.034464 1_555
O128 Si3 1.649537 1_555
O129 S13 1.469915 1_555
O129 Y13 2.252696 1_555
O130 S11 1.487690 1_455
O131 S10 1.460917 1_555
O131 Y13 2.275832 1_555
O132 S0 1.461524 1_565
O132 Y14 2.366624 1_555
O133 S1 1.463667 1_565
O133 Y15 2.226194 1_555
O134 S2 1.452259 1_555
O134 Y14 2.343356 1_555
O135 S3 1.459648 1_555
O135 Y15 2.343446 1_555
O136 S4 1.456532 1_455
O136 Y14 2.453109 1_555
O137 Si0 1.585262 1_555
O137 Y15 2.049643 1_555
O138 S5 1.465446 1_555
O138 Y16 2.218082 1_555
O139 S6 1.468964 1_555
O139 Y17 2.298907 1_555
O140 Si1 1.596539 1_455
O140 Y16 2.026381 1_555
O141 S7 1.460443 1_555
O141 Y17 2.382027 1_555
O142 S8 1.469564 1_565
O142 Y16 2.259780 1_555
O143 S9 1.451476 1_565
O143 Y17 2.323554 1_555
