# generated using pymatgen
data_Na14Ta2Ga6Si9(SO16)3
_symmetry_space_group_name_H-M   'P 1'
_cell_length_a   17.94061221
_cell_length_b   8.98830192
_cell_length_c   22.03611357
_cell_angle_alpha   89.80338948
_cell_angle_beta   90.21943611
_cell_angle_gamma   119.97221232
_symmetry_Int_Tables_number   1
_chemical_formula_structural   Na14Ta2Ga6Si9(SO16)3
_chemical_formula_sum   'Na42 Ta6 Ga18 Si27 S9 O144'
_cell_volume   3078.20989513
_cell_formula_units_Z   3
loop_
 _symmetry_equiv_pos_site_id
 _symmetry_equiv_pos_as_xyz
  1  'x, y, z'
loop_
 _atom_site_type_symbol
 _atom_site_label
 _atom_site_symmetry_multiplicity
 _atom_site_fract_x
 _atom_site_fract_y
 _atom_site_fract_z
 _atom_site_occupancy
  Na  Na0  1  0.81402103  0.00237224  0.24631635  1
  Na  Na1  1  0.68890140  0.37243965  0.24563596  1
  Na  Na2  1  0.50074306  0.62280739  0.24733665  1
  Na  Na3  1  0.31282310  0.62432882  0.74634856  1
  Na  Na4  1  0.99632326  0.37009193  0.74896671  1
  Na  Na5  1  0.18697166  0.00473361  0.74537812  1
  Na  Na6  1  0.15323274  0.33988190  0.58325444  1
  Na  Na7  1  0.65558960  0.34440324  0.58478856  1
  Na  Na8  1  0.01839038  0.69561043  0.58395208  1
  Na  Na9  1  0.51478278  0.68813450  0.58315115  1
  Na  Na10  1  0.32654115  0.96904647  0.58524316  1
  Na  Na11  1  0.83056408  0.96816923  0.58593267  1
  Na  Na12  1  0.15319387  0.96364090  0.08120239  1
  Na  Na13  1  0.65616389  0.96553924  0.07925407  1
  Na  Na14  1  0.32993499  0.69081604  0.08100775  1
  Na  Na15  1  0.82818244  0.68936978  0.08228884  1
  Na  Na16  1  0.01449574  0.34100327  0.08008100  1
  Na  Na17  1  0.51889606  0.34515461  0.07833667  1
  Na  Na18  1  0.48532867  0.66812805  0.91643868  1
  Na  Na19  1  0.98168799  0.65848573  0.91222562  1
  Na  Na20  1  0.35458110  0.04378109  0.91316282  1
  Na  Na21  1  0.85487951  0.05024204  0.91461403  1
  Na  Na22  1  0.16346580  0.29695262  0.91647192  1
  Na  Na23  1  0.66528965  0.29419778  0.92196586  1
  Na  Na24  1  0.48165300  0.30809385  0.41663678  1
  Na  Na25  1  0.98353688  0.29895628  0.42052097  1
  Na  Na26  1  0.16435249  0.03649841  0.42558700  1
  Na  Na27  1  0.66542586  0.02875830  0.42043729  1
  Na  Na28  1  0.35249345  0.65589683  0.42201963  1
  Na  Na29  1  0.85406443  0.66522156  0.41627721  1
  Na  Na30  1  0.00323335  0.00117929  0.49954646  1
  Na  Na31  1  0.50164067  0.99471105  0.49962103  1
  Na  Na32  1  0.00112322  0.00826377  0.99547492  1
  Na  Na33  1  0.50300787  0.00451883  0.99392859  1
  Na  Na34  1  0.34149493  0.33482293  0.82515125  1
  Na  Na35  1  0.83413177  0.32774256  0.82846118  1
  Na  Na36  1  0.33269378  0.33096078  0.33283947  1
  Na  Na37  1  0.84200438  0.34801134  0.32632113  1
  Na  Na38  1  0.16379509  0.66240441  0.16138916  1
  Na  Na39  1  0.66842539  0.66643099  0.16513740  1
  Na  Na40  1  0.16607490  0.66858517  0.66631318  1
  Na  Na41  1  0.66847172  0.67081412  0.66454583  1
  Ta  Ta0  1  0.99921608  0.99807258  0.64754970  1
  Ta  Ta1  1  0.49638493  0.99309900  0.64591216  1
  Ta  Ta2  1  0.99653839  0.00028379  0.14532079  1
  Ta  Ta3  1  0.50629093  0.01194245  0.14408470  1
  Ta  Ta4  1  0.15855690  0.64917382  0.31364113  1
  Ta  Ta5  1  0.66275045  0.67806765  0.81121344  1
  Ga  Ga0  1  0.00084953  0.99936861  0.35071724  1
  Ga  Ga1  1  0.50570440  0.00178248  0.34619868  1
  Ga  Ga2  1  0.00005109  0.01668920  0.84013599  1
  Ga  Ga3  1  0.50186736  0.00433489  0.84970909  1
  Ga  Ga4  1  0.33596414  0.33237858  0.68625554  1
  Ga  Ga5  1  0.83810864  0.33821364  0.68273770  1
  Ga  Ga6  1  0.33800798  0.31815574  0.17658901  1
  Ga  Ga7  1  0.83727295  0.34018450  0.18658688  1
  Ga  Ga8  1  0.34158415  0.33587627  0.98974608  1
  Ga  Ga9  1  0.83723115  0.32467390  0.98413604  1
  Ga  Ga10  1  0.33597761  0.34911787  0.48660667  1
  Ga  Ga11  1  0.84093884  0.34638951  0.49312381  1
  Ga  Ga12  1  0.16025412  0.64606451  0.02360695  1
  Ga  Ga13  1  0.65830110  0.66258260  0.02164530  1
  Ga  Ga14  1  0.15793160  0.65375982  0.52317377  1
  Ga  Ga15  1  0.66076229  0.67593939  0.52484589  1
  Ga  Ga16  1  0.65868872  0.65910897  0.30609569  1
  Ga  Ga17  1  0.15742336  0.65576203  0.80575088  1
  Si  Si0  1  0.64951276  0.00345608  0.25211124  1
  Si  Si1  1  0.85426592  0.70547643  0.25539441  1
  Si  Si2  1  0.99819300  0.28718255  0.25179532  1
  Si  Si3  1  0.49213315  0.28389580  0.25426035  1
  Si  Si4  1  0.14938534  0.29433020  0.75171105  1
  Si  Si5  1  0.99407310  0.70475085  0.75475601  1
  Si  Si6  1  0.49657295  0.70731904  0.75242866  1
  Si  Si7  1  0.35373378  0.00221326  0.75550058  1
  Si  Si8  1  0.85067571  0.00262978  0.75006130  1
  Si  Si9  1  0.47574774  0.33547056  0.58135096  1
  Si  Si10  1  0.97916775  0.33315291  0.58348037  1
  Si  Si11  1  0.19124665  0.04577375  0.58166372  1
  Si  Si12  1  0.69299300  0.05325521  0.58245465  1
  Si  Si13  1  0.32987711  0.61977413  0.58315440  1
  Si  Si14  1  0.83026000  0.62111347  0.58204367  1
  Si  Si15  1  0.47829459  0.62348053  0.08451541  1
  Si  Si16  1  0.97570065  0.61612011  0.08180197  1
  Si  Si17  1  0.32940420  0.03328750  0.08079882  1
  Si  Si18  1  0.82961652  0.04104602  0.08355847  1
  Si  Si19  1  0.19468467  0.33340494  0.08391073  1
  Si  Si20  1  0.69508391  0.34243726  0.08152530  1
  Si  Si21  1  0.02203427  0.37450395  0.91589868  1
  Si  Si22  1  0.51844662  0.37110336  0.91892393  1
  Si  Si23  1  0.66655669  0.96509669  0.91965195  1
  Si  Si24  1  0.16639295  0.36803495  0.41958059  1
  Si  Si25  1  0.01658920  0.66576106  0.42022592  1
  Si  Si26  1  0.52159590  0.66904694  0.41444807  1
  S  S0  1  0.14885832  0.00318187  0.25139639  1
  S  S1  1  0.35264390  0.71021078  0.25099788  1
  S  S2  1  0.64772001  0.29333953  0.75148319  1
  S  S3  1  0.31041146  0.66365014  0.91759202  1
  S  S4  1  0.81160775  0.66767116  0.91715830  1
  S  S5  1  0.16747523  0.95767691  0.91760327  1
  S  S6  1  0.31264948  0.95431610  0.41524675  1
  S  S7  1  0.81026082  0.95586197  0.41638030  1
  S  S8  1  0.66645777  0.37577185  0.41605107  1
  O  O0  1  0.10798869  0.02014019  0.30706004  1
  O  O1  1  0.60645733  0.03881744  0.31145621  1
  O  O2  1  0.40528712  0.79066199  0.30642530  1
  O  O3  1  0.91302165  0.79896217  0.31471700  1
  O  O4  1  0.48024989  0.16705295  0.31450959  1
  O  O5  1  0.98757885  0.17421746  0.31197578  1
  O  O6  1  0.10849013  0.17510265  0.81215226  1
  O  O7  1  0.60668591  0.19091161  0.80723639  1
  O  O8  1  0.48575215  0.79974485  0.81227465  1
  O  O9  1  0.98527682  0.80091168  0.81520220  1
  O  O10  1  0.41268550  0.02707226  0.81498354  1
  O  O11  1  0.90905661  0.03793149  0.81130367  1
  O  O12  1  0.40319150  0.97153492  0.69534005  1
  O  O13  1  0.89918330  0.97422346  0.69091844  1
  O  O14  1  0.08343809  0.19662837  0.69336034  1
  O  O15  1  0.59179735  0.21088370  0.69628633  1
  O  O16  1  0.01129509  0.83103151  0.69437390  1
  O  O17  1  0.51542587  0.83305075  0.69207863  1
  O  O18  1  0.39381848  0.81359130  0.19572636  1
  O  O19  1  0.90355460  0.83604581  0.19542412  1
  O  O20  1  0.01694399  0.19975200  0.19195675  1
  O  O21  1  0.50663230  0.18542377  0.19475577  1
  O  O22  1  0.09426470  0.97203816  0.19645598  1
  O  O23  1  0.58211838  0.96940906  0.19393291  1
  O  O24  1  0.43473176  0.38048462  0.63805131  1
  O  O25  1  0.93921518  0.37455434  0.64203550  1
  O  O26  1  0.25014164  0.12654068  0.64174106  1
  O  O27  1  0.75532653  0.13938481  0.63930781  1
  O  O28  1  0.31199958  0.50263361  0.64254167  1
  O  O29  1  0.80836450  0.49055865  0.63822176  1
  O  O30  1  0.43847906  0.50633270  0.14505912  1
  O  O31  1  0.93570116  0.49058864  0.13929390  1
  O  O32  1  0.30585828  0.11032757  0.13925048  1
  O  O33  1  0.81163836  0.12008564  0.14359344  1
  O  O34  1  0.25749987  0.37159312  0.14215414  1
  O  O35  1  0.74919046  0.37119685  0.14321673  1
  O  O36  1  0.23229924  0.29169815  0.02195067  1
  O  O37  1  0.73038118  0.29219545  0.02150578  1
  O  O38  1  0.41798846  0.55116035  0.02398299  1
  O  O39  1  0.91588131  0.54961614  0.02055847  1
  O  O40  1  0.35843422  0.15979056  0.02162532  1
  O  O41  1  0.85814898  0.16178863  0.02330413  1
  O  O42  1  0.23009155  0.16723779  0.52059734  1
  O  O43  1  0.72984975  0.16774838  0.51928072  1
  O  O44  1  0.35882219  0.55753910  0.52241282  1
  O  O45  1  0.85540160  0.55471794  0.51964270  1
  O  O46  1  0.41669151  0.28396641  0.51920012  1
  O  O47  1  0.91953066  0.28591987  0.52184019  1
  O  O48  1  0.27140830  0.69110051  0.97311540  1
  O  O49  1  0.77232909  0.69246372  0.97295212  1
  O  O50  1  0.08328274  0.45493178  0.97680580  1
  O  O51  1  0.57886969  0.45478568  0.97891905  1
  O  O52  1  0.15854655  0.85457909  0.97302157  1
  O  O53  1  0.64730689  0.83930557  0.97807102  1
  O  O54  1  0.27403195  0.85210309  0.47042576  1
  O  O55  1  0.77091553  0.84970773  0.47162554  1
  O  O56  1  0.14852640  0.45957365  0.47634857  1
  O  O57  1  0.65593680  0.45786709  0.47096424  1
  O  O58  1  0.08134757  0.70477388  0.47690227  1
  O  O59  1  0.58417348  0.71441725  0.47444022  1
  O  O60  1  0.06978775  0.63933309  0.36044500  1
  O  O61  1  0.56580200  0.63338017  0.35517991  1
  O  O62  1  0.25725358  0.86370311  0.36050478  1
  O  O63  1  0.75844359  0.87191174  0.36118230  1
  O  O64  1  0.18192666  0.50335164  0.36020267  1
  O  O65  1  0.67831163  0.48027346  0.36055553  1
  O  O66  1  0.06720411  0.50091454  0.85726010  1
  O  O67  1  0.57155454  0.50228114  0.86128674  1
  O  O68  1  0.18077340  0.87835929  0.86252524  1
  O  O69  1  0.68166650  0.86295995  0.86108279  1
  O  O70  1  0.25880761  0.64462530  0.86268121  1
  O  O71  1  0.75637594  0.64745157  0.86325069  1
  O  O72  1  0.00996369  0.83985679  0.41161910  1
  O  O73  1  0.50761061  0.84167609  0.40809670  1
  O  O74  1  0.39958473  0.97043022  0.41037279  1
  O  O75  1  0.89873489  0.97778242  0.41436720  1
  O  O76  1  0.07983534  0.18008563  0.40976327  1
  O  O77  1  0.58546294  0.20109148  0.41367181  1
  O  O78  1  0.01104790  0.17832738  0.91101279  1
  O  O79  1  0.50945801  0.18056135  0.91203621  1
  O  O80  1  0.08807019  0.97123260  0.91546648  1
  O  O81  1  0.57942052  0.97974387  0.91027933  1
  O  O82  1  0.39883124  0.81768654  0.91564358  1
  O  O83  1  0.89876754  0.82259147  0.91319239  1
  O  O84  1  0.48916081  0.16504837  0.59157702  1
  O  O85  1  0.98904043  0.15986300  0.58792757  1
  O  O86  1  0.09294072  0.02289308  0.58871332  1
  O  O87  1  0.59495024  0.03285635  0.58990364  1
  O  O88  1  0.41879019  0.81792109  0.58998977  1
  O  O89  1  0.91754577  0.81367719  0.58959009  1
  O  O90  1  0.48631584  0.81527343  0.09152343  1
  O  O91  1  0.98976231  0.81419356  0.09246228  1
  O  O92  1  0.41583084  0.01349742  0.09196282  1
  O  O93  1  0.91899177  0.02086908  0.09018513  1
  O  O94  1  0.09682742  0.15846599  0.09163121  1
  O  O95  1  0.59415117  0.16564650  0.08893632  1
  O  O96  1  0.34124529  0.16600559  0.74661485  1
  O  O97  1  0.84248988  0.17263200  0.74357645  1
  O  O98  1  0.24268974  0.31100485  0.74528771  1
  O  O99  1  0.73144430  0.30976648  0.74578049  1
  O  O100  1  0.41138995  0.52404047  0.74545347  1
  O  O101  1  0.91172954  0.51355438  0.74710885  1
  O  O102  1  0.34238048  0.53761307  0.24746440  1
  O  O103  1  0.84133928  0.51635348  0.24684001  1
  O  O104  1  0.40985867  0.31526474  0.24619026  1
  O  O105  1  0.91327348  0.30201826  0.24568162  1
  O  O106  1  0.23386148  0.15830639  0.24582240  1
  O  O107  1  0.74226471  0.17321472  0.24590892  1
  O  O108  1  0.31760848  0.50508414  0.92101228  1
  O  O109  1  0.81787573  0.50971872  0.91808502  1
  O  O110  1  0.42333739  0.36109303  0.92097043  1
  O  O111  1  0.92682666  0.36098714  0.92086269  1
  O  O112  1  0.24498273  0.13445506  0.92052081  1
  O  O113  1  0.75356983  0.15346172  0.91991530  1
  O  O114  1  0.31937366  0.12437995  0.41511114  1
  O  O115  1  0.81780127  0.12847469  0.41922584  1
  O  O116  1  0.25384081  0.35456545  0.41892600  1
  O  O117  1  0.74266482  0.35209992  0.41849811  1
  O  O118  1  0.42623655  0.49388706  0.41989362  1
  O  O119  1  0.92316243  0.48677930  0.42071155  1
  O  O120  1  0.17968085  0.49933236  0.08020916  1
  O  O121  1  0.67793532  0.50429394  0.07660784  1
  O  O122  1  0.07481187  0.65040087  0.07608653  1
  O  O123  1  0.57444785  0.64920848  0.08105783  1
  O  O124  1  0.24705791  0.84054186  0.07241249  1
  O  O125  1  0.74965672  0.84490020  0.07584133  1
  O  O126  1  0.17813749  0.85190705  0.57566173  1
  O  O127  1  0.67809347  0.85717401  0.57904570  1
  O  O128  1  0.24975991  0.65490036  0.57482970  1
  O  O129  1  0.74709427  0.65027184  0.57293381  1
  O  O130  1  0.07531468  0.50092624  0.58031482  1
  O  O131  1  0.57455981  0.49923506  0.57531002  1
  O  O132  1  0.15899732  0.84564437  0.25652578  1
  O  O133  1  0.65365551  0.82587657  0.25258685  1
  O  O134  1  0.26678213  0.70132161  0.25529080  1
  O  O135  1  0.75885400  0.69376209  0.25829056  1
  O  O136  1  0.08793884  0.48381987  0.25512813  1
  O  O137  1  0.58336106  0.46851600  0.25328298  1
  O  O138  1  0.15424463  0.48113954  0.75308504  1
  O  O139  1  0.65350305  0.46557819  0.75619568  1
  O  O140  1  0.08513469  0.69919485  0.75348259  1
  O  O141  1  0.58496863  0.69037671  0.75549073  1
  O  O142  1  0.25923012  0.82316155  0.75875176  1
  O  O143  1  0.75840720  0.81851088  0.75630737  1
loop_
_geom_bond_atom_site_label_1
_geom_bond_atom_site_label_2
_geom_bond_distance
_geom_bond_site_symmetry_2
Na0 O105 2.373382 1_555
Na0 O107 2.447523 1_555
Na0 O135 2.448979 1_545
Na0 O133 2.500884 1_545
Na0 O33 2.504644 1_555
Na0 O63 2.758067 1_545
Na0 O19 2.915051 1_545
Na1 O103 2.370291 1_555
Na1 O107 2.415777 1_555
Na1 O137 2.448778 1_555
Na1 O35 2.508919 1_555
Na1 O135 2.524962 1_555
Na1 O65 2.755539 1_555
Na2 O104 2.407746 1_555
Na2 O133 2.422146 1_555
Na2 O137 2.487671 1_555
Na2 O30 2.500376 1_555
Na2 O102 2.546495 1_555
Na2 O61 2.624567 1_555
Na3 O100 2.352252 1_555
Na3 O142 2.432161 1_555
Na3 O98 2.444313 1_555
Na3 O138 2.473031 1_555
Na3 O28 2.535767 1_555
Na3 O70 2.782605 1_555
Na3 O12 2.926738 1_555
Na4 O97 2.426055 1_555
Na4 O101 2.433571 1_555
Na4 O138 2.490919 1_655
Na4 O140 2.567176 1_655
Na4 O25 2.574027 1_555
Na4 O66 2.682625 1_655
Na4 O11 2.927402 1_555
Na4 O14 2.972801 1_655
Na5 O96 2.398647 1_555
Na5 O98 2.414115 1_555
Na5 O140 2.428532 1_545
Na5 O26 2.541954 1_555
Na5 O142 2.557067 1_545
Na5 O68 2.796865 1_545
Na5 O6 2.945884 1_555
Na5 O16 2.950019 1_545
Na6 O130 2.464560 1_555
Na6 O128 2.479974 1_555
Na6 O86 2.494337 1_555
Na6 O85 2.558277 1_455
Na6 O56 2.605018 1_555
Na6 O14 2.739286 1_555
Na6 O28 2.789511 1_555
Na6 O42 2.895336 1_555
Na7 O129 2.410484 1_555
Na7 O87 2.447997 1_555
Na7 O131 2.472001 1_555
Na7 O84 2.593992 1_555
Na7 O29 2.648179 1_555
Na7 O57 2.703265 1_555
Na7 O15 2.723194 1_555
Na7 O43 2.919598 1_555
Na8 O130 2.428711 1_555
Na8 O126 2.489999 1_555
Na8 O89 2.517114 1_455
Na8 O86 2.554097 1_565
Na8 O58 2.602568 1_555
Na8 O16 2.756102 1_555
Na8 O25 2.806495 1_455
Na8 O45 2.905698 1_455
Na9 O131 2.426019 1_555
Na9 O88 2.521894 1_555
Na9 O127 2.540508 1_555
Na9 O59 2.658846 1_555
Na9 O24 2.682367 1_555
Na9 O87 2.690741 1_565
Na9 O17 2.732147 1_555
Na9 O44 2.774653 1_555
Na10 O126 2.331977 1_555
Na10 O128 2.457404 1_555
Na10 O84 2.549118 1_565
Na10 O88 2.615153 1_555
Na10 O26 2.719648 1_565
Na10 O54 2.721118 1_555
Na10 O12 2.778783 1_555
Na10 O46 2.856856 1_565
Na11 O127 2.402498 1_555
Na11 O85 2.481763 1_565
Na11 O129 2.493207 1_555
Na11 O89 2.556039 1_555
Na11 O13 2.604379 1_555
Na11 O55 2.735501 1_555
Na11 O27 2.770166 1_565
Na11 O47 2.852037 1_565
Na12 O94 2.432252 1_565
Na12 O122 2.441775 1_555
Na12 O124 2.441962 1_555
Na12 O91 2.555576 1_455
Na12 O52 2.600947 1_554
Na12 O32 2.693095 1_565
Na12 O22 2.770437 1_555
Na12 O36 2.867080 1_565
Na13 O125 2.411147 1_555
Na13 O123 2.463715 1_555
Na13 O53 2.473583 1_554
Na13 O95 2.553851 1_565
Na13 O90 2.659745 1_555
Na13 O33 2.798538 1_565
Na13 O37 2.845011 1_565
Na13 O23 2.867841 1_555
Na14 O120 2.365015 1_555
Na14 O90 2.457085 1_555
Na14 O124 2.460321 1_555
Na14 O92 2.526123 1_565
Na14 O48 2.595896 1_554
Na14 O18 2.766794 1_555
Na14 O38 2.767248 1_555
Na14 O34 2.828139 1_555
Na15 O121 2.359529 1_555
Na15 O125 2.433940 1_555
Na15 O91 2.541542 1_555
Na15 O93 2.591090 1_565
Na15 O49 2.611274 1_554
Na15 O39 2.811879 1_555
Na15 O35 2.815740 1_555
Na15 O19 2.827979 1_555
Na16 O122 2.429963 1_555
Na16 O93 2.517445 1_455
Na16 O50 2.548259 1_554
Na16 O120 2.567840 1_555
Na16 O94 2.711846 1_555
Na16 O31 2.726506 1_455
Na16 O41 2.738677 1_455
Na16 O20 2.779385 1_555
Na17 O123 2.396872 1_555
Na17 O51 2.423240 1_554
Na17 O121 2.472080 1_555
Na17 O95 2.579193 1_555
Na17 O92 2.624191 1_555
Na17 O40 2.796329 1_555
Na17 O21 2.890415 1_555
Na17 O30 2.908825 1_555
Na18 O110 2.407328 1_555
Na18 O81 2.447046 1_555
Na18 O82 2.509875 1_555
Na18 O8 2.576978 1_555
Na18 O108 2.609074 1_555
Na18 O38 2.629992 1_556
Na18 O53 2.858900 1_555
Na18 O67 2.902259 1_555
Na19 O111 2.350224 1_555
Na19 O9 2.472653 1_555
Na19 O80 2.487878 1_655
Na19 O109 2.552843 1_555
Na19 O83 2.565579 1_555
Na19 O39 2.627078 1_556
Na19 O66 2.832641 1_655
Na20 O79 2.412420 1_555
Na20 O10 2.442505 1_555
Na20 O112 2.482181 1_555
Na20 O110 2.484391 1_555
Na20 O82 2.524669 1_545
Na20 O40 2.597772 1_556
Na21 O113 2.421807 1_555
Na21 O111 2.425981 1_555
Na21 O78 2.441264 1_655
Na21 O11 2.503163 1_555
Na21 O83 2.533426 1_545
Na21 O41 2.588795 1_556
Na22 O78 2.390372 1_555
Na22 O108 2.446905 1_555
Na22 O6 2.525348 1_555
Na22 O112 2.532271 1_555
Na22 O80 2.538668 1_545
Na22 O36 2.639194 1_556
Na22 O50 2.814581 1_555
Na22 O70 2.957311 1_555
Na23 O109 2.440473 1_555
Na23 O79 2.459850 1_555
Na23 O81 2.465681 1_545
Na23 O113 2.472522 1_555
Na23 O37 2.485251 1_556
Na23 O7 2.716529 1_555
Na23 O51 2.885432 1_555
Na24 O118 2.332947 1_555
Na24 O77 2.487755 1_555
Na24 O46 2.505518 1_555
Na24 O114 2.529861 1_555
Na24 O4 2.580638 1_555
Na24 O74 2.633379 1_545
Na24 O61 2.870515 1_555
Na24 O57 2.966270 1_555
Na25 O119 2.418767 1_555
Na25 O76 2.455969 1_655
Na25 O47 2.490104 1_555
Na25 O75 2.505895 1_545
Na25 O115 2.576276 1_555
Na25 O5 2.661681 1_555
Na25 O56 2.841463 1_655
Na25 O60 2.960529 1_655
Na26 O42 2.401771 1_555
Na26 O72 2.448750 1_545
Na26 O76 2.456528 1_555
Na26 O116 2.487011 1_555
Na26 O114 2.494157 1_555
Na26 O0 2.774866 1_555
Na26 O58 2.817767 1_545
Na27 O115 2.414431 1_555
Na27 O73 2.481552 1_545
Na27 O43 2.489478 1_555
Na27 O117 2.518781 1_555
Na27 O77 2.587790 1_555
Na27 O1 2.639945 1_555
Na27 O59 2.720104 1_545
Na28 O116 2.384030 1_555
Na28 O44 2.402828 1_555
Na28 O118 2.408085 1_555
Na28 O73 2.446824 1_555
Na28 O74 2.526352 1_555
Na28 O2 2.775576 1_555
Na28 O54 2.955373 1_555
Na28 O64 2.981326 1_555
Na29 O72 2.431406 1_655
Na29 O119 2.470503 1_555
Na29 O45 2.486607 1_555
Na29 O75 2.507303 1_555
Na29 O117 2.509463 1_555
Na29 O3 2.510316 1_555
Na30 O72 2.463197 1_545
Na30 O86 2.480653 1_555
Na30 O76 2.485919 1_555
Na30 O85 2.505583 1_455
Na30 O89 2.559772 1_445
Na30 O75 2.581473 1_445
Na31 O73 2.477717 1_555
Na31 O87 2.506721 1_565
Na31 O88 2.518132 1_555
Na31 O77 2.549543 1_565
Na31 O74 2.616094 1_555
Na31 O84 2.620611 1_565
Na32 O78 2.354457 1_555
Na32 O80 2.489239 1_545
Na32 O83 2.525495 1_445
Na32 O93 2.594561 1_456
Na32 O94 2.633663 1_556
Na32 O91 2.697143 1_446
Na33 O79 2.360664 1_555
Na33 O81 2.377791 1_545
Na33 O82 2.479591 1_545
Na33 O95 2.604386 1_556
Na33 O90 2.660650 1_546
Na33 O92 2.696794 1_556
Na34 O96 2.304071 1_555
Na34 O100 2.326969 1_555
Na34 O98 2.425848 1_555
Na34 O110 2.510636 1_555
Na34 O112 2.746691 1_555
Na34 O108 2.769888 1_555
Na35 O101 2.369938 1_555
Na35 O97 2.386217 1_555
Na35 O113 2.518477 1_555
Na35 O99 2.533481 1_555
Na35 O111 2.546093 1_555
Na35 O109 2.676585 1_555
Na36 O104 2.408220 1_555
Na36 O116 2.442985 1_555
Na36 O118 2.485966 1_555
Na36 O114 2.515651 1_555
Na36 O106 2.544436 1_555
Na36 O102 2.583747 1_555
Na37 O103 2.314504 1_555
Na37 O105 2.348188 1_555
Na37 O107 2.448686 1_555
Na37 O119 2.486399 1_555
Na37 O115 2.719660 1_555
Na37 O117 2.719775 1_555
Na38 O120 2.422610 1_555
Na38 O122 2.428972 1_555
Na38 O124 2.500110 1_555
Na38 O136 2.551793 1_555
Na38 O134 2.673535 1_555
Na38 O132 2.698493 1_555
Na39 O123 2.452894 1_555
Na39 O121 2.495844 1_555
Na39 O125 2.496714 1_555
Na39 O133 2.497985 1_555
Na39 O135 2.546725 1_555
Na39 O137 2.559858 1_555
Na40 O130 2.461264 1_555
Na40 O138 2.482650 1_555
Na40 O140 2.509637 1_555
Na40 O126 2.525229 1_555
Na40 O128 2.557857 1_555
Na40 O142 2.558532 1_555
Na41 O127 2.465227 1_555
Na41 O143 2.511523 1_555
Na41 O129 2.526607 1_555
Na41 O131 2.546192 1_555
Na41 O141 2.565176 1_555
Na41 O139 2.652835 1_555
Ga0 O3 1.876476 1_455
Ga0 O5 1.902238 1_465
Ga0 O76 2.009984 1_565
Ga0 O72 2.025530 1_555
Ga0 O0 2.075901 1_565
Ga0 O75 2.241386 1_455
Ga1 O1 1.836272 1_555
Ga1 O4 1.889746 1_555
Ga1 O73 1.991972 1_545
Ga1 O2 2.048958 1_545
Ga1 O77 2.215456 1_555
Ga1 O74 2.277214 1_545
Ga2 O11 1.846031 1_455
Ga2 O6 1.851457 1_555
Ga2 O9 1.904273 1_445
Ga2 O78 2.077474 1_555
Ga2 O83 2.402679 1_445
Ga2 O80 2.456834 1_545
Ga3 O10 1.871767 1_555
Ga3 O8 1.903431 1_545
Ga3 O81 2.014261 1_545
Ga3 O7 2.019002 1_555
Ga3 O79 2.052281 1_555
Ga3 O82 2.290824 1_545
Ga4 O24 1.923759 1_555
Ga4 O26 1.977505 1_555
Ga4 O28 2.024522 1_555
Ga4 O96 2.035020 1_555
Ga4 O100 2.042857 1_555
Ga4 O98 2.055019 1_555
Ga5 O25 1.902600 1_555
Ga5 O27 1.914249 1_555
Ga5 O29 1.959324 1_555
Ga5 O97 2.030008 1_555
Ga5 O101 2.039999 1_555
Ga5 O99 2.277345 1_555
Ga6 O32 1.851905 1_555
Ga6 O30 1.883596 1_555
Ga6 O34 1.890753 1_555
Ga6 O104 2.008165 1_555
Ga6 O106 2.281994 1_555
Ga6 O102 2.490377 1_555
Ga7 O31 1.910793 1_555
Ga7 O35 1.978638 1_555
Ga7 O105 2.030582 1_555
Ga7 O33 2.030587 1_555
Ga7 O103 2.042998 1_555
Ga7 O107 2.077061 1_555
Ga8 O38 1.882654 1_556
Ga8 O40 1.886440 1_556
Ga8 O36 1.932935 1_556
Ga8 O110 2.044991 1_555
Ga8 O108 2.329177 1_555
Ga8 O112 2.339227 1_555
Ga9 O41 1.888674 1_556
Ga9 O39 1.968510 1_556
Ga9 O37 1.972146 1_556
Ga9 O111 2.030805 1_555
Ga9 O113 2.077157 1_555
Ga9 O109 2.358396 1_555
Ga10 O44 1.881626 1_555
Ga10 O42 1.934385 1_555
Ga10 O46 1.947325 1_555
Ga10 O118 2.091963 1_555
Ga10 O116 2.110198 1_555
Ga10 O114 2.463403 1_555
Ga11 O45 1.853655 1_555
Ga11 O47 1.854837 1_555
Ga11 O43 1.920292 1_555
Ga11 O119 2.111611 1_555
Ga11 O115 2.421747 1_555
Ga11 O117 2.425494 1_555
Ga12 O50 1.884889 1_554
Ga12 O122 1.939642 1_555
Ga12 O120 1.965017 1_555
Ga12 O124 1.979296 1_555
Ga12 O48 2.141471 1_554
Ga12 O52 2.190632 1_554
Ga13 O51 1.935998 1_554
Ga13 O53 1.945551 1_554
Ga13 O123 1.955756 1_555
Ga13 O121 2.025054 1_555
Ga13 O125 2.028006 1_555
Ga13 O49 2.207794 1_554
Ga14 O130 1.907229 1_555
Ga14 O58 1.937327 1_555
Ga14 O56 1.963765 1_555
Ga14 O128 1.994687 1_555
Ga14 O126 2.001758 1_555
Ga14 O54 2.271995 1_555
Ga15 O127 1.918645 1_555
Ga15 O131 1.922961 1_555
Ga15 O59 1.924025 1_555
Ga15 O129 1.979354 1_555
Ga15 O55 2.154403 1_555
Ga15 O57 2.259403 1_555
Ga16 O61 1.904591 1_555
Ga16 O133 1.941047 1_555
Ga16 O137 1.950367 1_555
Ga16 O135 1.972067 1_555
Ga16 O65 2.167233 1_555
Ga16 O63 2.216757 1_555
Ga17 O66 1.896759 1_555
Ga17 O140 1.911105 1_555
Ga17 O138 1.932927 1_555
Ga17 O142 1.982548 1_555
Ga17 O68 2.217997 1_555
Ga17 O70 2.248512 1_555
O0 S0 1.478266 1_555
O1 Si0 1.632099 1_555
O2 S1 1.490493 1_555
O3 Si1 1.624216 1_555
O4 Si3 1.637064 1_555
O5 Si2 1.620305 1_555
O6 Si4 1.634857 1_555
O7 S2 1.490284 1_555
O8 Si6 1.624074 1_555
O9 Si5 1.640724 1_555
O10 Si7 1.625394 1_555
O11 Si8 1.636773 1_555
O12 Si7 1.696118 1_565
O12 Ta1 1.925626 1_555
O13 Si8 1.659534 1_565
O13 Ta0 1.951253 1_555
O14 Si4 1.668025 1_555
O14 Ta0 1.947706 1_445
O15 S2 1.513012 1_555
O15 Ta1 2.155591 1_545
O16 Si5 1.672316 1_455
O16 Ta0 1.917972 1_455
O17 Si6 1.664738 1_555
O17 Ta1 1.923387 1_555
O18 S1 1.485213 1_555
O18 Ta3 2.225840 1_565
O19 Si1 1.693239 1_555
O19 Ta2 1.929625 1_565
O20 Si2 1.656537 1_455
O20 Ta2 1.938690 1_455
O21 Si3 1.676620 1_555
O21 Ta3 1.918488 1_555
O22 S0 1.490871 1_565
O22 Ta2 2.199042 1_465
O23 Si0 1.679365 1_565
O23 Ta3 1.925812 1_565
O24 Si9 1.604464 1_555
O25 Si10 1.610614 1_555
O26 Si11 1.620354 1_555
O27 Si12 1.596995 1_555
O28 Si13 1.606363 1_555
O29 Si14 1.611529 1_555
O30 Si15 1.626366 1_555
O31 Si16 1.606623 1_555
O32 Si17 1.618508 1_555
O33 Si18 1.611700 1_555
O34 Si19 1.624972 1_555
O35 Si20 1.612065 1_555
O36 Si19 1.650291 1_555
O37 Si20 1.628021 1_555
O38 Si15 1.632360 1_555
O39 Si16 1.638252 1_555
O40 Si17 1.633326 1_555
O41 Si18 1.625751 1_555
O42 Si11 1.650852 1_555
O43 Si12 1.658781 1_555
O44 Si13 1.635508 1_555
O45 Si14 1.652202 1_555
O46 Si9 1.647947 1_555
O47 Si10 1.645892 1_555
O48 S3 1.492865 1_555
O49 S4 1.491065 1_555
O50 Si21 1.653206 1_555
O51 Si22 1.633974 1_555
O52 S5 1.490349 1_555
O53 Si23 1.630375 1_555
O54 S6 1.471513 1_555
O55 S7 1.488746 1_555
O56 Si24 1.618090 1_555
O57 S8 1.480350 1_555
O58 Si25 1.617840 1_555
O59 Si26 1.645985 1_555
O60 Si25 1.714940 1_555
O60 Ta4 1.865223 1_555
O61 Si26 1.643880 1_555
O62 S6 1.514930 1_555
O62 Ta4 2.123236 1_555
O63 S7 1.486557 1_555
O64 Si24 1.709455 1_555
O64 Ta4 1.866279 1_555
O65 S8 1.489133 1_555
O66 Si21 1.641751 1_555
O67 Si22 1.669638 1_555
O67 Ta5 1.951873 1_555
O68 S5 1.488749 1_555
O69 Si23 1.685669 1_555
O69 Ta5 1.879038 1_555
O70 S3 1.478230 1_555
O71 S4 1.496185 1_555
O71 Ta5 2.157998 1_555
O72 Si25 1.637808 1_555
O73 Si26 1.696280 1_555
O74 S6 1.496848 1_555
O75 S7 1.499415 1_555
O76 Si24 1.640407 1_555
O77 S8 1.516513 1_555
O78 Si21 1.677358 1_555
O79 Si22 1.645556 1_555
O80 S5 1.489749 1_555
O81 Si23 1.645236 1_555
O82 S3 1.496929 1_555
O83 S4 1.488759 1_555
O84 Si9 1.679474 1_555
O84 Ta1 2.006323 1_545
O85 Si10 1.655750 1_555
O85 Ta0 2.030903 1_545
O86 Si11 1.678221 1_555
O86 Ta0 2.048906 1_445
O87 Si12 1.683517 1_555
O87 Ta1 2.039668 1_545
O88 Si13 1.703113 1_555
O88 Ta1 1.935415 1_555
O89 Si14 1.663577 1_555
O89 Ta0 2.024567 1_555
O90 Si15 1.664377 1_555
O90 Ta3 1.993166 1_565
O91 Si16 1.685855 1_555
O91 Ta2 1.994582 1_565
O92 Si17 1.663945 1_555
O92 Ta3 1.990353 1_555
O93 Si18 1.706995 1_555
O93 Ta2 1.920584 1_555
O94 Si19 1.681019 1_555
O94 Ta2 2.026643 1_455
O95 Si20 1.719356 1_555
O95 Ta3 1.922867 1_555
O96 Si7 1.607239 1_555
O97 Si8 1.612273 1_555
O98 Si4 1.611075 1_555
O99 S2 1.439971 1_555
O100 Si6 1.599196 1_555
O101 Si5 1.620982 1_555
O102 S1 1.470371 1_555
O103 Si1 1.608393 1_555
O104 Si3 1.644182 1_555
O105 Si2 1.599468 1_555
O106 S0 1.469879 1_555
O107 Si0 1.606008 1_555
O108 S3 1.495566 1_555
O109 S4 1.479182 1_555
O110 Si22 1.663975 1_555
O111 Si21 1.654771 1_655
O112 S5 1.501611 1_545
O113 Si23 1.631777 1_545
O114 S6 1.472025 1_545
O115 S7 1.490055 1_545
O116 Si24 1.632844 1_555
O117 S8 1.485742 1_555
O118 Si26 1.651975 1_555
O119 Si25 1.644204 1_655
O120 Si19 1.644237 1_555
O121 Si20 1.633633 1_555
O122 Si16 1.651220 1_455
O123 Si15 1.624000 1_555
O124 Si17 1.631233 1_565
O125 Si18 1.633474 1_565
O126 Si11 1.643500 1_565
O127 Si12 1.647216 1_565
O128 Si13 1.627981 1_555
O129 Si14 1.650224 1_555
O130 Si10 1.629574 1_455
O131 Si9 1.649324 1_555
O132 S0 1.518882 1_565
O132 Ta4 2.161840 1_555
O133 Si0 1.634534 1_565
O134 S1 1.505422 1_555
O134 Ta4 2.179129 1_555
O135 Si1 1.663115 1_555
O136 Si2 1.696545 1_455
O136 Ta4 1.896273 1_555
O137 Si3 1.649011 1_555
O138 Si4 1.637669 1_555
O139 S2 1.502930 1_555
O139 Ta5 2.200666 1_555
O140 Si5 1.659559 1_455
O141 Si6 1.668275 1_555
O141 Ta5 1.899342 1_555
O142 Si7 1.656378 1_565
O143 Si8 1.661596 1_565
O143 Ta5 1.960468 1_555
