# generated using pymatgen
data_Cs4Mg(TiS3)2
_symmetry_space_group_name_H-M   'P 1'
_cell_length_a   6.80611385
_cell_length_b   8.07651104
_cell_length_c   8.06718814
_cell_angle_alpha   105.25967604
_cell_angle_beta   95.00920736
_cell_angle_gamma   94.88091118
_symmetry_Int_Tables_number   1
_chemical_formula_structural   Cs4Mg(TiS3)2
_chemical_formula_sum   'Cs4 Mg1 Ti2 S6'
_cell_volume   423.47893199
_cell_formula_units_Z   1
loop_
 _symmetry_equiv_pos_site_id
 _symmetry_equiv_pos_as_xyz
  1  'x, y, z'
loop_
 _atom_site_type_symbol
 _atom_site_label
 _atom_site_symmetry_multiplicity
 _atom_site_fract_x
 _atom_site_fract_y
 _atom_site_fract_z
 _atom_site_occupancy
  Cs  Cs0  1  0.18773861  0.03092107  0.39843861  1
  Cs  Cs1  1  0.73718795  0.98942302  0.66126109  1
  Cs  Cs2  1  0.82304635  0.59940042  0.96876900  1
  Cs  Cs3  1  0.27542150  0.33829776  0.01053794  1
  Mg  Mg0  1  0.50824149  0.92322518  0.07834171  1
  Ti  Ti0  1  0.75635599  0.42951278  0.42623558  1
  Ti  Ti1  1  0.25664692  0.57373660  0.57101966  1
  S  S0  1  0.50624789  0.37943069  0.61874775  1
  S  S1  1  0.00599933  0.62900255  0.37264084  1
  S  S2  1  0.72473660  0.19441317  0.17039149  1
  S  S3  1  0.28973562  0.82837149  0.80781605  1
  S  S4  1  0.00665754  0.37016348  0.62973792  1
  S  S5  1  0.50598421  0.62243480  0.37772936  1
loop_
_geom_bond_atom_site_label_1
_geom_bond_atom_site_label_2
_geom_bond_distance
_geom_bond_site_symmetry_2
Cs0 S4 3.285237 1_555
Cs0 S1 3.320641 1_545
Cs0 S0 3.381777 1_555
Cs1 S5 3.391499 1_555
Cs1 S4 3.523875 1_665
Cs1 S3 3.623317 1_555
Cs1 S0 3.718482 1_565
Cs1 S1 3.914663 1_655
Cs1 S2 4.015339 1_566
Cs2 S4 3.285574 1_655
Cs2 S1 3.324724 1_656
Cs2 S0 3.379765 1_555
Cs3 S5 3.391252 1_555
Cs3 S4 3.516305 1_554
Cs3 S2 3.615279 1_555
Cs3 S0 3.728163 1_554
Cs3 S1 3.932686 1_555
Cs3 S3 4.024448 1_544
Mg0 S3 2.433238 1_554
Mg0 S2 2.433803 1_565
S0 Ti0 2.479595 1_555
S0 Ti1 2.480819 1_555
S1 Ti0 2.387239 1_455
S1 Ti1 2.387348 1_555
S2 Ti0 2.387791 1_555
S3 Ti1 2.389021 1_555
S4 Ti0 2.427320 1_455
S4 Ti1 2.428429 1_555
S5 Ti1 2.477371 1_555
S5 Ti0 2.478115 1_555
