# generated using pymatgen
data_Na7Nb2In2Si5PO24
_symmetry_space_group_name_H-M   'P 1'
_cell_length_a   9.19193819
_cell_length_b   9.20950133
_cell_length_c   22.41889658
_cell_angle_alpha   89.92495572
_cell_angle_beta   90.08337201
_cell_angle_gamma   119.98818233
_symmetry_Int_Tables_number   1
_chemical_formula_structural   Na7Nb2In2Si5PO24
_chemical_formula_sum   'Na21 Nb6 In6 Si15 P3 O72'
_cell_volume   1643.76308074
_cell_formula_units_Z   3
loop_
 _symmetry_equiv_pos_site_id
 _symmetry_equiv_pos_as_xyz
  1  'x, y, z'
loop_
 _atom_site_type_symbol
 _atom_site_label
 _atom_site_symmetry_multiplicity
 _atom_site_fract_x
 _atom_site_fract_y
 _atom_site_fract_z
 _atom_site_occupancy
  Na  Na0  1  0.65287760  0.01749559  0.24898520  1
  Na  Na1  1  0.37315042  0.35834518  0.24458260  1
  Na  Na2  1  0.98322850  0.62548760  0.24399646  1
  Na  Na3  1  0.63853912  0.62370650  0.74609712  1
  Na  Na4  1  0.98313776  0.35107873  0.74604689  1
  Na  Na5  1  0.37228458  0.01861695  0.74433133  1
  Na  Na6  1  0.31315529  0.34660216  0.57977691  1
  Na  Na7  1  0.03956457  0.69369407  0.57673483  1
  Na  Na8  1  0.65137414  0.95764968  0.57808863  1
  Na  Na9  1  0.30094799  0.96258173  0.07287298  1
  Na  Na10  1  0.03707342  0.34855626  0.07954687  1
  Na  Na11  1  0.98067665  0.67979334  0.91192249  1
  Na  Na12  1  0.31547985  0.28681588  0.91193190  1
  Na  Na13  1  0.32077802  0.02387462  0.41197549  1
  Na  Na14  1  0.71061516  0.68086090  0.41140038  1
  Na  Na15  1  0.99320765  0.01127163  0.49294019  1
  Na  Na16  1  0.97292823  0.99527624  0.99405759  1
  Na  Na17  1  0.66732629  0.31710567  0.82842458  1
  Na  Na18  1  0.68083599  0.33291309  0.32868670  1
  Na  Na19  1  0.34700503  0.66153028  0.15932666  1
  Na  Na20  1  0.33563974  0.66635597  0.66003545  1
  Nb  Nb0  1  0.99874516  0.99897001  0.64619354  1
  Nb  Nb1  1  0.00061857  0.99722299  0.14626330  1
  Nb  Nb2  1  0.66556633  0.33560186  0.97971970  1
  Nb  Nb3  1  0.67302125  0.33290772  0.47980145  1
  Nb  Nb4  1  0.32795231  0.66853948  0.31290477  1
  Nb  Nb5  1  0.32989888  0.66979930  0.81289702  1
  In  In0  1  0.99789245  0.00261037  0.35077459  1
  In  In1  1  0.99817770  0.00236260  0.85160149  1
  In  In2  1  0.66901908  0.33465662  0.68341633  1
  In  In3  1  0.66590459  0.33639264  0.18295720  1
  In  In4  1  0.33380474  0.66325647  0.01809872  1
  In  In5  1  0.33357771  0.66764956  0.51654938  1
  Si  Si0  1  0.29493452  -0.00155288  0.25213580  1
  Si  Si1  1  0.70385066  0.70647179  0.25307665  1
  Si  Si2  1  0.00175969  0.29419250  0.24871429  1
  Si  Si3  1  0.29393575  0.29631468  0.75243357  1
  Si  Si4  1  0.00169380  0.70677307  0.75277502  1
  Si  Si5  1  0.70460714  0.99726880  0.75002400  1
  Si  Si6  1  0.96274674  0.32967826  0.58552015  1
  Si  Si7  1  0.36951185  0.04013276  0.58414687  1
  Si  Si8  1  0.67046221  0.63007206  0.58448168  1
  Si  Si9  1  0.96078112  0.63286186  0.08445449  1
  Si  Si10  1  0.36761222  0.33207449  0.08601095  1
  Si  Si11  1  0.03195363  0.36871729  0.91944639  1
  Si  Si12  1  0.33755998  0.96417648  0.91955532  1
  Si  Si13  1  0.63029928  0.96693912  0.41857067  1
  Si  Si14  1  0.03391879  0.66344061  0.41889873  1
  P  P0  1  0.67263135  0.04242445  0.08437623  1
  P  P1  1  0.62277546  0.66118678  0.91722425  1
  P  P2  1  0.33960579  0.37423256  0.41792762  1
  O  O0  1  0.21993583  0.03172380  0.31177643  1
  O  O1  1  0.81004186  0.77517088  0.31369761  1
  O  O2  1  0.95609626  0.16895708  0.30365688  1
  O  O3  1  0.22212640  0.18747703  0.81229499  1
  O  O4  1  0.97563243  0.78409019  0.81313320  1
  O  O5  1  0.82883915  0.04120696  0.80518972  1
  O  O6  1  0.79789055  0.97148210  0.68905912  1
  O  O7  1  0.16643840  0.19264426  0.69408656  1
  O  O8  1  0.02261950  0.83062441  0.69432716  1
  O  O9  1  0.81160850  0.83885020  0.19651596  1
  O  O10  1  0.02910276  0.20325859  0.18768038  1
  O  O11  1  0.16958812  0.97798295  0.19369343  1
  O  O12  1  0.89163687  0.36436689  0.64595131  1
  O  O13  1  0.47707222  0.11877766  0.64388388  1
  O  O14  1  0.64254418  0.52612041  0.64505299  1
  O  O15  1  0.88364649  0.52274665  0.14378616  1
  O  O16  1  0.65135237  0.11494042  0.14303116  1
  O  O17  1  0.45665124  0.33648285  0.14818309  1
  O  O18  1  0.47677823  0.31553472  0.02809106  1
  O  O19  1  0.84127813  0.52883298  0.02485434  1
  O  O20  1  0.68788165  0.16466110  0.03144299  1
  O  O21  1  0.47025510  0.16292629  0.52530127  1
  O  O22  1  0.68756292  0.52465982  0.52625520  1
  O  O23  1  0.83311111  0.31123339  0.52846198  1
  O  O24  1  0.54289455  0.67881761  0.97320076  1
  O  O25  1  0.13443225  0.45064723  0.97994220  1
  O  O26  1  0.31606430  0.85895996  0.97910133  1
  O  O27  1  0.54847231  0.86451352  0.47933031  1
  O  O28  1  0.32710058  0.45136898  0.47707671  1
  O  O29  1  0.13541776  0.68190572  0.47942662  1
  O  O30  1  0.13802637  0.64588145  0.35974968  1
  O  O31  1  0.49943195  0.85511783  0.36139514  1
  O  O32  1  0.35085463  0.48719942  0.36328293  1
  O  O33  1  0.14447451  0.49926596  0.86191879  1
  O  O34  1  0.35653457  0.86041357  0.86018842  1
  O  O35  1  0.51552382  0.64256671  0.85986380  1
  O  O36  1  0.01455061  0.82949618  0.41573997  1
  O  O37  1  0.81452913  0.98905914  0.41356730  1
  O  O38  1  0.19354358  0.19383192  0.41433836  1
  O  O39  1  0.01046914  0.18464577  0.91446160  1
  O  O40  1  0.17208104  0.98537785  0.91587280  1
  O  O41  1  0.80629493  0.80399157  0.91351407  1
  O  O42  1  0.95941585  0.14824818  0.58664940  1
  O  O43  1  0.18755064  0.03871360  0.58789171  1
  O  O44  1  0.85144548  0.81096455  0.58659961  1
  O  O45  1  0.96728139  0.81666187  0.08847028  1
  O  O46  1  0.84201577  0.04153021  0.08415815  1
  O  O47  1  0.18246308  0.15053493  0.08500282  1
  O  O48  1  0.66651015  0.15064374  0.74547717  1
  O  O49  1  0.48357345  0.32983990  0.74595601  1
  O  O50  1  0.84752854  0.51629342  0.74824832  1
  O  O51  1  0.67025502  0.51730629  0.24577439  1
  O  O52  1  0.84827824  0.33313635  0.24461195  1
  O  O53  1  0.48801946  0.14731145  0.24618924  1
  O  O54  1  0.62406585  0.48835800  0.91978087  1
  O  O55  1  0.85061787  0.36970097  0.92055847  1
  O  O56  1  0.50822509  0.15397994  0.92252170  1
  O  O57  1  0.62811248  0.14704332  0.42008329  1
  O  O58  1  0.51113710  0.37406510  0.41730361  1
  O  O59  1  0.84535958  0.49140540  0.42062812  1
  O  O60  1  0.33603126  0.48937527  0.08203345  1
  O  O61  1  0.15293230  0.66772643  0.08149498  1
  O  O62  1  0.52069550  0.86638017  0.07788279  1
  O  O63  1  0.33475615  0.84933152  0.58047589  1
  O  O64  1  0.51243300  0.66211118  0.57973508  1
  O  O65  1  0.15355504  0.48248520  0.57815106  1
  O  O66  1  0.29123242  0.81423264  0.25491851  1
  O  O67  1  0.52096750  0.70369501  0.25598073  1
  O  O68  1  0.18356908  0.47485165  0.25641839  1
  O  O69  1  0.29496113  0.47802622  0.75542051  1
  O  O70  1  0.18452340  0.70593187  0.75465065  1
  O  O71  1  0.52412414  0.81535018  0.75617674  1
loop_
_geom_bond_atom_site_label_1
_geom_bond_atom_site_label_2
_geom_bond_distance
_geom_bond_site_symmetry_2
Na0 O53 2.353749 1_555
Na0 O67 2.518551 1_545
Na0 O16 2.540639 1_555
Na0 O52 2.542870 1_555
Na0 O2 2.706371 1_555
Na0 O66 2.890054 1_545
Na0 O31 2.910088 1_545
Na0 O9 2.937512 1_545
Na1 O17 2.336826 1_555
Na1 O51 2.367565 1_555
Na1 O68 2.475800 1_555
Na1 O53 2.635238 1_555
Na1 O67 2.776373 1_555
Na2 O52 2.334378 1_555
Na2 O15 2.431908 1_555
Na2 O66 2.485256 1_655
Na2 O51 2.530897 1_555
Na2 O68 2.818614 1_655
Na3 O49 2.345161 1_555
Na3 O14 2.445256 1_555
Na3 O71 2.475764 1_555
Na3 O50 2.563285 1_555
Na3 O69 2.753758 1_555
Na3 O35 2.831929 1_555
Na4 O50 2.401593 1_555
Na4 O12 2.419656 1_555
Na4 O69 2.505103 1_655
Na4 O48 2.550999 1_555
Na4 O5 2.804125 1_555
Na4 O70 2.845538 1_655
Na4 O33 2.963921 1_655
Na4 O7 2.965218 1_655
Na5 O48 2.346499 1_555
Na5 O13 2.441820 1_555
Na5 O49 2.516370 1_555
Na5 O70 2.521097 1_545
Na5 O71 2.851709 1_545
Na6 O65 2.356799 1_555
Na6 O28 2.473850 1_555
Na6 O43 2.476458 1_555
Na6 O64 2.545134 1_555
Na6 O42 2.827792 1_455
Na7 O63 2.352825 1_555
Na7 O29 2.376772 1_555
Na7 O44 2.464542 1_455
Na7 O65 2.630496 1_555
Na7 O43 2.773007 1_565
Na8 O64 2.359128 1_555
Na8 O27 2.391709 1_555
Na8 O42 2.483196 1_565
Na8 O63 2.562450 1_555
Na8 O44 2.779422 1_555
Na8 O6 2.799807 1_555
Na9 O26 2.342679 1_554
Na9 O61 2.359749 1_555
Na9 O47 2.478492 1_565
Na9 O62 2.581779 1_555
Na9 O45 2.686387 1_455
Na9 O18 2.988392 1_565
Na9 O11 2.999438 1_555
Na10 O60 2.381955 1_555
Na10 O25 2.414639 1_554
Na10 O46 2.480395 1_455
Na10 O61 2.578193 1_555
Na10 O47 2.749912 1_555
Na10 O10 2.750792 1_555
Na10 O20 2.982350 1_455
Na10 O15 2.984971 1_455
Na11 O41 2.389957 1_555
Na11 O4 2.422500 1_555
Na11 O40 2.464552 1_655
Na11 O55 2.491710 1_555
Na11 O54 2.847463 1_555
Na12 O3 2.403738 1_555
Na12 O40 2.407015 1_545
Na12 O39 2.472285 1_555
Na12 O54 2.501654 1_555
Na12 O56 2.618500 1_555
Na12 O18 2.940817 1_556
Na13 O38 2.377151 1_555
Na13 O0 2.443569 1_555
Na13 O57 2.469024 1_555
Na13 O36 2.469436 1_545
Na13 O58 2.799352 1_555
Na14 O1 2.365327 1_555
Na14 O36 2.421772 1_655
Na14 O58 2.486673 1_555
Na14 O37 2.502207 1_555
Na14 O59 2.603785 1_555
Na14 O22 2.903732 1_555
Na15 O37 2.358468 1_545
Na15 O36 2.484618 1_645
Na15 O38 2.495943 1_655
Na15 O42 2.549894 1_555
Na15 O44 2.665481 1_545
Na15 O43 2.706564 1_655
Na16 O39 2.395189 1_665
Na16 O41 2.452129 1_555
Na16 O46 2.496285 1_566
Na16 O40 2.570671 1_655
Na16 O45 2.663553 1_556
Na16 O47 2.674773 1_666
Na17 O48 2.409200 1_555
Na17 O50 2.510423 1_555
Na17 O49 2.544257 1_555
Na17 O55 2.552714 1_555
Na17 O56 2.578820 1_555
Na17 O54 2.734597 1_555
Na18 O52 2.434516 1_555
Na18 O53 2.540462 1_555
Na18 O59 2.541341 1_555
Na18 O51 2.550430 1_555
Na18 O57 2.554972 1_555
Na18 O58 2.669401 1_555
Na19 O60 2.318055 1_555
Na19 O61 2.514496 1_555
Na19 O62 2.535841 1_555
Na19 O67 2.602791 1_555
Na19 O68 2.714487 1_555
Na19 O66 2.750463 1_555
Na20 O64 2.440385 1_555
Na20 O63 2.454955 1_555
Na20 O65 2.490943 1_555
Na20 O69 2.658049 1_555
Na20 O70 2.660518 1_555
Na20 O71 2.674059 1_555
Nb0 O6 1.983314 1_555
Nb0 O8 1.987797 1_655
Nb0 O7 1.990491 1_665
Nb0 O43 2.055397 1_665
Nb0 O44 2.067221 1_555
Nb0 O42 2.072030 1_565
Nb1 O11 1.960657 1_555
Nb1 O9 1.970611 1_455
Nb1 O45 2.008207 1_455
Nb1 O10 2.009586 1_565
Nb1 O47 2.077516 1_565
Nb1 O46 2.194933 1_465
Nb2 O18 1.976329 1_556
Nb2 O19 1.981447 1_556
Nb2 O56 2.028735 1_555
Nb2 O20 2.045087 1_556
Nb2 O55 2.054898 1_555
Nb2 O54 2.111953 1_555
Nb3 O23 1.919308 1_555
Nb3 O22 1.997365 1_555
Nb3 O21 2.012369 1_555
Nb3 O59 2.022262 1_555
Nb3 O57 2.047159 1_555
Nb3 O58 2.208491 1_555
Nb4 O30 1.958280 1_555
Nb4 O31 1.977693 1_555
Nb4 O66 2.012732 1_555
Nb4 O68 2.044843 1_555
Nb4 O67 2.076648 1_555
Nb4 O32 2.110640 1_555
Nb5 O34 1.959627 1_555
Nb5 O33 1.975972 1_555
Nb5 O70 2.009934 1_555
Nb5 O71 2.052070 1_555
Nb5 O69 2.078587 1_555
Nb5 O35 2.122438 1_555
In0 O2 2.047753 1_555
In0 O1 2.108253 1_545
In0 O0 2.111762 1_655
In0 O37 2.152738 1_545
In0 O36 2.218959 1_645
In0 O38 2.280232 1_655
In1 O5 2.045584 1_555
In1 O3 2.100864 1_655
In1 O4 2.101219 1_545
In1 O39 2.152453 1_655
In1 O40 2.213261 1_645
In1 O41 2.270337 1_545
In2 O14 2.081461 1_555
In2 O13 2.084388 1_555
In2 O12 2.100557 1_555
In2 O48 2.182451 1_555
In2 O49 2.191951 1_555
In2 O50 2.204261 1_555
In3 O15 2.071212 1_555
In3 O17 2.074763 1_555
In3 O51 2.168003 1_555
In3 O16 2.170307 1_555
In3 O52 2.182905 1_555
In3 O53 2.206680 1_555
In4 O26 2.080531 1_554
In4 O25 2.082524 1_554
In4 O24 2.111274 1_554
In4 O60 2.155438 1_555
In4 O61 2.204835 1_555
In4 O62 2.243734 1_555
In5 O29 2.064463 1_555
In5 O27 2.075076 1_555
In5 O28 2.154062 1_555
In5 O65 2.175575 1_555
In5 O64 2.188357 1_555
In5 O63 2.200406 1_555
O0 Si0 1.603712 1_555
O1 Si1 1.606594 1_555
O2 Si2 1.592945 1_655
O3 Si3 1.605955 1_555
O4 Si4 1.602947 1_655
O5 Si5 1.591414 1_545
O6 Si5 1.693368 1_555
O7 Si3 1.695985 1_555
O8 Si4 1.682995 1_555
O9 Si1 1.693449 1_555
O10 Si2 1.688547 1_555
O11 Si0 1.690821 1_565
O12 Si6 1.605376 1_555
O13 Si7 1.605771 1_555
O14 Si8 1.605736 1_555
O15 Si9 1.606508 1_555
O16 P0 1.532012 1_555
O17 Si10 1.605575 1_555
O18 Si10 1.695085 1_555
O19 Si9 1.690240 1_555
O20 P0 1.591993 1_555
O21 Si7 1.682148 1_555
O22 Si8 1.681550 1_555
O23 Si6 1.696722 1_555
O24 P1 1.504244 1_555
O25 Si11 1.607643 1_555
O26 Si12 1.601899 1_555
O27 Si13 1.612882 1_555
O28 P2 1.536500 1_555
O29 Si14 1.605939 1_555
O30 Si14 1.690940 1_555
O31 Si13 1.706228 1_555
O32 P2 1.575868 1_555
O33 Si11 1.713283 1_555
O34 Si12 1.698711 1_555
O35 P1 1.575718 1_555
O36 Si14 1.627046 1_555
O37 Si13 1.605436 1_555
O38 P2 1.529553 1_555
O39 Si11 1.609655 1_555
O40 Si12 1.629442 1_555
O41 P1 1.537715 1_555
O42 Si6 1.655950 1_555
O43 Si7 1.668318 1_555
O44 Si8 1.665727 1_555
O45 Si9 1.666197 1_555
O46 P0 1.561118 1_555
O47 Si10 1.687533 1_555
O48 Si5 1.619314 1_545
O49 Si3 1.617888 1_555
O50 Si4 1.615788 1_655
O51 Si1 1.618628 1_555
O52 Si2 1.622580 1_655
O53 Si0 1.617151 1_555
O54 P1 1.598581 1_555
O55 Si11 1.671596 1_655
O56 Si12 1.667240 1_545
O57 Si13 1.669197 1_545
O58 P2 1.577559 1_555
O59 Si14 1.664551 1_655
O60 Si10 1.615800 1_555
O61 Si9 1.631098 1_455
O62 P0 1.528650 1_565
O63 Si7 1.623473 1_565
O64 Si8 1.623682 1_555
O65 Si6 1.617645 1_455
O66 Si0 1.680851 1_565
O67 Si1 1.669780 1_555
O68 Si2 1.676684 1_555
O69 Si3 1.670212 1_555
O70 Si4 1.684907 1_555
O71 Si5 1.673256 1_555
