# generated using pymatgen
data_Sm2Si2O7
_symmetry_space_group_name_H-M   'P 1'
_cell_length_a   6.67235256
_cell_length_b   6.67235256
_cell_length_c   24.31582009
_cell_angle_alpha   90.00000000
_cell_angle_beta   90.00000000
_cell_angle_gamma   90.00000000
_symmetry_Int_Tables_number   1
_chemical_formula_structural   Sm2Si2O7
_chemical_formula_sum   'Sm16 Si16 O56'
_cell_volume   1082.54733002
_cell_formula_units_Z   8
loop_
 _symmetry_equiv_pos_site_id
 _symmetry_equiv_pos_as_xyz
  1  'x, y, z'
loop_
 _atom_site_type_symbol
 _atom_site_label
 _atom_site_symmetry_multiplicity
 _atom_site_fract_x
 _atom_site_fract_y
 _atom_site_fract_z
 _atom_site_occupancy
  Sm  Sm0  1  0.86231051  0.25141000  0.63843249  1
  Sm  Sm1  1  0.74859000  0.86231051  0.88843249  1
  Sm  Sm2  1  0.25141000  0.13768949  0.38843249  1
  Sm  Sm3  1  0.13768949  0.74859000  0.13843249  1
  Sm  Sm4  1  0.65425025  0.08575846  0.50166670  1
  Sm  Sm5  1  0.91424154  0.65425025  0.75166670  1
  Sm  Sm6  1  0.08575846  0.34574975  0.25166670  1
  Sm  Sm7  1  0.34574975  0.91424154  0.00166670  1
  Sm  Sm8  1  0.47895772  0.83885209  0.64698376  1
  Sm  Sm9  1  0.16114791  0.47895772  0.89698376  1
  Sm  Sm10  1  0.83885209  0.52104228  0.39698376  1
  Sm  Sm11  1  0.52104228  0.16114791  0.14698376  1
  Sm  Sm12  1  0.21789752  0.71935284  0.50104595  1
  Sm  Sm13  1  0.28064716  0.21789752  0.75104595  1
  Sm  Sm14  1  0.71935284  0.78210248  0.25104595  1
  Sm  Sm15  1  0.78210248  0.28064716  0.00104595  1
  Si  Si0  1  0.98314582  0.72379758  0.62018243  1
  Si  Si1  1  0.27620242  0.98314582  0.87018243  1
  Si  Si2  1  0.72379758  0.01685418  0.37018243  1
  Si  Si3  1  0.01685418  0.27620242  0.12018243  1
  Si  Si4  1  0.72986822  0.62921765  0.51840688  1
  Si  Si5  1  0.37078235  0.72986822  0.76840688  1
  Si  Si6  1  0.62921765  0.27013178  0.26840688  1
  Si  Si7  1  0.27013178  0.37078235  0.01840688  1
  Si  Si8  1  0.39336774  0.31609392  0.61333761  1
  Si  Si9  1  0.68390608  0.39336774  0.86333761  1
  Si  Si10  1  0.31609392  0.60663226  0.36333761  1
  Si  Si11  1  0.60663226  0.68390608  0.11333761  1
  Si  Si12  1  0.14101940  0.25122821  0.51396180  1
  Si  Si13  1  0.74877179  0.14101940  0.76396180  1
  Si  Si14  1  0.25122821  0.85898060  0.26396180  1
  Si  Si15  1  0.85898060  0.74877179  0.01396180  1
  O  O0  1  0.18806942  0.80717589  0.59474022  1
  O  O1  1  0.19282411  0.18806942  0.84474022  1
  O  O2  1  0.80717589  0.81193058  0.34474022  1
  O  O3  1  0.81193058  0.19282411  0.09474022  1
  O  O4  1  0.83370250  0.89289636  0.64351896  1
  O  O5  1  0.10710364  0.83370250  0.89351896  1
  O  O6  1  0.89289636  0.16629750  0.39351896  1
  O  O7  1  0.16629750  0.10710364  0.14351896  1
  O  O8  1  0.00801771  0.55440945  0.66659807  1
  O  O9  1  0.44559055  0.00801771  0.91659807  1
  O  O10  1  0.55440945  0.99198229  0.41659807  1
  O  O11  1  0.99198229  0.44559055  0.16659807  1
  O  O12  1  0.88104635  0.58472548  0.57038007  1
  O  O13  1  0.41527452  0.88104635  0.82038007  1
  O  O14  1  0.58472548  0.11895365  0.32038007  1
  O  O15  1  0.11895365  0.41527452  0.07038007  1
  O  O16  1  0.86392806  0.77070679  0.47724015  1
  O  O17  1  0.22929321  0.86392806  0.72724015  1
  O  O18  1  0.77070679  0.13607194  0.22724015  1
  O  O19  1  0.13607194  0.22929321  0.97724015  1
  O  O20  1  0.54353659  0.76754162  0.53795406  1
  O  O21  1  0.55173084  0.14160224  0.59361931  1
  O  O22  1  0.23245838  0.54353659  0.78795406  1
  O  O23  1  0.45646341  0.23245838  0.03795406  1
  O  O24  1  0.67012354  0.42770520  0.48708469  1
  O  O25  1  0.57229480  0.67012354  0.73708469  1
  O  O26  1  0.42770520  0.32987646  0.23708469  1
  O  O27  1  0.32987646  0.57229480  0.98708469  1
  O  O28  1  0.23183582  0.21187473  0.65400631  1
  O  O29  1  0.78812527  0.23183582  0.90400631  1
  O  O30  1  0.21187473  0.76816418  0.40400631  1
  O  O31  1  0.76816418  0.78812527  0.15400631  1
  O  O32  1  0.89373401  0.59348587  0.96331764  1
  O  O33  1  0.40651413  0.89373401  0.21331764  1
  O  O34  1  0.59348587  0.10626599  0.71331764  1
  O  O35  1  0.10626599  0.40651413  0.46331764  1
  O  O36  1  0.72452984  0.92953516  0.98888460  1
  O  O37  1  0.07046484  0.72452984  0.23888460  1
  O  O38  1  0.92953516  0.27547016  0.73888460  1
  O  O39  1  0.27547016  0.07046484  0.48888460  1
  O  O40  1  0.05105778  0.83382153  0.04627645  1
  O  O41  1  0.16617847  0.05105778  0.29627645  1
  O  O42  1  0.83382153  0.94894222  0.79627645  1
  O  O43  1  0.94894222  0.16617847  0.54627645  1
  O  O44  1  0.72553169  0.60932424  0.05675633  1
  O  O45  1  0.39067576  0.72553169  0.30675633  1
  O  O46  1  0.60932424  0.27446831  0.80675633  1
  O  O47  1  0.27446831  0.39067576  0.55675633  1
  O  O48  1  0.46918850  0.50712358  0.13678451  1
  O  O49  1  0.49287642  0.46918850  0.38678451  1
  O  O50  1  0.50712358  0.53081150  0.88678451  1
  O  O51  1  0.53081150  0.49287642  0.63678451  1
  O  O52  1  0.44826916  0.85839776  0.09361931  1
  O  O53  1  0.14160224  0.44826916  0.34361931  1
  O  O54  1  0.85839776  0.55173084  0.84361931  1
  O  O55  1  0.76754162  0.45646341  0.28795406  1
loop_
_geom_bond_atom_site_label_1
_geom_bond_atom_site_label_2
_geom_bond_distance
_geom_bond_site_symmetry_2
O0 Si0 1.600562 1_455
O0 Sm8 2.329286 1_555
O0 Sm12 2.360811 1_555
O1 Si1 1.600562 1_545
O1 Sm9 2.329286 1_555
O1 Sm13 2.360811 1_555
O2 Si2 1.600562 1_565
O2 Sm10 2.329286 1_555
O2 Sm14 2.360811 1_555
O3 Si3 1.600562 1_655
O3 Sm11 2.329286 1_555
O3 Sm15 2.360811 1_555
O4 Si0 1.609134 1_555
O4 Sm8 2.395775 1_555
O4 Sm0 2.402918 1_565
O5 Si1 1.609134 1_555
O5 Sm9 2.395775 1_555
O5 Sm1 2.402918 1_455
O6 Si2 1.609134 1_555
O6 Sm10 2.395775 1_555
O6 Sm2 2.402918 1_655
O7 Si3 1.609134 1_555
O7 Sm11 2.395775 1_555
O7 Sm3 2.402918 1_545
O8 Si0 1.605848 1_455
O8 Sm5 2.261425 1_455
O8 Sm0 2.345546 1_455
O9 Si1 1.605848 1_545
O9 Sm7 2.261425 1_546
O9 Sm1 2.345546 1_545
O10 Si2 1.605848 1_565
O10 Sm4 2.261425 1_565
O10 Sm2 2.345546 1_565
O11 Si3 1.605848 1_655
O11 Sm6 2.261425 1_655
O11 Sm3 2.345546 1_655
O12 Si4 1.644004 1_555
O12 Si0 1.670822 1_555
O12 Sm0 2.774887 1_555
O13 Si5 1.644004 1_555
O13 Si1 1.670822 1_555
O13 Sm1 2.774887 1_555
O14 Si6 1.644004 1_555
O14 Si2 1.670822 1_555
O14 Sm2 2.774887 1_555
O15 Si7 1.644004 1_555
O15 Si3 1.670822 1_555
O15 Sm3 2.774887 1_555
O16 Si4 1.641154 1_555
O16 Sm12 2.455734 1_655
O16 Sm10 2.571265 1_555
O16 Sm4 2.594047 1_565
O17 Si5 1.641154 1_555
O17 Sm13 2.455734 1_565
O17 Sm8 2.571265 1_555
O17 Sm5 2.594047 1_455
O18 Si6 1.641154 1_555
O18 Sm14 2.455734 1_545
O18 Sm11 2.571265 1_555
O18 Sm6 2.594047 1_655
O19 Si7 1.641154 1_556
O19 Sm15 2.455734 1_456
O19 Sm9 2.571265 1_555
O19 Sm7 2.594047 1_546
O20 Si4 1.619712 1_555
O20 Sm12 2.372713 1_555
O20 Sm4 2.415051 1_565
O20 Sm8 2.727754 1_555
O21 Si8 1.643755 1_555
O21 Sm4 2.367703 1_555
O21 Sm8 2.449524 1_545
O21 Sm0 2.453285 1_555
O22 Si5 1.619712 1_555
O22 Sm13 2.372713 1_555
O22 Sm5 2.415051 1_455
O22 Sm9 2.727754 1_555
O23 Si7 1.619712 1_555
O23 Sm15 2.372713 1_555
O23 Sm7 2.415051 1_545
O23 Sm11 2.727754 1_555
O24 Si4 1.595880 1_555
O24 Sm4 2.311404 1_555
O24 Sm10 2.540721 1_555
O25 Si5 1.595880 1_555
O25 Sm5 2.311404 1_555
O25 Sm8 2.540721 1_555
O26 Si6 1.595880 1_555
O26 Sm6 2.311404 1_555
O26 Sm11 2.540721 1_555
O27 Si7 1.595880 1_556
O27 Sm7 2.311404 1_556
O27 Sm9 2.540721 1_555
O28 Si8 1.619605 1_555
O28 Sm13 2.382308 1_555
O28 Sm0 2.508424 1_455
O28 Sm8 2.990450 1_545
O29 Si9 1.619605 1_555
O29 Sm15 2.382308 1_556
O29 Sm1 2.508424 1_545
O29 Sm9 2.990450 1_655
O30 Si10 1.619605 1_555
O30 Sm12 2.382308 1_555
O30 Sm2 2.508424 1_565
O30 Sm10 2.990450 1_455
O31 Si11 1.619605 1_555
O31 Sm14 2.382308 1_555
O31 Sm3 2.508424 1_655
O31 Sm11 2.990450 1_565
O32 Si15 1.625977 1_556
O32 Sm15 2.398650 1_556
O32 Sm9 2.523740 1_655
O32 Sm1 2.733292 1_555
O33 Si14 1.625977 1_555
O33 Sm14 2.398650 1_555
O33 Sm11 2.523740 1_565
O33 Sm3 2.733292 1_555
O34 Si13 1.625977 1_555
O34 Sm13 2.398650 1_555
O34 Sm8 2.523740 1_545
O34 Sm0 2.733292 1_555
O35 Si12 1.625977 1_555
O35 Sm12 2.398650 1_555
O35 Sm10 2.523740 1_455
O35 Sm2 2.733292 1_555
O36 Si15 1.622139 1_556
O36 Sm15 2.392375 1_566
O36 Sm1 2.488602 1_555
O36 Sm7 2.548438 1_556
O37 Si14 1.622139 1_555
O37 Sm14 2.392375 1_455
O37 Sm3 2.488602 1_555
O37 Sm6 2.548438 1_555
O38 Si13 1.622139 1_555
O38 Sm13 2.392375 1_655
O38 Sm0 2.488602 1_555
O38 Sm5 2.548438 1_555
O39 Si12 1.622139 1_555
O39 Sm12 2.392375 1_545
O39 Sm2 2.488602 1_555
O39 Sm4 2.548438 1_555
O40 Si15 1.606850 1_455
O40 Sm7 2.308862 1_555
O40 Sm3 2.383054 1_555
O41 Si14 1.606850 1_545
O41 Sm6 2.308862 1_555
O41 Sm2 2.383054 1_555
O42 Si13 1.606850 1_565
O42 Sm5 2.308862 1_555
O42 Sm1 2.383054 1_555
O43 Si12 1.606850 1_655
O43 Sm4 2.308862 1_555
O43 Sm0 2.383054 1_555
O44 Si15 1.655713 1_555
O44 Si11 1.664305 1_555
O44 Sm15 2.605187 1_555
O45 Si14 1.655713 1_555
O45 Si10 1.664305 1_555
O45 Sm14 2.605187 1_555
O46 Si13 1.655713 1_555
O46 Si9 1.664305 1_555
O46 Sm13 2.605187 1_555
O47 Si12 1.655713 1_555
O47 Si8 1.664305 1_555
O47 Sm12 2.605187 1_555
O48 Si11 1.599194 1_555
O48 Sm11 2.347393 1_555
O48 Sm3 2.736752 1_555
O49 Si10 1.599194 1_555
O49 Sm10 2.347393 1_555
O49 Sm2 2.736752 1_555
O50 Si9 1.599194 1_555
O50 Sm9 2.347393 1_555
O50 Sm1 2.736752 1_555
O51 Si8 1.599194 1_555
O51 Sm8 2.347393 1_555
O51 Sm0 2.736752 1_555
O52 Si11 1.643755 1_555
O52 Sm7 2.367703 1_555
O52 Sm11 2.449524 1_565
O52 Sm3 2.453285 1_555
O53 Si10 1.643755 1_555
O53 Sm6 2.367703 1_555
O53 Sm10 2.449524 1_455
O53 Sm2 2.453285 1_555
O54 Si9 1.643755 1_555
O54 Sm5 2.367703 1_555
O54 Sm9 2.449524 1_655
O54 Sm1 2.453285 1_555
O55 Si6 1.619712 1_555
O55 Sm14 2.372713 1_555
O55 Sm6 2.415051 1_655
O55 Sm10 2.727754 1_555
