# generated using pymatgen
data_MgCr2(FeO4)2
_symmetry_space_group_name_H-M   'P 1'
_cell_length_a   5.23347366
_cell_length_b   5.23060815
_cell_length_c   6.12627499
_cell_angle_alpha   95.06625346
_cell_angle_beta   95.09303474
_cell_angle_gamma   64.90030475
_symmetry_Int_Tables_number   1
_chemical_formula_structural   MgCr2(FeO4)2
_chemical_formula_sum   'Mg1 Cr2 Fe2 O8'
_cell_volume   151.02797535
_cell_formula_units_Z   1
loop_
 _symmetry_equiv_pos_site_id
 _symmetry_equiv_pos_as_xyz
  1  'x, y, z'
loop_
 _atom_site_type_symbol
 _atom_site_label
 _atom_site_symmetry_multiplicity
 _atom_site_fract_x
 _atom_site_fract_y
 _atom_site_fract_z
 _atom_site_occupancy
  Mg  Mg0  1  0.50000000  0.50000000  -0.00000000  1
  Cr  Cr0  1  0.33256635  0.33192398  0.31745796  1
  Cr  Cr1  1  0.66743365  0.66807602  0.68254204  1
  Fe  Fe0  1  0.00000000  -0.00000000  -0.00000000  1
  Fe  Fe1  1  0.00000000  -0.00000000  0.50000000  1
  O  O0  1  0.23615617  0.71836979  0.24944852  1
  O  O1  1  0.28126828  0.76397506  0.75079940  1
  O  O2  1  0.22312717  0.22286681  0.06352115  1
  O  O3  1  0.22515671  0.22494249  0.53361123  1
  O  O4  1  0.77484329  0.77505751  0.46638877  1
  O  O5  1  0.77687283  0.77713319  0.93647885  1
  O  O6  1  0.71873172  0.23602494  0.24920060  1
  O  O7  1  0.76384383  0.28163021  0.75055148  1
loop_
_geom_bond_atom_site_label_1
_geom_bond_atom_site_label_2
_geom_bond_distance
_geom_bond_site_symmetry_2
Mg0 O6 2.066074 1_555
Mg0 O1 2.066074 1_554
Mg0 O0 2.067600 1_555
Mg0 O7 2.067600 1_554
Mg0 O5 2.516756 1_554
Mg0 O2 2.516756 1_555
Cr0 O3 1.706620 1_555
Cr0 O2 1.742369 1_555
Cr0 O0 1.939116 1_555
Cr0 O6 1.940053 1_555
Cr1 O4 1.706620 1_555
Cr1 O5 1.742369 1_555
Cr1 O7 1.939116 1_555
Cr1 O1 1.940053 1_555
Fe0 O5 1.966731 1_444
Fe0 O2 1.966731 1_555
Fe0 O6 2.132141 1_455
Fe0 O1 2.132141 1_544
Fe0 O0 2.133197 1_545
Fe0 O7 2.133197 1_454
Fe1 O3 1.976267 1_555
Fe1 O4 1.976267 1_445
Fe1 O1 2.107929 1_545
Fe1 O6 2.107929 1_455
Fe1 O7 2.108658 1_455
Fe1 O0 2.108658 1_545
