# generated using pymatgen
data_Mg(Bi2O5)2
_symmetry_space_group_name_H-M   'P 1'
_cell_length_a   10.73129500
_cell_length_b   6.04793496
_cell_length_c   4.15323100
_cell_angle_alpha   110.08168645
_cell_angle_beta   90.00000000
_cell_angle_gamma   90.00000000
_symmetry_Int_Tables_number   1
_chemical_formula_structural   Mg(Bi2O5)2
_chemical_formula_sum   'Mg1 Bi4 O10'
_cell_volume   253.16594686
_cell_formula_units_Z   1
loop_
 _symmetry_equiv_pos_site_id
 _symmetry_equiv_pos_as_xyz
  1  'x, y, z'
loop_
 _atom_site_type_symbol
 _atom_site_label
 _atom_site_symmetry_multiplicity
 _atom_site_fract_x
 _atom_site_fract_y
 _atom_site_fract_z
 _atom_site_occupancy
  Mg  Mg0  1  0.50000000  0.70799700  0.35399800  1
  Bi  Bi0  1  0.18966100  0.75949900  0.87974900  1
  Bi  Bi1  1  0.31645600  0.22195800  0.61098000  1
  Bi  Bi2  1  0.68354400  0.22195800  0.61098000  1
  Bi  Bi3  1  0.81033900  0.75949900  0.87974900  1
  O  O0  1  0.00000000  0.85914600  0.92957300  1
  O  O1  1  0.14374500  0.38764700  0.69382400  1
  O  O2  1  0.26330900  0.84153000  0.42076400  1
  O  O3  1  0.30295200  0.12824300  0.06412300  1
  O  O4  1  0.38506100  0.58138600  0.79069300  1
  O  O5  1  0.50000000  0.06107600  0.53053800  1
  O  O6  1  0.61493900  0.58138600  0.79069300  1
  O  O7  1  0.85625500  0.38764700  0.69382400  1
  O  O8  1  0.69704800  0.12824300  0.06412300  1
  O  O9  1  0.73669100  0.84153000  0.42076400  1
loop_
_geom_bond_atom_site_label_1
_geom_bond_atom_site_label_2
_geom_bond_distance
_geom_bond_site_symmetry_2
Mg0 O5 2.005575 1_565
Mg0 O4 2.520105 1_554
Mg0 O6 2.520105 1_554
Mg0 O6 2.520109 1_555
Mg0 O4 2.520109 1_555
Mg0 O9 2.650835 1_555
Mg0 O2 2.650835 1_555
Bi0 O0 2.112548 1_555
Bi0 O1 2.168922 1_555
Bi0 O2 2.270258 1_556
Bi0 O2 2.270262 1_555
Bi0 O4 2.328209 1_555
Bi0 O3 2.421825 1_566
Bi1 O1 2.078680 1_555
Bi1 O3 2.148649 1_555
Bi1 O3 2.148653 1_556
Bi1 O4 2.170325 1_555
Bi1 O5 2.171336 1_555
Bi1 O2 2.234922 1_545
Bi2 O7 2.078680 1_555
Bi2 O8 2.148649 1_555
Bi2 O8 2.148653 1_556
Bi2 O6 2.170325 1_555
Bi2 O5 2.171336 1_555
Bi2 O9 2.234922 1_545
Bi3 O0 2.112548 1_655
Bi3 O7 2.168922 1_555
Bi3 O9 2.270258 1_556
Bi3 O9 2.270262 1_555
Bi3 O6 2.328209 1_555
Bi3 O8 2.421825 1_566
