# generated using pymatgen
data_K3LiSi4
_symmetry_space_group_name_H-M   'P 1'
_cell_length_a   7.67385400
_cell_length_b   9.78984400
_cell_length_c   12.29516300
_cell_angle_alpha   90.00000000
_cell_angle_beta   90.00000000
_cell_angle_gamma   90.00000000
_symmetry_Int_Tables_number   1
_chemical_formula_structural   K3LiSi4
_chemical_formula_sum   'K12 Li4 Si16'
_cell_volume   923.68436887
_cell_formula_units_Z   4
loop_
 _symmetry_equiv_pos_site_id
 _symmetry_equiv_pos_as_xyz
  1  'x, y, z'
loop_
 _atom_site_type_symbol
 _atom_site_label
 _atom_site_symmetry_multiplicity
 _atom_site_fract_x
 _atom_site_fract_y
 _atom_site_fract_z
 _atom_site_occupancy
  K  K0  1  0.65527200  0.25000000  0.39890600  1
  K  K1  1  0.15527200  0.25000000  0.10109400  1
  K  K2  1  0.34472800  0.75000000  0.60109400  1
  K  K3  1  0.84472800  0.75000000  0.89890600  1
  K  K4  1  0.65402500  0.44517200  0.69346600  1
  K  K5  1  0.15402500  0.05482800  0.80653400  1
  K  K6  1  0.34597500  0.94517200  0.30653400  1
  K  K7  1  0.84597500  0.55482800  0.19346600  1
  K  K8  1  0.34597500  0.55482800  0.30653400  1
  K  K9  1  0.84597500  0.94517200  0.19346600  1
  K  K10  1  0.65402500  0.05482800  0.69346600  1
  K  K11  1  0.15402500  0.44517200  0.80653400  1
  Li  Li0  1  0.50000000  0.50000000  0.00000000  1
  Li  Li1  1  0.00000000  0.00000000  0.50000000  1
  Li  Li2  1  0.50000000  0.00000000  0.00000000  1
  Li  Li3  1  0.00000000  0.50000000  0.50000000  1
  Si  Si0  1  0.36116800  0.75000000  0.89932400  1
  Si  Si1  1  0.86116800  0.75000000  0.60067600  1
  Si  Si2  1  0.63883200  0.25000000  0.10067600  1
  Si  Si3  1  0.13883200  0.25000000  0.39932400  1
  Si  Si4  1  0.71550000  0.62850700  0.45202200  1
  Si  Si5  1  0.21550000  0.87149300  0.04797800  1
  Si  Si6  1  0.28450000  0.12850700  0.54797800  1
  Si  Si7  1  0.78450000  0.37149300  0.95202200  1
  Si  Si8  1  0.01154200  0.25000000  0.58269300  1
  Si  Si9  1  0.51154200  0.25000000  0.91730700  1
  Si  Si10  1  0.98845800  0.75000000  0.41730700  1
  Si  Si11  1  0.48845800  0.75000000  0.08269300  1
  Si  Si12  1  0.21550000  0.62850700  0.04797800  1
  Si  Si13  1  0.71550000  0.87149300  0.45202200  1
  Si  Si14  1  0.78450000  0.12850700  0.95202200  1
  Si  Si15  1  0.28450000  0.37149300  0.54797800  1
loop_
_geom_bond_atom_site_label_1
_geom_bond_atom_site_label_2
_geom_bond_distance
_geom_bond_site_symmetry_2
K0 Si8 3.546937 1_655
K0 Si6 3.587410 1_555
K0 Si15 3.587410 1_555
K0 Si2 3.668956 1_555
K0 Si3 3.710772 1_655
K0 Si13 3.790913 1_545
K0 Si4 3.790913 1_555
K1 Si9 3.546937 1_554
K1 Si14 3.587410 1_454
K1 Si7 3.587410 1_454
K1 Si3 3.668956 1_555
K1 Si2 3.710772 1_555
K1 Si5 3.790913 1_545
K1 Si12 3.790913 1_555
K2 Si10 3.546937 1_455
K2 Si13 3.587410 1_555
K2 Si4 3.587410 1_555
K2 Si0 3.668956 1_555
K2 Si1 3.710772 1_455
K2 Si6 3.790913 1_565
K2 Si15 3.790913 1_555
K3 Si11 3.546937 1_556
K3 Si5 3.587410 1_656
K3 Si12 3.587410 1_656
K3 Si1 3.668956 1_555
K3 Si0 3.710772 1_555
K3 Si14 3.790913 1_565
K3 Si7 3.790913 1_555
K4 Si7 3.410094 1_555
K4 Si15 3.429456 1_555
K4 Si4 3.500925 1_555
K4 Si9 3.524300 1_555
K4 Si1 3.568462 1_555
K4 Si8 3.610087 1_655
K5 Si6 3.410094 1_555
K5 Si14 3.429456 1_455
K5 Si5 3.500925 1_546
K5 Si8 3.524300 1_555
K5 Si0 3.568462 1_545
K5 Si9 3.610087 1_555
K6 Si5 3.410094 1_555
K6 Si13 3.429456 1_555
K6 Si6 3.500925 1_565
K6 Si11 3.524300 1_555
K6 Si3 3.568462 1_565
K6 Si10 3.610087 1_455
K7 Si4 3.410094 1_555
K7 Si12 3.429456 1_655
K7 Si7 3.500925 1_554
K7 Si10 3.524300 1_555
K7 Si2 3.568462 1_555
K7 Si11 3.610087 1_555
K8 Si12 3.410094 1_555
K8 Si4 3.429456 1_555
K8 Si15 3.500925 1_555
K8 Si11 3.524300 1_555
K8 Si3 3.568462 1_555
K8 Si10 3.610087 1_455
K9 Si13 3.410094 1_555
K9 Si5 3.429456 1_655
K9 Si14 3.500925 1_564
K9 Si10 3.524300 1_555
K9 Si2 3.568462 1_565
K9 Si11 3.610087 1_555
K10 Si14 3.410094 1_555
K10 Si6 3.429456 1_555
K10 Si13 3.500925 1_545
K10 Si9 3.524300 1_555
K10 Si1 3.568462 1_545
K10 Si8 3.610087 1_655
K11 Si15 3.410094 1_555
K11 Si7 3.429456 1_455
K11 Si12 3.500925 1_556
K11 Si8 3.524300 1_555
K11 Si0 3.568462 1_555
K11 Si9 3.610087 1_555
Li0 Si7 2.587878 1_554
Li0 Si12 2.587878 1_555
Li0 Si9 2.651724 1_554
Li0 Si11 2.651724 1_555
Li0 Si2 2.942331 1_555
Li0 Si0 2.942331 1_554
Li1 Si6 2.587878 1_555
Li1 Si13 2.587878 1_445
Li1 Si8 2.651724 1_555
Li1 Si10 2.651724 1_445
Li1 Si1 2.942331 1_445
Li1 Si3 2.942331 1_555
Li2 Si14 2.587878 1_554
Li2 Si5 2.587878 1_545
Li2 Si9 2.651724 1_554
Li2 Si11 2.651724 1_545
Li2 Si2 2.942331 1_555
Li2 Si0 2.942331 1_544
Li3 Si15 2.587878 1_555
Li3 Si4 2.587878 1_455
Li3 Si8 2.651724 1_555
Li3 Si10 2.651724 1_455
Li3 Si1 2.942331 1_455
Li3 Si3 2.942331 1_555
Si0 Si5 2.450469 1_556
Si0 Si12 2.450469 1_556
Si0 Si11 2.457062 1_556
Si1 Si13 2.450469 1_555
Si1 Si4 2.450469 1_555
Si1 Si10 2.457062 1_555
Si2 Si7 2.450469 1_554
Si2 Si9 2.457062 1_554
Si3 Si6 2.450469 1_555
Si3 Si8 2.457062 1_555
Si6 Si8 2.446296 1_555
Si7 Si9 2.446296 1_555
Si10 Si4 2.446296 1_555
Si10 Si13 2.446296 1_555
Si11 Si5 2.446296 1_555
Si11 Si12 2.446296 1_555
Si12 Si5 2.378795 1_555
Si13 Si4 2.378795 1_555
Si14 Si7 2.378795 1_555
Si14 Si9 2.446296 1_555
Si14 Si2 2.450469 1_556
Si15 Si6 2.378795 1_555
Si15 Si8 2.446296 1_555
Si15 Si3 2.450469 1_555
