# generated using pymatgen
data_MgCo6O7F5
_symmetry_space_group_name_H-M   'P 1'
_cell_length_a   5.13195403
_cell_length_b   7.66348243
_cell_length_c   5.68849023
_cell_angle_alpha   98.13418739
_cell_angle_beta   98.76134317
_cell_angle_gamma   84.30080165
_symmetry_Int_Tables_number   1
_chemical_formula_structural   MgCo6O7F5
_chemical_formula_sum   'Mg1 Co6 O7 F5'
_cell_volume   218.19326828
_cell_formula_units_Z   1
loop_
 _symmetry_equiv_pos_site_id
 _symmetry_equiv_pos_as_xyz
  1  'x, y, z'
loop_
 _atom_site_type_symbol
 _atom_site_label
 _atom_site_symmetry_multiplicity
 _atom_site_fract_x
 _atom_site_fract_y
 _atom_site_fract_z
 _atom_site_occupancy
  Mg  Mg0  1  0.03970360  0.82839464  0.35135566  1
  Co  Co0  1  0.57518471  0.04038170  0.45902480  1
  Co  Co1  1  0.46859027  0.33031345  0.83996216  1
  Co  Co2  1  0.58657154  0.66468296  0.13387587  1
  Co  Co3  1  0.98576365  0.64572734  0.72021362  1
  Co  Co4  1  0.99212288  0.32222591  0.33529691  1
  Co  Co5  1  0.95752794  0.01953532  0.96308917  1
  O  O0  1  0.83603660  0.76331766  0.00010214  1
  O  O1  1  0.84946034  0.08203715  0.30549965  1
  O  O2  1  0.70393358  0.77199725  0.46643173  1
  O  O3  1  0.64823201  0.11321550  0.78847178  1
  O  O4  1  0.69425602  0.41677504  0.12704451  1
  O  O5  1  0.30190794  0.56104128  0.88277017  1
  O  O6  1  0.29811650  0.24829113  0.52942395  1
  F  F0  1  0.80862422  0.42845485  0.63011639  1
  F  F1  1  0.31825137  0.90111581  0.19624727  1
  F  F2  1  0.17829527  0.23203691  0.03946109  1
  F  F3  1  0.15742573  0.88361385  0.69949196  1
  F  F4  1  0.14513183  0.57600627  0.38926615  1
loop_
_geom_bond_atom_site_label_1
_geom_bond_atom_site_label_2
_geom_bond_distance
_geom_bond_site_symmetry_2
Mg0 O2 2.038673 1_455
Mg0 O1 2.118615 1_465
Mg0 O0 2.125774 1_455
Co0 O1 1.840781 1_555
Co0 O3 1.869677 1_555
Co0 O6 2.064887 1_555
Co0 F1 2.083199 1_545
Co0 O2 2.101128 1_545
Co1 O3 1.828505 1_555
Co1 O5 1.886447 1_555
Co1 O6 1.898735 1_555
Co1 O4 1.928003 1_556
Co1 F2 2.248177 1_556
Co1 F0 2.486979 1_555
Co2 O0 1.855053 1_555
Co2 O4 1.921828 1_555
Co2 O2 1.982122 1_555
Co2 O5 2.019672 1_554
Co2 F1 2.185495 1_555
Co3 O5 1.847221 1_655
Co3 O0 1.940766 1_556
Co3 F0 1.943895 1_555
Co3 F3 2.127177 1_655
Co3 O2 2.143274 1_555
Co3 F4 2.143866 1_655
Co4 O6 1.865084 1_655
Co4 O4 1.932970 1_555
Co4 O1 2.023469 1_555
Co4 F2 2.062056 1_655
Co4 F0 2.074762 1_555
Co4 F4 2.134048 1_655
Co5 O3 1.875293 1_555
Co5 F2 2.034863 1_656
Co5 F3 2.049438 1_645
Co5 O1 2.084043 1_556
Co5 O0 2.165318 1_546
Co5 F1 2.295355 1_646
F1 Mg0 1.952986 1_555
F3 Mg0 1.978655 1_555
F4 Mg0 1.988698 1_555
