# generated using pymatgen
data_MgCo6O7F5
_symmetry_space_group_name_H-M   'P 1'
_cell_length_a   4.97388390
_cell_length_b   5.11600726
_cell_length_c   8.56213863
_cell_angle_alpha   90.03281271
_cell_angle_beta   89.95652192
_cell_angle_gamma   100.66025296
_symmetry_Int_Tables_number   1
_chemical_formula_structural   MgCo6O7F5
_chemical_formula_sum   'Mg1 Co6 O7 F5'
_cell_volume   214.11550545
_cell_formula_units_Z   1
loop_
 _symmetry_equiv_pos_site_id
 _symmetry_equiv_pos_as_xyz
  1  'x, y, z'
loop_
 _atom_site_type_symbol
 _atom_site_label
 _atom_site_symmetry_multiplicity
 _atom_site_fract_x
 _atom_site_fract_y
 _atom_site_fract_z
 _atom_site_occupancy
  Mg  Mg0  1  0.94587100  0.48628300  0.16570200  1
  Co  Co0  1  0.02310200  0.99339400  0.99712600  1
  Co  Co1  1  0.02169200  0.99269800  0.33551600  1
  Co  Co2  1  0.99259300  0.98588500  0.66680500  1
  Co  Co3  1  0.44766500  0.58653400  0.16661200  1
  Co  Co4  1  0.48730800  0.50830900  0.83336900  1
  Co  Co5  1  0.48716500  0.50850500  0.49988500  1
  O  O0  1  0.21689700  0.83326700  0.16655000  1
  O  O1  1  0.26207800  0.36374900  0.32469400  1
  O  O2  1  0.26147700  0.36422600  0.00837400  1
  O  O3  1  0.29629500  0.32389300  0.66671400  1
  O  O4  1  0.70272200  0.67669200  0.66675400  1
  O  O5  1  0.71445200  0.65178600  0.00536600  1
  O  O6  1  0.71432900  0.65143000  0.32743900  1
  F  F0  1  0.21943300  0.83417400  0.82615100  1
  F  F1  1  0.21725300  0.83418300  0.50749000  1
  F  F2  1  0.77760000  0.12652800  0.16652700  1
  F  F3  1  0.80575300  0.15229600  0.83393700  1
  F  F4  1  0.80909100  0.15394200  0.49927700  1
loop_
_geom_bond_atom_site_label_1
_geom_bond_atom_site_label_2
_geom_bond_distance
_geom_bond_site_symmetry_2
Mg0 O0 2.020690 1_655
Mg0 O5 2.071421 1_555
Mg0 O6 2.077045 1_555
Mg0 O2 2.242149 1_655
Mg0 O1 2.255832 1_655
Co0 O0 2.000050 1_556
Co0 F0 2.012691 1_555
Co0 F3 2.027468 1_465
Co0 O2 2.045015 1_566
Co0 F2 2.088695 1_466
Co0 O5 2.103206 1_456
Co1 O0 1.997615 1_555
Co1 F1 2.016765 1_555
Co1 F4 2.020860 1_465
Co1 O1 2.049883 1_565
Co1 F2 2.085105 1_465
Co1 O6 2.098275 1_455
Co2 O4 1.933175 1_555
Co2 F4 1.980783 1_565
Co2 F3 1.981296 1_565
Co2 F1 2.007246 1_655
Co2 F0 2.016033 1_655
Co2 O3 2.075026 1_665
Co3 O0 1.856579 1_555
Co3 O1 1.895734 1_555
Co3 O2 1.896639 1_555
Co3 O6 1.898676 1_555
Co3 O5 1.900586 1_555
Co4 O3 1.870236 1_555
Co4 O4 1.892836 1_555
Co4 O5 1.917922 1_556
Co4 O2 1.934606 1_556
Co4 F0 2.319570 1_555
Co4 F3 2.625547 1_555
Co5 O3 1.871215 1_555
Co5 O4 1.894950 1_555
Co5 O6 1.919485 1_555
Co5 O1 1.935565 1_555
Co5 F1 2.325943 1_555
Co5 F4 2.632282 1_555
F2 Mg0 1.875665 1_555
