# generated using pymatgen
data_U(AlC)3
_symmetry_space_group_name_H-M   'P 1'
_cell_length_a   3.39122469
_cell_length_b   3.39122516
_cell_length_c   17.55034902
_cell_angle_alpha   90.00002554
_cell_angle_beta   89.99998103
_cell_angle_gamma   120.00005383
_symmetry_Int_Tables_number   1
_chemical_formula_structural   U(AlC)3
_chemical_formula_sum   'U2 Al6 C6'
_cell_volume   174.79513701
_cell_formula_units_Z   2
loop_
 _symmetry_equiv_pos_site_id
 _symmetry_equiv_pos_as_xyz
  1  'x, y, z'
loop_
 _atom_site_type_symbol
 _atom_site_label
 _atom_site_symmetry_multiplicity
 _atom_site_fract_x
 _atom_site_fract_y
 _atom_site_fract_z
 _atom_site_occupancy
  U  U0  1  0.00000191  0.99999562  0.00312417  1
  U  U1  1  -0.00000263  0.00000502  0.50312990  1
  Al  Al0  1  0.33333159  0.66666333  0.13879456  1
  Al  Al1  1  0.66667220  0.33332862  0.86767008  1
  Al  Al2  1  0.66666753  0.33333647  0.63941211  1
  Al  Al3  1  0.33333715  0.66666474  0.75499514  1
  Al  Al4  1  0.33332807  0.66667267  0.36701076  1
  Al  Al5  1  0.66666273  0.33333475  0.25262847  1
  C  C0  1  0.33333354  0.66666991  0.59940313  1
  C  C1  1  0.66666209  0.33333873  0.40633211  1
  C  C2  1  0.33334005  0.66666039  0.90583821  1
  C  C3  1  0.66666560  0.33333019  0.09989241  1
  C  C4  1  0.66667016  0.33333184  0.75342343  1
  C  C5  1  0.33333002  0.66666771  0.25294550  1
loop_
_geom_bond_atom_site_label_1
_geom_bond_atom_site_label_2
_geom_bond_distance
_geom_bond_site_symmetry_2
Al0 C5 2.003389 1_555
Al0 C3 2.073547 1_455
Al0 C3 2.073550 1_565
Al0 C3 2.073552 1_555
Al1 C4 2.005069 1_555
Al1 C2 2.069337 1_555
Al1 C2 2.069347 1_655
Al1 C2 2.069348 1_545
Al2 C4 2.000938 1_555
Al2 C0 2.080024 1_655
Al2 C0 2.080026 1_545
Al2 C0 2.080030 1_555
Al3 C4 1.958117 1_555
Al3 C4 1.958119 1_455
Al3 C4 1.958119 1_565
Al4 C5 2.001885 1_555
Al4 C1 2.075981 1_455
Al4 C1 2.075982 1_565
Al4 C1 2.075989 1_555
Al5 C5 1.957930 1_555
Al5 C5 1.957933 1_545
Al5 C5 1.957933 1_655
C0 U1 2.586170 1_665
C0 U1 2.586172 1_555
C0 U1 2.586189 1_565
C1 U1 2.592196 1_555
C1 U1 2.592200 1_665
C1 U1 2.592208 1_655
C2 U0 2.597813 1_656
C2 U0 2.597820 1_546
C2 U0 2.597839 1_556
C3 U0 2.591854 1_545
C3 U0 2.591859 1_655
C3 U0 2.591871 1_645
