# generated using pymatgen
data_Tl2S
_symmetry_space_group_name_H-M   'P 1'
_cell_length_a   7.12802523
_cell_length_b   7.12802524
_cell_length_c   6.28398674
_cell_angle_alpha   90.00000000
_cell_angle_beta   90.00000000
_cell_angle_gamma   120.00000718
_symmetry_Int_Tables_number   1
_chemical_formula_structural   Tl2S
_chemical_formula_sum   'Tl6 S3'
_cell_volume   276.50584563
_cell_formula_units_Z   3
loop_
 _symmetry_equiv_pos_site_id
 _symmetry_equiv_pos_as_xyz
  1  'x, y, z'
loop_
 _atom_site_type_symbol
 _atom_site_label
 _atom_site_symmetry_multiplicity
 _atom_site_fract_x
 _atom_site_fract_y
 _atom_site_fract_z
 _atom_site_occupancy
  Tl  Tl0  1  0.03571373  0.70501271  0.07970746  1
  Tl  Tl1  1  0.66929898  0.96428627  0.07970746  1
  Tl  Tl2  1  0.29498729  0.33070102  0.07970746  1
  Tl  Tl3  1  0.37377843  0.03805771  0.61051750  1
  Tl  Tl4  1  0.66428028  0.62622157  0.61051750  1
  Tl  Tl5  1  0.96194229  0.33571972  0.61051750  1
  S  S0  1  0.00000000  0.00000000  0.39038062  1
  S  S1  1  0.33333300  0.66666700  0.38291745  1
  S  S2  1  0.66666700  0.33333300  0.25802203  1
loop_
_geom_bond_atom_site_label_1
_geom_bond_atom_site_label_2
_geom_bond_distance
_geom_bond_site_symmetry_2
S0 Tl5 2.891871 1_455
S0 Tl4 2.891875 1_445
S0 Tl3 2.891878 1_555
S0 Tl2 2.971981 1_555
S0 Tl1 2.971981 1_445
S0 Tl0 2.971981 1_545
S1 Tl3 2.893716 1_565
S1 Tl5 2.893721 1_455
S1 Tl4 2.893728 1_555
S1 Tl0 2.964032 1_555
S1 Tl1 2.964035 1_555
S1 Tl2 2.964037 1_555
S2 Tl1 2.867962 1_545
S2 Tl0 2.867965 1_655
S2 Tl2 2.867968 1_555
S2 Tl3 3.049743 1_555
S2 Tl5 3.049743 1_555
S2 Tl4 3.049743 1_555
