# generated using pymatgen
data_Na3ZnSn(PO4)3
_symmetry_space_group_name_H-M   'P 1'
_cell_length_a   8.99217120
_cell_length_b   8.99747614
_cell_length_c   22.07730466
_cell_angle_alpha   90.00000000
_cell_angle_beta   90.08988955
_cell_angle_gamma   120.01951959
_symmetry_Int_Tables_number   1
_chemical_formula_structural   Na3ZnSn(PO4)3
_chemical_formula_sum   'Na18 Zn6 Sn6 P18 O72'
_cell_volume   1546.59208749
_cell_formula_units_Z   6
loop_
 _symmetry_equiv_pos_site_id
 _symmetry_equiv_pos_as_xyz
  1  'x, y, z'
loop_
 _atom_site_type_symbol
 _atom_site_label
 _atom_site_symmetry_multiplicity
 _atom_site_fract_x
 _atom_site_fract_y
 _atom_site_fract_z
 _atom_site_occupancy
  Na  Na0  1  0.98219278  0.96638702  0.49331210  1
  Na  Na1  1  0.98219278  0.01580576  0.99331210  1
  Na  Na2  1  0.66661489  0.33774065  0.82663711  1
  Na  Na3  1  0.66661489  0.32887324  0.32663711  1
  Na  Na4  1  0.32929575  0.66248551  0.15996815  1
  Na  Na5  1  0.32929575  0.66681125  0.65996815  1
  Na  Na6  1  0.37080526  0.36033028  0.24577014  1
  Na  Na7  1  0.98756688  0.63222885  0.24602183  1
  Na  Na8  1  0.98756688  0.35533803  0.74602183  1
  Na  Na9  1  0.37080526  0.01047498  0.74577014  1
  Na  Na10  1  0.30940457  0.34487949  0.57908524  1
  Na  Na11  1  0.65627704  0.96285068  0.57943993  1
  Na  Na12  1  0.30940457  0.96452408  0.07908524  1
  Na  Na13  1  0.65627704  0.69342536  0.07943993  1
  Na  Na14  1  0.97764366  0.68086499  0.91206918  1
  Na  Na15  1  0.32265240  0.29604470  0.91279443  1
  Na  Na16  1  0.97764366  0.29677967  0.41206918  1
  Na  Na17  1  0.32265240  0.02660870  0.41279443  1
  Zn  Zn0  1  0.99035143  0.99462430  0.34930293  1
  Zn  Zn1  1  0.99035143  0.99572714  0.84930293  1
  Zn  Zn2  1  0.67021339  0.34378049  0.68266422  1
  Zn  Zn3  1  0.67021339  0.32643190  0.18266422  1
  Zn  Zn4  1  0.33030959  0.66160428  0.01618943  1
  Zn  Zn5  1  0.33030959  0.66870632  0.51618943  1
  Sn  Sn0  1  0.99640346  0.99335838  0.65052512  1
  Sn  Sn1  1  0.99640346  0.00304508  0.15052512  1
  Sn  Sn2  1  0.67055712  0.32788783  0.98371626  1
  Sn  Sn3  1  0.67055712  0.34266829  0.48371626  1
  Sn  Sn4  1  0.34026920  0.67203503  0.31711279  1
  Sn  Sn5  1  0.34026920  0.66823517  0.81711279  1
  P  P0  1  0.29541710  0.99798414  0.25259425  1
  P  P1  1  0.70176721  0.70554983  0.25007316  1
  P  P2  1  0.00352014  0.29971417  0.25479996  1
  P  P3  1  0.29541710  0.29743296  0.75259425  1
  P  P4  1  0.00352014  0.70380597  0.75479996  1
  P  P5  1  0.70176721  0.99621738  0.75007316  1
  P  P6  1  0.96347169  0.33106367  0.58659442  1
  P  P7  1  0.36828094  0.03843670  0.58615503  1
  P  P8  1  0.66944680  0.63080838  0.58490781  1
  P  P9  1  0.96347169  0.63240703  0.08659442  1
  P  P10  1  0.66944680  0.03863742  0.08490781  1
  P  P11  1  0.36828094  0.32984323  0.08615503  1
  P  P12  1  0.63047033  0.66451459  0.92183387  1
  P  P13  1  0.03721905  0.37241224  0.91669420  1
  P  P14  1  0.33919656  0.96657014  0.91899041  1
  P  P15  1  0.63047033  0.96595674  0.42183387  1
  P  P16  1  0.33919656  0.37262742  0.41899041  1
  P  P17  1  0.03721905  0.66480781  0.41669420  1
  O  O0  1  0.21073131  0.02079583  0.30880502  1
  O  O1  1  0.81960542  0.79656920  0.30252397  1
  O  O2  1  0.98883300  0.20450676  0.31315660  1
  O  O3  1  0.21073131  0.18993548  0.80880502  1
  O  O4  1  0.98883300  0.78432624  0.81315660  1
  O  O5  1  0.81960542  0.02303622  0.80252397  1
  O  O6  1  0.77515110  0.96934490  0.68863455  1
  O  O7  1  0.17714226  0.21600007  0.69431874  1
  O  O8  1  0.03972944  0.82633257  0.69910493  1
  O  O9  1  0.77515110  0.80580620  0.18863455  1
  O  O10  1  0.03972944  0.21339687  0.19910493  1
  O  O11  1  0.17714226  0.96114219  0.19431874  1
  O  O12  1  0.87854289  0.34492805  0.64386793  1
  O  O13  1  0.47584528  0.12348221  0.64238805  1
  O  O14  1  0.64174018  0.51748417  0.63887476  1
  O  O15  1  0.87854289  0.53361383  0.14386793  1
  O  O16  1  0.64174018  0.12425501  0.13887476  1
  O  O17  1  0.47584528  0.35236207  0.14238805  1
  O  O18  1  0.45047975  0.29416138  0.02807354  1
  O  O19  1  0.84823168  0.54912695  0.02837281  1
  O  O20  1  0.70054256  0.14439106  0.02511578  1
  O  O21  1  0.45047975  0.15631737  0.52807354  1
  O  O22  1  0.70054256  0.55615050  0.52511578  1
  O  O23  1  0.84823168  0.29910373  0.52837281  1
  O  O24  1  0.55086470  0.68134996  0.97992141  1
  O  O25  1  0.15384808  0.46209056  0.96997430  1
  O  O26  1  0.31951494  0.86032801  0.97501551  1
  O  O27  1  0.55086470  0.86951573  0.47992141  1
  O  O28  1  0.31951494  0.45918793  0.47501551  1
  O  O29  1  0.15384808  0.69175852  0.46997430  1
  O  O30  1  0.11251354  0.62864240  0.35675617  1
  O  O31  1  0.50728550  0.88249828  0.36582326  1
  O  O32  1  0.36235049  0.47833541  0.35935250  1
  O  O33  1  0.11251354  0.48387213  0.85675617  1
  O  O34  1  0.36235049  0.88401608  0.85935250  1
  O  O35  1  0.50728550  0.62478822  0.86582326  1
  O  O36  1  0.01484204  0.82096245  0.41014482  1
  O  O37  1  0.81113895  0.99487912  0.41322988  1
  O  O38  1  0.18058563  0.19153860  0.41436819  1
  O  O39  1  0.01484204  0.19387959  0.91014482  1
  O  O40  1  0.18058563  0.98904702  0.91436819  1
  O  O41  1  0.81113895  0.81625984  0.91322988  1
  O  O42  1  0.97395095  0.15918499  0.58683250  1
  O  O43  1  0.18890941  0.03060198  0.58845142  1
  O  O44  1  0.83367798  0.81499846  0.58785460  1
  O  O45  1  0.97395095  0.81476597  0.08683250  1
  O  O46  1  0.83367798  0.01867952  0.08785460  1
  O  O47  1  0.18890941  0.15830743  0.08845142  1
  O  O48  1  0.67598121  0.15268599  0.74586311  1
  O  O49  1  0.47178625  0.31489114  0.74526852  1
  O  O50  1  0.85237372  0.52226618  0.74679760  1
  O  O51  1  0.67598121  0.52329422  0.24586311  1
  O  O52  1  0.85237372  0.33010654  0.24679760  1
  O  O53  1  0.47178625  0.15689411  0.24526852  1
  O  O54  1  0.64291919  0.49372021  0.92227530  1
  O  O55  1  0.86007362  0.36844143  0.92073309  1
  O  O56  1  0.50203809  0.15225889  0.91988784  1
  O  O57  1  0.64291919  0.14919797  0.42227530  1
  O  O58  1  0.50203809  0.34977820  0.41988784  1
  O  O59  1  0.86007362  0.49163119  0.42073309  1
  O  O60  1  0.34918595  0.48783268  0.07901571  1
  O  O61  1  0.14599772  0.66428226  0.07991199  1
  O  O62  1  0.51210748  0.85722455  0.07919724  1
  O  O63  1  0.34918595  0.86135427  0.57901571  1
  O  O64  1  0.51210748  0.65488393  0.57919724  1
  O  O65  1  0.14599772  0.48171646  0.57991199  1
  O  O66  1  0.30369310  0.82701639  0.25469032  1
  O  O67  1  0.51774357  0.68589645  0.25407971  1
  O  O68  1  0.17539578  0.48221155  0.25406636  1
  O  O69  1  0.30369310  0.47667772  0.75469032  1
  O  O70  1  0.17539578  0.69318523  0.75406636  1
  O  O71  1  0.51774357  0.83184812  0.75407971  1
loop_
_geom_bond_atom_site_label_1
_geom_bond_atom_site_label_2
_geom_bond_distance
_geom_bond_site_symmetry_2
Na0 O36 2.357034 1_655
Na0 O37 2.437918 1_555
Na0 O44 2.486772 1_555
Na0 O38 2.591847 1_665
Na0 O43 2.667203 1_665
Na0 O42 2.721521 1_565
Na1 O39 2.357034 1_655
Na1 O41 2.437918 1_545
Na1 O46 2.486772 1_556
Na1 O40 2.591848 1_645
Na1 O47 2.667203 1_656
Na1 O45 2.721520 1_546
Na2 O50 2.426494 1_555
Na2 O49 2.443015 1_555
Na2 O48 2.469868 1_555
Na2 O56 2.598446 1_555
Na2 O54 2.602647 1_555
Na2 O55 2.631717 1_555
Na3 O52 2.426494 1_555
Na3 O53 2.443015 1_555
Na3 O51 2.469868 1_555
Na3 O58 2.598446 1_555
Na3 O57 2.602647 1_555
Na3 O59 2.631717 1_555
Na4 O61 2.420390 1_555
Na4 O60 2.444944 1_555
Na4 O62 2.465638 1_555
Na4 O68 2.573873 1_555
Na4 O67 2.620047 1_555
Na4 O66 2.638212 1_555
Na5 O65 2.420390 1_555
Na5 O63 2.444944 1_555
Na5 O64 2.465638 1_555
Na5 O70 2.573873 1_555
Na5 O71 2.620047 1_555
Na5 O69 2.638212 1_555
Na6 O51 2.377905 1_555
Na6 O53 2.416229 1_555
Na6 O17 2.486193 1_555
Na6 O68 2.500562 1_555
Na6 O67 2.546889 1_555
Na6 O32 2.739065 1_555
Na6 O10 2.779295 1_555
Na7 O52 2.358182 1_555
Na7 O15 2.440773 1_555
Na7 O51 2.462339 1_555
Na7 O66 2.490433 1_655
Na7 O68 2.643159 1_655
Na7 O30 2.695864 1_655
Na7 O11 2.815171 1_655
Na7 O1 2.874727 1_555
Na8 O50 2.358174 1_555
Na8 O12 2.440772 1_555
Na8 O48 2.462340 1_555
Na8 O69 2.490432 1_655
Na8 O70 2.643166 1_655
Na8 O33 2.695866 1_655
Na8 O7 2.815171 1_655
Na8 O5 2.874727 1_555
Na9 O48 2.377905 1_555
Na9 O49 2.416220 1_555
Na9 O13 2.486191 1_555
Na9 O70 2.500555 1_545
Na9 O71 2.546881 1_545
Na9 O34 2.739061 1_545
Na9 O8 2.779295 1_545
Na10 O65 2.342109 1_555
Na10 O64 2.452598 1_555
Na10 O43 2.479458 1_555
Na10 O28 2.500404 1_555
Na10 O42 2.622705 1_455
Na10 O7 2.803722 1_555
Na10 O21 2.813181 1_555
Na10 O14 2.903223 1_555
Na11 O27 2.372330 1_555
Na11 O64 2.400902 1_555
Na11 O63 2.436418 1_555
Na11 O42 2.501324 1_565
Na11 O44 2.543888 1_555
Na11 O6 2.624317 1_555
Na11 O23 2.860866 1_565
Na12 O61 2.342094 1_555
Na12 O62 2.452585 1_555
Na12 O47 2.479466 1_565
Na12 O26 2.500396 1_554
Na12 O45 2.622705 1_455
Na12 O11 2.803724 1_555
Na12 O18 2.813181 1_565
Na12 O16 2.903223 1_565
Na13 O24 2.372333 1_554
Na13 O62 2.400918 1_555
Na13 O60 2.436415 1_555
Na13 O45 2.501323 1_555
Na13 O46 2.543895 1_565
Na13 O9 2.624319 1_555
Na13 O19 2.860866 1_555
Na14 O41 2.356177 1_555
Na14 O4 2.356332 1_555
Na14 O40 2.440924 1_655
Na14 O55 2.466409 1_555
Na14 O54 2.622314 1_555
Na14 O19 2.825120 1_556
Na14 O33 2.873861 1_655
Na14 O26 3.001464 1_655
Na15 O40 2.394228 1_545
Na15 O39 2.441978 1_555
Na15 O3 2.495279 1_555
Na15 O54 2.524661 1_555
Na15 O56 2.527345 1_555
Na15 O35 2.769920 1_555
Na15 O18 2.794479 1_556
Na15 O25 2.899103 1_555
Na16 O37 2.356185 1_545
Na16 O2 2.356335 1_555
Na16 O38 2.440932 1_655
Na16 O59 2.466392 1_555
Na16 O57 2.622312 1_555
Na16 O23 2.825116 1_555
Na16 O30 2.873860 1_655
Na16 O28 3.001464 1_655
Na17 O38 2.394220 1_555
Na17 O36 2.441979 1_545
Na17 O0 2.495278 1_555
Na17 O57 2.524663 1_555
Na17 O58 2.527330 1_555
Na17 O31 2.769920 1_545
Na17 O21 2.794475 1_555
Na17 O29 2.899103 1_545
O0 P0 1.523619 1_545
O0 Zn0 2.078602 1_445
O1 P1 1.504073 1_555
O1 Zn0 1.963886 1_555
O2 P2 1.516064 1_655
O2 Zn0 2.056424 1_545
O3 P3 1.523619 1_555
O3 Zn1 2.078602 1_445
O4 P4 1.516064 1_655
O4 Zn1 2.056424 1_555
O5 P5 1.504073 1_545
O5 Zn1 1.963886 1_545
O6 P5 1.579928 1_555
O6 Sn0 2.070739 1_555
O7 P3 1.593492 1_555
O7 Sn0 2.080023 1_445
O8 P4 1.573330 1_555
O8 Sn0 2.035934 1_455
O9 P1 1.579928 1_555
O9 Sn1 2.070739 1_565
O10 P2 1.573330 1_555
O10 Sn1 2.035934 1_455
O11 P0 1.593492 1_555
O11 Sn1 2.080023 1_465
O12 P6 1.515244 1_555
O12 Zn2 2.056403 1_555
O13 P7 1.522497 1_555
O13 Zn2 2.074367 1_555
O14 P8 1.505991 1_555
O14 Zn2 1.960210 1_555
O15 P9 1.515244 1_555
O15 Zn3 2.056403 1_555
O16 P10 1.505991 1_555
O16 Zn3 1.960210 1_555
O17 P11 1.522497 1_555
O17 Zn3 2.074367 1_555
O18 P11 1.591876 1_555
O18 Sn2 2.091083 1_554
O19 P9 1.583153 1_555
O19 Sn2 2.073617 1_554
O20 P10 1.568768 1_555
O20 Sn2 2.019546 1_554
O21 P7 1.591876 1_555
O21 Sn3 2.091083 1_555
O22 P8 1.568768 1_555
O22 Sn3 2.019546 1_555
O23 P6 1.583153 1_555
O23 Sn3 2.073617 1_555
O24 P12 1.513711 1_555
O24 Zn4 2.063605 1_556
O25 P13 1.511284 1_555
O25 Zn4 1.981443 1_556
O26 P14 1.518676 1_555
O26 Zn4 2.050875 1_556
O27 P15 1.513711 1_555
O27 Zn5 2.063605 1_555
O28 P16 1.518676 1_555
O28 Zn5 2.050875 1_555
O29 P17 1.511284 1_555
O29 Zn5 1.981443 1_555
O30 P17 1.593297 1_555
O30 Sn4 2.078070 1_555
O31 P15 1.575875 1_555
O31 Sn4 2.036462 1_555
O32 P16 1.576141 1_555
O32 Sn4 2.071740 1_555
O33 P13 1.593297 1_555
O33 Sn5 2.078070 1_555
O34 P14 1.576141 1_555
O34 Sn5 2.071740 1_555
O35 P12 1.575875 1_555
O35 Sn5 2.036462 1_555
O36 P17 1.522564 1_555
O36 Zn0 2.153507 1_455
O37 P15 1.523512 1_555
O37 Zn0 2.144683 1_555
O38 P16 1.540678 1_555
O38 Zn0 2.255754 1_445
O39 P13 1.522573 1_555
O39 Zn1 2.153507 1_445
O40 P14 1.540673 1_555
O40 Zn1 2.255754 1_455
O41 P12 1.523508 1_555
O41 Zn1 2.144683 1_555
O42 P6 1.595713 1_555
O42 Sn0 2.131830 1_545
O43 P7 1.579748 1_555
O43 Sn0 2.100927 1_445
O44 P8 1.575583 1_555
O44 Sn0 2.067571 1_555
O45 P9 1.595722 1_555
O45 Sn1 2.131830 1_565
O46 P10 1.575578 1_555
O46 Sn1 2.067571 1_555
O47 P11 1.579743 1_555
O47 Sn1 2.100927 1_455
O48 P5 1.539782 1_545
O48 Zn2 2.234876 1_555
O49 P3 1.522360 1_555
O49 Zn2 2.169153 1_555
O50 P4 1.524592 1_655
O50 Zn2 2.151157 1_555
O51 P1 1.539791 1_555
O51 Zn3 2.234876 1_555
O52 P2 1.524586 1_655
O52 Zn3 2.151157 1_555
O53 P0 1.522357 1_545
O53 Zn3 2.169153 1_555
O54 P12 1.595698 1_555
O54 Sn2 2.120845 1_555
O55 P13 1.578014 1_655
O55 Sn2 2.087116 1_555
O56 P14 1.577314 1_545
O56 Sn2 2.091987 1_555
O57 P15 1.595680 1_545
O57 Sn3 2.120845 1_555
O58 P16 1.577325 1_555
O58 Sn3 2.091987 1_555
O59 P17 1.578023 1_655
O59 Sn3 2.087116 1_555
O60 P11 1.522874 1_555
O60 Zn4 2.159174 1_555
O61 P9 1.525668 1_455
O61 Zn4 2.184916 1_555
O62 P10 1.539677 1_565
O62 Zn4 2.195266 1_555
O63 P7 1.522856 1_565
O63 Zn5 2.159174 1_555
O64 P8 1.539688 1_555
O64 Zn5 2.195266 1_555
O65 P6 1.525674 1_455
O65 Zn5 2.184916 1_555
O66 P0 1.577502 1_555
O66 Sn4 2.099841 1_555
O67 P1 1.576400 1_555
O67 Sn4 2.075272 1_555
O68 P2 1.595602 1_555
O68 Sn4 2.124222 1_555
O69 P3 1.577511 1_555
O69 Sn5 2.099841 1_555
O70 P4 1.595597 1_555
O70 Sn5 2.124222 1_555
O71 P5 1.576396 1_555
O71 Sn5 2.075272 1_555
