# generated using pymatgen
data_Y2MgMn2O6
_symmetry_space_group_name_H-M   'P 1'
_cell_length_a   3.55042762
_cell_length_b   3.55042769
_cell_length_c   14.01290373
_cell_angle_alpha   89.83934692
_cell_angle_beta   90.16065308
_cell_angle_gamma   120.22320768
_symmetry_Int_Tables_number   1
_chemical_formula_structural   Y2MgMn2O6
_chemical_formula_sum   'Y2 Mg1 Mn2 O6'
_cell_volume   152.62884663
_cell_formula_units_Z   1
loop_
 _symmetry_equiv_pos_site_id
 _symmetry_equiv_pos_as_xyz
  1  'x, y, z'
loop_
 _atom_site_type_symbol
 _atom_site_label
 _atom_site_symmetry_multiplicity
 _atom_site_fract_x
 _atom_site_fract_y
 _atom_site_fract_z
 _atom_site_occupancy
  Y  Y0  1  0.00215208  0.99784792  0.44317941  1
  Y  Y1  1  0.00014120  0.99985880  0.02039453  1
  Mg  Mg0  1  0.33609447  0.66390553  0.62847877  1
  Mn  Mn0  1  0.66634094  0.33365606  0.79416776  1
  Mn  Mn1  1  0.33370246  0.66629954  0.24261368  1
  O  O0  1  0.33449050  0.66551150  0.41505347  1
  O  O1  1  0.66633487  0.33366213  0.93609985  1
  O  O2  1  0.66744616  0.33255084  0.57141453  1
  O  O3  1  0.33349608  0.66650592  0.08943616  1
  O  O4  1  0.00127681  0.99872319  0.27591588  1
  O  O5  1  0.99780743  0.00219257  0.73324697  1
loop_
_geom_bond_atom_site_label_1
_geom_bond_atom_site_label_2
_geom_bond_distance
_geom_bond_site_symmetry_2
Mg0 O2 2.193483 1_555
Mg0 O2 2.200491 1_565
Mg0 O2 2.200499 1_455
Mg0 O5 2.503437 1_565
Mg0 O5 2.503437 1_455
Mg0 O5 2.551960 1_465
Mn0 O1 1.988881 1_555
Mn0 O5 2.214552 1_555
Mn0 O5 2.220297 1_455
Mn0 O5 2.220305 1_565
Mn1 O4 2.099791 1_655
Mn1 O4 2.099797 1_545
Mn1 O4 2.100549 1_555
Mn1 O3 2.146458 1_555
Mn1 O0 2.416371 1_555
O0 Y0 2.084876 1_555
O0 Y0 2.085252 1_655
O0 Y0 2.085258 1_545
O1 Y1 2.362219 1_546
O1 Y1 2.362227 1_656
O1 Y1 2.367017 1_646
O2 Y0 2.717146 1_545
O2 Y0 2.717153 1_655
O2 Y0 2.738424 1_645
O3 Y1 2.263872 1_655
O3 Y1 2.263878 1_545
O3 Y1 2.266047 1_555
O4 Y0 2.343837 1_555
