# generated using pymatgen
data_MgMn6(O5F)2
_symmetry_space_group_name_H-M   'P 1'
_cell_length_a   5.07264386
_cell_length_b   5.16738799
_cell_length_c   8.76160447
_cell_angle_alpha   89.99795707
_cell_angle_beta   90.00559115
_cell_angle_gamma   101.20053498
_symmetry_Int_Tables_number   1
_chemical_formula_structural   MgMn6(O5F)2
_chemical_formula_sum   'Mg1 Mn6 O10 F2'
_cell_volume   225.28767670
_cell_formula_units_Z   1
loop_
 _symmetry_equiv_pos_site_id
 _symmetry_equiv_pos_as_xyz
  1  'x, y, z'
loop_
 _atom_site_type_symbol
 _atom_site_label
 _atom_site_symmetry_multiplicity
 _atom_site_fract_x
 _atom_site_fract_y
 _atom_site_fract_z
 _atom_site_occupancy
  Mg  Mg0  1  0.52026703  0.04609486  0.66643589  1
  Mn  Mn0  1  0.02028590  0.98941287  0.00863245  1
  Mn  Mn1  1  0.02032273  0.98940580  0.32443253  1
  Mn  Mn2  1  0.01594877  0.96515259  0.66654024  1
  Mn  Mn3  1  0.45242423  0.54390788  0.84107565  1
  Mn  Mn4  1  0.51564787  0.49803174  0.16656567  1
  Mn  Mn5  1  0.45241223  0.54393869  0.49204069  1
  O  O0  1  0.18701479  0.84154926  0.16654289  1
  O  O1  1  0.21410728  0.85136918  0.50693292  1
  O  O2  1  0.21408778  0.85136894  0.82613741  1
  O  O3  1  0.30205434  0.31240563  0.00205395  1
  O  O4  1  0.30208052  0.31240361  0.33107110  1
  O  O5  1  0.30336237  0.32174777  0.66654274  1
  O  O6  1  0.71406463  0.68546551  0.99749748  1
  O  O7  1  0.71411694  0.68546250  0.33564093  1
  O  O8  1  0.66190428  0.71245797  0.66656764  1
  O  O9  1  0.84970788  0.13288569  0.16653758  1
  F  F0  1  0.81873923  0.15014122  0.50950852  1
  F  F1  1  0.81867121  0.15013129  0.82353072  1
loop_
_geom_bond_atom_site_label_1
_geom_bond_atom_site_label_2
_geom_bond_distance
_geom_bond_site_symmetry_2
Mg0 O5 1.961735 1_555
Mg0 O8 1.992411 1_545
Mg0 O1 2.184036 1_545
Mg0 O2 2.185360 1_545
Mn0 O9 1.860633 1_465
Mn0 O0 1.861197 1_555
Mn0 O3 1.976148 1_565
Mn0 O6 1.985304 1_454
Mn0 O2 2.074790 1_554
Mn1 O9 1.860521 1_465
Mn1 O0 1.861107 1_555
Mn1 O4 1.976146 1_565
Mn1 O7 1.985282 1_455
Mn1 O1 2.074575 1_555
Mn2 O2 1.881614 1_555
Mn2 O1 1.881915 1_555
Mn2 O8 2.004846 1_455
Mn2 O5 2.115975 1_565
Mn3 O3 1.909916 1_556
Mn3 O6 1.948692 1_555
Mn3 O8 1.966256 1_555
Mn3 O5 1.972490 1_555
Mn3 O2 2.179257 1_555
Mn4 O6 1.940841 1_554
Mn4 O7 1.940897 1_555
Mn4 O3 1.941043 1_555
Mn4 O4 1.941051 1_555
Mn4 O0 2.660741 1_555
Mn4 O9 2.770183 1_555
Mn5 O4 1.909852 1_555
Mn5 O7 1.948857 1_555
Mn5 O8 1.966245 1_555
Mn5 O5 1.972395 1_555
Mn5 O1 2.179010 1_555
F0 Mg0 2.038616 1_555
F0 Mn2 2.044164 1_645
F0 Mn1 2.166872 1_645
F1 Mg0 2.039188 1_555
F1 Mn2 2.044269 1_645
F1 Mn0 2.166892 1_646
