# generated using pymatgen
data_Na3TiSi2SnPO12
_symmetry_space_group_name_H-M   'P 1'
_cell_length_a   8.98619610
_cell_length_b   8.99070450
_cell_length_c   22.15985124
_cell_angle_alpha   89.81161034
_cell_angle_beta   90.15677227
_cell_angle_gamma   120.12687435
_symmetry_Int_Tables_number   1
_chemical_formula_structural   Na3TiSi2SnPO12
_chemical_formula_sum   'Na18 Ti6 Si12 Sn6 P6 O72'
_cell_volume   1548.48764388
_cell_formula_units_Z   6
loop_
 _symmetry_equiv_pos_site_id
 _symmetry_equiv_pos_as_xyz
  1  'x, y, z'
loop_
 _atom_site_type_symbol
 _atom_site_label
 _atom_site_symmetry_multiplicity
 _atom_site_fract_x
 _atom_site_fract_y
 _atom_site_fract_z
 _atom_site_occupancy
  Na  Na0  1  0.00184398  0.99711836  0.50065680  1
  Na  Na1  1  0.00948671  0.00264323  0.00179347  1
  Na  Na2  1  0.66622155  0.32570299  0.83161587  1
  Na  Na3  1  0.67273355  0.33499837  0.33696189  1
  Na  Na4  1  0.32997548  0.65942496  0.16682326  1
  Na  Na5  1  0.33626489  0.66591436  0.66425240  1
  Na  Na6  1  0.63465912  0.00007620  0.25121288  1
  Na  Na7  1  0.00081212  0.63087018  0.25152957  1
  Na  Na8  1  0.99176263  0.36126158  0.74846707  1
  Na  Na9  1  0.37028776  0.00458821  0.75115458  1
  Na  Na10  1  0.29870616  0.33557915  0.58226189  1
  Na  Na11  1  0.66807185  0.96518903  0.58489386  1
  Na  Na12  1  0.66822056  0.69486372  0.08590604  1
  Na  Na13  1  0.03387038  0.33271801  0.08571598  1
  Na  Na14  1  0.97413748  0.66856257  0.91802796  1
  Na  Na15  1  0.33087954  0.29762716  0.91873111  1
  Na  Na16  1  0.33297917  0.03518745  0.41660839  1
  Na  Na17  1  0.69987509  0.66306715  0.41932068  1
  Ti  Ti0  1  0.98805403  0.99827329  0.35487187  1
  Ti  Ti1  1  0.99622968  0.99457274  0.64671089  1
  Ti  Ti2  1  0.00720063  0.00258389  0.14763961  1
  Ti  Ti3  1  0.65491736  0.32976121  0.68445704  1
  Ti  Ti4  1  0.67330344  0.33727785  0.48229406  1
  Ti  Ti5  1  0.33551371  0.67786254  0.51942448  1
  Si  Si0  1  0.70986947  0.71080608  0.25040557  1
  Si  Si1  1  0.00199728  0.28742126  0.24911029  1
  Si  Si2  1  0.29335740  0.29287819  0.74795373  1
  Si  Si3  1  0.70827780  0.00052639  0.74694220  1
  Si  Si4  1  0.37272453  0.04197859  0.58237701  1
  Si  Si5  1  0.66929565  0.62496036  0.58223574  1
  Si  Si6  1  0.96215413  0.63066272  0.08457011  1
  Si  Si7  1  0.37093229  0.33028170  0.08251307  1
  Si  Si8  1  0.03757015  0.37101924  0.91606366  1
  Si  Si9  1  0.33567418  0.96128092  0.91378353  1
  Si  Si10  1  0.62562791  0.96264840  0.41686101  1
  Si  Si11  1  0.03970081  0.66358456  0.41593883  1
  Sn  Sn0  1  -0.00001684  0.00424618  0.85119327  1
  Sn  Sn1  1  0.66472407  0.33663431  0.18775282  1
  Sn  Sn2  1  0.66361051  0.32802081  0.98142822  1
  Sn  Sn3  1  0.32927729  0.66787502  0.01917175  1
  Sn  Sn4  1  0.33019233  0.65944203  0.31452066  1
  Sn  Sn5  1  0.33770405  0.66902111  0.81169073  1
  P  P0  1  0.28609071  0.00264748  0.25224453  1
  P  P1  1  0.99193378  0.70564645  0.74928377  1
  P  P2  1  0.95766149  0.33773715  0.58467438  1
  P  P3  1  0.66721214  0.03912955  0.08584402  1
  P  P4  1  0.62715982  0.66964758  0.91775172  1
  P  P5  1  0.33192473  0.37381149  0.41961144  1
  O  O0  1  0.20556337  0.02229957  0.31000359  1
  O  O1  1  0.83158703  0.80508501  0.31042274  1
  O  O2  1  0.97740329  0.16152054  0.30693472  1
  O  O3  1  0.22360368  0.17433358  0.80924533  1
  O  O4  1  0.96564655  0.77757763  0.80940837  1
  O  O5  1  0.83165616  0.04358999  0.80587917  1
  O  O6  1  0.80488859  0.97623956  0.68798523  1
  O  O7  1  0.16504436  0.19316609  0.69059542  1
  O  O8  1  0.02120812  0.83245587  0.69670745  1
  O  O9  1  0.80508217  0.83107010  0.19122983  1
  O  O10  1  0.02250811  0.19595908  0.18868664  1
  O  O11  1  0.17278872  0.97976264  0.19615456  1
  O  O12  1  0.87634998  0.36036201  0.64229113  1
  O  O13  1  0.49877666  0.13004560  0.64168724  1
  O  O14  1  0.63932461  0.49249006  0.63824643  1
  O  O15  1  0.88192063  0.50374922  0.14380865  1
  O  O16  1  0.63380190  0.11332670  0.14375805  1
  O  O17  1  0.50220449  0.37627561  0.13935339  1
  O  O18  1  0.44631113  0.29592152  0.02041201  1
  O  O19  1  0.83789732  0.54872033  0.02471698  1
  O  O20  1  0.70516249  0.15881958  0.03101083  1
  O  O21  1  0.46885186  0.16748424  0.52428757  1
  O  O22  1  0.69423753  0.53295830  0.52230234  1
  O  O23  1  0.83571481  0.30800669  0.52990894  1
  O  O24  1  0.55288956  0.69783792  0.97638895  1
  O  O25  1  0.15963064  0.45070659  0.97600623  1
  O  O26  1  0.29600621  0.83561090  0.97163804  1
  O  O27  1  0.53290238  0.83150220  0.47488259  1
  O  O28  1  0.30749752  0.45985656  0.47559401  1
  O  O29  1  0.17710264  0.69393906  0.47084468  1
  O  O30  1  0.11270883  0.62835204  0.35312363  1
  O  O31  1  0.50422221  0.88334615  0.35626709  1
  O  O32  1  0.37690449  0.49299468  0.36289192  1
  O  O33  1  0.12148312  0.49269540  0.85571165  1
  O  O34  1  0.36646987  0.88310804  0.85165709  1
  O  O35  1  0.50759070  0.63276157  0.86296824  1
  O  O36  1  0.02894661  0.84157388  0.41322033  1
  O  O37  1  0.81216567  0.97053548  0.41144530  1
  O  O38  1  0.17399903  0.19223347  0.41197523  1
  O  O39  1  0.02565116  0.18432512  0.91279651  1
  O  O40  1  0.15599818  0.97007817  0.91185722  1
  O  O41  1  0.81024166  0.82472887  0.91134863  1
  O  O42  1  0.97168365  0.17076906  0.58679545  1
  O  O43  1  0.18697771  0.03147645  0.58951201  1
  O  O44  1  0.83586610  0.81896024  0.58892385  1
  O  O45  1  0.97306093  0.81686335  0.09207073  1
  O  O46  1  0.83036138  0.02198118  0.09014028  1
  O  O47  1  0.17634435  0.16554454  0.09014518  1
  O  O48  1  0.69169253  0.17424932  0.74125541  1
  O  O49  1  0.48282266  0.30997821  0.74022256  1
  O  O50  1  0.84005639  0.52410561  0.74164821  1
  O  O51  1  0.70178703  0.52461793  0.24972785  1
  O  O52  1  0.82111582  0.29486076  0.24817071  1
  O  O53  1  0.47177665  0.15944626  0.24701253  1
  O  O54  1  0.64326948  0.50473962  0.92069016  1
  O  O55  1  0.85332701  0.36623799  0.92156438  1
  O  O56  1  0.49926327  0.15719227  0.91847106  1
  O  O57  1  0.64009543  0.14901404  0.42561985  1
  O  O58  1  0.49498444  0.35415084  0.42419010  1
  O  O59  1  0.84518186  0.49972979  0.42453930  1
  O  O60  1  0.35897952  0.50812907  0.07958598  1
  O  O61  1  0.14926806  0.64270448  0.08070546  1
  O  O62  1  0.51128993  0.85517685  0.07901322  1
  O  O63  1  0.36303135  0.85458875  0.57599544  1
  O  O64  1  0.49277875  0.63788983  0.57806475  1
  O  O65  1  0.14055546  0.49347331  0.57683367  1
  O  O66  1  0.30103289  0.83595818  0.25209925  1
  O  O67  1  0.52424404  0.70462254  0.25380792  1
  O  O68  1  0.16696940  0.48302697  0.25181565  1
  O  O69  1  0.29571566  0.47641974  0.75143921  1
  O  O70  1  0.16224845  0.69698941  0.74998229  1
  O  O71  1  0.51361325  0.83206607  0.74904987  1
loop_
_geom_bond_atom_site_label_1
_geom_bond_atom_site_label_2
_geom_bond_distance
_geom_bond_site_symmetry_2
Na0 O36 2.476187 1_555
Na0 O43 2.492063 1_565
Na0 O44 2.492647 1_455
Na0 O37 2.538960 1_455
Na0 O42 2.569380 1_465
Na0 O38 2.569476 1_565
Na1 O47 2.454556 1_555
Na1 O40 2.489216 1_544
Na1 O39 2.514134 1_554
Na1 O45 2.516331 1_445
Na1 O46 2.598928 1_455
Na1 O41 2.628282 1_444
Na2 O56 2.442463 1_555
Na2 O48 2.499871 1_555
Na2 O55 2.510811 1_555
Na2 O49 2.566612 1_555
Na2 O50 2.606396 1_555
Na2 O54 2.624143 1_555
Na3 O59 2.461665 1_555
Na3 O57 2.496222 1_555
Na3 O51 2.499138 1_555
Na3 O52 2.506322 1_555
Na3 O58 2.571481 1_555
Na3 O53 2.620143 1_555
Na4 O68 2.423136 1_555
Na4 O60 2.455870 1_555
Na4 O61 2.457899 1_555
Na4 O67 2.490554 1_555
Na4 O66 2.567972 1_555
Na4 O62 2.579688 1_555
Na5 O71 2.431999 1_555
Na5 O64 2.462308 1_555
Na5 O69 2.475312 1_555
Na5 O63 2.516252 1_555
Na5 O65 2.552126 1_555
Na5 O70 2.567248 1_555
Na6 O52 2.319026 1_555
Na6 O67 2.323246 1_545
Na6 O53 2.511531 1_555
Na6 O31 2.580474 1_545
Na6 O16 2.588176 1_555
Na6 O66 2.593309 1_545
Na6 O2 2.936156 1_555
Na6 O9 2.963336 1_545
Na7 O51 2.357444 1_455
Na7 O66 2.384285 1_555
Na7 O68 2.447130 1_555
Na7 O30 2.467816 1_555
Na7 O52 2.615951 1_455
Na7 O15 2.631362 1_455
Na8 O48 2.360473 1_555
Na8 O69 2.386927 1_655
Na8 O50 2.454761 1_555
Na8 O12 2.567081 1_555
Na8 O70 2.611034 1_655
Na8 O33 2.650213 1_655
Na8 O5 2.776154 1_555
Na8 O7 2.956236 1_655
Na9 O49 2.414494 1_555
Na9 O70 2.440097 1_545
Na9 O71 2.464363 1_545
Na9 O34 2.470007 1_545
Na9 O48 2.509065 1_555
Na9 O13 2.679519 1_555
Na9 O3 2.786611 1_555
Na9 O8 2.968035 1_545
Na10 O64 2.382961 1_555
Na10 O43 2.398238 1_555
Na10 O65 2.464255 1_555
Na10 O42 2.543838 1_455
Na10 O28 2.595578 1_555
Na10 O7 2.701295 1_555
Na10 O14 2.924770 1_555
Na10 O21 2.935178 1_555
Na11 O42 2.408217 1_565
Na11 O63 2.409095 1_555
Na11 O44 2.449164 1_555
Na11 O64 2.551851 1_555
Na11 O6 2.569795 1_555
Na11 O27 2.720406 1_555
Na11 O13 2.895068 1_565
Na11 O23 2.928861 1_565
Na12 O45 2.389260 1_555
Na12 O60 2.424177 1_555
Na12 O62 2.475315 1_555
Na12 O46 2.545744 1_565
Na12 O9 2.636435 1_555
Na12 O24 2.641628 1_554
Na12 O17 2.744196 1_555
Na12 O19 2.814956 1_555
Na13 O47 2.416164 1_555
Na13 O61 2.439766 1_555
Na13 O46 2.455503 1_455
Na13 O60 2.533068 1_555
Na13 O10 2.566266 1_555
Na13 O25 2.666008 1_554
Na13 O20 2.827734 1_455
Na13 O15 2.831339 1_455
Na14 O40 2.364259 1_655
Na14 O55 2.368492 1_555
Na14 O41 2.497125 1_555
Na14 O54 2.572433 1_555
Na14 O4 2.611251 1_555
Na14 O19 2.631389 1_556
Na14 O26 2.768588 1_655
Na14 O33 2.878576 1_655
Na15 O39 2.402564 1_555
Na15 O56 2.408668 1_555
Na15 O54 2.470262 1_555
Na15 O18 2.481173 1_556
Na15 O40 2.553670 1_545
Na15 O3 2.641335 1_555
Na15 O25 2.832216 1_555
Na15 O35 2.882801 1_555
Na16 O36 2.392862 1_545
Na16 O57 2.422166 1_555
Na16 O38 2.463384 1_555
Na16 O58 2.486431 1_555
Na16 O0 2.599791 1_555
Na16 O21 2.672857 1_555
Na16 O31 2.855115 1_545
Na16 O29 2.913847 1_545
Na17 O59 2.407872 1_555
Na17 O37 2.426524 1_555
Na17 O58 2.445665 1_555
Na17 O22 2.549963 1_555
Na17 O36 2.564205 1_655
Na17 O1 2.707929 1_555
Na17 O32 2.804072 1_555
Na17 O27 2.892032 1_555
O0 P0 1.525776 1_555
O0 Ti0 2.107373 1_445
O1 Si0 1.659046 1_555
O1 Ti0 1.875134 1_555
O2 Si1 1.647103 1_655
O2 Ti0 1.849856 1_545
O3 Si2 1.642586 1_555
O3 Sn0 2.038822 1_555
O4 P1 1.552399 1_555
O4 Sn0 2.117850 1_665
O5 Si3 1.627681 1_555
O5 Sn0 1.986939 1_655
O6 Si3 1.645190 1_565
O6 Ti1 1.882359 1_555
O7 Si2 1.646388 1_555
O7 Ti1 1.928563 1_445
O8 P1 1.555100 1_455
O8 Ti1 1.928402 1_455
O9 Si0 1.639784 1_555
O9 Ti2 1.948871 1_665
O10 Si1 1.632104 1_555
O10 Ti2 1.907509 1_555
O11 P0 1.551886 1_565
O11 Ti2 1.925706 1_565
O12 P2 1.536701 1_555
O12 Ti3 2.089776 1_555
O13 Si4 1.654019 1_555
O13 Ti3 1.888377 1_555
O14 Si5 1.643679 1_555
O14 Ti3 1.844968 1_555
O15 Si6 1.647582 1_555
O15 Sn1 2.017964 1_555
O16 P3 1.546271 1_555
O16 Sn1 2.123647 1_555
O17 Si7 1.629322 1_555
O17 Sn1 1.980305 1_555
O18 Si7 1.632790 1_555
O18 Sn2 2.021009 1_554
O19 Si6 1.649624 1_555
O19 Sn2 2.048181 1_554
O20 P3 1.541436 1_555
O20 Sn2 2.053725 1_554
O21 Si4 1.641503 1_555
O21 Ti4 1.938147 1_555
O22 Si5 1.641122 1_555
O22 Ti4 1.895701 1_555
O23 P2 1.563948 1_555
O23 Ti4 1.920391 1_555
O24 P4 1.541040 1_555
O24 Sn3 2.115308 1_556
O25 Si8 1.640200 1_555
O25 Sn3 2.016830 1_556
O26 Si9 1.623569 1_555
O26 Sn3 1.978285 1_556
O27 Si10 1.657520 1_555
O27 Ti5 1.889352 1_555
O28 P5 1.537503 1_555
O28 Ti5 2.089091 1_555
O29 Si11 1.653811 1_555
O29 Ti5 1.844807 1_555
O30 Si11 1.638557 1_555
O30 Sn4 2.022025 1_555
O31 Si10 1.648941 1_555
O31 Sn4 2.048898 1_555
O32 P5 1.565411 1_555
O32 Sn4 2.045040 1_555
O33 Si8 1.649784 1_555
O33 Sn5 2.036707 1_555
O34 Si9 1.633885 1_555
O34 Sn5 2.016561 1_555
O35 P4 1.541449 1_555
O35 Sn5 2.053224 1_555
O36 Si11 1.651769 1_555
O36 Ti0 2.072872 1_455
O37 Si10 1.646517 1_555
O37 Ti0 1.935241 1_555
O38 P5 1.543556 1_555
O38 Ti0 2.124188 1_445
O39 Si8 1.629234 1_555
O39 Sn0 2.043518 1_555
O40 Si9 1.656146 1_555
O40 Sn0 2.070357 1_565
O41 P4 1.538888 1_555
O41 Sn0 2.127193 1_665
O42 P2 1.568743 1_555
O42 Ti1 2.157841 1_545
O43 Si4 1.631912 1_555
O43 Ti1 2.023128 1_445
O44 Si5 1.638415 1_555
O44 Ti1 1.982055 1_555
O45 Si6 1.636091 1_555
O45 Ti2 1.973774 1_665
O46 P3 1.551870 1_555
O46 Ti2 2.108286 1_655
O47 Si7 1.637092 1_555
O47 Ti2 1.960352 1_555
O48 Si3 1.646170 1_555
O48 Ti3 2.024406 1_555
O49 Si2 1.640245 1_555
O49 Ti3 1.919170 1_555
O50 P1 1.523068 1_555
O50 Ti3 2.124148 1_555
O51 Si0 1.638830 1_555
O51 Sn1 2.073933 1_555
O52 Si1 1.660088 1_655
O52 Sn1 2.103538 1_555
O53 P0 1.556830 1_555
O53 Sn1 2.120030 1_555
O54 P4 1.561469 1_555
O54 Sn2 2.155337 1_555
O55 Si8 1.639357 1_655
O55 Sn2 2.050770 1_555
O56 Si9 1.635670 1_545
O56 Sn2 2.052371 1_555
O57 Si10 1.626469 1_545
O57 Ti4 2.009025 1_555
O58 P5 1.564504 1_555
O58 Ti4 2.116606 1_555
O59 Si11 1.636164 1_655
O59 Ti4 1.972509 1_555
O60 Si7 1.656546 1_555
O60 Sn3 2.072803 1_555
O61 Si6 1.632266 1_455
O61 Sn3 2.041998 1_555
O62 P3 1.547802 1_565
O62 Sn3 2.123062 1_555
O63 Si4 1.649306 1_565
O63 Ti5 1.942742 1_555
O64 Si5 1.649957 1_555
O64 Ti5 2.076448 1_555
O65 P2 1.543298 1_455
O65 Ti5 2.125755 1_555
O66 P0 1.570363 1_565
O66 Sn4 2.213966 1_555
O67 Si0 1.642800 1_555
O67 Sn4 2.077029 1_555
O68 Si1 1.636214 1_555
O68 Sn4 2.065401 1_555
O69 Si2 1.641705 1_555
O69 Sn5 2.068845 1_555
O70 P1 1.571022 1_455
O70 Sn5 2.191572 1_555
O71 Si3 1.642115 1_565
O71 Sn5 2.060826 1_555
