# generated using pymatgen
data_Er(PO3)3
_symmetry_space_group_name_H-M   'P 1'
_cell_length_a   9.65624669
_cell_length_b   6.93331082
_cell_length_c   10.89710196
_cell_angle_alpha   88.39398799
_cell_angle_beta   90.00000000
_cell_angle_gamma   90.00000000
_symmetry_Int_Tables_number   1
_chemical_formula_structural   Er(PO3)3
_chemical_formula_sum   'Er4 P12 O36'
_cell_volume   729.27177154
_cell_formula_units_Z   4
loop_
 _symmetry_equiv_pos_site_id
 _symmetry_equiv_pos_as_xyz
  1  'x, y, z'
loop_
 _atom_site_type_symbol
 _atom_site_label
 _atom_site_symmetry_multiplicity
 _atom_site_fract_x
 _atom_site_fract_y
 _atom_site_fract_z
 _atom_site_occupancy
  Er  Er0  1  0.75000000  0.82942402  0.46355340  1
  Er  Er1  1  0.75000000  0.68821764  0.98249717  1
  Er  Er2  1  0.25000000  0.31178236  0.01750283  1
  Er  Er3  1  0.25000000  0.17057598  0.53644660  1
  P  P0  1  0.75000000  0.31522246  0.37348748  1
  P  P1  1  0.46520867  0.32522996  0.28397847  1
  P  P2  1  0.03479133  0.32522996  0.28397847  1
  P  P3  1  0.51048492  0.73462308  0.23287710  1
  P  P4  1  0.98951508  0.73462308  0.23287710  1
  P  P5  1  0.25000000  0.82318584  0.10267087  1
  P  P6  1  0.48951508  0.26537692  0.76712290  1
  P  P7  1  0.01048492  0.26537692  0.76712290  1
  P  P8  1  0.75000000  0.17681416  0.89732913  1
  P  P9  1  0.53479133  0.67477004  0.71602153  1
  P  P10  1  0.96520867  0.67477004  0.71602153  1
  P  P11  1  0.25000000  0.68477754  0.62651252  1
  O  O0  1  0.75000000  0.51286286  0.42275288  1
  O  O1  1  0.75000000  0.14845192  0.46228797  1
  O  O2  1  0.62740549  0.29387650  0.27727084  1
  O  O3  1  0.87259451  0.29387650  0.27727084  1
  O  O4  1  0.40748958  0.22646081  0.39501956  1
  O  O5  1  0.09251042  0.22646081  0.39501956  1
  O  O6  1  0.40856777  0.27893577  0.16213101  1
  O  O7  1  0.09143223  0.27893577  0.16213101  1
  O  O8  1  0.44939990  0.55098541  0.30589464  1
  O  O9  1  0.05060010  0.55098541  0.30589464  1
  O  O10  1  0.58673682  0.85327788  0.32138902  1
  O  O11  1  0.91326318  0.85327788  0.32138902  1
  O  O12  1  0.58524164  0.67097143  0.12170610  1
  O  O13  1  0.91475836  0.67097143  0.12170610  1
  O  O14  1  0.37518351  0.84988569  0.19586976  1
  O  O15  1  0.12481649  0.84988569  0.19586976  1
  O  O16  1  0.25000000  0.48713714  0.57724712  1
  O  O17  1  0.25000000  0.85154808  0.53771203  1
  O  O18  1  0.90748958  0.77353919  0.60498044  1
  O  O19  1  0.59251042  0.77353919  0.60498044  1
  O  O20  1  0.94939990  0.44901459  0.69410536  1
  O  O21  1  0.55060010  0.44901459  0.69410536  1
  O  O22  1  0.90856777  0.72106423  0.83786899  1
  O  O23  1  0.59143223  0.72106423  0.83786899  1
  O  O24  1  0.12740549  0.70612350  0.72272916  1
  O  O25  1  0.37259451  0.70612350  0.72272916  1
  O  O26  1  0.08673682  0.14672212  0.67861098  1
  O  O27  1  0.41326318  0.14672212  0.67861098  1
  O  O28  1  0.87518351  0.15011431  0.80413024  1
  O  O29  1  0.62481649  0.15011431  0.80413024  1
  O  O30  1  0.08524164  0.32902857  0.87829390  1
  O  O31  1  0.41475836  0.32902857  0.87829390  1
  O  O32  1  0.75000000  0.00949466  0.98500169  1
  O  O33  1  0.75000000  0.37516887  0.94533621  1
  O  O34  1  0.25000000  0.99050534  0.01499831  1
  O  O35  1  0.25000000  0.62483113  0.05466379  1
loop_
_geom_bond_atom_site_label_1
_geom_bond_atom_site_label_2
_geom_bond_distance
_geom_bond_site_symmetry_2
Er0 O19 2.191915 1_555
Er0 O18 2.191915 1_555
Er0 O1 2.211576 1_565
Er0 O11 2.213217 1_555
Er0 O10 2.213217 1_555
Er0 O0 2.251576 1_555
Er1 O12 2.199194 1_556
Er1 O13 2.199194 1_556
Er1 O22 2.204561 1_555
Er1 O23 2.204561 1_555
Er1 O33 2.219046 1_555
Er1 O32 2.228445 1_565
Er2 O30 2.199194 1_554
Er2 O31 2.199194 1_554
Er2 O7 2.204561 1_555
Er2 O6 2.204561 1_555
Er2 O35 2.219046 1_555
Er2 O34 2.228445 1_545
Er3 O5 2.191915 1_555
Er3 O4 2.191915 1_555
Er3 O17 2.211576 1_545
Er3 O26 2.213217 1_555
Er3 O27 2.213217 1_555
Er3 O16 2.251576 1_555
O0 P0 1.485655 1_555
O1 P0 1.486818 1_555
O2 P1 1.583196 1_555
O2 P0 1.591008 1_555
O3 P2 1.583196 1_655
O3 P0 1.591008 1_555
O4 P1 1.482330 1_555
O5 P2 1.482330 1_555
O6 P1 1.479549 1_555
O7 P2 1.479549 1_555
O8 P3 1.595408 1_555
O8 P1 1.597262 1_555
O9 P4 1.595408 1_455
O9 P2 1.597262 1_555
O10 P3 1.481120 1_555
O11 P4 1.481120 1_555
O12 P3 1.487755 1_555
O13 P4 1.487755 1_555
O14 P3 1.578024 1_555
O14 P5 1.592938 1_555
O15 P4 1.578024 1_455
O15 P5 1.592938 1_555
O16 P11 1.485655 1_555
O17 P11 1.486818 1_555
O18 P10 1.482330 1_555
O19 P9 1.482330 1_555
O20 P7 1.595408 1_655
O20 P10 1.597262 1_555
O21 P6 1.595408 1_555
O21 P9 1.597262 1_555
O22 P10 1.479549 1_555
O23 P9 1.479549 1_555
O24 P10 1.583196 1_455
O24 P11 1.591008 1_555
O25 P9 1.583196 1_555
O25 P11 1.591008 1_555
O26 P7 1.481120 1_555
O27 P6 1.481120 1_555
O28 P7 1.578024 1_655
O28 P8 1.592938 1_555
O29 P6 1.578024 1_555
O29 P8 1.592938 1_555
O30 P7 1.487755 1_555
O31 P6 1.487755 1_555
O32 P8 1.482026 1_555
O33 P8 1.485034 1_555
O34 P5 1.482026 1_555
O35 P5 1.485034 1_555
