# generated using pymatgen
data_Na3Mg(NiO2)5
_symmetry_space_group_name_H-M   'P 1'
_cell_length_a   8.79983833
_cell_length_b   5.10710771
_cell_length_c   6.27797963
_cell_angle_alpha   74.37677448
_cell_angle_beta   104.62501541
_cell_angle_gamma   72.75712795
_symmetry_Int_Tables_number   1
_chemical_formula_structural   Na3Mg(NiO2)5
_chemical_formula_sum   'Na3 Mg1 Ni5 O10'
_cell_volume   241.97638105
_cell_formula_units_Z   1
loop_
 _symmetry_equiv_pos_site_id
 _symmetry_equiv_pos_as_xyz
  1  'x, y, z'
loop_
 _atom_site_type_symbol
 _atom_site_label
 _atom_site_symmetry_multiplicity
 _atom_site_fract_x
 _atom_site_fract_y
 _atom_site_fract_z
 _atom_site_occupancy
  Na  Na0  1  0.20084676  0.40331956  0.68700820  1
  Na  Na1  1  0.84037681  0.70128236  0.26525843  1
  Na  Na2  1  0.36606076  0.74587404  0.89471889  1
  Mg  Mg0  1  0.69937264  0.40859279  0.68253881  1
  Ni  Ni0  1  0.03607754  0.04215462  0.99534526  1
  Ni  Ni1  1  0.19391602  0.40319813  0.18976857  1
  Ni  Ni2  1  0.34397517  0.77355912  0.37970162  1
  Ni  Ni3  1  0.52313920  0.11916372  0.58322082  1
  Ni  Ni4  1  0.87919922  0.69240284  0.77458737  1
  O  O0  1  0.26866712  0.08606943  0.08401901  1
  O  O1  1  0.29718792  0.08475336  0.49399824  1
  O  O2  1  0.11370147  0.72060011  0.29124155  1
  O  O3  1  0.40346935  0.46379377  0.26310118  1
  O  O4  1  0.10038330  0.71408133  0.89020000  1
  O  O5  1  0.97811040  0.36371575  0.10680803  1
  O  O6  1  0.46198679  0.47781150  0.68305945  1
  O  O7  1  0.67539029  0.80881168  0.51835994  1
  O  O8  1  0.94489940  0.35416324  0.69420940  1
  O  O9  1  0.76768284  0.99220865  0.86035522  1
loop_
_geom_bond_atom_site_label_1
_geom_bond_atom_site_label_2
_geom_bond_distance
_geom_bond_site_symmetry_2
Na0 O8 2.349132 1_455
Na0 O2 2.349400 1_555
Na0 O1 2.365764 1_555
Na0 O0 2.386205 1_556
Na0 O4 2.399128 1_555
Na0 O6 2.442967 1_555
Na1 O9 2.378973 1_554
Na1 O5 2.392584 1_555
Na1 O2 2.402626 1_655
Na1 O7 2.469123 1_555
Na1 O8 2.540047 1_555
Na2 O3 2.252149 1_556
Na2 O6 2.283337 1_555
Na2 O4 2.384757 1_555
Na2 O0 2.430883 1_566
Na2 O1 2.440191 1_565
Mg0 O9 1.937599 1_545
Mg0 O7 1.945347 1_555
Mg0 O6 2.013702 1_555
Mg0 O8 2.074570 1_555
Ni0 O8 1.900114 1_455
Ni0 O2 1.914501 1_546
Ni0 O5 1.936346 1_456
Ni0 O4 1.945641 1_545
Ni0 O0 2.076873 1_556
Ni0 O9 2.413367 1_445
Ni1 O4 1.889584 1_554
Ni1 O2 1.907009 1_555
Ni1 O0 1.914332 1_555
Ni1 O1 1.921704 1_555
Ni1 O3 1.922118 1_555
Ni1 O5 1.924173 1_455
Ni2 O6 1.873183 1_555
Ni2 O1 1.893617 1_565
Ni2 O0 1.894270 1_565
Ni2 O3 1.907600 1_555
Ni2 O2 2.079733 1_555
Ni3 O7 1.958888 1_545
Ni3 O1 1.998966 1_555
Ni3 O3 2.042775 1_555
Ni3 O6 2.059548 1_555
Ni3 O9 2.180103 1_545
Ni4 O9 1.848630 1_555
Ni4 O7 1.885076 1_555
Ni4 O8 1.896744 1_555
Ni4 O4 1.945537 1_655
Ni4 O5 2.063195 1_556
