# generated using pymatgen
data_Ba4Mg(Fe2O5)2
_symmetry_space_group_name_H-M   'P 1'
_cell_length_a   5.77710236
_cell_length_b   5.75346475
_cell_length_c   9.51692550
_cell_angle_alpha   94.98256245
_cell_angle_beta   107.16886873
_cell_angle_gamma   89.49921099
_symmetry_Int_Tables_number   1
_chemical_formula_structural   Ba4Mg(Fe2O5)2
_chemical_formula_sum   'Ba4 Mg1 Fe4 O10'
_cell_volume   301.04153927
_cell_formula_units_Z   1
loop_
 _symmetry_equiv_pos_site_id
 _symmetry_equiv_pos_as_xyz
  1  'x, y, z'
loop_
 _atom_site_type_symbol
 _atom_site_label
 _atom_site_symmetry_multiplicity
 _atom_site_fract_x
 _atom_site_fract_y
 _atom_site_fract_z
 _atom_site_occupancy
  Ba  Ba0  1  0.60202292  0.09924493  0.23212094  1
  Ba  Ba1  1  0.36317126  0.86607694  0.75784178  1
  Ba  Ba2  1  0.14010460  0.65863183  0.31019842  1
  Ba  Ba3  1  0.80095859  0.27406044  0.66637745  1
  Mg  Mg0  1  0.96563766  0.59104295  0.94749557  1
  Fe  Fe0  1  0.01101689  0.08493508  0.04239933  1
  Fe  Fe1  1  0.49622438  0.53364783  0.01191470  1
  Fe  Fe2  1  0.21364527  0.20434733  0.46904797  1
  Fe  Fe3  1  0.75821196  0.75505996  0.53204212  1
  O  O0  1  0.20674595  0.30393963  0.96584483  1
  O  O1  1  0.25692396  0.79714655  0.04558912  1
  O  O2  1  0.74142871  0.30721496  0.96460779  1
  O  O3  1  0.76903773  0.80002942  0.04653615  1
  O  O4  1  0.11143859  0.16455775  0.24999018  1
  O  O5  1  0.86610601  0.72980823  0.74360562  1
  O  O6  1  0.71650198  0.49539198  0.39706721  1
  O  O7  1  0.32659231  0.42854212  0.62637049  1
  O  O8  1  0.98775393  0.95943815  0.49849232  1
  O  O9  1  0.48406129  0.94688491  0.49245704  1
loop_
_geom_bond_atom_site_label_1
_geom_bond_atom_site_label_2
_geom_bond_distance
_geom_bond_site_symmetry_2
Ba0 O6 2.624571 1_555
Ba0 O3 2.731840 1_545
Ba0 O1 2.753594 1_545
Ba0 O4 2.908161 1_555
Ba0 O4 2.922982 1_655
Ba0 O9 2.959028 1_545
Ba0 O8 3.004496 1_545
Ba0 O0 3.174652 1_554
Ba0 O2 3.212235 1_554
Ba1 O7 2.693186 1_555
Ba1 O8 2.852010 1_455
Ba1 O9 2.886835 1_555
Ba1 O5 2.944541 1_455
Ba1 O1 3.036200 1_556
Ba1 O5 3.041239 1_555
Ba1 O3 3.090847 1_556
Ba1 Fe1 3.126658 1_556
Ba1 O0 3.351394 1_565
Ba1 O2 3.432193 1_565
Ba2 O9 2.688986 1_555
Ba2 O8 2.710515 1_455
Ba2 O4 2.847036 1_555
Ba2 O3 2.949918 1_455
Ba2 O1 2.965403 1_555
Ba2 O6 2.987274 1_455
Ba2 O4 3.008976 1_565
Ba2 Fe2 3.095991 1_555
Ba2 O7 3.274189 1_555
Ba2 O6 3.332984 1_555
Ba3 O5 2.660183 1_555
Ba3 O9 2.713804 1_545
Ba3 O8 2.734124 1_545
Ba3 O7 2.800941 1_555
Ba3 O6 2.871664 1_555
Ba3 O2 2.948104 1_555
Ba3 O0 3.102456 1_655
Ba3 O5 3.271539 1_545
Ba3 O7 3.308272 1_655
Mg0 O1 2.006132 1_656
Mg0 O3 2.008845 1_556
Mg0 O5 2.082206 1_555
Mg0 O0 2.136712 1_655
Mg0 O2 2.139777 1_555
Fe0 O4 1.902709 1_555
Fe0 O2 2.014490 1_454
Fe0 O0 2.016883 1_554
Fe0 O1 2.168611 1_545
Fe0 O3 2.174052 1_445
Fe1 O2 2.036901 1_554
Fe1 O0 2.059308 1_554
Fe1 O1 2.110164 1_555
Fe1 O3 2.142289 1_555
Fe2 O7 1.853040 1_555
Fe2 O4 1.984940 1_555
Fe2 O8 2.020807 1_445
Fe2 O9 2.120335 1_545
Fe3 O6 1.852114 1_555
Fe3 O9 1.886215 1_555
Fe3 O8 1.893568 1_555
Fe3 O5 1.942125 1_555
