# generated using pymatgen
data_MgMnV4O12
_symmetry_space_group_name_H-M   'P 1'
_cell_length_a   5.45138900
_cell_length_b   10.61586287
_cell_length_c   9.50248122
_cell_angle_alpha   28.44076551
_cell_angle_beta   50.52283269
_cell_angle_gamma   56.11266023
_symmetry_Int_Tables_number   1
_chemical_formula_structural   MgMnV4O12
_chemical_formula_sum   'Mg1 Mn1 V4 O12'
_cell_volume   202.15272189
_cell_formula_units_Z   1
loop_
 _symmetry_equiv_pos_site_id
 _symmetry_equiv_pos_as_xyz
  1  'x, y, z'
loop_
 _atom_site_type_symbol
 _atom_site_label
 _atom_site_symmetry_multiplicity
 _atom_site_fract_x
 _atom_site_fract_y
 _atom_site_fract_z
 _atom_site_occupancy
  Mg  Mg0  1  0.18694800  0.48645100  0.20647000  1
  Mn  Mn0  1  0.29583200  0.01533500  0.27846100  1
  V  V0  1  0.04711100  0.01654000  0.95623800  1
  V  V1  1  0.94306600  0.49607100  0.02030800  1
  V  V2  1  0.52371600  0.98161100  0.49717600  1
  V  V3  1  0.48737400  0.50943700  0.50116600  1
  O  O0  1  0.31744200  0.28527700  0.15006100  1
  O  O1  1  0.25139700  0.11069700  0.61339800  1
  O  O2  1  0.13763300  0.30832000  0.71809000  1
  O  O3  1  0.89059100  0.17719900  0.23025400  1
  O  O4  1  0.31582500  0.80637200  0.12954900  1
  O  O5  1  0.73185900  0.39560200  0.33956500  1
  O  O6  1  0.23074600  0.65363800  0.57902900  1
  O  O7  1  0.59548900  0.21439000  0.83236100  1
  O  O8  1  0.13706400  0.76757400  0.76972000  1
  O  O9  1  0.83739700  0.69315300  0.22591000  1
  O  O10  1  0.70080000  0.91499300  0.31618500  1
  O  O11  1  0.61651100  0.66734000  0.87591100  1
loop_
_geom_bond_atom_site_label_1
_geom_bond_atom_site_label_2
_geom_bond_distance
_geom_bond_site_symmetry_2
Mg0 O1 2.006538 1_555
Mg0 O9 2.020589 1_455
Mg0 O11 2.022752 1_554
Mg0 O8 2.225507 1_554
Mg0 O0 2.277831 1_555
Mg0 O5 2.284244 1_455
Mn0 O3 1.926707 1_455
Mn0 O0 1.938909 1_555
Mn0 O10 1.961951 1_545
Mn0 O6 1.992773 1_545
Mn0 O7 2.096302 1_554
Mn0 O8 2.295052 1_545
O0 V1 1.986863 1_455
O0 V2 2.123818 1_545
O1 V2 1.899919 1_545
O1 V0 1.937549 1_555
O2 V0 1.707753 1_555
O2 V3 2.060281 1_555
O3 V2 1.913960 1_545
O3 V1 1.999617 1_555
O4 V0 1.672449 1_564
O4 V3 2.148721 1_555
O5 V1 1.704226 1_555
O5 V3 2.111841 1_555
O6 V3 1.770756 1_555
O6 V1 2.251457 1_456
O7 V3 1.739824 1_555
O7 V0 2.330047 1_655
O8 V1 1.795292 1_456
O8 V2 2.088927 1_555
O9 V3 1.765947 1_555
O9 V0 2.199932 1_664
O10 V2 1.912219 1_555
O10 V0 1.999899 1_664
O11 V1 1.861936 1_556
O11 V2 1.912082 1_555
