# generated using pymatgen
data_Na7MgSi3Ge3(PO8)3
_symmetry_space_group_name_H-M   'P 1'
_cell_length_a   8.77263629
_cell_length_b   8.77745414
_cell_length_c   21.71468982
_cell_angle_alpha   89.42242789
_cell_angle_beta   90.43146495
_cell_angle_gamma   119.84933423
_symmetry_Int_Tables_number   1
_chemical_formula_structural   Na7MgSi3Ge3(PO8)3
_chemical_formula_sum   'Na21 Mg3 Si9 Ge9 P9 O72'
_cell_volume   1450.16164523
_cell_formula_units_Z   3
loop_
 _symmetry_equiv_pos_site_id
 _symmetry_equiv_pos_as_xyz
  1  'x, y, z'
loop_
 _atom_site_type_symbol
 _atom_site_label
 _atom_site_symmetry_multiplicity
 _atom_site_fract_x
 _atom_site_fract_y
 _atom_site_fract_z
 _atom_site_occupancy
  Na  Na0  1  0.63564228  0.00606236  0.24826334  1
  Na  Na1  1  0.37122348  0.36538544  0.24836604  1
  Na  Na2  1  0.99507726  0.63152264  0.25009383  1
  Na  Na3  1  0.63428242  0.62616170  0.74917007  1
  Na  Na4  1  0.99266663  0.37074611  0.74742769  1
  Na  Na5  1  0.37162097  0.00450658  0.74782005  1
  Na  Na6  1  0.02937643  0.69380110  0.58407254  1
  Na  Na7  1  0.66630108  0.97108786  0.58158862  1
  Na  Na8  1  0.30779307  0.97245739  0.08381025  1
  Na  Na9  1  0.66299395  0.69373933  0.08380142  1
  Na  Na10  1  0.02911830  0.33317658  0.08178445  1
  Na  Na11  1  0.33401853  0.30153588  0.91762543  1
  Na  Na12  1  0.96609367  0.29015970  0.41646400  1
  Na  Na13  1  0.32392605  0.03348121  0.41615667  1
  Na  Na14  1  0.70934251  0.67493936  0.41587646  1
  Na  Na15  1  0.00576226  0.00701780  0.49645731  1
  Na  Na16  1  0.99138640  0.99510351  0.99737594  1
  Na  Na17  1  0.67809633  0.33922525  0.83471684  1
  Na  Na18  1  0.66623672  0.33322109  0.33327567  1
  Na  Na19  1  0.33650459  0.66766633  0.16535986  1
  Na  Na20  1  0.32899548  0.65742663  0.66438402  1
  Mg  Mg0  1  0.99913098  0.99976859  0.35567657  1
  Mg  Mg1  1  0.67330477  0.33851846  0.68447618  1
  Mg  Mg2  1  0.66382347  0.33046868  0.18236612  1
  Si  Si0  1  0.00333240  0.71675014  0.75252199  1
  Si  Si1  1  0.96641391  0.33501444  0.58440453  1
  Si  Si2  1  0.66285307  0.03956526  0.08315493  1
  Si  Si3  1  0.37640178  0.33422698  0.08292268  1
  Si  Si4  1  0.62651476  0.66900511  0.91610079  1
  Si  Si5  1  0.03693765  0.37510922  0.91675859  1
  Si  Si6  1  0.61686473  0.95364487  0.41905408  1
  Si  Si7  1  0.33738002  0.37950600  0.41841305  1
  Si  Si8  1  0.04471266  0.66391190  0.41834363  1
  Ge  Ge0  1  0.98994060  0.99386903  0.85634341  1
  Ge  Ge1  1  0.00819070  0.00626073  0.64674689  1
  Ge  Ge2  1  0.00035775  0.00547058  0.14695074  1
  Ge  Ge3  1  0.67207613  0.33439748  0.97940124  1
  Ge  Ge4  1  0.66951201  0.32989763  0.47964363  1
  Ge  Ge5  1  0.34039719  0.66365230  0.01633902  1
  Ge  Ge6  1  0.32849205  0.65692237  0.51757902  1
  Ge  Ge7  1  0.33344849  0.66652492  0.31974637  1
  Ge  Ge8  1  0.32475242  0.66302582  0.81793603  1
  P  P0  1  0.28953077  0.99769134  0.25116377  1
  P  P1  1  0.70872071  0.70997301  0.25097058  1
  P  P2  1  0.00247305  0.29401826  0.25104182  1
  P  P3  1  0.28376016  0.28633638  0.75188542  1
  P  P4  1  0.71218609  0.99652235  0.75120090  1
  P  P5  1  0.37516056  0.04421128  0.58371433  1
  P  P6  1  0.66170835  0.62243960  0.58346379  1
  P  P7  1  0.95910882  0.62506891  0.08292725  1
  P  P8  1  0.33394141  0.95386877  0.91660784  1
  O  O0  1  0.20529978  0.02744092  0.30678574  1
  O  O1  1  0.82199909  0.79320660  0.30715172  1
  O  O2  1  0.96987091  0.17818863  0.30702210  1
  O  O3  1  0.20156366  0.16992871  0.80971865  1
  O  O4  1  0.96834866  0.81426694  0.80930802  1
  O  O5  1  0.83639581  0.03817087  0.80690460  1
  O  O6  1  0.79057715  0.95769411  0.69246070  1
  O  O7  1  0.16196196  0.20615911  0.69436340  1
  O  O8  1  0.04559803  0.84300299  0.68940292  1
  O  O9  1  0.79240172  0.83024328  0.19106923  1
  O  O10  1  0.04050315  0.21242226  0.19157264  1
  O  O11  1  0.16814355  0.95919235  0.19127148  1
  O  O12  1  0.88978131  0.37748282  0.64417104  1
  O  O13  1  0.48636224  0.11971932  0.64155332  1
  O  O14  1  0.63073335  0.51591398  0.64222757  1
  O  O15  1  0.88974227  0.51505818  0.14157394  1
  O  O16  1  0.62061264  0.10835965  0.14473487  1
  O  O17  1  0.49275113  0.38245739  0.14374125  1
  O  O18  1  0.46112463  0.29031517  0.02228346  1
  O  O19  1  0.83449525  0.54472587  0.02690541  1
  O  O20  1  0.71252864  0.17646704  0.02462757  1
  O  O21  1  0.45752849  0.15906939  0.52486518  1
  O  O22  1  0.70273246  0.54232726  0.52596524  1
  O  O23  1  0.83237329  0.28926686  0.52355772  1
  O  O24  1  0.53975185  0.70326701  0.97692678  1
  O  O25  1  0.16856649  0.46296394  0.97616276  1
  O  O26  1  0.29890749  0.83673434  0.97444140  1
  O  O27  1  0.52794015  0.82769586  0.47903238  1
  O  O28  1  0.29525719  0.46885272  0.47549985  1
  O  O29  1  0.17277231  0.70568546  0.47795214  1
  O  O30  1  0.12480676  0.61709705  0.35603837  1
  O  O31  1  0.49172196  0.87356534  0.35606748  1
  O  O32  1  0.38428750  0.50651532  0.35517550  1
  O  O33  1  0.12524520  0.49670951  0.85460248  1
  O  O34  1  0.36788962  0.87320042  0.85793041  1
  O  O35  1  0.49445285  0.62594222  0.85541725  1
  O  O36  1  0.02239595  0.83270850  0.41318981  1
  O  O37  1  0.80793524  0.97579729  0.41400758  1
  O  O38  1  0.16848508  0.18965648  0.41255806  1
  O  O39  1  0.03306018  0.18537763  0.90871548  1
  O  O40  1  0.17041900  0.97832079  0.91065048  1
  O  O41  1  0.81925336  0.84418701  0.91057178  1
  O  O42  1  0.97375262  0.14888695  0.59055062  1
  O  O43  1  0.18514360  0.01907274  0.58758074  1
  O  O44  1  0.83387711  0.81041102  0.58795785  1
  O  O45  1  0.97824339  0.81261731  0.08913214  1
  O  O46  1  0.84089944  0.01640700  0.08961247  1
  O  O47  1  0.17797612  0.15401362  0.08969378  1
  O  O48  1  0.68603784  0.15591513  0.74585942  1
  O  O49  1  0.46603395  0.30481953  0.74597361  1
  O  O50  1  0.83292199  0.52447901  0.74898992  1
  O  O51  1  0.68772511  0.52681345  0.24477183  1
  O  O52  1  0.84255637  0.31885087  0.24383410  1
  O  O53  1  0.47312604  0.15831550  0.24526387  1
  O  O54  1  0.63404588  0.48554551  0.92362046  1
  O  O55  1  0.84477639  0.35785352  0.92364061  1
  O  O56  1  0.49741781  0.13962270  0.92146862  1
  O  O57  1  0.63013550  0.14779619  0.42342733  1
  O  O58  1  0.51803948  0.36654729  0.42547695  1
  O  O59  1  0.85000537  0.48467904  0.42416816  1
  O  O60  1  0.34646396  0.50580006  0.07488069  1
  O  O61  1  0.14606384  0.64890679  0.07394151  1
  O  O62  1  0.48673824  0.84309318  0.07339560  1
  O  O63  1  0.35607249  0.85762949  0.57759680  1
  O  O64  1  0.50263047  0.65331023  0.57661933  1
  O  O65  1  0.15884701  0.51460256  0.57576506  1
  O  O66  1  0.30327062  0.82402628  0.25374857  1
  O  O67  1  0.52208598  0.69668976  0.25318915  1
  O  O68  1  0.17558296  0.48003914  0.25371335  1
  O  O69  1  0.30274404  0.47379192  0.75527518  1
  O  O70  1  0.18725680  0.70204048  0.75718112  1
  O  O71  1  0.52703338  0.82603589  0.75708076  1
loop_
_geom_bond_atom_site_label_1
_geom_bond_atom_site_label_2
_geom_bond_distance
_geom_bond_site_symmetry_2
Na0 O67 2.383426 1_545
Na0 O53 2.390870 1_555
Na0 O52 2.424520 1_555
Na0 O16 2.439307 1_555
Na0 O66 2.536278 1_545
Na0 O31 2.637147 1_545
Na0 O9 2.827040 1_545
Na0 O2 2.842617 1_555
Na1 O68 2.386751 1_555
Na1 O53 2.393312 1_555
Na1 O51 2.409941 1_555
Na1 O17 2.488203 1_555
Na1 O67 2.528239 1_555
Na1 O32 2.615258 1_555
Na1 O10 2.800524 1_555
Na1 O0 2.860212 1_555
Na2 O66 2.371309 1_655
Na2 O51 2.378797 1_555
Na2 O52 2.385418 1_555
Na2 O68 2.524588 1_655
Na2 O15 2.554865 1_555
Na2 O30 2.588807 1_655
Na2 O11 2.795887 1_655
Na2 O1 2.839598 1_555
Na3 O50 2.319828 1_555
Na3 O71 2.375753 1_555
Na3 O49 2.448920 1_555
Na3 O14 2.518799 1_555
Na3 O69 2.528945 1_555
Na3 O35 2.620637 1_555
Na3 O6 2.801060 1_555
Na3 O4 2.861678 1_555
Na4 O50 2.381151 1_555
Na4 O48 2.396538 1_555
Na4 O69 2.406983 1_655
Na4 O12 2.421882 1_555
Na4 O70 2.545687 1_655
Na4 O33 2.592753 1_655
Na4 O7 2.795638 1_655
Na4 O5 2.834772 1_555
Na5 O70 2.329231 1_545
Na5 O49 2.336895 1_555
Na5 O48 2.393258 1_555
Na5 O13 2.517005 1_555
Na5 O71 2.543374 1_545
Na5 O34 2.637122 1_545
Na5 O8 2.782878 1_545
Na5 O3 2.892460 1_555
Na6 O65 2.363003 1_555
Na6 O44 2.397386 1_455
Na6 O43 2.478637 1_565
Na6 O63 2.490177 1_555
Na6 O29 2.609916 1_555
Na6 O8 2.614702 1_555
Na6 O12 2.734585 1_455
Na6 O22 2.785304 1_455
Na7 O42 2.357169 1_565
Na7 O63 2.388768 1_555
Na7 O64 2.422888 1_555
Na7 O44 2.495231 1_555
Na7 O27 2.551841 1_555
Na7 O6 2.661030 1_555
Na7 O23 2.723347 1_565
Na7 O13 2.829217 1_565
Na8 O62 2.364261 1_555
Na8 O47 2.380276 1_565
Na8 O61 2.474059 1_555
Na8 O45 2.510759 1_455
Na8 O11 2.618236 1_555
Na8 O26 2.650904 1_554
Na8 O16 2.724445 1_565
Na8 O18 2.755812 1_565
Na9 O45 2.423963 1_555
Na9 O60 2.430629 1_555
Na9 O46 2.465206 1_565
Na9 O62 2.483346 1_555
Na9 O24 2.571007 1_554
Na9 O9 2.610054 1_555
Na9 O17 2.699155 1_555
Na9 O19 2.742297 1_555
Na10 O60 2.423098 1_555
Na10 O46 2.431196 1_455
Na10 O61 2.434049 1_555
Na10 O47 2.498658 1_555
Na10 O25 2.580109 1_554
Na10 O10 2.620645 1_555
Na10 O20 2.706600 1_455
Na10 O15 2.781735 1_455
Na11 O54 2.306635 1_555
Na11 O39 2.316093 1_555
Na11 O40 2.466499 1_545
Na11 O56 2.470870 1_555
Na11 O18 2.546464 1_556
Na11 O3 2.617714 1_555
Na11 O25 2.800261 1_555
Na11 O35 2.806313 1_555
Na12 O38 2.345368 1_655
Na12 O59 2.391545 1_555
Na12 O37 2.394268 1_545
Na12 O57 2.570487 1_555
Na12 O2 2.587560 1_555
Na12 O23 2.610695 1_555
Na12 O30 2.805277 1_655
Na12 O28 2.813923 1_655
Na13 O36 2.338011 1_545
Na13 O57 2.358273 1_555
Na13 O38 2.366800 1_555
Na13 O58 2.557061 1_555
Na13 O0 2.576160 1_555
Na13 O21 2.624088 1_555
Na13 O31 2.821745 1_545
Na13 O29 2.826376 1_545
Na14 O37 2.334119 1_555
Na14 O58 2.378868 1_555
Na14 O36 2.382918 1_655
Na14 O59 2.527052 1_555
Na14 O1 2.567641 1_555
Na14 O22 2.636617 1_555
Na14 O32 2.800128 1_555
Na14 O27 2.899135 1_555
Na15 O38 2.372576 1_555
Na15 O37 2.404588 1_445
Na15 O36 2.431765 1_545
Na15 O43 2.488866 1_555
Na15 O42 2.492432 1_455
Na15 O44 2.566177 1_445
Na16 O41 2.367325 1_555
Na16 O39 2.442841 1_665
Na16 O46 2.466267 1_566
Na16 O45 2.510798 1_556
Na16 O40 2.513046 1_655
Na16 O47 2.525421 1_666
Na17 O55 2.370496 1_555
Na17 O50 2.394309 1_555
Na17 O54 2.465962 1_555
Na17 O56 2.518848 1_555
Na17 O48 2.548124 1_555
Na17 O49 2.581478 1_555
Na18 O57 2.452245 1_555
Na18 O59 2.476565 1_555
Na18 O58 2.492758 1_555
Na18 O51 2.497434 1_555
Na18 O53 2.510136 1_555
Na18 O52 2.534756 1_555
Na19 O67 2.429597 1_555
Na19 O68 2.459437 1_555
Na19 O62 2.460366 1_555
Na19 O60 2.463496 1_555
Na19 O66 2.472304 1_555
Na19 O61 2.538060 1_555
Na20 O65 2.375990 1_555
Na20 O64 2.460378 1_555
Na20 O69 2.473797 1_555
Na20 O63 2.494082 1_555
Na20 O70 2.509633 1_555
Na20 O71 2.590017 1_555
Mg0 O2 1.999355 1_565
Mg0 O36 2.002182 1_655
Mg0 O1 2.005378 1_555
Mg0 O0 2.010897 1_665
Mg0 O38 2.014894 1_665
Mg0 O37 2.034028 1_555
Mg1 O12 1.965171 1_555
Mg1 O14 1.987594 1_555
Mg1 O13 2.030867 1_555
Mg1 O50 2.080601 1_555
Mg1 O48 2.119197 1_555
Mg1 O49 2.161077 1_555
Mg2 O17 1.954228 1_555
Mg2 O16 1.975850 1_555
Mg2 O15 2.034381 1_555
Mg2 O52 2.091739 1_555
Mg2 O53 2.103292 1_555
Mg2 O51 2.129210 1_555
Ge0 O4 1.815639 1_555
Ge0 O41 1.841724 1_555
Ge0 O5 1.899819 1_565
Ge0 O39 1.913408 1_665
Ge0 O3 2.000157 1_665
Ge0 O40 2.024785 1_655
Ge1 O8 1.858998 1_545
Ge1 O42 1.867551 1_455
Ge1 O7 1.904445 1_555
Ge1 O43 1.981517 1_555
Ge1 O6 2.005358 1_445
Ge1 O44 2.078778 1_445
Ge2 O46 1.902975 1_455
Ge2 O47 1.909945 1_555
Ge2 O10 1.938072 1_555
Ge2 O9 1.953217 1_445
Ge2 O11 1.955443 1_545
Ge2 O45 2.047356 1_445
Ge3 O20 1.862535 1_556
Ge3 O55 1.875079 1_555
Ge3 O54 1.934089 1_555
Ge3 O18 1.935826 1_556
Ge3 O19 1.974915 1_556
Ge3 O56 2.063927 1_555
Ge4 O23 1.886157 1_555
Ge4 O58 1.909727 1_555
Ge4 O57 1.909892 1_555
Ge4 O59 1.912697 1_555
Ge4 O21 1.973066 1_555
Ge4 O22 2.016398 1_555
Ge5 O24 1.822932 1_554
Ge5 O25 1.871982 1_554
Ge5 O60 1.890877 1_555
Ge5 O62 1.914806 1_555
Ge5 O26 1.945717 1_554
Ge5 O61 2.072898 1_555
Ge6 O28 1.786691 1_555
Ge6 O29 1.829397 1_555
Ge6 O27 1.842526 1_555
Ge6 O65 1.875535 1_555
Ge6 O64 1.999064 1_555
Ge6 O63 2.116095 1_555
Ge7 O31 1.831146 1_555
Ge7 O32 1.833007 1_555
Ge7 O30 1.839504 1_555
Ge7 O66 2.086574 1_555
Ge7 O68 2.100991 1_555
Ge7 O67 2.118862 1_555
Ge8 O33 1.811755 1_555
Ge8 O35 1.855651 1_555
Ge8 O34 1.906077 1_555
Ge8 O70 1.921139 1_555
Ge8 O69 2.090442 1_555
Ge8 O71 2.100521 1_555
O0 P0 1.511585 1_545
O1 P1 1.512145 1_555
O2 P2 1.511288 1_655
O3 P3 1.547715 1_555
O4 Si0 1.623521 1_655
O5 P4 1.541627 1_545
O6 P4 1.572045 1_555
O7 P3 1.564040 1_555
O8 Si0 1.676940 1_555
O9 P1 1.600164 1_555
O10 P2 1.598387 1_555
O11 P0 1.602928 1_555
O12 Si1 1.596109 1_555
O13 P5 1.524163 1_555
O14 P6 1.518100 1_555
O15 P7 1.525274 1_555
O16 Si2 1.592637 1_555
O17 Si3 1.589339 1_555
O18 Si3 1.656794 1_555
O19 P7 1.549871 1_555
O20 Si2 1.644793 1_555
O21 P5 1.560223 1_555
O22 P6 1.568209 1_555
O23 Si1 1.675406 1_555
O24 Si4 1.632586 1_555
O25 Si5 1.644152 1_555
O26 P8 1.547222 1_555
O27 Si6 1.629350 1_555
O28 Si7 1.613449 1_555
O29 Si8 1.627748 1_555
O30 Si8 1.675090 1_555
O31 Si6 1.672907 1_555
O32 Si7 1.678921 1_555
O33 Si5 1.650657 1_555
O34 P8 1.564401 1_555
O35 Si4 1.665114 1_555
O36 Si8 1.590935 1_555
O37 Si6 1.592902 1_555
O38 Si7 1.591227 1_555
O39 Si5 1.659660 1_555
O40 P8 1.556850 1_555
O41 Si4 1.627563 1_555
O42 Si1 1.670685 1_555
O43 P5 1.571640 1_555
O44 P6 1.591653 1_555
O45 P7 1.576501 1_555
O46 Si2 1.677141 1_555
O47 Si3 1.676924 1_555
O48 P4 1.529459 1_545
O49 P3 1.531048 1_555
O50 Si0 1.605724 1_655
O51 P1 1.531629 1_555
O52 P2 1.529871 1_655
O53 P0 1.528819 1_545
O54 Si4 1.650624 1_555
O55 Si5 1.623649 1_655
O56 P8 1.549125 1_545
O57 Si6 1.652972 1_545
O58 Si7 1.650358 1_555
O59 Si8 1.653140 1_655
O60 Si3 1.659866 1_555
O61 P7 1.560172 1_455
O62 Si2 1.660150 1_565
O63 P5 1.568073 1_565
O64 P6 1.554189 1_555
O65 Si1 1.649153 1_455
O66 P0 1.588192 1_555
O67 P1 1.583555 1_555
O68 P2 1.583631 1_555
O69 P3 1.571599 1_555
O70 Si0 1.683730 1_555
O71 P4 1.572776 1_555
