# generated using pymatgen
data_MgCo7O12
_symmetry_space_group_name_H-M   'P 1'
_cell_length_a   5.10175044
_cell_length_b   5.09180922
_cell_length_c   9.77084906
_cell_angle_alpha   84.81067178
_cell_angle_beta   97.71137891
_cell_angle_gamma   58.03975038
_symmetry_Int_Tables_number   1
_chemical_formula_structural   MgCo7O12
_chemical_formula_sum   'Mg1 Co7 O12'
_cell_volume   209.42347590
_cell_formula_units_Z   1
loop_
 _symmetry_equiv_pos_site_id
 _symmetry_equiv_pos_as_xyz
  1  'x, y, z'
loop_
 _atom_site_type_symbol
 _atom_site_label
 _atom_site_symmetry_multiplicity
 _atom_site_fract_x
 _atom_site_fract_y
 _atom_site_fract_z
 _atom_site_occupancy
  Mg  Mg0  1  0.29635100  0.83954900  0.99070600  1
  Co  Co0  1  0.09598900  0.07451700  0.25861800  1
  Co  Co1  1  0.99158800  0.52351300  0.98747000  1
  Co  Co2  1  0.24481100  0.25799900  0.74574100  1
  Co  Co3  1  0.54382000  0.98338400  0.52066200  1
  Co  Co4  1  0.43184200  0.40744400  0.25585200  1
  Co  Co5  1  0.55183000  0.58113100  0.74749500  1
  Co  Co6  1  0.75844700  0.74839400  0.25451900  1
  O  O0  1  0.96040300  0.25619200  0.85985800  1
  O  O1  1  0.24722700  0.97088000  0.63368900  1
  O  O2  1  0.18421200  0.34931400  0.36517400  1
  O  O3  1  0.34221800  0.12544700  0.12325300  1
  O  O4  1  0.30479600  0.53134200  0.85622900  1
  O  O5  1  0.48690500  0.30605400  0.64460800  1
  O  O6  1  0.48307800  0.73022900  0.36573000  1
  O  O7  1  0.70202300  0.47440000  0.14779500  1
  O  O8  1  0.57406000  0.86084800  0.86485900  1
  O  O9  1  0.83563700  0.61353000  0.64056900  1
  O  O10  1  0.79041100  0.02685000  0.35968500  1
  O  O11  1  0.05293700  0.76756400  0.13443000  1
loop_
_geom_bond_atom_site_label_1
_geom_bond_atom_site_label_2
_geom_bond_distance
_geom_bond_site_symmetry_2
Mg0 O8 2.034001 1_555
Mg0 O0 2.035850 1_465
Mg0 O3 2.114604 1_566
Mg0 O11 2.122582 1_556
Mg0 O4 2.123147 1_555
Mg0 O7 2.157241 1_556
Co0 O6 1.875327 1_545
Co0 O7 2.010644 1_455
Co0 O2 2.012174 1_555
Co0 O3 2.030604 1_555
Co0 O10 2.057884 1_455
Co0 O11 2.144389 1_545
Co1 O0 1.978831 1_555
Co1 O8 1.998113 1_555
Co1 O3 2.026459 1_656
Co1 O11 2.077972 1_656
Co1 O4 2.192572 1_655
Co1 O7 2.374903 1_556
Co2 O5 1.779196 1_555
Co2 O1 1.900061 1_545
Co2 O8 1.928481 1_545
Co2 O9 1.943697 1_455
Co2 O0 1.948115 1_455
Co2 O4 1.957116 1_555
Co3 O9 1.816656 1_555
Co3 O1 2.012714 1_555
Co3 O5 2.049290 1_565
Co3 O2 2.065601 1_565
Co3 O6 2.167768 1_555
Co3 O10 2.206455 1_565
Co4 O10 1.877359 1_555
Co4 O2 1.877622 1_555
Co4 O11 1.935227 1_555
Co4 O7 1.988438 1_555
Co4 O6 2.149635 1_555
Co4 O3 2.195903 1_555
Co5 O4 1.852093 1_555
Co5 O1 1.860639 1_555
Co5 O0 1.921947 1_555
Co5 O5 1.933551 1_555
Co5 O8 1.946271 1_555
Co5 O9 1.960317 1_555
Co6 O10 1.885766 1_565
Co6 O6 1.921461 1_555
Co6 O7 1.929873 1_555
Co6 O11 2.061847 1_655
Co6 O2 2.077470 1_655
Co6 O3 2.085146 1_565
