# generated using pymatgen
data_Bi(PO3)4
_symmetry_space_group_name_H-M   'P 1'
_cell_length_a   10.81011057
_cell_length_b   10.81011057
_cell_length_c   5.27097609
_cell_angle_alpha   78.69951112
_cell_angle_beta   78.69951112
_cell_angle_gamma   66.66501965
_symmetry_Int_Tables_number   1
_chemical_formula_structural   Bi(PO3)4
_chemical_formula_sum   'Bi2 P8 O24'
_cell_volume   549.80035491
_cell_formula_units_Z   2
loop_
 _symmetry_equiv_pos_site_id
 _symmetry_equiv_pos_as_xyz
  1  'x, y, z'
loop_
 _atom_site_type_symbol
 _atom_site_label
 _atom_site_symmetry_multiplicity
 _atom_site_fract_x
 _atom_site_fract_y
 _atom_site_fract_z
 _atom_site_occupancy
  Bi  Bi0  1  0.34218200  0.34218200  0.60514700  1
  Bi  Bi1  1  0.65781800  0.65781800  0.39485300  1
  P  P0  1  0.69553500  0.93758700  0.90024500  1
  P  P1  1  0.76763600  0.39915300  0.99755200  1
  P  P2  1  0.60084700  0.23236400  0.00244800  1
  P  P3  1  0.23236400  0.60084700  0.00244800  1
  P  P4  1  0.30446500  0.06241300  0.09975500  1
  P  P5  1  0.39915300  0.76763600  0.99755200  1
  P  P6  1  0.93758700  0.69553500  0.90024500  1
  P  P7  1  0.06241300  0.30446500  0.09975500  1
  O  O0  1  0.69733000  0.45854800  0.24875600  1
  O  O1  1  0.67081300  0.95405100  0.62401600  1
  O  O2  1  0.32918700  0.04594900  0.37598400  1
  O  O3  1  0.04594900  0.32918700  0.37598400  1
  O  O4  1  0.73069700  0.26930300  0.00000000  1
  O  O5  1  0.26930300  0.73069700  0.00000000  1
  O  O6  1  0.74542000  0.49130100  0.74560900  1
  O  O7  1  0.49130100  0.74542000  0.74560900  1
  O  O8  1  0.68292300  0.07368800  0.99387300  1
  O  O9  1  0.07368800  0.68292300  0.99387300  1
  O  O10  1  0.14408700  0.14408700  0.07415700  1
  O  O11  1  0.54145200  0.30267000  0.75124400  1
  O  O12  1  0.30267000  0.54145200  0.75124400  1
  O  O13  1  0.38499900  0.13249300  0.89884100  1
  O  O14  1  0.13249300  0.38499900  0.89884100  1
  O  O15  1  0.25458000  0.50869900  0.25439100  1
  O  O16  1  0.61500100  0.86750700  0.10115900  1
  O  O17  1  0.86750700  0.61500100  0.10115900  1
  O  O18  1  0.45854800  0.69733000  0.24875600  1
  O  O19  1  0.85591300  0.85591300  0.92584300  1
  O  O20  1  0.92631200  0.31707700  0.00612700  1
  O  O21  1  0.31707700  0.92631200  0.00612700  1
  O  O22  1  0.50869900  0.25458000  0.25439100  1
  O  O23  1  0.95405100  0.67081300  0.62401600  1
loop_
_geom_bond_atom_site_label_1
_geom_bond_atom_site_label_2
_geom_bond_distance
_geom_bond_site_symmetry_2
Bi0 O11 2.282111 1_555
Bi0 O12 2.282111 1_555
Bi0 O22 2.363606 1_555
Bi0 O15 2.363606 1_555
Bi0 O14 2.413154 1_555
Bi0 O13 2.413154 1_555
Bi1 O18 2.282111 1_555
Bi1 O0 2.282111 1_555
Bi1 O6 2.363606 1_555
Bi1 O7 2.363606 1_555
Bi1 O16 2.413154 1_555
Bi1 O17 2.413154 1_555
O0 P1 1.515024 1_554
O1 P0 1.495420 1_555
O2 P4 1.495420 1_555
O3 P7 1.495420 1_555
O4 P1 1.601531 1_554
O4 P2 1.601531 1_555
O5 P5 1.601531 1_554
O5 P3 1.601531 1_555
O6 P1 1.493496 1_555
O7 P5 1.493496 1_555
O8 P0 1.589355 1_545
O8 P2 1.593902 1_556
O9 P6 1.589355 1_455
O9 P3 1.593902 1_556
O10 P4 1.623517 1_555
O10 P7 1.623517 1_555
O11 P2 1.515024 1_556
O12 P3 1.515024 1_556
O13 P4 1.516601 1_556
O14 P7 1.516601 1_556
O15 P3 1.493496 1_555
O16 P0 1.516601 1_554
O17 P6 1.516601 1_554
O18 P5 1.515024 1_554
O19 P6 1.623517 1_555
O19 P0 1.623517 1_555
O20 P7 1.589355 1_655
O20 P1 1.593902 1_554
O21 P4 1.589355 1_565
O21 P5 1.593902 1_554
O22 P2 1.493496 1_555
O23 P6 1.495420 1_555
