# generated using pymatgen
data_MgMnTl(VS2)4
_symmetry_space_group_name_H-M   'P 1'
_cell_length_a   3.39905432
_cell_length_b   9.11827072
_cell_length_c   9.56671951
_cell_angle_alpha   108.37570014
_cell_angle_beta   100.22503195
_cell_angle_gamma   89.99925036
_symmetry_Int_Tables_number   1
_chemical_formula_structural   MgMnTl(VS2)4
_chemical_formula_sum   'Mg1 Mn1 Tl1 V4 S8'
_cell_volume   276.42091388
_cell_formula_units_Z   1
loop_
 _symmetry_equiv_pos_site_id
 _symmetry_equiv_pos_as_xyz
  1  'x, y, z'
loop_
 _atom_site_type_symbol
 _atom_site_label
 _atom_site_symmetry_multiplicity
 _atom_site_fract_x
 _atom_site_fract_y
 _atom_site_fract_z
 _atom_site_occupancy
  Mg  Mg0  1  0.64102541  0.14369814  0.28194600  1
  Mn  Mn0  1  0.98411968  0.52965686  0.96957238  1
  Tl  Tl0  1  0.45150998  0.01258898  0.90818929  1
  V  V0  1  0.70439386  0.80898289  0.40875800  1
  V  V1  1  0.29864911  0.18448853  0.59838883  1
  V  V2  1  0.66525828  0.48013758  0.33031251  1
  V  V3  1  0.35416329  0.52752582  0.70954377  1
  S  S0  1  0.82405126  0.01789855  0.64915649  1
  S  S1  1  0.17166594  0.97498020  0.34337509  1
  S  S2  1  0.76865068  0.35488451  0.53815286  1
  S  S3  1  0.24474141  0.65516976  0.48973300  1
  S  S4  1  0.91687842  0.70125316  0.83517768  1
  S  S5  1  0.09512705  0.29600465  0.19015920  1
  S  S6  1  0.57852181  0.62226966  0.15774903  1
  S  S7  1  0.42624384  0.35452271  0.85407188  1
loop_
_geom_bond_atom_site_label_1
_geom_bond_atom_site_label_2
_geom_bond_distance
_geom_bond_site_symmetry_2
Mg0 S1 2.481725 1_645
Mg0 S1 2.481988 1_545
Mg0 S5 2.516408 1_655
Mg0 S5 2.516566 1_555
Mg0 S2 2.559431 1_555
Mg0 Tl0 3.334127 1_554
Mn0 S4 2.305971 1_555
Mn0 S7 2.346586 1_655
Mn0 S7 2.347451 1_555
Mn0 S6 2.403592 1_556
Mn0 S6 2.405459 1_656
S0 V1 2.426731 1_655
S0 V1 2.426882 1_555
S0 V0 2.447276 1_545
S0 Tl0 2.981816 1_655
S0 Tl0 2.989398 1_555
S1 V0 2.480848 1_455
S1 V0 2.481106 1_555
S1 V1 2.544666 1_565
S2 V1 2.487440 1_655
S2 V1 2.487917 1_555
S2 V3 2.518242 1_655
S2 V3 2.518754 1_555
S2 V2 2.562244 1_555
S3 V0 2.473926 1_455
S3 V0 2.474461 1_555
S3 V2 2.480280 1_455
S3 V2 2.481026 1_555
S3 V3 2.679642 1_555
S4 V3 2.365552 1_555
S4 V3 2.365786 1_655
S4 Tl0 3.185684 1_665
S4 Tl0 3.192334 1_565
S5 V2 2.455157 1_455
S5 V2 2.455695 1_555
S6 V2 2.380764 1_555
S6 V0 2.430143 1_555
S7 V3 2.390639 1_555
S7 V1 2.409844 1_555
