# generated using pymatgen
data_Na4Zn2Si(SO6)2
_symmetry_space_group_name_H-M   'P 1'
_cell_length_a   9.15337278
_cell_length_b   9.16217464
_cell_length_c   22.12646242
_cell_angle_alpha   89.95267787
_cell_angle_beta   90.00000000
_cell_angle_gamma   119.96822627
_symmetry_Int_Tables_number   1
_chemical_formula_structural   Na4Zn2Si(SO6)2
_chemical_formula_sum   'Na24 Zn12 Si6 S12 O72'
_cell_volume   1607.53743189
_cell_formula_units_Z   6
loop_
 _symmetry_equiv_pos_site_id
 _symmetry_equiv_pos_as_xyz
  1  'x, y, z'
loop_
 _atom_site_type_symbol
 _atom_site_label
 _atom_site_symmetry_multiplicity
 _atom_site_fract_x
 _atom_site_fract_y
 _atom_site_fract_z
 _atom_site_occupancy
  Na  Na0  1  0.61997744  0.99914332  0.25478117  1
  Na  Na1  1  0.36342749  0.35259619  0.25202066  1
  Na  Na2  1  0.00851334  0.64250762  0.24197665  1
  Na  Na3  1  0.63399428  0.64250762  0.74197665  1
  Na  Na4  1  0.98916870  0.35259619  0.75202066  1
  Na  Na5  1  0.37916588  0.99914332  0.75478117  1
  Na  Na6  1  0.31228149  0.34213174  0.58604692  1
  Na  Na7  1  0.02129623  0.69610123  0.58058105  1
  Na  Na8  1  0.66706809  0.95064982  0.58362388  1
  Na  Na9  1  0.28358273  0.95064982  0.08362388  1
  Na  Na10  1  0.67480600  0.69610123  0.08058105  1
  Na  Na11  1  0.02985124  0.34213174  0.08604692  1
  Na  Na12  1  0.97729763  0.67709978  0.92430251  1
  Na  Na13  1  0.68913645  0.03294615  0.90941118  1
  Na  Na14  1  0.33318573  0.29031402  0.91650606  1
  Na  Na15  1  0.95712729  0.29031402  0.41650606  1
  Na  Na16  1  0.34380870  0.03294615  0.40941118  1
  Na  Na17  1  0.69980116  0.67709978  0.42430251  1
  Na  Na18  1  0.98062190  0.98810521  0.49962735  1
  Na  Na19  1  0.00748331  0.98810521  0.99962735  1
  Na  Na20  1  0.65919762  0.31505914  0.83342121  1
  Na  Na21  1  0.65586252  0.31505914  0.33342121  1
  Na  Na22  1  0.32099434  0.67439971  0.16688645  1
  Na  Na23  1  0.35340437  0.67439971  0.66688645  1
  Zn  Zn0  1  0.00308706  0.00263649  0.34678545  1
  Zn  Zn1  1  0.99954943  0.00263649  0.84678545  1
  Zn  Zn2  1  0.96987844  0.97354823  0.65178283  1
  Zn  Zn3  1  0.00366979  0.97354823  0.15178283  1
  Zn  Zn4  1  0.66494162  0.32889296  0.68075728  1
  Zn  Zn5  1  0.66395234  0.32889296  0.18075728  1
  Zn  Zn6  1  0.66343546  0.33103695  0.98625355  1
  Zn  Zn7  1  0.66760249  0.33103695  0.48625355  1
  Zn  Zn8  1  0.30654391  0.67541525  0.01403677  1
  Zn  Zn9  1  0.36887034  0.67541525  0.51403677  1
  Zn  Zn10  1  0.34243994  0.70109063  0.32027110  1
  Zn  Zn11  1  0.35864969  0.70109063  0.82027110  1
  Si  Si0  1  0.30007930  0.00343261  0.25043859  1
  Si  Si1  1  0.70335332  0.00343261  0.75043859  1
  Si  Si2  1  0.66672998  0.62176765  0.58325084  1
  Si  Si3  1  0.95503867  0.62176765  0.08325084  1
  Si  Si4  1  0.33291938  0.97476250  0.91697853  1
  Si  Si5  1  0.64184212  0.97476250  0.41697853  1
  S  S0  1  0.70073959  0.70235450  0.25045842  1
  S  S1  1  0.00154905  0.29532246  0.24977453  1
  S  S2  1  0.29377341  0.29532246  0.74977453  1
  S  S3  1  0.00161492  0.70235450  0.75045842  1
  S  S4  1  0.96937941  0.33666302  0.58292477  1
  S  S5  1  0.36457395  0.03432236  0.58384508  1
  S  S6  1  0.66974940  0.03432236  0.08384508  1
  S  S7  1  0.36728461  0.33666302  0.08292477  1
  S  S8  1  0.62402116  0.66380862  0.91737246  1
  S  S9  1  0.04272744  0.37311702  0.91570189  1
  S  S10  1  0.33038858  0.37311702  0.41570189  1
  S  S11  1  0.03978646  0.66380862  0.41737246  1
  O  O0  1  0.21559380  0.03761678  0.31066915  1
  O  O1  1  0.80482389  0.78338879  0.30482809  1
  O  O2  1  0.97516051  0.19116463  0.30468291  1
  O  O3  1  0.21600413  0.19116463  0.80468291  1
  O  O4  1  0.97856490  0.78338879  0.80482809  1
  O  O5  1  0.82202298  0.03761678  0.81066915  1
  O  O6  1  0.78417939  0.97108731  0.68981472  1
  O  O7  1  0.19271521  0.21292877  0.69468773  1
  O  O8  1  0.03401567  0.80975401  0.69565704  1
  O  O9  1  0.77573835  0.80975401  0.19565704  1
  O  O10  1  0.02021356  0.21292877  0.19468773  1
  O  O11  1  0.18690793  0.97108731  0.18981472  1
  O  O12  1  0.88957348  0.35890595  0.63811384  1
  O  O13  1  0.47338780  0.10989778  0.63794924  1
  O  O14  1  0.63697502  0.50657267  0.64387205  1
  O  O15  1  0.86959865  0.50657267  0.14387205  1
  O  O16  1  0.63651098  0.10989778  0.13794924  1
  O  O17  1  0.46933347  0.35890595  0.13811384  1
  O  O18  1  0.44347939  0.30393225  0.02885686  1
  O  O19  1  0.84023441  0.53653312  0.02252212  1
  O  O20  1  0.69302803  0.13639877  0.02866623  1
  O  O21  1  0.44337173  0.13639877  0.52866623  1
  O  O22  1  0.69629971  0.53653312  0.52252212  1
  O  O23  1  0.86045387  0.30393225  0.52885686  1
  O  O24  1  0.54106766  0.68338365  0.97212192  1
  O  O25  1  0.14654633  0.45030280  0.97101665  1
  O  O26  1  0.29498518  0.85703709  0.97690142  1
  O  O27  1  0.56205091  0.85703709  0.47690142  1
  O  O28  1  0.30375547  0.45030280  0.47101665  1
  O  O29  1  0.14231499  0.68338365  0.47212192  1
  O  O30  1  0.11721414  0.63675436  0.36226714  1
  O  O31  1  0.52429131  0.89606435  0.35704477  1
  O  O32  1  0.34949687  0.47601079  0.36110538  1
  O  O33  1  0.12651292  0.47601079  0.86110538  1
  O  O34  1  0.37177204  0.89606435  0.85704477  1
  O  O35  1  0.51953922  0.63675436  0.86226714  1
  O  O36  1  0.02553106  0.81938766  0.41323035  1
  O  O37  1  0.83058989  0.99031297  0.40996694  1
  O  O38  1  0.17956377  0.20102215  0.41340472  1
  O  O39  1  0.02145839  0.20102215  0.91340472  1
  O  O40  1  0.15972307  0.99031297  0.90996694  1
  O  O41  1  0.79385659  0.81938766  0.91323035  1
  O  O42  1  0.99655274  0.18911286  0.58752415  1
  O  O43  1  0.19788822  0.02584612  0.59034390  1
  O  O44  1  0.83915074  0.81234074  0.58461138  1
  O  O45  1  0.97318999  0.81234074  0.08461138  1
  O  O46  1  0.82795790  0.02584612  0.09034390  1
  O  O47  1  0.19256012  0.18911286  0.08752415  1
  O  O48  1  0.68243876  0.17441998  0.74462969  1
  O  O49  1  0.46676286  0.31695567  0.74710074  1
  O  O50  1  0.84517763  0.53461485  0.74550703  1
  O  O51  1  0.68943822  0.53461485  0.24550703  1
  O  O52  1  0.85019381  0.31695567  0.24710074  1
  O  O53  1  0.49198222  0.17441998  0.24462969  1
  O  O54  1  0.64589116  0.51341346  0.91989189  1
  O  O55  1  0.87292192  0.35866994  0.91950782  1
  O  O56  1  0.50686330  0.16346828  0.92376052  1
  O  O57  1  0.65660598  0.16346828  0.42376052  1
  O  O58  1  0.48574902  0.35866994  0.41950782  1
  O  O59  1  0.86752330  0.51341346  0.41989189  1
  O  O60  1  0.35913759  0.49457100  0.07667585  1
  O  O61  1  0.14611439  0.64067829  0.08195034  1
  O  O62  1  0.52229860  0.85977706  0.07882960  1
  O  O63  1  0.33747746  0.85977706  0.57882960  1
  O  O64  1  0.49456289  0.64067829  0.58195034  1
  O  O65  1  0.13543241  0.49457100  0.57667585  1
  O  O66  1  0.31314824  0.82851857  0.25271297  1
  O  O67  1  0.52652205  0.67608023  0.25500446  1
  O  O68  1  0.15778474  0.46385114  0.25475321  1
  O  O69  1  0.30606540  0.46385114  0.75475321  1
  O  O70  1  0.14955717  0.67608023  0.75500446  1
  O  O71  1  0.51536934  0.82851857  0.75271297  1
loop_
_geom_bond_atom_site_label_1
_geom_bond_atom_site_label_2
_geom_bond_distance
_geom_bond_site_symmetry_2
Na0 O53 2.425099 1_565
Na0 O66 2.438764 1_555
Na0 O31 2.439078 1_555
Na0 O52 2.611006 1_565
Na0 O67 2.638848 1_555
Na0 O16 2.752725 1_565
Na1 O53 2.448660 1_555
Na1 O68 2.550065 1_555
Na1 O67 2.568504 1_555
Na1 O51 2.595117 1_555
Na1 O17 2.690545 1_555
Na1 O32 2.696136 1_555
Na1 O0 2.817074 1_555
Na2 O66 2.447311 1_555
Na2 O15 2.510436 1_455
Na2 O51 2.574647 1_455
Na2 O52 2.586676 1_455
Na2 O68 2.619121 1_555
Na2 O30 2.851150 1_555
Na2 O11 2.853895 1_555
Na3 O71 2.447318 1_555
Na3 O14 2.510438 1_555
Na3 O50 2.574655 1_555
Na3 O49 2.586676 1_555
Na3 O69 2.619129 1_555
Na3 O35 2.851154 1_555
Na3 O6 2.853895 1_555
Na4 O48 2.448653 1_555
Na4 O69 2.550057 1_655
Na4 O70 2.568504 1_655
Na4 O50 2.595110 1_555
Na4 O12 2.690542 1_555
Na4 O33 2.696134 1_655
Na4 O5 2.817074 1_555
Na5 O48 2.425106 1_565
Na5 O71 2.438756 1_555
Na5 O34 2.439076 1_555
Na5 O49 2.611003 1_565
Na5 O70 2.638850 1_555
Na5 O13 2.752726 1_565
Na6 O64 2.390446 1_555
Na6 O42 2.504144 1_455
Na6 O43 2.543854 1_555
Na6 O65 2.621514 1_555
Na6 O7 2.660550 1_555
Na6 O28 2.745824 1_555
Na6 O14 2.875711 1_555
Na6 O21 2.977990 1_555
Na7 O44 2.386625 1_455
Na7 O63 2.508048 1_555
Na7 O65 2.536885 1_555
Na7 O43 2.628551 1_565
Na7 O29 2.670051 1_555
Na7 O8 2.732105 1_555
Na7 O22 2.880167 1_455
Na7 O12 2.981782 1_455
Na8 O64 2.465845 1_555
Na8 O44 2.466055 1_555
Na8 O27 2.532883 1_555
Na8 O6 2.550512 1_555
Na8 O42 2.700739 1_565
Na8 O63 2.701237 1_555
Na9 O61 2.465843 1_555
Na9 O45 2.466063 1_455
Na9 O26 2.532880 1_554
Na9 O11 2.550515 1_555
Na9 O47 2.700746 1_565
Na9 O62 2.701220 1_555
Na10 O45 2.386616 1_555
Na10 O62 2.508064 1_555
Na10 O60 2.536899 1_555
Na10 O46 2.628551 1_565
Na10 O24 2.670059 1_554
Na10 O9 2.732103 1_555
Na10 O19 2.880167 1_555
Na10 O17 2.981782 1_555
Na11 O61 2.390448 1_555
Na11 O47 2.504136 1_555
Na11 O46 2.543855 1_455
Na11 O60 2.621498 1_555
Na11 O10 2.660549 1_555
Na11 O25 2.745820 1_554
Na11 O15 2.875711 1_455
Na11 O20 2.977990 1_455
Na12 O40 2.517014 1_655
Na12 O19 2.517310 1_556
Na12 O55 2.579092 1_555
Na12 O41 2.601022 1_555
Na12 O54 2.629821 1_555
Na12 O26 2.782468 1_655
Na12 O4 2.814479 1_555
Na13 O5 2.490504 1_555
Na13 O56 2.511657 1_555
Na13 O41 2.574477 1_545
Na13 O55 2.602244 1_555
Na13 O39 2.636780 1_655
Na13 O34 2.777923 1_545
Na13 O20 2.798712 1_556
Na14 O40 2.395349 1_545
Na14 O56 2.397743 1_555
Na14 O39 2.546298 1_555
Na14 O54 2.555733 1_555
Na14 O18 2.662569 1_556
Na14 O3 2.669813 1_555
Na15 O37 2.395350 1_545
Na15 O57 2.397727 1_555
Na15 O38 2.546307 1_655
Na15 O59 2.555720 1_555
Na15 O23 2.662562 1_555
Na15 O2 2.669816 1_555
Na16 O0 2.490499 1_555
Na16 O57 2.511673 1_555
Na16 O36 2.574470 1_545
Na16 O58 2.602242 1_555
Na16 O38 2.636772 1_555
Na16 O31 2.777923 1_545
Na16 O21 2.798715 1_555
Na17 O37 2.517013 1_555
Na17 O22 2.517314 1_555
Na17 O58 2.579089 1_555
Na17 O36 2.601030 1_655
Na17 O59 2.629837 1_555
Na17 O27 2.782468 1_555
Na17 O1 2.814481 1_555
Na18 O44 2.391181 1_555
Na18 O37 2.418631 1_555
Na18 O36 2.617765 1_655
Na18 O42 2.633068 1_565
Na18 O38 2.684431 1_665
Na18 O43 2.723546 1_665
Na19 O45 2.391181 1_456
Na19 O40 2.418631 1_555
Na19 O41 2.617765 1_455
Na19 O47 2.633068 1_566
Na19 O39 2.684431 1_565
Na19 O46 2.723546 1_466
Na20 O48 2.417334 1_555
Na20 O56 2.435059 1_555
Na20 O49 2.604117 1_555
Na20 O55 2.614445 1_555
Na20 O54 2.684247 1_555
Na20 O50 2.702006 1_555
Na21 O53 2.417334 1_555
Na21 O57 2.435059 1_555
Na21 O52 2.604117 1_555
Na21 O58 2.614445 1_555
Na21 O59 2.684247 1_555
Na21 O51 2.702006 1_555
Na22 O61 2.386755 1_555
Na22 O66 2.389805 1_555
Na22 O68 2.616806 1_555
Na22 O62 2.635173 1_555
Na22 O67 2.704074 1_555
Na22 O60 2.720454 1_555
Na23 O64 2.386755 1_555
Na23 O71 2.389805 1_555
Na23 O69 2.616806 1_555
Na23 O63 2.635173 1_555
Na23 O70 2.704074 1_555
Na23 O65 2.720454 1_555
O0 Si0 1.647682 1_555
O0 Zn0 1.975273 1_555
O1 S0 1.483559 1_555
O1 Zn0 2.133445 1_665
O2 S1 1.487583 1_655
O2 Zn0 2.086937 1_655
O3 S2 1.487583 1_555
O3 Zn1 2.086937 1_455
O4 S3 1.483559 1_655
O4 Zn1 2.133445 1_565
O5 Si1 1.647682 1_555
O5 Zn1 1.975273 1_555
O6 Si1 1.629173 1_565
O6 Zn2 1.886679 1_555
O7 S2 1.488319 1_555
O7 Zn2 2.325108 1_445
O8 S3 1.494328 1_555
O8 Zn2 2.101660 1_455
O9 S0 1.494328 1_555
O9 Zn3 2.101660 1_655
O10 S1 1.488319 1_555
O10 Zn3 2.325108 1_545
O11 Si0 1.629173 1_565
O11 Zn3 1.886679 1_555
O12 S4 1.488446 1_555
O12 Zn4 2.151352 1_555
O13 S5 1.488958 1_555
O13 Zn4 2.117977 1_555
O14 Si2 1.642492 1_555
O14 Zn4 1.948311 1_555
O15 Si3 1.642492 1_555
O15 Zn5 1.948311 1_555
O16 S6 1.488958 1_555
O16 Zn5 2.117977 1_555
O17 S7 1.488446 1_555
O17 Zn5 2.151352 1_555
O18 S7 1.488995 1_555
O18 Zn6 2.122245 1_554
O19 Si3 1.643647 1_555
O19 Zn6 1.940698 1_554
O20 S6 1.486517 1_555
O20 Zn6 2.148036 1_554
O21 S5 1.486517 1_555
O21 Zn7 2.148036 1_555
O22 Si2 1.643647 1_555
O22 Zn7 1.940698 1_555
O23 S4 1.488995 1_555
O23 Zn7 2.122245 1_555
O24 S8 1.487494 1_555
O24 Zn8 2.305865 1_556
O25 S9 1.493718 1_555
O25 Zn8 2.071335 1_556
O26 Si4 1.632612 1_555
O26 Zn8 1.905004 1_556
O27 Si5 1.632612 1_555
O27 Zn9 1.905004 1_555
O28 S10 1.493718 1_555
O28 Zn9 2.071335 1_555
O29 S11 1.487494 1_555
O29 Zn9 2.305865 1_555
O30 S11 1.492112 1_555
O30 Zn10 2.060597 1_555
O31 Si5 1.631791 1_555
O31 Zn10 1.911986 1_555
O32 S10 1.487297 1_555
O32 Zn10 2.281069 1_555
O33 S9 1.487297 1_555
O33 Zn11 2.281069 1_555
O34 Si4 1.631791 1_555
O34 Zn11 1.911986 1_555
O35 S8 1.492112 1_555
O35 Zn11 2.060597 1_555
O36 S11 1.497637 1_555
O36 Zn0 2.315832 1_565
O37 Si5 1.668319 1_555
O37 Zn0 2.069242 1_665
O38 S10 1.490005 1_555
O38 Zn0 2.270932 1_555
O39 S9 1.490008 1_555
O39 Zn1 2.270932 1_455
O40 Si4 1.668310 1_555
O40 Zn1 2.069241 1_465
O41 S8 1.497642 1_555
O41 Zn1 2.315832 1_565
O42 S4 1.495160 1_555
O42 Zn2 2.344262 1_545
O43 S5 1.495388 1_555
O43 Zn2 2.330943 1_445
O44 Si2 1.669581 1_555
O44 Zn2 2.015027 1_555
O45 Si3 1.669585 1_555
O45 Zn3 2.015027 1_655
O46 S6 1.495379 1_555
O46 Zn3 2.330943 1_645
O47 S7 1.495165 1_555
O47 Zn3 2.344262 1_545
O48 Si1 1.675334 1_555
O48 Zn4 2.061367 1_555
O49 S2 1.495491 1_555
O49 Zn4 2.293243 1_555
O50 S3 1.492005 1_655
O50 Zn4 2.285799 1_555
O51 S0 1.492009 1_555
O51 Zn5 2.285799 1_555
O52 S1 1.495482 1_655
O52 Zn5 2.293243 1_555
O53 Si0 1.675340 1_555
O53 Zn5 2.061367 1_555
O54 S8 1.489084 1_555
O54 Zn6 2.288666 1_555
O55 S9 1.494952 1_655
O55 Zn6 2.331607 1_555
O56 Si4 1.672453 1_545
O56 Zn6 2.031840 1_555
O57 Si5 1.672445 1_545
O57 Zn7 2.031840 1_555
O58 S10 1.494971 1_555
O58 Zn7 2.331607 1_555
O59 S11 1.489073 1_655
O59 Zn7 2.288666 1_555
O60 S7 1.491747 1_555
O60 Zn8 2.385625 1_555
O61 Si3 1.669447 1_455
O61 Zn8 2.011980 1_555
O62 S6 1.495115 1_565
O62 Zn8 2.340949 1_555
O63 S5 1.495108 1_565
O63 Zn9 2.340949 1_555
O64 Si2 1.669465 1_555
O64 Zn9 2.011980 1_555
O65 S4 1.491737 1_455
O65 Zn9 2.385625 1_555
O66 Si0 1.666295 1_565
O66 Zn10 1.994825 1_555
O67 S0 1.492484 1_555
O67 Zn10 2.315904 1_555
O68 S1 1.495230 1_555
O68 Zn10 2.453141 1_555
O69 S2 1.495234 1_555
O69 Zn11 2.453141 1_555
O70 S3 1.492475 1_555
O70 Zn11 2.315904 1_555
O71 Si1 1.666300 1_565
O71 Zn11 1.994825 1_555
