# generated using pymatgen
data_Na6Hf4Ta4Si9(SO16)3
_symmetry_space_group_name_H-M   'P 1'
_cell_length_a   17.94797777
_cell_length_b   8.94988084
_cell_length_c   23.03561514
_cell_angle_alpha   89.97522663
_cell_angle_beta   89.99620725
_cell_angle_gamma   119.86078398
_symmetry_Int_Tables_number   1
_chemical_formula_structural   Na6Hf4Ta4Si9(SO16)3
_chemical_formula_sum   'Na18 Hf12 Ta12 Si27 S9 O144'
_cell_volume   3209.00721091
_cell_formula_units_Z   3
loop_
 _symmetry_equiv_pos_site_id
 _symmetry_equiv_pos_as_xyz
  1  'x, y, z'
loop_
 _atom_site_type_symbol
 _atom_site_label
 _atom_site_symmetry_multiplicity
 _atom_site_fract_x
 _atom_site_fract_y
 _atom_site_fract_z
 _atom_site_occupancy
  Na  Na0  1  0.00072434  0.64430858  0.24629433  1
  Na  Na1  1  0.50139949  0.62744040  0.24852999  1
  Na  Na2  1  0.00119341  0.37515487  0.74871000  1
  Na  Na3  1  0.50108018  0.36427883  0.74726368  1
  Na  Na4  1  0.33427707  0.97566153  0.58611371  1
  Na  Na5  1  0.83226251  0.69148304  0.08221950  1
  Na  Na6  1  0.99856340  0.00624841  0.50272666  1
  Na  Na7  1  0.50374051  0.00135404  0.50297182  1
  Na  Na8  1  0.00314730  0.00693821  0.99901254  1
  Na  Na9  1  0.49879914  0.99158054  0.99809859  1
  Na  Na10  1  0.32986203  0.33787111  0.82978533  1
  Na  Na11  1  0.82914560  0.33727284  0.83218027  1
  Na  Na12  1  0.33075513  0.32329742  0.33370964  1
  Na  Na13  1  0.82513322  0.31957016  0.33314825  1
  Na  Na14  1  0.17006623  0.67557279  0.16180983  1
  Na  Na15  1  0.66336805  0.65796270  0.16829061  1
  Na  Na16  1  0.16506491  0.67118594  0.66978650  1
  Na  Na17  1  0.66554151  0.66355500  0.66637084  1
  Hf  Hf0  1  0.50689213  0.01224311  0.64929168  1
  Hf  Hf1  1  0.00535286  0.98964237  0.14527384  1
  Hf  Hf2  1  0.33380201  0.32470948  0.69040608  1
  Hf  Hf3  1  0.82910308  0.34351857  0.68503613  1
  Hf  Hf4  1  0.33017235  0.31542881  0.18440953  1
  Hf  Hf5  1  0.82886503  0.34139899  0.18676708  1
  Hf  Hf6  1  0.66319290  0.67055252  0.01798018  1
  Hf  Hf7  1  0.16547455  0.65638787  0.52074880  1
  Hf  Hf8  1  0.17634996  0.67765132  0.31648265  1
  Hf  Hf9  1  0.66739661  0.67725495  0.31117870  1
  Hf  Hf10  1  0.16837756  0.65809441  0.81077558  1
  Hf  Hf11  1  0.67087819  0.67509145  0.81401485  1
  Ta  Ta0  1  0.00037558  0.99858222  0.35500954  1
  Ta  Ta1  1  0.50410866  0.00923413  0.35589385  1
  Ta  Ta2  1  0.00260298  0.99796825  0.85519072  1
  Ta  Ta3  1  0.49927092  0.98656353  0.85090894  1
  Ta  Ta4  1  0.00650825  0.99936195  0.64144989  1
  Ta  Ta5  1  0.50625659  0.01345713  0.14080442  1
  Ta  Ta6  1  0.33402442  0.34536900  0.98536077  1
  Ta  Ta7  1  0.83200599  0.34331014  0.97397910  1
  Ta  Ta8  1  0.33256204  0.32236464  0.47593945  1
  Ta  Ta9  1  0.83273606  0.32086931  0.48668658  1
  Ta  Ta10  1  0.16886994  0.65409378  0.02217777  1
  Ta  Ta11  1  0.66808912  0.68306944  0.52361871  1
  Si  Si0  1  0.14764790  0.00218855  0.25228518  1
  Si  Si1  1  0.64425807  0.00475791  0.24900145  1
  Si  Si2  1  0.85475286  0.71411614  0.24961901  1
  Si  Si3  1  0.49917799  0.28711046  0.25003423  1
  Si  Si4  1  0.14335396  0.28272889  0.74903787  1
  Si  Si5  1  0.64744107  0.29134351  0.75284499  1
  Si  Si6  1  0.99912455  0.71059695  0.75008450  1
  Si  Si7  1  0.50091941  0.70885162  0.74819232  1
  Si  Si8  1  0.35535624  0.99396395  0.74975695  1
  Si  Si9  1  0.47922014  0.33558365  0.58250966  1
  Si  Si10  1  0.97887840  0.33254144  0.58752775  1
  Si  Si11  1  0.19106614  0.04630493  0.58229154  1
  Si  Si12  1  0.68584337  0.04497121  0.58589706  1
  Si  Si13  1  0.83326692  0.62554947  0.58076535  1
  Si  Si14  1  0.47958564  0.62504301  0.08711633  1
  Si  Si15  1  0.97899144  0.61608260  0.08245077  1
  Si  Si16  1  0.33269451  0.04043582  0.08065127  1
  Si  Si17  1  0.18784548  0.33000270  0.08524684  1
  Si  Si18  1  0.68959014  0.33681186  0.08068939  1
  Si  Si19  1  0.31316649  0.66777165  0.91656853  1
  Si  Si20  1  0.81240756  0.67437559  0.91737312  1
  Si  Si21  1  0.02254201  0.37765888  0.91618539  1
  Si  Si22  1  0.66551151  0.96088636  0.91631263  1
  Si  Si23  1  0.31432458  0.95601424  0.41875832  1
  Si  Si24  1  0.81128559  0.95898603  0.41664949  1
  Si  Si25  1  0.16699742  0.37380662  0.41623926  1
  Si  Si26  1  0.52203363  0.66615672  0.41641272  1
  S  S0  1  0.35750465  0.71662069  0.24992740  1
  S  S1  1  0.00051953  0.28772544  0.25065212  1
  S  S2  1  0.85814877  0.99871310  0.74962512  1
  S  S3  1  0.33394740  0.61990130  0.58229955  1
  S  S4  1  0.83347773  0.04750875  0.08294011  1
  S  S5  1  0.51922781  0.37247151  0.91644561  1
  S  S6  1  0.16850867  0.95764410  0.91740736  1
  S  S7  1  0.66878908  0.37977394  0.41709269  1
  S  S8  1  0.01962380  0.66394876  0.41562736  1
  O  O0  1  0.09426192  0.02128832  0.30786583  1
  O  O1  1  0.59422534  0.02508866  0.30624580  1
  O  O2  1  0.41031721  0.79694707  0.30319925  1
  O  O3  1  0.92044304  0.81230936  0.30528535  1
  O  O4  1  0.48684062  0.16206882  0.30676139  1
  O  O5  1  0.98813230  0.17998878  0.30322638  1
  O  O6  1  0.09257362  0.16288486  0.80638924  1
  O  O7  1  0.59517748  0.16673815  0.80853204  1
  O  O8  1  0.48626590  0.80149350  0.80658916  1
  O  O9  1  0.98669464  0.81111885  0.80683540  1
  O  O10  1  0.41953980  0.03078023  0.80628907  1
  O  O11  1  0.91152017  0.02515261  0.80317530  1
  O  O12  1  0.39677251  0.96866115  0.69005858  1
  O  O13  1  0.89628228  0.97190643  0.69771214  1
  O  O14  1  0.07786620  0.18874836  0.69368559  1
  O  O15  1  0.58588042  0.21097223  0.69541510  1
  O  O16  1  0.00942898  0.83478244  0.69393436  1
  O  O17  1  0.51655303  0.82936374  0.69237596  1
  O  O18  1  0.39479807  0.81968577  0.19777825  1
  O  O19  1  0.89862487  0.82831156  0.19129561  1
  O  O20  1  0.01395969  0.21039475  0.19808328  1
  O  O21  1  0.50949176  0.18372182  0.19397780  1
  O  O22  1  0.08446348  0.96365055  0.19593417  1
  O  O23  1  0.57919072  0.96921084  0.19375706  1
  O  O24  1  0.43888759  0.36961077  0.64095626  1
  O  O25  1  0.93562827  0.36143926  0.64440029  1
  O  O26  1  0.25056646  0.13204285  0.63855790  1
  O  O27  1  0.74856935  0.12810171  0.64034193  1
  O  O28  1  0.31932398  0.51673799  0.63508027  1
  O  O29  1  0.81542421  0.50792335  0.63792222  1
  O  O30  1  0.43550985  0.51009979  0.14435382  1
  O  O31  1  0.93895690  0.50728571  0.14267300  1
  O  O32  1  0.31499185  0.12161258  0.13836121  1
  O  O33  1  0.82075989  0.12459842  0.13597434  1
  O  O34  1  0.24776465  0.36797639  0.14117563  1
  O  O35  1  0.74880379  0.36913901  0.13850421  1
  O  O36  1  0.23563607  0.30495673  0.02707449  1
  O  O37  1  0.73647816  0.30301709  0.02608377  1
  O  O38  1  0.41737892  0.52973345  0.02870865  1
  O  O39  1  0.91266390  0.52028230  0.02858312  1
  O  O40  1  0.34832622  0.16761723  0.02451269  1
  O  O41  1  0.84585183  0.15060835  0.03110866  1
  O  O42  1  0.23579640  0.16894882  0.52536259  1
  O  O43  1  0.73583914  0.16459782  0.52707061  1
  O  O44  1  0.34444693  0.53837541  0.53006680  1
  O  O45  1  0.84847728  0.52910385  0.52392091  1
  O  O46  1  0.41363941  0.30799754  0.52747179  1
  O  O47  1  0.91753160  0.30496484  0.52842216  1
  O  O48  1  0.26441561  0.69291617  0.97353197  1
  O  O49  1  0.77159677  0.69978133  0.97694731  1
  O  O50  1  0.08457152  0.47487238  0.97254624  1
  O  O51  1  0.57343159  0.45562564  0.96847230  1
  O  O52  1  0.15256028  0.85128259  0.96935503  1
  O  O53  1  0.64973911  0.83968288  0.97289278  1
  O  O54  1  0.27047837  0.84104177  0.47578399  1
  O  O55  1  0.76606648  0.83594107  0.47318139  1
  O  O56  1  0.14824979  0.46035083  0.47186968  1
  O  O57  1  0.65253103  0.45297047  0.46902446  1
  O  O58  1  0.07389593  0.69442667  0.46757765  1
  O  O59  1  0.58525531  0.69570756  0.47197051  1
  O  O60  1  0.05948675  0.63996758  0.36264367  1
  O  O61  1  0.56090503  0.63082507  0.35792405  1
  O  O62  1  0.25434014  0.87336491  0.36119625  1
  O  O63  1  0.75292761  0.87193873  0.36001662  1
  O  O64  1  0.17903286  0.49094450  0.35892128  1
  O  O65  1  0.68056383  0.47970421  0.36408101  1
  O  O66  1  0.06062858  0.49155300  0.85810824  1
  O  O67  1  0.55822089  0.47950941  0.86395671  1
  O  O68  1  0.18054307  0.88119100  0.86443617  1
  O  O69  1  0.68183653  0.87156686  0.86023760  1
  O  O70  1  0.25206940  0.63285222  0.86104870  1
  O  O71  1  0.75290940  0.63626279  0.86087739  1
  O  O72  1  0.01188457  0.82315964  0.40958449  1
  O  O73  1  0.51178486  0.83938758  0.40674668  1
  O  O74  1  0.40977393  0.97982014  0.40684604  1
  O  O75  1  0.90822815  0.98044289  0.40651683  1
  O  O76  1  0.08122627  0.18136034  0.40575823  1
  O  O77  1  0.58967004  0.20122120  0.41034867  1
  O  O78  1  0.01177174  0.18374627  0.90785286  1
  O  O79  1  0.51096310  0.20178713  0.91128583  1
  O  O80  1  0.08937573  0.97756409  0.91083790  1
  O  O81  1  0.58138968  0.98556178  0.90911550  1
  O  O82  1  0.40808924  0.84019294  0.91040687  1
  O  O83  1  0.90973682  0.83991493  0.90753837  1
  O  O84  1  0.48099633  0.15474518  0.58513366  1
  O  O85  1  0.98557464  0.15728254  0.59180227  1
  O  O86  1  0.09460816  0.02513569  0.58900363  1
  O  O87  1  0.59106020  0.02093070  0.58544167  1
  O  O88  1  0.40875732  0.79545561  0.58666446  1
  O  O89  1  0.91782161  0.81541709  0.59099374  1
  O  O90  1  0.48555208  0.81324074  0.09279209  1
  O  O91  1  0.98149888  0.80391999  0.08719435  1
  O  O92  1  0.41745508  0.02008738  0.09191424  1
  O  O93  1  0.91010166  0.02396447  0.08925250  1
  O  O94  1  0.09112303  0.16632586  0.08872295  1
  O  O95  1  0.59469585  0.16442242  0.08917160  1
  O  O96  1  0.35207320  0.17422180  0.74626332  1
  O  O97  1  0.85083200  0.15587701  0.74612212  1
  O  O98  1  0.23750096  0.30589393  0.74378157  1
  O  O99  1  0.74004709  0.30332769  0.74763227  1
  O  O100  1  0.41638556  0.51841809  0.74564337  1
  O  O101  1  0.91670523  0.51653512  0.74594407  1
  O  O102  1  0.34939752  0.54420187  0.24617384  1
  O  O103  1  0.85473806  0.52866001  0.24625253  1
  O  O104  1  0.41662213  0.31685171  0.24596767  1
  O  O105  1  0.92347487  0.30698381  0.24604002  1
  O  O106  1  0.23981715  0.17358213  0.24786897  1
  O  O107  1  0.74042991  0.16910809  0.24383205  1
  O  O108  1  0.32388948  0.49383662  0.92659465  1
  O  O109  1  0.82403808  0.50230095  0.92413981  1
  O  O110  1  0.43291290  0.35696771  0.92372286  1
  O  O111  1  0.92644862  0.34956128  0.92989725  1
  O  O112  1  0.24432403  0.13303555  0.92419802  1
  O  O113  1  0.75243604  0.14859576  0.92693380  1
  O  O114  1  0.32379271  0.14786078  0.42373554  1
  O  O115  1  0.82488310  0.15649134  0.42534139  1
  O  O116  1  0.25219233  0.35628621  0.42536562  1
  O  O117  1  0.74456002  0.35528171  0.42332582  1
  O  O118  1  0.42565932  0.50317590  0.42890851  1
  O  O119  1  0.93345147  0.51276770  0.42168334  1
  O  O120  1  0.17927408  0.50316858  0.07520959  1
  O  O121  1  0.68236865  0.50955416  0.07544429  1
  O  O122  1  0.07558405  0.64833220  0.07238176  1
  O  O123  1  0.57332119  0.64506981  0.07648772  1
  O  O124  1  0.24748020  0.85260067  0.07096898  1
  O  O125  1  0.75699452  0.86998233  0.07784406  1
  O  O126  1  0.18169370  0.85673326  0.57406013  1
  O  O127  1  0.67958849  0.85661120  0.57501800  1
  O  O128  1  0.25609235  0.64276212  0.57664011  1
  O  O129  1  0.74791677  0.64212816  0.57001379  1
  O  O130  1  0.07226573  0.50029804  0.57561808  1
  O  O131  1  0.57511329  0.50169114  0.57046968  1
  O  O132  1  0.14783234  0.81810660  0.25845714  1
  O  O133  1  0.64757653  0.82665930  0.25466989  1
  O  O134  1  0.26969456  0.69571264  0.25649745  1
  O  O135  1  0.75999226  0.68514205  0.25776338  1
  O  O136  1  0.07612978  0.46367958  0.25786445  1
  O  O137  1  0.58387886  0.47576238  0.25611644  1
  O  O138  1  0.14625450  0.46723791  0.75457413  1
  O  O139  1  0.65175544  0.47766976  0.75918138  1
  O  O140  1  0.08399501  0.69215735  0.75618771  1
  O  O141  1  0.58354409  0.68172248  0.75807760  1
  O  O142  1  0.26001483  0.83189852  0.75800237  1
  O  O143  1  0.77131916  0.84485446  0.75620740  1
loop_
_geom_bond_atom_site_label_1
_geom_bond_atom_site_label_2
_geom_bond_distance
_geom_bond_site_symmetry_2
Na0 O103 2.288229 1_455
Na0 O132 2.319483 1_555
Na0 O136 2.587358 1_555
Na0 O105 2.620813 1_455
Na0 O31 2.660764 1_455
Na0 O22 2.737274 1_555
Na0 O60 2.887607 1_555
Na0 O3 2.888322 1_455
Na1 O133 2.329031 1_555
Na1 O104 2.415364 1_555
Na1 O102 2.444758 1_555
Na1 O137 2.462859 1_555
Na1 O30 2.650681 1_555
Na1 O61 2.731291 1_555
Na2 O138 2.310722 1_555
Na2 O101 2.411470 1_455
Na2 O97 2.421596 1_455
Na2 O140 2.467680 1_555
Na2 O25 2.651463 1_455
Na2 O66 2.733110 1_555
Na2 O14 2.927684 1_555
Na2 O11 2.992136 1_455
Na3 O96 2.348678 1_555
Na3 O139 2.384543 1_555
Na3 O141 2.477454 1_555
Na3 O100 2.510644 1_555
Na3 O24 2.701565 1_555
Na3 O15 2.776010 1_555
Na3 O67 2.879369 1_555
Na3 O10 2.923330 1_555
Na4 O84 2.302361 1_565
Na4 O126 2.409871 1_555
Na4 O88 2.556401 1_555
Na4 O128 2.594412 1_555
Na4 O12 2.658116 1_555
Na4 O26 2.787618 1_565
Na4 O54 2.802018 1_555
Na4 O46 2.911702 1_565
Na5 O91 2.348662 1_555
Na5 O121 2.356157 1_555
Na5 O125 2.556599 1_555
Na5 O93 2.587160 1_565
Na5 O49 2.674407 1_554
Na5 O19 2.789667 1_555
Na5 O35 2.817977 1_555
Na5 O39 2.856540 1_555
Na6 O85 2.531404 1_555
Na6 O86 2.580814 1_655
Na6 O89 2.585203 1_545
Na6 O75 2.687356 1_545
Na6 O76 2.707036 1_655
Na6 O72 2.781886 1_645
Na7 O87 2.413116 1_555
Na7 O84 2.488698 1_555
Na7 O88 2.624325 1_545
Na7 O73 2.691953 1_545
Na7 O77 2.716582 1_555
Na7 O74 2.731640 1_545
Na8 O94 2.560998 1_556
Na8 O78 2.586662 1_555
Na8 O91 2.621523 1_446
Na8 O83 2.644435 1_445
Na8 O80 2.644816 1_545
Na8 O93 2.717795 1_456
Na9 O82 2.524500 1_555
Na9 O81 2.545784 1_555
Na9 O90 2.642220 1_556
Na9 O95 2.666198 1_566
Na9 O79 2.678409 1_565
Na9 O92 2.690337 1_566
Na10 O100 2.505516 1_555
Na10 O98 2.506654 1_555
Na10 O96 2.567011 1_555
Na10 O108 2.661727 1_555
Na10 O112 2.764280 1_555
Na10 O110 2.796182 1_555
Na11 O99 2.441288 1_555
Na11 O101 2.544805 1_555
Na11 O109 2.610511 1_555
Na11 O113 2.681893 1_555
Na11 O97 2.710903 1_555
Na11 O111 2.817504 1_555
Na12 O106 2.488851 1_555
Na12 O104 2.559662 1_555
Na12 O114 2.565808 1_555
Na12 O116 2.635887 1_555
Na12 O102 2.724798 1_555
Na12 O118 2.752292 1_555
Na13 O107 2.514338 1_555
Na13 O115 2.575125 1_555
Na13 O103 2.607196 1_555
Na13 O117 2.639891 1_555
Na13 O105 2.711486 1_555
Na13 O119 2.754065 1_555
Na14 O124 2.573766 1_555
Na14 O120 2.577650 1_555
Na14 O122 2.601536 1_555
Na14 O132 2.693019 1_555
Na14 O134 2.769002 1_555
Na14 O136 2.854273 1_555
Na15 O137 2.543154 1_555
Na15 O133 2.597656 1_555
Na15 O135 2.625920 1_555
Na15 O121 2.628359 1_555
Na15 O123 2.629136 1_555
Na15 O125 2.754322 1_555
Na16 O140 2.526969 1_555
Na16 O138 2.577530 1_555
Na16 O142 2.581590 1_555
Na16 O126 2.685611 1_555
Na16 O130 2.699167 1_555
Na16 O128 2.784190 1_555
Na17 O141 2.625494 1_555
Na17 O139 2.643241 1_555
Na17 O127 2.653363 1_555
Na17 O131 2.697227 1_555
Na17 O129 2.726120 1_555
Na17 O143 2.730496 1_555
Hf0 O15 1.947581 1_555
Hf0 O17 1.993800 1_545
Hf0 O12 2.042562 1_545
Hf0 O87 2.081842 1_555
Hf0 O84 2.148390 1_555
Hf0 O88 2.355370 1_545
Hf1 O22 1.939309 1_555
Hf1 O91 2.007364 1_455
Hf1 O19 2.030336 1_455
Hf1 O94 2.034993 1_565
Hf1 O20 2.259500 1_565
Hf1 O93 2.281493 1_465
Hf2 O96 2.003875 1_555
Hf2 O26 2.017043 1_555
Hf2 O98 2.058452 1_555
Hf2 O24 2.064195 1_555
Hf2 O100 2.065172 1_555
Hf2 O28 2.255734 1_555
Hf3 O29 1.939471 1_555
Hf3 O27 2.023162 1_555
Hf3 O99 2.046975 1_555
Hf3 O25 2.061950 1_555
Hf3 O101 2.101473 1_555
Hf3 O97 2.366995 1_555
Hf4 O32 1.933748 1_555
Hf4 O34 2.023135 1_555
Hf4 O30 2.044404 1_555
Hf4 O106 2.080019 1_555
Hf4 O104 2.097394 1_555
Hf4 O102 2.373742 1_555
Hf5 O35 1.928125 1_555
Hf5 O103 2.032057 1_555
Hf5 O107 2.045920 1_555
Hf5 O31 2.053638 1_555
Hf5 O33 2.208164 1_555
Hf5 O105 2.315882 1_555
Hf6 O53 1.947037 1_554
Hf6 O123 2.025686 1_555
Hf6 O49 2.059142 1_554
Hf6 O121 2.106932 1_555
Hf6 O51 2.124246 1_554
Hf6 O125 2.220794 1_555
Hf7 O56 1.975675 1_555
Hf7 O130 2.004685 1_555
Hf7 O54 2.062187 1_555
Hf7 O126 2.071267 1_555
Hf7 O128 2.124934 1_555
Hf7 O58 2.207899 1_555
Hf8 O62 1.910140 1_555
Hf8 O64 1.956781 1_555
Hf8 O132 2.065948 1_555
Hf8 O134 2.114735 1_555
Hf8 O60 2.222332 1_555
Hf8 O136 2.301859 1_555
Hf9 O63 1.999144 1_555
Hf9 O133 2.020197 1_555
Hf9 O135 2.040531 1_555
Hf9 O61 2.047864 1_555
Hf9 O137 2.101957 1_555
Hf9 O65 2.254151 1_555
Hf10 O70 1.996595 1_555
Hf10 O142 2.013217 1_555
Hf10 O138 2.019427 1_555
Hf10 O66 2.068415 1_555
Hf10 O140 2.104172 1_555
Hf10 O68 2.265045 1_555
Hf11 O69 1.980342 1_555
Hf11 O71 1.990759 1_555
Hf11 O141 2.052725 1_555
Hf11 O139 2.057505 1_555
Hf11 O143 2.145218 1_555
Hf11 O67 2.224732 1_555
O0 Si0 1.658220 1_555
O0 Ta0 1.928392 1_545
O1 Si1 1.655629 1_555
O1 Ta1 1.927491 1_555
O2 S0 1.497849 1_555
O2 Ta1 2.175863 1_565
O3 Si2 1.666162 1_555
O3 Ta0 1.941570 1_655
O4 Si3 1.661611 1_555
O4 Ta1 1.915436 1_555
O5 S1 1.493777 1_655
O5 Ta0 2.112058 1_645
O6 Si4 1.658808 1_555
O6 Ta2 1.916976 1_545
O7 Si5 1.651069 1_555
O7 Ta3 1.936641 1_545
O8 Si7 1.668615 1_555
O8 Ta3 1.859248 1_555
O9 Si6 1.664034 1_555
O9 Ta2 1.909187 1_655
O10 Si8 1.659533 1_545
O10 Ta3 1.955666 1_545
O11 S2 1.506635 1_545
O11 Ta2 2.136205 1_645
O12 Si8 1.631790 1_555
O13 S2 1.455916 1_555
O13 Ta4 2.273587 1_655
O14 Si4 1.652711 1_555
O14 Ta4 1.949724 1_545
O15 Si5 1.642542 1_555
O16 Si6 1.654259 1_455
O16 Ta4 1.925993 1_555
O17 Si7 1.610162 1_555
O18 S0 1.458112 1_555
O18 Ta5 2.296712 1_565
O19 Si2 1.633067 1_555
O20 S1 1.473275 1_555
O21 Si3 1.652115 1_555
O21 Ta5 1.933736 1_555
O22 Si0 1.643501 1_565
O23 Si1 1.647754 1_565
O23 Ta5 1.968307 1_565
O24 Si9 1.627628 1_555
O25 Si10 1.608067 1_555
O26 Si11 1.610665 1_555
O27 Si12 1.600263 1_555
O28 S3 1.468776 1_555
O29 Si13 1.614745 1_555
O30 Si14 1.615809 1_555
O31 Si15 1.640396 1_555
O32 Si16 1.620707 1_555
O33 S4 1.475849 1_555
O34 Si17 1.602658 1_555
O35 Si18 1.637437 1_555
O36 Si17 1.665304 1_555
O36 Ta6 1.880406 1_554
O37 Si18 1.623446 1_555
O37 Ta7 1.973312 1_554
O38 Si14 1.684413 1_555
O38 Ta6 1.871192 1_554
O39 Si15 1.636090 1_555
O39 Ta7 1.976166 1_554
O40 Si16 1.651470 1_555
O40 Ta6 1.953342 1_554
O41 S4 1.456455 1_555
O41 Ta7 2.278806 1_554
O42 Si11 1.640188 1_555
O42 Ta8 1.954869 1_555
O43 Si12 1.682168 1_555
O43 Ta9 1.850020 1_555
O44 S3 1.467402 1_555
O44 Ta8 2.220171 1_555
O45 Si13 1.664281 1_555
O45 Ta9 1.940587 1_555
O46 Si9 1.662789 1_555
O46 Ta8 1.931229 1_555
O47 Si10 1.690233 1_555
O47 Ta9 1.864554 1_555
O48 Si19 1.653557 1_555
O48 Ta10 1.929569 1_556
O49 Si20 1.624033 1_555
O50 Si21 1.648833 1_555
O50 Ta10 1.937598 1_556
O51 S5 1.488819 1_555
O52 S6 1.465500 1_555
O52 Ta10 2.278925 1_556
O53 Si22 1.627428 1_555
O54 Si23 1.611227 1_555
O55 Si24 1.635812 1_555
O55 Ta11 1.979061 1_555
O56 Si25 1.617308 1_555
O57 S7 1.461634 1_555
O57 Ta11 2.308718 1_555
O58 S8 1.480266 1_555
O59 Si26 1.642270 1_555
O59 Ta11 1.950933 1_555
O60 S8 1.483448 1_555
O61 Si26 1.619237 1_555
O62 Si23 1.634769 1_555
O63 Si24 1.610718 1_555
O64 Si25 1.631667 1_555
O65 S7 1.465121 1_555
O66 Si21 1.612759 1_555
O67 S5 1.483487 1_555
O68 S6 1.466850 1_555
O69 Si22 1.620962 1_555
O70 Si19 1.610924 1_555
O71 Si20 1.608796 1_555
O72 S8 1.505320 1_555
O72 Ta0 2.099843 1_555
O73 Si26 1.664582 1_555
O73 Ta1 1.977112 1_565
O74 Si23 1.640704 1_555
O74 Ta1 1.967025 1_565
O75 Si24 1.669095 1_555
O75 Ta0 1.975248 1_655
O76 Si25 1.659756 1_555
O76 Ta0 1.945870 1_545
O77 S7 1.528024 1_555
O77 Ta1 2.063674 1_555
O78 Si21 1.659029 1_555
O78 Ta2 1.998138 1_545
O79 S5 1.464317 1_555
O79 Ta3 2.299695 1_545
O80 S6 1.524473 1_555
O80 Ta2 2.094106 1_555
O81 Si22 1.639461 1_555
O81 Ta3 1.995890 1_555
O82 Si19 1.638836 1_555
O82 Ta3 2.033744 1_555
O83 Si20 1.649348 1_555
O83 Ta2 1.970691 1_655
O84 Si9 1.635680 1_555
O85 Si10 1.634645 1_555
O85 Ta4 1.993538 1_645
O86 Si11 1.652351 1_555
O86 Ta4 1.910323 1_545
O87 Si12 1.604959 1_555
O88 S3 1.476814 1_555
O89 Si13 1.636646 1_555
O89 Ta4 1.996820 1_655
O90 Si14 1.638954 1_555
O90 Ta5 1.977613 1_565
O91 Si15 1.662817 1_555
O92 Si16 1.640326 1_555
O92 Ta5 1.976477 1_555
O93 S4 1.498470 1_555
O94 Si17 1.622804 1_555
O95 Si18 1.643892 1_555
O95 Ta5 1.903280 1_555
O96 Si8 1.645354 1_545
O97 S2 1.478552 1_545
O98 Si4 1.601248 1_555
O99 Si5 1.615831 1_555
O100 Si7 1.623370 1_555
O101 Si6 1.629615 1_555
O102 S0 1.478655 1_555
O103 Si2 1.661522 1_555
O104 Si3 1.633350 1_555
O105 S1 1.480020 1_655
O106 Si0 1.604024 1_555
O107 Si1 1.621339 1_555
O108 Si19 1.676818 1_555
O108 Ta6 1.967337 1_555
O109 Si20 1.661185 1_555
O109 Ta7 1.888005 1_555
O110 S5 1.494389 1_555
O110 Ta6 2.234493 1_555
O111 Si21 1.644844 1_655
O111 Ta7 1.952632 1_555
O112 S6 1.487741 1_545
O112 Ta6 2.268120 1_555
O113 Si22 1.645186 1_545
O113 Ta7 1.942794 1_555
O114 Si23 1.643091 1_545
O114 Ta8 1.914929 1_555
O115 Si24 1.671816 1_545
O115 Ta9 1.994104 1_555
O116 Si25 1.626540 1_555
O116 Ta8 1.991512 1_555
O117 S7 1.488265 1_555
O117 Ta9 2.283637 1_555
O118 Si26 1.640002 1_555
O118 Ta8 1.972324 1_555
O119 S8 1.469084 1_655
O119 Ta9 2.316324 1_555
O120 Si17 1.648079 1_555
O120 Ta10 1.897777 1_555
O121 Si18 1.618939 1_555
O122 Si15 1.626111 1_455
O122 Ta10 2.014220 1_555
O123 Si14 1.619275 1_555
O124 Si16 1.629438 1_565
O124 Ta10 1.978911 1_555
O125 S4 1.500296 1_565
O126 Si11 1.630623 1_565
O127 Si12 1.652041 1_565
O127 Ta11 1.881292 1_555
O128 S3 1.515293 1_555
O129 Si13 1.629820 1_555
O129 Ta11 1.962617 1_555
O130 Si10 1.622495 1_455
O131 Si9 1.643437 1_555
O131 Ta11 1.971129 1_555
O132 Si0 1.655218 1_565
O133 Si1 1.629622 1_565
O134 S0 1.499338 1_555
O135 Si2 1.598678 1_555
O136 S1 1.490403 1_555
O137 Si3 1.620403 1_555
O138 Si4 1.631090 1_555
O139 Si5 1.637013 1_555
O140 Si6 1.617911 1_455
O141 Si7 1.633548 1_555
O142 Si8 1.611285 1_555
O143 S2 1.486838 1_555
