# generated using pymatgen
data_KCu4(AsO4)3
_symmetry_space_group_name_H-M   'P 1'
_cell_length_a   8.84231606
_cell_length_b   8.84231606
_cell_length_c   7.54950744
_cell_angle_alpha   70.28960790
_cell_angle_beta   70.28960790
_cell_angle_gamma   90.67865041
_symmetry_Int_Tables_number   1
_chemical_formula_structural   KCu4(AsO4)3
_chemical_formula_sum   'K2 Cu8 As6 O24'
_cell_volume   517.84825794
_cell_formula_units_Z   2
loop_
 _symmetry_equiv_pos_site_id
 _symmetry_equiv_pos_as_xyz
  1  'x, y, z'
loop_
 _atom_site_type_symbol
 _atom_site_label
 _atom_site_symmetry_multiplicity
 _atom_site_fract_x
 _atom_site_fract_y
 _atom_site_fract_z
 _atom_site_occupancy
  K  K0  1  0.01232400  0.98767600  0.75000000  1
  K  K1  1  0.98767600  0.01232400  0.25000000  1
  Cu  Cu0  1  0.61766100  0.93234500  0.64440400  1
  Cu  Cu1  1  0.50508500  0.49491500  0.25000000  1
  Cu  Cu2  1  0.73747200  0.26252800  0.75000000  1
  Cu  Cu3  1  0.93234500  0.61766100  0.14440400  1
  Cu  Cu4  1  0.26252800  0.73747200  0.25000000  1
  Cu  Cu5  1  0.49491500  0.50508500  0.75000000  1
  Cu  Cu6  1  0.06765500  0.38233900  0.85559600  1
  Cu  Cu7  1  0.38233900  0.06765500  0.35559600  1
  As  As0  1  0.35212400  0.11323100  0.87612000  1
  As  As1  1  0.11323100  0.35212400  0.37612000  1
  As  As2  1  0.88676900  0.64787600  0.62388000  1
  As  As3  1  0.72371700  0.27628300  0.25000000  1
  As  As4  1  0.27628300  0.72371700  0.75000000  1
  As  As5  1  0.64787600  0.88676900  0.12388000  1
  O  O0  1  0.17448000  0.18553300  0.86737300  1
  O  O1  1  0.82552000  0.81446700  0.13262700  1
  O  O2  1  0.58366600  0.97249100  0.30702500  1
  O  O3  1  0.97249100  0.58366600  0.80702500  1
  O  O4  1  0.49937600  0.72589400  0.17989300  1
  O  O5  1  0.48085200  0.72347800  0.74127600  1
  O  O6  1  0.72589400  0.49937600  0.67989300  1
  O  O7  1  0.50062400  0.27410600  0.82010700  1
  O  O8  1  0.15529300  0.74892000  0.96642800  1
  O  O9  1  0.18553300  0.17448000  0.36737300  1
  O  O10  1  0.51914800  0.27652200  0.25872400  1
  O  O11  1  0.68597300  0.02095200  0.88043900  1
  O  O12  1  0.97904800  0.31402700  0.61956100  1
  O  O13  1  0.02095200  0.68597300  0.38043900  1
  O  O14  1  0.84470700  0.25108000  0.03357200  1
  O  O15  1  0.27410600  0.50062400  0.32010700  1
  O  O16  1  0.74892000  0.15529300  0.46642800  1
  O  O17  1  0.27652200  0.51914800  0.75872400  1
  O  O18  1  0.41633400  0.02750900  0.69297500  1
  O  O19  1  0.31402700  0.97904800  0.11956100  1
  O  O20  1  0.02750900  0.41633400  0.19297500  1
  O  O21  1  0.25108000  0.84470700  0.53357200  1
  O  O22  1  0.72347800  0.48085200  0.24127600  1
  O  O23  1  0.81446700  0.82552000  0.63262700  1
loop_
_geom_bond_atom_site_label_1
_geom_bond_atom_site_label_2
_geom_bond_distance
_geom_bond_site_symmetry_2
K0 O9 2.675018 1_565
K0 O1 2.675018 1_456
K0 O12 2.771698 1_465
K0 O11 2.771698 1_465
K0 O0 2.783013 1_565
K0 O23 2.783013 1_455
K0 O8 2.802601 1_555
K0 O21 2.802601 1_555
K1 O23 2.675018 1_545
K1 O0 2.675018 1_654
K1 O19 2.771698 1_645
K1 O13 2.771698 1_645
K1 O9 2.783013 1_655
K1 O1 2.783013 1_545
K1 O16 2.802601 1_555
K1 O14 2.802601 1_555
Cu0 O18 1.953185 1_565
Cu0 O5 1.961735 1_555
Cu0 O23 1.979830 1_555
Cu0 O16 2.036156 1_565
Cu0 O11 2.410524 1_565
Cu0 O2 2.571555 1_555
Cu1 O10 1.916864 1_555
Cu1 O22 1.916864 1_555
Cu1 O4 1.935288 1_555
Cu1 O15 1.935288 1_555
Cu2 O7 1.992633 1_555
Cu2 O6 1.992633 1_555
Cu2 O12 1.998893 1_555
Cu2 O11 1.998893 1_555
Cu2 O14 2.591881 1_556
Cu2 O16 2.591881 1_555
Cu3 O20 1.953185 1_655
Cu3 O22 1.961735 1_555
Cu3 O1 1.979830 1_555
Cu3 O8 2.036156 1_654
Cu3 O13 2.410524 1_655
Cu3 O3 2.571555 1_554
Cu4 O15 1.992633 1_555
Cu4 O4 1.992633 1_555
Cu4 O19 1.998893 1_555
Cu4 O13 1.998893 1_555
Cu4 O21 2.591881 1_555
Cu4 O8 2.591881 1_554
Cu5 O5 1.916864 1_555
Cu5 O17 1.916864 1_555
Cu5 O6 1.935288 1_555
Cu5 O7 1.935288 1_555
Cu6 O3 1.953185 1_455
Cu6 O17 1.961735 1_555
Cu6 O0 1.979830 1_555
Cu6 O14 2.036156 1_456
Cu6 O12 2.410524 1_455
Cu6 O20 2.571555 1_556
Cu7 O2 1.953185 1_545
Cu7 O10 1.961735 1_555
Cu7 O9 1.979830 1_555
Cu7 O21 2.036156 1_545
Cu7 O19 2.410524 1_545
Cu7 O18 2.571555 1_555
As0 O0 1.716313 1_555
As0 O18 1.730961 1_555
As0 O19 1.732339 1_546
As0 O7 1.761247 1_555
As1 O9 1.716313 1_555
As1 O20 1.730961 1_555
As1 O12 1.732339 1_455
As1 O15 1.761247 1_555
As2 O23 1.716313 1_555
As2 O3 1.730961 1_555
As2 O13 1.732339 1_655
As2 O6 1.761247 1_555
As3 O16 1.713498 1_555
As3 O14 1.713498 1_555
As3 O22 1.787779 1_555
As3 O10 1.787779 1_555
As4 O8 1.713498 1_555
As4 O21 1.713498 1_555
As4 O5 1.787779 1_555
As4 O17 1.787779 1_555
As5 O1 1.716313 1_555
As5 O2 1.730961 1_555
As5 O11 1.732339 1_564
As5 O4 1.761247 1_555
