# generated using pymatgen
data_Na9Ca5Ta7Si9(SO8)9
_symmetry_space_group_name_H-M   'P 1'
_cell_length_a   9.10188701
_cell_length_b   9.08693896
_cell_length_c   23.01029470
_cell_angle_alpha   89.69376925
_cell_angle_beta   90.71668862
_cell_angle_gamma   120.20599947
_symmetry_Int_Tables_number   1
_chemical_formula_structural   Na9Ca5Ta7Si9(SO8)9
_chemical_formula_sum   'Na9 Ca5 Ta7 Si9 S9 O72'
_cell_volume   1644.60790825
_cell_formula_units_Z   1
loop_
 _symmetry_equiv_pos_site_id
 _symmetry_equiv_pos_as_xyz
  1  'x, y, z'
loop_
 _atom_site_type_symbol
 _atom_site_label
 _atom_site_symmetry_multiplicity
 _atom_site_fract_x
 _atom_site_fract_y
 _atom_site_fract_z
 _atom_site_occupancy
  Na  Na0  1  0.97243402  0.34356837  0.74597778  1
  Na  Na1  1  0.63857020  0.97504199  0.58054107  1
  Na  Na2  1  0.32627448  0.01944671  0.40549215  1
  Na  Na3  1  0.98246934  0.00570486  0.49517475  1
  Na  Na4  1  0.97711067  0.00169264  0.99305469  1
  Na  Na5  1  0.65625744  0.31151524  0.82991509  1
  Na  Na6  1  0.66098226  0.32423121  0.32219758  1
  Na  Na7  1  0.32694669  0.68706603  0.16350473  1
  Na  Na8  1  0.30463912  0.66869786  0.65617176  1
  Ca  Ca0  1  0.99466277  0.00288548  0.35002806  1
  Ca  Ca1  1  0.99042927  0.99567278  0.86107021  1
  Ca  Ca2  1  0.66212165  0.33013838  0.68695351  1
  Ca  Ca3  1  0.66752927  0.32260291  0.18057444  1
  Ca  Ca4  1  0.32645525  0.65813085  0.51891773  1
  Ta  Ta0  1  0.99030356  0.99939387  0.64499944  1
  Ta  Ta1  1  0.00053995  0.99246352  0.14419260  1
  Ta  Ta2  1  0.69948501  0.34808024  0.97891942  1
  Ta  Ta3  1  0.65859728  0.31332260  0.48389445  1
  Ta  Ta4  1  0.33718880  0.66341679  0.02045319  1
  Ta  Ta5  1  0.33956254  0.68348861  0.31159676  1
  Ta  Ta6  1  0.34578502  0.66567589  0.81536580  1
  Si  Si0  1  0.29565840  0.00854670  0.25522861  1
  Si  Si1  1  0.70006913  0.99300487  0.75215293  1
  Si  Si2  1  0.96467858  0.33310359  0.59033142  1
  Si  Si3  1  0.35717138  0.03372039  0.58613522  1
  Si  Si4  1  0.97202600  0.63047112  0.08496245  1
  Si  Si5  1  0.66707418  0.03836551  0.08361956  1
  Si  Si6  1  0.61877156  0.64776032  0.92156257  1
  Si  Si7  1  0.05105751  0.38386048  0.91635470  1
  Si  Si8  1  0.63441989  0.96689090  0.42219243  1
  S  S0  1  0.69817108  0.71070671  0.24840780  1
  S  S1  1  0.01534235  0.30571437  0.24952887  1
  S  S2  1  0.28209665  0.29502038  0.75127812  1
  S  S3  1  0.01552667  0.71833562  0.75148842  1
  S  S4  1  0.68011818  0.63067365  0.58255875  1
  S  S5  1  0.36540613  0.32974594  0.08254321  1
  S  S6  1  0.35078628  0.95454961  0.91777796  1
  S  S7  1  0.35047005  0.38057999  0.41544867  1
  S  S8  1  0.03206901  0.65095263  0.41395203  1
  O  O0  1  0.21483515  0.00277522  0.31594215  1
  O  O1  1  0.79221152  0.78461674  0.30151435  1
  O  O2  1  0.99318246  0.20834078  0.30210874  1
  O  O3  1  0.21293528  0.19676260  0.80331171  1
  O  O4  1  0.00952135  0.80233637  0.80344373  1
  O  O5  1  0.82873545  0.02310767  0.80297364  1
  O  O6  1  0.79928275  0.96686336  0.69106923  1
  O  O7  1  0.16868575  0.20374062  0.69845481  1
  O  O8  1  0.02776593  0.82222508  0.69756726  1
  O  O9  1  0.78452206  0.82452904  0.19644520  1
  O  O10  1  0.03183218  0.21739322  0.19727340  1
  O  O11  1  0.15908866  0.98374048  0.19884419  1
  O  O12  1  0.89103046  0.35233444  0.64917732  1
  O  O13  1  0.48602600  0.12959486  0.63647860  1
  O  O14  1  0.66034811  0.53918339  0.63560363  1
  O  O15  1  0.90303036  0.52558255  0.14170948  1
  O  O16  1  0.60901788  0.08727554  0.14046048  1
  O  O17  1  0.46276641  0.36832758  0.13567348  1
  O  O18  1  0.44346905  0.30108010  0.03181072  1
  O  O19  1  0.84052948  0.53396490  0.02682243  1
  O  O20  1  0.69509992  0.17164229  0.02745271  1
  O  O21  1  0.46191402  0.16502880  0.52349536  1
  O  O22  1  0.69693872  0.54262648  0.52997309  1
  O  O23  1  0.82242922  0.30421386  0.53218271  1
  O  O24  1  0.50301872  0.65690756  0.97289967  1
  O  O25  1  0.15946312  0.50657302  0.97058779  1
  O  O26  1  0.34027555  0.85610358  0.97034652  1
  O  O27  1  0.54702593  0.87690268  0.48047675  1
  O  O28  1  0.32771474  0.45231193  0.46781527  1
  O  O29  1  0.13283357  0.67504811  0.46581217  1
  O  O30  1  0.12489642  0.63148300  0.36136180  1
  O  O31  1  0.49435933  0.85331331  0.36373526  1
  O  O32  1  0.35908577  0.48303191  0.36264534  1
  O  O33  1  0.13734260  0.49911964  0.85605342  1
  O  O34  1  0.36702306  0.86443002  0.86464179  1
  O  O35  1  0.49819656  0.63438501  0.86128395  1
  O  O36  1  0.01352561  0.80098999  0.40697431  1
  O  O37  1  0.82212148  0.00541264  0.41468914  1
  O  O38  1  0.21217251  0.20217875  0.41037248  1
  O  O39  1  0.03722864  0.20567684  0.92171413  1
  O  O40  1  0.20027135  0.96843610  0.91356730  1
  O  O41  1  0.80292694  0.80562302  0.92248241  1
  O  O42  1  0.94918658  0.13639120  0.59095411  1
  O  O43  1  0.17322797  0.02817032  0.59401647  1
  O  O44  1  0.84743708  0.80236163  0.58610364  1
  O  O45  1  0.98229712  0.82231021  0.09356738  1
  O  O46  1  0.84588007  0.02905899  0.09462906  1
  O  O47  1  0.18979616  0.17244196  0.09025780  1
  O  O48  1  0.67343897  0.15489997  0.75044973  1
  O  O49  1  0.45710592  0.34021395  0.74286428  1
  O  O50  1  0.86614847  0.54643172  0.74737292  1
  O  O51  1  0.66709367  0.54004010  0.23968498  1
  O  O52  1  0.87724331  0.34178743  0.24419302  1
  O  O53  1  0.48375141  0.16022730  0.24863499  1
  O  O54  1  0.61372134  0.46307989  0.92785276  1
  O  O55  1  0.85772382  0.36837942  0.92319994  1
  O  O56  1  0.50748746  0.12336421  0.92057023  1
  O  O57  1  0.62981661  0.15524155  0.42301160  1
  O  O58  1  0.51658871  0.37842730  0.41885324  1
  O  O59  1  0.86220227  0.49376397  0.41729763  1
  O  O60  1  0.32942165  0.47366769  0.07234182  1
  O  O61  1  0.16455711  0.67259800  0.06961561  1
  O  O62  1  0.51795119  0.84388792  0.06530593  1
  O  O63  1  0.33644216  0.85112266  0.57787354  1
  O  O64  1  0.54469452  0.67067375  0.57541246  1
  O  O65  1  0.15505537  0.46892424  0.57978056  1
  O  O66  1  0.30207676  0.81659390  0.25909662  1
  O  O67  1  0.52458767  0.70184400  0.25399978  1
  O  O68  1  0.18300749  0.47527341  0.25573333  1
  O  O69  1  0.27681046  0.46173515  0.75425281  1
  O  O70  1  0.17217036  0.70047379  0.75215490  1
  O  O71  1  0.50914060  0.81246173  0.75915201  1
loop_
_geom_bond_atom_site_label_1
_geom_bond_atom_site_label_2
_geom_bond_distance
_geom_bond_site_symmetry_2
Na0 O12 2.352204 1_555
Na0 O48 2.380417 1_555
Na0 O69 2.420757 1_655
Na0 O50 2.476056 1_555
Na0 O70 2.812331 1_655
Na0 O5 2.842564 1_555
Na0 O7 2.889363 1_655
Na0 O33 2.911130 1_655
Na1 O63 2.390521 1_555
Na1 O42 2.452748 1_565
Na1 O64 2.452872 1_555
Na1 O27 2.453033 1_555
Na1 O13 2.753719 1_565
Na1 O23 2.821347 1_565
Na1 O6 2.937324 1_555
Na2 O0 2.257025 1_555
Na2 O38 2.363995 1_555
Na2 O57 2.421843 1_555
Na2 O36 2.522044 1_545
Na2 O58 2.836840 1_555
Na3 O37 2.342751 1_555
Na3 O42 2.601136 1_555
Na3 O44 2.653377 1_545
Na3 O38 2.770417 1_655
Na3 O43 2.789014 1_655
Na3 O36 2.871083 1_645
Na4 O39 2.323647 1_655
Na4 O41 2.334342 1_545
Na4 O46 2.706702 1_556
Na4 O45 2.835985 1_546
Na4 O47 2.839731 1_656
Na4 O40 2.877302 1_645
Na5 O48 2.377441 1_555
Na5 O56 2.609812 1_555
Na5 O55 2.682728 1_555
Na5 O54 2.777926 1_555
Na5 O49 2.783025 1_555
Na5 O50 2.785294 1_555
Na6 O53 2.286495 1_555
Na6 O52 2.625077 1_555
Na6 O51 2.703089 1_555
Na6 O57 2.712913 1_555
Na6 O59 2.759149 1_555
Na6 O58 2.766298 1_555
Na7 O66 2.565745 1_555
Na7 O61 2.568452 1_555
Na7 O67 2.693761 1_555
Na7 O68 2.722660 1_555
Na7 O62 2.780259 1_555
Na7 O60 2.872223 1_555
Na8 O63 2.361354 1_555
Na8 O65 2.392948 1_555
Na8 O70 2.615107 1_555
Na8 O69 2.860790 1_555
Na8 O71 2.874417 1_555
Na8 O64 2.879126 1_555
Ca0 O0 2.161590 1_655
Ca0 O2 2.168978 1_555
Ca0 O37 2.185340 1_555
Ca0 O1 2.206855 1_545
Ca0 O36 2.323340 1_645
Ca0 O38 2.340428 1_655
Ca1 O5 2.081248 1_565
Ca1 O41 2.227219 1_555
Ca1 O39 2.228440 1_665
Ca1 O4 2.283158 1_655
Ca1 O3 2.350437 1_665
Ca1 O40 2.362866 1_655
Ca2 O13 2.067814 1_555
Ca2 O12 2.181245 1_555
Ca2 O48 2.194862 1_555
Ca2 O14 2.238564 1_555
Ca2 O49 2.319228 1_555
Ca2 O50 2.352956 1_555
Ca3 O16 2.138054 1_555
Ca3 O15 2.201938 1_555
Ca3 O53 2.232740 1_555
Ca3 O52 2.326979 1_555
Ca3 O17 2.332386 1_555
Ca3 O51 2.406389 1_555
Ca4 O65 2.163595 1_555
Ca4 O27 2.185098 1_555
Ca4 O63 2.187698 1_555
Ca4 O29 2.199853 1_555
Ca4 O28 2.219490 1_555
Ca4 O64 2.314693 1_555
O0 Si0 1.575354 1_555
O1 S0 1.442620 1_555
O2 S1 1.449997 1_655
O3 S2 1.438365 1_555
O4 S3 1.438137 1_555
O5 Si1 1.568640 1_545
O6 Si1 1.760296 1_555
O6 Ta0 1.938985 1_555
O7 S2 1.532576 1_555
O7 Ta0 2.130245 1_445
O8 S3 1.525835 1_555
O8 Ta0 2.166213 1_455
O9 S0 1.519689 1_555
O9 Ta1 2.158851 1_655
O10 S1 1.499493 1_555
O10 Ta1 2.276573 1_545
O11 Si0 1.720497 1_565
O11 Ta1 1.933614 1_555
O12 Si2 1.567315 1_555
O13 Si3 1.557277 1_555
O14 S4 1.434391 1_555
O15 Si4 1.553308 1_555
O16 Si5 1.564368 1_555
O17 S5 1.437942 1_555
O18 S5 1.464812 1_555
O18 Ta2 2.481442 1_554
O19 Si4 1.705184 1_555
O19 Ta2 1.875834 1_554
O20 Si5 1.697876 1_555
O20 Ta2 1.933094 1_554
O21 Si3 1.811490 1_555
O21 Ta3 1.857767 1_555
O22 S4 1.505301 1_555
O22 Ta3 2.206886 1_555
O23 Si2 1.775941 1_555
O23 Ta3 1.883304 1_555
O24 Si6 1.622543 1_555
O24 Ta4 1.900222 1_556
O25 Si7 1.628269 1_555
O25 Ta4 1.901526 1_556
O26 S6 1.475738 1_555
O26 Ta4 2.079814 1_556
O27 Si8 1.568605 1_555
O28 S7 1.438822 1_555
O29 S8 1.444458 1_555
O30 S8 1.545258 1_555
O30 Ta5 2.115016 1_555
O31 Si8 1.774182 1_555
O31 Ta5 1.896205 1_555
O32 S7 1.505313 1_555
O32 Ta5 2.242090 1_555
O33 Si7 1.680206 1_555
O33 Ta6 1.976519 1_555
O34 S6 1.524598 1_555
O34 Ta6 2.061549 1_555
O35 Si6 1.724107 1_555
O35 Ta6 1.865118 1_555
O36 S8 1.463420 1_555
O37 Si8 1.573558 1_545
O38 S7 1.473503 1_555
O39 Si7 1.563926 1_555
O40 S6 1.439661 1_555
O41 Si6 1.564534 1_555
O42 Si2 1.720887 1_555
O42 Ta0 1.917533 1_545
O43 Si3 1.661632 1_555
O43 Ta0 1.955558 1_445
O44 S4 1.538649 1_555
O44 Ta0 2.091006 1_555
O45 Si4 1.710567 1_555
O45 Ta1 1.879175 1_655
O46 Si5 1.687583 1_555
O46 Ta1 1.954401 1_645
O47 S5 1.528065 1_555
O47 Ta1 2.092674 1_545
O48 Si1 1.607002 1_545
O49 S2 1.446424 1_555
O50 S3 1.469335 1_655
O51 S0 1.444264 1_555
O52 S1 1.453538 1_655
O53 Si0 1.575952 1_555
O54 Si6 1.661114 1_555
O54 Ta2 1.966435 1_555
O55 Si7 1.702574 1_655
O55 Ta2 1.878454 1_555
O56 S6 1.479461 1_545
O56 Ta2 2.325126 1_555
O57 Si8 1.733196 1_545
O57 Ta3 1.930902 1_555
O58 S7 1.522966 1_555
O58 Ta3 2.229822 1_555
O59 S8 1.488710 1_655
O59 Ta3 2.336186 1_555
O60 S5 1.516093 1_555
O60 Ta4 2.064223 1_555
O61 Si4 1.637429 1_455
O61 Ta4 1.983167 1_555
O62 Si5 1.650140 1_565
O62 Ta4 1.929295 1_555
O63 Si3 1.585033 1_565
O64 S4 1.457255 1_555
O65 Si2 1.562098 1_455
O66 Si0 1.776100 1_565
O66 Ta5 1.851495 1_555
O67 S0 1.547962 1_555
O67 Ta5 2.095531 1_555
O68 S1 1.534340 1_555
O68 Ta5 2.128373 1_555
O69 S2 1.541602 1_555
O69 Ta6 2.154309 1_555
O70 S3 1.513813 1_555
O70 Ta6 2.270028 1_555
O71 Si1 1.694950 1_555
O71 Ta6 1.922779 1_555
