# generated using pymatgen
data_FePO4
_symmetry_space_group_name_H-M   'P 1'
_cell_length_a   5.37564696
_cell_length_b   5.37501180
_cell_length_c   11.98818587
_cell_angle_alpha   90.22391845
_cell_angle_beta   89.77615017
_cell_angle_gamma   120.44923317
_symmetry_Int_Tables_number   1
_chemical_formula_structural   FePO4
_chemical_formula_sum   'Fe3 P3 O12'
_cell_volume   298.61117420
_cell_formula_units_Z   3
loop_
 _symmetry_equiv_pos_site_id
 _symmetry_equiv_pos_as_xyz
  1  'x, y, z'
loop_
 _atom_site_type_symbol
 _atom_site_label
 _atom_site_symmetry_multiplicity
 _atom_site_fract_x
 _atom_site_fract_y
 _atom_site_fract_z
 _atom_site_occupancy
  Fe  Fe0  1  0.99966900  0.50069000  0.83161600  1
  Fe  Fe1  1  0.49717700  0.49687500  0.16666100  1
  Fe  Fe2  1  0.50070300  0.99981400  0.50173400  1
  P  P0  1  0.99770600  0.50108200  0.33578500  1
  P  P1  1  0.50079400  0.50086000  0.66665500  1
  P  P2  1  0.50130000  0.99772800  0.99753600  1
  O  O0  1  0.57171900  0.80841500  0.06999300  1
  O  O1  1  0.18598300  0.76664700  0.40982000  1
  O  O2  1  0.23545400  0.42277800  0.74026800  1
  O  O3  1  0.76521200  0.57902000  0.74015000  1
  O  O4  1  0.42247000  0.23540100  0.59306200  1
  O  O5  1  0.42509300  0.19057900  0.06904400  1
  O  O6  1  0.57920900  0.76540200  0.59318200  1
  O  O7  1  0.80838300  0.57188600  0.26346200  1
  O  O8  1  0.76701400  0.18617500  0.92362200  1
  O  O9  1  0.23449500  0.81705700  0.92310200  1
  O  O10  1  0.19073800  0.42551600  0.26416900  1
  O  O11  1  0.81688100  0.23407500  0.41014000  1
loop_
_geom_bond_atom_site_label_1
_geom_bond_atom_site_label_2
_geom_bond_distance
_geom_bond_site_symmetry_2
Fe0 O8 1.870690 1_555
Fe0 O2 1.872090 1_655
Fe0 O9 1.873116 1_655
Fe0 O3 1.876257 1_555
Fe1 O5 1.889967 1_555
Fe1 O10 1.890828 1_555
Fe1 O7 1.906784 1_555
Fe1 O0 1.907631 1_555
Fe2 O1 1.871319 1_555
Fe2 O4 1.871996 1_565
Fe2 O11 1.872729 1_565
Fe2 O6 1.876388 1_555
O0 P2 1.527459 1_554
O1 P0 1.543521 1_455
O2 P1 1.541356 1_555
O3 P1 1.541057 1_555
O4 P1 1.541325 1_555
O5 P2 1.548516 1_544
O6 P1 1.541020 1_555
O7 P0 1.527870 1_555
O8 P2 1.543414 1_545
O9 P2 1.545289 1_555
O10 P0 1.548008 1_455
O11 P0 1.545451 1_555
