# generated using pymatgen
data_Na5Zr2Nb2Si5PO24
_symmetry_space_group_name_H-M   'P 1'
_cell_length_a   9.12077700
_cell_length_b   9.11122628
_cell_length_c   22.88143533
_cell_angle_alpha   90.07761408
_cell_angle_beta   90.06364135
_cell_angle_gamma   120.00526991
_symmetry_Int_Tables_number   1
_chemical_formula_structural   Na5Zr2Nb2Si5PO24
_chemical_formula_sum   'Na15 Zr6 Nb6 Si15 P3 O72'
_cell_volume   1646.63816375
_cell_formula_units_Z   3
loop_
 _symmetry_equiv_pos_site_id
 _symmetry_equiv_pos_as_xyz
  1  'x, y, z'
loop_
 _atom_site_type_symbol
 _atom_site_label
 _atom_site_symmetry_multiplicity
 _atom_site_fract_x
 _atom_site_fract_y
 _atom_site_fract_z
 _atom_site_occupancy
  Na  Na0  1  0.64230193  0.00566895  0.25010746  1
  Na  Na1  1  0.36518362  0.36053468  0.24919671  1
  Na  Na2  1  0.99361219  0.63291261  0.24885938  1
  Na  Na3  1  0.99660241  0.36246053  0.74923801  1
  Na  Na4  1  0.03580683  0.70131529  0.57986018  1
  Na  Na5  1  0.66252939  0.96300847  0.58010431  1
  Na  Na6  1  0.97050178  0.66884193  0.91941956  1
  Na  Na7  1  0.70241661  0.03531359  0.91671741  1
  Na  Na8  1  0.32758426  0.29801997  0.92027107  1
  Na  Na9  1  0.00666804  0.00721413  0.49331360  1
  Na  Na10  1  0.00513603  0.00320416  0.00633623  1
  Na  Na11  1  0.65753178  0.32988125  0.83088654  1
  Na  Na12  1  0.66754805  0.33320097  0.33600332  1
  Na  Na13  1  0.33082569  0.66056419  0.16170086  1
  Na  Na14  1  0.34313815  0.66338655  0.66441476  1
  Zr  Zr0  1  0.99618983  0.99614316  0.35519955  1
  Zr  Zr1  1  0.00420940  0.00182519  0.84932027  1
  Zr  Zr2  1  0.66757257  0.33649402  0.18346507  1
  Zr  Zr3  1  0.66571164  0.33338751  0.98432701  1
  Zr  Zr4  1  0.32513821  0.66175958  0.02327156  1
  Zr  Zr5  1  0.33340276  0.66322829  0.52008458  1
  Nb  Nb0  1  0.00273063  0.00246519  0.64618590  1
  Nb  Nb1  1  0.00430704  -0.00004034  0.14642949  1
  Nb  Nb2  1  0.66133894  0.33303351  0.68689986  1
  Nb  Nb3  1  0.66861348  0.33194881  0.47764673  1
  Nb  Nb4  1  0.33136087  0.66924184  0.31552230  1
  Nb  Nb5  1  0.33260232  0.67289899  0.80947131  1
  Si  Si0  1  0.28996236  0.99875770  0.25104516  1
  Si  Si1  1  0.70808338  0.71097536  0.24978310  1
  Si  Si2  1  0.00181686  0.29029024  0.25054203  1
  Si  Si3  1  0.29539595  0.29353130  0.75014600  1
  Si  Si4  1  0.99771732  0.70729984  0.74943713  1
  Si  Si5  1  0.70634165  0.99782268  0.74893441  1
  Si  Si6  1  0.95346882  0.33087737  0.58437757  1
  Si  Si7  1  0.37733815  0.04965618  0.58241418  1
  Si  Si8  1  0.66714166  0.62064556  0.58318455  1
  Si  Si9  1  0.96182681  0.63351603  0.08391398  1
  Si  Si10  1  0.36735594  0.33060685  0.08380682  1
  Si  Si11  1  0.04235063  0.37594077  0.91502474  1
  Si  Si12  1  0.33377794  0.95770868  0.91655133  1
  Si  Si13  1  0.62545100  0.96114038  0.41893495  1
  Si  Si14  1  0.03897394  0.66499817  0.41903354  1
  P  P0  1  0.67166791  0.03819847  0.08382361  1
  P  P1  1  0.61844876  0.66668999  0.91550168  1
  P  P2  1  0.33919884  0.37872436  0.41620968  1
  O  O0  1  0.20726206  0.03976554  0.30627661  1
  O  O1  1  0.83202917  0.79338513  0.30573993  1
  O  O2  1  0.96275027  0.16797603  0.30630844  1
  O  O3  1  0.21501115  0.18418282  0.80951407  1
  O  O4  1  0.96970400  0.78675620  0.80880917  1
  O  O5  1  0.82381931  0.03625382  0.80707252  1
  O  O6  1  0.80240490  0.97244701  0.69165584  1
  O  O7  1  0.16298341  0.19323368  0.69510724  1
  O  O8  1  0.02472770  0.82890217  0.69244370  1
  O  O9  1  0.79933423  0.83809257  0.19354856  1
  O  O10  1  0.03642740  0.19903438  0.19370576  1
  O  O11  1  0.16300827  0.96234737  0.19387920  1
  O  O12  1  0.86311988  0.35710154  0.64261784  1
  O  O13  1  0.50098521  0.14256496  0.63943000  1
  O  O14  1  0.64772202  0.50331489  0.64073084  1
  O  O15  1  0.87262665  0.51888251  0.14175805  1
  O  O16  1  0.64804303  0.12357856  0.13871753  1
  O  O17  1  0.47954772  0.34889467  0.14180949  1
  O  O18  1  0.45461833  0.30270292  0.02436361  1
  O  O19  1  0.84873262  0.54329889  0.02444699  1
  O  O20  1  0.69431700  0.14892976  0.02832453  1
  O  O21  1  0.47070285  0.16864216  0.52560053  1
  O  O22  1  0.70016922  0.52980458  0.52679338  1
  O  O23  1  0.82736532  0.29849682  0.52770090  1
  O  O24  1  0.54164089  0.69866055  0.96948299  1
  O  O25  1  0.16736184  0.46335863  0.97014780  1
  O  O26  1  0.30402721  0.83708125  0.97158826  1
  O  O27  1  0.53685425  0.84996405  0.47725371  1
  O  O28  1  0.31604757  0.46618895  0.47014258  1
  O  O29  1  0.14903967  0.68402765  0.47736787  1
  O  O30  1  0.13768082  0.64010364  0.36037578  1
  O  O31  1  0.50321200  0.85906830  0.36035915  1
  O  O32  1  0.35895429  0.48800726  0.36025398  1
  O  O33  1  0.13753747  0.49500806  0.85619777  1
  O  O34  1  0.35899443  0.85882267  0.85833725  1
  O  O35  1  0.50540261  0.64062855  0.86067484  1
  O  O36  1  0.02312585  0.83297163  0.41307268  1
  O  O37  1  0.81274495  0.98531933  0.41301349  1
  O  O38  1  0.18073879  0.20195851  0.41133608  1
  O  O39  1  0.01608081  0.18411393  0.91083459  1
  O  O40  1  0.16423316  0.97608940  0.91136790  1
  O  O41  1  0.79842089  0.82347079  0.90886327  1
  O  O42  1  0.96279785  0.15503848  0.59066406  1
  O  O43  1  0.18645766  0.02464288  0.59107893  1
  O  O44  1  0.84197539  0.80906485  0.59069819  1
  O  O45  1  0.97206331  0.81842592  0.09046105  1
  O  O46  1  0.83441363  0.02716893  0.08914680  1
  O  O47  1  0.17912732  0.15915526  0.09060317  1
  O  O48  1  0.69198924  0.16919745  0.74122376  1
  O  O49  1  0.48244640  0.31535501  0.74179290  1
  O  O50  1  0.83797828  0.51382878  0.74256172  1
  O  O51  1  0.68127489  0.51980432  0.24386452  1
  O  O52  1  0.83841416  0.31702879  0.24376122  1
  O  O53  1  0.48176671  0.15706738  0.24355030  1
  O  O54  1  0.63435125  0.50428684  0.91965440  1
  O  O55  1  0.85637587  0.36301886  0.91933639  1
  O  O56  1  0.50523193  0.14512784  0.91886994  1
  O  O57  1  0.63292735  0.14622749  0.42253287  1
  O  O58  1  0.50194745  0.36749638  0.42137622  1
  O  O59  1  0.85183185  0.49047227  0.42326110  1
  O  O60  1  0.35350856  0.50045086  0.07957765  1
  O  O61  1  0.14990655  0.65638337  0.07978484  1
  O  O62  1  0.51536406  0.86301254  0.07776268  1
  O  O63  1  0.35811309  0.86109165  0.57992944  1
  O  O64  1  0.50721524  0.65194516  0.58122842  1
  O  O65  1  0.13697308  0.50172677  0.58047940  1
  O  O66  1  0.30197327  0.82278913  0.25778878  1
  O  O67  1  0.51912281  0.69353592  0.25753425  1
  O  O68  1  0.17545638  0.47884331  0.25765349  1
  O  O69  1  0.30294090  0.47729107  0.75525830  1
  O  O70  1  0.16856517  0.68630018  0.75518732  1
  O  O71  1  0.51973176  0.82746430  0.75610273  1
loop_
_geom_bond_atom_site_label_1
_geom_bond_atom_site_label_2
_geom_bond_distance
_geom_bond_site_symmetry_2
Na0 O53 2.467667 1_555
Na0 O67 2.486981 1_545
Na0 O52 2.488963 1_555
Na0 O66 2.696576 1_545
Na0 O16 2.757626 1_555
Na0 O2 2.836653 1_555
Na0 O31 2.842370 1_545
Na0 O9 2.871115 1_545
Na1 O68 2.461643 1_555
Na1 O51 2.499866 1_555
Na1 O53 2.560327 1_555
Na1 O67 2.636363 1_555
Na1 O17 2.693068 1_555
Na1 O32 2.804981 1_555
Na1 O0 2.850667 1_555
Na1 O10 2.888257 1_555
Na2 O66 2.464984 1_655
Na2 O52 2.494951 1_555
Na2 O51 2.500644 1_555
Na2 O68 2.662794 1_655
Na2 O15 2.672666 1_555
Na2 O30 2.854448 1_655
Na2 O1 2.856200 1_555
Na2 O11 2.890570 1_655
Na3 O48 2.440955 1_555
Na3 O69 2.448535 1_655
Na3 O50 2.452401 1_555
Na3 O70 2.560143 1_655
Na3 O12 2.714772 1_555
Na3 O33 2.744617 1_655
Na3 O5 2.898113 1_555
Na3 O7 2.924640 1_655
Na4 O65 2.415946 1_555
Na4 O44 2.426299 1_455
Na4 O63 2.545743 1_555
Na4 O43 2.565345 1_565
Na4 O29 2.599680 1_555
Na4 O8 2.847395 1_555
Na4 O22 2.913728 1_455
Na5 O42 2.413484 1_565
Na5 O63 2.447986 1_555
Na5 O64 2.454523 1_555
Na5 O27 2.592245 1_555
Na5 O44 2.645918 1_555
Na5 O6 2.834163 1_555
Na5 O23 2.908469 1_565
Na5 O13 3.016509 1_565
Na6 O55 2.438596 1_555
Na6 O40 2.459198 1_655
Na6 O41 2.591957 1_555
Na6 O54 2.655286 1_555
Na6 O19 2.657055 1_556
Na6 O4 2.752270 1_555
Na6 O26 2.889923 1_655
Na7 O56 2.457201 1_555
Na7 O39 2.482503 1_655
Na7 O41 2.492846 1_545
Na7 O55 2.587731 1_555
Na7 O5 2.741740 1_555
Na7 O20 2.769178 1_556
Na7 O24 2.920928 1_545
Na7 O34 3.021362 1_545
Na8 O54 2.470158 1_555
Na8 O39 2.498959 1_555
Na8 O40 2.547886 1_545
Na8 O56 2.612348 1_555
Na8 O18 2.638436 1_556
Na8 O3 2.733963 1_555
Na8 O25 2.812152 1_555
Na9 O36 2.478900 1_545
Na9 O37 2.486576 1_445
Na9 O38 2.526977 1_555
Na9 O43 2.729267 1_555
Na9 O42 2.732917 1_455
Na9 O44 2.790537 1_445
Na10 O47 2.446555 1_555
Na10 O45 2.476434 1_445
Na10 O46 2.531431 1_455
Na10 O40 2.693097 1_544
Na10 O39 2.710669 1_554
Na10 O41 2.846671 1_444
Na11 O56 2.548101 1_555
Na11 O49 2.550324 1_555
Na11 O50 2.619128 1_555
Na11 O48 2.627688 1_555
Na11 O55 2.630378 1_555
Na11 O54 2.650192 1_555
Na12 O57 2.528718 1_555
Na12 O59 2.537852 1_555
Na12 O58 2.583000 1_555
Na12 O52 2.672325 1_555
Na12 O51 2.673668 1_555
Na12 O53 2.680463 1_555
Na13 O60 2.448935 1_555
Na13 O61 2.483473 1_555
Na13 O62 2.614531 1_555
Na13 O68 2.690718 1_555
Na13 O67 2.705918 1_555
Na13 O66 2.733023 1_555
Na14 O64 2.456674 1_555
Na14 O65 2.570625 1_555
Na14 O69 2.592207 1_555
Na14 O63 2.600859 1_555
Na14 O71 2.608885 1_555
Na14 O70 2.689129 1_555
Nb0 O7 1.964864 1_555
Nb0 O8 1.995665 1_545
Nb0 O6 2.000213 1_445
Nb0 O43 2.026221 1_555
Nb0 O42 2.046761 1_455
Nb0 O44 2.067019 1_445
Nb1 O11 1.971054 1_545
Nb1 O45 1.992272 1_445
Nb1 O47 1.993590 1_555
Nb1 O10 2.002111 1_555
Nb1 O9 2.020821 1_445
Nb1 O46 2.135682 1_455
Nb2 O14 1.932710 1_555
Nb2 O13 1.945072 1_555
Nb2 O49 2.002012 1_555
Nb2 O12 2.015665 1_555
Nb2 O50 2.065587 1_555
Nb2 O48 2.067158 1_555
Nb3 O23 1.984896 1_555
Nb3 O21 1.999702 1_555
Nb3 O57 2.000523 1_555
Nb3 O59 2.005676 1_555
Nb3 O22 2.017935 1_555
Nb3 O58 2.136039 1_555
Nb4 O30 1.944241 1_555
Nb4 O31 1.944464 1_555
Nb4 O66 2.037997 1_555
Nb4 O32 2.063319 1_555
Nb4 O68 2.075361 1_555
Nb4 O67 2.090219 1_555
Nb5 O34 1.940152 1_555
Nb5 O70 1.993780 1_555
Nb5 O71 1.998202 1_555
Nb5 O33 2.015018 1_555
Nb5 O69 2.073482 1_555
Nb5 O35 2.098436 1_555
O0 Si0 1.608848 1_545
O0 Zr0 2.087577 1_445
O1 Si1 1.620600 1_555
O1 Zr0 2.039482 1_555
O2 Si2 1.613953 1_655
O2 Zr0 2.068140 1_545
O3 Si3 1.628122 1_555
O3 Zr1 2.024801 1_555
O4 Si4 1.618040 1_555
O4 Zr1 2.043459 1_665
O5 Si5 1.631157 1_545
O5 Zr1 2.062370 1_655
O6 Si5 1.656255 1_555
O7 Si3 1.664131 1_555
O8 Si4 1.649402 1_455
O9 Si1 1.652903 1_555
O10 Si2 1.656124 1_555
O11 Si0 1.665252 1_555
O12 Si6 1.646370 1_555
O13 Si7 1.652071 1_555
O14 Si8 1.650137 1_555
O15 Si9 1.631210 1_555
O15 Zr2 2.017399 1_555
O16 P0 1.547532 1_555
O16 Zr2 2.119429 1_555
O17 Si10 1.631604 1_555
O17 Zr2 2.013129 1_555
O18 Si10 1.658898 1_555
O18 Zr3 2.022513 1_554
O19 Si9 1.654382 1_555
O19 Zr3 2.021346 1_554
O20 P0 1.571241 1_555
O20 Zr3 2.085344 1_554
O21 Si7 1.635033 1_555
O22 Si8 1.639519 1_555
O23 Si6 1.657704 1_555
O24 P1 1.518652 1_555
O24 Zr4 2.206727 1_556
O25 Si11 1.615888 1_555
O25 Zr4 2.050492 1_556
O26 Si12 1.604275 1_555
O26 Zr4 2.073523 1_556
O27 Si13 1.626994 1_555
O27 Zr5 2.037025 1_555
O28 P2 1.539083 1_555
O28 Zr5 2.064881 1_555
O29 Si14 1.625355 1_555
O29 Zr5 2.033319 1_555
O30 Si14 1.693955 1_555
O31 Si13 1.691332 1_555
O32 P2 1.577245 1_555
O33 Si11 1.675419 1_555
O34 Si12 1.686301 1_555
O35 P1 1.563570 1_555
O36 Si14 1.613547 1_555
O36 Zr0 2.096208 1_455
O37 Si13 1.615323 1_555
O37 Zr0 2.097476 1_555
O38 P2 1.538257 1_555
O38 Zr0 2.198039 1_445
O39 Si11 1.643772 1_555
O39 Zr1 2.136551 1_555
O40 Si12 1.640752 1_555
O40 Zr1 2.130609 1_565
O41 P1 1.553713 1_555
O41 Zr1 2.231809 1_665
O42 Si6 1.652761 1_555
O43 Si7 1.651153 1_555
O44 Si8 1.667380 1_555
O45 Si9 1.646671 1_555
O46 P0 1.541786 1_555
O47 Si10 1.652509 1_555
O48 Si5 1.640570 1_545
O49 Si3 1.627330 1_555
O50 Si4 1.638549 1_555
O51 Si1 1.638697 1_555
O51 Zr2 2.121254 1_555
O52 Si2 1.633195 1_655
O52 Zr2 2.152955 1_555
O53 Si0 1.627247 1_545
O53 Zr2 2.162190 1_555
O54 P1 1.560307 1_555
O54 Zr3 2.268689 1_555
O55 Si11 1.643615 1_655
O55 Zr3 2.201294 1_555
O56 Si12 1.641039 1_545
O56 Zr3 2.192024 1_555
O57 Si13 1.655256 1_545
O58 P2 1.542526 1_555
O59 Si14 1.654547 1_655
O60 Si10 1.617371 1_555
O60 Zr4 2.066802 1_555
O61 Si9 1.624190 1_455
O61 Zr4 2.038475 1_555
O62 P0 1.523949 1_565
O62 Zr4 2.175831 1_555
O63 Si7 1.638322 1_565
O63 Zr5 2.182233 1_555
O64 Si8 1.620781 1_555
O64 Zr5 2.153970 1_555
O65 Si6 1.620899 1_455
O65 Zr5 2.158484 1_555
O66 Si0 1.668127 1_555
O67 Si1 1.659489 1_555
O68 Si2 1.662376 1_555
O69 Si3 1.644943 1_555
O70 Si4 1.667308 1_455
O71 Si5 1.640759 1_555
