# generated using pymatgen
data_Cd2Ge7O16
_symmetry_space_group_name_H-M   'P 1'
_cell_length_a   11.31129901
_cell_length_b   11.31129901
_cell_length_c   4.65609581
_cell_angle_alpha   90.00000000
_cell_angle_beta   90.00000000
_cell_angle_gamma   90.00000000
_symmetry_Int_Tables_number   1
_chemical_formula_structural   Cd2Ge7O16
_chemical_formula_sum   'Cd4 Ge14 O32'
_cell_volume   595.72643798
_cell_formula_units_Z   2
loop_
 _symmetry_equiv_pos_site_id
 _symmetry_equiv_pos_as_xyz
  1  'x, y, z'
loop_
 _atom_site_type_symbol
 _atom_site_label
 _atom_site_symmetry_multiplicity
 _atom_site_fract_x
 _atom_site_fract_y
 _atom_site_fract_z
 _atom_site_occupancy
  Cd  Cd0  1  0.83620125  0.66379875  0.00000000  1
  Cd  Cd1  1  0.33620125  0.83620125  0.00000000  1
  Cd  Cd2  1  0.66379875  0.16379875  0.00000000  1
  Cd  Cd3  1  0.16379875  0.33620125  0.00000000  1
  Ge  Ge0  1  0.56876537  0.68584868  0.51006661  1
  Ge  Ge1  1  0.43123463  0.31415132  0.51006661  1
  Ge  Ge2  1  0.31415132  0.56876537  0.48993339  1
  Ge  Ge3  1  0.68584868  0.43123463  0.48993339  1
  Ge  Ge4  1  0.93123463  0.18584868  0.51006661  1
  Ge  Ge5  1  0.81415132  0.93123463  0.48993339  1
  Ge  Ge6  1  0.18584868  0.06876537  0.48993339  1
  Ge  Ge7  1  0.06876537  0.81415132  0.51006661  1
  Ge  Ge8  1  0.63511376  0.86488624  0.00000000  1
  Ge  Ge9  1  0.13511376  0.63511376  0.00000000  1
  Ge  Ge10  1  0.86488624  0.36488624  0.00000000  1
  Ge  Ge11  1  0.36488624  0.13511376  0.00000000  1
  Ge  Ge12  1  0.50000000  0.00000000  0.50000000  1
  Ge  Ge13  1  0.00000000  0.50000000  0.50000000  1
  O  O0  1  0.63876628  0.56524996  0.33354756  1
  O  O1  1  0.36123372  0.43475004  0.33354756  1
  O  O2  1  0.43475004  0.63876628  0.66645244  1
  O  O3  1  0.56524996  0.36123372  0.66645244  1
  O  O4  1  0.86123372  0.06524996  0.33354756  1
  O  O5  1  0.93475004  0.86123372  0.66645244  1
  O  O6  1  0.06524996  0.13876628  0.66645244  1
  O  O7  1  0.13876628  0.93475004  0.33354756  1
  O  O8  1  0.67348718  0.73244307  0.77026840  1
  O  O9  1  0.32651282  0.26755693  0.77026840  1
  O  O10  1  0.26755693  0.67348718  0.22973160  1
  O  O11  1  0.73244307  0.32651282  0.22973160  1
  O  O12  1  0.82651282  0.23244307  0.77026840  1
  O  O13  1  0.76755693  0.82651282  0.22973160  1
  O  O14  1  0.23244307  0.17348718  0.22973160  1
  O  O15  1  0.17348718  0.76755693  0.77026840  1
  O  O16  1  0.52963978  0.78071048  0.22684719  1
  O  O17  1  0.47036022  0.21928952  0.22684719  1
  O  O18  1  0.00090483  0.61832911  0.74822173  1
  O  O19  1  0.38167089  0.00090483  0.25177827  1
  O  O20  1  0.61832911  0.99909517  0.25177827  1
  O  O21  1  0.99909517  0.38167089  0.74822173  1
  O  O22  1  0.88167089  0.49909517  0.25177827  1
  O  O23  1  0.11832911  0.50090483  0.25177827  1
  O  O24  1  0.49909517  0.11832911  0.74822173  1
  O  O25  1  0.50090483  0.88167089  0.74822173  1
  O  O26  1  0.02963978  0.71928952  0.22684719  1
  O  O27  1  0.28071048  0.02963978  0.77315281  1
  O  O28  1  0.71928952  0.97036022  0.77315281  1
  O  O29  1  0.97036022  0.28071048  0.22684719  1
  O  O30  1  0.78071048  0.47036022  0.77315281  1
  O  O31  1  0.21928952  0.52963978  0.77315281  1
loop_
_geom_bond_atom_site_label_1
_geom_bond_atom_site_label_2
_geom_bond_distance
_geom_bond_site_symmetry_2
Cd0 O22 2.260450 1_555
Cd0 O18 2.260450 1_654
Cd0 O13 2.265945 1_555
Cd0 O8 2.265945 1_554
Cd0 O26 2.509403 1_655
Cd0 O30 2.509403 1_554
Cd1 O25 2.260450 1_554
Cd1 O19 2.260450 1_565
Cd1 O10 2.265945 1_555
Cd1 O15 2.265945 1_554
Cd1 O27 2.509403 1_564
Cd1 O16 2.509403 1_555
Cd2 O20 2.260450 1_545
Cd2 O24 2.260450 1_554
Cd2 O11 2.265945 1_555
Cd2 O12 2.265945 1_554
Cd2 O28 2.509403 1_544
Cd2 O17 2.509403 1_555
Cd3 O21 2.260450 1_454
Cd3 O23 2.260450 1_555
Cd3 O9 2.265945 1_554
Cd3 O14 2.265945 1_555
Cd3 O31 2.509403 1_554
Cd3 O29 2.509403 1_455
Ge0 O16 1.756751 1_555
Ge0 O2 1.764012 1_555
Ge0 O8 1.774458 1_555
Ge0 O0 1.778566 1_555
Ge1 O17 1.756751 1_555
Ge1 O3 1.764012 1_555
Ge1 O9 1.774458 1_555
Ge1 O1 1.778566 1_555
Ge2 O31 1.756751 1_555
Ge2 O1 1.764012 1_555
Ge2 O10 1.774458 1_555
Ge2 O2 1.778566 1_555
Ge3 O30 1.756751 1_555
Ge3 O0 1.764012 1_555
Ge3 O11 1.774458 1_555
Ge3 O3 1.778566 1_555
Ge4 O29 1.756751 1_555
Ge4 O6 1.764012 1_655
Ge4 O12 1.774458 1_555
Ge4 O4 1.778566 1_555
Ge5 O28 1.756751 1_555
Ge5 O4 1.764012 1_565
Ge5 O13 1.774458 1_555
Ge5 O5 1.778566 1_555
Ge6 O27 1.756751 1_555
Ge6 O7 1.764012 1_545
Ge6 O14 1.774458 1_555
Ge6 O6 1.778566 1_555
Ge7 O26 1.756751 1_555
Ge7 O5 1.764012 1_455
Ge7 O15 1.774458 1_555
Ge7 O7 1.778566 1_555
Ge8 O28 1.856215 1_554
Ge8 O16 1.856215 1_555
Ge8 O8 1.891263 1_554
Ge8 O13 1.891263 1_555
Ge8 O20 1.927408 1_555
Ge8 O25 1.927408 1_554
Ge9 O31 1.856215 1_554
Ge9 O26 1.856215 1_555
Ge9 O10 1.891263 1_555
Ge9 O15 1.891263 1_554
Ge9 O18 1.927408 1_554
Ge9 O23 1.927408 1_555
Ge10 O29 1.856215 1_555
Ge10 O30 1.856215 1_554
Ge10 O12 1.891263 1_554
Ge10 O11 1.891263 1_555
Ge10 O22 1.927408 1_555
Ge10 O21 1.927408 1_554
Ge11 O27 1.856215 1_554
Ge11 O17 1.856215 1_555
Ge11 O14 1.891263 1_555
Ge11 O9 1.891263 1_554
Ge11 O24 1.927408 1_554
Ge11 O19 1.927408 1_555
Ge12 O20 1.768421 1_545
Ge12 O24 1.768421 1_555
Ge12 O19 1.768421 1_555
Ge12 O25 1.768421 1_545
Ge13 O22 1.768421 1_455
Ge13 O23 1.768421 1_555
Ge13 O18 1.768421 1_555
Ge13 O21 1.768421 1_455
