# generated using pymatgen
data_NaTiF4
_symmetry_space_group_name_H-M   'P 1'
_cell_length_a   5.02000133
_cell_length_b   5.74253141
_cell_length_c   10.85698808
_cell_angle_alpha   90.00000000
_cell_angle_beta   90.00000000
_cell_angle_gamma   90.00000000
_symmetry_Int_Tables_number   1
_chemical_formula_structural   NaTiF4
_chemical_formula_sum   'Na4 Ti4 F16'
_cell_volume   312.97999016
_cell_formula_units_Z   4
loop_
 _symmetry_equiv_pos_site_id
 _symmetry_equiv_pos_as_xyz
  1  'x, y, z'
loop_
 _atom_site_type_symbol
 _atom_site_label
 _atom_site_symmetry_multiplicity
 _atom_site_fract_x
 _atom_site_fract_y
 _atom_site_fract_z
 _atom_site_occupancy
  Na  Na0  1  0.50000000  -0.00000000  0.50000000  1
  Na  Na1  1  -0.00000000  0.50000000  0.50000000  1
  Na  Na2  1  0.50000000  -0.00000000  -0.00000000  1
  Na  Na3  1  -0.00000000  0.50000000  -0.00000000  1
  Ti  Ti0  1  0.50000000  0.34236820  0.25000000  1
  Ti  Ti1  1  -0.00000000  0.15763180  0.75000000  1
  Ti  Ti2  1  0.50000000  0.65763180  0.75000000  1
  Ti  Ti3  1  -0.00000000  0.84236820  0.25000000  1
  F  F0  1  0.32378363  0.31593893  0.09657333  1
  F  F1  1  0.82378363  0.18406107  0.90342667  1
  F  F2  1  0.67621637  0.31593893  0.40342667  1
  F  F3  1  0.17621637  0.18406107  0.59657333  1
  F  F4  1  0.67621637  0.68406107  0.90342667  1
  F  F5  1  0.17621637  0.81593893  0.09657333  1
  F  F6  1  0.32378363  0.68406107  0.59657333  1
  F  F7  1  0.82378363  0.81593893  0.40342667  1
  F  F8  1  0.74447702  0.08397790  0.18481633  1
  F  F9  1  0.24447702  0.41602210  0.81518367  1
  F  F10  1  0.25552298  0.08397790  0.31518367  1
  F  F11  1  0.75552298  0.41602210  0.68481633  1
  F  F12  1  0.25552298  0.91602210  0.81518367  1
  F  F13  1  0.75552298  0.58397790  0.18481633  1
  F  F14  1  0.74447702  0.91602210  0.68481633  1
  F  F15  1  0.24447702  0.58397790  0.31518367  1
loop_
_geom_bond_atom_site_label_1
_geom_bond_atom_site_label_2
_geom_bond_distance
_geom_bond_site_symmetry_2
F0 Ti0 1.892166 1_555
F0 Na3 2.204189 1_555
F0 Na2 2.274537 1_555
F1 Ti1 1.892166 1_655
F1 Na2 2.204189 1_556
F1 Na3 2.274537 1_656
F2 Ti0 1.892166 1_555
F2 Na1 2.204189 1_655
F2 Na0 2.274537 1_555
F3 Ti1 1.892166 1_555
F3 Na0 2.204189 1_555
F3 Na1 2.274537 1_555
F4 Ti2 1.892166 1_555
F4 Na3 2.204189 1_656
F4 Na2 2.274537 1_566
F5 Ti3 1.892166 1_555
F5 Na2 2.204189 1_565
F5 Na3 2.274537 1_555
F6 Ti2 1.892166 1_555
F6 Na1 2.204189 1_555
F6 Na0 2.274537 1_565
F7 Ti3 1.892166 1_655
F7 Na0 2.204189 1_565
F7 Na1 2.274537 1_655
F8 Ti3 2.017732 1_645
F8 Ti0 2.051523 1_555
F8 Na2 2.401042 1_555
F9 Ti2 2.017732 1_555
F9 Ti1 2.051523 1_555
F9 Na3 2.401042 1_556
F10 Ti3 2.017732 1_545
F10 Ti0 2.051523 1_555
F10 Na0 2.401042 1_555
F11 Ti2 2.017732 1_555
F11 Ti1 2.051523 1_655
F11 Na1 2.401042 1_655
F12 Ti1 2.017732 1_565
F12 Ti2 2.051523 1_555
F12 Na2 2.401042 1_566
F13 Ti0 2.017732 1_555
F13 Ti3 2.051523 1_655
F13 Na3 2.401042 1_655
F14 Ti1 2.017732 1_665
F14 Ti2 2.051523 1_555
F14 Na0 2.401042 1_565
F15 Ti0 2.017732 1_555
F15 Ti3 2.051523 1_555
F15 Na1 2.401042 1_555
