# generated using pymatgen
data_Na7Sc2Si3Sn2(PO8)3
_symmetry_space_group_name_H-M   'P 1'
_cell_length_a   9.11718053
_cell_length_b   9.11683212
_cell_length_c   22.44916326
_cell_angle_alpha   89.91715729
_cell_angle_beta   89.87424463
_cell_angle_gamma   120.02176329
_symmetry_Int_Tables_number   1
_chemical_formula_structural   Na7Sc2Si3Sn2(PO8)3
_chemical_formula_sum   'Na21 Sc6 Si9 Sn6 P9 O72'
_cell_volume   1615.61210226
_cell_formula_units_Z   3
loop_
 _symmetry_equiv_pos_site_id
 _symmetry_equiv_pos_as_xyz
  1  'x, y, z'
loop_
 _atom_site_type_symbol
 _atom_site_label
 _atom_site_symmetry_multiplicity
 _atom_site_fract_x
 _atom_site_fract_y
 _atom_site_fract_z
 _atom_site_occupancy
  Na  Na0  1  0.63181825  0.00439809  0.25334125  1
  Na  Na1  1  0.36830214  0.37238508  0.24669976  1
  Na  Na2  1  0.99974932  0.62092382  0.24991008  1
  Na  Na3  1  0.63187320  0.63489767  0.74870112  1
  Na  Na4  1  0.99531235  0.36552582  0.74860878  1
  Na  Na5  1  0.37461540  0.00103713  0.74735240  1
  Na  Na6  1  0.03322707  0.69643596  0.58240467  1
  Na  Na7  1  0.66441188  0.97176083  0.58182944  1
  Na  Na8  1  0.66389403  0.68802298  0.08166380  1
  Na  Na9  1  0.03073181  0.33587073  0.08637816  1
  Na  Na10  1  0.95971810  0.66529168  0.91961398  1
  Na  Na11  1  0.70200444  0.03194411  0.91730991  1
  Na  Na12  1  0.33875011  0.30115867  0.91861031  1
  Na  Na13  1  0.96468744  0.30164653  0.41612666  1
  Na  Na14  1  0.33574035  0.02708314  0.41956547  1
  Na  Na15  1  0.99885335  -0.00006893  0.50027446  1
  Na  Na16  1  0.01034404  0.99585023  0.00164812  1
  Na  Na17  1  0.66645588  0.33323016  0.83343090  1
  Na  Na18  1  0.67497241  0.34139351  0.33503406  1
  Na  Na19  1  0.32512838  0.66656443  0.16567160  1
  Na  Na20  1  0.33372217  0.66050760  0.66399062  1
  Sc  Sc0  1  0.99400757  0.99926361  0.85176392  1
  Sc  Sc1  1  0.66879240  0.32866059  0.68215141  1
  Sc  Sc2  1  0.67110627  0.33632399  0.18181503  1
  Sc  Sc3  1  0.66375774  0.33955957  0.98494493  1
  Sc  Sc4  1  0.32818637  0.66418514  0.31750280  1
  Sc  Sc5  1  0.34014429  0.66857014  0.81486249  1
  Si  Si0  1  -0.00036445  0.29377970  0.25002115  1
  Si  Si1  1  0.70480651  0.00106306  0.74980802  1
  Si  Si2  1  0.96674043  0.33423432  0.58289242  1
  Si  Si3  1  0.36822798  0.03638415  0.58340158  1
  Si  Si4  1  0.96700489  0.63400780  0.08307437  1
  Si  Si5  1  0.36785465  0.33231320  0.08303266  1
  Si  Si6  1  0.62996725  0.66574624  0.91645337  1
  Si  Si7  1  0.62889931  0.96154905  0.41672447  1
  Si  Si8  1  0.03339175  0.66627833  0.41662199  1
  Sn  Sn0  1  0.99186614  0.99492849  0.35410924  1
  Sn  Sn1  1  0.00282154  0.00518168  0.64679509  1
  Sn  Sn2  1  0.00704609  0.00257606  0.14676389  1
  Sn  Sn3  1  0.66468757  0.33165017  0.48266638  1
  Sn  Sn4  1  0.33525831  0.67027181  0.01908536  1
  Sn  Sn5  1  0.33374639  0.66766308  0.51722907  1
  P  P0  1  0.29057281  -0.00048311  0.25142617  1
  P  P1  1  0.70920621  0.70832622  0.24883398  1
  P  P2  1  0.29286881  0.29365636  0.75125409  1
  P  P3  1  0.99938707  0.70719165  0.75003455  1
  P  P4  1  0.66508418  0.62612439  0.58458067  1
  P  P5  1  0.66507163  0.03575713  0.08374539  1
  P  P6  1  0.04057880  0.37313422  0.91650744  1
  P  P7  1  0.33414790  0.95966507  0.91575624  1
  P  P8  1  0.33562014  0.37307051  0.41567429  1
  O  O0  1  0.21089240  0.03059024  0.30815457  1
  O  O1  1  0.82914475  0.78988545  0.30290553  1
  O  O2  1  0.96648210  0.17294885  0.30923924  1
  O  O3  1  0.21549282  0.18456518  0.80763019  1
  O  O4  1  0.97761973  0.79487867  0.80537556  1
  O  O5  1  0.82412620  0.03250833  0.80820576  1
  O  O6  1  0.78981617  0.96132740  0.69097085  1
  O  O7  1  0.17691047  0.20811940  0.69627263  1
  O  O8  1  0.03271738  0.81958926  0.69315622  1
  O  O9  1  0.78852512  0.81900403  0.19197261  1
  O  O10  1  0.03296210  0.20646758  0.19102594  1
  O  O11  1  0.17080138  0.96084695  0.19728989  1
  O  O12  1  0.88642961  0.37345739  0.64193479  1
  O  O13  1  0.48648286  0.12268508  0.64168748  1
  O  O14  1  0.64130474  0.52498184  0.64220262  1
  O  O15  1  0.88617614  0.51442069  0.14242494  1
  O  O16  1  0.64316440  0.11842266  0.14038691  1
  O  O17  1  0.48464500  0.36457999  0.14210886  1
  O  O18  1  0.45256608  0.30789151  0.02264728  1
  O  O19  1  0.85023423  0.55103771  0.02376739  1
  O  O20  1  0.69448899  0.14495433  0.02773059  1
  O  O21  1  0.44757646  0.15028737  0.52262629  1
  O  O22  1  0.69893786  0.54249575  0.53007770  1
  O  O23  1  0.84533761  0.29711373  0.52378315  1
  O  O24  1  0.54612365  0.70622278  0.97553997  1
  O  O25  1  0.15103753  0.45658243  0.97307519  1
  O  O26  1  0.29622058  0.84053643  0.97063242  1
  O  O27  1  0.54732502  0.84873838  0.47748123  1
  O  O28  1  0.29908654  0.45520354  0.46994682  1
  O  O29  1  0.15407512  0.70524431  0.47602162  1
  O  O30  1  0.11460767  0.62692937  0.35786774  1
  O  O31  1  0.51223223  0.87517656  0.35817666  1
  O  O32  1  0.36041450  0.47535169  0.35807736  1
  O  O33  1  0.12170428  0.48522151  0.86098465  1
  O  O34  1  0.35758633  0.87662892  0.85926552  1
  O  O35  1  0.50978093  0.63539676  0.85846737  1
  O  O36  1  0.03275620  0.84704414  0.41202337  1
  O  O37  1  0.82489511  0.99567096  0.41531600  1
  O  O38  1  0.17440541  0.19264272  0.41236822  1
  O  O39  1  0.03110618  0.19833644  0.91304454  1
  O  O40  1  0.17755054  0.98313249  0.91228472  1
  O  O41  1  0.81942926  0.83591192  0.91400857  1
  O  O42  1  0.97012363  0.15507774  0.58658969  1
  O  O43  1  0.17146351  -0.00084478  0.58768148  1
  O  O44  1  0.82909972  0.80506190  0.58713994  1
  O  O45  1  0.96973467  0.81603951  0.08854570  1
  O  O46  1  0.82593644  0.01579776  0.08812320  1
  O  O47  1  0.17190998  0.17095721  0.08540882  1
  O  O48  1  0.68872569  0.17283951  0.74621926  1
  O  O49  1  0.47247232  0.31737408  0.74475407  1
  O  O50  1  0.83487779  0.53302110  0.74570365  1
  O  O51  1  0.68906486  0.52984046  0.24440367  1
  O  O52  1  0.82691123  0.30775049  0.24731661  1
  O  O53  1  0.46555289  0.16133291  0.24510580  1
  O  O54  1  0.64694471  0.49457503  0.91952327  1
  O  O55  1  0.86044947  0.34821110  0.92229790  1
  O  O56  1  0.49881764  0.13284959  0.92161992  1
  O  O57  1  0.64014240  0.14965759  0.42029332  1
  O  O58  1  0.49189680  0.34968223  0.42196170  1
  O  O59  1  0.84606732  0.49501157  0.42281615  1
  O  O60  1  0.35311536  0.50766134  0.07947739  1
  O  O61  1  0.15377748  0.64775692  0.07780327  1
  O  O62  1  0.50859017  0.85378417  0.08003641  1
  O  O63  1  0.35798115  0.84927993  0.57954544  1
  O  O64  1  0.51014190  0.65190937  0.57819568  1
  O  O65  1  0.15379504  0.50613618  0.57684524  1
  O  O66  1  0.31095936  0.84117952  0.25574097  1
  O  O67  1  0.53453109  0.69591138  0.25478096  1
  O  O68  1  0.17242321  0.48064681  0.25240325  1
  O  O69  1  0.30350233  0.46894344  0.75443314  1
  O  O70  1  0.15631020  0.68414813  0.75375851  1
  O  O71  1  0.51534433  0.83085222  0.75228564  1
loop_
_geom_bond_atom_site_label_1
_geom_bond_atom_site_label_2
_geom_bond_distance
_geom_bond_site_symmetry_2
Na0 O52 2.430249 1_555
Na0 O67 2.490160 1_545
Na0 O66 2.533361 1_545
Na0 O53 2.559260 1_555
Na0 O31 2.609760 1_545
Na0 O16 2.721194 1_555
Na1 O68 2.437838 1_555
Na1 O53 2.489360 1_555
Na1 O51 2.532597 1_555
Na1 O67 2.561095 1_555
Na1 O17 2.590032 1_555
Na1 O32 2.685443 1_555
Na1 O10 2.931228 1_555
Na2 O68 2.476275 1_655
Na2 O52 2.477335 1_555
Na2 O51 2.525155 1_555
Na2 O66 2.530033 1_655
Na2 O15 2.617057 1_555
Na2 O30 2.631992 1_655
Na2 O11 2.928587 1_655
Na2 O1 2.932970 1_555
Na3 O50 2.452050 1_555
Na3 O71 2.495196 1_555
Na3 O49 2.508260 1_555
Na3 O69 2.594954 1_555
Na3 O14 2.611466 1_555
Na3 O35 2.702636 1_555
Na3 O6 2.881354 1_555
Na4 O48 2.447326 1_555
Na4 O69 2.480356 1_655
Na4 O70 2.518139 1_655
Na4 O50 2.590518 1_555
Na4 O12 2.609069 1_555
Na4 O33 2.765022 1_655
Na4 O7 2.924865 1_655
Na4 O5 2.946361 1_555
Na5 O71 2.461287 1_545
Na5 O48 2.483211 1_555
Na5 O49 2.557605 1_555
Na5 O70 2.563630 1_545
Na5 O13 2.597481 1_555
Na5 O34 2.726959 1_545
Na6 O43 2.395869 1_565
Na6 O65 2.478361 1_555
Na6 O44 2.509844 1_455
Na6 O63 2.565699 1_555
Na6 O29 2.612146 1_555
Na6 O8 2.730469 1_555
Na6 O12 2.878336 1_455
Na6 O22 2.894614 1_455
Na7 O42 2.431822 1_565
Na7 O63 2.435947 1_555
Na7 O64 2.526902 1_555
Na7 O27 2.589487 1_555
Na7 O44 2.619551 1_555
Na7 O6 2.727611 1_555
Na7 O23 2.881079 1_565
Na7 O13 2.925720 1_565
Na8 O45 2.430455 1_555
Na8 O60 2.464390 1_555
Na8 O62 2.535988 1_555
Na8 O46 2.591892 1_565
Na8 O24 2.654164 1_554
Na8 O9 2.740893 1_555
Na8 O19 2.872859 1_555
Na8 O17 2.892028 1_555
Na9 O47 2.419536 1_555
Na9 O61 2.487188 1_555
Na9 O60 2.550862 1_555
Na9 O46 2.559324 1_455
Na9 O10 2.631998 1_555
Na9 O25 2.766885 1_554
Na9 O15 2.848722 1_455
Na9 O20 2.974184 1_455
Na10 O41 2.462198 1_555
Na10 O54 2.472436 1_555
Na10 O19 2.547673 1_556
Na10 O55 2.561356 1_555
Na10 O40 2.570316 1_655
Na10 O4 2.792096 1_555
Na10 O26 2.896993 1_655
Na10 O33 3.005385 1_655
Na11 O56 2.447885 1_555
Na11 O55 2.499349 1_555
Na11 O41 2.502065 1_545
Na11 O39 2.599410 1_655
Na11 O5 2.687195 1_555
Na11 O20 2.699665 1_556
Na11 O24 2.881728 1_545
Na12 O54 2.459164 1_555
Na12 O39 2.476360 1_555
Na12 O40 2.514900 1_545
Na12 O18 2.546100 1_556
Na12 O56 2.594177 1_555
Na12 O3 2.724794 1_555
Na12 O35 2.960401 1_555
Na12 O25 2.975592 1_555
Na13 O37 2.418429 1_545
Na13 O59 2.491528 1_555
Na13 O38 2.559588 1_655
Na13 O57 2.565100 1_555
Na13 O23 2.640043 1_555
Na13 O2 2.676168 1_555
Na13 O30 2.880638 1_655
Na13 O28 2.909434 1_655
Na14 O36 2.412307 1_545
Na14 O57 2.418291 1_555
Na14 O58 2.547665 1_555
Na14 O21 2.554606 1_555
Na14 O38 2.586486 1_555
Na14 O0 2.756946 1_555
Na14 O29 2.841803 1_545
Na14 O31 2.938052 1_545
Na15 O37 2.471108 1_545
Na15 O42 2.490060 1_555
Na15 O43 2.520234 1_655
Na15 O36 2.529776 1_645
Na15 O44 2.565079 1_545
Na15 O38 2.589426 1_655
Na16 O47 2.433482 1_565
Na16 O45 2.451566 1_455
Na16 O41 2.551525 1_454
Na16 O40 2.554621 1_554
Na16 O46 2.630786 1_465
Na16 O39 2.652952 1_564
Na17 O54 2.489826 1_555
Na17 O48 2.513191 1_555
Na17 O50 2.594558 1_555
Na17 O56 2.602901 1_555
Na17 O49 2.621490 1_555
Na17 O55 2.627052 1_555
Na18 O59 2.472550 1_555
Na18 O57 2.500405 1_555
Na18 O52 2.511099 1_555
Na18 O58 2.590797 1_555
Na18 O51 2.622123 1_555
Na18 O53 2.702967 1_555
Na19 O61 2.471332 1_555
Na19 O68 2.493891 1_555
Na19 O60 2.506757 1_555
Na19 O62 2.554687 1_555
Na19 O66 2.617882 1_555
Na19 O67 2.688008 1_555
Na20 O65 2.492151 1_555
Na20 O63 2.492465 1_555
Na20 O64 2.532950 1_555
Na20 O71 2.555916 1_555
Na20 O69 2.598880 1_555
Na20 O70 2.656996 1_555
O0 P0 1.559721 1_555
O0 Sn0 2.120833 1_445
O1 P1 1.554640 1_555
O1 Sn0 2.062836 1_555
O2 Si0 1.653172 1_655
O2 Sn0 2.018520 1_545
O3 P2 1.542374 1_555
O3 Sc0 2.118015 1_445
O4 P3 1.543526 1_555
O4 Sc0 2.075223 1_555
O5 Si1 1.636938 1_555
O5 Sc0 1.980524 1_545
O6 Si1 1.659642 1_565
O6 Sn1 2.031793 1_665
O7 P2 1.559750 1_555
O7 Sn1 2.061836 1_555
O8 P3 1.567065 1_455
O8 Sn1 2.116140 1_565
O9 P1 1.559675 1_555
O9 Sn2 2.109479 1_665
O10 Si0 1.650235 1_555
O10 Sn2 2.016268 1_555
O11 P0 1.554198 1_565
O11 Sn2 2.057875 1_565
O12 Si2 1.637051 1_555
O12 Sc1 2.024663 1_555
O13 Si3 1.629072 1_555
O13 Sc1 2.000611 1_555
O14 P4 1.538134 1_555
O14 Sc1 2.125031 1_555
O15 Si4 1.641479 1_555
O15 Sc2 2.016312 1_555
O16 P5 1.541756 1_555
O16 Sc2 2.091955 1_555
O17 Si5 1.634949 1_555
O17 Sc2 2.048197 1_555
O18 Si5 1.628517 1_555
O18 Sc3 1.985708 1_554
O19 Si4 1.637528 1_555
O19 Sc3 2.024497 1_554
O20 P5 1.540132 1_555
O20 Sc3 2.154639 1_554
O21 Si3 1.644082 1_555
O21 Sn3 2.041978 1_555
O22 P4 1.552464 1_555
O22 Sn3 2.081367 1_555
O23 Si2 1.653291 1_555
O23 Sn3 2.046599 1_555
O24 Si6 1.661083 1_555
O24 Sn4 2.029614 1_556
O25 P6 1.564407 1_555
O25 Sn4 2.102946 1_556
O26 P7 1.560522 1_555
O26 Sn4 2.066165 1_556
O27 Si7 1.642347 1_555
O27 Sn5 2.021045 1_555
O28 P8 1.551290 1_555
O28 Sn5 2.091236 1_555
O29 Si8 1.652776 1_555
O29 Sn5 2.055203 1_555
O30 Si8 1.636942 1_555
O30 Sc4 2.014388 1_555
O31 Si7 1.627876 1_555
O31 Sc4 2.032598 1_555
O32 P8 1.541680 1_555
O32 Sc4 2.093468 1_555
O33 P6 1.543006 1_555
O33 Sc5 2.118305 1_555
O34 P7 1.546115 1_555
O34 Sc5 2.078758 1_555
O35 Si6 1.635752 1_555
O35 Sc5 1.978773 1_555
O36 Si8 1.653995 1_555
O36 Sn0 2.036433 1_455
O37 Si7 1.653591 1_555
O37 Sn0 2.051000 1_555
O38 P8 1.566260 1_555
O38 Sn0 2.178044 1_445
O39 P6 1.554264 1_555
O39 Sc0 2.166992 1_445
O40 P7 1.548015 1_555
O40 Sc0 2.218884 1_455
O41 Si6 1.646613 1_555
O41 Sc0 2.077520 1_555
O42 Si2 1.650962 1_555
O42 Sn1 2.046268 1_655
O43 Si3 1.653030 1_555
O43 Sn1 2.050340 1_555
O44 P4 1.568528 1_555
O44 Sn1 2.180715 1_665
O45 Si4 1.651997 1_555
O45 Sn2 2.036036 1_665
O46 P5 1.568891 1_555
O46 Sn2 2.163856 1_655
O47 Si5 1.651647 1_555
O47 Sn2 2.046669 1_555
O48 Si1 1.646196 1_555
O48 Sc1 2.091248 1_555
O49 P2 1.547235 1_555
O49 Sc1 2.234638 1_555
O50 P3 1.548653 1_555
O50 Sc1 2.234656 1_555
O51 P1 1.546937 1_555
O51 Sc2 2.198348 1_555
O52 Si0 1.643435 1_655
O52 Sc2 2.150877 1_555
O53 P0 1.544314 1_555
O53 Sc2 2.250784 1_555
O54 Si6 1.644821 1_555
O54 Sc3 2.095114 1_555
O55 P6 1.546337 1_655
O55 Sc3 2.246555 1_555
O56 P7 1.547154 1_545
O56 Sc3 2.239446 1_555
O57 Si7 1.668088 1_545
O57 Sn3 2.097662 1_555
O58 P8 1.549275 1_555
O58 Sn3 2.152642 1_555
O59 Si8 1.644399 1_655
O59 Sn3 2.068321 1_555
O60 Si5 1.671722 1_555
O60 Sn4 2.073409 1_555
O61 Si4 1.647683 1_455
O61 Sn4 2.041365 1_555
O62 P5 1.557932 1_565
O62 Sn4 2.130526 1_555
O63 Si3 1.663420 1_565
O63 Sn5 2.095096 1_555
O64 P4 1.550625 1_555
O64 Sn5 2.172661 1_555
O65 Si2 1.645254 1_455
O65 Sn5 2.053895 1_555
O66 P0 1.547863 1_565
O66 Sc4 2.190649 1_555
O67 P1 1.544502 1_555
O67 Sc4 2.246817 1_555
O68 Si0 1.643772 1_555
O68 Sc4 2.142607 1_555
O69 P2 1.553585 1_555
O69 Sc5 2.159846 1_555
O70 P3 1.548953 1_455
O70 Sc5 2.226810 1_555
O71 Si1 1.646808 1_565
O71 Sc5 2.081628 1_555
