# generated using pymatgen
data_NaTi3ZnP3(SO8)3
_symmetry_space_group_name_H-M   'P 1'
_cell_length_a   8.61895957
_cell_length_b   8.61914933
_cell_length_c   22.35557671
_cell_angle_alpha   90.09479623
_cell_angle_beta   90.01129155
_cell_angle_gamma   120.07249870
_symmetry_Int_Tables_number   1
_chemical_formula_structural   NaTi3ZnP3(SO8)3
_chemical_formula_sum   'Na3 Ti9 Zn3 P9 S9 O72'
_cell_volume   1437.19971625
_cell_formula_units_Z   3
loop_
 _symmetry_equiv_pos_site_id
 _symmetry_equiv_pos_as_xyz
  1  'x, y, z'
loop_
 _atom_site_type_symbol
 _atom_site_label
 _atom_site_symmetry_multiplicity
 _atom_site_fract_x
 _atom_site_fract_y
 _atom_site_fract_z
 _atom_site_occupancy
  Na  Na0  1  0.66162341  0.33283940  0.83121422  1
  Na  Na1  1  0.66900695  0.33022302  0.33039303  1
  Na  Na2  1  0.33115738  0.66926046  0.16820199  1
  Ti  Ti0  1  0.99372152  0.99310616  0.35865694  1
  Ti  Ti1  1  0.00917825  0.00592162  0.85998384  1
  Ti  Ti2  1  0.99915119  0.00192168  0.64469900  1
  Ti  Ti3  1  0.99543776  0.99590153  0.13982578  1
  Ti  Ti4  1  0.67802288  0.33670457  0.97948550  1
  Ti  Ti5  1  0.67804906  0.34633708  0.48024755  1
  Ti  Ti6  1  0.33490820  0.67497439  0.01802378  1
  Ti  Ti7  1  0.34489194  0.67940258  0.51986621  1
  Ti  Ti8  1  0.33446768  0.65833701  0.81176803  1
  Zn  Zn0  1  0.65793904  0.33776644  0.68606560  1
  Zn  Zn1  1  0.67121226  0.32997039  0.18331676  1
  Zn  Zn2  1  0.32925484  0.67163358  0.31617233  1
  P  P0  1  0.28514400  0.28345584  0.75105190  1
  P  P1  1  0.66563314  0.62339173  0.58470913  1
  P  P2  1  0.95808707  0.61985216  0.08450472  1
  P  P3  1  0.66300613  0.04343952  0.08428599  1
  P  P4  1  0.62040699  0.66540596  0.91622995  1
  P  P5  1  0.04856342  0.38302606  0.91634463  1
  P  P6  1  0.33838547  0.95485159  0.91503960  1
  P  P7  1  0.62138793  0.96060133  0.41551322  1
  P  P8  1  0.04763877  0.66611473  0.41597642  1
  S  S0  1  0.28528753  0.00178760  0.24962071  1
  S  S1  1  0.71185703  0.71205978  0.24965668  1
  S  S2  1  0.00185421  0.28535549  0.25040996  1
  S  S3  1  0.00225036  0.71488863  0.75131638  1
  S  S4  1  0.71387900  0.00026805  0.75116334  1
  S  S5  1  0.95983887  0.33681294  0.58405198  1
  S  S6  1  0.37717470  0.04432821  0.58350991  1
  S  S7  1  0.37809963  0.33677831  0.08363852  1
  S  S8  1  0.33497784  0.37694332  0.41649164  1
  O  O0  1  0.19445569  0.01881160  0.30452596  1
  O  O1  1  0.82305024  0.80294990  0.30455535  1
  O  O2  1  0.98319430  0.17544721  0.30505240  1
  O  O3  1  0.18700323  0.16593218  0.80608925  1
  O  O4  1  0.97419771  0.80050354  0.80446222  1
  O  O5  1  0.82487796  0.02390300  0.80422468  1
  O  O6  1  0.79556987  0.97070536  0.69578193  1
  O  O7  1  0.16680006  0.19355690  0.69451973  1
  O  O8  1  0.02680221  0.82453484  0.69634108  1
  O  O9  1  0.80253694  0.82298494  0.19557449  1
  O  O10  1  0.01902422  0.19478157  0.19578196  1
  O  O11  1  0.17555165  0.98293408  0.19522035  1
  O  O12  1  0.88497219  0.36943609  0.63761569  1
  O  O13  1  0.48529976  0.11129011  0.63735048  1
  O  O14  1  0.62368070  0.50961264  0.63946160  1
  O  O15  1  0.88609211  0.51125506  0.14069224  1
  O  O16  1  0.61900938  0.10981075  0.14048281  1
  O  O17  1  0.48366656  0.37220654  0.13820380  1
  O  O18  1  0.45851138  0.30387887  0.03000007  1
  O  O19  1  0.83755169  0.53403502  0.02806861  1
  O  O20  1  0.69546612  0.16364944  0.02825866  1
  O  O21  1  0.45853977  0.15646135  0.53004770  1
  O  O22  1  0.69838105  0.53381209  0.52891345  1
  O  O23  1  0.84179202  0.30107009  0.53030947  1
  O  O24  1  0.53392723  0.69695663  0.97155117  1
  O  O25  1  0.16315526  0.46606088  0.97229170  1
  O  O26  1  0.30388833  0.83848344  0.97152555  1
  O  O27  1  0.53527621  0.83947016  0.47147381  1
  O  O28  1  0.30381283  0.45834684  0.46996404  1
  O  O29  1  0.16375840  0.69526792  0.47200592  1
  O  O30  1  0.10916491  0.61761055  0.35959593  1
  O  O31  1  0.51095837  0.88808046  0.35966052  1
  O  O32  1  0.37468412  0.48381621  0.36229035  1
  O  O33  1  0.13225264  0.50055994  0.86032370  1
  O  O34  1  0.36800095  0.86661403  0.85990508  1
  O  O35  1  0.49941597  0.63228734  0.86043972  1
  O  O36  1  0.02441349  0.83288378  0.40764871  1
  O  O37  1  0.81020951  0.97951115  0.40752170  1
  O  O38  1  0.17306131  0.19582233  0.40937171  1
  O  O39  1  0.02461137  0.19479825  0.90683168  1
  O  O40  1  0.16825326  0.97071253  0.90670670  1
  O  O41  1  0.80483074  0.83132885  0.90464339  1
  O  O42  1  0.97470192  0.17143503  0.59060203  1
  O  O43  1  0.19517000  0.02283153  0.59091112  1
  O  O44  1  0.83346568  0.81228559  0.59364828  1
  O  O45  1  0.97786088  0.80952876  0.09246068  1
  O  O46  1  0.83373617  0.02571770  0.09243429  1
  O  O47  1  0.19647846  0.17240397  0.09085935  1
  O  O48  1  0.69680988  0.16026761  0.74496345  1
  O  O49  1  0.46970407  0.30273547  0.74809994  1
  O  O50  1  0.84479979  0.53483698  0.74638075  1
  O  O51  1  0.69982775  0.53607942  0.24701993  1
  O  O52  1  0.83796762  0.29870273  0.24875073  1
  O  O53  1  0.46198627  0.16688563  0.24741650  1
  O  O54  1  0.63821157  0.49696518  0.92462814  1
  O  O55  1  0.85891458  0.36097962  0.92351362  1
  O  O56  1  0.50168222  0.14364963  0.92459611  1
  O  O57  1  0.64879762  0.14913153  0.42966692  1
  O  O58  1  0.49220946  0.34948321  0.42650855  1
  O  O59  1  0.85420310  0.50402324  0.42809526  1
  O  O60  1  0.35100344  0.49237121  0.07466742  1
  O  O61  1  0.14799627  0.64851536  0.07268489  1
  O  O62  1  0.50400554  0.85111184  0.07241038  1
  O  O63  1  0.35096602  0.86072713  0.57272600  1
  O  O64  1  0.50379233  0.64793863  0.56868067  1
  O  O65  1  0.13900694  0.49065557  0.57173150  1
  O  O66  1  0.29867279  0.83789591  0.25166225  1
  O  O67  1  0.53582634  0.69958425  0.25335207  1
  O  O68  1  0.16699975  0.46196889  0.25323653  1
  O  O69  1  0.29658330  0.46811046  0.75971361  1
  O  O70  1  0.16874881  0.70517287  0.75774803  1
  O  O71  1  0.53534225  0.83550245  0.75744342  1
loop_
_geom_bond_atom_site_label_1
_geom_bond_atom_site_label_2
_geom_bond_distance
_geom_bond_site_symmetry_2
Na0 O49 2.413087 1_555
Na0 O50 2.525446 1_555
Na0 O48 2.542660 1_555
Na0 O56 2.583997 1_555
Na0 O54 2.584461 1_555
Na0 O55 2.606072 1_555
Na1 O52 2.433442 1_555
Na1 O53 2.465615 1_555
Na1 O51 2.496288 1_555
Na1 O57 2.670422 1_555
Na1 O59 2.674698 1_555
Na1 O58 2.687038 1_555
Na2 O66 2.464007 1_555
Na2 O68 2.507330 1_555
Na2 O67 2.517678 1_555
Na2 O61 2.607360 1_555
Na2 O62 2.633301 1_555
Na2 O60 2.641418 1_555
O0 S0 1.501978 1_555
O0 Ti0 2.030853 1_445
O1 S1 1.510746 1_555
O1 Ti0 1.972171 1_555
O2 S2 1.505559 1_655
O2 Ti0 2.015789 1_545
O3 P0 1.549602 1_555
O3 Ti1 1.894887 1_555
O4 S3 1.480073 1_655
O4 Ti1 2.055213 1_665
O5 S4 1.472179 1_555
O5 Ti1 2.085113 1_655
O6 S4 1.507520 1_565
O6 Ti2 1.996002 1_565
O7 P0 1.562748 1_555
O7 Ti2 1.912584 1_455
O8 S3 1.500629 1_555
O8 Ti2 2.024391 1_465
O9 S1 1.497341 1_555
O9 Ti3 2.015534 1_555
O10 S2 1.495150 1_555
O10 Ti3 2.046491 1_445
O11 S0 1.498281 1_565
O11 Ti3 2.032139 1_455
O12 S5 1.452705 1_555
O12 Zn0 2.131479 1_555
O13 S6 1.452085 1_555
O13 Zn0 2.071696 1_555
O14 P1 1.496488 1_555
O14 Zn0 1.951872 1_555
O15 P2 1.503688 1_555
O15 Zn1 1.971032 1_555
O16 P3 1.504855 1_555
O16 Zn1 1.964280 1_555
O17 S7 1.459112 1_555
O17 Zn1 2.086353 1_555
O18 S7 1.481485 1_555
O18 Ti4 2.097684 1_554
O19 P2 1.563480 1_555
O19 Ti4 1.900672 1_554
O20 P3 1.560298 1_555
O20 Ti4 1.914775 1_554
O21 S6 1.476225 1_555
O21 Ti5 2.097866 1_555
O22 P1 1.564299 1_555
O22 Ti5 1.880353 1_555
O23 S5 1.502573 1_555
O23 Ti5 1.987251 1_555
O24 P4 1.536695 1_555
O24 Ti6 1.932169 1_556
O25 P5 1.529756 1_555
O25 Ti6 1.949586 1_556
O26 P6 1.547408 1_555
O26 Ti6 1.876309 1_556
O27 P7 1.560151 1_555
O27 Ti7 1.871683 1_555
O28 S8 1.476367 1_555
O28 Ti7 2.077705 1_555
O29 P8 1.542779 1_555
O29 Ti7 1.953087 1_555
O30 P8 1.505106 1_555
O30 Zn2 1.968400 1_555
O31 P7 1.502123 1_555
O31 Zn2 1.985840 1_555
O32 S8 1.456635 1_555
O32 Zn2 2.116003 1_555
O33 P5 1.545068 1_555
O33 Ti8 1.922382 1_555
O34 P6 1.534391 1_555
O34 Ti8 1.984373 1_555
O35 P4 1.557079 1_555
O35 Ti8 1.890932 1_555
O36 P8 1.558881 1_555
O36 Ti0 1.883518 1_455
O37 P7 1.562511 1_555
O37 Ti0 1.877272 1_555
O38 S8 1.491868 1_555
O38 Ti0 2.003398 1_445
O39 P5 1.543727 1_555
O39 Ti1 1.882040 1_555
O40 P6 1.550642 1_555
O40 Ti1 1.865581 1_565
O41 P4 1.536927 1_555
O41 Ti1 1.926866 1_665
O42 S5 1.501116 1_555
O42 Ti2 1.988966 1_555
O43 S6 1.493792 1_555
O43 Ti2 2.007259 1_455
O44 P1 1.556172 1_555
O44 Ti2 1.915025 1_565
O45 P2 1.566272 1_555
O45 Ti3 1.864141 1_555
O46 P3 1.564327 1_555
O46 Ti3 1.868201 1_545
O47 S7 1.503971 1_555
O47 Ti3 1.969660 1_445
O48 S4 1.465133 1_555
O48 Zn0 2.169483 1_555
O49 P0 1.515753 1_555
O49 Zn0 2.039094 1_555
O50 S3 1.466597 1_655
O50 Zn0 2.132391 1_555
O51 S1 1.468675 1_555
O51 Zn1 2.190259 1_555
O52 S2 1.474010 1_655
O52 Zn1 2.160285 1_555
O53 S0 1.474826 1_555
O53 Zn1 2.179115 1_555
O54 P4 1.546201 1_555
O54 Ti4 2.002545 1_555
O55 P5 1.556454 1_655
O55 Ti4 1.927430 1_555
O56 P6 1.542074 1_545
O56 Ti4 2.010594 1_555
O57 P7 1.552416 1_545
O57 Ti5 1.948169 1_555
O58 S8 1.504714 1_555
O58 Ti5 2.013077 1_555
O59 P8 1.572242 1_655
O59 Ti5 1.857300 1_555
O60 S7 1.485937 1_555
O60 Ti6 2.079715 1_555
O61 P2 1.550857 1_455
O61 Ti6 1.942685 1_555
O62 P3 1.555051 1_565
O62 Ti6 1.919097 1_555
O63 S6 1.501289 1_565
O63 Ti7 1.937418 1_555
O64 P1 1.553940 1_555
O64 Ti7 1.874227 1_555
O65 S5 1.472426 1_455
O65 Ti7 2.062468 1_555
O66 S0 1.474580 1_565
O66 Zn2 2.141997 1_555
O67 S1 1.468627 1_555
O67 Zn2 2.184607 1_555
O68 S2 1.474932 1_555
O68 Zn2 2.158483 1_555
O69 P0 1.556280 1_555
O69 Ti8 1.898970 1_555
O70 S3 1.485742 1_555
O70 Ti8 2.059193 1_555
O71 S4 1.488308 1_565
O71 Ti8 2.039998 1_555
