# generated using pymatgen
data_Na6NbIn3Si2(PO6)4
_symmetry_space_group_name_H-M   'P 1'
_cell_length_a   15.83335783
_cell_length_b   9.13275357
_cell_length_c   9.15501542
_cell_angle_alpha   90.04191374
_cell_angle_beta   125.15129524
_cell_angle_gamma   89.96524276
_symmetry_Int_Tables_number   1
_chemical_formula_structural   Na6NbIn3Si2(PO6)4
_chemical_formula_sum   'Na12 Nb2 In6 Si4 P8 O48'
_cell_volume   1082.41295679
_cell_formula_units_Z   2
loop_
 _symmetry_equiv_pos_site_id
 _symmetry_equiv_pos_as_xyz
  1  'x, y, z'
loop_
 _atom_site_type_symbol
 _atom_site_label
 _atom_site_symmetry_multiplicity
 _atom_site_fract_x
 _atom_site_fract_y
 _atom_site_fract_z
 _atom_site_occupancy
  Na  Na0  1  0.25021710  0.75149927  0.99617068  1
  Na  Na1  1  0.74499209  0.75470394  0.48606186  1
  Na  Na2  1  0.75021710  0.25149927  0.99617068  1
  Na  Na3  1  0.24499209  0.25470394  0.48606186  1
  Na  Na4  1  0.49816819  0.09004878  0.73583849  1
  Na  Na5  1  0.50519019  0.88352429  0.24969954  1
  Na  Na6  1  0.99816819  0.59004878  0.73583849  1
  Na  Na7  1  0.00519019  0.38352429  0.24969954  1
  Na  Na8  1  0.19020517  0.93076196  0.29011787  1
  Na  Na9  1  0.80859349  0.07807453  0.71167767  1
  Na  Na10  1  0.69020517  0.43076196  0.29011787  1
  Na  Na11  1  0.30859349  0.57807453  0.71167767  1
  Nb  Nb0  1  0.89659930  0.74639290  0.94361276  1
  Nb  Nb1  1  0.39659930  0.24639290  0.94361276  1
  In  In0  1  0.10107178  0.75564840  0.55690720  1
  In  In1  1  0.89759664  0.24497319  0.44005052  1
  In  In2  1  0.10313020  0.25041232  0.05159016  1
  In  In3  1  0.60107178  0.25564840  0.55690720  1
  In  In4  1  0.39759664  0.74497319  0.44005052  1
  In  In5  1  0.60313020  0.75041232  0.05159016  1
  Si  Si0  1  0.35100107  0.90003075  0.75363840  1
  Si  Si1  1  0.65277586  0.10132676  0.25347566  1
  Si  Si2  1  0.85100107  0.40003075  0.75363840  1
  Si  Si3  1  0.15277586  0.60132676  0.25347566  1
  P  P0  1  0.00111531  0.94907698  0.75982014  1
  P  P1  1  0.99763850  0.04622856  0.24646176  1
  P  P2  1  0.50111531  0.44907698  0.75982014  1
  P  P3  1  0.49763850  0.54622856  0.24646176  1
  P  P4  1  0.64769363  0.89459791  0.73876334  1
  P  P5  1  0.35456804  0.10282545  0.25769908  1
  P  P6  1  0.14769363  0.39459791  0.73876334  1
  P  P7  1  0.85456804  0.60282545  0.25769908  1
  O  O0  1  0.15555149  0.56435601  0.74206501  1
  O  O1  1  0.84583063  0.58405073  0.77365207  1
  O  O2  1  0.85217647  0.43448642  0.23618648  1
  O  O3  1  0.15540650  0.42389826  0.24494563  1
  O  O4  1  0.65555149  0.06435601  0.74206501  1
  O  O5  1  0.34583063  0.08405073  0.77365207  1
  O  O6  1  0.35217647  0.93448642  0.23618648  1
  O  O7  1  0.65540650  0.92389826  0.24494563  1
  O  O8  1  0.43259283  0.54956383  0.59725804  1
  O  O9  1  0.57099107  0.53358008  0.93536420  1
  O  O10  1  0.55696716  0.45251667  0.41483263  1
  O  O11  1  0.43734879  0.44515354  0.07615294  1
  O  O12  1  0.93259283  0.04956383  0.59725804  1
  O  O13  1  0.07099107  0.03358008  0.93536420  1
  O  O14  1  0.05696716  0.95251667  0.41483263  1
  O  O15  1  0.93734879  0.94515354  0.07615294  1
  O  O16  1  0.25610234  0.82377164  0.74594659  1
  O  O17  1  0.74761203  0.83441080  0.76131977  1
  O  O18  1  0.73616833  0.19436722  0.24016150  1
  O  O19  1  0.25846258  0.15597758  0.24626946  1
  O  O20  1  0.75610234  0.32377164  0.74594659  1
  O  O21  1  0.24761203  0.33441080  0.76131977  1
  O  O22  1  0.23616833  0.69436722  0.24016150  1
  O  O23  1  0.75846258  0.65597758  0.24626946  1
  O  O24  1  0.35368807  0.88487203  0.57663907  1
  O  O25  1  0.64401101  0.85333790  0.89646640  1
  O  O26  1  0.65764464  0.14195512  0.43054000  1
  O  O27  1  0.35906405  0.16819465  0.10099844  1
  O  O28  1  0.85368807  0.38487203  0.57663907  1
  O  O29  1  0.14401101  0.35333790  0.89646640  1
  O  O30  1  0.15764464  0.64195512  0.43054000  1
  O  O31  1  0.85906405  0.66819465  0.10099844  1
  O  O32  1  0.45656253  0.84136013  0.93391383  1
  O  O33  1  0.55330651  0.83591839  0.55839013  1
  O  O34  1  0.53389021  0.16782924  0.08148946  1
  O  O35  1  0.45174621  0.15235489  0.43705861  1
  O  O36  1  0.95656253  0.34136013  0.93391383  1
  O  O37  1  0.05330651  0.33591839  0.55839013  1
  O  O38  1  0.03389021  0.66782924  0.08148946  1
  O  O39  1  0.95174621  0.65235489  0.43705861  1
  O  O40  1  0.06576126  0.83246618  0.74347203  1
  O  O41  1  0.91833628  0.85608396  0.76841407  1
  O  O42  1  0.91952765  0.15193806  0.24097782  1
  O  O43  1  0.08069480  0.13743068  0.24590071  1
  O  O44  1  0.56576126  0.33246618  0.74347203  1
  O  O45  1  0.41833628  0.35608396  0.76841407  1
  O  O46  1  0.41952765  0.65193806  0.24097782  1
  O  O47  1  0.58069480  0.63743068  0.24590071  1
loop_
_geom_bond_atom_site_label_1
_geom_bond_atom_site_label_2
_geom_bond_distance
_geom_bond_site_symmetry_2
Na0 O22 2.425964 1_556
Na0 O16 2.437256 1_555
Na0 O46 2.473469 1_556
Na0 O6 2.478021 1_556
Na0 O0 2.561610 1_555
Na0 O40 2.578443 1_555
Na1 O7 2.381032 1_555
Na1 O47 2.482422 1_555
Na1 O23 2.492754 1_555
Na1 O17 2.599799 1_555
Na1 O41 2.627231 1_555
Na1 O1 2.659481 1_555
Na2 O18 2.425964 1_556
Na2 O20 2.437256 1_555
Na2 O42 2.473469 1_556
Na2 O2 2.478021 1_556
Na2 O4 2.561610 1_555
Na2 O44 2.578443 1_555
Na3 O3 2.381032 1_555
Na3 O43 2.482422 1_555
Na3 O19 2.492754 1_555
Na3 O21 2.599799 1_555
Na3 O45 2.627231 1_555
Na3 O5 2.659481 1_555
Na4 O44 2.443014 1_555
Na4 O35 2.456177 1_555
Na4 O4 2.470556 1_555
Na4 O5 2.627229 1_555
Na4 O24 2.651537 1_545
Na4 O45 2.831794 1_555
Na4 O25 2.873459 1_545
Na4 O34 2.962172 1_556
Na5 O6 2.398978 1_555
Na5 O7 2.432089 1_555
Na5 O46 2.489545 1_555
Na5 O33 2.505661 1_555
Na5 O47 2.554647 1_555
Na5 O32 2.556316 1_554
Na6 O40 2.443014 1_655
Na6 O39 2.456177 1_555
Na6 O0 2.470556 1_655
Na6 O1 2.627229 1_555
Na6 O28 2.651537 1_555
Na6 O41 2.831794 1_555
Na6 O29 2.873459 1_655
Na6 O38 2.962172 1_656
Na7 O2 2.398978 1_455
Na7 O3 2.432089 1_555
Na7 O42 2.489545 1_455
Na7 O37 2.505661 1_555
Na7 O43 2.554647 1_555
Na7 O36 2.556316 1_454
Na8 O22 2.404100 1_555
Na8 O43 2.433463 1_565
Na8 O24 2.436905 1_555
Na8 O19 2.462359 1_565
Na8 O13 2.817093 1_564
Na8 O6 2.877501 1_555
Na8 O14 2.926811 1_555
Na9 O26 2.365237 1_555
Na9 O20 2.474100 1_555
Na9 O41 2.521377 1_545
Na9 O17 2.569093 1_545
Na9 O4 2.596437 1_555
Na9 O12 2.717876 1_555
Na10 O18 2.404100 1_555
Na10 O47 2.433463 1_555
Na10 O28 2.436905 1_555
Na10 O23 2.462359 1_555
Na10 O9 2.817093 1_554
Na10 O2 2.877501 1_555
Na10 O10 2.926811 1_555
Na11 O30 2.365237 1_555
Na11 O16 2.474100 1_555
Na11 O45 2.521377 1_555
Na11 O21 2.569093 1_555
Na11 O0 2.596437 1_555
Na11 O8 2.717876 1_555
Nb0 O38 1.916598 1_656
Nb0 O1 1.955328 1_555
Nb0 O31 1.981764 1_556
Nb0 O15 2.068919 1_556
Nb0 O41 2.081605 1_555
Nb0 O17 2.112479 1_555
Nb1 O34 1.916598 1_556
Nb1 O5 1.955328 1_555
Nb1 O27 1.981764 1_556
Nb1 O11 2.068919 1_556
Nb1 O45 2.081605 1_555
Nb1 O21 2.112479 1_555
In0 O14 2.089998 1_555
In0 O30 2.099820 1_555
In0 O16 2.125135 1_555
In0 O39 2.167463 1_455
In0 O40 2.195307 1_555
In0 O0 2.233478 1_555
In1 O12 2.155828 1_555
In1 O28 2.162648 1_555
In1 O18 2.170180 1_555
In1 O37 2.206222 1_655
In1 O42 2.211370 1_555
In1 O2 2.335344 1_555
In2 O36 2.087139 1_454
In2 O29 2.092986 1_554
In2 O3 2.153906 1_555
In2 O13 2.165018 1_554
In2 O19 2.218437 1_555
In2 O43 2.255256 1_555
In3 O10 2.089998 1_555
In3 O26 2.099820 1_555
In3 O20 2.125135 1_555
In3 O35 2.167463 1_555
In3 O44 2.195307 1_555
In3 O4 2.233478 1_555
In4 O8 2.155828 1_555
In4 O24 2.162648 1_555
In4 O22 2.170180 1_555
In4 O33 2.206222 1_555
In4 O46 2.211370 1_555
In4 O6 2.335344 1_555
In5 O32 2.087139 1_554
In5 O25 2.092986 1_554
In5 O7 2.153906 1_555
In5 O9 2.165018 1_554
In5 O23 2.218437 1_555
In5 O47 2.255256 1_555
O0 P6 1.554298 1_555
O1 Si2 1.697461 1_555
O2 P7 1.547533 1_555
O3 Si3 1.623897 1_555
O4 P4 1.554298 1_545
O5 Si0 1.697461 1_545
O6 P5 1.547533 1_565
O7 Si1 1.623897 1_565
O8 P2 1.541350 1_555
O9 P2 1.534365 1_555
O10 P3 1.524652 1_555
O11 P3 1.574649 1_555
O12 P0 1.541350 1_645
O13 P0 1.534365 1_545
O14 P1 1.524652 1_465
O15 P1 1.574649 1_565
O16 Si0 1.620825 1_555
O17 P4 1.571806 1_555
O18 Si1 1.633132 1_555
O19 P5 1.542046 1_555
O20 Si2 1.620825 1_555
O21 P6 1.571806 1_555
O22 Si3 1.633132 1_555
O23 P7 1.542046 1_555
O24 Si0 1.651006 1_555
O25 P4 1.525658 1_555
O26 Si1 1.620682 1_555
O27 P5 1.593249 1_555
O28 Si2 1.651006 1_555
O29 P6 1.525658 1_555
O30 Si3 1.620682 1_555
O31 P7 1.593249 1_555
O32 Si0 1.621239 1_555
O33 P4 1.550967 1_555
O34 Si1 1.725844 1_555
O35 P5 1.535866 1_555
O36 Si2 1.621239 1_555
O37 P6 1.550967 1_555
O38 Si3 1.725844 1_555
O39 P7 1.535866 1_555
O40 P0 1.542433 1_555
O41 P0 1.601723 1_655
O42 P1 1.546366 1_555
O43 P1 1.559580 1_455
O44 P2 1.542433 1_555
O45 P2 1.601723 1_555
O46 P3 1.546366 1_555
O47 P3 1.559580 1_555
