# generated using pymatgen
data_Fe3Re
_symmetry_space_group_name_H-M   'P 1'
_cell_length_a   5.27200855
_cell_length_b   5.07408993
_cell_length_c   4.18241351
_cell_angle_alpha   90.00000000
_cell_angle_beta   90.00000000
_cell_angle_gamma   118.76570837
_symmetry_Int_Tables_number   1
_chemical_formula_structural   Fe3Re
_chemical_formula_sum   'Fe6 Re2'
_cell_volume   98.07541441
_cell_formula_units_Z   2
loop_
 _symmetry_equiv_pos_site_id
 _symmetry_equiv_pos_as_xyz
  1  'x, y, z'
loop_
 _atom_site_type_symbol
 _atom_site_label
 _atom_site_symmetry_multiplicity
 _atom_site_fract_x
 _atom_site_fract_y
 _atom_site_fract_z
 _atom_site_occupancy
  Fe  Fe0  1  0.14392569  0.32729540  0.25000000  1
  Fe  Fe1  1  0.65696370  0.82848185  0.25000000  1
  Fe  Fe2  1  0.14392569  0.81663128  0.25000000  1
  Fe  Fe3  1  0.85607431  0.67270460  0.75000000  1
  Fe  Fe4  1  0.34303630  0.17151815  0.75000000  1
  Fe  Fe5  1  0.85607431  0.18336872  0.75000000  1
  Re  Re0  1  0.33983764  0.66991932  0.75000000  1
  Re  Re1  1  0.66016236  0.33008068  0.25000000  1
loop_
_geom_bond_atom_site_label_1
_geom_bond_atom_site_label_2
_geom_bond_distance
_geom_bond_site_symmetry_2
Fe0 Fe5 2.478466 1_455
Fe0 Fe5 2.478466 1_454
Fe0 Fe2 2.482934 1_555
Fe0 Re1 2.557236 1_455
Fe0 Fe2 2.591156 1_545
Fe0 Re0 2.595018 1_555
Fe0 Re0 2.595018 1_554
Fe0 Fe1 2.596742 1_445
Fe0 Fe4 2.626479 1_554
Fe0 Fe4 2.626479 1_555
Fe0 Fe1 2.676321 1_555
Fe0 Re1 2.714831 1_555
Fe1 Re1 2.537085 1_565
Fe1 Re1 2.537091 1_555
Fe1 Re0 2.553634 1_555
Fe1 Re0 2.553634 1_554
Fe1 Fe2 2.596740 1_655
Fe1 Fe5 2.626477 1_564
Fe1 Fe5 2.626477 1_565
Fe1 Fe3 2.626479 1_554
Fe1 Fe3 2.626479 1_555
Fe1 Fe2 2.676323 1_555
Fe2 Fe3 2.478466 1_455
Fe2 Fe3 2.478466 1_454
Fe2 Re1 2.557241 1_455
Fe2 Re0 2.595018 1_555
Fe2 Re0 2.595018 1_554
Fe2 Fe4 2.626477 1_565
Fe2 Fe4 2.626477 1_564
Fe2 Re1 2.714827 1_565
Fe3 Fe5 2.482934 1_555
Fe3 Re0 2.557236 1_655
Fe3 Fe5 2.591156 1_565
Fe3 Re1 2.595018 1_555
Fe3 Re1 2.595018 1_556
Fe3 Fe4 2.596742 1_665
Fe3 Fe4 2.676321 1_555
Fe3 Re0 2.714831 1_555
Fe4 Re0 2.537085 1_545
Fe4 Re0 2.537091 1_555
Fe4 Re1 2.553634 1_555
Fe4 Re1 2.553634 1_556
Fe4 Fe5 2.596740 1_455
Fe4 Fe5 2.676323 1_555
Fe5 Re0 2.557241 1_655
Fe5 Re1 2.595018 1_555
Fe5 Re1 2.595018 1_556
Fe5 Re0 2.714827 1_545
