# generated using pymatgen
data_NaYAlP(SO6)2
_symmetry_space_group_name_H-M   'P 1'
_cell_length_a   8.73050690
_cell_length_b   8.71410348
_cell_length_c   23.06122280
_cell_angle_alpha   90.13373348
_cell_angle_beta   89.73936398
_cell_angle_gamma   119.86123183
_symmetry_Int_Tables_number   1
_chemical_formula_structural   NaYAlP(SO6)2
_chemical_formula_sum   'Na6 Y6 Al6 P6 S12 O72'
_cell_volume   1521.51496153
_cell_formula_units_Z   6
loop_
 _symmetry_equiv_pos_site_id
 _symmetry_equiv_pos_as_xyz
  1  'x, y, z'
loop_
 _atom_site_type_symbol
 _atom_site_label
 _atom_site_symmetry_multiplicity
 _atom_site_fract_x
 _atom_site_fract_y
 _atom_site_fract_z
 _atom_site_occupancy
  Na  Na0  1  0.98992994  0.99321146  0.50011424  1
  Na  Na1  1  0.00573723  0.98834650  0.99996838  1
  Na  Na2  1  0.65749957  0.31217275  0.82943455  1
  Na  Na3  1  0.65622940  0.31671639  0.33816694  1
  Na  Na4  1  0.32026978  0.67318631  0.16503168  1
  Na  Na5  1  0.34593225  0.67137613  0.66096166  1
  Y  Y0  1  0.99831847  0.00170822  0.85043268  1
  Y  Y1  1  0.00577954  0.99374590  0.14719023  1
  Y  Y2  1  0.66531461  0.33179930  0.18633924  1
  Y  Y3  1  0.66614042  0.33212217  0.98079046  1
  Y  Y4  1  0.33764158  0.68078968  0.32300238  1
  Y  Y5  1  0.34155868  0.67982178  0.80599999  1
  Al  Al0  1  0.99751649  0.00007484  0.35511080  1
  Al  Al1  1  0.97822803  0.98393831  0.64468086  1
  Al  Al2  1  0.66410875  0.33156553  0.67834584  1
  Al  Al3  1  0.67203826  0.33460232  0.48710998  1
  Al  Al4  1  0.32415101  0.67370087  0.01693774  1
  Al  Al5  1  0.37050928  0.67748930  0.51762814  1
  P  P0  1  0.28654634  0.00482745  0.25800786  1
  P  P1  1  0.71760128  0.02136333  0.73989620  1
  P  P2  1  0.66732250  0.61493623  0.58272777  1
  P  P3  1  0.98149696  0.63128292  0.08031671  1
  P  P4  1  0.32757295  0.95078094  0.91946046  1
  P  P5  1  0.64213323  0.97703186  0.42234090  1
  S  S0  1  0.71437014  0.71308472  0.25646690  1
  S  S1  1  0.99939344  0.28520275  0.25631098  1
  S  S2  1  0.29646749  0.28048100  0.73935298  1
  S  S3  1  0.98204038  0.69955357  0.74007198  1
  S  S4  1  0.95742260  0.33496150  0.58286674  1
  S  S5  1  0.37790180  0.04364058  0.58234291  1
  S  S6  1  0.65098292  0.01504175  0.08049115  1
  S  S7  1  0.36578437  0.35306866  0.08013645  1
  S  S8  1  0.61566564  0.67087289  0.92052784  1
  S  S9  1  0.05546699  0.38355545  0.91950311  1
  S  S10  1  0.33707733  0.36765558  0.42260038  1
  S  S11  1  0.03024822  0.66392811  0.42348350  1
  O  O0  1  0.17976529  0.01238120  0.31101955  1
  O  O1  1  0.82024355  0.81030609  0.30769166  1
  O  O2  1  0.98358445  0.17510672  0.30754258  1
  O  O3  1  0.23026947  0.18777066  0.79597545  1
  O  O4  1  0.95823432  0.76913100  0.79619618  1
  O  O5  1  0.81322734  0.04719043  0.79858723  1
  O  O6  1  0.81849706  0.99306060  0.69023728  1
  O  O7  1  0.17848552  0.18362815  0.69105311  1
  O  O8  1  0.01205677  0.82196090  0.69170943  1
  O  O9  1  0.78660852  0.80749500  0.20145447  1
  O  O10  1  0.01248688  0.20857685  0.20092341  1
  O  O11  1  0.19531235  0.99005185  0.20004115  1
  O  O12  1  0.87331599  0.36440050  0.63496601  1
  O  O13  1  0.49001745  0.12329260  0.63470142  1
  O  O14  1  0.63385768  0.49702222  0.63667044  1
  O  O15  1  0.89586108  0.52532279  0.13652851  1
  O  O16  1  0.62362679  0.09433476  0.13383836  1
  O  O17  1  0.46814146  0.37403828  0.13371895  1
  O  O18  1  0.44579337  0.31494158  0.02989085  1
  O  O19  1  0.86482980  0.54343967  0.02784611  1
  O  O20  1  0.68050457  0.12784655  0.02971862  1
  O  O21  1  0.46102375  0.15749414  0.53088139  1
  O  O22  1  0.69651357  0.52693227  0.52913417  1
  O  O23  1  0.84334170  0.30181938  0.53134190  1
  O  O24  1  0.51980760  0.67718962  0.97205133  1
  O  O25  1  0.15864486  0.47592192  0.97113182  1
  O  O26  1  0.32026658  0.84227144  0.97288821  1
  O  O27  1  0.54545924  0.84209849  0.47274613  1
  O  O28  1  0.30589549  0.46229108  0.47199712  1
  O  O29  1  0.15436227  0.69533599  0.47186556  1
  O  O30  1  0.09209854  0.62238064  0.36888798  1
  O  O31  1  0.53098653  0.91185792  0.36710599  1
  O  O32  1  0.37326403  0.47038781  0.36857427  1
  O  O33  1  0.13645794  0.47494134  0.86453633  1
  O  O34  1  0.34231130  0.86788898  0.86225972  1
  O  O35  1  0.52238731  0.65351399  0.86545459  1
  O  O36  1  0.01453118  0.82629131  0.41435190  1
  O  O37  1  0.82563592  0.99006889  0.41030590  1
  O  O38  1  0.17417014  0.19146622  0.41527315  1
  O  O39  1  0.03761783  0.20512445  0.91968862  1
  O  O40  1  0.15847369  0.96527359  0.91858945  1
  O  O41  1  0.79084912  0.83439556  0.91943259  1
  O  O42  1  0.97721530  0.17394669  0.59049052  1
  O  O43  1  0.19867668  0.02339517  0.59095360  1
  O  O44  1  0.83231784  0.80462335  0.59205066  1
  O  O45  1  0.00562063  0.81855911  0.08234485  1
  O  O46  1  0.80889736  0.99668132  0.08534890  1
  O  O47  1  0.18483057  0.20069287  0.08475453  1
  O  O48  1  0.69500020  0.18527774  0.73017958  1
  O  O49  1  0.47656640  0.30315472  0.73240372  1
  O  O50  1  0.82283500  0.52342011  0.73228367  1
  O  O51  1  0.70698692  0.53970357  0.25457944  1
  O  O52  1  0.83765027  0.30128097  0.25519099  1
  O  O53  1  0.47013307  0.17379114  0.25639279  1
  O  O54  1  0.64133413  0.51552404  0.92113441  1
  O  O55  1  0.87702853  0.36349390  0.92023443  1
  O  O56  1  0.49185034  0.13670578  0.91941442  1
  O  O57  1  0.66255927  0.16025611  0.43698639  1
  O  O58  1  0.49266183  0.34502821  0.43349693  1
  O  O59  1  0.85127574  0.50801372  0.43386744  1
  O  O60  1  0.35887822  0.51570020  0.07141058  1
  O  O61  1  0.16310587  0.64476582  0.07320602  1
  O  O62  1  0.49352880  0.84041235  0.07291290  1
  O  O63  1  0.35980886  0.86356978  0.57352248  1
  O  O64  1  0.50082774  0.63862320  0.57277953  1
  O  O65  1  0.13495124  0.49448784  0.57447984  1
  O  O66  1  0.30646764  0.83860392  0.25848889  1
  O  O67  1  0.53355146  0.68539358  0.25946229  1
  O  O68  1  0.15841283  0.46145749  0.26002136  1
  O  O69  1  0.31183534  0.45819962  0.74344298  1
  O  O70  1  0.14096182  0.67911720  0.74308588  1
  O  O71  1  0.53301399  0.85224000  0.74212047  1
loop_
_geom_bond_atom_site_label_1
_geom_bond_atom_site_label_2
_geom_bond_distance
_geom_bond_site_symmetry_2
Na0 O37 2.516988 1_555
Na0 O36 2.523353 1_655
Na0 O38 2.572922 1_665
Na0 O44 2.612878 1_555
Na0 O42 2.644481 1_565
Na0 O43 2.708108 1_665
Na1 O40 2.362838 1_555
Na1 O45 2.410296 1_556
Na1 O41 2.506512 1_455
Na1 O39 2.561532 1_565
Na1 O47 2.611836 1_566
Na1 O46 2.632162 1_456
Na2 O56 2.553579 1_555
Na2 O48 2.628889 1_555
Na2 O49 2.723276 1_555
Na2 O55 2.727015 1_555
Na2 O50 2.799202 1_555
Na2 O54 2.803716 1_555
Na3 O53 2.397717 1_555
Na3 O52 2.524238 1_555
Na3 O51 2.615368 1_555
Na3 O57 2.673200 1_555
Na3 O58 2.693130 1_555
Na3 O59 2.782008 1_555
Na4 O61 2.472635 1_555
Na4 O62 2.591284 1_555
Na4 O66 2.625547 1_555
Na4 O60 2.664301 1_555
Na4 O68 2.755729 1_555
Na4 O67 2.838917 1_555
Na5 O71 2.470893 1_555
Na5 O64 2.530280 1_555
Na5 O69 2.572584 1_555
Na5 O63 2.587895 1_555
Na5 O70 2.623437 1_555
Na5 O65 2.634030 1_555
Al0 O0 1.841991 1_655
Al0 O37 1.931956 1_545
Al0 O2 1.933470 1_555
Al0 O1 1.945281 1_545
Al0 O36 2.101741 1_645
Al0 O38 2.128935 1_655
Al1 O6 1.775230 1_555
Al1 O44 1.886938 1_555
Al1 O8 1.918574 1_655
Al1 O7 2.051125 1_665
Al1 O42 2.080306 1_565
Al1 O43 2.163077 1_665
Al2 O14 1.860166 1_555
Al2 O48 1.865217 1_555
Al2 O49 1.968628 1_555
Al2 O13 1.968635 1_555
Al2 O12 1.970533 1_555
Al2 O50 1.990360 1_555
Al3 O22 1.852422 1_555
Al3 O57 1.875802 1_555
Al3 O23 1.949231 1_555
Al3 O59 1.968816 1_555
Al3 O21 1.988420 1_555
Al3 O58 2.036964 1_555
Al4 O26 1.802151 1_554
Al4 O61 1.831976 1_555
Al4 O25 1.923433 1_554
Al4 O62 1.957770 1_555
Al4 O24 1.980571 1_554
Al4 O60 1.998220 1_555
Al5 O27 1.809040 1_555
Al5 O64 1.850862 1_555
Al5 O28 1.971026 1_555
Al5 O63 2.107027 1_555
Al5 O29 2.238326 1_555
Al5 O65 2.282708 1_555
O0 P0 1.555099 1_555
O1 S0 1.480902 1_555
O2 S1 1.485692 1_555
O3 S2 1.491602 1_555
O3 Y0 2.241343 1_455
O4 S3 1.485049 1_555
O4 Y0 2.253944 1_565
O5 P1 1.549622 1_555
O5 Y0 2.203499 1_555
O6 P1 1.534301 1_565
O7 S2 1.467763 1_555
O8 S3 1.474751 1_455
O9 S0 1.471389 1_555
O9 Y1 2.180984 1_655
O10 S1 1.470079 1_455
O10 Y1 2.219054 1_545
O11 P0 1.531263 1_565
O11 Y1 2.072725 1_555
O12 S4 1.492196 1_555
O13 S5 1.492683 1_555
O14 P2 1.546726 1_555
O15 P3 1.549614 1_555
O15 Y2 2.196049 1_555
O16 S6 1.485156 1_555
O16 Y2 2.263327 1_555
O17 S7 1.485008 1_555
O17 Y2 2.285469 1_555
O18 S7 1.470681 1_555
O18 Y3 2.167834 1_554
O19 P3 1.522527 1_555
O19 Y3 2.098680 1_554
O20 S6 1.467648 1_555
O20 Y3 2.165762 1_554
O21 S5 1.483263 1_555
O22 P2 1.538802 1_555
O23 S4 1.486607 1_555
O24 S8 1.466881 1_555
O25 S9 1.469743 1_555
O26 P4 1.536526 1_555
O27 P5 1.566945 1_555
O28 S10 1.506052 1_555
O29 S11 1.486001 1_555
O30 S11 1.481287 1_555
O30 Y4 2.206731 1_555
O31 P5 1.531589 1_555
O31 Y4 2.135333 1_555
O32 S10 1.474281 1_555
O32 Y4 2.267726 1_555
O33 S9 1.475395 1_555
O33 Y5 2.240959 1_555
O34 P4 1.537840 1_555
O34 Y5 2.085318 1_555
O35 S8 1.478162 1_555
O35 Y5 2.192349 1_555
O36 S11 1.503315 1_555
O37 P5 1.572078 1_555
O38 S10 1.495033 1_555
O39 S9 1.483460 1_555
O39 Y0 2.279638 1_455
O40 P4 1.543316 1_555
O40 Y0 2.233998 1_465
O41 S8 1.483207 1_555
O41 Y0 2.300735 1_565
O42 S4 1.507423 1_555
O43 S5 1.497120 1_555
O44 P2 1.575939 1_555
O45 P3 1.538589 1_455
O45 Y1 2.134013 1_555
O46 S6 1.469704 1_565
O46 Y1 2.248406 1_655
O47 S7 1.476649 1_555
O47 Y1 2.225605 1_545
O48 P1 1.553041 1_555
O49 S2 1.491815 1_555
O50 S3 1.482074 1_555
O51 S0 1.480368 1_555
O51 Y2 2.286196 1_555
O52 S1 1.487174 1_555
O52 Y2 2.297337 1_555
O53 P0 1.545296 1_555
O53 Y2 2.249087 1_555
O54 S8 1.478243 1_555
O54 Y3 2.202589 1_555
O55 S9 1.478629 1_655
O55 Y3 2.211782 1_555
O56 P4 1.538834 1_545
O56 Y3 2.155600 1_555
O57 P5 1.552293 1_545
O58 S10 1.489004 1_555
O59 S11 1.492936 1_655
O60 S7 1.462560 1_555
O61 P3 1.538455 1_455
O62 S6 1.467572 1_565
O63 S5 1.510151 1_565
O64 P2 1.584353 1_555
O65 S4 1.491675 1_455
O66 P0 1.542548 1_565
O66 Y4 2.136504 1_555
O67 S0 1.474738 1_555
O67 Y4 2.232338 1_555
O68 S1 1.473378 1_455
O68 Y4 2.289229 1_555
O69 S2 1.489216 1_555
O69 Y5 2.317236 1_555
O70 S3 1.486132 1_455
O70 Y5 2.276959 1_555
O71 P1 1.551195 1_565
O71 Y5 2.169923 1_555
