# generated using pymatgen
data_Ba8Bi4O17
_symmetry_space_group_name_H-M   'P 1'
_cell_length_a   10.89615847
_cell_length_b   10.89615847
_cell_length_c   6.30597000
_cell_angle_alpha   74.44405260
_cell_angle_beta   74.44405260
_cell_angle_gamma   47.79929933
_symmetry_Int_Tables_number   1
_chemical_formula_structural   Ba8Bi4O17
_chemical_formula_sum   'Ba8 Bi4 O17'
_cell_volume   530.22539232
_cell_formula_units_Z   1
loop_
 _symmetry_equiv_pos_site_id
 _symmetry_equiv_pos_as_xyz
  1  'x, y, z'
loop_
 _atom_site_type_symbol
 _atom_site_label
 _atom_site_symmetry_multiplicity
 _atom_site_fract_x
 _atom_site_fract_y
 _atom_site_fract_z
 _atom_site_occupancy
  Ba  Ba0  1  0.94189753  0.41954055  0.82260589  1
  Ba  Ba1  1  0.74119045  0.23242106  0.55671309  1
  Ba  Ba2  1  0.41954055  0.94189753  0.82260589  1
  Ba  Ba3  1  0.58425049  0.11382191  0.16732854  1
  Ba  Ba4  1  0.52490064  0.52490064  0.04058298  1
  Ba  Ba5  1  0.15720695  0.15720695  0.33817289  1
  Ba  Ba6  1  0.23242106  0.74119045  0.55671309  1
  Ba  Ba7  1  0.11382191  0.58425049  0.16732854  1
  Bi  Bi0  1  0.83448194  0.83448194  0.67993748  1
  Bi  Bi1  1  0.67307419  0.67307419  0.32423983  1
  Bi  Bi2  1  0.33756073  0.33756073  0.68367113  1
  Bi  Bi3  1  0.99947755  0.99947755  0.00586532  1
  O  O0  1  0.82031156  0.42689781  0.26808562  1
  O  O1  1  0.73111176  0.73111176  0.97431617  1
  O  O2  1  0.61732180  0.61732180  0.66208644  1
  O  O3  1  0.76630940  0.76630940  0.40832189  1
  O  O4  1  0.93632625  0.93632625  0.35680950  1
  O  O5  1  0.89869015  0.89869015  0.90760060  1
  O  O6  1  0.75549525  0.22213664  0.00445602  1
  O  O7  1  0.42689781  0.82031156  0.26808562  1
  O  O8  1  0.57788622  0.09088427  0.68055469  1
  O  O9  1  0.04739897  0.04739897  0.65936321  1
  O  O10  1  0.41019680  0.41019680  0.36317924  1
  O  O11  1  0.26837580  0.26837580  0.00826869  1
  O  O12  1  0.25073217  0.25073217  0.55078168  1
  O  O13  1  0.10182413  0.10182413  0.02791967  1
  O  O14  1  0.42330900  0.42330900  0.81946259  1
  O  O15  1  0.09088427  0.57788622  0.68055469  1
  O  O16  1  0.22213664  0.75549525  0.00445602  1
loop_
_geom_bond_atom_site_label_1
_geom_bond_atom_site_label_2
_geom_bond_distance
_geom_bond_site_symmetry_2
Ba0 O13 2.720111 1_656
Ba0 O0 2.763157 1_556
Ba0 O1 2.793561 1_555
Ba0 O12 2.815514 1_655
Ba0 O15 2.927225 1_655
Ba0 O2 2.947431 1_555
Ba0 O11 3.172735 1_656
Ba1 O9 2.652791 1_655
Ba1 O4 2.836684 1_545
Ba1 O6 2.837537 1_556
Ba1 O0 2.844356 1_555
Ba1 O14 2.856609 1_555
Ba1 O8 2.906871 1_555
Ba1 O10 3.155333 1_555
Ba1 O5 3.225145 1_545
Ba1 O6 3.472677 1_555
Ba2 O13 2.720111 1_566
Ba2 O7 2.763157 1_556
Ba2 O1 2.793561 1_555
Ba2 O12 2.815514 1_565
Ba2 O8 2.927225 1_565
Ba2 O2 2.947431 1_555
Ba2 O11 3.172735 1_566
Ba3 O6 2.685124 1_555
Ba3 O5 2.859324 1_544
Ba3 O10 2.864545 1_555
Ba3 O11 2.974377 1_555
Ba3 O3 3.003624 1_545
Ba3 O14 3.067573 1_554
Ba3 O8 3.163945 1_555
Ba3 O8 3.168367 1_554
Ba3 O4 3.337143 1_545
Ba3 O12 3.349204 1_555
Ba4 O16 2.491667 1_555
Ba4 O6 2.491667 1_555
Ba4 O2 2.551287 1_554
Ba4 O10 2.575589 1_555
Ba4 O14 2.774344 1_554
Ba4 O0 3.255262 1_555
Ba4 O7 3.255262 1_555
Ba5 O9 2.507814 1_555
Ba5 O13 2.512318 1_555
Ba5 O11 2.555483 1_555
Ba5 O12 2.595240 1_555
Ba5 O7 2.826194 1_545
Ba5 O0 2.826194 1_455
Ba6 O9 2.652791 1_565
Ba6 O4 2.836684 1_455
Ba6 O16 2.837537 1_556
Ba6 O7 2.844356 1_555
Ba6 O14 2.856609 1_555
Ba6 O15 2.906871 1_555
Ba6 O10 3.155333 1_555
Ba6 O5 3.225145 1_455
Ba6 O16 3.472677 1_555
Ba7 O16 2.685124 1_555
Ba7 O5 2.859324 1_454
Ba7 O10 2.864545 1_555
Ba7 O11 2.974377 1_555
Ba7 O3 3.003624 1_455
Ba7 O14 3.067573 1_554
Ba7 O15 3.163945 1_555
Ba7 O15 3.168367 1_554
Ba7 O4 3.337143 1_455
Ba7 O12 3.349204 1_555
Bi0 O5 2.185183 1_555
Bi0 O15 2.264595 1_655
Bi0 O8 2.264595 1_565
Bi0 O1 2.333396 1_555
Bi0 O4 2.417371 1_555
Bi0 O3 2.478579 1_555
Bi1 O3 2.075962 1_555
Bi1 O7 2.077908 1_555
Bi1 O0 2.077908 1_555
Bi1 O2 2.093886 1_555
Bi1 O1 2.170095 1_554
Bi2 O11 2.105849 1_556
Bi2 O10 2.112577 1_555
Bi2 O14 2.123726 1_555
Bi2 O12 2.132006 1_555
Bi2 O8 2.151024 1_555
Bi2 O15 2.151024 1_555
Bi3 O6 2.071164 1_565
Bi3 O16 2.071164 1_655
Bi3 O13 2.084169 1_665
Bi3 O9 2.112359 1_664
Bi3 O4 2.201616 1_555
Bi3 O5 2.268541 1_554
