# generated using pymatgen
data_Na6Mg3TiP4(SO12)2
_symmetry_space_group_name_H-M   'P 1'
_cell_length_a   8.89666690
_cell_length_b   8.90481993
_cell_length_c   22.00946038
_cell_angle_alpha   90.23598889
_cell_angle_beta   89.82713054
_cell_angle_gamma   119.95455627
_symmetry_Int_Tables_number   1
_chemical_formula_structural   Na6Mg3TiP4(SO12)2
_chemical_formula_sum   'Na18 Mg9 Ti3 P12 S6 O72'
_cell_volume   1510.73133970
_cell_formula_units_Z   3
loop_
 _symmetry_equiv_pos_site_id
 _symmetry_equiv_pos_as_xyz
  1  'x, y, z'
loop_
 _atom_site_type_symbol
 _atom_site_label
 _atom_site_symmetry_multiplicity
 _atom_site_fract_x
 _atom_site_fract_y
 _atom_site_fract_z
 _atom_site_occupancy
  Na  Na0  1  0.36420277  0.36434268  0.25260655  1
  Na  Na1  1  0.63887104  0.63733318  0.74616520  1
  Na  Na2  1  0.99692564  0.35201120  0.74932314  1
  Na  Na3  1  0.29794659  0.33974474  0.58382008  1
  Na  Na4  1  0.02958432  0.69419958  0.58059495  1
  Na  Na5  1  0.67077368  0.96216022  0.58190297  1
  Na  Na6  1  0.29345750  0.96361642  0.08010117  1
  Na  Na7  1  0.66280323  0.69370744  0.08232673  1
  Na  Na8  1  0.04136374  0.34039018  0.08208853  1
  Na  Na9  1  0.32290607  0.29620318  0.91259620  1
  Na  Na10  1  0.97962576  0.30537515  0.41453529  1
  Na  Na11  1  0.69313564  0.67496411  0.41459364  1
  Na  Na12  1  0.00611034  0.00076226  0.49509525  1
  Na  Na13  1  0.99416379  0.98969161  0.99257536  1
  Na  Na14  1  0.65762265  0.31096389  0.83027444  1
  Na  Na15  1  0.66371026  0.31809189  0.33080439  1
  Na  Na16  1  0.32635792  0.67117515  0.17015287  1
  Na  Na17  1  0.33736074  0.66983779  0.66666407  1
  Mg  Mg0  1  0.00448981  0.99803029  0.35238637  1
  Mg  Mg1  1  0.99780788  0.00291462  0.85163471  1
  Mg  Mg2  1  0.99305914  0.00466196  0.65199508  1
  Mg  Mg3  1  0.00304763  0.99622122  0.15004445  1
  Mg  Mg4  1  0.65985365  0.32734662  0.68549734  1
  Mg  Mg5  1  0.67248898  0.33826740  0.18441379  1
  Mg  Mg6  1  0.33049308  0.66539788  0.01502320  1
  Mg  Mg7  1  0.33328134  0.66462979  0.51332582  1
  Mg  Mg8  1  0.33389577  0.67534547  0.32053709  1
  Ti  Ti0  1  0.67159473  0.34547929  0.97593767  1
  Ti  Ti1  1  0.67246462  0.33800739  0.47795590  1
  Ti  Ti2  1  0.33997121  0.67346608  0.81944815  1
  P  P0  1  0.29723018  0.29787445  0.75183202  1
  P  P1  1  0.70092438  0.99814843  0.75051606  1
  P  P2  1  0.96006605  0.33577316  0.58438263  1
  P  P3  1  0.66690597  0.62576654  0.58449949  1
  P  P4  1  0.95796283  0.62295777  0.08356864  1
  P  P5  1  0.37545584  0.33435337  0.08400746  1
  P  P6  1  0.63112259  0.67285247  0.91918595  1
  P  P7  1  0.03798062  0.37397945  0.91815681  1
  P  P8  1  0.33475525  0.96126184  0.92033578  1
  P  P9  1  0.62715108  0.96334742  0.41848868  1
  P  P10  1  0.33465539  0.36851838  0.41683392  1
  P  P11  1  0.04124849  0.67004922  0.41888384  1
  S  S0  1  0.29639452  0.99774118  0.24856023  1
  S  S1  1  0.70276952  0.70456704  0.24970290  1
  S  S2  1  0.99883396  0.29528242  0.24974108  1
  S  S3  1  0.00572471  0.70933038  0.74979919  1
  S  S4  1  0.37556513  0.04178396  0.58320256  1
  S  S5  1  0.66659806  0.04444047  0.08330915  1
  O  O0  1  0.20738286  0.02490320  0.30065381  1
  O  O1  1  0.80553073  0.79109026  0.30436133  1
  O  O2  1  0.98167189  0.19197888  0.30453288  1
  O  O3  1  0.21160312  0.19113472  0.80833795  1
  O  O4  1  0.98054271  0.79494083  0.80240020  1
  O  O5  1  0.82120967  0.02507971  0.80331577  1
  O  O6  1  0.76557721  0.95288343  0.69124976  1
  O  O7  1  0.18567044  0.22167427  0.69383356  1
  O  O8  1  0.02923249  0.80709442  0.69280461  1
  O  O9  1  0.78673004  0.80488937  0.19369632  1
  O  O10  1  0.02211151  0.21081163  0.19415267  1
  O  O11  1  0.19837336  0.97811571  0.19109846  1
  O  O12  1  0.87460594  0.35937525  0.64112405  1
  O  O13  1  0.48142700  0.12108679  0.63753142  1
  O  O14  1  0.63941935  0.51521033  0.64089068  1
  O  O15  1  0.87469385  0.50616105  0.13798322  1
  O  O16  1  0.63859952  0.12346423  0.13787721  1
  O  O17  1  0.48454225  0.35874282  0.14076118  1
  O  O18  1  0.47017109  0.30994925  0.02665238  1
  O  O19  1  0.83641590  0.52514886  0.02658420  1
  O  O20  1  0.69375119  0.15381721  0.02877911  1
  O  O21  1  0.45964146  0.15151142  0.52878941  1
  O  O22  1  0.68574501  0.52715349  0.52750377  1
  O  O23  1  0.84158433  0.31330758  0.52757522  1
  O  O24  1  0.54720495  0.69070174  0.97685282  1
  O  O25  1  0.14687804  0.45514572  0.97503567  1
  O  O26  1  0.31409773  0.86126325  0.97839167  1
  O  O27  1  0.55206023  0.85634258  0.47655931  1
  O  O28  1  0.30542095  0.45096202  0.47379524  1
  O  O29  1  0.14004948  0.69341032  0.47788883  1
  O  O30  1  0.11782823  0.62424315  0.36474080  1
  O  O31  1  0.51438015  0.88208785  0.36299010  1
  O  O32  1  0.37659381  0.48459771  0.36015542  1
  O  O33  1  0.12980192  0.49220722  0.86117212  1
  O  O34  1  0.35902924  0.86062710  0.86516599  1
  O  O35  1  0.50578224  0.63773525  0.86300092  1
  O  O36  1  0.00151243  0.81746189  0.41068988  1
  O  O37  1  0.81363520  0.99190769  0.41124678  1
  O  O38  1  0.17379084  0.18897409  0.40925571  1
  O  O39  1  0.01953481  0.19533282  0.91022427  1
  O  O40  1  0.18174834  0.99047646  0.91054397  1
  O  O41  1  0.81101156  0.82233853  0.90929567  1
  O  O42  1  0.97609934  0.16985477  0.58521030  1
  O  O43  1  0.20014502  0.02439170  0.58785487  1
  O  O44  1  0.83641363  0.80439786  0.58571620  1
  O  O45  1  0.96666463  0.80130633  0.08601765  1
  O  O46  1  0.82454764  0.02635477  0.08827591  1
  O  O47  1  0.19272064  0.16905862  0.08606296  1
  O  O48  1  0.68422454  0.16106288  0.74428356  1
  O  O49  1  0.48514343  0.33393916  0.74630205  1
  O  O50  1  0.84978845  0.53136456  0.74582326  1
  O  O51  1  0.68119810  0.52646866  0.24665920  1
  O  O52  1  0.84331963  0.31383807  0.24513835  1
  O  O53  1  0.47078846  0.15947693  0.24479129  1
  O  O54  1  0.63356015  0.49406736  0.92183805  1
  O  O55  1  0.85434616  0.35885639  0.92348272  1
  O  O56  1  0.50419266  0.14646744  0.92267088  1
  O  O57  1  0.65323878  0.15290620  0.42646192  1
  O  O58  1  0.50291468  0.35232381  0.42608148  1
  O  O59  1  0.85024958  0.49754651  0.42533372  1
  O  O60  1  0.35662753  0.49738602  0.07816143  1
  O  O61  1  0.14219951  0.64971254  0.07666021  1
  O  O62  1  0.51222045  0.86782222  0.07770024  1
  O  O63  1  0.35513679  0.86609713  0.57714121  1
  O  O64  1  0.50664034  0.64905825  0.57803829  1
  O  O65  1  0.14174048  0.49855045  0.57800223  1
  O  O66  1  0.31449611  0.84303678  0.25466671  1
  O  O67  1  0.52477367  0.68201440  0.25291797  1
  O  O68  1  0.16059266  0.46867151  0.25371023  1
  O  O69  1  0.31254018  0.48596570  0.75883080  1
  O  O70  1  0.16081753  0.68498423  0.75595761  1
  O  O71  1  0.51535305  0.83001104  0.76128655  1
loop_
_geom_bond_atom_site_label_1
_geom_bond_atom_site_label_2
_geom_bond_distance
_geom_bond_site_symmetry_2
Na0 O68 2.413539 1_555
Na0 O53 2.445562 1_555
Na0 O51 2.447109 1_555
Na0 O67 2.450984 1_555
Na0 O32 2.573870 1_555
Na0 O17 2.691629 1_555
Na0 O0 2.829718 1_555
Na0 O10 2.939553 1_555
Na1 O49 2.340870 1_555
Na1 O71 2.477524 1_555
Na1 O50 2.485904 1_555
Na1 O69 2.532535 1_555
Na1 O14 2.556515 1_555
Na1 O6 2.735655 1_555
Na1 O35 2.828486 1_555
Na1 O4 2.913713 1_555
Na2 O48 2.432992 1_555
Na2 O69 2.451072 1_655
Na2 O50 2.521838 1_555
Na2 O70 2.572797 1_655
Na2 O12 2.635874 1_555
Na2 O33 2.744929 1_655
Na2 O7 2.753275 1_655
Na2 O5 2.793547 1_555
Na3 O65 2.431582 1_555
Na3 O64 2.438145 1_555
Na3 O42 2.482435 1_455
Na3 O43 2.492446 1_555
Na3 O28 2.608133 1_555
Na3 O7 2.631287 1_555
Na3 O14 2.918045 1_555
Na3 O21 2.954101 1_555
Na4 O44 2.368793 1_455
Na4 O65 2.401893 1_555
Na4 O29 2.463562 1_555
Na4 O63 2.511945 1_555
Na4 O43 2.552551 1_565
Na4 O8 2.663191 1_555
Na4 O22 2.898085 1_455
Na4 O12 2.912361 1_455
Na5 O42 2.405763 1_565
Na5 O64 2.417892 1_555
Na5 O44 2.494268 1_555
Na5 O63 2.496089 1_555
Na5 O27 2.526266 1_555
Na5 O6 2.567821 1_555
Na6 O47 2.408706 1_565
Na6 O61 2.423339 1_555
Na6 O26 2.454279 1_554
Na6 O62 2.485021 1_555
Na6 O45 2.522232 1_455
Na6 O11 2.606622 1_555
Na7 O45 2.376299 1_555
Na7 O60 2.393577 1_555
Na7 O62 2.507080 1_555
Na7 O24 2.536497 1_554
Na7 O46 2.569733 1_565
Na7 O9 2.666523 1_555
Na7 O17 2.891648 1_555
Na7 O19 2.903867 1_555
Na8 O60 2.431579 1_555
Na8 O61 2.437323 1_555
Na8 O46 2.484792 1_455
Na8 O47 2.490385 1_555
Na8 O25 2.554515 1_554
Na8 O10 2.695881 1_555
Na8 O15 2.837441 1_455
Na8 O20 2.928465 1_455
Na9 O40 2.361343 1_545
Na9 O39 2.381928 1_555
Na9 O54 2.433481 1_555
Na9 O3 2.488424 1_555
Na9 O56 2.565244 1_555
Na9 O18 2.808980 1_556
Na9 O35 2.857149 1_555
Na9 O25 2.920419 1_555
Na10 O38 2.420278 1_655
Na10 O37 2.420800 1_545
Na10 O59 2.504332 1_555
Na10 O57 2.530885 1_555
Na10 O2 2.622903 1_555
Na10 O30 2.703052 1_655
Na10 O23 2.787449 1_555
Na10 O28 2.835399 1_655
Na11 O36 2.380634 1_655
Na11 O37 2.469810 1_555
Na11 O58 2.516004 1_555
Na11 O59 2.591535 1_555
Na11 O1 2.632272 1_555
Na11 O32 2.734280 1_555
Na11 O22 2.802140 1_555
Na11 O27 2.835473 1_555
Na12 O36 2.454761 1_545
Na12 O38 2.473068 1_555
Na12 O37 2.495445 1_445
Na12 O42 2.577989 1_455
Na12 O44 2.586358 1_445
Na12 O43 2.616741 1_555
Na13 O41 2.409602 1_555
Na13 O40 2.452587 1_655
Na13 O39 2.510281 1_665
Na13 O45 2.592139 1_556
Na13 O47 2.661325 1_666
Na13 O46 2.699526 1_566
Na14 O48 2.389930 1_555
Na14 O49 2.479123 1_555
Na14 O56 2.481027 1_555
Na14 O55 2.592798 1_555
Na14 O50 2.624829 1_555
Na14 O54 2.661685 1_555
Na15 O53 2.470095 1_555
Na15 O52 2.480211 1_555
Na15 O57 2.548026 1_555
Na15 O51 2.575935 1_555
Na15 O58 2.636073 1_555
Na15 O59 2.642263 1_555
Na16 O66 2.439239 1_555
Na16 O68 2.482741 1_555
Na16 O67 2.508281 1_555
Na16 O61 2.580600 1_555
Na16 O60 2.637022 1_555
Na16 O62 2.656810 1_555
Na17 O64 2.522855 1_555
Na17 O69 2.551125 1_555
Na17 O65 2.551156 1_555
Na17 O70 2.557005 1_555
Na17 O71 2.572753 1_555
Na17 O63 2.590765 1_555
Mg0 O38 2.040282 1_565
Mg0 O0 2.042170 1_565
Mg0 O36 2.051115 1_555
Mg0 O1 2.093823 1_455
Mg0 O37 2.111686 1_455
Mg0 O2 2.121248 1_465
Mg1 O5 1.989947 1_555
Mg1 O3 2.038076 1_655
Mg1 O39 2.070918 1_655
Mg1 O41 2.072079 1_545
Mg1 O4 2.080390 1_545
Mg1 O40 2.136895 1_645
Mg2 O6 2.028745 1_545
Mg2 O7 2.051028 1_655
Mg2 O8 2.141411 1_645
Mg2 O42 2.141971 1_555
Mg2 O44 2.181598 1_545
Mg2 O43 2.254149 1_655
Mg3 O11 2.037811 1_555
Mg3 O9 2.063378 1_455
Mg3 O10 2.069969 1_565
Mg3 O45 2.127147 1_455
Mg3 O47 2.146919 1_565
Mg3 O46 2.209913 1_465
Mg4 O13 2.022474 1_555
Mg4 O14 2.028252 1_555
Mg4 O12 2.032815 1_555
Mg4 O48 2.061966 1_555
Mg4 O49 2.070828 1_555
Mg4 O50 2.201547 1_555
Mg5 O15 1.957391 1_555
Mg5 O17 2.016887 1_555
Mg5 O16 2.051470 1_555
Mg5 O52 2.118555 1_555
Mg5 O51 2.131563 1_555
Mg5 O53 2.161200 1_555
Mg6 O25 1.972134 1_554
Mg6 O26 1.994918 1_554
Mg6 O24 2.007920 1_554
Mg6 O61 2.102451 1_555
Mg6 O60 2.142423 1_555
Mg6 O62 2.201997 1_555
Mg7 O28 1.988791 1_555
Mg7 O27 2.010307 1_555
Mg7 O29 2.019676 1_555
Mg7 O65 2.145546 1_555
Mg7 O64 2.157547 1_555
Mg7 O63 2.204910 1_555
Mg8 O31 1.970652 1_555
Mg8 O30 1.991881 1_555
Mg8 O32 2.109112 1_555
Mg8 O66 2.153641 1_555
Mg8 O67 2.233164 1_555
Mg8 O68 2.255063 1_555
O0 S0 1.477740 1_545
O1 S1 1.473853 1_555
O2 S2 1.480398 1_555
O3 P0 1.520333 1_555
O4 S3 1.460617 1_655
O5 P1 1.517264 1_545
O6 P1 1.554831 1_555
O7 P0 1.550149 1_555
O8 S3 1.483507 1_555
O9 S1 1.487499 1_555
O10 S2 1.500673 1_455
O11 S0 1.497714 1_555
O12 P2 1.527596 1_555
O13 S4 1.466692 1_555
O14 P3 1.528808 1_555
O15 P4 1.516683 1_555
O16 S5 1.471714 1_555
O17 P5 1.530993 1_555
O18 P5 1.589029 1_555
O18 Ti0 1.995475 1_554
O19 P4 1.599872 1_555
O19 Ti0 1.898648 1_554
O20 S5 1.490079 1_555
O20 Ti0 2.158247 1_554
O21 S4 1.490924 1_555
O21 Ti1 2.111201 1_555
O22 P3 1.584131 1_555
O22 Ti1 1.956277 1_555
O23 P2 1.584201 1_555
O23 Ti1 1.961440 1_555
O24 P6 1.518121 1_555
O25 P7 1.526038 1_555
O26 P8 1.517880 1_555
O27 P9 1.535246 1_555
O28 P10 1.536060 1_555
O29 P11 1.524635 1_555
O30 P11 1.522899 1_555
O31 P9 1.515705 1_555
O32 P10 1.544834 1_555
O33 P7 1.579424 1_555
O33 Ti2 1.983109 1_555
O34 P8 1.583297 1_555
O34 Ti2 1.877213 1_555
O35 P6 1.589765 1_555
O35 Ti2 1.917283 1_555
O36 P11 1.531794 1_555
O37 P9 1.555644 1_555
O38 P10 1.531817 1_555
O39 P7 1.524890 1_555
O40 P8 1.524141 1_555
O41 P6 1.501161 1_555
O42 P2 1.553803 1_555
O43 S4 1.492617 1_555
O44 P3 1.552277 1_555
O45 P4 1.551675 1_555
O46 S5 1.496535 1_555
O47 P5 1.556293 1_555
O48 P1 1.537041 1_545
O49 P0 1.541365 1_555
O50 S3 1.499267 1_655
O51 S1 1.500588 1_555
O52 S2 1.476849 1_555
O53 S0 1.502363 1_545
O54 P6 1.604291 1_555
O54 Ti0 1.935336 1_555
O55 P7 1.574875 1_655
O55 Ti0 1.946009 1_555
O56 P8 1.584934 1_545
O56 Ti0 2.022580 1_555
O57 P9 1.593906 1_545
O57 Ti1 1.932577 1_555
O58 P10 1.587681 1_555
O58 Ti1 1.949047 1_555
O59 P11 1.631236 1_655
O59 Ti1 1.902622 1_555
O60 P5 1.548157 1_555
O61 P4 1.541210 1_455
O62 S5 1.489110 1_565
O63 S4 1.487565 1_565
O64 P3 1.546939 1_555
O65 P2 1.547221 1_455
O66 S0 1.471404 1_555
O67 S1 1.494954 1_555
O68 S2 1.497772 1_455
O69 P0 1.617965 1_555
O69 Ti2 2.050363 1_555
O70 S3 1.506435 1_555
O70 Ti2 2.163683 1_555
O71 P1 1.598646 1_555
O71 Ti2 1.961390 1_555
