# generated using pymatgen
data_Na2Al2Si(SO6)2
_symmetry_space_group_name_H-M   'P 1'
_cell_length_a   8.52052141
_cell_length_b   8.52052115
_cell_length_c   21.74798169
_cell_angle_alpha   90.00701975
_cell_angle_beta   89.99298024
_cell_angle_gamma   119.82759059
_symmetry_Int_Tables_number   1
_chemical_formula_structural   Na2Al2Si(SO6)2
_chemical_formula_sum   'Na12 Al12 Si6 S12 O72'
_cell_volume   1369.72632649
_cell_formula_units_Z   6
loop_
 _symmetry_equiv_pos_site_id
 _symmetry_equiv_pos_as_xyz
  1  'x, y, z'
loop_
 _atom_site_type_symbol
 _atom_site_label
 _atom_site_symmetry_multiplicity
 _atom_site_fract_x
 _atom_site_fract_y
 _atom_site_fract_z
 _atom_site_occupancy
  Na  Na0  1  0.00035751  0.62676034  0.25024572  1
  Na  Na1  1  0.37323966  0.99964249  0.75024572  1
  Na  Na2  1  0.66231226  0.97033296  0.58798126  1
  Na  Na3  1  0.02966704  0.33768774  0.08798126  1
  Na  Na4  1  0.97751990  0.67322646  0.92070059  1
  Na  Na5  1  0.32677354  0.02248010  0.42070059  1
  Na  Na6  1  0.00718960  0.99393210  0.50037712  1
  Na  Na7  1  0.00606790  0.99281040  0.00037712  1
  Na  Na8  1  0.66267730  0.31935028  0.83391473  1
  Na  Na9  1  0.68064972  0.33732270  0.33391473  1
  Na  Na10  1  0.33399599  0.66506740  0.16683237  1
  Na  Na11  1  0.33493260  0.66600401  0.66683237  1
  Al  Al0  1  0.99009165  0.99645923  0.35279333  1
  Al  Al1  1  0.00354077  0.00990835  0.85279333  1
  Al  Al2  1  0.00400642  0.99890528  0.64832438  1
  Al  Al3  1  0.00109472  0.99599358  0.14832438  1
  Al  Al4  1  0.66692870  0.31761792  0.68575726  1
  Al  Al5  1  0.68238208  0.33307130  0.18575726  1
  Al  Al6  1  0.65962549  0.33181143  0.98177934  1
  Al  Al7  1  0.66818857  0.34037451  0.48177934  1
  Al  Al8  1  0.32239776  0.68060458  0.01916463  1
  Al  Al9  1  0.31939542  0.67760224  0.51916463  1
  Al  Al10  1  0.31203101  0.64415721  0.31425616  1
  Al  Al11  1  0.35584279  0.68796899  0.81425616  1
  Si  Si0  1  0.99935430  0.28059427  0.24946403  1
  Si  Si1  1  0.71940573  0.00064570  0.74946403  1
  Si  Si2  1  0.37090070  0.04573982  0.58223630  1
  Si  Si3  1  0.95426018  0.62909930  0.08223630  1
  Si  Si4  1  0.33811765  0.96778285  0.91566292  1
  Si  Si5  1  0.03221715  0.66188235  0.41566292  1
  S  S0  1  0.29591084  0.00725124  0.24980376  1
  S  S1  1  0.70537059  0.71200108  0.25027570  1
  S  S2  1  0.28799892  0.29462941  0.75027570  1
  S  S3  1  0.99274876  0.70408916  0.74980376  1
  S  S4  1  0.95880101  0.33755152  0.58307013  1
  S  S5  1  0.66540885  0.61689919  0.58398773  1
  S  S6  1  0.66244848  0.04119899  0.08307013  1
  S  S7  1  0.38310081  0.33459115  0.08398773  1
  S  S8  1  0.61679854  0.66611922  0.91760455  1
  S  S9  1  0.04908013  0.37720285  0.91618192  1
  S  S10  1  0.62279715  0.95091987  0.41618192  1
  S  S11  1  0.33388078  0.38320146  0.41760455  1
  O  O0  1  0.21556512  0.03449214  0.30652376  1
  O  O1  1  0.82593752  0.78671492  0.30488466  1
  O  O2  1  0.96877776  0.15697598  0.30932783  1
  O  O3  1  0.21328508  0.17406248  0.80488466  1
  O  O4  1  0.96550786  0.78443488  0.80652376  1
  O  O5  1  0.84302402  0.03122224  0.80932783  1
  O  O6  1  0.80682766  0.97049075  0.68673294  1
  O  O7  1  0.17755052  0.21221707  0.69497266  1
  O  O8  1  0.03746788  0.82729067  0.69609493  1
  O  O9  1  0.78778293  0.82244948  0.19497266  1
  O  O10  1  0.02950925  0.19317234  0.18673294  1
  O  O11  1  0.17270933  0.96253212  0.19609493  1
  O  O12  1  0.88110993  0.37399321  0.63847322  1
  O  O13  1  0.50240476  0.13339538  0.64224719  1
  O  O14  1  0.63950552  0.50815922  0.63942395  1
  O  O15  1  0.86660462  0.49759524  0.14224719  1
  O  O16  1  0.62600679  0.11889007  0.13847322  1
  O  O17  1  0.49184078  0.36049448  0.13942395  1
  O  O18  1  0.46104191  0.30106399  0.02820408  1
  O  O19  1  0.83283128  0.53100449  0.02075336  1
  O  O20  1  0.69911039  0.15896033  0.02858733  1
  O  O21  1  0.46899551  0.16716872  0.52075336  1
  O  O22  1  0.69893601  0.53895809  0.52820408  1
  O  O23  1  0.84103967  0.30088961  0.52858733  1
  O  O24  1  0.53237810  0.69268318  0.97308739  1
  O  O25  1  0.15879956  0.45472943  0.97323656  1
  O  O26  1  0.28981353  0.82979805  0.97339308  1
  O  O27  1  0.54527057  0.84120044  0.47323656  1
  O  O28  1  0.30731682  0.46762190  0.47308739  1
  O  O29  1  0.17020195  0.71018647  0.47339308  1
  O  O30  1  0.12799533  0.63647594  0.35429278  1
  O  O31  1  0.50552085  0.86670409  0.36170205  1
  O  O32  1  0.36860486  0.49537307  0.36173857  1
  O  O33  1  0.13329591  0.49447915  0.86170205  1
  O  O34  1  0.36352406  0.87200467  0.85429278  1
  O  O35  1  0.50462693  0.63139514  0.86173857  1
  O  O36  1  0.02304797  0.85058995  0.40589085  1
  O  O37  1  0.80429250  0.97182028  0.41057599  1
  O  O38  1  0.17230212  0.20033083  0.41120351  1
  O  O39  1  0.02817972  0.19570750  0.91057599  1
  O  O40  1  0.14941005  0.97695203  0.90589085  1
  O  O41  1  0.79966917  0.82769788  0.91120351  1
  O  O42  1  0.97285950  0.17139398  0.58952819  1
  O  O43  1  0.17131649  0.02197048  0.59282330  1
  O  O44  1  0.82533744  0.80231658  0.58878950  1
  O  O45  1  0.97802952  0.82868351  0.09282330  1
  O  O46  1  0.82860602  0.02714050  0.08952819  1
  O  O47  1  0.19768342  0.17466256  0.08878950  1
  O  O48  1  0.68995103  0.17867275  0.74404586  1
  O  O49  1  0.47244299  0.31665355  0.74295722  1
  O  O50  1  0.82920620  0.52786921  0.74042820  1
  O  O51  1  0.68334645  0.52755701  0.24295722  1
  O  O52  1  0.82132725  0.31004897  0.24404586  1
  O  O53  1  0.47213079  0.17079380  0.24042820  1
  O  O54  1  0.64188399  0.50547791  0.92230706  1
  O  O55  1  0.86797560  0.36261691  0.92228909  1
  O  O56  1  0.51643710  0.16400901  0.92651639  1
  O  O57  1  0.63738309  0.13202440  0.42228909  1
  O  O58  1  0.49452209  0.35811601  0.42230706  1
  O  O59  1  0.83599099  0.48356290  0.42651639  1
  O  O60  1  0.36382138  0.49891007  0.07598169  1
  O  O61  1  0.15222721  0.63619724  0.07651436  1
  O  O62  1  0.50436858  0.85744099  0.07564664  1
  O  O63  1  0.36380276  0.84777279  0.57651436  1
  O  O64  1  0.50108993  0.63617862  0.57598169  1
  O  O65  1  0.14255901  0.49563142  0.57564664  1
  O  O66  1  0.31864574  0.84463856  0.25631082  1
  O  O67  1  0.52762098  0.69888896  0.25959435  1
  O  O68  1  0.17824598  0.48711504  0.25450674  1
  O  O69  1  0.30111104  0.47237902  0.75959435  1
  O  O70  1  0.15536144  0.68135426  0.75631082  1
  O  O71  1  0.51288496  0.82175402  0.75450674  1
loop_
_geom_bond_atom_site_label_1
_geom_bond_atom_site_label_2
_geom_bond_distance
_geom_bond_site_symmetry_2
Na0 O68 2.348574 1_555
Na0 O52 2.352075 1_455
Na0 O51 2.400911 1_455
Na0 O66 2.410450 1_555
Na0 O30 2.494177 1_555
Na0 O15 2.603644 1_455
Na0 O1 2.737193 1_455
Na0 O11 2.747627 1_555
Na1 O71 2.348574 1_555
Na1 O48 2.352076 1_565
Na1 O49 2.400911 1_565
Na1 O70 2.410450 1_555
Na1 O34 2.494177 1_555
Na1 O13 2.603644 1_565
Na1 O3 2.737193 1_565
Na1 O8 2.747627 1_555
Na2 O63 2.231536 1_555
Na2 O42 2.329823 1_565
Na2 O44 2.440786 1_555
Na2 O6 2.475402 1_555
Na2 O64 2.484085 1_555
Na2 O13 2.657428 1_565
Na2 O27 2.709406 1_555
Na2 O23 2.766580 1_565
Na3 O61 2.231536 1_555
Na3 O46 2.329822 1_455
Na3 O47 2.440786 1_555
Na3 O10 2.475402 1_555
Na3 O60 2.484085 1_555
Na3 O15 2.657428 1_455
Na3 O25 2.709406 1_554
Na3 O20 2.766580 1_455
Na4 O40 2.275003 1_655
Na4 O55 2.327941 1_555
Na4 O41 2.460815 1_555
Na4 O54 2.481198 1_555
Na4 O19 2.497380 1_556
Na4 O26 2.577291 1_655
Na4 O4 2.677930 1_555
Na4 O33 2.781671 1_655
Na5 O36 2.275003 1_545
Na5 O57 2.327941 1_555
Na5 O38 2.460815 1_555
Na5 O58 2.481198 1_555
Na5 O21 2.497380 1_555
Na5 O29 2.577290 1_545
Na5 O0 2.677930 1_555
Na5 O31 2.781671 1_545
Na6 O43 2.392307 1_565
Na6 O36 2.428167 1_555
Na6 O44 2.499411 1_455
Na6 O38 2.524282 1_565
Na6 O37 2.552472 1_455
Na6 O42 2.563241 1_465
Na7 O45 2.392307 1_455
Na7 O40 2.428167 1_554
Na7 O47 2.499411 1_565
Na7 O41 2.524282 1_454
Na7 O39 2.552472 1_564
Na7 O46 2.563241 1_465
Na8 O48 2.363706 1_555
Na8 O56 2.391588 1_555
Na8 O55 2.499774 1_555
Na8 O49 2.550412 1_555
Na8 O54 2.553548 1_555
Na8 O50 2.606909 1_555
Na9 O52 2.363706 1_555
Na9 O59 2.391588 1_555
Na9 O57 2.499774 1_555
Na9 O51 2.550412 1_555
Na9 O58 2.553548 1_555
Na9 O53 2.606909 1_555
Na10 O68 2.386252 1_555
Na10 O61 2.437014 1_555
Na10 O60 2.515925 1_555
Na10 O66 2.518577 1_555
Na10 O62 2.521866 1_555
Na10 O67 2.530298 1_555
Na11 O71 2.386252 1_555
Na11 O63 2.437014 1_555
Na11 O64 2.515925 1_555
Na11 O70 2.518577 1_555
Na11 O65 2.521866 1_555
Na11 O69 2.530298 1_555
Al0 O2 1.744866 1_565
Al0 O36 1.817885 1_655
Al0 O1 1.936246 1_555
Al0 O37 1.948959 1_555
Al0 O0 2.046632 1_665
Al0 O38 2.087733 1_665
Al1 O5 1.744866 1_455
Al1 O40 1.817885 1_545
Al1 O3 1.936246 1_555
Al1 O39 1.948959 1_555
Al1 O4 2.046632 1_445
Al1 O41 2.087733 1_445
Al2 O6 1.781586 1_455
Al2 O43 1.802427 1_565
Al2 O8 1.927164 1_555
Al2 O7 1.961001 1_565
Al2 O42 2.062534 1_465
Al2 O44 2.064698 1_455
Al3 O10 1.781586 1_565
Al3 O45 1.802427 1_455
Al3 O11 1.927164 1_555
Al3 O9 1.961001 1_455
Al3 O46 2.062534 1_465
Al3 O47 2.064698 1_565
Al4 O13 1.770713 1_555
Al4 O48 1.810656 1_555
Al4 O12 1.935516 1_555
Al4 O50 2.017570 1_555
Al4 O14 2.020788 1_555
Al4 O49 2.068710 1_555
Al5 O15 1.770713 1_555
Al5 O52 1.810656 1_555
Al5 O16 1.935516 1_555
Al5 O53 2.017570 1_555
Al5 O17 2.020788 1_555
Al5 O51 2.068710 1_555
Al6 O56 1.800515 1_555
Al6 O19 1.812529 1_556
Al6 O18 1.873412 1_556
Al6 O20 1.952412 1_556
Al6 O54 2.026912 1_555
Al6 O55 2.104827 1_555
Al7 O59 1.800515 1_555
Al7 O21 1.812529 1_555
Al7 O22 1.873412 1_555
Al7 O23 1.952412 1_555
Al7 O58 2.026912 1_555
Al7 O57 2.104827 1_555
Al8 O26 1.742243 1_554
Al8 O61 1.804168 1_555
Al8 O62 1.964480 1_555
Al8 O25 1.993957 1_554
Al8 O24 2.008037 1_554
Al8 O60 2.142959 1_555
Al9 O29 1.742243 1_555
Al9 O63 1.804168 1_555
Al9 O65 1.964480 1_555
Al9 O27 1.993957 1_555
Al9 O28 2.008037 1_555
Al9 O64 2.142959 1_555
Al10 O30 1.766038 1_555
Al10 O68 1.805819 1_555
Al10 O32 1.874613 1_555
Al10 O67 2.037757 1_555
Al10 O31 2.066017 1_555
Al10 O66 2.100945 1_555
Al11 O34 1.766038 1_555
Al11 O71 1.805819 1_555
Al11 O35 1.874613 1_555
Al11 O69 2.037757 1_555
Al11 O33 2.066017 1_555
Al11 O70 2.100945 1_555
O0 S0 1.483900 1_555
O1 S1 1.490174 1_555
O2 Si0 1.612315 1_555
O3 S2 1.490174 1_555
O4 S3 1.483900 1_555
O5 Si1 1.612315 1_555
O6 Si1 1.634675 1_565
O7 S2 1.472400 1_555
O8 S3 1.487883 1_455
O9 S1 1.472400 1_555
O10 Si0 1.634675 1_455
O11 S0 1.487883 1_565
O12 S4 1.480066 1_555
O13 Si2 1.638369 1_555
O14 S5 1.468833 1_555
O15 Si3 1.638369 1_555
O16 S6 1.480066 1_555
O17 S7 1.468833 1_555
O18 S7 1.477459 1_555
O19 Si3 1.642191 1_555
O20 S6 1.482138 1_555
O21 Si2 1.642191 1_555
O22 S5 1.477459 1_555
O23 S4 1.482138 1_555
O24 S8 1.478610 1_555
O25 S9 1.495236 1_555
O26 Si4 1.626916 1_555
O27 S10 1.495236 1_555
O28 S11 1.478610 1_555
O29 Si5 1.626916 1_555
O30 Si5 1.633895 1_555
O31 S10 1.484593 1_555
O32 S11 1.481913 1_555
O33 S9 1.484593 1_555
O34 Si4 1.633895 1_555
O35 S8 1.481913 1_555
O36 Si5 1.661813 1_555
O37 S10 1.471068 1_555
O38 S11 1.486149 1_555
O39 S9 1.471068 1_555
O40 Si4 1.661813 1_555
O41 S8 1.486149 1_555
O42 S4 1.485656 1_555
O43 Si2 1.625805 1_555
O44 S5 1.490678 1_555
O45 Si3 1.625805 1_555
O46 S6 1.485656 1_555
O47 S7 1.490678 1_555
O48 Si1 1.660290 1_555
O49 S2 1.495633 1_555
O50 S3 1.468477 1_555
O51 S1 1.495633 1_555
O52 Si0 1.660290 1_555
O53 S0 1.468477 1_555
O54 S8 1.490197 1_555
O55 S9 1.491119 1_655
O56 Si4 1.622515 1_545
O57 S10 1.491119 1_545
O58 S11 1.490197 1_555
O59 Si5 1.622515 1_655
O60 S7 1.498797 1_555
O61 Si3 1.662181 1_455
O62 S6 1.481156 1_565
O63 Si2 1.662181 1_565
O64 S5 1.498797 1_555
O65 S4 1.481156 1_455
O66 S0 1.498112 1_565
O67 S1 1.476120 1_555
O68 Si0 1.662408 1_455
O69 S2 1.476120 1_555
O70 S3 1.498112 1_455
O71 Si1 1.662408 1_565
