# generated using pymatgen
data_LiSn(PO3)4
_symmetry_space_group_name_H-M   'P 1'
_cell_length_a   9.55785200
_cell_length_b   9.55785200
_cell_length_c   9.51758300
_cell_angle_alpha   90.00000000
_cell_angle_beta   90.00000000
_cell_angle_gamma   90.00000000
_symmetry_Int_Tables_number   1
_chemical_formula_structural   LiSn(PO3)4
_chemical_formula_sum   'Li4 Sn4 P16 O48'
_cell_volume   869.45533273
_cell_formula_units_Z   4
loop_
 _symmetry_equiv_pos_site_id
 _symmetry_equiv_pos_as_xyz
  1  'x, y, z'
loop_
 _atom_site_type_symbol
 _atom_site_label
 _atom_site_symmetry_multiplicity
 _atom_site_fract_x
 _atom_site_fract_y
 _atom_site_fract_z
 _atom_site_occupancy
  Li  Li0  1  0.25000000  0.75000000  0.25000000  1
  Li  Li1  1  0.75000000  0.25000000  0.25000000  1
  Li  Li2  1  0.25000000  0.25000000  0.75000000  1
  Li  Li3  1  0.75000000  0.75000000  0.75000000  1
  Sn  Sn0  1  0.00000000  0.50000000  0.25000000  1
  Sn  Sn1  1  0.50000000  0.00000000  0.75000000  1
  Sn  Sn2  1  0.50000000  0.00000000  0.25000000  1
  Sn  Sn3  1  0.00000000  0.50000000  0.75000000  1
  P  P0  1  0.00000000  0.22303900  0.00000000  1
  P  P1  1  0.72303900  0.50000000  0.50000000  1
  P  P2  1  0.78378300  0.00000000  0.50000000  1
  P  P3  1  0.00000000  0.78378300  0.50000000  1
  P  P4  1  0.00000000  0.77696100  0.00000000  1
  P  P5  1  0.71621700  0.50000000  0.00000000  1
  P  P6  1  0.27696100  0.50000000  0.50000000  1
  P  P7  1  0.50000000  0.72303900  0.50000000  1
  P  P8  1  0.21621700  0.00000000  0.50000000  1
  P  P9  1  0.22303900  0.00000000  0.00000000  1
  P  P10  1  0.50000000  0.27696100  0.50000000  1
  P  P11  1  0.50000000  0.28378300  0.00000000  1
  P  P12  1  0.50000000  0.71621700  0.00000000  1
  P  P13  1  0.77696100  0.00000000  0.00000000  1
  P  P14  1  0.00000000  0.21621700  0.50000000  1
  P  P15  1  0.28378300  0.50000000  0.00000000  1
  O  O0  1  0.79986800  0.56369100  0.37847800  1
  O  O1  1  0.20013200  0.56369100  0.62152200  1
  O  O2  1  0.38401500  0.61598500  0.43344400  1
  O  O3  1  0.61077600  0.38922400  0.92772300  1
  O  O4  1  0.79280800  0.57263400  0.88241100  1
  O  O5  1  0.06369100  0.70013200  0.87847800  1
  O  O6  1  0.57263400  0.79280800  0.88241100  1
  O  O7  1  0.43630900  0.20013200  0.37847800  1
  O  O8  1  0.56369100  0.20013200  0.62152200  1
  O  O9  1  0.11077600  0.88922400  0.57227700  1
  O  O10  1  0.07263400  0.70719200  0.38241100  1
  O  O11  1  0.20013200  0.43630900  0.37847800  1
  O  O12  1  0.43630900  0.79986800  0.62152200  1
  O  O13  1  0.79986800  0.43630900  0.62152200  1
  O  O14  1  0.56369100  0.79986800  0.37847800  1
  O  O15  1  0.29280800  0.92736600  0.38241100  1
  O  O16  1  0.93630900  0.29986800  0.87847800  1
  O  O17  1  0.11598500  0.88401500  0.06655600  1
  O  O18  1  0.11077600  0.11077600  0.42772300  1
  O  O19  1  0.38922400  0.38922400  0.07227700  1
  O  O20  1  0.92736600  0.70719200  0.61758900  1
  O  O21  1  0.20719200  0.42736600  0.88241100  1
  O  O22  1  0.29986800  0.93630900  0.87847800  1
  O  O23  1  0.79280800  0.42736600  0.11758900  1
  O  O24  1  0.29280800  0.07263400  0.61758900  1
  O  O25  1  0.38401500  0.38401500  0.56655600  1
  O  O26  1  0.93630900  0.70013200  0.12152200  1
  O  O27  1  0.06369100  0.29986800  0.12152200  1
  O  O28  1  0.38922400  0.61077600  0.92772300  1
  O  O29  1  0.42736600  0.79280800  0.11758900  1
  O  O30  1  0.88401500  0.88401500  0.93344400  1
  O  O31  1  0.57263400  0.20719200  0.11758900  1
  O  O32  1  0.61598500  0.38401500  0.43344400  1
  O  O33  1  0.70013200  0.06369100  0.87847800  1
  O  O34  1  0.07263400  0.29280800  0.61758900  1
  O  O35  1  0.88922400  0.88922400  0.42772300  1
  O  O36  1  0.20719200  0.57263400  0.11758900  1
  O  O37  1  0.92736600  0.29280800  0.38241100  1
  O  O38  1  0.70719200  0.92736600  0.61758900  1
  O  O39  1  0.61598500  0.61598500  0.56655600  1
  O  O40  1  0.88401500  0.11598500  0.06655600  1
  O  O41  1  0.61077600  0.61077600  0.07227700  1
  O  O42  1  0.29986800  0.06369100  0.12152200  1
  O  O43  1  0.11598500  0.11598500  0.93344400  1
  O  O44  1  0.70719200  0.07263400  0.38241100  1
  O  O45  1  0.88922400  0.11077600  0.57227700  1
  O  O46  1  0.70013200  0.93630900  0.12152200  1
  O  O47  1  0.42736600  0.20719200  0.88241100  1
loop_
_geom_bond_atom_site_label_1
_geom_bond_atom_site_label_2
_geom_bond_distance
_geom_bond_site_symmetry_2
Li0 O10 2.151610 1_555
Li0 O15 2.151610 1_555
Li0 O29 2.151610 1_555
Li0 O36 2.151610 1_555
Li0 O17 2.515891 1_555
Li0 O2 2.515891 1_555
Li1 O44 2.151610 1_555
Li1 O31 2.151610 1_555
Li1 O37 2.151610 1_555
Li1 O23 2.151610 1_555
Li1 O40 2.515891 1_555
Li1 O32 2.515891 1_555
Li2 O24 2.151610 1_555
Li2 O34 2.151610 1_555
Li2 O47 2.151610 1_555
Li2 O21 2.151610 1_555
Li2 O43 2.515891 1_555
Li2 O25 2.515891 1_555
Li3 O6 2.151610 1_555
Li3 O4 2.151610 1_555
Li3 O20 2.151610 1_555
Li3 O38 2.151610 1_555
Li3 O39 2.515891 1_555
Li3 O30 2.515891 1_555
O0 P1 1.499172 1_555
O0 Sn0 2.350477 1_655
O1 P6 1.499172 1_555
O1 Sn3 2.350477 1_555
O2 P6 1.636195 1_555
O2 P7 1.636195 1_555
O3 P11 1.615508 1_556
O3 P5 1.615508 1_556
O4 P5 1.506773 1_556
O4 Sn3 2.447808 1_655
O5 P4 1.499172 1_556
O5 Sn3 2.350477 1_555
O6 P12 1.506773 1_556
O6 Sn1 2.447808 1_565
O7 P10 1.499172 1_555
O7 Sn2 2.350477 1_555
O8 P10 1.499172 1_555
O8 Sn1 2.350477 1_555
O9 P3 1.615508 1_555
O9 P8 1.615508 1_565
O10 P3 1.506773 1_555
O10 Sn0 2.447808 1_555
O11 P6 1.499172 1_555
O11 Sn0 2.350477 1_555
O12 P7 1.499172 1_555
O12 Sn1 2.350477 1_565
O13 P1 1.499172 1_555
O13 Sn3 2.350477 1_655
O14 P7 1.499172 1_555
O14 Sn2 2.350477 1_565
O15 P8 1.506773 1_565
O15 Sn2 2.447808 1_565
O16 P0 1.499172 1_656
O16 Sn3 2.350477 1_655
O17 P9 1.636195 1_565
O17 P4 1.636195 1_555
O18 P14 1.615508 1_555
O18 P8 1.615508 1_555
O19 P15 1.615508 1_555
O19 P11 1.615508 1_555
O20 P3 1.506773 1_655
O20 Sn3 2.447808 1_655
O21 P15 1.506773 1_556
O21 Sn3 2.447808 1_555
O22 P9 1.499172 1_566
O22 Sn1 2.350477 1_565
O23 P5 1.506773 1_555
O23 Sn0 2.447808 1_655
O24 P8 1.506773 1_555
O24 Sn1 2.447808 1_555
O25 P10 1.636195 1_555
O25 P6 1.636195 1_555
O26 P4 1.499172 1_655
O26 Sn0 2.350477 1_655
O27 P0 1.499172 1_555
O27 Sn0 2.350477 1_555
O28 P12 1.615508 1_556
O28 P15 1.615508 1_556
O29 P12 1.506773 1_555
O29 Sn2 2.447808 1_565
O30 P4 1.636195 1_656
O30 P13 1.636195 1_566
O31 P11 1.506773 1_555
O31 Sn2 2.447808 1_555
O32 P10 1.636195 1_555
O32 P1 1.636195 1_555
O33 P13 1.499172 1_556
O33 Sn1 2.350477 1_555
O34 P14 1.506773 1_555
O34 Sn3 2.447808 1_555
O35 P3 1.615508 1_655
O35 P2 1.615508 1_565
O36 P15 1.506773 1_555
O36 Sn0 2.447808 1_555
O37 P14 1.506773 1_655
O37 Sn0 2.447808 1_655
O38 P2 1.506773 1_565
O38 Sn1 2.447808 1_565
O39 P1 1.636195 1_555
O39 P7 1.636195 1_555
O40 P13 1.636195 1_555
O40 P0 1.636195 1_655
O41 P5 1.615508 1_555
O41 P12 1.615508 1_555
O42 P9 1.499172 1_555
O42 Sn2 2.350477 1_555
O43 P0 1.636195 1_556
O43 P9 1.636195 1_556
O44 P2 1.506773 1_555
O44 Sn2 2.447808 1_555
O45 P14 1.615508 1_655
O45 P2 1.615508 1_555
O46 P13 1.499172 1_565
O46 Sn2 2.350477 1_565
O47 P11 1.506773 1_556
O47 Sn1 2.447808 1_555
