# generated using pymatgen
data_Na7Zn2In2P5SO24
_symmetry_space_group_name_H-M   'P 1'
_cell_length_a   9.09440890
_cell_length_b   9.10894262
_cell_length_c   22.34020323
_cell_angle_alpha   90.27765731
_cell_angle_beta   89.79087448
_cell_angle_gamma   119.99831417
_symmetry_Int_Tables_number   1
_chemical_formula_structural   Na7Zn2In2P5SO24
_chemical_formula_sum   'Na21 Zn6 In6 P15 S3 O72'
_cell_volume   1602.73616463
_cell_formula_units_Z   3
loop_
 _symmetry_equiv_pos_site_id
 _symmetry_equiv_pos_as_xyz
  1  'x, y, z'
loop_
 _atom_site_type_symbol
 _atom_site_label
 _atom_site_symmetry_multiplicity
 _atom_site_fract_x
 _atom_site_fract_y
 _atom_site_fract_z
 _atom_site_occupancy
  Na  Na0  1  0.63811733  0.99479876  0.25186863  1
  Na  Na1  1  0.00044485  0.62976379  0.25385347  1
  Na  Na2  1  0.63110777  0.63782921  0.74899157  1
  Na  Na3  1  0.00689622  0.36910396  0.75199858  1
  Na  Na4  1  0.36410456  0.99390069  0.75204409  1
  Na  Na5  1  0.29728980  0.33251726  0.58553356  1
  Na  Na6  1  0.03703545  0.70389232  0.58272601  1
  Na  Na7  1  0.66828330  0.96248592  0.58364384  1
  Na  Na8  1  0.29686987  0.96313759  0.08074480  1
  Na  Na9  1  0.66597983  0.70144545  0.08591818  1
  Na  Na10  1  0.03728397  0.33355831  0.08366390  1
  Na  Na11  1  0.97994769  0.66870784  0.91647913  1
  Na  Na12  1  0.32924187  0.29908944  0.91882753  1
  Na  Na13  1  0.96514359  0.30513780  0.41493905  1
  Na  Na14  1  0.70132320  0.67234740  0.41805966  1
  Na  Na15  1  0.00504328  0.99432514  0.50364103  1
  Na  Na16  1  0.99726123  0.00628874  0.00302550  1
  Na  Na17  1  0.66799453  0.31645873  0.83386201  1
  Na  Na18  1  0.65904938  0.32919293  0.33307500  1
  Na  Na19  1  0.33483156  0.64922144  0.16780960  1
  Na  Na20  1  0.33387693  0.66734800  0.66627061  1
  Zn  Zn0  1  0.99958716  0.00052828  0.65324566  1
  Zn  Zn1  1  0.99286105  0.00409078  0.15188701  1
  Zn  Zn2  1  0.32507444  0.66789034  0.01487817  1
  Zn  Zn3  1  0.33429890  0.68149340  0.51438326  1
  Zn  Zn4  1  0.33366493  0.66211407  0.31878157  1
  Zn  Zn5  1  0.32653114  0.67117333  0.81815625  1
  In  In0  1  0.99665563  0.99592552  0.34849197  1
  In  In1  1  0.00038328  0.00548789  0.84822909  1
  In  In2  1  0.66754075  0.33342246  0.68089174  1
  In  In3  1  0.66680411  0.33619849  0.18136517  1
  In  In4  1  0.66746202  0.32227330  0.98451167  1
  In  In5  1  0.66610882  0.32669135  0.48445668  1
  P  P0  1  0.69808133  0.69959476  0.24899298  1
  P  P1  1  0.00406374  0.30090268  0.24938509  1
  P  P2  1  0.29941320  0.30081331  0.74931868  1
  P  P3  1  0.99977428  0.70373555  0.74921268  1
  P  P4  1  0.70179240  0.99781364  0.74812929  1
  P  P5  1  0.97160318  0.33373012  0.58286887  1
  P  P6  1  0.36504734  0.03363963  0.58422348  1
  P  P7  1  0.66511857  0.63359019  0.58205117  1
  P  P8  1  0.96736272  0.63522952  0.08280890  1
  P  P9  1  0.66527878  0.02965515  0.08519489  1
  P  P10  1  0.36696960  0.33387698  0.08164538  1
  P  P11  1  0.04001581  0.37286525  0.91658252  1
  P  P12  1  0.33369492  0.96297664  0.91609236  1
  P  P13  1  0.62587311  0.96087429  0.41536977  1
  P  P14  1  0.03939754  0.66838804  0.41628036  1
  S  S0  1  0.29624159  0.00095789  0.24845538  1
  S  S1  1  0.62842384  0.66804856  0.91728390  1
  S  S2  1  0.33339934  0.37281893  0.41707863  1
  O  O0  1  0.21885049  0.02680055  0.30314167  1
  O  O1  1  0.81053438  0.77507820  0.30639273  1
  O  O2  1  0.97379575  0.19222444  0.30702814  1
  O  O3  1  0.22589966  0.19131364  0.80662776  1
  O  O4  1  0.96606150  0.77874089  0.80709923  1
  O  O5  1  0.81713029  0.03482156  0.80332169  1
  O  O6  1  0.78047376  0.96999802  0.69134367  1
  O  O7  1  0.18806383  0.21755721  0.69417814  1
  O  O8  1  0.02537128  0.81342861  0.69418357  1
  O  O9  1  0.78554024  0.81032387  0.19383052  1
  O  O10  1  0.02422793  0.21630239  0.19316520  1
  O  O11  1  0.19494118  0.98035988  0.19433484  1
  O  O12  1  0.89110070  0.36841043  0.63898033  1
  O  O13  1  0.47521687  0.10879605  0.64151895  1
  O  O14  1  0.63279025  0.52147011  0.63856282  1
  O  O15  1  0.88912332  0.52176337  0.13885389  1
  O  O16  1  0.62925538  0.10595332  0.14226830  1
  O  O17  1  0.48636362  0.36838035  0.13539056  1
  O  O18  1  0.44466918  0.30154505  0.02401091  1
  O  O19  1  0.85161392  0.55415627  0.02691667  1
  O  O20  1  0.70543342  0.15077202  0.03178721  1
  O  O21  1  0.44923637  0.15418865  0.53077166  1
  O  O22  1  0.69603839  0.55032919  0.52598630  1
  O  O23  1  0.85779889  0.29981776  0.52688777  1
  O  O24  1  0.54965289  0.68598122  0.97164183  1
  O  O25  1  0.14769831  0.45268982  0.97293128  1
  O  O26  1  0.30945895  0.85908027  0.97279906  1
  O  O27  1  0.54925025  0.85361478  0.47211087  1
  O  O28  1  0.30802413  0.44692727  0.47273840  1
  O  O29  1  0.13589308  0.68434785  0.47427629  1
  O  O30  1  0.11925828  0.63972297  0.35986354  1
  O  O31  1  0.52681523  0.87854292  0.35804996  1
  O  O32  1  0.35821409  0.47757827  0.36423396  1
  O  O33  1  0.12055229  0.47753356  0.85931540  1
  O  O34  1  0.35501811  0.88307338  0.85848102  1
  O  O35  1  0.52801559  0.64619831  0.86219600  1
  O  O36  1  0.01307139  0.82545589  0.41274773  1
  O  O37  1  0.81142844  0.98395489  0.41330582  1
  O  O38  1  0.17726252  0.20048890  0.41179013  1
  O  O39  1  0.02273754  0.19350361  0.91311948  1
  O  O40  1  0.16645204  0.97700255  0.91344393  1
  O  O41  1  0.80526843  0.81672014  0.91368549  1
  O  O42  1  0.98578808  0.17251465  0.58840122  1
  O  O43  1  0.18744504  0.01530485  0.58912618  1
  O  O44  1  0.82690632  0.80903346  0.58711459  1
  O  O45  1  0.98466430  0.81227450  0.08905393  1
  O  O46  1  0.82581558  0.01275732  0.08965908  1
  O  O47  1  0.19097417  0.17182850  0.08809765  1
  O  O48  1  0.68291761  0.15988067  0.74537675  1
  O  O49  1  0.47967940  0.31861745  0.74536919  1
  O  O50  1  0.83770906  0.52308356  0.74581709  1
  O  O51  1  0.68662813  0.52279611  0.24552086  1
  O  O52  1  0.83420129  0.31037664  0.24707257  1
  O  O53  1  0.47230334  0.15099223  0.24606398  1
  O  O54  1  0.64543230  0.51013321  0.91948341  1
  O  O55  1  0.86306559  0.36344369  0.92025868  1
  O  O56  1  0.48650888  0.14894776  0.91894764  1
  O  O57  1  0.65355737  0.14459851  0.41892506  1
  O  O58  1  0.48976467  0.35692999  0.42044484  1
  O  O59  1  0.85410787  0.50560192  0.41883323  1
  O  O60  1  0.35024506  0.49405931  0.07706212  1
  O  O61  1  0.14383968  0.65067896  0.07742317  1
  O  O62  1  0.50532668  0.85372708  0.07756583  1
  O  O63  1  0.35117399  0.85791350  0.57807224  1
  O  O64  1  0.50377476  0.64866931  0.57690992  1
  O  O65  1  0.14822625  0.49413269  0.57719438  1
  O  O66  1  0.31067536  0.84510279  0.25321058  1
  O  O67  1  0.52507460  0.69057972  0.25547512  1
  O  O68  1  0.15505125  0.48296832  0.25489010  1
  O  O69  1  0.31985960  0.47954680  0.75575356  1
  O  O70  1  0.15885285  0.68386459  0.75385568  1
  O  O71  1  0.52391301  0.83810839  0.75514633  1
loop_
_geom_bond_atom_site_label_1
_geom_bond_atom_site_label_2
_geom_bond_distance
_geom_bond_site_symmetry_2
Na0 O67 2.428025 1_555
Na0 O52 2.516037 1_565
Na0 O53 2.542372 1_565
Na0 O66 2.582140 1_555
Na0 O31 2.589960 1_555
Na0 O16 2.670925 1_565
Na0 O9 2.919128 1_555
Na0 O2 2.930596 1_565
Na1 O68 2.376141 1_555
Na1 O66 2.504785 1_555
Na1 O51 2.520055 1_455
Na1 O52 2.524238 1_455
Na1 O30 2.589045 1_555
Na1 O15 2.755300 1_455
Na1 O1 2.892896 1_455
Na2 O69 2.456017 1_555
Na2 O71 2.464236 1_555
Na2 O49 2.520343 1_555
Na2 O50 2.567080 1_555
Na2 O14 2.683343 1_555
Na2 O35 2.707955 1_555
Na2 O6 2.928111 1_555
Na2 O4 2.952116 1_555
Na3 O70 2.483789 1_555
Na3 O69 2.501557 1_555
Na3 O50 2.552494 1_455
Na3 O48 2.592430 1_455
Na3 O33 2.601175 1_555
Na3 O12 2.737977 1_455
Na3 O5 2.886080 1_455
Na3 O7 2.920657 1_555
Na4 O70 2.488127 1_555
Na4 O71 2.488971 1_555
Na4 O48 2.516002 1_565
Na4 O34 2.572627 1_555
Na4 O49 2.601944 1_565
Na4 O13 2.676280 1_565
Na4 O3 2.920267 1_565
Na4 O8 2.967794 1_555
Na5 O42 2.454520 1_455
Na5 O65 2.457600 1_555
Na5 O64 2.540062 1_555
Na5 O43 2.543370 1_555
Na5 O7 2.634615 1_555
Na5 O28 2.714271 1_555
Na5 O21 2.873644 1_555
Na5 O14 2.903598 1_555
Na6 O43 2.460807 1_565
Na6 O63 2.476355 1_555
Na6 O44 2.531128 1_455
Na6 O65 2.572426 1_555
Na6 O29 2.617224 1_555
Na6 O8 2.699376 1_555
Na6 O12 2.940877 1_455
Na6 O22 2.975642 1_455
Na7 O44 2.461517 1_555
Na7 O64 2.480568 1_555
Na7 O42 2.546662 1_565
Na7 O63 2.548409 1_555
Na7 O6 2.604079 1_555
Na7 O27 2.699262 1_555
Na7 O23 2.957375 1_565
Na7 O13 2.972783 1_565
Na8 O61 2.465949 1_555
Na8 O45 2.466105 1_455
Na8 O47 2.528744 1_565
Na8 O62 2.545568 1_555
Na8 O26 2.609857 1_554
Na8 O11 2.729071 1_555
Na8 O18 2.966046 1_565
Na8 O16 2.966453 1_565
Na9 O46 2.457245 1_565
Na9 O62 2.474800 1_555
Na9 O60 2.535601 1_555
Na9 O45 2.549307 1_555
Na9 O9 2.625911 1_555
Na9 O24 2.742964 1_554
Na9 O17 2.856214 1_555
Na9 O19 2.935825 1_555
Na10 O60 2.469439 1_555
Na10 O47 2.489005 1_555
Na10 O61 2.550788 1_555
Na10 O46 2.576418 1_455
Na10 O10 2.652465 1_555
Na10 O25 2.687714 1_554
Na10 O20 2.864564 1_455
Na10 O15 2.924378 1_455
Na11 O55 2.432077 1_555
Na11 O40 2.450669 1_655
Na11 O41 2.547262 1_555
Na11 O54 2.636547 1_555
Na11 O4 2.672847 1_555
Na11 O19 2.706321 1_556
Na11 O26 2.894906 1_655
Na11 O33 2.914033 1_655
Na12 O56 2.423234 1_555
Na12 O39 2.455995 1_555
Na12 O54 2.537130 1_555
Na12 O40 2.543315 1_545
Na12 O18 2.572571 1_556
Na12 O3 2.683408 1_555
Na13 O57 2.456011 1_555
Na13 O59 2.490633 1_555
Na13 O37 2.534679 1_545
Na13 O38 2.544050 1_655
Na13 O2 2.632733 1_555
Na13 O23 2.673241 1_555
Na13 O30 2.918774 1_655
Na14 O36 2.458166 1_655
Na14 O37 2.496123 1_555
Na14 O59 2.519669 1_555
Na14 O58 2.536250 1_555
Na14 O22 2.650052 1_555
Na14 O1 2.675937 1_555
Na14 O27 2.889475 1_555
Na14 O32 2.966694 1_555
Na15 O43 2.477503 1_565
Na15 O44 2.495007 1_455
Na15 O42 2.550050 1_465
Na15 O36 2.564300 1_555
Na15 O37 2.653283 1_455
Na15 O38 2.695004 1_565
Na16 O46 2.499824 1_555
Na16 O47 2.515888 1_655
Na16 O39 2.575012 1_654
Na16 O45 2.580481 1_545
Na16 O40 2.612779 1_644
Na16 O41 2.644073 1_544
Na17 O48 2.474786 1_555
Na17 O56 2.480413 1_555
Na17 O55 2.512681 1_555
Na17 O49 2.626885 1_555
Na17 O50 2.627245 1_555
Na17 O54 2.672003 1_555
Na18 O57 2.540620 1_555
Na18 O52 2.550613 1_555
Na18 O53 2.556290 1_555
Na18 O59 2.558138 1_555
Na18 O51 2.566382 1_555
Na18 O58 2.570219 1_555
Na19 O68 2.506111 1_555
Na19 O60 2.509088 1_555
Na19 O67 2.517289 1_555
Na19 O62 2.657852 1_555
Na19 O61 2.672732 1_555
Na19 O66 2.688454 1_555
Na20 O70 2.568793 1_555
Na20 O65 2.574962 1_555
Na20 O64 2.576581 1_555
Na20 O71 2.579838 1_555
Na20 O63 2.584205 1_555
Na20 O69 2.598487 1_555
In0 O1 2.094013 1_555
In0 O2 2.118410 1_565
In0 O0 2.146725 1_665
In0 O37 2.178569 1_555
In0 O36 2.179236 1_655
In0 O38 2.258449 1_665
In1 O5 2.077367 1_455
In1 O3 2.113099 1_555
In1 O4 2.132307 1_445
In1 O39 2.169302 1_555
In1 O40 2.209639 1_545
In1 O41 2.279931 1_445
In2 O13 2.105869 1_555
In2 O12 2.110210 1_555
In2 O14 2.118344 1_555
In2 O49 2.183005 1_555
In2 O50 2.191360 1_555
In2 O48 2.199630 1_555
In3 O17 2.080854 1_555
In3 O15 2.105030 1_555
In3 O16 2.132226 1_555
In3 O51 2.155823 1_555
In3 O52 2.214827 1_555
In3 O53 2.255016 1_555
In4 O20 2.057485 1_556
In4 O18 2.127368 1_556
In4 O19 2.149095 1_556
In4 O55 2.164499 1_555
In4 O56 2.177926 1_555
In4 O54 2.334066 1_555
In5 O21 2.081238 1_555
In5 O23 2.106806 1_555
In5 O22 2.124554 1_555
In5 O57 2.166992 1_555
In5 O59 2.224191 1_555
In5 O58 2.270496 1_555
O0 S0 1.483223 1_555
O1 P0 1.568725 1_555
O2 P1 1.565683 1_655
O3 P2 1.555736 1_555
O4 P3 1.559216 1_555
O5 P4 1.544681 1_545
O6 P4 1.535294 1_555
O6 Zn0 2.051437 1_565
O7 P2 1.533030 1_555
O7 Zn0 2.070736 1_455
O8 P3 1.530073 1_455
O8 Zn0 2.052382 1_465
O9 P0 1.539907 1_555
O9 Zn1 2.055161 1_565
O10 P1 1.528128 1_555
O10 Zn1 2.025238 1_455
O11 S0 1.476096 1_565
O11 Zn1 2.176108 1_465
O12 P5 1.558169 1_555
O13 P6 1.557529 1_555
O14 P7 1.559769 1_555
O15 P8 1.553330 1_555
O16 P9 1.559517 1_555
O17 P10 1.544028 1_555
O18 P10 1.562585 1_555
O19 P8 1.560737 1_555
O20 P9 1.542985 1_555
O21 P6 1.543780 1_555
O22 P7 1.557083 1_555
O23 P5 1.554572 1_555
O24 S1 1.457156 1_555
O24 Zn2 2.186815 1_556
O25 P11 1.536399 1_555
O25 Zn2 2.038181 1_556
O26 P12 1.533006 1_555
O26 Zn2 2.049629 1_556
O27 P13 1.540048 1_555
O27 Zn3 2.026711 1_555
O28 S2 1.483462 1_555
O28 Zn3 2.227050 1_555
O29 P14 1.532596 1_555
O29 Zn3 2.029342 1_555
O30 P14 1.537512 1_555
O30 Zn4 2.068117 1_555
O31 P13 1.528826 1_555
O31 Zn4 2.067225 1_555
O32 S2 1.465904 1_555
O32 Zn4 2.073617 1_555
O33 P11 1.545615 1_555
O33 Zn5 2.040813 1_555
O34 P12 1.534301 1_555
O34 Zn5 2.022154 1_555
O35 S1 1.487318 1_555
O35 Zn5 2.193062 1_555
O36 P14 1.566613 1_555
O37 P13 1.593361 1_555
O38 S2 1.504967 1_555
O39 P11 1.562726 1_555
O40 P12 1.590041 1_555
O41 S1 1.499750 1_555
O42 P5 1.542635 1_555
O42 Zn0 2.188263 1_555
O43 P6 1.542033 1_555
O43 Zn0 2.177818 1_455
O44 P7 1.542670 1_555
O44 Zn0 2.223582 1_565
O45 P8 1.545716 1_555
O45 Zn1 2.208065 1_565
O46 P9 1.546326 1_555
O46 Zn1 2.093599 1_555
O47 P10 1.548988 1_555
O47 Zn1 2.204805 1_455
O48 P4 1.570649 1_545
O49 P2 1.566840 1_555
O50 P3 1.568536 1_555
O51 P0 1.562538 1_555
O52 P1 1.590739 1_655
O53 S0 1.498768 1_555
O54 S1 1.522723 1_555
O55 P11 1.569976 1_655
O56 P12 1.565438 1_545
O57 P13 1.564590 1_545
O58 S2 1.501839 1_555
O59 P14 1.594711 1_655
O60 P10 1.544683 1_555
O60 Zn2 2.208071 1_555
O61 P8 1.543717 1_455
O61 Zn2 2.102498 1_555
O62 P9 1.543154 1_565
O62 Zn2 2.175547 1_555
O63 P6 1.546940 1_565
O63 Zn3 2.088841 1_555
O64 P7 1.545323 1_555
O64 Zn3 2.212857 1_555
O65 P5 1.544187 1_455
O65 Zn3 2.205285 1_555
O66 S0 1.493956 1_565
O66 Zn4 2.311335 1_555
O67 P0 1.540304 1_555
O67 Zn4 2.152184 1_555
O68 P1 1.540499 1_555
O68 Zn4 2.163928 1_555
O69 P2 1.549539 1_555
O69 Zn5 2.205701 1_555
O70 P3 1.549084 1_455
O70 Zn5 2.143867 1_555
O71 P4 1.550795 1_555
O71 Zn5 2.188345 1_555
