# generated using pymatgen
data_LiV2(PO4)3
_symmetry_space_group_name_H-M   'P 1'
_cell_length_a   8.66639600
_cell_length_b   8.50541400
_cell_length_c   14.64941737
_cell_angle_alpha   54.57040260
_cell_angle_beta   90.00000000
_cell_angle_gamma   90.00000000
_symmetry_Int_Tables_number   1
_chemical_formula_structural   LiV2(PO4)3
_chemical_formula_sum   'Li4 V8 P12 O48'
_cell_volume   879.87407612
_cell_formula_units_Z   4
loop_
 _symmetry_equiv_pos_site_id
 _symmetry_equiv_pos_as_xyz
  1  'x, y, z'
loop_
 _atom_site_type_symbol
 _atom_site_label
 _atom_site_symmetry_multiplicity
 _atom_site_fract_x
 _atom_site_fract_y
 _atom_site_fract_z
 _atom_site_occupancy
  Li  Li0  1  0.77912800  0.98138800  0.32120000  1
  Li  Li1  1  0.27912800  0.01861200  0.17880000  1
  Li  Li2  1  0.72087200  0.98138800  0.82120000  1
  Li  Li3  1  0.22087200  0.01861200  0.67880000  1
  V  V0  1  0.03167000  0.62899600  0.61902900  1
  V  V1  1  0.53167000  0.37100400  0.88097100  1
  V  V2  1  0.96077900  0.14182000  0.11353000  1
  V  V3  1  0.46077900  0.85818000  0.38647000  1
  V  V4  1  0.53922100  0.14182000  0.61353000  1
  V  V5  1  0.03922100  0.85818000  0.88647000  1
  V  V6  1  0.46833000  0.62899600  0.11902900  1
  V  V7  1  0.96833000  0.37100400  0.38097100  1
  P  P0  1  0.25149600  0.46167100  0.00691400  1
  P  P1  1  0.38336800  0.74974300  0.64627500  1
  P  P2  1  0.10878800  0.03467600  0.35740900  1
  P  P3  1  0.88336800  0.25025700  0.85372500  1
  P  P4  1  0.60878800  0.96532400  0.14259100  1
  P  P5  1  0.75149600  0.53832900  0.49308600  1
  P  P6  1  0.24850400  0.46167100  0.50691400  1
  P  P7  1  0.39121200  0.03467600  0.85740900  1
  P  P8  1  0.11663200  0.74974300  0.14627500  1
  P  P9  1  0.89121200  0.96532400  0.64259100  1
  P  P10  1  0.61663200  0.25025700  0.35372500  1
  P  P11  1  0.74850400  0.53832900  0.99308600  1
  O  O0  1  0.86991200  0.37447600  0.06578500  1
  O  O1  1  0.88469100  0.80164300  0.62829400  1
  O  O2  1  0.68251700  0.51579800  0.90383500  1
  O  O3  1  0.58005200  0.09012500  0.33582800  1
  O  O4  1  0.37035400  0.47568000  0.92619300  1
  O  O5  1  0.20803600  0.71695900  0.66572400  1
  O  O6  1  0.42978300  0.81913200  0.52795400  1
  O  O7  1  0.98813900  0.07434000  0.26762900  1
  O  O8  1  0.16910600  0.26404400  0.07047300  1
  O  O9  1  0.26878400  0.00729700  0.31999200  1
  O  O10  1  0.48199200  0.57006200  0.73129700  1
  O  O11  1  0.05863700  0.84195600  0.46644400  1
  O  O12  1  0.98199200  0.42993800  0.76870300  1
  O  O13  1  0.55863700  0.15804400  0.03355600  1
  O  O14  1  0.76878400  0.99270300  0.18000800  1
  O  O15  1  0.66910600  0.73595600  0.42952700  1
  O  O16  1  0.92978300  0.18086800  0.97204600  1
  O  O17  1  0.48813900  0.92566000  0.23237100  1
  O  O18  1  0.70803600  0.28304100  0.83427600  1
  O  O19  1  0.87035400  0.52432000  0.57380700  1
  O  O20  1  0.18251700  0.48420200  0.59616500  1
  O  O21  1  0.38469100  0.19835700  0.87170600  1
  O  O22  1  0.08005200  0.90987500  0.16417200  1
  O  O23  1  0.36991200  0.62552400  0.43421500  1
  O  O24  1  0.63008800  0.37447600  0.56578500  1
  O  O25  1  0.91994800  0.09012500  0.83582800  1
  O  O26  1  0.61530900  0.80164300  0.12829400  1
  O  O27  1  0.81748300  0.51579800  0.40383500  1
  O  O28  1  0.12964600  0.47568000  0.42619300  1
  O  O29  1  0.29196400  0.71695900  0.16572400  1
  O  O30  1  0.51186100  0.07434000  0.76762900  1
  O  O31  1  0.07021700  0.81913200  0.02795400  1
  O  O32  1  0.33089400  0.26404400  0.57047300  1
  O  O33  1  0.23121600  0.00729700  0.81999200  1
  O  O34  1  0.44136300  0.84195600  0.96644400  1
  O  O35  1  0.01800800  0.57006200  0.23129700  1
  O  O36  1  0.94136300  0.15804400  0.53355600  1
  O  O37  1  0.51800800  0.42993800  0.26870300  1
  O  O38  1  0.73121600  0.99270300  0.68000800  1
  O  O39  1  0.83089400  0.73595600  0.92952700  1
  O  O40  1  0.01186100  0.92566000  0.73237100  1
  O  O41  1  0.57021700  0.18086800  0.47204600  1
  O  O42  1  0.79196400  0.28304100  0.33427600  1
  O  O43  1  0.62964600  0.52432000  0.07380700  1
  O  O44  1  0.41994800  0.90987500  0.66417200  1
  O  O45  1  0.31748300  0.48420200  0.09616500  1
  O  O46  1  0.11530900  0.19835700  0.37170600  1
  O  O47  1  0.13008800  0.62552400  0.93421500  1
loop_
_geom_bond_atom_site_label_1
_geom_bond_atom_site_label_2
_geom_bond_distance
_geom_bond_site_symmetry_2
Li0 O7 1.950038 1_565
Li0 O15 1.986045 1_555
Li0 O14 2.016112 1_555
Li0 O3 2.026726 1_565
Li1 O17 1.950038 1_545
Li1 O8 1.986045 1_555
Li1 O9 2.016112 1_555
Li1 O22 2.026726 1_545
Li2 O30 1.950038 1_565
Li2 O39 1.986045 1_555
Li2 O38 2.016112 1_555
Li2 O25 2.026726 1_565
Li3 O40 1.950038 1_545
Li3 O32 1.986045 1_555
Li3 O33 2.016112 1_555
Li3 O44 2.026726 1_545
O0 P11 1.569298 1_554
O0 V2 1.849444 1_555
O1 P9 1.524228 1_555
O1 V0 2.007065 1_655
O2 P11 1.537449 1_555
O2 V1 1.953495 1_555
O3 P10 1.561493 1_555
O3 V3 1.952915 1_545
O4 P0 1.519943 1_556
O4 V1 1.967192 1_555
O5 P1 1.541327 1_555
O5 V0 1.989277 1_555
O6 P1 1.525948 1_555
O6 V3 1.918404 1_555
O7 P2 1.556425 1_655
O7 V2 1.994886 1_555
O8 P0 1.545197 1_555
O8 V2 1.994478 1_455
O9 P2 1.557338 1_555
O9 V3 1.973205 1_545
O10 P1 1.552591 1_555
O10 V1 1.885592 1_555
O11 P2 1.546458 1_565
O11 V0 1.907293 1_555
O12 P3 1.552591 1_555
O12 V0 1.885592 1_655
O13 P4 1.546458 1_545
O13 V1 1.907293 1_554
O14 P4 1.557338 1_555
O14 V2 1.973205 1_565
O15 P5 1.545197 1_555
O15 V3 1.994478 1_555
O16 P3 1.525948 1_555
O16 V2 1.918404 1_556
O17 P4 1.556425 1_555
O17 V3 1.994886 1_555
O18 P3 1.541327 1_555
O18 V1 1.989277 1_555
O19 P5 1.519943 1_555
O19 V0 1.967192 1_655
O20 P6 1.537449 1_555
O20 V0 1.953495 1_555
O21 P7 1.524228 1_555
O21 V1 2.007065 1_555
O22 P8 1.561493 1_555
O22 V2 1.952915 1_465
O23 P6 1.569298 1_555
O23 V3 1.849444 1_555
O24 P5 1.569298 1_555
O24 V4 1.849444 1_555
O25 P3 1.561493 1_555
O25 V5 1.952915 1_645
O26 P4 1.524228 1_555
O26 V6 2.007065 1_555
O27 P5 1.537449 1_555
O27 V7 1.953495 1_555
O28 P6 1.519943 1_555
O28 V7 1.967192 1_455
O29 P8 1.541327 1_555
O29 V6 1.989277 1_555
O30 P7 1.556425 1_555
O30 V4 1.994886 1_555
O31 P8 1.525948 1_555
O31 V5 1.918404 1_554
O32 P6 1.545197 1_555
O32 V4 1.994478 1_555
O33 P7 1.557338 1_555
O33 V5 1.973205 1_545
O34 P7 1.546458 1_565
O34 V6 1.907293 1_556
O35 P8 1.552591 1_555
O35 V7 1.885592 1_455
O36 P9 1.546458 1_545
O36 V7 1.907293 1_555
O37 P10 1.552591 1_555
O37 V6 1.885592 1_555
O38 P9 1.557338 1_555
O38 V4 1.973205 1_565
O39 P11 1.545197 1_555
O39 V5 1.994478 1_655
O40 P9 1.556425 1_455
O40 V5 1.994886 1_555
O41 P10 1.525948 1_555
O41 V4 1.918404 1_555
O42 P10 1.541327 1_555
O42 V7 1.989277 1_555
O43 P11 1.519943 1_554
O43 V6 1.967192 1_555
O44 P1 1.561493 1_555
O44 V4 1.952915 1_565
O45 P0 1.537449 1_555
O45 V6 1.953495 1_555
O46 P2 1.524228 1_555
O46 V7 2.007065 1_455
O47 P0 1.569298 1_556
O47 V5 1.849444 1_555
