# generated using pymatgen
data_ScGeP(SO6)2
_symmetry_space_group_name_H-M   'P 1'
_cell_length_a   8.60786469
_cell_length_b   8.63787795
_cell_length_c   22.04160968
_cell_angle_alpha   89.53423347
_cell_angle_beta   90.00000000
_cell_angle_gamma   119.88512719
_symmetry_Int_Tables_number   1
_chemical_formula_structural   ScGeP(SO6)2
_chemical_formula_sum   'Sc6 Ge6 P6 S12 O72'
_cell_volume   1420.88487908
_cell_formula_units_Z   6
loop_
 _symmetry_equiv_pos_site_id
 _symmetry_equiv_pos_as_xyz
  1  'x, y, z'
loop_
 _atom_site_type_symbol
 _atom_site_label
 _atom_site_symmetry_multiplicity
 _atom_site_fract_x
 _atom_site_fract_y
 _atom_site_fract_z
 _atom_site_occupancy
  Sc  Sc0  1  0.00247194  0.00096466  0.36003004  1
  Sc  Sc1  1  0.99849273  0.00096466  0.86003004  1
  Sc  Sc2  1  0.67685653  0.33915092  0.69370404  1
  Sc  Sc3  1  0.66229539  0.33915092  0.19370404  1
  Sc  Sc4  1  0.32801089  0.65417209  0.02643224  1
  Sc  Sc5  1  0.32616019  0.65417209  0.52643224  1
  Ge  Ge0  1  0.00115226  0.00053523  0.64685436  1
  Ge  Ge1  1  0.99938296  0.00053523  0.14685436  1
  Ge  Ge2  1  0.66218255  0.32992995  0.98083226  1
  Ge  Ge3  1  0.66774841  0.32992995  0.48083226  1
  Ge  Ge4  1  0.34965992  0.66186262  0.31358017  1
  Ge  Ge5  1  0.31220170  0.66186262  0.81358017  1
  P  P0  1  0.71123776  0.72844917  0.24984175  1
  P  P1  1  0.01721141  0.72844917  0.74984175  1
  P  P2  1  0.94004713  0.30940781  0.58352825  1
  P  P3  1  0.36936169  0.30940781  0.08352825  1
  P  P4  1  0.03131009  0.38693571  0.91783825  1
  P  P5  1  0.35562462  0.38693571  0.41783825  1
  S  S0  1  0.28058935  0.97728961  0.25095991  1
  S  S1  1  0.01971899  0.29955567  0.24990755  1
  S  S2  1  0.27983669  0.29955567  0.74990755  1
  S  S3  1  0.69670026  0.97728961  0.75095991  1
  S  S4  1  0.37049782  0.05361894  0.58403330  1
  S  S5  1  0.68567678  0.63067803  0.58364639  1
  S  S6  1  0.94500225  0.63067803  0.08364639  1
  S  S7  1  0.68312212  0.05361894  0.08403330  1
  S  S8  1  0.60748186  0.64711663  0.91643478  1
  S  S9  1  0.35199258  0.96307127  0.91731302  1
  S  S10  1  0.61107770  0.96307127  0.41731302  1
  S  S11  1  0.03963377  0.64711663  0.41643478  1
  O  O0  1  0.20319486  0.01561213  0.30397342  1
  O  O1  1  0.82483969  0.81294733  0.30540219  1
  O  O2  1  0.98934900  0.18905855  0.30405194  1
  O  O3  1  0.19970954  0.18905855  0.80405194  1
  O  O4  1  0.98810764  0.81294733  0.80540219  1
  O  O5  1  0.81241727  0.01561213  0.80397342  1
  O  O6  1  0.77905782  0.94657175  0.69513659  1
  O  O7  1  0.16299370  0.22094392  0.69454437  1
  O  O8  1  0.05337798  0.85073249  0.69176694  1
  O  O9  1  0.79735451  0.85073249  0.19176694  1
  O  O10  1  0.05795022  0.22094392  0.19454437  1
  O  O11  1  0.16751393  0.94657175  0.19513659  1
  O  O12  1  0.85491828  0.34038292  0.63856108  1
  O  O13  1  0.47813344  0.13375462  0.63757857  1
  O  O14  1  0.64659509  0.51669602  0.63688431  1
  O  O15  1  0.87010193  0.51669602  0.13688431  1
  O  O16  1  0.65562218  0.13375462  0.13757857  1
  O  O17  1  0.48546564  0.34038292  0.13856108  1
  O  O18  1  0.45587253  0.27483475  0.02548242  1
  O  O19  1  0.83092959  0.55023543  0.02811813  1
  O  O20  1  0.71895423  0.16967893  0.02773659  1
  O  O21  1  0.45072570  0.16967893  0.52773659  1
  O  O22  1  0.71930684  0.55023543  0.52811813  1
  O  O23  1  0.81896323  0.27483475  0.52548242  1
  O  O24  1  0.53315344  0.68286061  0.97014713  1
  O  O25  1  0.15109368  0.47185719  0.97196137  1
  O  O26  1  0.32400554  0.85416315  0.97082197  1
  O  O27  1  0.53015661  0.85416315  0.47082197  1
  O  O28  1  0.32076251  0.47185719  0.47196137  1
  O  O29  1  0.14970616  0.68286061  0.47014713  1
  O  O30  1  0.12244047  0.61606824  0.36097322  1
  O  O31  1  0.49775320  0.88377072  0.36108592  1
  O  O32  1  0.39449745  0.50929946  0.35941681  1
  O  O33  1  0.11480102  0.50929946  0.85941681  1
  O  O34  1  0.38601652  0.88377072  0.86108592  1
  O  O35  1  0.49362678  0.61606824  0.86097322  1
  O  O36  1  0.01169718  0.80000993  0.40786321  1
  O  O37  1  0.79078172  0.98720500  0.40927259  1
  O  O38  1  0.19645678  0.20258888  0.40684888  1
  O  O39  1  0.00613209  0.20258888  0.90684888  1
  O  O40  1  0.19642328  0.98720500  0.90927259  1
  O  O41  1  0.78831275  0.80000993  0.90786321  1
  O  O42  1  0.95505170  0.13737097  0.59277677  1
  O  O43  1  0.19100081  0.04231607  0.58934042  1
  O  O44  1  0.85418514  0.80619941  0.59078950  1
  O  O45  1  0.95201427  0.80619941  0.09078950  1
  O  O46  1  0.85131527  0.04231607  0.08934042  1
  O  O47  1  0.18231927  0.13737097  0.09277677  1
  O  O48  1  0.66570018  0.12734252  0.74249424  1
  O  O49  1  0.45591206  0.31992609  0.74079597  1
  O  O50  1  0.85772850  0.54373081  0.74066595  1
  O  O51  1  0.68600331  0.54373081  0.24066595  1
  O  O52  1  0.86401504  0.31992609  0.24079597  1
  O  O53  1  0.46164334  0.12734252  0.24249424  1
  O  O54  1  0.61849827  0.48042442  0.92378546  1
  O  O55  1  0.84622174  0.37555389  0.92747717  1
  O  O56  1  0.51810634  0.14209562  0.92235823  1
  O  O57  1  0.62399029  0.14209562  0.42235823  1
  O  O58  1  0.52933314  0.37555389  0.42747717  1
  O  O59  1  0.86192715  0.48042442  0.42378546  1
  O  O60  1  0.34569798  0.47035811  0.07430998  1
  O  O61  1  0.12679772  0.66261968  0.07484111  1
  O  O62  1  0.52871204  0.87656194  0.07486800  1
  O  O63  1  0.34784890  0.87656194  0.57486800  1
  O  O64  1  0.53582096  0.66261968  0.57484111  1
  O  O65  1  0.12465913  0.47035811  0.57430998  1
  O  O66  1  0.28551463  0.80815623  0.25948149  1
  O  O67  1  0.52453003  0.71629858  0.25648228  1
  O  O68  1  0.18407192  0.47903532  0.25696943  1
  O  O69  1  0.29496240  0.47903532  0.75696943  1
  O  O70  1  0.19176755  0.71629858  0.75648228  1
  O  O71  1  0.52264060  0.80815623  0.75948149  1
loop_
_geom_bond_atom_site_label_1
_geom_bond_atom_site_label_2
_geom_bond_distance
_geom_bond_site_symmetry_2
Ge0 O8 1.848061 1_545
Ge0 O42 1.849268 1_455
Ge0 O43 1.952620 1_555
Ge0 O44 1.965417 1_445
Ge0 O7 2.014909 1_555
Ge0 O6 2.026959 1_445
Ge1 O9 1.848061 1_545
Ge1 O47 1.849268 1_655
Ge1 O46 1.952620 1_555
Ge1 O45 1.965417 1_545
Ge1 O10 2.014909 1_655
Ge1 O11 2.026959 1_645
Ge2 O55 1.848869 1_555
Ge2 O18 1.870563 1_556
Ge2 O56 1.964816 1_555
Ge2 O54 1.967964 1_555
Ge2 O20 1.968393 1_556
Ge2 O19 2.023658 1_556
Ge3 O58 1.848870 1_555
Ge3 O23 1.870563 1_555
Ge3 O57 1.964816 1_555
Ge3 O59 1.967964 1_555
Ge3 O21 1.968393 1_555
Ge3 O22 2.023658 1_555
Ge4 O67 1.831897 1_555
Ge4 O32 1.841618 1_555
Ge4 O68 1.967614 1_555
Ge4 O31 1.998316 1_555
Ge4 O66 1.998603 1_555
Ge4 O30 2.072544 1_555
Ge5 O70 1.831897 1_555
Ge5 O33 1.841618 1_555
Ge5 O69 1.967614 1_555
Ge5 O34 1.998316 1_555
Ge5 O71 1.998603 1_555
Ge5 O35 2.072544 1_555
O0 S0 1.464532 1_545
O0 Sc0 2.075464 1_555
O1 P0 1.513931 1_555
O1 Sc0 1.995629 1_665
O2 S1 1.461657 1_655
O2 Sc0 2.079710 1_655
O3 S2 1.461657 1_555
O3 Sc1 2.079710 1_455
O4 P1 1.513931 1_655
O4 Sc1 1.995629 1_565
O5 S3 1.464532 1_545
O5 Sc1 2.075464 1_555
O6 S3 1.509869 1_555
O7 S2 1.514817 1_555
O8 P1 1.581615 1_555
O9 P0 1.581615 1_555
O10 S1 1.514817 1_555
O11 S0 1.509869 1_555
O12 P2 1.510168 1_555
O12 Sc2 1.951975 1_555
O13 S4 1.450750 1_555
O13 Sc2 2.148389 1_555
O14 S5 1.452814 1_555
O14 Sc2 2.086910 1_555
O15 S6 1.452814 1_555
O15 Sc3 2.086910 1_555
O16 S7 1.450750 1_555
O16 Sc3 2.148389 1_555
O17 P3 1.510168 1_555
O17 Sc3 1.951975 1_555
O18 P3 1.583817 1_555
O19 S6 1.509605 1_555
O20 S7 1.520381 1_555
O21 S4 1.520381 1_555
O22 S5 1.509605 1_555
O23 P2 1.583817 1_555
O24 S8 1.452280 1_555
O24 Sc4 2.068249 1_556
O25 P4 1.511582 1_555
O25 Sc4 1.970158 1_556
O26 S9 1.445744 1_555
O26 Sc4 2.124336 1_556
O27 S10 1.445744 1_555
O27 Sc5 2.124336 1_555
O28 P5 1.511582 1_555
O28 Sc5 1.970158 1_555
O29 S11 1.452280 1_555
O29 Sc5 2.068249 1_555
O30 S11 1.506731 1_555
O31 S10 1.518110 1_555
O32 P5 1.585163 1_555
O33 P4 1.585163 1_555
O34 S9 1.518110 1_555
O35 S8 1.506731 1_555
O36 S11 1.466332 1_555
O36 Sc0 2.058782 1_565
O37 S10 1.464827 1_555
O37 Sc0 2.072361 1_665
O38 P5 1.517768 1_555
O38 Sc0 2.004383 1_555
O39 P4 1.517771 1_555
O39 Sc1 2.004383 1_455
O40 S9 1.464819 1_555
O40 Sc1 2.072361 1_465
O41 S8 1.466337 1_555
O41 Sc1 2.058782 1_565
O42 P2 1.566165 1_555
O43 S4 1.503328 1_555
O44 S5 1.496584 1_555
O45 S6 1.496588 1_555
O46 S7 1.503319 1_555
O47 P3 1.566170 1_555
O48 S3 1.458332 1_545
O48 Sc2 2.075092 1_555
O49 S2 1.449863 1_555
O49 Sc2 2.098696 1_555
O50 P1 1.514531 1_655
O50 Sc2 1.976423 1_555
O51 P0 1.514534 1_555
O51 Sc3 1.976423 1_555
O52 S1 1.449855 1_655
O52 Sc3 2.098696 1_555
O53 S0 1.458338 1_545
O53 Sc3 2.075092 1_555
O54 S8 1.496907 1_555
O55 P4 1.560996 1_655
O56 S9 1.499193 1_545
O57 S10 1.499185 1_545
O58 P5 1.561013 1_555
O59 S11 1.496898 1_655
O60 P3 1.514344 1_555
O60 Sc4 1.967609 1_555
O61 S6 1.459960 1_455
O61 Sc4 2.066621 1_555
O62 S7 1.458007 1_565
O62 Sc4 2.130900 1_555
O63 S4 1.458000 1_565
O63 Sc5 2.130900 1_555
O64 S5 1.459977 1_555
O64 Sc5 2.066621 1_555
O65 P2 1.514333 1_455
O65 Sc5 1.967609 1_555
O66 S0 1.492891 1_555
O67 P0 1.564303 1_555
O68 S1 1.499148 1_555
O69 S2 1.499152 1_555
O70 P1 1.564294 1_555
O71 S3 1.492896 1_555
