# generated using pymatgen
data_Li3Cr3(PO4)4
_symmetry_space_group_name_H-M   'P 1'
_cell_length_a   7.95772600
_cell_length_b   7.57061500
_cell_length_c   10.12537269
_cell_angle_alpha   86.27121445
_cell_angle_beta   90.00000000
_cell_angle_gamma   90.00000000
_symmetry_Int_Tables_number   1
_chemical_formula_structural   Li3Cr3(PO4)4
_chemical_formula_sum   'Li6 Cr6 P8 O32'
_cell_volume   608.71053053
_cell_formula_units_Z   2
loop_
 _symmetry_equiv_pos_site_id
 _symmetry_equiv_pos_as_xyz
  1  'x, y, z'
loop_
 _atom_site_type_symbol
 _atom_site_label
 _atom_site_symmetry_multiplicity
 _atom_site_fract_x
 _atom_site_fract_y
 _atom_site_fract_z
 _atom_site_occupancy
  Li  Li0  1  0.35993200  0.14519400  0.92361600  1
  Li  Li1  1  0.63257100  0.33958000  0.32802700  1
  Li  Li2  1  0.13257100  0.66042000  0.67197300  1
  Li  Li3  1  0.86369700  0.84889200  0.57584500  1
  Li  Li4  1  0.85993200  0.85480600  0.07638400  1
  Li  Li5  1  0.36369700  0.15110800  0.42415500  1
  Cr  Cr0  1  0.64313600  0.35747600  0.82091600  1
  Cr  Cr1  1  0.14313600  0.64252400  0.17908400  1
  Cr  Cr2  1  0.51033900  0.75706900  0.12570200  1
  Cr  Cr3  1  0.49364400  0.76671700  0.62391300  1
  Cr  Cr4  1  0.99364400  0.23328300  0.37608700  1
  Cr  Cr5  1  0.01033900  0.24293100  0.87429800  1
  P  P0  1  0.20008400  0.04843700  0.14370000  1
  P  P1  1  0.70008400  0.95156300  0.85630000  1
  P  P2  1  0.68794000  0.94738600  0.35721900  1
  P  P3  1  0.30251700  0.55600900  0.89045300  1
  P  P4  1  0.31240600  0.55130700  0.39986200  1
  P  P5  1  0.80251700  0.44399100  0.10954700  1
  P  P6  1  0.18794000  0.05261400  0.64278100  1
  P  P7  1  0.81240600  0.44869300  0.60013800  1
  O  O0  1  0.69774300  0.85221400  0.22392800  1
  O  O1  1  0.80118300  0.35774600  0.97052400  1
  O  O2  1  0.43107100  0.39936600  0.40765700  1
  O  O3  1  0.80213400  0.34927100  0.47350200  1
  O  O4  1  0.85128500  0.30755900  0.72194600  1
  O  O5  1  0.85533000  0.30006700  0.21479900  1
  O  O6  1  0.14298400  0.18937500  0.03477000  1
  O  O7  1  0.13665200  0.19706300  0.53223300  1
  O  O8  1  0.19774300  0.14778600  0.77607200  1
  O  O9  1  0.58057400  0.11524200  0.85552800  1
  O  O10  1  0.18916600  0.13028000  0.27893500  1
  O  O11  1  0.56686900  0.09916400  0.34439100  1
  O  O12  1  0.87905700  0.01089600  0.89548200  1
  O  O13  1  0.37905700  0.98910400  0.10451800  1
  O  O14  1  0.37104600  0.99557000  0.60424300  1
  O  O15  1  0.87104600  0.00443000  0.39575700  1
  O  O16  1  0.12975700  0.49283000  0.34604500  1
  O  O17  1  0.68916600  0.86972000  0.72106500  1
  O  O18  1  0.08057400  0.88475800  0.14447200  1
  O  O19  1  0.64298400  0.81062500  0.96523000  1
  O  O20  1  0.06686900  0.90083600  0.65560900  1
  O  O21  1  0.63665200  0.80293700  0.46776700  1
  O  O22  1  0.35533000  0.69993300  0.78520100  1
  O  O23  1  0.30118300  0.64225400  0.02947600  1
  O  O24  1  0.35128500  0.69244100  0.27805400  1
  O  O25  1  0.93184500  0.59619800  0.09614900  1
  O  O26  1  0.30213400  0.65072900  0.52649800  1
  O  O27  1  0.93107100  0.60063400  0.59234300  1
  O  O28  1  0.62975700  0.50717000  0.65395500  1
  O  O29  1  0.12703800  0.48566000  0.85640700  1
  O  O30  1  0.62703800  0.51434000  0.14359300  1
  O  O31  1  0.43184500  0.40380200  0.90385100  1
loop_
_geom_bond_atom_site_label_1
_geom_bond_atom_site_label_2
_geom_bond_distance
_geom_bond_site_symmetry_2
Li0 O9 1.905232 1_555
Li0 O8 1.973376 1_555
Li0 O31 2.037067 1_555
Li0 O6 2.099532 1_556
Li0 O13 2.119708 1_546
Li1 O2 1.863753 1_555
Li1 O11 1.890593 1_555
Li1 O3 2.002459 1_555
Li1 O5 2.142616 1_555
Li1 O30 2.217754 1_555
Li2 O27 1.863753 1_455
Li2 O20 1.890593 1_555
Li2 O26 2.002459 1_555
Li2 O22 2.142616 1_555
Li2 O29 2.217754 1_555
Li3 O20 1.860709 1_655
Li3 O27 1.951131 1_555
Li3 O17 2.036191 1_555
Li3 O15 2.106109 1_565
Li3 O21 2.152326 1_555
Li4 O18 1.905232 1_655
Li4 O0 1.973376 1_555
Li4 O25 2.037067 1_555
Li4 O19 2.099532 1_554
Li4 O12 2.119708 1_564
Li5 O11 1.860709 1_555
Li5 O2 1.951131 1_555
Li5 O10 2.036191 1_555
Li5 O14 2.106109 1_545
Li5 O7 2.152326 1_555
Cr0 O9 1.910531 1_555
Cr0 O31 1.921868 1_555
Cr0 O1 1.968993 1_555
Cr0 O28 1.975954 1_555
Cr0 O4 1.984924 1_555
Cr1 O18 1.910531 1_555
Cr1 O25 1.921868 1_455
Cr1 O23 1.968993 1_555
Cr1 O16 1.975954 1_555
Cr1 O24 1.984924 1_555
Cr2 O0 1.955813 1_555
Cr2 O19 1.957804 1_554
Cr2 O24 2.030496 1_555
Cr2 O13 2.043091 1_555
Cr2 O30 2.056387 1_555
Cr2 O23 2.141320 1_555
Cr3 O21 1.952835 1_555
Cr3 O14 1.987043 1_555
Cr3 O22 2.006668 1_555
Cr3 O17 2.023951 1_555
Cr3 O26 2.044298 1_555
Cr3 O28 2.246988 1_555
Cr4 O7 1.952835 1_655
Cr4 O15 1.987043 1_555
Cr4 O5 2.006668 1_555
Cr4 O10 2.023951 1_655
Cr4 O3 2.044298 1_555
Cr4 O16 2.246988 1_655
Cr5 O8 1.955813 1_555
Cr5 O6 1.957804 1_556
Cr5 O4 2.030496 1_455
Cr5 O12 2.043091 1_455
Cr5 O29 2.056387 1_555
Cr5 O1 2.141320 1_455
O0 P2 1.572634 1_555
O1 P5 1.589804 1_556
O2 P4 1.486368 1_555
O3 P7 1.530647 1_555
O4 P7 1.608448 1_555
O5 P5 1.532500 1_555
O6 P0 1.551894 1_555
O7 P6 1.567219 1_555
O8 P6 1.572634 1_555
O9 P1 1.561650 1_545
O10 P0 1.541688 1_555
O11 P2 1.498672 1_545
O12 P1 1.552656 1_545
O13 P0 1.552656 1_565
O14 P6 1.576022 1_565
O15 P2 1.576022 1_545
O16 P4 1.623847 1_555
O17 P1 1.541688 1_555
O18 P0 1.561650 1_565
O19 P1 1.551894 1_555
O20 P6 1.498672 1_565
O21 P2 1.567219 1_555
O22 P3 1.532500 1_555
O23 P3 1.589804 1_554
O24 P4 1.608448 1_555
O25 P5 1.544355 1_555
O26 P4 1.530647 1_555
O27 P7 1.486368 1_555
O28 P7 1.623847 1_555
O29 P3 1.541537 1_555
O30 P5 1.541537 1_555
O31 P3 1.544355 1_555
