# generated using pymatgen
data_Sr8MgZn4(WO6)4
_symmetry_space_group_name_H-M   'P 1'
_cell_length_a   8.13820406
_cell_length_b   8.05432979
_cell_length_c   8.40397905
_cell_angle_alpha   89.13106793
_cell_angle_beta   90.12805970
_cell_angle_gamma   91.80942947
_symmetry_Int_Tables_number   1
_chemical_formula_structural   Sr8MgZn4(WO6)4
_chemical_formula_sum   'Sr8 Mg1 Zn4 W4 O24'
_cell_volume   550.52332660
_cell_formula_units_Z   1
loop_
 _symmetry_equiv_pos_site_id
 _symmetry_equiv_pos_as_xyz
  1  'x, y, z'
loop_
 _atom_site_type_symbol
 _atom_site_label
 _atom_site_symmetry_multiplicity
 _atom_site_fract_x
 _atom_site_fract_y
 _atom_site_fract_z
 _atom_site_occupancy
  Sr  Sr0  1  0.72904000  0.52836400  0.50005100  1
  Sr  Sr1  1  0.24129700  0.51784400  0.50354100  1
  Sr  Sr2  1  0.69219700  0.00521300  0.50513300  1
  Sr  Sr3  1  0.26792700  0.02060300  0.49776300  1
  Sr  Sr4  1  0.74638400  0.46334200  0.97896500  1
  Sr  Sr5  1  0.30235200  0.48279100  0.98128100  1
  Sr  Sr6  1  0.27212400  0.96526500  0.99312600  1
  Sr  Sr7  1  0.77407500  0.98085900  0.00084700  1
  Mg  Mg0  1  0.03172900  0.61861300  0.16760500  1
  Zn  Zn0  1  0.99268400  0.22687500  0.70529400  1
  Zn  Zn1  1  0.96833700  0.88477400  0.34146600  1
  Zn  Zn2  1  0.50369300  0.24794600  0.24574000  1
  Zn  Zn3  1  0.50479200  0.74721100  0.74978900  1
  W  W0  1  0.00398200  0.25636200  0.25780800  1
  W  W1  1  0.00071300  0.74452200  0.74933700  1
  W  W2  1  0.49949200  0.24478900  0.74430600  1
  W  W3  1  0.50339100  0.74413700  0.24124700  1
  O  O0  1  0.03740000  0.02149000  0.16641000  1
  O  O1  1  0.03054600  0.98438600  0.79182300  1
  O  O2  1  0.02902800  0.38959800  0.05447600  1
  O  O3  1  0.94210900  0.71674900  0.97232400  1
  O  O4  1  0.97672900  0.48022700  0.35339300  1
  O  O5  1  0.97002800  0.50659600  0.71058500  1
  O  O6  1  0.97461300  0.13390600  0.47681100  1
  O  O7  1  0.06536200  0.78159700  0.52300500  1
  O  O8  1  0.76662300  0.22252000  0.21390800  1
  O  O9  1  0.23521500  0.71415000  0.79006900  1
  O  O10  1  0.73954000  0.21737400  0.77275500  1
  O  O11  1  0.25840500  0.70161300  0.19664900  1
  O  O12  1  0.76930500  0.77722800  0.69737600  1
  O  O13  1  0.24322200  0.27153700  0.29579000  1
  O  O14  1  0.47214100  0.98538700  0.26120400  1
  O  O15  1  0.46977300  0.00477300  0.72582000  1
  O  O16  1  0.47495700  0.22956200  0.97575800  1
  O  O17  1  0.53581400  0.76727200  0.99924500  1
  O  O18  1  0.52963100  0.26216400  0.51382500  1
  O  O19  1  0.47430400  0.73049500  0.48496300  1
  O  O20  1  0.54015700  0.50600000  0.22209500  1
  O  O21  1  0.53059800  0.48593600  0.75945100  1
  O  O22  1  0.75479600  0.78402400  0.28739800  1
  O  O23  1  0.26216400  0.27090600  0.71656600  1
loop_
_geom_bond_atom_site_label_1
_geom_bond_atom_site_label_2
_geom_bond_distance
_geom_bond_site_symmetry_2
Sr2 Zn1 2.841675 1_545
Mg0 O4 1.949197 1_455
Mg0 O11 1.958211 1_555
Mg0 O3 1.960039 1_454
Mg0 O2 2.087420 1_555
O0 Zn1 1.899540 1_445
O0 W0 2.078488 1_555
O0 Sr6 2.462086 1_544
O0 Sr7 2.567424 1_445
O1 W1 1.977309 1_555
O1 Zn0 2.105283 1_465
O1 Sr6 2.597551 1_555
O1 Sr7 2.730231 1_456
O2 W0 2.011284 1_555
O2 Sr5 2.403388 1_554
O2 Sr4 2.472813 1_454
O3 W1 1.942637 1_655
O3 Sr4 2.549059 1_555
O3 Sr7 2.579387 1_556
O4 W0 2.003886 1_655
O4 Sr0 2.409892 1_555
O4 Sr1 2.505627 1_655
O5 W1 1.956810 1_655
O5 Zn0 2.267407 1_555
O5 Sr0 2.646579 1_555
O5 Sr1 2.812335 1_655
O5 Sr4 2.911282 1_555
O6 Zn0 2.074793 1_555
O6 W0 2.085513 1_655
O6 Zn1 2.320619 1_545
O6 Sr2 2.501606 1_555
O6 Sr3 2.587010 1_655
O7 Zn1 1.907691 1_455
O7 W1 1.990289 1_555
O7 Sr3 2.501425 1_565
O7 Sr1 2.606404 1_555
O8 W0 1.976966 1_655
O8 Zn2 2.173487 1_555
O8 Sr7 2.666828 1_545
O8 Sr4 2.755077 1_554
O8 Sr2 3.038099 1_555
O9 W1 1.960389 1_555
O9 Zn3 2.227615 1_555
O9 Sr5 2.514508 1_555
O9 Sr6 2.675278 1_555
O9 Sr1 2.902011 1_555
O10 W2 1.986420 1_555
O10 Zn0 2.136678 1_555
O10 Sr4 2.651010 1_555
O10 Sr7 2.702403 1_546
O10 Sr2 2.863218 1_555
O11 W3 2.047007 1_555
O11 Sr5 2.578674 1_554
O11 Sr6 2.706120 1_554
O11 Sr1 2.955473 1_555
O12 W1 1.957258 1_655
O12 Zn3 2.203307 1_555
O12 Sr2 2.520733 1_565
O12 Sr0 2.632878 1_555
O13 W0 1.972549 1_555
O13 Zn2 2.176759 1_555
O13 Sr3 2.631817 1_555
O13 Sr1 2.662947 1_555
O13 Sr5 3.151253 1_554
O14 W3 1.977310 1_555
O14 Zn2 2.124254 1_565
O14 Sr3 2.618475 1_565
O14 Sr2 2.722230 1_565
O14 Sr6 2.780218 1_554
O15 W2 1.949150 1_555
O15 Zn3 2.109433 1_545
O15 Sr3 2.525796 1_555
O15 Sr2 2.594362 1_555
O15 Sr6 2.774377 1_545
O16 W2 1.957383 1_555
O16 Zn2 2.286976 1_556
O16 Sr5 2.513829 1_555
O16 Sr6 2.654687 1_545
O16 Sr4 2.857301 1_555
O16 Sr7 3.205554 1_546
O17 W3 2.056309 1_556
O17 Zn3 2.119001 1_555
O17 Sr7 2.551340 1_556
O17 Sr6 2.713670 1_555
O17 Sr5 2.935474 1_555
O17 Sr4 3.039248 1_555
O18 W2 1.955322 1_555
O18 Zn2 2.266664 1_555
O18 Sr2 2.493329 1_555
O18 Sr0 2.649069 1_555
O18 Sr3 2.843357 1_555
O18 Sr1 3.170699 1_555
O19 W3 2.063217 1_555
O19 Zn3 2.244429 1_555
O19 Sr1 2.518300 1_555
O19 Sr0 2.677681 1_555
O19 Sr2 2.798452 1_565
O19 Sr3 2.923782 1_565
O20 W3 1.959619 1_555
O20 Zn2 2.096735 1_555
O20 Sr4 2.680064 1_554
O20 Sr0 2.798420 1_555
O20 Sr5 2.801289 1_554
O21 W2 1.956790 1_555
O21 Zn3 2.121751 1_555
O21 Sr4 2.552609 1_555
O21 Sr5 2.633916 1_555
O21 Sr0 2.726818 1_555
O21 Sr1 3.198963 1_555
O22 Zn1 1.950293 1_555
O22 W3 2.097241 1_555
O22 Sr2 2.634777 1_565
O22 Sr0 2.709383 1_555
O22 Sr7 2.864871 1_555
O23 W2 1.962435 1_555
O23 Zn0 2.212540 1_455
O23 Sr1 2.664890 1_555
O23 Sr3 2.750743 1_555
O23 Sr5 2.836403 1_555
