# generated using pymatgen
data_MgV4O7F5
_symmetry_space_group_name_H-M   'P 1'
_cell_length_a   5.07758555
_cell_length_b   7.72783500
_cell_length_c   5.24470764
_cell_angle_alpha   94.30123062
_cell_angle_beta   89.35885437
_cell_angle_gamma   90.01691926
_symmetry_Int_Tables_number   1
_chemical_formula_structural   MgV4O7F5
_chemical_formula_sum   'Mg1 V4 O7 F5'
_cell_volume   205.20323924
_cell_formula_units_Z   1
loop_
 _symmetry_equiv_pos_site_id
 _symmetry_equiv_pos_as_xyz
  1  'x, y, z'
loop_
 _atom_site_type_symbol
 _atom_site_label
 _atom_site_symmetry_multiplicity
 _atom_site_fract_x
 _atom_site_fract_y
 _atom_site_fract_z
 _atom_site_occupancy
  Mg  Mg0  1  0.99127100  0.71841700  0.58729400  1
  V  V0  1  0.49181100  0.48563100  0.46609000  1
  V  V1  1  0.50054200  0.01038200  0.53063200  1
  V  V2  1  0.01004400  0.48904000  0.00386400  1
  V  V3  1  0.97633400  0.00768700  0.03061800  1
  O  O0  1  0.82898900  0.55900500  0.29985200  1
  O  O1  1  0.81501400  0.94032600  0.69405800  1
  O  O2  1  0.70174700  0.95806300  0.19628700  1
  O  O3  1  0.31895000  0.44008900  0.19569700  1
  O  O4  1  0.29210300  0.04504900  0.78060200  1
  O  O5  1  0.19925500  0.04112900  0.27142400  1
  O  O6  1  0.19302100  0.47410700  0.70680700  1
  F  F0  1  0.88227100  0.25080800  0.99708200  1
  F  F1  1  0.70450200  0.56799900  0.78405900  1
  F  F2  1  0.62109400  0.25548800  0.51492100  1
  F  F3  1  0.37496500  0.74433700  0.48641100  1
  F  F4  1  0.09808500  0.75351200  0.97930100  1
loop_
_geom_bond_atom_site_label_1
_geom_bond_atom_site_label_2
_geom_bond_distance
_geom_bond_site_symmetry_2
Mg0 O1 1.975082 1_555
Mg0 O0 2.053755 1_555
Mg0 O6 2.280310 1_655
O0 V2 1.841140 1_655
O0 V0 2.013197 1_555
O1 V1 1.917846 1_565
O1 V3 1.987961 1_566
O2 V3 1.693659 1_565
O2 V1 2.033696 1_565
O3 V0 1.690608 1_555
O3 V2 1.925693 1_555
O4 V1 1.681403 1_555
O4 V3 2.093549 1_456
O5 V3 1.710529 1_455
O5 V1 2.083302 1_555
O6 V2 1.801250 1_556
O6 V0 1.969117 1_555
F0 V2 1.949747 1_656
F0 V3 1.959825 1_556
F1 V0 2.057478 1_555
F1 V2 2.062593 1_656
F1 Mg0 2.163718 1_555
F2 V0 1.931935 1_555
F2 V1 1.997707 1_555
F3 Mg0 2.026895 1_455
F3 V0 2.080296 1_555
F3 V1 2.149025 1_565
F4 V3 2.056812 1_466
F4 V2 2.105043 1_556
F4 Mg0 2.129769 1_455
