# generated using pymatgen
data_Fe2P5O16
_symmetry_space_group_name_H-M   'P 1'
_cell_length_a   6.84945900
_cell_length_b   5.14819800
_cell_length_c   18.97942460
_cell_angle_alpha   89.59140607
_cell_angle_beta   90.00000000
_cell_angle_gamma   90.00000000
_symmetry_Int_Tables_number   1
_chemical_formula_structural   Fe2P5O16
_chemical_formula_sum   'Fe4 P10 O32'
_cell_volume   669.24249636
_cell_formula_units_Z   2
loop_
 _symmetry_equiv_pos_site_id
 _symmetry_equiv_pos_as_xyz
  1  'x, y, z'
loop_
 _atom_site_type_symbol
 _atom_site_label
 _atom_site_symmetry_multiplicity
 _atom_site_fract_x
 _atom_site_fract_y
 _atom_site_fract_z
 _atom_site_occupancy
  Fe  Fe0  1  0.18270800  0.73992200  0.90602600  1
  Fe  Fe1  1  0.81729200  0.26007800  0.09397400  1
  Fe  Fe2  1  0.81729200  0.73992200  0.40602600  1
  Fe  Fe3  1  0.18270800  0.26007800  0.59397400  1
  P  P0  1  0.12866700  0.23385700  0.42190500  1
  P  P1  1  0.87133300  0.23385700  0.92190500  1
  P  P2  1  0.46265100  0.75326000  0.63026700  1
  P  P3  1  0.73787400  0.00000000  0.25000000  1
  P  P4  1  0.12866700  0.76614300  0.07809500  1
  P  P5  1  0.53734900  0.75326000  0.13026700  1
  P  P6  1  0.26212600  0.00000000  0.75000000  1
  P  P7  1  0.87133300  0.76614300  0.57809500  1
  P  P8  1  0.53734900  0.24674000  0.36973300  1
  P  P9  1  0.46265100  0.24674000  0.86973300  1
  O  O0  1  0.01623500  0.42148900  0.88825100  1
  O  O1  1  0.21306000  0.33580600  0.49079400  1
  O  O2  1  0.63061900  0.95518600  0.08338700  1
  O  O3  1  0.21306000  0.66419400  0.00920600  1
  O  O4  1  0.14882700  0.15391200  0.69647700  1
  O  O5  1  0.41048100  0.19566800  0.78831700  1
  O  O6  1  0.98376500  0.57851100  0.11174900  1
  O  O7  1  0.78694000  0.33580600  0.99079400  1
  O  O8  1  0.98376500  0.42148900  0.38825100  1
  O  O9  1  0.01623500  0.57851100  0.61174900  1
  O  O10  1  0.14882700  0.84608800  0.80352300  1
  O  O11  1  0.30678000  0.21159100  0.36541700  1
  O  O12  1  0.42066700  0.47308700  0.61421400  1
  O  O13  1  0.63061900  0.04481400  0.41661300  1
  O  O14  1  0.42066700  0.52691300  0.88578600  1
  O  O15  1  0.94655300  0.04407500  0.57245300  1
  O  O16  1  0.05344700  0.04407500  0.07245300  1
  O  O17  1  0.36938100  0.04481400  0.91661300  1
  O  O18  1  0.85117300  0.84608800  0.30352300  1
  O  O19  1  0.58951900  0.19566800  0.28831700  1
  O  O20  1  0.57933300  0.52691300  0.38578600  1
  O  O21  1  0.78694000  0.66419400  0.50920600  1
  O  O22  1  0.85117300  0.15391200  0.19647700  1
  O  O23  1  0.05344700  0.95592500  0.42754700  1
  O  O24  1  0.94655300  0.95592500  0.92754700  1
  O  O25  1  0.41048100  0.80433200  0.71168300  1
  O  O26  1  0.58951900  0.80433200  0.21168300  1
  O  O27  1  0.57933300  0.47308700  0.11421400  1
  O  O28  1  0.30678000  0.78840900  0.13458300  1
  O  O29  1  0.69322000  0.21159100  0.86541700  1
  O  O30  1  0.36938100  0.95518600  0.58338700  1
  O  O31  1  0.69322000  0.78840900  0.63458300  1
loop_
_geom_bond_atom_site_label_1
_geom_bond_atom_site_label_2
_geom_bond_distance
_geom_bond_site_symmetry_2
Fe0 O14 2.003167 1_555
Fe0 O3 2.004807 1_556
Fe0 O24 2.006572 1_455
Fe0 O0 2.027155 1_555
Fe0 O10 2.030317 1_555
Fe0 O17 2.035558 1_565
Fe1 O27 2.003167 1_555
Fe1 O7 2.004807 1_554
Fe1 O16 2.006572 1_655
Fe1 O6 2.027155 1_555
Fe1 O22 2.030317 1_555
Fe1 O2 2.035558 1_545
Fe2 O20 2.003167 1_555
Fe2 O21 2.004807 1_555
Fe2 O23 2.006572 1_655
Fe2 O8 2.027155 1_555
Fe2 O18 2.030317 1_555
Fe2 O13 2.035558 1_565
Fe3 O12 2.003167 1_555
Fe3 O1 2.004807 1_555
Fe3 O15 2.006572 1_455
Fe3 O9 2.027155 1_555
Fe3 O4 2.030317 1_555
Fe3 O30 2.035558 1_545
O0 P1 1.522278 1_455
O1 P0 1.526068 1_555
O2 P5 1.505747 1_555
O3 P4 1.526068 1_555
O4 P6 1.500175 1_555
O5 P6 1.608295 1_555
O5 P9 1.609456 1_555
O6 P4 1.522278 1_655
O7 P1 1.526068 1_555
O8 P0 1.522278 1_655
O9 P7 1.522278 1_455
O10 P6 1.500175 1_565
O11 P8 1.591782 1_555
O11 P0 1.628698 1_555
O12 P2 1.504084 1_555
O13 P8 1.505747 1_555
O14 P9 1.504084 1_555
O15 P7 1.523830 1_545
O16 P4 1.523830 1_545
O17 P9 1.505747 1_555
O18 P3 1.500175 1_565
O19 P3 1.608295 1_555
O19 P8 1.609456 1_555
O20 P8 1.504084 1_555
O21 P7 1.526068 1_555
O22 P3 1.500175 1_555
O23 P0 1.523830 1_565
O24 P1 1.523830 1_565
O25 P6 1.608295 1_565
O25 P2 1.609456 1_555
O26 P3 1.608295 1_565
O26 P5 1.609456 1_555
O27 P5 1.504084 1_555
O28 P5 1.591782 1_555
O28 P4 1.628698 1_555
O29 P9 1.591782 1_555
O29 P1 1.628698 1_555
O30 P2 1.505747 1_555
O31 P2 1.591782 1_555
O31 P7 1.628698 1_555
