# generated using pymatgen
data_MgCo4(CuO4)2
_symmetry_space_group_name_H-M   'P 1'
_cell_length_a   6.25746523
_cell_length_b   5.88354490
_cell_length_c   5.84828169
_cell_angle_alpha   60.00902817
_cell_angle_beta   90.93316509
_cell_angle_gamma   119.01895103
_symmetry_Int_Tables_number   1
_chemical_formula_structural   MgCo4(CuO4)2
_chemical_formula_sum   'Mg1 Co4 Cu2 O8'
_cell_volume   155.62792968
_cell_formula_units_Z   1
loop_
 _symmetry_equiv_pos_site_id
 _symmetry_equiv_pos_as_xyz
  1  'x, y, z'
loop_
 _atom_site_type_symbol
 _atom_site_label
 _atom_site_symmetry_multiplicity
 _atom_site_fract_x
 _atom_site_fract_y
 _atom_site_fract_z
 _atom_site_occupancy
  Mg  Mg0  1  0.62500000  0.75000000  0.12500000  1
  Co  Co0  1  0.09168900  0.06770600  0.97472900  1
  Co  Co1  1  0.62500000  0.25000000  0.62500000  1
  Co  Co2  1  0.15831100  0.43229400  0.27527100  1
  Co  Co3  1  0.12500000  0.75000000  0.62500000  1
  Cu  Cu0  1  0.62500000  0.25000000  0.12500000  1
  Cu  Cu1  1  0.62500000  0.75000000  0.62500000  1
  O  O0  1  0.80124700  0.19886700  0.40010500  1
  O  O1  1  0.37865200  0.25339700  0.37226600  1
  O  O2  1  0.87134800  0.24660300  0.87773400  1
  O  O3  1  0.87164800  0.75390000  0.37489800  1
  O  O4  1  0.87351500  0.75552300  0.88141500  1
  O  O5  1  0.44875300  0.30113300  0.84989500  1
  O  O6  1  0.37648500  0.74447700  0.36858500  1
  O  O7  1  0.37835200  0.74610000  0.87510200  1
loop_
_geom_bond_atom_site_label_1
_geom_bond_atom_site_label_2
_geom_bond_distance
_geom_bond_site_symmetry_2
Mg0 O6 2.103691 1_555
Mg0 O4 2.103691 1_554
Mg0 O3 2.108124 1_555
Mg0 O7 2.108124 1_554
Mg0 O2 2.117339 1_564
Mg0 O1 2.117339 1_555
Co0 O5 1.866807 1_555
Co0 O4 2.019964 1_445
Co0 O3 2.024973 1_446
Co0 O2 2.028858 1_455
Co1 O5 1.949720 1_555
Co1 O0 1.949720 1_555
Co1 O1 2.118365 1_555
Co1 O2 2.118365 1_555
Co1 O3 2.147084 1_555
Co1 O7 2.147084 1_545
Co2 O0 1.866807 1_455
Co2 O6 2.019964 1_555
Co2 O7 2.024973 1_554
Co2 O1 2.028858 1_555
Co3 O7 2.139962 1_555
Co3 O3 2.139962 1_455
Co3 O2 2.148263 1_455
Co3 O1 2.148263 1_565
Co3 O4 2.213913 1_455
Co3 O6 2.213913 1_555
Cu0 O5 1.917172 1_554
Cu0 O0 1.917172 1_555
Cu0 O1 2.144577 1_555
Cu0 O2 2.144577 1_554
Cu0 O4 2.154720 1_554
Cu0 O6 2.154720 1_545
Cu1 O0 1.915628 1_565
Cu1 O5 1.915628 1_555
Cu1 O3 2.127815 1_555
Cu1 O7 2.127815 1_555
Cu1 O6 2.142850 1_555
Cu1 O4 2.142850 1_555
