# generated using pymatgen
data_Dy3SbO7
_symmetry_space_group_name_H-M   'P 1'
_cell_length_a   6.41738040
_cell_length_b   6.41738040
_cell_length_c   7.45406331
_cell_angle_alpha   90.00000000
_cell_angle_beta   90.00000000
_cell_angle_gamma   109.40954392
_symmetry_Int_Tables_number   1
_chemical_formula_structural   Dy3SbO7
_chemical_formula_sum   'Dy6 Sb2 O14'
_cell_volume   289.53254416
_cell_formula_units_Z   2
loop_
 _symmetry_equiv_pos_site_id
 _symmetry_equiv_pos_as_xyz
  1  'x, y, z'
loop_
 _atom_site_type_symbol
 _atom_site_label
 _atom_site_symmetry_multiplicity
 _atom_site_fract_x
 _atom_site_fract_y
 _atom_site_fract_z
 _atom_site_occupancy
  Dy  Dy0  1  0.99991614  0.46827092  0.74931328  1
  Dy  Dy1  1  0.00008386  0.53172908  0.24931328  1
  Dy  Dy2  1  0.53172908  0.00008386  0.75068672  1
  Dy  Dy3  1  0.46827092  0.99991614  0.25068672  1
  Dy  Dy4  1  0.50392010  0.50392010  0.50000000  1
  Dy  Dy5  1  0.49607990  0.49607990  -0.00000000  1
  Sb  Sb0  1  0.00008008  0.00008008  0.50000000  1
  Sb  Sb1  1  -0.00008008  -0.00008008  -0.00000000  1
  O  O0  1  0.63711148  0.36288852  0.75000000  1
  O  O1  1  0.36288852  0.63711148  0.25000000  1
  O  O2  1  0.93114114  0.06885886  0.75000000  1
  O  O3  1  0.06885886  0.93114114  0.25000000  1
  O  O4  1  0.92651451  0.67845760  0.52984792  1
  O  O5  1  0.07348549  0.32154240  0.02984792  1
  O  O6  1  0.32154240  0.07348549  0.97015208  1
  O  O7  1  0.67845760  0.92651451  0.47015208  1
  O  O8  1  0.37011597  0.62988403  0.75000000  1
  O  O9  1  0.62988403  0.37011597  0.25000000  1
  O  O10  1  0.92991194  0.67992268  0.96879676  1
  O  O11  1  0.07008806  0.32007732  0.46879676  1
  O  O12  1  0.32007732  0.07008806  0.53120324  1
  O  O13  1  0.67992268  0.92991194  0.03120324  1
loop_
_geom_bond_atom_site_label_1
_geom_bond_atom_site_label_2
_geom_bond_distance
_geom_bond_site_symmetry_2
Dy0 O0 2.198101 1_555
Dy0 O8 2.254344 1_655
Dy0 O10 2.264697 1_555
Dy0 O4 2.267104 1_555
Dy0 O11 2.400851 1_655
Dy0 O5 2.403705 1_656
Dy0 O2 2.452106 1_555
Dy1 O1 2.198101 1_555
Dy1 O9 2.254344 1_455
Dy1 O11 2.264697 1_555
Dy1 O5 2.267104 1_555
Dy1 O10 2.400851 1_454
Dy1 O4 2.403705 1_455
Dy1 O3 2.452106 1_555
Dy2 O0 2.198101 1_555
Dy2 O8 2.254344 1_545
Dy2 O12 2.264697 1_555
Dy2 O6 2.267104 1_555
Dy2 O13 2.400851 1_546
Dy2 O7 2.403705 1_545
Dy2 O2 2.452106 1_555
Dy3 O1 2.198101 1_555
Dy3 O9 2.254344 1_565
Dy3 O13 2.264697 1_555
Dy3 O7 2.267104 1_555
Dy3 O12 2.400851 1_565
Dy3 O6 2.403705 1_564
Dy3 O3 2.452106 1_555
Dy4 O8 2.307550 1_555
Dy4 O9 2.307550 1_555
Dy4 O1 2.352987 1_555
Dy4 O0 2.352987 1_555
Dy4 O7 2.576790 1_555
Dy4 O4 2.576790 1_555
Dy4 O12 2.648386 1_555
Dy4 O11 2.648386 1_555
Dy5 O8 2.307550 1_554
Dy5 O9 2.307550 1_555
Dy5 O1 2.352987 1_555
Dy5 O0 2.352987 1_554
Dy5 O5 2.576790 1_555
Dy5 O6 2.576790 1_554
Dy5 O13 2.648386 1_555
Dy5 O10 2.648386 1_554
O2 Sb1 1.998253 1_656
O2 Sb0 1.998253 1_655
O3 Sb1 1.998253 1_565
O3 Sb0 1.998253 1_565
O4 Sb0 1.970976 1_665
O5 Sb1 1.970976 1_555
O6 Sb1 1.970976 1_556
O7 Sb0 1.970976 1_665
O10 Sb1 1.964636 1_666
O11 Sb0 1.964636 1_555
O12 Sb0 1.964636 1_555
O13 Sb1 1.964636 1_665
