# generated using pymatgen
data_Na2YTaSi2SO12
_symmetry_space_group_name_H-M   'P 1'
_cell_length_a   9.15952857
_cell_length_b   9.15952824
_cell_length_c   23.18233034
_cell_angle_alpha   90.60594458
_cell_angle_beta   89.39405543
_cell_angle_gamma   119.29692384
_symmetry_Int_Tables_number   1
_chemical_formula_structural   Na2YTaSi2SO12
_chemical_formula_sum   'Na12 Y6 Ta6 Si12 S6 O72'
_cell_volume   1696.03484190
_cell_formula_units_Z   6
loop_
 _symmetry_equiv_pos_site_id
 _symmetry_equiv_pos_as_xyz
  1  'x, y, z'
loop_
 _atom_site_type_symbol
 _atom_site_label
 _atom_site_symmetry_multiplicity
 _atom_site_fract_x
 _atom_site_fract_y
 _atom_site_fract_z
 _atom_site_occupancy
  Na  Na0  1  0.98038262  0.62305311  0.24974972  1
  Na  Na1  1  0.37694689  0.01961738  0.74974972  1
  Na  Na2  1  0.64704962  0.95638611  0.58308272  1
  Na  Na3  1  0.04361389  0.35295038  0.08308272  1
  Na  Na4  1  0.31371562  0.28972011  0.91641672  1
  Na  Na5  1  0.71027989  0.68628438  0.41641672  1
  Na  Na6  1  0.00703109  0.98386185  0.49691366  1
  Na  Na7  1  0.01613815  0.99296891  0.99691366  1
  Na  Na8  1  0.67369809  0.31719485  0.83024666  1
  Na  Na9  1  0.68280515  0.32630191  0.33024666  1
  Na  Na10  1  0.34036409  0.65052885  0.16358066  1
  Na  Na11  1  0.34947115  0.65963591  0.66358066  1
  Y  Y0  1  0.99232068  0.00306812  0.35257981  1
  Y  Y1  1  0.99693188  0.00767932  0.85257981  1
  Y  Y2  1  0.65898768  0.33640112  0.68591281  1
  Y  Y3  1  0.66359888  0.34101232  0.18591281  1
  Y  Y4  1  0.32565368  0.66973512  0.01924681  1
  Y  Y5  1  0.33026488  0.67434632  0.51924681  1
  Ta  Ta0  1  0.99925662  0.00336862  0.64672048  1
  Ta  Ta1  1  0.99663138  0.00074338  0.14672048  1
  Ta  Ta2  1  0.66592362  0.33670162  0.98005348  1
  Ta  Ta3  1  0.66329838  0.33407638  0.48005348  1
  Ta  Ta4  1  0.33258962  0.67003562  0.31338748  1
  Ta  Ta5  1  0.32996438  0.66741038  0.81338748  1
  Si  Si0  1  0.70250950  0.71375575  0.25172771  1
  Si  Si1  1  0.00917056  0.30108480  0.25009462  1
  Si  Si2  1  0.28624425  0.29749050  0.75172771  1
  Si  Si3  1  0.69891520  0.99082944  0.75009462  1
  Si  Si4  1  0.36917650  0.04708875  0.58506071  1
  Si  Si5  1  0.67583756  0.63441780  0.58342762  1
  Si  Si6  1  0.95291125  0.63082350  0.08506071  1
  Si  Si7  1  0.36558220  0.32416244  0.08342762  1
  Si  Si8  1  0.03584250  0.38042275  0.91839471  1
  Si  Si9  1  0.34250356  0.96775180  0.91676162  1
  Si  Si10  1  0.61957725  0.96415750  0.41839471  1
  Si  Si11  1  0.03224820  0.65749644  0.41676162  1
  S  S0  1  0.28710078  0.99076869  0.24898891  1
  S  S1  1  0.00923131  0.71289922  0.74898891  1
  S  S2  1  0.95376778  0.32410169  0.58232191  1
  S  S3  1  0.67589831  0.04623222  0.08232191  1
  S  S4  1  0.62043378  0.65743569  0.91565591  1
  S  S5  1  0.34256431  0.37956622  0.41565591  1
  O  O0  1  0.21587026  0.01618948  0.30221325  1
  O  O1  1  0.81539809  0.78599711  0.30822106  1
  O  O2  1  0.99584950  0.19671628  0.30543495  1
  O  O3  1  0.21400289  0.18460191  0.80822106  1
  O  O4  1  0.98381052  0.78412974  0.80221325  1
  O  O5  1  0.80328372  0.00415050  0.80543495  1
  O  O6  1  0.80218498  0.97269118  0.69066805  1
  O  O7  1  0.15775703  0.18575940  0.69566061  1
  O  O8  1  0.03316572  0.82388044  0.69780132  1
  O  O9  1  0.81424060  0.84224297  0.19566061  1
  O  O10  1  0.02730882  0.19781502  0.19066805  1
  O  O11  1  0.17611956  0.96683428  0.19780132  1
  O  O12  1  0.88253726  0.34952248  0.63554625  1
  O  O13  1  0.48206509  0.11933011  0.64155406  1
  O  O14  1  0.66251650  0.53004928  0.63876795  1
  O  O15  1  0.88066989  0.51793491  0.14155406  1
  O  O16  1  0.65047752  0.11746274  0.13554625  1
  O  O17  1  0.46995072  0.33748350  0.13876795  1
  O  O18  1  0.46885198  0.30602418  0.02400105  1
  O  O19  1  0.82442403  0.51909240  0.02899361  1
  O  O20  1  0.69983272  0.15721344  0.03113432  1
  O  O21  1  0.48090760  0.17557597  0.52899361  1
  O  O22  1  0.69397582  0.53114802  0.52400105  1
  O  O23  1  0.84278656  0.30016728  0.53113432  1
  O  O24  1  0.54920326  0.68285648  0.96888025  1
  O  O25  1  0.14873109  0.45266411  0.97488806  1
  O  O26  1  0.32918250  0.86338328  0.97210195  1
  O  O27  1  0.54733589  0.85126891  0.47488806  1
  O  O28  1  0.31714352  0.45079674  0.46888025  1
  O  O29  1  0.13661672  0.67081750  0.47210195  1
  O  O30  1  0.13551798  0.63935818  0.35733505  1
  O  O31  1  0.49109003  0.85242640  0.36232761  1
  O  O32  1  0.36649872  0.49054744  0.36446832  1
  O  O33  1  0.14757360  0.50890997  0.86232761  1
  O  O34  1  0.36064182  0.86448202  0.85733505  1
  O  O35  1  0.50945256  0.63350128  0.86446832  1
  O  O36  1  -0.00016686  0.81541757  0.41283073  1
  O  O37  1  0.80542662  0.98764768  0.41229703  1
  O  O38  1  0.20819624  0.20936220  0.40818945  1
  O  O39  1  0.01235232  0.19457338  0.91229703  1
  O  O40  1  0.18458243  0.00016686  0.91283073  1
  O  O41  1  0.79063780  0.79180376  0.90818945  1
  O  O42  1  0.95494672  0.15779335  0.58628852  1
  O  O43  1  0.18248819  0.03621106  0.59276099  1
  O  O44  1  0.84931431  0.82627596  0.59085915  1
  O  O45  1  0.96378894  0.81751181  0.09276099  1
  O  O46  1  0.84220665  0.04505328  0.08628852  1
  O  O47  1  0.17372404  0.15068569  0.09085915  1
  O  O48  1  0.66650014  0.14875057  0.74616373  1
  O  O49  1  0.47209362  0.32098068  0.74563003  1
  O  O50  1  0.87486324  0.54269520  0.74152245  1
  O  O51  1  0.67901932  0.52790638  0.24563003  1
  O  O52  1  0.85124943  0.33349986  0.24616373  1
  O  O53  1  0.45730480  0.12513676  0.24152245  1
  O  O54  1  0.62161372  0.49112635  0.91962152  1
  O  O55  1  0.84915519  0.36954406  0.92609399  1
  O  O56  1  0.51598131  0.15960896  0.92419215  1
  O  O57  1  0.63045594  0.15084481  0.42609399  1
  O  O58  1  0.50887365  0.37838628  0.41962152  1
  O  O59  1  0.84039104  0.48401869  0.42419215  1
  O  O60  1  0.33316614  0.48208457  0.07949773  1
  O  O61  1  0.13875962  0.65431468  0.07896403  1
  O  O62  1  0.54152924  0.87602920  0.07485645  1
  O  O63  1  0.34568532  0.86124038  0.57896403  1
  O  O64  1  0.51791543  0.66683386  0.57949773  1
  O  O65  1  0.12397080  0.45847076  0.57485645  1
  O  O66  1  0.28827972  0.82446035  0.25295552  1
  O  O67  1  0.51582119  0.70287806  0.25942799  1
  O  O68  1  0.18264731  0.49294296  0.25752615  1
  O  O69  1  0.29712194  0.48417881  0.75942799  1
  O  O70  1  0.17553965  0.71172028  0.75295552  1
  O  O71  1  0.50705704  0.81735269  0.75752615  1
loop_
_geom_bond_atom_site_label_1
_geom_bond_atom_site_label_2
_geom_bond_distance
_geom_bond_site_symmetry_2
Na0 O52 2.316738 1_555
Na0 O51 2.457158 1_555
Na0 O66 2.504416 1_655
Na0 O68 2.656591 1_655
Na0 O15 2.681261 1_555
Na0 O30 2.849784 1_655
Na0 O1 2.910289 1_555
Na0 O11 3.014882 1_655
Na1 O48 2.316738 1_555
Na1 O49 2.457158 1_555
Na1 O70 2.504416 1_545
Na1 O71 2.656591 1_545
Na1 O13 2.681261 1_555
Na1 O34 2.849784 1_545
Na1 O3 2.910289 1_555
Na1 O8 3.014882 1_545
Na2 O64 2.316729 1_555
Na2 O63 2.457168 1_555
Na2 O42 2.504416 1_565
Na2 O44 2.656591 1_555
Na2 O27 2.681240 1_555
Na2 O6 2.849784 1_555
Na2 O13 2.910289 1_565
Na2 O23 3.014882 1_565
Na3 O60 2.316729 1_555
Na3 O61 2.457167 1_555
Na3 O46 2.504416 1_455
Na3 O47 2.656591 1_555
Na3 O25 2.681240 1_554
Na3 O10 2.849784 1_555
Na3 O15 2.910289 1_455
Na3 O20 3.014882 1_455
Na4 O40 2.316738 1_555
Na4 O39 2.457158 1_555
Na4 O54 2.504421 1_555
Na4 O56 2.656605 1_555
Na4 O3 2.681261 1_555
Na4 O18 2.849770 1_556
Na4 O25 2.910289 1_555
Na4 O35 3.014882 1_555
Na5 O36 2.316738 1_655
Na5 O37 2.457158 1_555
Na5 O58 2.504421 1_555
Na5 O59 2.656605 1_555
Na5 O1 2.681261 1_555
Na5 O22 2.849770 1_555
Na5 O27 2.910289 1_555
Na5 O32 3.014882 1_555
Na6 O36 2.454360 1_555
Na6 O44 2.621589 1_455
Na6 O43 2.654931 1_565
Na6 O37 2.720254 1_455
Na6 O42 2.776977 1_465
Na6 O38 2.859532 1_565
Na7 O40 2.454360 1_565
Na7 O47 2.621589 1_566
Na7 O45 2.654931 1_456
Na7 O39 2.720254 1_565
Na7 O46 2.776977 1_466
Na7 O41 2.859532 1_455
Na8 O48 2.454360 1_555
Na8 O56 2.621589 1_555
Na8 O55 2.654931 1_555
Na8 O49 2.720254 1_555
Na8 O54 2.776977 1_555
Na8 O50 2.859532 1_555
Na9 O52 2.454360 1_555
Na9 O59 2.621589 1_555
Na9 O57 2.654931 1_555
Na9 O51 2.720254 1_555
Na9 O58 2.776977 1_555
Na9 O53 2.859532 1_555
Na10 O60 2.454360 1_555
Na10 O68 2.621589 1_555
Na10 O67 2.654931 1_555
Na10 O61 2.720254 1_555
Na10 O66 2.776977 1_555
Na10 O62 2.859532 1_555
Na11 O64 2.454360 1_555
Na11 O71 2.621589 1_555
Na11 O69 2.654931 1_555
Na11 O63 2.720254 1_555
Na11 O70 2.776977 1_555
Na11 O65 2.859532 1_555
O0 S0 1.458727 1_545
O0 Y0 2.298266 1_455
O1 Si0 1.600905 1_555
O1 Y0 2.115533 1_565
O2 Si1 1.575790 1_655
O2 Y0 2.079852 1_555
O3 Si2 1.600905 1_555
O3 Y1 2.115533 1_455
O4 S1 1.458727 1_655
O4 Y1 2.298266 1_565
O5 Si3 1.575790 1_545
O5 Y1 2.079852 1_555
O6 Si3 1.715120 1_555
O6 Ta0 1.961126 1_565
O7 Si2 1.716765 1_555
O7 Ta0 1.951137 1_455
O8 S1 1.513754 1_555
O8 Ta0 2.179505 1_465
O9 Si0 1.716765 1_555
O9 Ta1 1.951137 1_565
O10 Si1 1.715120 1_555
O10 Ta1 1.961125 1_455
O11 S0 1.513754 1_555
O11 Ta1 2.179505 1_465
O12 S2 1.458727 1_555
O12 Y2 2.298266 1_555
O13 Si4 1.600905 1_555
O13 Y2 2.115533 1_555
O14 Si5 1.575790 1_555
O14 Y2 2.079852 1_555
O15 Si6 1.600905 1_555
O15 Y3 2.115533 1_555
O16 S3 1.458727 1_555
O16 Y3 2.298266 1_555
O17 Si7 1.575790 1_555
O17 Y3 2.079852 1_555
O18 Si7 1.715120 1_555
O18 Ta2 1.961126 1_554
O19 Si6 1.716765 1_555
O19 Ta2 1.951137 1_554
O20 S3 1.513754 1_555
O20 Ta2 2.179505 1_554
O21 Si4 1.716765 1_555
O21 Ta3 1.951137 1_555
O22 Si5 1.715120 1_555
O22 Ta3 1.961125 1_555
O23 S2 1.513754 1_555
O23 Ta3 2.179505 1_555
O24 S4 1.458727 1_555
O24 Y4 2.298266 1_556
O25 Si8 1.600905 1_555
O25 Y4 2.115533 1_556
O26 Si9 1.575790 1_555
O26 Y4 2.079852 1_556
O27 Si10 1.600905 1_555
O27 Y5 2.115533 1_555
O28 S5 1.458727 1_555
O28 Y5 2.298266 1_555
O29 Si11 1.575790 1_555
O29 Y5 2.079852 1_555
O30 Si11 1.715120 1_555
O30 Ta4 1.961126 1_555
O31 Si10 1.716765 1_555
O31 Ta4 1.951137 1_555
O32 S5 1.513754 1_555
O32 Ta4 2.179505 1_555
O33 Si8 1.716765 1_555
O33 Ta5 1.951137 1_555
O34 Si9 1.715120 1_555
O34 Ta5 1.961125 1_555
O35 S4 1.513754 1_555
O35 Ta5 2.179505 1_555
O36 Si11 1.616305 1_555
O36 Y0 2.253545 1_465
O37 Si10 1.612817 1_555
O37 Y0 2.141102 1_565
O38 S5 1.447807 1_555
O38 Y0 2.342643 1_455
O39 Si8 1.612817 1_555
O39 Y1 2.141102 1_455
O40 Si9 1.616305 1_545
O40 Y1 2.253545 1_455
O41 S4 1.447807 1_555
O41 Y1 2.342643 1_565
O42 S2 1.532356 1_555
O42 Ta0 2.178037 1_555
O43 Si4 1.671226 1_555
O43 Ta0 1.985309 1_455
O44 Si5 1.705669 1_555
O44 Ta0 2.001833 1_565
O45 Si6 1.671226 1_555
O45 Ta1 1.985309 1_565
O46 S3 1.532356 1_555
O46 Ta1 2.178037 1_555
O47 Si7 1.705669 1_555
O47 Ta1 2.001833 1_455
O48 Si3 1.616305 1_545
O48 Y2 2.253545 1_555
O49 Si2 1.612817 1_555
O49 Y2 2.141102 1_555
O50 S1 1.447807 1_655
O50 Y2 2.342643 1_555
O51 Si0 1.612817 1_555
O51 Y3 2.141102 1_555
O52 Si1 1.616305 1_655
O52 Y3 2.253545 1_555
O53 S0 1.447807 1_545
O53 Y3 2.342643 1_555
O54 S4 1.532368 1_555
O54 Ta2 2.178037 1_555
O55 Si8 1.671210 1_655
O55 Ta2 1.985309 1_555
O56 Si9 1.705666 1_545
O56 Ta2 2.001833 1_555
O57 Si10 1.671210 1_545
O57 Ta3 1.985309 1_555
O58 S5 1.532368 1_555
O58 Ta3 2.178037 1_555
O59 Si11 1.705666 1_655
O59 Ta3 2.001833 1_555
O60 Si7 1.616318 1_555
O60 Y4 2.253545 1_555
O61 Si6 1.612802 1_455
O61 Y4 2.141102 1_555
O62 S3 1.447802 1_565
O62 Y4 2.342643 1_555
O63 Si4 1.612802 1_565
O63 Y5 2.141102 1_555
O64 Si5 1.616318 1_555
O64 Y5 2.253545 1_555
O65 S2 1.447802 1_455
O65 Y5 2.342643 1_555
O66 S0 1.532356 1_555
O66 Ta4 2.178037 1_555
O67 Si0 1.671226 1_555
O67 Ta4 1.985309 1_555
O68 Si1 1.705669 1_555
O68 Ta4 2.001833 1_555
O69 Si2 1.671226 1_555
O69 Ta5 1.985309 1_555
O70 S1 1.532356 1_555
O70 Ta5 2.178037 1_555
O71 Si3 1.705669 1_555
O71 Ta5 2.001833 1_555
