# generated using pymatgen
data_Na12Mg5Ta(PO4)9
_symmetry_space_group_name_H-M   'P 1'
_cell_length_a   9.03208353
_cell_length_b   9.03208322
_cell_length_c   21.97570379
_cell_angle_alpha   90.00000000
_cell_angle_beta   90.00000000
_cell_angle_gamma   120.00000116
_symmetry_Int_Tables_number   1
_chemical_formula_structural   Na12Mg5Ta(PO4)9
_chemical_formula_sum   'Na24 Mg10 Ta2 P18 O72'
_cell_volume   1552.56322594
_cell_formula_units_Z   2
loop_
 _symmetry_equiv_pos_site_id
 _symmetry_equiv_pos_as_xyz
  1  'x, y, z'
loop_
 _atom_site_type_symbol
 _atom_site_label
 _atom_site_symmetry_multiplicity
 _atom_site_fract_x
 _atom_site_fract_y
 _atom_site_fract_z
 _atom_site_occupancy
  Na  Na0  1  0.63494948  0.99945174  0.25029840  1
  Na  Na1  1  0.36450226  0.36505052  0.25029840  1
  Na  Na2  1  0.00054826  0.63549774  0.25029840  1
  Na  Na3  1  0.63494948  0.63549774  0.75029840  1
  Na  Na4  1  0.00054826  0.36505052  0.75029840  1
  Na  Na5  1  0.36450226  0.99945174  0.75029840  1
  Na  Na6  1  0.29356801  0.33407474  0.58899950  1
  Na  Na7  1  0.04050774  0.70643199  0.58899950  1
  Na  Na8  1  0.66592526  0.95949226  0.58899950  1
  Na  Na9  1  0.29356801  0.95949226  0.08899950  1
  Na  Na10  1  0.66592526  0.70643199  0.08899950  1
  Na  Na11  1  0.04050774  0.33407474  0.08899950  1
  Na  Na12  1  0.98283686  0.68279530  0.90602664  1
  Na  Na13  1  0.69995744  0.01716314  0.90602664  1
  Na  Na14  1  0.31720470  0.30004256  0.90602664  1
  Na  Na15  1  0.98283686  0.30004256  0.40602664  1
  Na  Na16  1  0.31720470  0.01716314  0.40602664  1
  Na  Na17  1  0.69995744  0.68279530  0.40602664  1
  Na  Na18  1  -0.00000000  -0.00000000  0.49974237  1
  Na  Na19  1  -0.00000000  -0.00000000  0.99974237  1
  Na  Na20  1  0.66666700  0.33333300  0.82173937  1
  Na  Na21  1  0.66666700  0.33333300  0.32173937  1
  Na  Na22  1  0.33333300  0.66666700  0.17165503  1
  Na  Na23  1  0.33333300  0.66666700  0.67165503  1
  Mg  Mg0  1  -0.00000000  -0.00000000  0.34572859  1
  Mg  Mg1  1  -0.00000000  -0.00000000  0.84572859  1
  Mg  Mg2  1  -0.00000000  -0.00000000  0.65293186  1
  Mg  Mg3  1  -0.00000000  -0.00000000  0.15293186  1
  Mg  Mg4  1  0.66666700  0.33333300  0.68477158  1
  Mg  Mg5  1  0.66666700  0.33333300  0.18477158  1
  Mg  Mg6  1  0.33333300  0.66666700  0.01674188  1
  Mg  Mg7  1  0.33333300  0.66666700  0.51674188  1
  Mg  Mg8  1  0.33333300  0.66666700  0.31623532  1
  Mg  Mg9  1  0.33333300  0.66666700  0.81623532  1
  Ta  Ta0  1  0.66666700  0.33333300  0.98174567  1
  Ta  Ta1  1  0.66666700  0.33333300  0.48174567  1
  P  P0  1  0.29723645  0.99876730  0.24967202  1
  P  P1  1  0.70153085  0.70276355  0.24967202  1
  P  P2  1  0.00123270  0.29846915  0.24967202  1
  P  P3  1  0.29723645  0.29846915  0.74967202  1
  P  P4  1  0.00123270  0.70276355  0.74967202  1
  P  P5  1  0.70153085  0.99876730  0.74967202  1
  P  P6  1  0.96303555  0.33549964  0.58519023  1
  P  P7  1  0.37246509  0.03696445  0.58519023  1
  P  P8  1  0.66450036  0.62753491  0.58519023  1
  P  P9  1  0.96303555  0.62753491  0.08519023  1
  P  P10  1  0.66450036  0.03696445  0.08519023  1
  P  P11  1  0.37246509  0.33549964  0.08519023  1
  P  P12  1  0.62864308  0.66661926  0.91848006  1
  P  P13  1  0.03797518  0.37135692  0.91848006  1
  P  P14  1  0.33338074  0.96202482  0.91848006  1
  P  P15  1  0.62864308  0.96202482  0.41848006  1
  P  P16  1  0.33338074  0.37135692  0.41848006  1
  P  P17  1  0.03797518  0.66661926  0.41848006  1
  O  O0  1  0.21338975  0.02443517  0.30715379  1
  O  O1  1  0.81104542  0.78661025  0.30715379  1
  O  O2  1  0.97556483  0.18895458  0.30715379  1
  O  O3  1  0.21338975  0.18895458  0.80715379  1
  O  O4  1  0.97556483  0.78661025  0.80715379  1
  O  O5  1  0.81104542  0.02443517  0.80715379  1
  O  O6  1  0.78514014  0.97282214  0.69230287  1
  O  O7  1  0.18768199  0.21485986  0.69230287  1
  O  O8  1  0.02717786  0.81231801  0.69230287  1
  O  O9  1  0.78514014  0.81231801  0.19230287  1
  O  O10  1  0.02717786  0.21485986  0.19230287  1
  O  O11  1  0.18768199  0.97282214  0.19230287  1
  O  O12  1  0.87695627  0.36040690  0.64060857  1
  O  O13  1  0.48345164  0.12304373  0.64060857  1
  O  O14  1  0.63959310  0.51654836  0.64060857  1
  O  O15  1  0.87695627  0.51654836  0.14060857  1
  O  O16  1  0.63959310  0.12304373  0.14060857  1
  O  O17  1  0.48345164  0.36040690  0.14060857  1
  O  O18  1  0.47476628  0.31818984  0.02776487  1
  O  O19  1  0.84342455  0.52523372  0.02776487  1
  O  O20  1  0.68181016  0.15657545  0.02776487  1
  O  O21  1  0.47476628  0.15657545  0.52776487  1
  O  O22  1  0.68181016  0.52523372  0.52776487  1
  O  O23  1  0.84342455  0.31818984  0.52776487  1
  O  O24  1  0.54722124  0.69044120  0.97556950  1
  O  O25  1  0.14321896  0.45277876  0.97556950  1
  O  O26  1  0.30955880  0.85678104  0.97556950  1
  O  O27  1  0.54722124  0.85678104  0.47556950  1
  O  O28  1  0.30955880  0.45277876  0.47556950  1
  O  O29  1  0.14321896  0.69044120  0.47556950  1
  O  O30  1  0.11016677  0.62632823  0.36178910  1
  O  O31  1  0.51616046  0.88983323  0.36178910  1
  O  O32  1  0.37367177  0.48383954  0.36178910  1
  O  O33  1  0.11016677  0.48383954  0.86178910  1
  O  O34  1  0.37367177  0.88983323  0.86178910  1
  O  O35  1  0.51616046  0.62632823  0.86178910  1
  O  O36  1  0.00755939  0.82001761  0.41268255  1
  O  O37  1  0.81245822  0.99244061  0.41268255  1
  O  O38  1  0.17998239  0.18754178  0.41268255  1
  O  O39  1  0.00755939  0.18754178  0.91268255  1
  O  O40  1  0.17998239  0.99244061  0.91268255  1
  O  O41  1  0.81245822  0.82001761  0.91268255  1
  O  O42  1  0.97049612  0.16914720  0.58333381  1
  O  O43  1  0.19865108  0.02950388  0.58333381  1
  O  O44  1  0.83085280  0.80134892  0.58333381  1
  O  O45  1  0.97049612  0.80134892  0.08333381  1
  O  O46  1  0.83085280  0.02950388  0.08333381  1
  O  O47  1  0.19865108  0.16914720  0.08333381  1
  O  O48  1  0.68251784  0.16071362  0.74564762  1
  O  O49  1  0.47819677  0.31748216  0.74564762  1
  O  O50  1  0.83928638  0.52180323  0.74564762  1
  O  O51  1  0.68251784  0.52180323  0.24564762  1
  O  O52  1  0.83928638  0.31748216  0.24564762  1
  O  O53  1  0.47819677  0.16071362  0.24564762  1
  O  O54  1  0.64970708  0.49982760  0.92529890  1
  O  O55  1  0.85012151  0.35029292  0.92529890  1
  O  O56  1  0.50017240  0.14987849  0.92529890  1
  O  O57  1  0.64970708  0.14987849  0.42529890  1
  O  O58  1  0.50017240  0.35029292  0.42529890  1
  O  O59  1  0.85012151  0.49982760  0.42529890  1
  O  O60  1  0.35467846  0.49488894  0.07730284  1
  O  O61  1  0.14020948  0.64532154  0.07730284  1
  O  O62  1  0.50511106  0.85979052  0.07730284  1
  O  O63  1  0.35467846  0.85979052  0.57730284  1
  O  O64  1  0.50511106  0.64532154  0.57730284  1
  O  O65  1  0.14020948  0.49488894  0.57730284  1
  O  O66  1  0.31633582  0.83724905  0.25478152  1
  O  O67  1  0.52091223  0.68366418  0.25478152  1
  O  O68  1  0.16275095  0.47908777  0.25478152  1
  O  O69  1  0.31633582  0.47908777  0.75478152  1
  O  O70  1  0.16275095  0.68366418  0.75478152  1
  O  O71  1  0.52091223  0.83724905  0.75478152  1
loop_
_geom_bond_atom_site_label_1
_geom_bond_atom_site_label_2
_geom_bond_distance
_geom_bond_site_symmetry_2
Na0 O53 2.489696 1_565
Na0 O66 2.494284 1_555
Na0 O67 2.503594 1_555
Na0 O52 2.523164 1_565
Na0 O16 2.647945 1_565
Na0 O31 2.659334 1_555
Na0 O9 2.934986 1_555
Na0 O2 2.947819 1_565
Na1 O51 2.489704 1_555
Na1 O67 2.494284 1_555
Na1 O68 2.503602 1_555
Na1 O53 2.523171 1_555
Na1 O17 2.647949 1_555
Na1 O32 2.659336 1_555
Na1 O10 2.934986 1_555
Na1 O0 2.947819 1_555
Na2 O52 2.489704 1_455
Na2 O68 2.494276 1_555
Na2 O66 2.503595 1_555
Na2 O51 2.523163 1_455
Na2 O15 2.647947 1_455
Na2 O30 2.659332 1_555
Na2 O11 2.934986 1_555
Na2 O1 2.947819 1_455
Na3 O49 2.489704 1_555
Na3 O69 2.494284 1_555
Na3 O71 2.503602 1_555
Na3 O50 2.523171 1_555
Na3 O14 2.647949 1_555
Na3 O35 2.659336 1_555
Na3 O6 2.934986 1_555
Na3 O4 2.947819 1_555
Na4 O50 2.489696 1_455
Na4 O70 2.494284 1_555
Na4 O69 2.503594 1_555
Na4 O48 2.523164 1_455
Na4 O12 2.647945 1_455
Na4 O33 2.659334 1_555
Na4 O7 2.934986 1_555
Na4 O5 2.947819 1_455
Na5 O48 2.489704 1_565
Na5 O71 2.494276 1_555
Na5 O70 2.503595 1_555
Na5 O49 2.523163 1_565
Na5 O13 2.647947 1_565
Na5 O34 2.659332 1_555
Na5 O8 2.934986 1_555
Na5 O3 2.947819 1_565
Na6 O43 2.441232 1_555
Na6 O65 2.471099 1_555
Na6 O7 2.489562 1_555
Na6 O64 2.499666 1_555
Na6 O42 2.530324 1_455
Na6 O28 2.688694 1_555
Na6 O14 2.935872 1_555
Na7 O44 2.441241 1_455
Na7 O63 2.471083 1_555
Na7 O8 2.489564 1_555
Na7 O65 2.499653 1_555
Na7 O43 2.530324 1_565
Na7 O29 2.688688 1_555
Na7 O12 2.935872 1_455
Na8 O42 2.441234 1_565
Na8 O64 2.471084 1_555
Na8 O6 2.489561 1_555
Na8 O63 2.499670 1_555
Na8 O44 2.530316 1_555
Na8 O27 2.688692 1_555
Na8 O13 2.935872 1_565
Na9 O47 2.441241 1_565
Na9 O61 2.471083 1_555
Na9 O11 2.489564 1_555
Na9 O62 2.499653 1_555
Na9 O45 2.530324 1_455
Na9 O26 2.688688 1_554
Na9 O16 2.935872 1_565
Na10 O45 2.441232 1_555
Na10 O62 2.471099 1_555
Na10 O9 2.489562 1_555
Na10 O60 2.499666 1_555
Na10 O46 2.530323 1_565
Na10 O24 2.688694 1_554
Na10 O17 2.935872 1_555
Na11 O46 2.441234 1_455
Na11 O60 2.471084 1_555
Na11 O10 2.489561 1_555
Na11 O61 2.499670 1_555
Na11 O47 2.530316 1_555
Na11 O25 2.688692 1_554
Na11 O15 2.935872 1_455
Na12 O4 2.380374 1_555
Na12 O41 2.415147 1_555
Na12 O40 2.456389 1_655
Na12 O54 2.644093 1_555
Na12 O55 2.652447 1_555
Na12 O33 2.750180 1_655
Na13 O5 2.380377 1_555
Na13 O39 2.415154 1_655
Na13 O41 2.456396 1_545
Na13 O55 2.644092 1_555
Na13 O56 2.652431 1_555
Na13 O34 2.750180 1_545
Na14 O3 2.380376 1_555
Na14 O40 2.415155 1_545
Na14 O39 2.456387 1_555
Na14 O56 2.644108 1_555
Na14 O54 2.652445 1_555
Na14 O35 2.750180 1_555
Na15 O2 2.380377 1_555
Na15 O37 2.415154 1_545
Na15 O38 2.456396 1_655
Na15 O57 2.644092 1_555
Na15 O59 2.652431 1_555
Na15 O30 2.750180 1_655
Na16 O0 2.380374 1_555
Na16 O38 2.415147 1_555
Na16 O36 2.456389 1_545
Na16 O58 2.644093 1_555
Na16 O57 2.652447 1_555
Na16 O31 2.750180 1_545
Na17 O1 2.380376 1_555
Na17 O36 2.415155 1_655
Na17 O37 2.456387 1_555
Na17 O59 2.644108 1_555
Na17 O58 2.652445 1_555
Na17 O32 2.750180 1_555
Na18 O44 2.487298 1_445
Na18 O42 2.487298 1_455
Na18 O43 2.487298 1_555
Na18 O38 2.533499 1_555
Na18 O36 2.533499 1_545
Na18 O37 2.533499 1_445
Na19 O45 2.487298 1_446
Na19 O47 2.487298 1_556
Na19 O46 2.487298 1_456
Na19 O39 2.533499 1_555
Na19 O41 2.533499 1_445
Na19 O40 2.533499 1_545
Na20 O48 2.338951 1_555
Na20 O50 2.338951 1_555
Na20 O49 2.338951 1_555
Na20 O56 2.773887 1_555
Na20 O55 2.773887 1_555
Na20 O54 2.773887 1_555
Na21 O52 2.338951 1_555
Na21 O53 2.338951 1_555
Na21 O51 2.338951 1_555
Na21 O57 2.773887 1_555
Na21 O59 2.773887 1_555
Na21 O58 2.773887 1_555
Na22 O68 2.443553 1_555
Na22 O66 2.443553 1_555
Na22 O67 2.443553 1_555
Na22 O62 2.653810 1_555
Na22 O60 2.653810 1_555
Na22 O61 2.653810 1_555
Na23 O69 2.443553 1_555
Na23 O71 2.443553 1_555
Na23 O70 2.443553 1_555
Na23 O63 2.653810 1_555
Na23 O65 2.653810 1_555
Na23 O64 2.653810 1_555
Mg0 O1 2.014111 1_445
Mg0 O2 2.014111 1_455
Mg0 O0 2.014111 1_555
Mg0 O38 2.218825 1_555
Mg0 O36 2.218825 1_545
Mg0 O37 2.218825 1_445
Mg1 O4 2.014111 1_445
Mg1 O3 2.014111 1_555
Mg1 O5 2.014111 1_455
Mg1 O39 2.218825 1_555
Mg1 O41 2.218825 1_445
Mg1 O40 2.218825 1_545
Mg2 O8 2.024480 1_545
Mg2 O7 2.024480 1_555
Mg2 O6 2.024480 1_445
Mg2 O44 2.269674 1_445
Mg2 O42 2.269674 1_455
Mg2 O43 2.269674 1_555
Mg3 O11 2.024480 1_545
Mg3 O9 2.024480 1_445
Mg3 O10 2.024480 1_555
Mg3 O45 2.269674 1_445
Mg3 O47 2.269674 1_555
Mg3 O46 2.269674 1_455
Mg4 O14 2.035870 1_555
Mg4 O13 2.035870 1_555
Mg4 O12 2.035871 1_555
Mg4 O48 2.112873 1_555
Mg4 O50 2.112873 1_555
Mg4 O49 2.112873 1_555
Mg5 O17 2.035870 1_555
Mg5 O15 2.035870 1_555
Mg5 O16 2.035870 1_555
Mg5 O52 2.112873 1_555
Mg5 O53 2.112873 1_555
Mg5 O51 2.112873 1_555
Mg6 O25 2.044993 1_554
Mg6 O26 2.044993 1_554
Mg6 O24 2.044994 1_554
Mg6 O62 2.124783 1_555
Mg6 O60 2.124783 1_555
Mg6 O61 2.124783 1_555
Mg7 O28 2.044993 1_555
Mg7 O27 2.044993 1_555
Mg7 O29 2.044994 1_555
Mg7 O63 2.124783 1_555
Mg7 O65 2.124783 1_555
Mg7 O64 2.124783 1_555
Mg8 O68 2.111330 1_555
Mg8 O66 2.111330 1_555
Mg8 O67 2.111330 1_555
Mg8 O31 2.112671 1_555
Mg8 O32 2.112671 1_555
Mg8 O30 2.112671 1_555
Mg9 O69 2.111330 1_555
Mg9 O71 2.111330 1_555
Mg9 O70 2.111330 1_555
Mg9 O34 2.112671 1_555
Mg9 O33 2.112671 1_555
Mg9 O35 2.112671 1_555
O0 P0 1.548715 1_545
O1 P1 1.548715 1_555
O2 P2 1.548715 1_655
O3 P3 1.548715 1_555
O4 P4 1.548715 1_655
O5 P5 1.548715 1_545
O6 P5 1.546476 1_555
O7 P3 1.546476 1_555
O8 P4 1.546476 1_555
O9 P1 1.546476 1_555
O10 P2 1.546476 1_555
O11 P0 1.546476 1_555
O12 P6 1.520907 1_555
O13 P7 1.520907 1_555
O14 P8 1.520907 1_555
O15 P9 1.520907 1_555
O16 P10 1.520907 1_555
O17 P11 1.520907 1_555
O18 P11 1.617163 1_555
O18 Ta0 1.951558 1_554
O19 P9 1.617163 1_555
O19 Ta0 1.951558 1_554
O20 P10 1.617163 1_555
O20 Ta0 1.951558 1_554
O21 P7 1.617163 1_555
O21 Ta1 1.951558 1_555
O22 P8 1.617163 1_555
O22 Ta1 1.951558 1_555
O23 P6 1.617163 1_555
O23 Ta1 1.951558 1_555
O24 P12 1.522933 1_555
O25 P13 1.522933 1_555
O26 P14 1.522933 1_555
O27 P15 1.522933 1_555
O28 P16 1.522933 1_555
O29 P17 1.522933 1_555
O30 P17 1.531976 1_555
O31 P15 1.531976 1_555
O32 P16 1.531976 1_555
O33 P13 1.531976 1_555
O34 P14 1.531976 1_555
O35 P12 1.531976 1_555
O36 P17 1.546594 1_555
O37 P15 1.546603 1_555
O38 P16 1.546600 1_555
O39 P13 1.546603 1_555
O40 P14 1.546594 1_555
O41 P12 1.546600 1_555
O42 P6 1.537851 1_555
O43 P7 1.537860 1_555
O44 P8 1.537855 1_555
O45 P9 1.537860 1_555
O46 P10 1.537851 1_555
O47 P11 1.537855 1_555
O48 P5 1.558213 1_545
O49 P3 1.558222 1_555
O50 P4 1.558218 1_655
O51 P1 1.558222 1_555
O52 P2 1.558213 1_655
O53 P0 1.558218 1_545
O54 P12 1.617013 1_555
O54 Ta0 2.013442 1_555
O55 P13 1.616995 1_655
O55 Ta0 2.013442 1_555
O56 P14 1.617002 1_545
O56 Ta0 2.013442 1_555
O57 P15 1.616995 1_545
O57 Ta1 2.013442 1_555
O58 P16 1.617013 1_555
O58 Ta1 2.013442 1_555
O59 P17 1.617002 1_655
O59 Ta1 2.013442 1_555
O60 P11 1.536107 1_555
O61 P9 1.536089 1_455
O62 P10 1.536097 1_565
O63 P7 1.536089 1_565
O64 P8 1.536107 1_555
O65 P6 1.536097 1_455
O66 P0 1.556361 1_555
O67 P1 1.556370 1_555
O68 P2 1.556366 1_555
O69 P3 1.556370 1_555
O70 P4 1.556361 1_555
O71 P5 1.556367 1_555
