# generated using pymatgen
data_Mn4ZnO8
_symmetry_space_group_name_H-M   'P 1'
_cell_length_a   3.00706826
_cell_length_b   7.17496231
_cell_length_c   7.36311009
_cell_angle_alpha   81.90300799
_cell_angle_beta   79.63723316
_cell_angle_gamma   81.22704710
_symmetry_Int_Tables_number   1
_chemical_formula_structural   Mn4ZnO8
_chemical_formula_sum   'Mn4 Zn1 O8'
_cell_volume   153.38937983
_cell_formula_units_Z   1
loop_
 _symmetry_equiv_pos_site_id
 _symmetry_equiv_pos_as_xyz
  1  'x, y, z'
loop_
 _atom_site_type_symbol
 _atom_site_label
 _atom_site_symmetry_multiplicity
 _atom_site_fract_x
 _atom_site_fract_y
 _atom_site_fract_z
 _atom_site_occupancy
  Mn  Mn0  1  0.62458100  0.17099700  0.55652400  1
  Mn  Mn1  1  0.09886700  0.51460500  0.20762700  1
  Mn  Mn2  1  0.88575200  0.47436200  0.83560800  1
  Mn  Mn3  1  0.34289300  0.80035500  0.50096400  1
  Zn  Zn0  1  0.34710200  0.13363200  0.18895400  1
  O  O0  1  0.86780800  0.66213900  0.62402800  1
  O  O1  1  0.47628200  0.32686100  0.75512300  1
  O  O2  1  0.48187200  0.66080100  0.28537600  1
  O  O3  1  0.13169400  0.30601400  0.42458300  1
  O  O4  1  0.14200300  0.01643800  0.65979300  1
  O  O5  1  0.85209100  0.31517100  0.08873100  1
  O  O6  1  0.76387000  0.99102600  0.35980200  1
  O  O7  1  0.28266900  0.60370400  0.94353200  1
loop_
_geom_bond_atom_site_label_1
_geom_bond_atom_site_label_2
_geom_bond_distance
_geom_bond_site_symmetry_2
Mn0 O1 1.913579 1_555
Mn0 O4 1.941691 1_555
Mn0 O3 1.964738 1_655
Mn0 O4 1.972466 1_655
Mn0 O3 1.973308 1_555
Mn0 O6 2.021041 1_545
Mn1 O2 1.878661 1_555
Mn1 O7 1.966321 1_554
Mn1 O2 2.015868 1_455
Mn1 O3 2.034635 1_555
Mn1 O5 2.067642 1_455
Mn1 O5 2.568083 1_555
Mn2 O0 1.913615 1_555
Mn2 O7 1.950416 1_655
Mn2 O1 1.955512 1_555
Mn2 O1 1.961984 1_655
Mn2 O7 1.989332 1_555
Mn2 O5 2.038679 1_556
Mn3 O0 1.886474 1_455
Mn3 O2 1.943840 1_555
Mn3 O0 2.019899 1_555
Mn3 O4 2.026625 1_565
Mn3 O6 2.051533 1_555
Mn3 O6 2.346800 1_455
O3 Zn0 2.217031 1_555
O5 Zn0 1.997469 1_655
O5 Zn0 2.115787 1_555
O6 Zn0 2.003370 1_565
O6 Zn0 2.257516 1_665
