# generated using pymatgen
data_CsMgCl3
_symmetry_space_group_name_H-M   'P 1'
_cell_length_a   7.29291267
_cell_length_b   7.29291274
_cell_length_c   6.18159097
_cell_angle_alpha   90.00000000
_cell_angle_beta   90.00000000
_cell_angle_gamma   119.99999965
_symmetry_Int_Tables_number   1
_chemical_formula_structural   CsMgCl3
_chemical_formula_sum   'Cs2 Mg2 Cl6'
_cell_volume   284.72980336
_cell_formula_units_Z   2
loop_
 _symmetry_equiv_pos_site_id
 _symmetry_equiv_pos_as_xyz
  1  'x, y, z'
loop_
 _atom_site_type_symbol
 _atom_site_label
 _atom_site_symmetry_multiplicity
 _atom_site_fract_x
 _atom_site_fract_y
 _atom_site_fract_z
 _atom_site_occupancy
  Cs  Cs0  1  0.33333300  0.66666700  0.75000000  1
  Cs  Cs1  1  0.66666700  0.33333300  0.25000000  1
  Mg  Mg0  1  0.00000000  -0.00000000  0.00000000  1
  Mg  Mg1  1  0.00000000  -0.00000000  0.50000000  1
  Cl  Cl0  1  0.84407251  0.68814701  0.75000000  1
  Cl  Cl1  1  0.84407251  0.15592749  0.75000000  1
  Cl  Cl2  1  0.15592749  0.31185299  0.25000000  1
  Cl  Cl3  1  0.31185299  0.15592749  0.75000000  1
  Cl  Cl4  1  0.68814701  0.84407251  0.25000000  1
  Cl  Cl5  1  0.15592749  0.84407251  0.25000000  1
loop_
_geom_bond_atom_site_label_1
_geom_bond_atom_site_label_2
_geom_bond_distance
_geom_bond_site_symmetry_2
Cl0 Mg0 2.503526 1_666
Cl0 Mg1 2.503526 1_665
Cl0 Cs0 3.648976 1_555
Cl0 Cs0 3.648983 1_655
Cl0 Cs1 3.817706 1_556
Cl0 Cs1 3.817706 1_555
Cl1 Mg0 2.503536 1_656
Cl1 Mg1 2.503536 1_655
Cl1 Cs0 3.648979 1_545
Cl1 Cs0 3.648979 1_655
Cl1 Cs1 3.817695 1_555
Cl1 Cs1 3.817695 1_556
Cl2 Mg1 2.503526 1_555
Cl2 Mg0 2.503526 1_555
Cl2 Cs1 3.648976 1_555
Cl2 Cs1 3.648983 1_455
Cl2 Cs0 3.817706 1_555
Cl2 Cs0 3.817706 1_554
Cl3 Mg0 2.503526 1_556
Cl3 Mg1 2.503526 1_555
Cl3 Cs0 3.648976 1_555
Cl3 Cs0 3.648983 1_545
Cl3 Cs1 3.817706 1_555
Cl3 Cs1 3.817706 1_556
Cl4 Mg0 2.503526 1_665
Cl4 Mg1 2.503526 1_665
Cl4 Cs1 3.648976 1_555
Cl4 Cs1 3.648983 1_565
Cl4 Cs0 3.817706 1_555
Cl4 Cs0 3.817706 1_554
Cl5 Mg0 2.503536 1_565
Cl5 Mg1 2.503536 1_565
Cl5 Cs1 3.648979 1_565
Cl5 Cs1 3.648979 1_455
Cl5 Cs0 3.817695 1_555
Cl5 Cs0 3.817695 1_554
