# generated using pymatgen
data_MgTe4MoW3S4
_symmetry_space_group_name_H-M   'P 1'
_cell_length_a   3.37040500
_cell_length_b   3.37048647
_cell_length_c   43.78029496
_cell_angle_alpha   90.00171456
_cell_angle_beta   90.15735115
_cell_angle_gamma   120.00106090
_symmetry_Int_Tables_number   1
_chemical_formula_structural   MgTe4MoW3S4
_chemical_formula_sum   'Mg1 Te4 Mo1 W3 S4'
_cell_volume   430.70225192
_cell_formula_units_Z   1
loop_
 _symmetry_equiv_pos_site_id
 _symmetry_equiv_pos_as_xyz
  1  'x, y, z'
loop_
 _atom_site_type_symbol
 _atom_site_label
 _atom_site_symmetry_multiplicity
 _atom_site_fract_x
 _atom_site_fract_y
 _atom_site_fract_z
 _atom_site_occupancy
  Mg  Mg0  1  0.33307200  0.66656200  0.37351000  1
  Te  Te0  1  0.33525100  0.66763700  0.70099100  1
  Te  Te1  1  0.66475300  0.33235300  0.05045400  1
  Te  Te2  1  0.66916100  0.33460000  0.13714200  1
  Te  Te3  1  0.33111500  0.66554600  0.61434400  1
  Mo  Mo0  1  0.66628100  0.33317700  0.27782200  1
  W  W0  1  0.33354100  0.66677700  0.09379600  1
  W  W1  1  0.32963800  0.66477300  0.47761900  1
  W  W2  1  0.66659900  0.33329100  0.65766800  1
  S  S0  1  0.33445100  0.66727300  0.31220900  1
  S  S1  1  0.66182300  0.33085600  0.44297200  1
  S  S2  1  0.66441700  0.33218200  0.51204600  1
  S  S3  1  0.33132800  0.66568600  0.24359500  1
loop_
_geom_bond_atom_site_label_1
_geom_bond_atom_site_label_2
_geom_bond_distance
_geom_bond_site_symmetry_2
Mg0 S0 2.683792 1_555
Te0 W2 2.717147 1_455
Te0 W2 2.717446 1_565
Te0 W2 2.717465 1_555
Te1 W0 2.717864 1_545
Te1 W0 2.717925 1_555
Te1 W0 2.718010 1_655
Te2 W0 2.717585 1_655
Te2 W0 2.718280 1_545
Te2 W0 2.718302 1_555
Te3 W2 2.717194 1_455
Te3 W2 2.717446 1_565
Te3 W2 2.717509 1_555
Mo0 S3 2.456002 1_545
Mo0 S3 2.456002 1_555
Mo0 S3 2.456022 1_655
Mo0 S0 2.459936 1_655
Mo0 S0 2.460463 1_555
Mo0 S0 2.460468 1_545
S1 W1 2.466073 1_655
S1 W1 2.467863 1_555
S1 W1 2.467876 1_545
S2 W1 2.461131 1_555
S2 W1 2.461153 1_545
S2 W1 2.461797 1_655
