# generated using pymatgen
data_MgTi2Zn2O6
_symmetry_space_group_name_H-M   'P 1'
_cell_length_a   5.22224502
_cell_length_b   5.18311719
_cell_length_c   5.94972653
_cell_angle_alpha   64.91628962
_cell_angle_beta   63.11128068
_cell_angle_gamma   60.09835273
_symmetry_Int_Tables_number   1
_chemical_formula_structural   MgTi2Zn2O6
_chemical_formula_sum   'Mg1 Ti2 Zn2 O6'
_cell_volume   120.34019605
_cell_formula_units_Z   1
loop_
 _symmetry_equiv_pos_site_id
 _symmetry_equiv_pos_as_xyz
  1  'x, y, z'
loop_
 _atom_site_type_symbol
 _atom_site_label
 _atom_site_symmetry_multiplicity
 _atom_site_fract_x
 _atom_site_fract_y
 _atom_site_fract_z
 _atom_site_occupancy
  Mg  Mg0  1  0.55921260  0.55305630  0.32215699  1
  Ti  Ti0  1  0.35363943  0.37924621  0.89224237  1
  Ti  Ti1  1  0.03851420  0.01429005  0.94196499  1
  Zn  Zn0  1  0.19941659  0.19703394  0.40068232  1
  Zn  Zn1  1  0.79804989  0.79598003  0.60864366  1
  O  O0  1  0.16210635  0.42132665  0.64050148  1
  O  O1  1  0.41455670  0.78700564  0.64525246  1
  O  O2  1  0.77697961  0.15690990  0.65019004  1
  O  O3  1  0.61768267  0.28286047  0.11775097  1
  O  O4  1  0.28112311  0.96303708  0.13909608  1
  O  O5  1  0.97028285  0.60831771  0.14290363  1
loop_
_geom_bond_atom_site_label_1
_geom_bond_atom_site_label_2
_geom_bond_distance
_geom_bond_site_symmetry_2
Mg0 O5 2.027560 1_555
Mg0 O4 2.049963 1_555
Mg0 O3 2.053148 1_555
Mg0 O0 2.261993 1_555
Mg0 O1 2.342216 1_555
Mg0 O2 2.366454 1_555
O0 Zn1 1.937604 1_455
O0 Ti0 2.037647 1_555
O0 Zn0 2.086748 1_555
O0 Ti1 2.277422 1_555
O1 Zn1 1.936523 1_555
O1 Ti0 2.083646 1_555
O1 Zn0 2.091014 1_565
O1 Ti1 2.163731 1_565
O2 Zn1 1.932650 1_545
O2 Ti0 2.068042 1_555
O2 Zn0 2.084989 1_655
O2 Ti1 2.339960 1_655
O3 Ti1 1.991651 1_654
O3 Ti0 2.090318 1_554
O3 Zn0 2.193332 1_555
O4 Ti1 1.948272 1_564
O4 Zn0 2.135214 1_565
O4 Ti0 2.139930 1_564
O5 Ti0 2.018080 1_654
O5 Ti1 2.052603 1_664
O5 Zn0 2.161720 1_655
