# generated using pymatgen
data_Na10Nb2Al6Si7S5O48
_symmetry_space_group_name_H-M   'P 1'
_cell_length_a   17.54201118
_cell_length_b   8.74772783
_cell_length_c   21.96310548
_cell_angle_alpha   90.07831437
_cell_angle_beta   90.30859962
_cell_angle_gamma   119.94968869
_symmetry_Int_Tables_number   1
_chemical_formula_structural   Na10Nb2Al6Si7S5O48
_chemical_formula_sum   'Na30 Nb6 Al18 Si21 S15 O144'
_cell_volume   2920.16854319
_cell_formula_units_Z   3
loop_
 _symmetry_equiv_pos_site_id
 _symmetry_equiv_pos_as_xyz
  1  'x, y, z'
loop_
 _atom_site_type_symbol
 _atom_site_label
 _atom_site_symmetry_multiplicity
 _atom_site_fract_x
 _atom_site_fract_y
 _atom_site_fract_z
 _atom_site_occupancy
  Na  Na0  1  0.31925968  0.00127420  0.24590390  1
  Na  Na1  1  0.81490447  0.00222375  0.24765273  1
  Na  Na2  1  0.18558996  0.36737762  0.24610965  1
  Na  Na3  1  0.31507494  0.62770206  0.74826597  1
  Na  Na4  1  0.81858643  0.63628276  0.74574510  1
  Na  Na5  1  0.68462854  0.00272592  0.74655562  1
  Na  Na6  1  0.15747882  0.33467125  0.58352752  1
  Na  Na7  1  0.65367229  0.33308689  0.57883714  1
  Na  Na8  1  0.01789120  0.70036038  0.57548683  1
  Na  Na9  1  0.15528826  0.97661700  0.08158198  1
  Na  Na10  1  0.65653225  0.97893762  0.08335335  1
  Na  Na11  1  0.51733433  0.33424660  0.07473402  1
  Na  Na12  1  0.85099511  0.02881032  0.92033200  1
  Na  Na13  1  0.66591929  0.31074975  0.91971434  1
  Na  Na14  1  0.48590004  0.29856281  0.41980219  1
  Na  Na15  1  0.16739497  0.02279331  0.42021303  1
  Na  Na16  1  0.66717623  0.04829546  0.41645250  1
  Na  Na17  1  0.84781947  0.65925580  0.41670077  1
  Na  Na18  1  0.99656446  0.99717018  0.49747737  1
  Na  Na19  1  0.48835782  0.97920165  0.49526804  1
  Na  Na20  1  0.99912513  0.99896191  0.99548812  1
  Na  Na21  1  0.48868989  0.99482893  0.99513833  1
  Na  Na22  1  0.33418686  0.32788903  0.83341744  1
  Na  Na23  1  0.84155402  0.34399717  0.83268976  1
  Na  Na24  1  0.33692495  0.34955499  0.33295914  1
  Na  Na25  1  0.83554198  0.34154602  0.33162660  1
  Na  Na26  1  0.16596478  0.65325026  0.16106470  1
  Na  Na27  1  0.67337756  0.66838179  0.16492475  1
  Na  Na28  1  0.17447308  0.67928184  0.66531486  1
  Na  Na29  1  0.66595563  0.67873171  0.66138375  1
  Nb  Nb0  1  0.00061083  0.00694942  0.64753012  1
  Nb  Nb1  1  0.50321223  0.98607785  0.64101758  1
  Nb  Nb2  1  0.00351778  0.01990471  0.14058093  1
  Nb  Nb3  1  0.49948063  0.99257183  0.14703052  1
  Nb  Nb4  1  0.16355105  0.67688880  0.31193736  1
  Nb  Nb5  1  0.66180314  0.64584230  0.81250094  1
  Al  Al0  1  0.00303720  0.00078507  0.34979994  1
  Al  Al1  1  0.50090735  0.99595811  0.35485559  1
  Al  Al2  1  0.99971323  0.00535866  0.85139149  1
  Al  Al3  1  0.49784323  0.00557802  0.85011339  1
  Al  Al4  1  0.32195929  0.33885370  0.68822803  1
  Al  Al5  1  0.82144826  0.31384488  0.68492981  1
  Al  Al6  1  0.32207807  0.32795427  0.18523439  1
  Al  Al7  1  0.82166996  0.30518401  0.18809848  1
  Al  Al8  1  0.33189236  0.31360182  0.98007941  1
  Al  Al9  1  0.83100096  0.33956629  0.98618300  1
  Al  Al10  1  0.32783389  0.32559318  0.48534127  1
  Al  Al11  1  0.82956123  0.34993340  0.47892071  1
  Al  Al12  1  0.17452095  0.66815010  0.02101125  1
  Al  Al13  1  0.68174827  0.65497094  0.01927075  1
  Al  Al14  1  0.18140518  0.70616373  0.52079242  1
  Al  Al15  1  0.67020435  0.66395923  0.52208976  1
  Al  Al16  1  0.66462134  0.66456636  0.31530130  1
  Al  Al17  1  0.16505617  0.65790006  0.81626026  1
  Si  Si0  1  0.14454289  0.00537883  0.25007706  1
  Si  Si1  1  0.64563953  0.99356687  0.25734864  1
  Si  Si2  1  0.36068224  0.70216276  0.25455153  1
  Si  Si3  1  0.99285501  0.28740421  0.25452773  1
  Si  Si4  1  0.14598585  0.29508162  0.75766782  1
  Si  Si5  1  0.64363932  0.28098236  0.75054832  1
  Si  Si6  1  0.49267798  0.69873762  0.75521601  1
  Si  Si7  1  0.85865527  0.01825755  0.75430043  1
  Si  Si8  1  0.19660775  0.04641902  0.58500124  1
  Si  Si9  1  0.69601123  0.03863779  0.57794896  1
  Si  Si10  1  0.32738804  0.61240746  0.57941573  1
  Si  Si11  1  0.83044920  0.61578346  0.58458422  1
  Si  Si12  1  0.33008388  0.04552019  0.08357525  1
  Si  Si13  1  0.82767990  0.04213164  0.07833811  1
  Si  Si14  1  0.19741264  0.35011602  0.07795015  1
  Si  Si15  1  0.69669479  0.34590579  0.08506440  1
  Si  Si16  1  0.82373851  0.66937494  0.91823982  1
  Si  Si17  1  0.51281111  0.36620340  0.92220568  1
  Si  Si18  1  0.31941933  0.96954576  0.41880059  1
  Si  Si19  1  0.66497558  0.38166278  0.41604274  1
  Si  Si20  1  0.01713433  0.66126255  0.42201256  1
  S  S0  1  0.85462906  0.70489649  0.25184445  1
  S  S1  1  0.50380284  0.30010042  0.25186577  1
  S  S2  1  0.00461899  0.71087895  0.75313113  1
  S  S3  1  0.35361612  0.00334424  0.75253069  1
  S  S4  1  0.47481053  0.33908596  0.58355743  1
  S  S5  1  0.97205723  0.33274761  0.58178116  1
  S  S6  1  0.47225172  0.61150229  0.08167113  1
  S  S7  1  0.97616703  0.61215849  0.08293747  1
  S  S8  1  0.31055242  0.66745614  0.91648479  1
  S  S9  1  0.02643489  0.38671916  0.91761920  1
  S  S10  1  0.16545103  0.94704945  0.91602362  1
  S  S11  1  0.66344767  0.95507262  0.91875658  1
  S  S12  1  0.81231408  0.95650002  0.41666005  1
  S  S13  1  0.16532256  0.37386519  0.41876573  1
  S  S14  1  0.52339423  0.66572308  0.41744391  1
  O  O0  1  0.09998727  0.03560104  0.30965709  1
  O  O1  1  0.59796353  0.02354252  0.31463403  1
  O  O2  1  0.42019402  0.80978044  0.31086433  1
  O  O3  1  0.90791171  0.78991051  0.30846522  1
  O  O4  1  0.48713622  0.18492188  0.30503107  1
  O  O5  1  0.97641008  0.15123040  0.30942347  1
  O  O6  1  0.09416022  0.15956489  0.81140725  1
  O  O7  1  0.59862449  0.16116424  0.80974131  1
  O  O8  1  0.47629020  0.80283435  0.80973399  1
  O  O9  1  0.98559934  0.79512774  0.80455943  1
  O  O10  1  0.40922349  0.02821102  0.80713355  1
  O  O11  1  0.91470469  0.03391566  0.81420717  1
  O  O12  1  0.39086985  0.96066554  0.69772967  1
  O  O13  1  0.90062611  0.96320183  0.69550706  1
  O  O14  1  0.08524095  0.20739747  0.69293931  1
  O  O15  1  0.58413826  0.19943933  0.68850823  1
  O  O16  1  0.01996768  0.81692307  0.69537085  1
  O  O17  1  0.51406846  0.83019500  0.69322677  1
  O  O18  1  0.39917661  0.83517631  0.19378577  1
  O  O19  1  0.89547914  0.82302663  0.19797781  1
  O  O20  1  0.01351245  0.19715973  0.19285516  1
  O  O21  1  0.51818504  0.21987694  0.19518764  1
  O  O22  1  0.08472804  0.96973590  0.18841574  1
  O  O23  1  0.58409849  0.96189155  0.19367020  1
  O  O24  1  0.43417796  0.35992892  0.63758822  1
  O  O25  1  0.93290376  0.35834869  0.63784012  1
  O  O26  1  0.25542881  0.14469305  0.64334176  1
  O  O27  1  0.74472088  0.12019955  0.64292661  1
  O  O28  1  0.31324037  0.50522738  0.64300383  1
  O  O29  1  0.82002207  0.49874519  0.64547082  1
  O  O30  1  0.43263262  0.50655914  0.13769525  1
  O  O31  1  0.93865117  0.51178617  0.13803220  1
  O  O32  1  0.31739626  0.13483959  0.14591293  1
  O  O33  1  0.81401854  0.12496362  0.14108463  1
  O  O34  1  0.24451892  0.36631135  0.14373482  1
  O  O35  1  0.75597131  0.36812456  0.14356815  1
  O  O36  1  0.23989502  0.29924748  0.02224303  1
  O  O37  1  0.73061708  0.29656424  0.02286783  1
  O  O38  1  0.42019385  0.53821526  0.02696149  1
  O  O39  1  0.92217103  0.53461027  0.02719623  1
  O  O40  1  0.35689997  0.17623085  0.02630406  1
  O  O41  1  0.84870587  0.16765104  0.01850360  1
  O  O42  1  0.22916094  0.16084067  0.52219855  1
  O  O43  1  0.73800035  0.17080269  0.52068081  1
  O  O44  1  0.34932568  0.52520304  0.52198977  1
  O  O45  1  0.85473731  0.54167009  0.52436215  1
  O  O46  1  0.42373532  0.31079024  0.52576915  1
  O  O47  1  0.91944643  0.30350744  0.52707309  1
  O  O48  1  0.26748263  0.69706323  0.97013641  1
  O  O49  1  0.77449370  0.71268187  0.97225278  1
  O  O50  1  0.08052554  0.47659241  0.97189122  1
  O  O51  1  0.58419417  0.46754918  0.97791757  1
  O  O52  1  0.15346677  0.84087504  0.97257905  1
  O  O53  1  0.65220921  0.84799526  0.97265138  1
  O  O54  1  0.27084062  0.84218376  0.47473523  1
  O  O55  1  0.76982025  0.83922613  0.46962240  1
  O  O56  1  0.15226271  0.45600997  0.47251104  1
  O  O57  1  0.64686568  0.46967343  0.47699424  1
  O  O58  1  0.08549143  0.70298336  0.47854354  1
  O  O59  1  0.58029719  0.69576480  0.47123118  1
  O  O60  1  0.06671501  0.63785109  0.36041415  1
  O  O61  1  0.56397243  0.63803615  0.36165310  1
  O  O62  1  0.25260034  0.88029275  0.35760024  1
  O  O63  1  0.75738247  0.87896352  0.36006196  1
  O  O64  1  0.17825995  0.47854987  0.36206201  1
  O  O65  1  0.68311019  0.51637424  0.35929756  1
  O  O66  1  0.06734265  0.49281523  0.86185069  1
  O  O67  1  0.56587000  0.49360585  0.86100190  1
  O  O68  1  0.17698700  0.85578014  0.86206031  1
  O  O69  1  0.67919947  0.87614333  0.86276556  1
  O  O70  1  0.25646933  0.64537041  0.86009682  1
  O  O71  1  0.75574187  0.62975892  0.85731742  1
  O  O72  1  0.00797911  0.84092680  0.40938074  1
  O  O73  1  0.51468972  0.82578821  0.41291364  1
  O  O74  1  0.41515747  0.99237100  0.40698330  1
  O  O75  1  0.89992925  0.96737880  0.41093875  1
  O  O76  1  0.08538580  0.19257253  0.41248079  1
  O  O77  1  0.57882222  0.18274247  0.40954662  1
  O  O78  1  0.01772506  0.20761703  0.91412838  1
  O  O79  1  0.51017653  0.17673563  0.90904736  1
  O  O80  1  0.08600088  0.96384789  0.90992244  1
  O  O81  1  0.58509016  0.97713249  0.91261344  1
  O  O82  1  0.39858213  0.82907595  0.91128539  1
  O  O83  1  0.91803985  0.84970936  0.90773412  1
  O  O84  1  0.48620943  0.17820699  0.58654503  1
  O  O85  1  0.98389671  0.17099257  0.58628368  1
  O  O86  1  0.09425173  0.02598136  0.59116383  1
  O  O87  1  0.59505796  0.02752444  0.58449216  1
  O  O88  1  0.41315043  0.81729758  0.58745455  1
  O  O89  1  0.92070783  0.81384939  0.59116011  1
  O  O90  1  0.48475643  0.79726203  0.08652168  1
  O  O91  1  0.98643916  0.79508478  0.08633974  1
  O  O92  1  0.41962574  0.02567264  0.09114886  1
  O  O93  1  0.91366565  0.01019638  0.08673470  1
  O  O94  1  0.09543013  0.16076127  0.08431105  1
  O  O95  1  0.59444720  0.16301974  0.09135121  1
  O  O96  1  0.34674264  0.16044937  0.74512885  1
  O  O97  1  0.84811995  0.18844512  0.74191205  1
  O  O98  1  0.24193893  0.31490486  0.74743333  1
  O  O99  1  0.74344166  0.31295951  0.74523589  1
  O  O100  1  0.41023230  0.50720918  0.74155415  1
  O  O101  1  0.92543461  0.53543495  0.74475947  1
  O  O102  1  0.34844851  0.50910356  0.24219376  1
  O  O103  1  0.84750953  0.53405139  0.24521377  1
  O  O104  1  0.42378616  0.31471193  0.24355502  1
  O  O105  1  0.90992535  0.31270854  0.24138377  1
  O  O106  1  0.24388034  0.17416794  0.24554167  1
  O  O107  1  0.74173804  0.16660343  0.24680206  1
  O  O108  1  0.31756764  0.50823752  0.92214506  1
  O  O109  1  0.82496744  0.48423952  0.92563913  1
  O  O110  1  0.41859650  0.35780372  0.92458169  1
  O  O111  1  0.93605318  0.36187518  0.92063409  1
  O  O112  1  0.24582943  0.12344973  0.92024545  1
  O  O113  1  0.74514720  0.13479069  0.92088851  1
  O  O114  1  0.32701556  0.16696440  0.42517190  1
  O  O115  1  0.82182582  0.13216003  0.42323134  1
  O  O116  1  0.24479536  0.35211722  0.42149050  1
  O  O117  1  0.75267988  0.35911332  0.42132680  1
  O  O118  1  0.43557027  0.50424183  0.42194147  1
  O  O119  1  0.92103883  0.48638387  0.42495532  1
  O  O120  1  0.17616069  0.50847635  0.07129608  1
  O  O121  1  0.67483142  0.50563996  0.07967429  1
  O  O122  1  0.06754108  0.64331998  0.07451349  1
  O  O123  1  0.56324148  0.64077259  0.07829340  1
  O  O124  1  0.24145208  0.85299769  0.07399710  1
  O  O125  1  0.73811277  0.84856684  0.07148635  1
  O  O126  1  0.17335267  0.84201449  0.58104097  1
  O  O127  1  0.67555684  0.83904249  0.56963407  1
  O  O128  1  0.23790857  0.62710111  0.57245700  1
  O  O129  1  0.74238736  0.63202989  0.57749033  1
  O  O130  1  0.06299953  0.48498586  0.57795511  1
  O  O131  1  0.56552644  0.49455163  0.57791726  1
  O  O132  1  0.15619575  0.82896026  0.25132476  1
  O  O133  1  0.65959201  0.81987367  0.26192705  1
  O  O134  1  0.26062157  0.68055513  0.25893225  1
  O  O135  1  0.76654038  0.69444253  0.25719744  1
  O  O136  1  0.08750691  0.47105971  0.25736999  1
  O  O137  1  0.58327438  0.47571586  0.25772560  1
  O  O138  1  0.15866461  0.49557436  0.76177031  1
  O  O139  1  0.65598686  0.48156986  0.75183626  1
  O  O140  1  0.08464303  0.69677510  0.76113008  1
  O  O141  1  0.58729694  0.70320811  0.75828844  1
  O  O142  1  0.26438793  0.83991836  0.76052399  1
  O  O143  1  0.75950434  0.83941109  0.75843245  1
loop_
_geom_bond_atom_site_label_1
_geom_bond_atom_site_label_2
_geom_bond_distance
_geom_bond_site_symmetry_2
Na0 O104 2.421603 1_555
Na0 O106 2.456167 1_555
Na0 O134 2.476895 1_545
Na0 O132 2.483456 1_545
Na0 O32 2.496697 1_555
Na0 O62 2.703316 1_545
Na0 O18 2.726416 1_545
Na0 O4 2.858140 1_555
Na1 O107 2.357536 1_555
Na1 O105 2.378521 1_555
Na1 O135 2.394866 1_545
Na1 O133 2.395174 1_545
Na1 O33 2.579623 1_555
Na1 O63 2.687715 1_545
Na1 O5 2.798701 1_555
Na1 O19 2.805286 1_545
Na2 O136 2.325141 1_555
Na2 O106 2.372339 1_555
Na2 O134 2.389684 1_555
Na2 O34 2.481715 1_555
Na2 O102 2.484467 1_555
Na2 O64 2.751265 1_555
Na2 O20 2.857690 1_555
Na2 O0 2.882408 1_555
Na3 O98 2.372319 1_555
Na3 O100 2.382884 1_555
Na3 O138 2.407345 1_555
Na3 O142 2.441038 1_555
Na3 O28 2.540017 1_555
Na3 O70 2.701536 1_555
Na3 O12 2.764307 1_555
Na3 O8 2.791893 1_555
Na4 O101 2.437874 1_555
Na4 O99 2.452430 1_555
Na4 O139 2.476991 1_555
Na4 O143 2.479880 1_555
Na4 O29 2.514372 1_555
Na4 O71 2.681432 1_555
Na4 O13 2.717236 1_555
Na4 O9 2.841187 1_555
Na5 O141 2.320855 1_545
Na5 O99 2.373836 1_555
Na5 O143 2.388554 1_545
Na5 O97 2.495269 1_555
Na5 O27 2.509601 1_555
Na5 O69 2.766703 1_545
Na5 O17 2.837293 1_545
Na5 O7 2.868454 1_555
Na6 O128 2.235013 1_555
Na6 O86 2.358577 1_555
Na6 O130 2.581670 1_555
Na6 O85 2.640959 1_455
Na6 O56 2.679891 1_555
Na6 O14 2.692822 1_555
Na6 O28 2.698892 1_555
Na6 O42 2.762183 1_555
Na7 O129 2.280039 1_555
Na7 O87 2.339985 1_555
Na7 O84 2.554596 1_555
Na7 O131 2.562568 1_555
Na7 O57 2.567478 1_555
Na7 O15 2.696674 1_555
Na7 O43 2.819095 1_555
Na7 O29 2.912565 1_555
Na8 O126 2.368403 1_555
Na8 O130 2.380556 1_555
Na8 O89 2.388658 1_455
Na8 O58 2.437274 1_555
Na8 O86 2.491808 1_565
Na8 O45 2.715381 1_455
Na8 O16 2.815741 1_555
Na8 O25 2.937469 1_455
Na9 O124 2.261853 1_555
Na9 O94 2.321693 1_565
Na9 O122 2.531652 1_555
Na9 O91 2.571612 1_455
Na9 O22 2.645481 1_555
Na9 O52 2.663828 1_554
Na9 O36 2.777601 1_565
Na9 O32 2.831972 1_565
Na10 O125 2.247079 1_555
Na10 O95 2.358484 1_565
Na10 O123 2.569969 1_555
Na10 O90 2.613707 1_555
Na10 O53 2.670763 1_554
Na10 O33 2.702925 1_565
Na10 O23 2.711487 1_555
Na10 O37 2.756282 1_565
Na11 O123 2.384796 1_555
Na11 O92 2.396628 1_555
Na11 O121 2.398575 1_555
Na11 O51 2.434125 1_554
Na11 O95 2.495162 1_555
Na11 O40 2.653688 1_555
Na11 O21 2.832269 1_555
Na11 O30 2.940187 1_555
Na12 O83 2.399279 1_545
Na12 O113 2.454850 1_555
Na12 O41 2.483584 1_556
Na12 O111 2.524752 1_555
Na12 O78 2.540965 1_655
Na12 O11 2.581142 1_555
Na12 O49 2.658644 1_545
Na12 O69 2.898257 1_545
Na13 O79 2.384884 1_555
Na13 O109 2.423250 1_555
Na13 O81 2.533073 1_545
Na13 O113 2.537174 1_555
Na13 O37 2.559290 1_556
Na13 O7 2.712565 1_555
Na13 O51 2.747571 1_555
Na13 O71 2.791348 1_555
Na14 O77 2.320904 1_555
Na14 O74 2.338559 1_545
Na14 O118 2.367532 1_555
Na14 O114 2.430560 1_555
Na14 O46 2.600070 1_555
Na14 O4 2.712572 1_555
Na14 O57 2.743707 1_555
Na14 O61 2.879885 1_555
Na15 O114 2.431694 1_555
Na15 O72 2.440799 1_545
Na15 O116 2.497469 1_555
Na15 O42 2.511877 1_555
Na15 O76 2.536847 1_555
Na15 O0 2.721910 1_555
Na15 O58 2.747438 1_545
Na15 O62 2.748975 1_545
Na16 O117 2.362071 1_555
Na16 O77 2.372020 1_555
Na16 O73 2.397614 1_545
Na16 O115 2.434782 1_555
Na16 O1 2.495745 1_555
Na16 O43 2.562342 1_555
Na16 O63 2.930622 1_545
Na16 O59 2.935541 1_545
Na17 O117 2.305772 1_555
Na17 O75 2.378807 1_555
Na17 O119 2.430447 1_555
Na17 O72 2.447915 1_655
Na17 O45 2.606182 1_555
Na17 O3 2.626780 1_555
Na17 O65 2.801885 1_555
Na17 O55 2.804391 1_555
Na18 O72 2.433540 1_655
Na18 O75 2.465131 1_555
Na18 O76 2.493027 1_665
Na18 O89 2.546324 1_555
Na18 O85 2.549451 1_565
Na18 O86 2.600639 1_665
Na19 O74 2.354438 1_555
Na19 O73 2.430495 1_555
Na19 O88 2.452913 1_555
Na19 O77 2.540329 1_565
Na19 O87 2.586597 1_565
Na19 O84 2.666021 1_565
Na20 O83 2.356235 1_555
Na20 O78 2.460008 1_665
Na20 O94 2.496499 1_666
Na20 O80 2.538750 1_655
Na20 O93 2.540124 1_566
Na20 O91 2.613435 1_556
Na21 O82 2.380248 1_555
Na21 O79 2.380433 1_565
Na21 O92 2.517839 1_566
Na21 O81 2.542131 1_555
Na21 O90 2.629040 1_556
Na21 O95 2.701050 1_566
Na22 O110 2.418624 1_555
Na22 O98 2.445576 1_555
Na22 O100 2.501833 1_555
Na22 O96 2.504583 1_555
Na22 O112 2.551636 1_555
Na22 O108 2.613131 1_555
Na23 O97 2.447748 1_555
Na23 O109 2.472491 1_555
Na23 O111 2.491803 1_555
Na23 O99 2.494305 1_555
Na23 O101 2.505643 1_555
Na23 O113 2.629903 1_555
Na24 O102 2.386011 1_555
Na24 O106 2.482339 1_555
Na24 O118 2.502638 1_555
Na24 O114 2.533494 1_555
Na24 O116 2.542261 1_555
Na24 O104 2.600891 1_555
Na25 O107 2.442394 1_555
Na25 O105 2.459625 1_555
Na25 O119 2.473607 1_555
Na25 O103 2.478289 1_555
Na25 O117 2.504158 1_555
Na25 O115 2.652532 1_555
Na26 O120 2.397124 1_555
Na26 O124 2.487889 1_555
Na26 O122 2.533083 1_555
Na26 O132 2.565178 1_555
Na26 O136 2.599732 1_555
Na26 O134 2.645486 1_555
Na27 O121 2.358512 1_555
Na27 O125 2.496448 1_555
Na27 O135 2.533956 1_555
Na27 O133 2.582903 1_555
Na27 O137 2.622456 1_555
Na27 O123 2.627636 1_555
Na28 O126 2.342540 1_555
Na28 O128 2.476907 1_555
Na28 O142 2.564855 1_555
Na28 O138 2.591904 1_555
Na28 O130 2.650690 1_555
Na28 O140 2.685270 1_555
Na29 O127 2.414783 1_555
Na29 O129 2.435375 1_555
Na29 O131 2.486586 1_555
Na29 O139 2.581443 1_555
Na29 O141 2.608628 1_555
Na29 O143 2.619720 1_555
Nb0 O14 1.911374 1_555
Nb0 O13 1.919344 1_445
Nb0 O89 1.990558 1_445
Nb0 O86 2.002002 1_555
Nb0 O85 2.091840 1_455
Nb0 O16 2.132391 1_545
Nb1 O17 1.863279 1_555
Nb1 O88 1.925097 1_555
Nb1 O87 1.925632 1_565
Nb1 O15 1.979883 1_565
Nb1 O84 2.201638 1_565
Nb1 O12 2.252632 1_555
Nb2 O20 1.864054 1_555
Nb2 O94 1.920205 1_555
Nb2 O93 1.932921 1_455
Nb2 O22 1.983737 1_545
Nb2 O91 2.185904 1_445
Nb2 O19 2.218043 1_445
Nb3 O18 1.910650 1_555
Nb3 O23 1.925310 1_555
Nb3 O92 1.984925 1_565
Nb3 O95 2.010141 1_565
Nb3 O90 2.073971 1_555
Nb3 O21 2.125835 1_565
Nb4 O60 1.891309 1_555
Nb4 O132 1.932063 1_555
Nb4 O62 1.953190 1_555
Nb4 O136 2.009081 1_555
Nb4 O134 2.054942 1_555
Nb4 O64 2.176689 1_555
Nb5 O67 1.877689 1_555
Nb5 O139 1.922906 1_555
Nb5 O71 1.979532 1_555
Nb5 O141 2.004369 1_555
Nb5 O143 2.084353 1_555
Nb5 O69 2.178752 1_555
Al0 O0 1.806148 1_555
Al0 O5 1.830052 1_455
Al0 O72 1.949419 1_545
Al0 O3 1.979171 1_445
Al0 O76 2.085440 1_555
Al0 O75 2.158577 1_445
Al1 O2 1.808089 1_555
Al1 O1 1.828633 1_565
Al1 O74 1.883073 1_555
Al1 O77 1.930752 1_565
Al1 O73 2.064358 1_555
Al1 O4 2.095014 1_565
Al2 O6 1.767259 1_655
Al2 O11 1.820030 1_555
Al2 O83 1.874511 1_545
Al2 O9 2.009678 1_545
Al2 O78 2.135257 1_655
Al2 O80 2.145860 1_645
Al3 O7 1.838965 1_555
Al3 O8 1.843228 1_545
Al3 O79 1.905830 1_555
Al3 O10 1.907612 1_555
Al3 O82 2.137146 1_545
Al3 O81 2.155727 1_545
Al4 O26 1.795144 1_555
Al4 O28 1.831040 1_555
Al4 O98 1.852554 1_555
Al4 O100 1.907140 1_555
Al4 O24 2.192698 1_555
Al4 O96 2.205291 1_555
Al5 O27 1.799433 1_555
Al5 O29 1.847124 1_555
Al5 O97 1.870404 1_555
Al5 O99 1.906791 1_555
Al5 O25 2.075263 1_555
Al5 O101 2.290913 1_555
Al6 O34 1.799366 1_555
Al6 O32 1.860938 1_555
Al6 O102 1.883221 1_555
Al6 O106 1.904659 1_555
Al6 O30 2.071993 1_555
Al6 O104 2.240429 1_555
Al7 O35 1.791874 1_555
Al7 O33 1.830957 1_555
Al7 O107 1.850546 1_555
Al7 O105 1.910323 1_555
Al7 O103 2.206407 1_555
Al7 O31 2.239013 1_555
Al8 O40 1.786642 1_556
Al8 O36 1.814336 1_556
Al8 O110 1.839189 1_555
Al8 O112 2.058717 1_555
Al8 O38 2.063646 1_556
Al8 O108 2.238476 1_555
Al9 O37 1.801743 1_556
Al9 O41 1.824523 1_556
Al9 O109 1.875597 1_555
Al9 O39 1.880420 1_556
Al9 O113 2.193073 1_555
Al9 O111 2.275296 1_555
Al10 O44 1.781737 1_555
Al10 O42 1.804418 1_555
Al10 O114 1.909719 1_555
Al10 O46 1.958841 1_555
Al10 O116 2.111557 1_555
Al10 O118 2.244604 1_555
Al11 O45 1.804267 1_555
Al11 O43 1.839352 1_555
Al11 O117 1.874948 1_555
Al11 O119 1.875228 1_555
Al11 O47 2.095756 1_555
Al11 O115 2.208452 1_555
Al12 O120 1.793194 1_555
Al12 O124 1.852560 1_555
Al12 O48 1.892183 1_554
Al12 O50 1.976788 1_554
Al12 O52 2.026879 1_554
Al12 O122 2.137105 1_555
Al13 O49 1.779780 1_554
Al13 O121 1.824656 1_555
Al13 O125 1.863167 1_555
Al13 O51 1.902422 1_554
Al13 O53 2.245135 1_554
Al13 O123 2.406064 1_555
Al14 O54 1.748394 1_555
Al14 O126 1.829896 1_555
Al14 O128 1.850098 1_555
Al14 O58 1.905007 1_555
Al14 O56 2.246152 1_555
Al14 O130 2.378239 1_555
Al15 O127 1.815472 1_555
Al15 O57 1.825749 1_555
Al15 O129 1.870657 1_555
Al15 O55 2.020792 1_555
Al15 O59 2.057315 1_555
Al15 O131 2.093694 1_555
Al16 O65 1.771801 1_555
Al16 O133 1.830481 1_555
Al16 O61 1.954075 1_555
Al16 O137 1.996382 1_555
Al16 O63 2.015512 1_555
Al16 O135 2.110034 1_555
Al17 O138 1.815520 1_555
Al17 O66 1.891311 1_555
Al17 O70 1.915610 1_555
Al17 O68 1.919184 1_555
Al17 O140 2.008301 1_555
Al17 O142 2.080403 1_555
O0 Si0 1.615399 1_555
O1 Si1 1.606422 1_545
O2 Si2 1.583475 1_555
O3 S0 1.504679 1_555
O4 S1 1.475422 1_555
O5 Si3 1.618774 1_555
O6 Si4 1.601310 1_555
O7 Si5 1.612662 1_555
O8 Si6 1.614833 1_555
O9 S2 1.475667 1_655
O10 S3 1.487234 1_555
O11 Si7 1.602420 1_555
O12 S3 1.505311 1_565
O13 Si7 1.674523 1_565
O14 Si4 1.705720 1_555
O15 Si5 1.641204 1_555
O16 S2 1.516530 1_555
O17 Si6 1.701690 1_555
O18 Si2 1.679426 1_555
O19 S0 1.501376 1_555
O20 Si3 1.696245 1_455
O21 S1 1.511129 1_555
O22 Si0 1.639856 1_565
O23 Si1 1.697713 1_555
O24 S4 1.444921 1_555
O25 S5 1.483156 1_555
O26 Si8 1.594557 1_555
O27 Si9 1.628243 1_555
O28 Si10 1.632820 1_555
O29 Si11 1.639914 1_555
O30 S6 1.488310 1_555
O31 S7 1.450099 1_555
O32 Si12 1.645764 1_555
O33 Si13 1.629680 1_555
O34 Si14 1.630995 1_555
O35 Si15 1.597867 1_555
O36 Si14 1.609277 1_555
O37 Si15 1.634026 1_555
O38 S6 1.445780 1_555
O39 S7 1.483181 1_555
O40 Si12 1.607526 1_555
O41 Si13 1.635070 1_555
O42 Si8 1.634653 1_555
O43 Si9 1.620154 1_555
O44 Si10 1.617558 1_555
O45 Si11 1.621982 1_555
O46 S4 1.496786 1_555
O47 S5 1.453418 1_555
O48 S8 1.493508 1_555
O49 Si16 1.622844 1_555
O50 S9 1.476365 1_555
O51 Si17 1.650233 1_555
O52 S10 1.503575 1_555
O53 S11 1.462376 1_555
O54 Si18 1.594904 1_555
O55 S12 1.486679 1_555
O56 S13 1.458488 1_555
O57 Si19 1.652788 1_555
O58 Si20 1.630461 1_555
O59 S14 1.478354 1_555
O60 Si20 1.678834 1_555
O61 S14 1.499177 1_555
O62 Si18 1.690156 1_555
O63 S12 1.505329 1_555
O64 S13 1.496581 1_555
O65 Si19 1.636189 1_555
O66 S9 1.491363 1_555
O67 Si17 1.702105 1_555
O68 S10 1.498137 1_555
O69 S11 1.502385 1_555
O70 S8 1.508261 1_555
O71 Si16 1.703535 1_555
O72 Si20 1.680951 1_555
O73 S14 1.485762 1_555
O74 Si18 1.611758 1_555
O75 S12 1.497706 1_555
O76 S13 1.509076 1_555
O77 Si19 1.644240 1_555
O78 S9 1.498138 1_555
O79 Si17 1.659740 1_555
O80 S10 1.478015 1_555
O81 S11 1.485849 1_555
O82 S8 1.489609 1_555
O83 Si16 1.636394 1_555
O84 S4 1.518534 1_555
O85 S5 1.532546 1_555
O86 Si8 1.719411 1_555
O87 Si9 1.731228 1_555
O88 Si10 1.676566 1_555
O89 Si11 1.669574 1_555
O90 S6 1.530810 1_555
O91 S7 1.519961 1_555
O92 Si12 1.671710 1_555
O93 Si13 1.674841 1_555
O94 Si14 1.734424 1_555
O95 Si15 1.712826 1_555
O96 S3 1.447604 1_555
O97 Si7 1.612409 1_555
O98 Si4 1.620659 1_555
O99 Si5 1.634086 1_555
O100 Si6 1.601037 1_555
O101 S2 1.478710 1_655
O102 Si2 1.614963 1_555
O103 S0 1.443329 1_555
O104 S1 1.482005 1_555
O105 Si3 1.601818 1_555
O106 Si0 1.630904 1_555
O107 Si1 1.626042 1_545
O108 S8 1.463537 1_555
O109 Si16 1.638671 1_555
O110 Si17 1.618416 1_555
O111 S9 1.490798 1_655
O112 S10 1.484451 1_545
O113 S11 1.509017 1_545
O114 Si18 1.670063 1_545
O115 S12 1.467317 1_545
O116 S13 1.499092 1_555
O117 Si19 1.649409 1_555
O118 S14 1.485844 1_555
O119 Si20 1.616365 1_655
O120 Si14 1.610899 1_555
O121 Si15 1.627465 1_555
O122 S7 1.498279 1_455
O123 S6 1.487278 1_555
O124 Si12 1.636746 1_565
O125 Si13 1.642792 1_565
O126 Si8 1.625444 1_565
O127 Si9 1.607333 1_565
O128 Si10 1.643959 1_555
O129 Si11 1.627114 1_555
O130 S5 1.485278 1_455
O131 S4 1.496305 1_555
O132 Si0 1.655063 1_565
O133 Si1 1.658351 1_555
O134 Si2 1.672286 1_555
O135 S0 1.506944 1_555
O136 Si3 1.636149 1_455
O137 S1 1.476213 1_555
O138 Si4 1.656341 1_555
O139 Si5 1.657391 1_555
O140 S2 1.478859 1_555
O141 Si6 1.641651 1_555
O142 S3 1.514578 1_565
O143 Si7 1.663180 1_565
