# generated using pymatgen
data_Li2(CoO2)3
_symmetry_space_group_name_H-M   'P 1'
_cell_length_a   5.02106105
_cell_length_b   5.02108526
_cell_length_c   5.20096113
_cell_angle_alpha   79.96034034
_cell_angle_beta   79.95865848
_cell_angle_gamma   119.67781375
_symmetry_Int_Tables_number   1
_chemical_formula_structural   Li2(CoO2)3
_chemical_formula_sum   'Li2 Co3 O6'
_cell_volume   106.84360766
_cell_formula_units_Z   1
loop_
 _symmetry_equiv_pos_site_id
 _symmetry_equiv_pos_as_xyz
  1  'x, y, z'
loop_
 _atom_site_type_symbol
 _atom_site_label
 _atom_site_symmetry_multiplicity
 _atom_site_fract_x
 _atom_site_fract_y
 _atom_site_fract_z
 _atom_site_occupancy
  Li  Li0  1  0.32428944  0.67571368  0.99999639  1
  Li  Li1  1  0.67024790  0.32971535  0.99999068  1
  Co  Co0  1  0.49530592  0.50470335  0.49999654  1
  Co  Co1  1  0.16869163  0.83131756  0.50000031  1
  Co  Co2  1  0.83832877  0.16167578  0.49999874  1
  O  O0  1  0.76244675  0.75467615  0.70539740  1
  O  O1  1  0.53970952  0.90165557  0.27208703  1
  O  O2  1  0.24532893  0.23754695  0.29460914  1
  O  O3  1  0.09834160  0.46029318  0.72791803  1
  O  O4  1  0.92243619  0.56512927  0.29852716  1
  O  O5  1  0.43487235  0.07757316  0.70147860  1
loop_
_geom_bond_atom_site_label_1
_geom_bond_atom_site_label_2
_geom_bond_distance
_geom_bond_site_symmetry_2
Li0 O4 2.070695 1_456
Li0 O5 2.070723 1_565
Li0 O3 2.082738 1_555
Li0 O1 2.082779 1_556
Li0 O0 2.256958 1_555
Li0 O2 2.257078 1_556
Li1 O3 2.067077 1_655
Li1 O1 2.067104 1_546
Li1 O2 2.179243 1_556
Li1 O0 2.179318 1_555
Li1 O5 2.292050 1_555
Li1 O4 2.292326 1_556
Co0 O2 1.953399 1_555
Co0 O0 1.953410 1_555
Co0 O1 2.017772 1_555
Co0 O3 2.017793 1_555
Co0 O4 2.061718 1_555
Co0 O5 2.061757 1_555
Co1 O1 1.852760 1_555
Co1 O3 1.852806 1_555
Co1 O4 1.927914 1_455
Co1 O5 1.927918 1_565
Co1 O2 1.941484 1_565
Co1 O0 1.941517 1_455
Co2 O4 1.907490 1_555
Co2 O5 1.907492 1_555
Co2 O2 1.946373 1_655
Co2 O0 1.946399 1_545
Co2 O1 2.139782 1_545
Co2 O3 2.139793 1_655
