# generated using pymatgen
data_Na6Sc3NbSi2(PO6)4
_symmetry_space_group_name_H-M   'P 1'
_cell_length_a   9.06344310
_cell_length_b   9.06751344
_cell_length_c   22.75804406
_cell_angle_alpha   89.98591893
_cell_angle_beta   90.02464874
_cell_angle_gamma   119.92520062
_symmetry_Int_Tables_number   1
_chemical_formula_structural   Na6Sc3NbSi2(PO6)4
_chemical_formula_sum   'Na18 Sc9 Nb3 Si6 P12 O72'
_cell_volume   1620.96557922
_cell_formula_units_Z   3
loop_
 _symmetry_equiv_pos_site_id
 _symmetry_equiv_pos_as_xyz
  1  'x, y, z'
loop_
 _atom_site_type_symbol
 _atom_site_label
 _atom_site_symmetry_multiplicity
 _atom_site_fract_x
 _atom_site_fract_y
 _atom_site_fract_z
 _atom_site_occupancy
  Na  Na0  1  0.99666926  0.99196040  0.50238222  1
  Na  Na1  1  0.98466444  0.99310731  0.99639594  1
  Na  Na2  1  0.66321525  0.33355554  0.82962965  1
  Na  Na3  1  0.66300712  0.33547117  0.32924750  1
  Na  Na4  1  0.33362192  0.65928769  0.16339174  1
  Na  Na5  1  0.33199688  0.66451253  0.66616337  1
  Na  Na6  1  0.64145324  0.00882700  0.24755490  1
  Na  Na7  1  0.99695878  0.35844871  0.74800141  1
  Na  Na8  1  0.36289429  0.00522811  0.75035492  1
  Na  Na9  1  0.30084656  0.33335138  0.58630509  1
  Na  Na10  1  0.66831711  0.96793441  0.58425739  1
  Na  Na11  1  0.29722929  0.96353017  0.08337452  1
  Na  Na12  1  0.03673549  0.33664849  0.08240120  1
  Na  Na13  1  0.97528316  0.67972978  0.91593730  1
  Na  Na14  1  0.32250337  0.29441155  0.91495570  1
  Na  Na15  1  0.96239383  0.29418848  0.41691157  1
  Na  Na16  1  0.33470670  0.03554266  0.41512988  1
  Na  Na17  1  0.70105534  0.67113650  0.41783514  1
  Sc  Sc0  1  0.00215682  0.00101173  0.34791639  1
  Sc  Sc1  1  0.99929147  0.00326989  0.85197961  1
  Sc  Sc2  1  0.00206321  0.99778755  0.65138594  1
  Sc  Sc3  1  0.99859956  0.99131674  0.14992450  1
  Sc  Sc4  1  0.66486629  0.34228058  0.68479803  1
  Sc  Sc5  1  0.66252261  0.33796929  0.18651398  1
  Sc  Sc6  1  0.66691038  0.33064686  0.48423982  1
  Sc  Sc7  1  0.33984583  0.66798032  0.01657331  1
  Sc  Sc8  1  0.33256604  0.67006366  0.51857830  1
  Nb  Nb0  1  0.66734762  0.33030331  0.97799656  1
  Nb  Nb1  1  0.33239449  0.67121087  0.31147314  1
  Nb  Nb2  1  0.33830306  0.66294246  0.81631065  1
  Si  Si0  1  0.29434847  0.00586195  0.25003257  1
  Si  Si1  1  0.29559975  0.29457373  0.75001368  1
  Si  Si2  1  0.63052915  0.67233147  0.91894110  1
  Si  Si3  1  0.04225004  0.37325067  0.91853596  1
  Si  Si4  1  0.33366719  0.95557040  0.91801495  1
  Si  Si5  1  0.62786215  0.95981527  0.41772868  1
  P  P0  1  0.70720872  0.70530904  0.25150396  1
  P  P1  1  0.00196683  0.29453811  0.24976354  1
  P  P2  1  0.00062834  0.70604020  0.75139586  1
  P  P3  1  0.70508705  0.99773429  0.74910072  1
  P  P4  1  0.96141973  0.33356092  0.58398108  1
  P  P5  1  0.37178374  0.03921469  0.58372085  1
  P  P6  1  0.66851936  0.62887730  0.58187184  1
  P  P7  1  0.95506104  0.62299916  0.08358989  1
  P  P8  1  0.66674023  0.04293243  0.08484517  1
  P  P9  1  0.37642498  0.33521248  0.08360690  1
  P  P10  1  0.33247829  0.37754583  0.41684933  1
  P  P11  1  0.04397800  0.66726144  0.41635790  1
  O  O0  1  0.21059305  0.02605511  0.31019967  1
  O  O1  1  0.80952394  0.78695195  0.30802013  1
  O  O2  1  0.97093117  0.18379276  0.30547081  1
  O  O3  1  0.21161111  0.17944840  0.80809562  1
  O  O4  1  0.97363421  0.78304690  0.80714382  1
  O  O5  1  0.81925637  0.02884469  0.80228320  1
  O  O6  1  0.78009135  0.96682257  0.69249458  1
  O  O7  1  0.17473786  0.21558347  0.69146913  1
  O  O8  1  0.03434655  0.82203487  0.69754790  1
  O  O9  1  0.78316671  0.82591575  0.19835051  1
  O  O10  1  0.03236157  0.21519135  0.19448582  1
  O  O11  1  0.17790583  0.96561443  0.19126339  1
  O  O12  1  0.87657764  0.35716840  0.63883010  1
  O  O13  1  0.48634938  0.12277084  0.63806492  1
  O  O14  1  0.63694083  0.51071144  0.63480956  1
  O  O15  1  0.86831823  0.50682265  0.13610878  1
  O  O16  1  0.64019556  0.12664500  0.13951198  1
  O  O17  1  0.48747390  0.35644608  0.13670161  1
  O  O18  1  0.46661518  0.30869764  0.02787257  1
  O  O19  1  0.84333289  0.53109548  0.02719465  1
  O  O20  1  0.69032621  0.16415255  0.03021156  1
  O  O21  1  0.45484560  0.15155940  0.52786194  1
  O  O22  1  0.69201159  0.54615966  0.52544861  1
  O  O23  1  0.84943268  0.30570339  0.52811521  1
  O  O24  1  0.53728907  0.69462918  0.97419667  1
  O  O25  1  0.15574972  0.45796194  0.97614539  1
  O  O26  1  0.29933945  0.84160567  0.97589496  1
  O  O27  1  0.53922620  0.83852027  0.47425690  1
  O  O28  1  0.30069686  0.45519001  0.47226893  1
  O  O29  1  0.15769290  0.69724134  0.46971768  1
  O  O30  1  0.13418080  0.63749086  0.36214135  1
  O  O31  1  0.49858086  0.85795116  0.36018465  1
  O  O32  1  0.35805877  0.49597191  0.36331573  1
  O  O33  1  0.13176972  0.50213030  0.85987241  1
  O  O34  1  0.36605752  0.86681755  0.85869894  1
  O  O35  1  0.49742649  0.63005458  0.86122546  1
  O  O36  1  0.02466858  0.82640858  0.40978551  1
  O  O37  1  0.81579523  0.97868791  0.41048779  1
  O  O38  1  0.17381160  0.19788783  0.41027731  1
  O  O39  1  0.02528959  0.19004503  0.90986375  1
  O  O40  1  0.17110820  0.98228456  0.91018756  1
  O  O41  1  0.82146713  0.82370814  0.90993976  1
  O  O42  1  0.97469722  0.16787070  0.58734383  1
  O  O43  1  0.19613765  0.02818037  0.58865819  1
  O  O44  1  0.82317458  0.81025767  0.58807876  1
  O  O45  1  0.97558124  0.80311656  0.08639432  1
  O  O46  1  0.83408272  0.03708002  0.08697559  1
  O  O47  1  0.19814631  0.16933383  0.08647278  1
  O  O48  1  0.68443062  0.15819528  0.74327390  1
  O  O49  1  0.48177627  0.30842124  0.74376199  1
  O  O50  1  0.85031807  0.52167883  0.74397768  1
  O  O51  1  0.68505859  0.52854798  0.24468417  1
  O  O52  1  0.84176338  0.31195903  0.24404749  1
  O  O53  1  0.49152094  0.15803218  0.24517454  1
  O  O54  1  0.63704927  0.49076947  0.92523258  1
  O  O55  1  0.85634781  0.36807607  0.92450879  1
  O  O56  1  0.50464943  0.14932259  0.92558323  1
  O  O57  1  0.63982485  0.14672007  0.41992925  1
  O  O58  1  0.49652701  0.36356268  0.42073329  1
  O  O59  1  0.86571309  0.50505131  0.42024987  1
  O  O60  1  0.34863508  0.48904350  0.07918562  1
  O  O61  1  0.13437337  0.64092496  0.07856861  1
  O  O62  1  0.50364936  0.86968036  0.07818917  1
  O  O63  1  0.36108315  0.86385254  0.57757346  1
  O  O64  1  0.50257049  0.64197578  0.57795171  1
  O  O65  1  0.14326206  0.48839388  0.57770069  1
  O  O66  1  0.31387878  0.82785473  0.25903280  1
  O  O67  1  0.52540734  0.69114707  0.25952215  1
  O  O68  1  0.16458661  0.47347244  0.25981689  1
  O  O69  1  0.30527356  0.48418581  0.75747688  1
  O  O70  1  0.16818604  0.69177675  0.75621363  1
  O  O71  1  0.52026754  0.83947719  0.75656470  1
loop_
_geom_bond_atom_site_label_1
_geom_bond_atom_site_label_2
_geom_bond_distance
_geom_bond_site_symmetry_2
Na0 O44 2.531195 1_555
Na0 O43 2.576109 1_665
Na0 O42 2.577078 1_565
Na0 O37 2.622202 1_555
Na0 O36 2.672214 1_655
Na0 O38 2.732748 1_665
Na1 O41 2.480059 1_555
Na1 O39 2.558408 1_665
Na1 O46 2.610906 1_566
Na1 O40 2.623494 1_655
Na1 O45 2.650774 1_556
Na1 O47 2.722669 1_666
Na2 O49 2.489686 1_555
Na2 O50 2.588478 1_555
Na2 O48 2.595112 1_555
Na2 O54 2.676099 1_555
Na2 O56 2.688909 1_555
Na2 O55 2.697195 1_555
Na3 O53 2.483776 1_555
Na3 O51 2.541306 1_555
Na3 O52 2.603369 1_555
Na3 O57 2.621498 1_555
Na3 O58 2.657617 1_555
Na3 O59 2.684889 1_555
Na4 O60 2.507033 1_555
Na4 O61 2.590859 1_555
Na4 O62 2.615656 1_555
Na4 O66 2.716753 1_555
Na4 O67 2.717931 1_555
Na4 O68 2.725286 1_555
Na5 O69 2.579624 1_555
Na5 O64 2.603856 1_555
Na5 O65 2.608174 1_555
Na5 O70 2.614271 1_555
Na5 O63 2.631474 1_555
Na5 O71 2.637985 1_555
Na6 O53 2.348228 1_555
Na6 O52 2.424589 1_555
Na6 O67 2.540684 1_545
Na6 O66 2.591372 1_545
Na6 O16 2.682944 1_555
Na6 O9 2.789631 1_545
Na6 O31 2.890015 1_545
Na6 O2 2.905582 1_555
Na7 O50 2.434750 1_555
Na7 O69 2.444560 1_655
Na7 O48 2.490038 1_555
Na7 O70 2.626529 1_655
Na7 O12 2.710807 1_555
Na7 O7 2.831051 1_655
Na7 O33 2.843048 1_655
Na7 O5 2.872208 1_555
Na8 O49 2.405419 1_555
Na8 O70 2.491162 1_545
Na8 O48 2.531769 1_555
Na8 O71 2.540054 1_545
Na8 O34 2.773073 1_545
Na8 O13 2.780252 1_555
Na8 O8 2.851910 1_545
Na8 O3 2.875089 1_555
Na9 O43 2.437297 1_555
Na9 O65 2.461235 1_555
Na9 O64 2.470907 1_555
Na9 O42 2.562177 1_455
Na9 O7 2.637814 1_555
Na9 O28 2.820617 1_555
Na9 O14 2.862551 1_555
Na9 O21 2.955107 1_555
Na10 O42 2.445326 1_565
Na10 O44 2.454308 1_555
Na10 O63 2.458752 1_555
Na10 O64 2.565753 1_555
Na10 O6 2.664977 1_555
Na10 O27 2.764416 1_555
Na10 O13 2.916094 1_565
Na10 O23 2.948065 1_565
Na11 O62 2.413919 1_555
Na11 O47 2.442548 1_565
Na11 O45 2.527531 1_455
Na11 O61 2.537645 1_555
Na11 O11 2.687257 1_555
Na11 O26 2.688515 1_554
Na12 O46 2.405213 1_455
Na12 O61 2.442719 1_555
Na12 O60 2.451280 1_555
Na12 O47 2.581610 1_555
Na12 O25 2.652961 1_554
Na12 O10 2.770619 1_555
Na12 O15 2.925337 1_455
Na12 O20 2.968613 1_455
Na13 O41 2.341414 1_555
Na13 O40 2.415666 1_655
Na13 O55 2.479206 1_555
Na13 O4 2.649695 1_555
Na13 O54 2.671684 1_555
Na13 O19 2.837330 1_556
Na13 O26 2.887727 1_655
Na13 O33 2.917936 1_655
Na14 O39 2.371024 1_555
Na14 O40 2.455609 1_545
Na14 O54 2.507481 1_555
Na14 O56 2.584788 1_555
Na14 O3 2.639107 1_555
Na14 O18 2.855691 1_556
Na14 O35 2.908087 1_555
Na14 O25 2.943095 1_555
Na15 O59 2.470041 1_555
Na15 O38 2.475227 1_655
Na15 O37 2.485661 1_545
Na15 O57 2.537663 1_555
Na15 O2 2.742060 1_555
Na15 O23 2.751900 1_555
Na15 O28 2.941321 1_655
Na15 O30 2.971868 1_655
Na16 O57 2.427762 1_555
Na16 O36 2.488009 1_545
Na16 O38 2.539153 1_555
Na16 O58 2.580995 1_555
Na16 O0 2.622328 1_555
Na16 O21 2.780369 1_555
Na16 O29 2.935421 1_545
Na16 O31 2.958319 1_545
Na17 O37 2.448020 1_555
Na17 O58 2.461825 1_555
Na17 O36 2.549266 1_655
Na17 O59 2.596234 1_555
Na17 O22 2.682352 1_555
Na17 O1 2.699248 1_555
Na17 O27 2.885712 1_555
Na17 O32 2.966074 1_555
Nb0 O56 1.968591 1_555
Nb0 O55 1.987366 1_555
Nb0 O54 2.007976 1_555
Nb0 O20 2.009276 1_556
Nb0 O19 2.052956 1_556
Nb0 O18 2.069490 1_556
Nb1 O66 1.925287 1_555
Nb1 O31 1.954387 1_555
Nb1 O30 2.025862 1_555
Nb1 O67 2.043756 1_555
Nb1 O68 2.046635 1_555
Nb1 O32 2.082930 1_555
Nb2 O35 1.908250 1_555
Nb2 O33 1.972466 1_555
Nb2 O34 1.986967 1_555
Nb2 O69 2.006544 1_555
Nb2 O71 2.120834 1_555
Nb2 O70 2.171738 1_555
O0 Si0 1.620006 1_555
O0 Sc0 1.982552 1_555
O1 P0 1.541680 1_555
O1 Sc0 2.063594 1_665
O2 P1 1.553271 1_655
O2 Sc0 2.055980 1_655
O3 Si1 1.619806 1_555
O3 Sc1 2.046027 1_455
O4 P2 1.525848 1_655
O4 Sc1 2.149474 1_565
O5 P3 1.524161 1_545
O5 Sc1 2.090770 1_555
O6 P3 1.546385 1_555
O6 Sc2 2.106999 1_655
O7 Si1 1.644549 1_555
O7 Sc2 2.024222 1_545
O8 P2 1.542860 1_555
O8 Sc2 2.047712 1_555
O9 P0 1.543407 1_555
O9 Sc3 2.087024 1_555
O10 P1 1.540984 1_555
O10 Sc3 2.150328 1_445
O11 Si0 1.628056 1_565
O11 Sc3 1.989203 1_455
O12 P4 1.536378 1_555
O12 Sc4 2.130203 1_555
O13 P5 1.547976 1_555
O13 Sc4 2.120644 1_555
O14 P6 1.541136 1_555
O14 Sc4 2.018749 1_555
O15 P7 1.526514 1_555
O15 Sc5 2.071418 1_555
O16 P8 1.537790 1_555
O16 Sc5 2.114440 1_555
O17 P9 1.521798 1_555
O17 Sc5 2.023333 1_555
O18 P9 1.591219 1_555
O19 P7 1.588890 1_555
O20 P8 1.601534 1_555
O21 P5 1.567019 1_555
O21 Sc6 2.050249 1_555
O22 P6 1.554611 1_555
O22 Sc6 2.075377 1_555
O23 P4 1.566430 1_555
O23 Sc6 2.038778 1_555
O24 Si2 1.583627 1_555
O24 Sc7 1.939271 1_556
O25 Si3 1.605650 1_555
O25 Sc7 2.021466 1_556
O26 Si4 1.605826 1_555
O26 Sc7 2.011483 1_556
O27 Si5 1.621317 1_555
O27 Sc8 2.001306 1_555
O28 P10 1.540280 1_555
O28 Sc8 2.104649 1_555
O29 P11 1.526552 1_555
O29 Sc8 2.048741 1_555
O30 P11 1.576356 1_555
O31 Si5 1.691321 1_555
O32 P10 1.562807 1_555
O33 Si3 1.691306 1_555
O34 Si4 1.671138 1_555
O35 Si2 1.692638 1_555
O36 P11 1.545089 1_555
O36 Sc0 2.202653 1_565
O37 Si5 1.633139 1_555
O37 Sc0 2.140686 1_665
O38 P10 1.551375 1_555
O38 Sc0 2.202217 1_555
O39 Si3 1.602368 1_555
O39 Sc1 2.064409 1_455
O40 Si4 1.617710 1_555
O40 Sc1 2.123633 1_465
O41 Si2 1.597187 1_555
O41 Sc1 2.090702 1_565
O42 P4 1.567758 1_555
O42 Sc2 2.223615 1_645
O43 P5 1.548611 1_555
O43 Sc2 2.173985 1_545
O44 P6 1.545797 1_555
O44 Sc2 2.201005 1_655
O45 P7 1.550173 1_555
O45 Sc3 2.166064 1_555
O46 P8 1.544598 1_555
O46 Sc3 2.250128 1_545
O47 P9 1.566090 1_555
O47 Sc3 2.247244 1_445
O48 P3 1.562458 1_545
O48 Sc4 2.209682 1_555
O49 Si1 1.634665 1_555
O49 Sc4 2.035203 1_555
O50 P2 1.551357 1_655
O50 Sc4 2.134561 1_555
O51 P0 1.520645 1_555
O51 Sc5 2.104576 1_555
O52 P1 1.542348 1_655
O52 Sc5 2.188480 1_555
O53 Si0 1.627744 1_555
O53 Sc5 2.079438 1_555
O54 Si2 1.682645 1_555
O55 Si3 1.667612 1_655
O56 Si4 1.673688 1_545
O57 Si5 1.644136 1_545
O57 Sc6 2.139196 1_555
O58 P10 1.556463 1_555
O58 Sc6 2.240625 1_555
O59 P11 1.552641 1_655
O59 Sc6 2.241959 1_555
O60 P9 1.539368 1_555
O60 Sc7 2.190217 1_555
O61 P7 1.554766 1_455
O61 Sc7 2.250594 1_555
O62 P8 1.535865 1_565
O62 Sc7 2.192197 1_555
O63 P5 1.550363 1_565
O63 Sc8 2.122459 1_555
O64 P6 1.569204 1_555
O64 Sc8 2.157404 1_555
O65 P4 1.548954 1_455
O65 Sc8 2.156087 1_555
O66 Si0 1.721460 1_565
O67 P0 1.598121 1_555
O68 P1 1.571976 1_555
O69 Si1 1.685909 1_555
O70 P2 1.590869 1_555
O71 P3 1.579821 1_555
