# generated using pymatgen
data_Na8MgSi5Sn3SO24
_symmetry_space_group_name_H-M   'P 1'
_cell_length_a   9.15108629
_cell_length_b   9.14746520
_cell_length_c   22.49555403
_cell_angle_alpha   90.64381535
_cell_angle_beta   90.16383327
_cell_angle_gamma   120.10750608
_symmetry_Int_Tables_number   1
_chemical_formula_structural   Na8MgSi5Sn3SO24
_chemical_formula_sum   'Na24 Mg3 Si15 Sn9 S3 O72'
_cell_volume   1628.84921656
_cell_formula_units_Z   3
loop_
 _symmetry_equiv_pos_site_id
 _symmetry_equiv_pos_as_xyz
  1  'x, y, z'
loop_
 _atom_site_type_symbol
 _atom_site_label
 _atom_site_symmetry_multiplicity
 _atom_site_fract_x
 _atom_site_fract_y
 _atom_site_fract_z
 _atom_site_occupancy
  Na  Na0  1  0.64494916  0.01700825  0.24751886  1
  Na  Na1  1  0.36233573  0.36346656  0.24408703  1
  Na  Na2  1  0.99091262  0.61607875  0.24535563  1
  Na  Na3  1  0.63309012  0.62248579  0.74850529  1
  Na  Na4  1  0.99049386  0.36508333  0.75231879  1
  Na  Na5  1  0.37740577  0.00908044  0.74849610  1
  Na  Na6  1  0.31300211  0.33312704  0.58812698  1
  Na  Na7  1  0.03170434  0.70597794  0.58437185  1
  Na  Na8  1  0.66047068  0.96394722  0.58966986  1
  Na  Na9  1  0.30704531  0.97041254  0.07922951  1
  Na  Na10  1  0.66395521  0.69410787  0.07886381  1
  Na  Na11  1  0.03155141  0.33863082  0.08089671  1
  Na  Na12  1  0.96552900  0.66610149  0.91528743  1
  Na  Na13  1  0.69998422  0.03388309  0.91505727  1
  Na  Na14  1  0.33414404  0.29991148  0.91539394  1
  Na  Na15  1  0.96631301  0.29052659  0.41247129  1
  Na  Na16  1  0.32362277  0.03226640  0.41885096  1
  Na  Na17  1  0.70811136  0.67583126  0.41889656  1
  Na  Na18  1  0.00093011  0.99453213  0.49633409  1
  Na  Na19  1  0.00043916  0.00068614  0.99643840  1
  Na  Na20  1  0.66633368  0.33298003  0.82824125  1
  Na  Na21  1  0.67628984  0.33230668  0.33434018  1
  Na  Na22  1  0.32830576  0.66084532  0.16021063  1
  Na  Na23  1  0.34099003  0.67313833  0.67147227  1
  Mg  Mg0  1  0.99707249  0.00744908  0.35650485  1
  Mg  Mg1  1  0.65257299  0.32955069  0.68925684  1
  Mg  Mg2  1  0.67659421  0.33336519  0.17645380  1
  Si  Si0  1  0.99693529  0.29404031  0.25341125  1
  Si  Si1  1  0.29117525  0.29254209  0.75060997  1
  Si  Si2  1  0.99982889  0.70063662  0.75093718  1
  Si  Si3  1  0.70695098  0.00174279  0.74989563  1
  Si  Si4  1  0.37333476  0.04029049  0.58456351  1
  Si  Si5  1  0.66663757  0.62714355  0.58516810  1
  Si  Si6  1  0.96161113  0.62736399  0.08612158  1
  Si  Si7  1  0.66178446  0.03935653  0.08477208  1
  Si  Si8  1  0.37995562  0.33748595  0.08588695  1
  Si  Si9  1  0.62687144  0.66640304  0.91680819  1
  Si  Si10  1  0.03983203  0.37373352  0.91637153  1
  Si  Si11  1  0.33332224  0.95976879  0.91701258  1
  Si  Si12  1  0.62861432  0.96174152  0.41564160  1
  Si  Si13  1  0.33259683  0.37146845  0.41754255  1
  Si  Si14  1  0.03504344  0.66576087  0.41799183  1
  Sn  Sn0  1  0.99909928  0.99894236  0.85145409  1
  Sn  Sn1  1  0.00117131  0.98886870  0.65311671  1
  Sn  Sn2  1  0.00404855  0.01321287  0.14444668  1
  Sn  Sn3  1  0.66783333  0.33475672  0.98208102  1
  Sn  Sn4  1  0.65853105  0.33531964  0.48151794  1
  Sn  Sn5  1  0.33341349  0.66662321  0.01710823  1
  Sn  Sn6  1  0.34193735  0.67512455  0.51622490  1
  Sn  Sn7  1  0.32318633  0.65537431  0.32175871  1
  Sn  Sn8  1  0.33452824  0.66659201  0.81457315  1
  S  S0  1  0.29131393  0.99935131  0.25189201  1
  S  S1  1  0.70853103  0.70883638  0.25159248  1
  S  S2  1  0.95794292  0.33384565  0.58364410  1
  O  O0  1  0.20806491  0.01922495  0.30404473  1
  O  O1  1  0.81530053  0.79014467  0.30380779  1
  O  O2  1  0.97123754  0.17510490  0.30857617  1
  O  O3  1  0.20626256  0.17229526  0.80854589  1
  O  O4  1  0.96201588  0.78714064  0.80878974  1
  O  O5  1  0.82636970  0.03584295  0.80892015  1
  O  O6  1  0.78732036  0.96015494  0.68958267  1
  O  O7  1  0.16795588  0.21380171  0.68981388  1
  O  O8  1  0.04747220  0.82129961  0.69101488  1
  O  O9  1  0.78410593  0.81232735  0.19673928  1
  O  O10  1  0.04329837  0.21551269  0.19279956  1
  O  O11  1  0.18416251  0.96525329  0.19663986  1
  O  O12  1  0.88072325  0.36136280  0.63554690  1
  O  O13  1  0.49753380  0.12125316  0.64004614  1
  O  O14  1  0.63187701  0.50772830  0.64051860  1
  O  O15  1  0.88632212  0.51708592  0.14470064  1
  O  O16  1  0.62481485  0.11272156  0.14445335  1
  O  O17  1  0.49019532  0.36954444  0.14563101  1
  O  O18  1  0.45599619  0.29561695  0.02605997  1
  O  O19  1  0.84193354  0.55240167  0.02617749  1
  O  O20  1  0.70694088  0.16010517  0.02614571  1
  O  O21  1  0.45021416  0.15317697  0.52270982  1
  O  O22  1  0.71103301  0.55348776  0.52352270  1
  O  O23  1  0.85433613  0.30406489  0.52773748  1
  O  O24  1  0.54819219  0.70658016  0.97620734  1
  O  O25  1  0.15858670  0.45191705  0.97629142  1
  O  O26  1  0.29330884  0.84143242  0.97599317  1
  O  O27  1  0.54683954  0.84296839  0.47367165  1
  O  O28  1  0.29291037  0.45775068  0.47513459  1
  O  O29  1  0.15795135  0.70047569  0.47586644  1
  O  O30  1  0.11096265  0.62159496  0.35756575  1
  O  O31  1  0.50121851  0.87963090  0.35575541  1
  O  O32  1  0.38222250  0.49507800  0.35831354  1
  O  O33  1  0.12068491  0.49444656  0.85871014  1
  O  O34  1  0.37429640  0.87906973  0.85872325  1
  O  O35  1  0.50527818  0.62533250  0.85842757  1
  O  O36  1  0.01849736  0.83137636  0.40960905  1
  O  O37  1  0.80988031  0.97600770  0.41048935  1
  O  O38  1  0.16956217  0.18646216  0.41160331  1
  O  O39  1  0.02246267  0.18596242  0.91232927  1
  O  O40  1  0.16355707  0.97797641  0.91234077  1
  O  O41  1  0.81451945  0.83698857  0.91244795  1
  O  O42  1  0.97692158  0.18099069  0.58623353  1
  O  O43  1  0.18302283  0.02481613  0.58742356  1
  O  O44  1  0.83588571  0.82232987  0.58729637  1
  O  O45  1  0.98091463  0.81942085  0.09277572  1
  O  O46  1  0.83192081  0.01627666  0.08874955  1
  O  O47  1  0.18864283  0.16293762  0.08773306  1
  O  O48  1  0.69204092  0.16882680  0.74427403  1
  O  O49  1  0.47450218  0.31027892  0.74651236  1
  O  O50  1  0.83509612  0.51706736  0.74333884  1
  O  O51  1  0.68407122  0.53654063  0.24573157  1
  O  O52  1  0.83243447  0.31830416  0.24696048  1
  O  O53  1  0.45994573  0.15266931  0.24647829  1
  O  O54  1  0.64358692  0.49603794  0.92223370  1
  O  O55  1  0.85253934  0.35649875  0.92243714  1
  O  O56  1  0.50401168  0.14742355  0.92257701  1
  O  O57  1  0.64321897  0.14878918  0.42225846  1
  O  O58  1  0.50719235  0.36103055  0.42044911  1
  O  O59  1  0.85164207  0.48877523  0.42336918  1
  O  O60  1  0.35480511  0.50340662  0.07902468  1
  O  O61  1  0.15085870  0.64951428  0.07843182  1
  O  O62  1  0.49500606  0.84860121  0.07805342  1
  O  O63  1  0.34512517  0.84474543  0.57768769  1
  O  O64  1  0.49233059  0.64263669  0.57737150  1
  O  O65  1  0.13010416  0.48784581  0.57776318  1
  O  O66  1  0.31143377  0.84457380  0.25444436  1
  O  O67  1  0.53671638  0.69636702  0.25506065  1
  O  O68  1  0.17949041  0.48967550  0.25473846  1
  O  O69  1  0.30290414  0.47858884  0.75420095  1
  O  O70  1  0.17537456  0.69229050  0.75538714  1
  O  O71  1  0.52166275  0.82593024  0.75420506  1
loop_
_geom_bond_atom_site_label_1
_geom_bond_atom_site_label_2
_geom_bond_distance
_geom_bond_site_symmetry_2
Na0 O52 2.407643 1_555
Na0 O16 2.526072 1_555
Na0 O53 2.552425 1_555
Na0 O67 2.590415 1_545
Na0 O66 2.646822 1_545
Na0 O31 2.768838 1_545
Na0 O2 2.914325 1_555
Na0 O9 2.963838 1_545
Na1 O68 2.474684 1_555
Na1 O17 2.495973 1_555
Na1 O53 2.499800 1_555
Na1 O51 2.549116 1_555
Na1 O67 2.643156 1_555
Na1 O10 2.769119 1_555
Na1 O32 2.791649 1_555
Na2 O52 2.358693 1_555
Na2 O15 2.436203 1_555
Na2 O51 2.522812 1_555
Na2 O68 2.522849 1_655
Na2 O66 2.617270 1_655
Na2 O30 2.739861 1_655
Na3 O49 2.470419 1_555
Na3 O50 2.479462 1_555
Na3 O71 2.533514 1_555
Na3 O69 2.625776 1_555
Na3 O14 2.633256 1_555
Na3 O35 2.743882 1_555
Na3 O4 2.924094 1_555
Na3 O6 3.003128 1_555
Na4 O48 2.405363 1_555
Na4 O50 2.446229 1_555
Na4 O69 2.504682 1_655
Na4 O70 2.596191 1_655
Na4 O33 2.655823 1_655
Na4 O12 2.803418 1_555
Na4 O5 2.916590 1_555
Na4 O7 2.958601 1_655
Na5 O49 2.435071 1_555
Na5 O48 2.493608 1_555
Na5 O70 2.544861 1_545
Na5 O71 2.605516 1_545
Na5 O13 2.674534 1_555
Na5 O34 2.756159 1_545
Na5 O8 2.909150 1_545
Na5 O3 2.969731 1_555
Na6 O43 2.449971 1_555
Na6 O64 2.474637 1_555
Na6 O7 2.608804 1_555
Na6 O42 2.664809 1_455
Na6 O65 2.690793 1_555
Na6 O14 2.778001 1_555
Na6 O28 2.840245 1_555
Na6 O21 2.912312 1_555
Na7 O63 2.492858 1_555
Na7 O44 2.502145 1_455
Na7 O43 2.524224 1_565
Na7 O65 2.571200 1_555
Na7 O8 2.584037 1_555
Na7 O29 2.714201 1_555
Na7 O22 2.873708 1_455
Na7 O12 2.982053 1_455
Na8 O44 2.518528 1_555
Na8 O63 2.534030 1_555
Na8 O6 2.535271 1_555
Na8 O64 2.554405 1_555
Na8 O42 2.563287 1_565
Na8 O13 2.775532 1_565
Na8 O27 2.807180 1_555
Na9 O62 2.474520 1_555
Na9 O47 2.494017 1_565
Na9 O61 2.539546 1_555
Na9 O26 2.566932 1_554
Na9 O45 2.605123 1_455
Na9 O18 2.856437 1_565
Na9 O11 2.865186 1_555
Na9 O16 2.904897 1_565
Na10 O60 2.468948 1_555
Na10 O45 2.544810 1_555
Na10 O46 2.556526 1_565
Na10 O62 2.565212 1_555
Na10 O24 2.565418 1_554
Na10 O19 2.798608 1_555
Na10 O9 2.852323 1_555
Na11 O61 2.484196 1_555
Na11 O60 2.559901 1_555
Na11 O46 2.583162 1_455
Na11 O25 2.612372 1_554
Na11 O47 2.644864 1_555
Na11 O10 2.792925 1_555
Na11 O20 2.841656 1_455
Na11 O15 2.936990 1_455
Na12 O55 2.487775 1_555
Na12 O40 2.499092 1_655
Na12 O41 2.554642 1_555
Na12 O54 2.556201 1_555
Na12 O4 2.657312 1_555
Na12 O19 2.734582 1_556
Na12 O33 2.881577 1_655
Na12 O26 2.921538 1_655
Na13 O56 2.487951 1_555
Na13 O41 2.497555 1_545
Na13 O39 2.555764 1_655
Na13 O55 2.557338 1_555
Na13 O5 2.652284 1_555
Na13 O20 2.728125 1_556
Na13 O34 2.863194 1_545
Na13 O24 2.952440 1_545
Na14 O54 2.481041 1_555
Na14 O39 2.498203 1_555
Na14 O40 2.548874 1_545
Na14 O56 2.562646 1_555
Na14 O3 2.657041 1_555
Na14 O18 2.733641 1_556
Na14 O35 2.894169 1_555
Na14 O25 2.932904 1_555
Na15 O38 2.478313 1_655
Na15 O37 2.488670 1_545
Na15 O59 2.520040 1_555
Na15 O2 2.563603 1_555
Na15 O57 2.575965 1_555
Na15 O23 2.814993 1_555
Na15 O30 2.919042 1_655
Na15 O28 2.932624 1_655
Na16 O38 2.450012 1_555
Na16 O36 2.461097 1_545
Na16 O57 2.562223 1_555
Na16 O21 2.581647 1_555
Na16 O58 2.606972 1_555
Na16 O0 2.766472 1_555
Na16 O29 2.938933 1_545
Na16 O31 2.974976 1_545
Na17 O37 2.426924 1_555
Na17 O36 2.468072 1_655
Na17 O58 2.522875 1_555
Na17 O22 2.623274 1_555
Na17 O59 2.630778 1_555
Na17 O1 2.793703 1_555
Na17 O27 2.874985 1_555
Na17 O32 2.909314 1_555
Na18 O36 2.497293 1_555
Na18 O38 2.543770 1_565
Na18 O37 2.547681 1_455
Na18 O43 2.560644 1_565
Na18 O44 2.579306 1_455
Na18 O42 2.710764 1_465
Na19 O41 2.463512 1_445
Na19 O40 2.483694 1_545
Na19 O39 2.494901 1_555
Na19 O47 2.594919 1_556
Na19 O46 2.634961 1_456
Na19 O45 2.695110 1_446
Na20 O49 2.472295 1_555
Na20 O48 2.484190 1_555
Na20 O50 2.519642 1_555
Na20 O54 2.642342 1_555
Na20 O55 2.653542 1_555
Na20 O56 2.675907 1_555
Na21 O52 2.473047 1_555
Na21 O59 2.499515 1_555
Na21 O57 2.527768 1_555
Na21 O58 2.574764 1_555
Na21 O53 2.677150 1_555
Na21 O51 2.723895 1_555
Na22 O60 2.400444 1_555
Na22 O61 2.416961 1_555
Na22 O62 2.480235 1_555
Na22 O68 2.603876 1_555
Na22 O66 2.743042 1_555
Na22 O67 2.763159 1_555
Na23 O71 2.399251 1_555
Na23 O70 2.483220 1_555
Na23 O69 2.491559 1_555
Na23 O64 2.620704 1_555
Na23 O63 2.632847 1_555
Na23 O65 2.766910 1_555
Mg0 O2 1.992444 1_555
Mg0 O37 2.004343 1_545
Mg0 O38 2.014781 1_655
Mg0 O36 2.101982 1_645
Mg0 O1 2.177622 1_545
Mg0 O0 2.222507 1_655
Mg1 O49 2.018494 1_555
Mg1 O13 2.024959 1_555
Mg1 O14 2.059877 1_555
Mg1 O50 2.068664 1_555
Mg1 O48 2.096379 1_555
Mg1 O12 2.305713 1_555
Mg2 O15 1.953705 1_555
Mg2 O16 1.955075 1_555
Mg2 O17 2.016093 1_555
Mg2 O52 2.181175 1_555
Mg2 O51 2.386276 1_555
Mg2 O53 2.435732 1_555
O0 S0 1.459139 1_545
O1 S1 1.460234 1_555
O2 Si0 1.598212 1_555
O3 Si1 1.640978 1_555
O3 Sn0 2.017203 1_445
O4 Si2 1.641256 1_555
O4 Sn0 2.021568 1_555
O5 Si3 1.641635 1_555
O5 Sn0 2.015400 1_545
O6 Si3 1.673700 1_565
O6 Sn1 2.017420 1_655
O7 Si1 1.677776 1_555
O7 Sn1 2.012108 1_545
O8 Si2 1.667167 1_455
O8 Sn1 1.983634 1_555
O9 S1 1.507127 1_555
O9 Sn2 2.272251 1_665
O10 Si0 1.685874 1_455
O10 Sn2 2.005572 1_555
O11 S0 1.510338 1_555
O11 Sn2 2.239119 1_565
O12 S2 1.450005 1_555
O13 Si4 1.588925 1_555
O14 Si5 1.590287 1_555
O15 Si6 1.602062 1_555
O16 Si7 1.605441 1_555
O17 Si8 1.611385 1_555
O18 Si8 1.644181 1_555
O18 Sn3 2.046342 1_554
O19 Si6 1.644799 1_555
O19 Sn3 2.061641 1_554
O20 Si7 1.645611 1_555
O20 Sn3 2.066452 1_554
O21 Si4 1.675231 1_555
O21 Sn4 2.031510 1_555
O22 Si5 1.672997 1_555
O22 Sn4 2.024735 1_555
O23 S2 1.510356 1_555
O23 Sn4 2.209845 1_555
O24 Si9 1.642828 1_555
O24 Sn5 2.034789 1_556
O25 Si10 1.643051 1_555
O25 Sn5 2.014624 1_556
O26 Si11 1.644274 1_555
O26 Sn5 2.041371 1_556
O27 Si12 1.632886 1_555
O27 Sn6 1.986101 1_555
O28 Si13 1.643351 1_555
O28 Sn6 2.017633 1_555
O29 Si14 1.638564 1_555
O29 Sn6 2.024965 1_555
O30 Si14 1.663817 1_555
O30 Sn7 1.982036 1_555
O31 Si12 1.681647 1_555
O31 Sn7 2.012951 1_555
O32 Si13 1.667983 1_555
O32 Sn7 1.984293 1_555
O33 Si10 1.633185 1_555
O33 Sn8 2.061470 1_555
O34 Si11 1.632069 1_555
O34 Sn8 2.035062 1_555
O35 Si9 1.632543 1_555
O35 Sn8 2.036773 1_555
O36 Si14 1.609343 1_555
O37 Si12 1.601962 1_555
O38 Si13 1.602642 1_555
O39 Si10 1.645081 1_555
O39 Sn0 2.103913 1_445
O40 Si11 1.646604 1_555
O40 Sn0 2.112206 1_455
O41 Si9 1.646034 1_555
O41 Sn0 2.116343 1_555
O42 S2 1.494663 1_555
O42 Sn1 2.418743 1_645
O43 Si4 1.676525 1_555
O43 Sn1 2.130113 1_545
O44 Si5 1.676991 1_555
O44 Sn1 2.103740 1_655
O45 Si6 1.680079 1_555
O45 Sn2 2.028345 1_665
O46 Si7 1.675117 1_555
O46 Sn2 2.021273 1_655
O47 Si8 1.677382 1_555
O47 Sn2 2.021758 1_555
O48 Si3 1.607502 1_555
O49 Si1 1.605442 1_555
O50 Si2 1.604342 1_555
O51 S1 1.480783 1_555
O52 Si0 1.634354 1_555
O53 S0 1.482145 1_545
O54 Si9 1.646286 1_555
O54 Sn3 2.099914 1_555
O55 Si10 1.646745 1_655
O55 Sn3 2.092478 1_555
O56 Si11 1.645044 1_545
O56 Sn3 2.082160 1_555
O57 Si12 1.652975 1_545
O57 Sn4 2.101444 1_555
O58 Si13 1.648864 1_555
O58 Sn4 2.045414 1_555
O59 Si14 1.652890 1_655
O59 Sn4 2.090515 1_555
O60 Si8 1.654053 1_555
O60 Sn5 2.132096 1_555
O61 Si6 1.649437 1_455
O61 Sn5 2.115204 1_555
O62 Si7 1.648606 1_565
O62 Sn5 2.074822 1_555
O63 Si4 1.679421 1_565
O63 Sn6 2.055762 1_555
O64 Si5 1.679565 1_555
O64 Sn6 2.069583 1_555
O65 S2 1.504277 1_455
O65 Sn6 2.312129 1_555
O66 S0 1.518236 1_555
O66 Sn7 2.354698 1_555
O67 S1 1.520583 1_555
O67 Sn7 2.346143 1_555
O68 Si0 1.730162 1_455
O68 Sn7 2.058471 1_555
O69 Si1 1.651655 1_555
O69 Sn8 2.081276 1_555
O70 Si2 1.648870 1_455
O70 Sn8 2.070884 1_555
O71 Si3 1.655151 1_565
O71 Sn8 2.110660 1_555
