# generated using pymatgen
data_UP2(PbO5)2
_symmetry_space_group_name_H-M   'P 1'
_cell_length_a   6.72315500
_cell_length_b   6.97257445
_cell_length_c   10.63265977
_cell_angle_alpha   86.21922477
_cell_angle_beta   78.12917978
_cell_angle_gamma   81.47758385
_symmetry_Int_Tables_number   1
_chemical_formula_structural   UP2(PbO5)2
_chemical_formula_sum   'U2 P4 Pb4 O20'
_cell_volume   482.06520869
_cell_formula_units_Z   2
loop_
 _symmetry_equiv_pos_site_id
 _symmetry_equiv_pos_as_xyz
  1  'x, y, z'
loop_
 _atom_site_type_symbol
 _atom_site_label
 _atom_site_symmetry_multiplicity
 _atom_site_fract_x
 _atom_site_fract_y
 _atom_site_fract_z
 _atom_site_occupancy
  U  U0  1  0.88545500  0.61600300  0.83982200  1
  U  U1  1  0.11454500  0.38399700  0.16017800  1
  P  P0  1  0.72299900  0.81604000  0.55161100  1
  P  P1  1  0.27700100  0.18396000  0.44838900  1
  P  P2  1  0.36678300  0.53178600  0.82051700  1
  P  P3  1  0.63321700  0.46821400  0.17948300  1
  Pb  Pb0  1  0.26196300  0.05155000  0.77120100  1
  Pb  Pb1  1  0.73803700  0.94845000  0.22879900  1
  Pb  Pb2  1  0.72280500  0.29759600  0.55073500  1
  Pb  Pb3  1  0.27719500  0.70240400  0.44926500  1
  O  O0  1  0.84167200  0.90927900  0.42710300  1
  O  O1  1  0.15832800  0.09072100  0.57289700  1
  O  O2  1  0.53721900  0.63607700  0.85146100  1
  O  O3  1  0.46278100  0.36392300  0.14853900  1
  O  O4  1  0.85577200  0.86292400  0.89433400  1
  O  O5  1  0.14422800  0.13707600  0.10566600  1
  O  O6  1  0.79850900  0.50416300  0.05578900  1
  O  O7  1  0.20149100  0.49583700  0.94421100  1
  O  O8  1  0.45463300  0.33814300  0.75548600  1
  O  O9  1  0.54536700  0.66185700  0.24451400  1
  O  O10  1  0.41087200  0.01664000  0.36718500  1
  O  O11  1  0.58912800  0.98336000  0.63281500  1
  O  O12  1  0.59445500  0.66372900  0.52232300  1
  O  O13  1  0.40554500  0.33627100  0.47767700  1
  O  O14  1  0.06977200  0.63531600  0.21217000  1
  O  O15  1  0.93022800  0.36468400  0.78783000  1
  O  O16  1  0.76659600  0.32920300  0.26170900  1
  O  O17  1  0.23340400  0.67079700  0.73829100  1
  O  O18  1  0.11757200  0.29420200  0.37162400  1
  O  O19  1  0.88242800  0.70579800  0.62837600  1
loop_
_geom_bond_atom_site_label_1
_geom_bond_atom_site_label_2
_geom_bond_distance
_geom_bond_site_symmetry_2
O0 P0 1.554829 1_555
O0 Pb1 2.340489 1_555
O1 P1 1.554829 1_555
O1 Pb0 2.340489 1_555
O2 P2 1.543917 1_555
O2 U0 2.302670 1_555
O3 P3 1.543917 1_555
O3 U1 2.302670 1_555
O4 U0 1.822667 1_555
O5 U1 1.822667 1_555
O6 P3 1.570129 1_555
O6 U0 2.359986 1_554
O6 U1 2.601638 1_655
O7 P2 1.570129 1_555
O7 U1 2.359986 1_556
O7 U0 2.601638 1_455
O8 P2 1.539060 1_555
O8 Pb0 2.516574 1_555
O8 Pb2 2.526931 1_555
O9 P3 1.539060 1_555
O9 Pb1 2.516574 1_555
O9 Pb3 2.526931 1_555
O10 P1 1.555164 1_555
O10 Pb1 2.383282 1_545
O10 Pb3 2.525625 1_545
O11 P0 1.555164 1_555
O11 Pb0 2.383282 1_565
O11 Pb2 2.525625 1_565
O12 P0 1.548568 1_555
O12 Pb3 2.389423 1_555
O12 Pb2 2.589545 1_555
O13 P1 1.548568 1_555
O13 Pb2 2.389423 1_555
O13 Pb3 2.589545 1_555
O14 U1 1.835718 1_555
O14 Pb1 2.866692 1_455
O15 U0 1.835718 1_555
O15 Pb0 2.866692 1_655
O16 P3 1.568801 1_555
O16 U1 2.440350 1_655
O16 Pb1 2.740194 1_545
O17 P2 1.568801 1_555
O17 U0 2.440350 1_455
O17 Pb0 2.740194 1_565
O18 P1 1.561714 1_555
O18 U1 2.297038 1_555
O19 P0 1.561714 1_555
O19 U0 2.297038 1_555
