# generated using pymatgen
data_Ba2MgNiMoO6
_symmetry_space_group_name_H-M   'P 1'
_cell_length_a   5.75482034
_cell_length_b   6.82270862
_cell_length_c   6.82270865
_cell_angle_alpha   49.83002633
_cell_angle_beta   65.05327848
_cell_angle_gamma   65.05325707
_symmetry_Int_Tables_number   1
_chemical_formula_structural   Ba2MgNiMoO6
_chemical_formula_sum   'Ba2 Mg1 Ni1 Mo1 O6'
_cell_volume   181.21584322
_cell_formula_units_Z   1
loop_
 _symmetry_equiv_pos_site_id
 _symmetry_equiv_pos_as_xyz
  1  'x, y, z'
loop_
 _atom_site_type_symbol
 _atom_site_label
 _atom_site_symmetry_multiplicity
 _atom_site_fract_x
 _atom_site_fract_y
 _atom_site_fract_z
 _atom_site_occupancy
  Ba  Ba0  1  0.82583517  0.67426055  0.67426055  1
  Ba  Ba1  1  0.17436937  0.32573898  0.32573898  1
  Mg  Mg0  1  0.49990473  0.99999735  0.99999735  1
  Ni  Ni0  1  -0.00016555  0.00003468  0.00003468  1
  Mo  Mo0  1  0.49989321  0.50000104  0.50000104  1
  O  O0  1  0.25239901  0.24563961  0.75447816  1
  O  O1  1  0.74758374  0.24557446  0.75429427  1
  O  O2  1  0.67758575  0.32234166  0.32234166  1
  O  O3  1  0.74758374  0.75429327  0.24557446  1
  O  O4  1  0.25239901  0.75447816  0.24563961  1
  O  O5  1  0.32261183  0.67763823  0.67763723  1
loop_
_geom_bond_atom_site_label_1
_geom_bond_atom_site_label_2
_geom_bond_distance
_geom_bond_site_symmetry_2
Ba0 O0 2.808970 1_655
Ba0 O4 2.808971 1_655
Ba0 O1 2.810448 1_555
Ba0 O3 2.810452 1_555
Ba0 O5 2.876761 1_555
Ba0 O5 2.878535 1_655
Ba0 O2 3.300481 1_565
Ba0 O2 3.300482 1_556
Ba1 O3 2.809421 1_455
Ba1 O1 2.809426 1_455
Ba1 O0 2.809900 1_555
Ba1 O4 2.809901 1_555
Ba1 O2 2.876608 1_555
Ba1 O2 2.878694 1_455
Ba1 O5 3.300587 1_545
Ba1 O5 3.300593 1_554
Mg0 O0 2.005165 1_565
Mg0 O4 2.005166 1_556
Mg0 O3 2.006108 1_556
Mg0 O1 2.006109 1_565
Ni0 O1 2.025555 1_454
Ni0 O3 2.025560 1_445
Ni0 O4 2.026298 1_545
Ni0 O0 2.026299 1_554
Mo0 O5 1.946150 1_555
Mo0 O2 1.946398 1_555
Mo0 O4 2.041224 1_555
Mo0 O0 2.041224 1_555
Mo0 O3 2.041729 1_555
Mo0 O1 2.041732 1_555
