# generated using pymatgen
data_NaN3
_symmetry_space_group_name_H-M   'P 1'
_cell_length_a   5.49062316
_cell_length_b   5.49062311
_cell_length_c   5.49062327
_cell_angle_alpha   38.14708022
_cell_angle_beta   38.14708525
_cell_angle_gamma   38.14707248
_symmetry_Int_Tables_number   1
_chemical_formula_structural   NaN3
_chemical_formula_sum   'Na1 N3'
_cell_volume   56.70449002
_cell_formula_units_Z   1
loop_
 _symmetry_equiv_pos_site_id
 _symmetry_equiv_pos_as_xyz
  1  'x, y, z'
loop_
 _atom_site_type_symbol
 _atom_site_label
 _atom_site_symmetry_multiplicity
 _atom_site_fract_x
 _atom_site_fract_y
 _atom_site_fract_z
 _atom_site_occupancy
  Na  Na0  1  -0.00000000  0.00000000  0.00000000  1
  N  N0  1  0.57727596  0.57727596  0.57727596  1
  N  N1  1  0.50000000  0.50000000  0.50000000  1
  N  N2  1  0.42272404  0.42272404  0.42272404  1
loop_
_geom_bond_atom_site_label_1
_geom_bond_atom_site_label_2
_geom_bond_distance
_geom_bond_site_symmetry_2
N0 N1 1.178784 1_555
N0 Na0 2.480268 1_656
N0 Na0 2.480269 1_566
N0 Na0 2.480269 1_665
N1 N2 1.178784 1_555
N2 Na0 2.480268 1_565
N2 Na0 2.480269 1_655
N2 Na0 2.480269 1_556
