# generated using pymatgen
data_Na4LaTa(SiO4)3
_symmetry_space_group_name_H-M   'P 1'
_cell_length_a   9.52971255
_cell_length_b   9.52971219
_cell_length_c   22.25866842
_cell_angle_alpha   90.00000000
_cell_angle_beta   90.00000000
_cell_angle_gamma   120.00000129
_symmetry_Int_Tables_number   1
_chemical_formula_structural   Na4LaTa(SiO4)3
_chemical_formula_sum   'Na24 La6 Ta6 Si18 O72'
_cell_volume   1750.60994603
_cell_formula_units_Z   6
loop_
 _symmetry_equiv_pos_site_id
 _symmetry_equiv_pos_as_xyz
  1  'x, y, z'
loop_
 _atom_site_type_symbol
 _atom_site_label
 _atom_site_symmetry_multiplicity
 _atom_site_fract_x
 _atom_site_fract_y
 _atom_site_fract_z
 _atom_site_occupancy
  Na  Na0  1  0.64499360  0.01307859  0.24519643  1
  Na  Na1  1  0.36808499  0.35500640  0.24519643  1
  Na  Na2  1  0.98692141  0.63191501  0.24519643  1
  Na  Na3  1  0.64499360  0.63191501  0.74519643  1
  Na  Na4  1  0.98692141  0.35500640  0.74519643  1
  Na  Na5  1  0.36808499  0.01307859  0.74519643  1
  Na  Na6  1  0.31166060  0.34641159  0.57852943  1
  Na  Na7  1  0.03475199  0.68833940  0.57852943  1
  Na  Na8  1  0.65358841  0.96524801  0.57852943  1
  Na  Na9  1  0.31166060  0.96524801  0.07852943  1
  Na  Na10  1  0.65358841  0.68833940  0.07852943  1
  Na  Na11  1  0.03475199  0.34641159  0.07852943  1
  Na  Na12  1  0.97832660  0.67974559  0.91186343  1
  Na  Na13  1  0.70141799  0.02167340  0.91186343  1
  Na  Na14  1  0.32025441  0.29858201  0.91186343  1
  Na  Na15  1  0.97832660  0.29858201  0.41186343  1
  Na  Na16  1  0.32025441  0.02167340  0.41186343  1
  Na  Na17  1  0.70141799  0.67974559  0.41186343  1
  Na  Na18  1  -0.00000000  -0.00000000  0.49642503  1
  Na  Na19  1  -0.00000000  -0.00000000  0.99642503  1
  Na  Na20  1  0.66666700  0.33333300  0.82975803  1
  Na  Na21  1  0.66666700  0.33333300  0.32975803  1
  Na  Na22  1  0.33333300  0.66666700  0.16309203  1
  Na  Na23  1  0.33333300  0.66666700  0.66309203  1
  La  La0  1  -0.00000000  -0.00000000  0.34202533  1
  La  La1  1  -0.00000000  -0.00000000  0.84202533  1
  La  La2  1  0.66666700  0.33333300  0.67535833  1
  La  La3  1  0.66666700  0.33333300  0.17535833  1
  La  La4  1  0.33333300  0.66666700  0.00869233  1
  La  La5  1  0.33333300  0.66666700  0.50869233  1
  Ta  Ta0  1  -0.00000000  -0.00000000  0.64816018  1
  Ta  Ta1  1  -0.00000000  -0.00000000  0.14816018  1
  Ta  Ta2  1  0.66666700  0.33333300  0.98149318  1
  Ta  Ta3  1  0.66666700  0.33333300  0.48149318  1
  Ta  Ta4  1  0.33333300  0.66666700  0.31482718  1
  Ta  Ta5  1  0.33333300  0.66666700  0.81482718  1
  Si  Si0  1  0.29579093  0.98280683  0.25108906  1
  Si  Si1  1  0.68701590  0.70420907  0.25108906  1
  Si  Si2  1  0.01719317  0.31298410  0.25108906  1
  Si  Si3  1  0.29579093  0.31298410  0.75108906  1
  Si  Si4  1  0.01719317  0.70420907  0.75108906  1
  Si  Si5  1  0.68701590  0.98280683  0.75108906  1
  Si  Si6  1  0.96245793  0.31613983  0.58442206  1
  Si  Si7  1  0.35368290  0.03754207  0.58442206  1
  Si  Si8  1  0.68386017  0.64631710  0.58442206  1
  Si  Si9  1  0.96245793  0.64631710  0.08442206  1
  Si  Si10  1  0.68386017  0.03754207  0.08442206  1
  Si  Si11  1  0.35368290  0.31613983  0.08442206  1
  Si  Si12  1  0.62912393  0.64947383  0.91775606  1
  Si  Si13  1  0.02034890  0.37087607  0.91775606  1
  Si  Si14  1  0.35052617  0.97965110  0.91775606  1
  Si  Si15  1  0.62912393  0.97965110  0.41775606  1
  Si  Si16  1  0.35052617  0.37087607  0.41775606  1
  Si  Si17  1  0.02034890  0.64947383  0.41775606  1
  O  O0  1  0.23481187  0.01319152  0.31406580  1
  O  O1  1  0.77837965  0.76518813  0.31406580  1
  O  O2  1  0.98680848  0.22162035  0.31406580  1
  O  O3  1  0.23481187  0.22162035  0.81406580  1
  O  O4  1  0.98680848  0.76518813  0.81406580  1
  O  O5  1  0.77837965  0.01319152  0.81406580  1
  O  O6  1  0.80798505  0.96853688  0.69641839  1
  O  O7  1  0.16055182  0.19201495  0.69641839  1
  O  O8  1  0.03146312  0.83944818  0.69641839  1
  O  O9  1  0.80798505  0.83944818  0.19641839  1
  O  O10  1  0.03146312  0.19201495  0.19641839  1
  O  O11  1  0.16055182  0.96853688  0.19641839  1
  O  O12  1  0.90147887  0.34652452  0.64739880  1
  O  O13  1  0.44504665  0.09852113  0.64739880  1
  O  O14  1  0.65347548  0.55495335  0.64739880  1
  O  O15  1  0.90147887  0.55495335  0.14739880  1
  O  O16  1  0.65347548  0.09852113  0.14739880  1
  O  O17  1  0.44504665  0.34652452  0.14739880  1
  O  O18  1  0.47465205  0.30186988  0.02975139  1
  O  O19  1  0.82721882  0.52534795  0.02975139  1
  O  O20  1  0.69813012  0.17278118  0.02975139  1
  O  O21  1  0.47465205  0.17278118  0.52975139  1
  O  O22  1  0.69813012  0.52534795  0.52975139  1
  O  O23  1  0.82721882  0.30186988  0.52975139  1
  O  O24  1  0.56814487  0.67985852  0.98073280  1
  O  O25  1  0.11171265  0.43185513  0.98073280  1
  O  O26  1  0.32014148  0.88828735  0.98073280  1
  O  O27  1  0.56814487  0.88828735  0.48073280  1
  O  O28  1  0.32014148  0.43185513  0.48073280  1
  O  O29  1  0.11171265  0.67985852  0.48073280  1
  O  O30  1  0.14131805  0.63520388  0.36308539  1
  O  O31  1  0.49388482  0.85868195  0.36308539  1
  O  O32  1  0.36479612  0.50611518  0.36308539  1
  O  O33  1  0.14131805  0.50611518  0.86308539  1
  O  O34  1  0.36479612  0.85868195  0.86308539  1
  O  O35  1  0.49388482  0.63520388  0.86308539  1
  O  O36  1  0.98302674  0.79622866  0.41026245  1
  O  O37  1  0.81320192  0.01697326  0.41026245  1
  O  O38  1  0.20377134  0.18679808  0.41026245  1
  O  O39  1  0.98302674  0.18679808  0.91026245  1
  O  O40  1  0.20377134  0.01697326  0.91026245  1
  O  O41  1  0.81320192  0.79622866  0.91026245  1
  O  O42  1  0.95261903  0.13515427  0.58743102  1
  O  O43  1  0.18253524  0.04738097  0.58743102  1
  O  O44  1  0.86484573  0.81746476  0.58743102  1
  O  O45  1  0.95261903  0.81746476  0.08743102  1
  O  O46  1  0.86484573  0.04738097  0.08743102  1
  O  O47  1  0.18253524  0.13515427  0.08743102  1
  O  O48  1  0.64969374  0.12956166  0.74359545  1
  O  O49  1  0.47986892  0.35030626  0.74359545  1
  O  O50  1  0.87043834  0.52013108  0.74359545  1
  O  O51  1  0.64969374  0.52013108  0.24359545  1
  O  O52  1  0.87043834  0.35030626  0.24359545  1
  O  O53  1  0.47986892  0.12956166  0.24359545  1
  O  O54  1  0.61928603  0.46848727  0.92076402  1
  O  O55  1  0.84920224  0.38071397  0.92076402  1
  O  O56  1  0.53151273  0.15079776  0.92076402  1
  O  O57  1  0.61928603  0.15079776  0.42076402  1
  O  O58  1  0.53151273  0.38071397  0.42076402  1
  O  O59  1  0.84920224  0.46848727  0.42076402  1
  O  O60  1  0.31635974  0.46289566  0.07692945  1
  O  O61  1  0.14653492  0.68364026  0.07692945  1
  O  O62  1  0.53710434  0.85346508  0.07692945  1
  O  O63  1  0.31635974  0.85346508  0.57692945  1
  O  O64  1  0.53710434  0.68364026  0.57692945  1
  O  O65  1  0.14653492  0.46289566  0.57692945  1
  O  O66  1  0.28595203  0.80182127  0.25409802  1
  O  O67  1  0.51586824  0.71404797  0.25409802  1
  O  O68  1  0.19817873  0.48413176  0.25409802  1
  O  O69  1  0.28595203  0.48413176  0.75409802  1
  O  O70  1  0.19817873  0.71404797  0.75409802  1
  O  O71  1  0.51586824  0.80182127  0.75409802  1
loop_
_geom_bond_atom_site_label_1
_geom_bond_atom_site_label_2
_geom_bond_distance
_geom_bond_site_symmetry_2
Na0 O16 2.311355 1_555
Na0 O53 2.335901 1_555
Na0 O67 2.483446 1_545
Na0 O52 2.835560 1_555
Na1 O17 2.311359 1_555
Na1 O51 2.335909 1_555
Na1 O68 2.483455 1_555
Na1 O53 2.835567 1_555
Na2 O15 2.311357 1_555
Na2 O52 2.335910 1_555
Na2 O66 2.483447 1_655
Na2 O51 2.835558 1_555
Na3 O14 2.311359 1_555
Na3 O49 2.335909 1_555
Na3 O71 2.483455 1_555
Na3 O50 2.835567 1_555
Na4 O12 2.311355 1_555
Na4 O50 2.335901 1_555
Na4 O69 2.483446 1_655
Na4 O48 2.835560 1_555
Na5 O13 2.311357 1_555
Na5 O48 2.335910 1_555
Na5 O70 2.483447 1_545
Na5 O49 2.835558 1_555
Na6 O28 2.311339 1_555
Na6 O65 2.335917 1_555
Na6 O43 2.483446 1_555
Na6 O64 2.835565 1_555
Na7 O29 2.311333 1_555
Na7 O63 2.335902 1_555
Na7 O44 2.483455 1_455
Na7 O65 2.835550 1_555
Na8 O27 2.311336 1_555
Na8 O64 2.335900 1_555
Na8 O42 2.483447 1_565
Na8 O63 2.835568 1_555
Na9 O26 2.311333 1_554
Na9 O61 2.335902 1_555
Na9 O47 2.483455 1_565
Na9 O62 2.835550 1_555
Na10 O24 2.311339 1_554
Na10 O62 2.335917 1_555
Na10 O45 2.483446 1_555
Na10 O60 2.835565 1_555
Na11 O25 2.311336 1_554
Na11 O60 2.335900 1_555
Na11 O46 2.483447 1_455
Na11 O61 2.835568 1_555
Na12 O4 2.311355 1_555
Na12 O41 2.335901 1_555
Na12 O55 2.483453 1_555
Na12 O40 2.835560 1_665
Na13 O5 2.311359 1_555
Na13 O39 2.335909 1_555
Na13 O56 2.483436 1_555
Na13 O41 2.835567 1_545
Na14 O3 2.311357 1_555
Na14 O40 2.335910 1_555
Na14 O54 2.483452 1_555
Na14 O39 2.835558 1_455
Na15 O2 2.311359 1_555
Na15 O37 2.335909 1_555
Na15 O59 2.483436 1_555
Na15 O38 2.835567 1_655
Na16 O0 2.311355 1_555
Na16 O38 2.335901 1_555
Na16 O57 2.483454 1_555
Na16 O36 2.835560 1_445
Na17 O1 2.311357 1_555
Na17 O36 2.335910 1_555
Na17 O58 2.483452 1_555
Na17 O37 2.835558 1_565
Na18 O44 2.558843 1_445
Na18 O42 2.558843 1_455
Na18 O43 2.558843 1_555
Na18 O36 2.676037 1_445
Na18 O38 2.676037 1_555
Na18 O37 2.676037 1_455
Na19 O45 2.558843 1_446
Na19 O47 2.558843 1_556
Na19 O46 2.558843 1_456
Na19 O41 2.676037 1_445
Na19 O39 2.676037 1_455
Na19 O40 2.676037 1_555
Na20 O56 2.558843 1_555
Na20 O54 2.558843 1_555
Na20 O55 2.558843 1_555
Na20 O48 2.676037 1_555
Na20 O50 2.676037 1_555
Na20 O49 2.676037 1_555
Na21 O57 2.558843 1_555
Na21 O59 2.558843 1_555
Na21 O58 2.558843 1_555
Na21 O53 2.676037 1_555
Na21 O51 2.676037 1_555
Na21 O52 2.676037 1_555
Na22 O68 2.558843 1_555
Na22 O66 2.558843 1_555
Na22 O67 2.558843 1_555
Na22 O60 2.676037 1_555
Na22 O62 2.676037 1_555
Na22 O61 2.676037 1_555
Na23 O69 2.558843 1_555
Na23 O71 2.558843 1_555
Na23 O70 2.558843 1_555
Na23 O65 2.676037 1_555
Na23 O63 2.676037 1_555
Na23 O64 2.676037 1_555
La0 O1 2.264744 1_445
La0 O2 2.264744 1_455
La0 O0 2.264744 1_555
La0 O36 2.406227 1_445
La0 O38 2.406227 1_555
La0 O37 2.406227 1_455
La1 O4 2.264744 1_445
La1 O3 2.264744 1_555
La1 O5 2.264744 1_455
La1 O41 2.406227 1_445
La1 O39 2.406227 1_455
La1 O40 2.406227 1_555
La2 O13 2.264744 1_555
La2 O14 2.264744 1_555
La2 O12 2.264744 1_555
La2 O48 2.406227 1_555
La2 O50 2.406227 1_555
La2 O49 2.406227 1_555
La3 O16 2.264744 1_555
La3 O15 2.264744 1_555
La3 O17 2.264744 1_555
La3 O53 2.406227 1_555
La3 O51 2.406227 1_555
La3 O52 2.406227 1_555
La4 O25 2.264744 1_554
La4 O26 2.264744 1_554
La4 O24 2.264744 1_554
La4 O60 2.406227 1_555
La4 O62 2.406227 1_555
La4 O61 2.406227 1_555
La5 O28 2.264744 1_555
La5 O27 2.264744 1_555
La5 O29 2.264744 1_555
La5 O65 2.406227 1_555
La5 O63 2.406227 1_555
La5 O64 2.406227 1_555
O0 Si0 1.598369 1_545
O1 Si1 1.598369 1_555
O2 Si2 1.598369 1_655
O3 Si3 1.598369 1_555
O4 Si4 1.598369 1_655
O5 Si5 1.598369 1_545
O6 Si5 1.727729 1_555
O6 Ta0 2.010825 1_665
O7 Si3 1.727729 1_555
O7 Ta0 2.010825 1_555
O8 Si4 1.727729 1_555
O8 Ta0 2.010825 1_565
O9 Si1 1.727729 1_555
O9 Ta1 2.010825 1_665
O10 Si2 1.727729 1_555
O10 Ta1 2.010825 1_555
O11 Si0 1.727729 1_555
O11 Ta1 2.010825 1_565
O12 Si6 1.598369 1_555
O13 Si7 1.598369 1_555
O14 Si8 1.598369 1_555
O15 Si9 1.598369 1_555
O16 Si10 1.598369 1_555
O17 Si11 1.598369 1_555
O18 Si11 1.727729 1_555
O18 Ta2 2.010825 1_554
O19 Si9 1.727729 1_555
O19 Ta2 2.010825 1_554
O20 Si10 1.727729 1_555
O20 Ta2 2.010825 1_554
O21 Si7 1.727729 1_555
O21 Ta3 2.010825 1_555
O22 Si8 1.727729 1_555
O22 Ta3 2.010825 1_555
O23 Si6 1.727729 1_555
O23 Ta3 2.010825 1_555
O24 Si12 1.598369 1_555
O25 Si13 1.598369 1_555
O26 Si14 1.598369 1_555
O27 Si15 1.598369 1_555
O28 Si16 1.598369 1_555
O29 Si17 1.598369 1_555
O30 Si17 1.727729 1_555
O30 Ta4 2.010825 1_555
O31 Si15 1.727729 1_555
O31 Ta4 2.010825 1_555
O32 Si16 1.727729 1_555
O32 Ta4 2.010825 1_555
O33 Si13 1.727729 1_555
O33 Ta5 2.010825 1_555
O34 Si14 1.727729 1_555
O34 Ta5 2.010825 1_555
O35 Si12 1.727729 1_555
O35 Ta5 2.010825 1_555
O36 Si17 1.614815 1_655
O37 Si15 1.614824 1_545
O38 Si16 1.614821 1_555
O39 Si13 1.614824 1_655
O40 Si14 1.614815 1_545
O41 Si12 1.614821 1_555
O42 Si6 1.681158 1_555
O42 Ta0 2.066775 1_655
O43 Si7 1.681167 1_555
O43 Ta0 2.066775 1_555
O44 Si8 1.681162 1_555
O44 Ta0 2.066775 1_665
O45 Si9 1.681167 1_555
O45 Ta1 2.066775 1_665
O46 Si10 1.681158 1_555
O46 Ta1 2.066775 1_655
O47 Si11 1.681162 1_555
O47 Ta1 2.066775 1_555
O48 Si5 1.614815 1_545
O49 Si3 1.614824 1_555
O50 Si4 1.614821 1_655
O51 Si1 1.614824 1_555
O52 Si2 1.614815 1_655
O53 Si0 1.614821 1_545
O54 Si12 1.681171 1_555
O54 Ta2 2.066775 1_555
O55 Si13 1.681152 1_655
O55 Ta2 2.066775 1_555
O56 Si14 1.681162 1_545
O56 Ta2 2.066775 1_555
O57 Si15 1.681152 1_545
O57 Ta3 2.066775 1_555
O58 Si16 1.681171 1_555
O58 Ta3 2.066775 1_555
O59 Si17 1.681162 1_655
O59 Ta3 2.066775 1_555
O60 Si11 1.614828 1_555
O61 Si9 1.614809 1_455
O62 Si10 1.614816 1_565
O63 Si7 1.614809 1_565
O64 Si8 1.614828 1_555
O65 Si6 1.614816 1_455
O66 Si0 1.681158 1_555
O66 Ta4 2.066775 1_555
O67 Si1 1.681167 1_555
O67 Ta4 2.066775 1_555
O68 Si2 1.681162 1_555
O68 Ta4 2.066775 1_555
O69 Si3 1.681167 1_555
O69 Ta5 2.066775 1_555
O70 Si4 1.681158 1_555
O70 Ta5 2.066775 1_555
O71 Si5 1.681162 1_555
O71 Ta5 2.066775 1_555
