# generated using pymatgen
data_Zr2Ni7
_symmetry_space_group_name_H-M   'P 1'
_cell_length_a   4.64304076
_cell_length_b   4.69143476
_cell_length_c   12.05508213
_cell_angle_alpha   87.25040385
_cell_angle_beta   84.43689841
_cell_angle_gamma   60.34066854
_symmetry_Int_Tables_number   1
_chemical_formula_structural   Zr2Ni7
_chemical_formula_sum   'Zr4 Ni14'
_cell_volume   227.11157773
_cell_formula_units_Z   2
loop_
 _symmetry_equiv_pos_site_id
 _symmetry_equiv_pos_as_xyz
  1  'x, y, z'
loop_
 _atom_site_type_symbol
 _atom_site_label
 _atom_site_symmetry_multiplicity
 _atom_site_fract_x
 _atom_site_fract_y
 _atom_site_fract_z
 _atom_site_occupancy
  Zr  Zr0  1  0.77739997  0.00000000  0.61359183  1
  Zr  Zr1  1  0.22260003  -0.00000000  0.38640817  1
  Zr  Zr2  1  0.72245652  0.00000000  0.88605095  1
  Zr  Zr3  1  0.27754348  -0.00000000  0.11394905  1
  Ni  Ni0  1  0.74993113  0.00000000  0.24998301  1
  Ni  Ni1  1  0.25006887  -0.00000000  0.75001699  1
  Ni  Ni2  1  0.96064818  0.66687162  0.07831111  1
  Ni  Ni3  1  0.37247920  0.66687162  0.92168889  1
  Ni  Ni4  1  0.03935182  0.33312838  0.92168889  1
  Ni  Ni5  1  0.62752080  0.33312838  0.07831111  1
  Ni  Ni6  1  0.87272498  0.66675324  0.42162947  1
  Ni  Ni7  1  0.46052078  0.66675324  0.57836953  1
  Ni  Ni8  1  0.12727502  0.33324676  0.57836953  1
  Ni  Ni9  1  0.53947922  0.33324676  0.42162947  1
  Ni  Ni10  1  0.74987626  0.50003221  0.24998852  1
  Ni  Ni11  1  0.75009152  0.50003221  0.75001148  1
  Ni  Ni12  1  0.25012374  0.49996779  0.75001148  1
  Ni  Ni13  1  0.24990848  0.49996779  0.24998852  1
loop_
_geom_bond_atom_site_label_1
_geom_bond_atom_site_label_2
_geom_bond_distance
_geom_bond_site_symmetry_2
Ni0 Ni10 2.345689 1_545
Ni0 Ni13 2.345690 1_555
Ni0 Ni10 2.345746 1_555
Ni0 Ni13 2.345746 1_645
Ni0 Ni5 2.467202 1_555
Ni0 Ni2 2.467202 1_545
Ni0 Ni6 2.467211 1_545
Ni0 Ni9 2.467211 1_555
Ni0 Zr3 2.812746 1_655
Ni0 Zr1 2.814038 1_555
Ni0 Zr3 2.863088 1_555
Ni0 Zr1 2.867213 1_655
Ni1 Ni12 2.345689 1_555
Ni1 Ni11 2.345690 1_545
Ni1 Ni12 2.345746 1_545
Ni1 Ni11 2.345746 1_455
Ni1 Ni3 2.467202 1_545
Ni1 Ni4 2.467202 1_555
Ni1 Ni8 2.467221 1_555
Ni1 Ni7 2.467221 1_545
Ni1 Zr2 2.812746 1_455
Ni1 Zr0 2.814038 1_555
Ni1 Zr2 2.863088 1_555
Ni1 Zr0 2.867213 1_455
Ni2 Ni4 2.394486 1_654
Ni2 Ni3 2.553669 1_654
Ni2 Ni5 2.690847 1_555
Ni2 Ni5 2.690856 1_655
Ni2 Zr3 2.693461 1_665
Ni2 Ni5 2.716180 1_565
Ni2 Zr2 2.734272 1_564
Ni2 Zr3 2.752332 1_655
Ni2 Zr3 2.753388 1_565
Ni3 Ni5 2.394488 1_556
Ni3 Ni4 2.690847 1_555
Ni3 Ni4 2.690856 1_655
Ni3 Zr2 2.693458 1_465
Ni3 Ni4 2.716180 1_565
Ni3 Zr3 2.734273 1_566
Ni3 Zr2 2.752332 1_555
Ni3 Zr2 2.753391 1_565
Ni4 Ni5 2.553669 1_456
Ni4 Zr2 2.693461 1_455
Ni4 Zr3 2.734272 1_556
Ni4 Zr2 2.752332 1_465
Ni4 Zr2 2.753388 1_555
Ni5 Zr3 2.693458 1_655
Ni5 Zr2 2.734273 1_554
Ni5 Zr3 2.752332 1_565
Ni5 Zr3 2.753391 1_555
Ni6 Ni8 2.394655 1_655
Ni6 Ni7 2.555790 1_555
Ni6 Ni9 2.690359 1_555
Ni6 Ni9 2.690368 1_655
Ni6 Zr1 2.692669 1_565
Ni6 Ni9 2.717145 1_565
Ni6 Zr0 2.731117 1_565
Ni6 Zr1 2.751087 1_655
Ni6 Zr1 2.753103 1_665
Ni7 Ni9 2.394653 1_555
Ni7 Ni8 2.690359 1_555
Ni7 Ni8 2.690368 1_655
Ni7 Zr0 2.692675 1_565
Ni7 Ni8 2.717145 1_565
Ni7 Zr1 2.731105 1_565
Ni7 Zr0 2.751088 1_555
Ni7 Zr0 2.753101 1_465
Ni8 Ni9 2.555790 1_555
Ni8 Zr0 2.692672 1_555
Ni8 Zr1 2.731106 1_555
Ni8 Zr0 2.751089 1_465
Ni8 Zr0 2.753104 1_455
Ni9 Zr1 2.692672 1_555
Ni9 Zr0 2.731115 1_555
Ni9 Zr1 2.751086 1_565
Ni9 Zr1 2.753100 1_655
Ni10 Ni13 2.321520 1_555
Ni10 Ni13 2.321520 1_655
Ni10 Ni5 2.458194 1_555
Ni10 Ni6 2.458480 1_555
Ni10 Ni9 2.461131 1_555
Ni10 Ni2 2.462420 1_555
Ni10 Zr3 2.845532 1_655
Ni10 Zr1 2.847126 1_565
Ni10 Zr3 2.870199 1_565
Ni10 Zr1 2.873857 1_655
Ni11 Ni12 2.321520 1_555
Ni11 Ni12 2.321520 1_655
Ni11 Ni4 2.458196 1_655
Ni11 Ni7 2.458492 1_555
Ni11 Ni8 2.461143 1_655
Ni11 Ni3 2.462423 1_555
Ni11 Zr2 2.845531 1_555
Ni11 Zr0 2.847125 1_565
Ni11 Zr2 2.870198 1_565
Ni11 Zr0 2.873857 1_555
Ni12 Ni3 2.458194 1_555
Ni12 Ni8 2.458490 1_555
Ni12 Ni7 2.461141 1_555
Ni12 Ni4 2.462420 1_555
Ni12 Zr2 2.845532 1_465
Ni12 Zr0 2.847126 1_555
Ni12 Zr2 2.870199 1_555
Ni12 Zr0 2.873857 1_465
Ni13 Ni2 2.458196 1_455
Ni13 Ni9 2.458482 1_555
Ni13 Ni6 2.461134 1_455
Ni13 Ni5 2.462423 1_555
Ni13 Zr3 2.845531 1_565
Ni13 Zr1 2.847125 1_555
Ni13 Zr3 2.870198 1_555
Ni13 Zr1 2.873857 1_565
