# generated using pymatgen
data_NbSeI
_symmetry_space_group_name_H-M   'P 1'
_cell_length_a   7.74316008
_cell_length_b   7.74316008
_cell_length_c   7.74316008
_cell_angle_alpha   60.00000000
_cell_angle_beta   60.00000000
_cell_angle_gamma   60.00000000
_symmetry_Int_Tables_number   1
_chemical_formula_structural   NbSeI
_chemical_formula_sum   'Nb4 Se4 I4'
_cell_volume   328.27644041
_cell_formula_units_Z   4
loop_
 _symmetry_equiv_pos_site_id
 _symmetry_equiv_pos_as_xyz
  1  'x, y, z'
loop_
 _atom_site_type_symbol
 _atom_site_label
 _atom_site_symmetry_multiplicity
 _atom_site_fract_x
 _atom_site_fract_y
 _atom_site_fract_z
 _atom_site_occupancy
  Nb  Nb0  1  0.59818000  0.59818000  0.59818000  1
  Nb  Nb1  1  0.59818000  0.20546000  0.59818000  1
  Nb  Nb2  1  0.59818000  0.59818000  0.20546000  1
  Nb  Nb3  1  0.20546000  0.59818000  0.59818000  1
  Se  Se0  1  0.36910800  0.89267700  0.36910800  1
  Se  Se1  1  0.89267700  0.36910800  0.36910800  1
  Se  Se2  1  0.36910800  0.36910800  0.89267700  1
  Se  Se3  1  0.36910800  0.36910800  0.36910800  1
  I  I0  1  0.87219100  0.87219100  0.87219100  1
  I  I1  1  0.87219100  0.87219100  0.38342700  1
  I  I2  1  0.87219100  0.38342700  0.87219100  1
  I  I3  1  0.38342700  0.87219100  0.87219100  1
loop_
_geom_bond_atom_site_label_1
_geom_bond_atom_site_label_2
_geom_bond_distance
_geom_bond_site_symmetry_2
Nb0 Se2 2.559093 1_555
Nb0 Se0 2.559093 1_555
Nb0 Se1 2.559093 1_555
Nb1 Se3 2.559091 1_555
Nb1 Se1 2.559097 1_555
Nb1 Se2 2.559097 1_555
Nb2 Se3 2.559091 1_555
Nb2 Se1 2.559097 1_555
Nb2 Se0 2.559097 1_555
Nb3 Se3 2.559091 1_555
Nb3 Se0 2.559097 1_555
Nb3 Se2 2.559097 1_555
I0 Nb2 3.035433 1_556
I0 Nb3 3.035433 1_655
I0 Nb1 3.035433 1_565
I1 Nb0 3.035433 1_555
I1 Nb1 3.035433 1_565
I1 Nb3 3.035433 1_655
I2 Nb0 3.035433 1_555
I2 Nb2 3.035433 1_556
I2 Nb3 3.035433 1_655
I3 Nb0 3.035433 1_555
I3 Nb2 3.035433 1_556
I3 Nb1 3.035433 1_565
