# generated using pymatgen
data_U(Al5Fe)2
_symmetry_space_group_name_H-M   'P 1'
_cell_length_a   6.71497083
_cell_length_b   6.71497083
_cell_length_c   8.87095549
_cell_angle_alpha   90.00000000
_cell_angle_beta   90.00000000
_cell_angle_gamma   98.00375187
_symmetry_Int_Tables_number   1
_chemical_formula_structural   U(Al5Fe)2
_chemical_formula_sum   'U2 Al20 Fe4'
_cell_volume   396.10236758
_cell_formula_units_Z   2
loop_
 _symmetry_equiv_pos_site_id
 _symmetry_equiv_pos_as_xyz
  1  'x, y, z'
loop_
 _atom_site_type_symbol
 _atom_site_label
 _atom_site_symmetry_multiplicity
 _atom_site_fract_x
 _atom_site_fract_y
 _atom_site_fract_z
 _atom_site_occupancy
  U  U0  1  0.12048157  0.87951843  0.25000000  1
  U  U1  1  0.87951843  0.12048157  0.75000000  1
  Al  Al0  1  0.21850286  0.47831644  0.75000000  1
  Al  Al1  1  0.37437345  0.62562655  0.04991747  1
  Al  Al2  1  0.84121268  0.15878732  0.40257238  1
  Al  Al3  1  0.13281593  0.41075750  0.25000000  1
  Al  Al4  1  0.52168356  0.78149714  0.75000000  1
  Al  Al5  1  0.62562655  0.37437345  0.95008253  1
  Al  Al6  1  0.78149714  0.52168356  0.25000000  1
  Al  Al7  1  0.62562655  0.37437345  0.54991747  1
  Al  Al8  1  0.15878732  0.84121268  0.59742762  1
  Al  Al9  1  0.58924250  0.86718407  0.25000000  1
  Al  Al10  1  0.41075750  0.13281593  0.75000000  1
  Al  Al11  1  0.47831644  0.21850286  0.25000000  1
  Al  Al12  1  0.77347320  0.77347320  0.50000000  1
  Al  Al13  1  0.77347320  0.77347320  0.00000000  1
  Al  Al14  1  0.86718407  0.58924250  0.75000000  1
  Al  Al15  1  0.84121268  0.15878732  0.09742762  1
  Al  Al16  1  0.37437345  0.62562655  0.45008253  1
  Al  Al17  1  0.15878732  0.84121268  0.90257238  1
  Al  Al18  1  0.22652680  0.22652680  0.00000000  1
  Al  Al19  1  0.22652680  0.22652680  0.50000000  1
  Fe  Fe0  1  -0.00000000  0.50000000  0.00000000  1
  Fe  Fe1  1  0.50000000  -0.00000000  0.50000000  1
  Fe  Fe2  1  -0.00000000  0.50000000  0.50000000  1
  Fe  Fe3  1  0.50000000  -0.00000000  0.00000000  1
loop_
_geom_bond_atom_site_label_1
_geom_bond_atom_site_label_2
_geom_bond_distance
_geom_bond_site_symmetry_2
Al0 Al14 2.570894 1_455
Al0 Al4 2.671174 1_555
Al0 Fe0 2.674295 1_556
Al0 Fe2 2.674295 1_555
Al0 Al19 2.793798 1_555
Al0 Al18 2.793798 1_556
Al0 Al10 2.807709 1_555
Al0 Al17 2.864078 1_555
Al0 Al8 2.864078 1_555
Al0 Al1 2.977285 1_556
Al0 Al16 2.977285 1_555
Al0 U1 3.071150 1_455
Al1 Al17 2.546272 1_554
Al1 Fe0 2.576214 1_555
Al1 Fe3 2.576214 1_565
Al1 Al9 2.685415 1_555
Al1 Al3 2.685415 1_555
Al1 Al5 2.696298 1_554
Al1 Al13 2.760958 1_555
Al1 Al18 2.760958 1_555
Al1 Al4 2.977285 1_554
Al1 U0 3.126177 1_555
Al2 Fe2 2.540333 1_655
Al2 Fe1 2.540333 1_555
Al2 Al7 2.546272 1_555
Al2 Al3 2.757935 1_655
Al2 Al9 2.757935 1_545
Al2 Al6 2.864078 1_555
Al2 U1 3.106375 1_555
Al2 U0 3.137601 1_645
Al3 Fe0 2.494337 1_555
Al3 Fe2 2.494337 1_555
Al3 Al6 2.570894 1_455
Al3 U0 3.160313 1_555
Al3 U0 3.556668 1_545
Al4 Fe3 2.674295 1_566
Al4 Fe1 2.674295 1_565
Al4 Al8 2.864078 1_555
Al4 U1 3.071150 1_565
Al5 Fe3 2.576214 1_556
Al5 Fe0 2.576214 1_656
Al5 Al6 2.977285 1_556
Al5 U1 3.126177 1_555
Al6 Fe2 2.674295 1_655
Al6 Fe0 2.674295 1_655
Al6 Al9 2.807709 1_555
Al6 Al7 2.977285 1_555
Al6 U0 3.071150 1_655
Al7 Fe2 2.576214 1_655
Al7 Fe1 2.576214 1_555
Al7 U1 3.126177 1_555
Al8 Fe2 2.540333 1_555
Al8 Fe1 2.540333 1_565
Al8 U0 3.106375 1_555
Al8 U1 3.137601 1_465
Al9 Fe1 2.494337 1_565
Al9 Fe3 2.494337 1_565
Al9 U0 3.160313 1_555
Al9 U0 3.556668 1_655
Al10 Fe3 2.494337 1_556
Al10 Fe1 2.494337 1_555
Al10 Al4 2.570894 1_545
Al10 Al19 2.657358 1_555
Al10 Al18 2.657358 1_556
Al10 Al7 2.685415 1_555
Al10 Al5 2.685415 1_555
Al10 Al8 2.757935 1_545
Al10 Al17 2.757935 1_545
Al10 U1 3.160313 1_555
Al10 U1 3.556668 1_455
Al11 Al9 2.570894 1_545
Al11 Al6 2.671174 1_555
Al11 Fe1 2.674295 1_555
Al11 Fe3 2.674295 1_555
Al11 Al19 2.793798 1_555
Al11 Al18 2.793798 1_555
Al11 Al3 2.807709 1_555
Al11 Al2 2.864078 1_555
Al11 Al15 2.864078 1_555
Al11 Al7 2.977285 1_555
Al11 Al5 2.977285 1_554
Al11 U0 3.071150 1_545
Al12 Fe1 2.542424 1_565
Al12 Fe2 2.542424 1_655
Al12 Al9 2.657358 1_555
Al12 Al14 2.657358 1_555
Al12 Al2 2.705667 1_565
Al12 Al8 2.705667 1_655
Al12 Al7 2.760958 1_555
Al12 Al16 2.760958 1_555
Al12 Al6 2.793798 1_555
Al12 Al4 2.793798 1_555
Al12 U1 3.223814 1_565
Al12 U0 3.223814 1_655
Al13 Fe3 2.542424 1_565
Al13 Fe0 2.542424 1_655
Al13 Al14 2.657358 1_554
Al13 Al9 2.657358 1_555
Al13 Al15 2.705667 1_565
Al13 Al17 2.705667 1_654
Al13 Al5 2.760958 1_554
Al13 Al6 2.793798 1_555
Al13 Al4 2.793798 1_554
Al13 U1 3.223814 1_564
Al13 U0 3.223814 1_655
Al14 Fe0 2.494337 1_656
Al14 Fe2 2.494337 1_655
Al14 Al7 2.685415 1_555
Al14 Al5 2.685415 1_555
Al14 Al8 2.757935 1_655
Al14 Al17 2.757935 1_655
Al14 Al4 2.807709 1_555
Al14 U1 3.160313 1_555
Al14 U1 3.556668 1_565
Al15 Fe0 2.540333 1_655
Al15 Fe3 2.540333 1_555
Al15 Al5 2.546272 1_554
Al15 Al18 2.705667 1_655
Al15 Al2 2.706926 1_555
Al15 Al3 2.757935 1_655
Al15 Al9 2.757935 1_545
Al15 Al6 2.864078 1_555
Al15 U1 3.106375 1_554
Al15 U0 3.137601 1_645
Al16 Al8 2.546272 1_555
Al16 Fe1 2.576214 1_565
Al16 Fe2 2.576214 1_555
Al16 Al9 2.685415 1_555
Al16 Al3 2.685415 1_555
Al16 Al7 2.696298 1_555
Al16 Al19 2.760958 1_555
Al16 Al4 2.977285 1_555
Al16 U0 3.126177 1_555
Al17 Fe3 2.540333 1_566
Al17 Fe0 2.540333 1_556
Al17 Al18 2.705667 1_566
Al17 Al8 2.706926 1_555
Al17 Al4 2.864078 1_555
Al17 U0 3.106375 1_556
Al17 U1 3.137601 1_465
Al18 Fe3 2.542424 1_555
Al18 Fe0 2.542424 1_555
Al18 Al3 2.657358 1_555
Al18 Al5 2.760958 1_554
Al18 U1 3.223814 1_454
Al18 U0 3.223814 1_545
Al19 Fe2 2.542424 1_555
Al19 Fe1 2.542424 1_555
Al19 Al3 2.657358 1_555
Al19 Al2 2.705667 1_455
Al19 Al8 2.705667 1_545
Al19 Al7 2.760958 1_555
Al19 U0 3.223814 1_545
Al19 U1 3.223814 1_455
Fe0 U0 3.390186 1_555
Fe0 U1 3.390186 1_454
Fe1 U1 3.390186 1_555
Fe1 U0 3.390186 1_545
Fe2 U0 3.390186 1_555
Fe2 U1 3.390186 1_455
Fe3 U1 3.390186 1_554
Fe3 U0 3.390186 1_545
