# generated using pymatgen
data_Ti9O17
_symmetry_space_group_name_H-M   'P 1'
_cell_length_a   5.52738723
_cell_length_b   7.13435393
_cell_length_c   14.77531477
_cell_angle_alpha   96.70158076
_cell_angle_beta   90.64420637
_cell_angle_gamma   108.44060008
_symmetry_Int_Tables_number   1
_chemical_formula_structural   Ti9O17
_chemical_formula_sum   'Ti18 O34'
_cell_volume   548.24246671
_cell_formula_units_Z   2
loop_
 _symmetry_equiv_pos_site_id
 _symmetry_equiv_pos_as_xyz
  1  'x, y, z'
loop_
 _atom_site_type_symbol
 _atom_site_label
 _atom_site_symmetry_multiplicity
 _atom_site_fract_x
 _atom_site_fract_y
 _atom_site_fract_z
 _atom_site_occupancy
  Ti  Ti0  1  0.00000285  0.50000797  -0.00001288  1
  Ti  Ti1  1  -0.00001118  -0.00000768  -0.00001298  1
  Ti  Ti2  1  0.29670424  0.80929171  0.54024898  1
  Ti  Ti3  1  0.70329704  0.19070292  0.45976911  1
  Ti  Ti4  1  0.30574314  0.31244313  0.54470463  1
  Ti  Ti5  1  0.69426491  0.68756113  0.45531260  1
  Ti  Ti6  1  0.74180430  0.59459927  0.65825993  1
  Ti  Ti7  1  0.25821094  0.40541322  0.34174900  1
  Ti  Ti8  1  0.74674210  0.09270737  0.65986019  1
  Ti  Ti9  1  0.25325365  0.90728583  0.34014992  1
  Ti  Ti10  1  0.16757130  0.40488230  0.77430487  1
  Ti  Ti11  1  0.83242648  0.59512325  0.22569259  1
  Ti  Ti12  1  0.16163595  0.90017304  0.77222174  1
  Ti  Ti13  1  0.83836628  0.09981859  0.22777420  1
  Ti  Ti14  1  0.57929725  0.20204854  0.88632245  1
  Ti  Ti15  1  0.42070425  0.79795308  0.11365960  1
  Ti  Ti16  1  0.58918959  0.70540852  0.88643589  1
  Ti  Ti17  1  0.41080372  0.29459091  0.11354212  1
  O  O0  1  0.70524626  0.96129204  0.52152321  1
  O  O1  1  0.29475333  0.03870437  0.47849121  1
  O  O2  1  0.95400922  0.67690100  0.54346554  1
  O  O3  1  0.04599551  0.32310266  0.45655279  1
  O  O4  1  0.45672469  0.60734304  0.57029042  1
  O  O5  1  0.54326701  0.39264205  0.42972078  1
  O  O6  1  0.64820108  0.30912568  0.59402710  1
  O  O7  1  0.35179211  0.69087161  0.40598221  1
  O  O8  1  0.10339976  0.26029995  0.64195003  1
  O  O9  1  0.89660886  0.73969625  0.35805735  1
  O  O10  1  0.38373129  0.94927299  0.65794715  1
  O  O11  1  0.61627238  0.05073023  0.34206078  1
  O  O12  1  0.86063978  0.88711813  0.69225039  1
  O  O13  1  0.13934462  0.11288010  0.30775483  1
  O  O14  1  0.51980554  0.55756254  0.75591048  1
  O  O15  1  0.48019981  0.44243289  0.24408776  1
  O  O16  1  0.04857976  0.61332511  0.72774754  1
  O  O17  1  0.95142512  0.38667412  0.27225539  1
  O  O18  1  0.63978732  0.83353153  0.01026447  1
  O  O19  1  0.36020904  0.16647213  0.98972941  1
  O  O20  1  0.12429894  0.78712010  0.03788311  1
  O  O21  1  0.87570370  0.21288058  0.96210154  1
  O  O22  1  0.29256447  0.51204377  0.07936799  1
  O  O23  1  0.70744016  0.48795170  0.92062090  1
  O  O24  1  0.77465885  0.46504938  0.10577032  1
  O  O25  1  0.22533040  0.53495609  0.89422572  1
  O  O26  1  0.05889797  0.13560350  0.12713404  1
  O  O27  1  0.94110782  0.86439507  0.87285950  1
  O  O28  1  0.53993932  0.08725567  0.15528499  1
  O  O29  1  0.46006943  0.91274716  0.84470471  1
  O  O30  1  0.71552065  0.81310504  0.19405007  1
  O  O31  1  0.28447705  0.18689804  0.80594556  1
  O  O32  1  0.19613711  0.76082001  0.22405480  1
  O  O33  1  0.80385681  0.23918732  0.77594596  1
loop_
_geom_bond_atom_site_label_1
_geom_bond_atom_site_label_2
_geom_bond_distance
_geom_bond_site_symmetry_2
O0 Ti3 1.967466 1_565
O0 Ti5 2.062107 1_555
O0 Ti8 2.124994 1_565
O0 Ti2 2.210591 1_555
O1 Ti2 1.967510 1_545
O1 Ti4 2.062159 1_555
O1 Ti9 2.125058 1_545
O1 Ti3 2.210586 1_555
O2 Ti2 1.833857 1_655
O2 Ti5 1.952860 1_555
O2 Ti6 2.106859 1_555
O3 Ti3 1.833886 1_455
O3 Ti4 1.952861 1_555
O3 Ti7 2.107017 1_555
O4 Ti4 1.990558 1_555
O4 Ti2 2.000457 1_555
O4 Ti6 2.062237 1_555
O4 Ti5 2.176963 1_555
O5 Ti5 1.990695 1_555
O5 Ti3 2.000462 1_555
O5 Ti7 2.062228 1_555
O5 Ti4 2.176966 1_555
O6 Ti4 2.028806 1_555
O6 Ti6 2.046364 1_555
O6 Ti8 2.120715 1_555
O6 Ti3 2.127633 1_555
O7 Ti5 2.028906 1_555
O7 Ti7 2.046281 1_555
O7 Ti9 2.120676 1_555
O7 Ti2 2.127730 1_555
O8 Ti4 1.830691 1_555
O8 Ti8 1.995086 1_455
O8 Ti10 2.072739 1_555
O9 Ti5 1.830805 1_555
O9 Ti9 1.995014 1_655
O9 Ti11 2.072847 1_555
O10 Ti2 1.877469 1_555
O10 Ti8 1.940875 1_565
O10 Ti12 2.095988 1_555
O11 Ti3 1.877576 1_555
O11 Ti9 1.940929 1_545
O11 Ti13 2.096125 1_555
O12 Ti8 1.875623 1_565
O12 Ti6 1.979823 1_555
O12 Ti12 2.001226 1_655
O13 Ti9 1.875717 1_545
O13 Ti7 1.979922 1_555
O13 Ti13 2.001212 1_455
O14 Ti6 1.892331 1_555
O14 Ti10 1.946859 1_555
O14 Ti16 2.057097 1_555
O15 Ti7 1.892419 1_555
O15 Ti11 1.946846 1_555
O15 Ti17 2.057350 1_555
O16 Ti6 1.932038 1_455
O16 Ti12 1.969318 1_555
O16 Ti10 1.991140 1_555
O17 Ti7 1.932107 1_655
O17 Ti13 1.969389 1_555
O17 Ti11 1.991236 1_555
O18 Ti16 1.922925 1_554
O18 Ti15 1.949960 1_555
O18 Ti1 1.987570 1_665
O19 Ti17 1.922706 1_556
O19 Ti14 1.950117 1_555
O19 Ti1 1.987647 1_556
O20 Ti15 1.949912 1_555
O20 Ti0 1.953115 1_555
O20 Ti1 1.985472 1_565
O21 Ti14 1.949940 1_555
O21 Ti0 1.953189 1_656
O21 Ti1 1.985438 1_656
O22 Ti15 1.937985 1_555
O22 Ti0 1.960620 1_555
O22 Ti17 1.976295 1_555
O23 Ti14 1.937959 1_555
O23 Ti0 1.960456 1_656
O23 Ti16 1.976413 1_555
O24 Ti11 1.875836 1_555
O24 Ti0 1.998691 1_655
O24 Ti17 2.006832 1_555
O25 Ti10 1.875818 1_555
O25 Ti0 1.998377 1_556
O25 Ti16 2.006875 1_555
O26 Ti13 1.922154 1_455
O26 Ti17 1.943334 1_555
O26 Ti1 1.983452 1_555
O27 Ti12 1.922112 1_655
O27 Ti16 1.943347 1_555
O27 Ti1 1.983164 1_666
O28 Ti13 1.928844 1_555
O28 Ti15 1.976536 1_545
O28 Ti17 1.987189 1_555
O29 Ti12 1.928801 1_555
O29 Ti14 1.976507 1_565
O29 Ti16 1.987092 1_555
O30 Ti13 1.941465 1_565
O30 Ti11 1.962986 1_555
O30 Ti15 1.973090 1_555
O31 Ti12 1.941539 1_545
O31 Ti10 1.962994 1_555
O31 Ti14 1.972992 1_555
O32 Ti9 1.869422 1_555
O32 Ti11 1.985925 1_455
O32 Ti15 2.051790 1_555
O33 Ti8 1.869345 1_555
O33 Ti10 1.985943 1_655
O33 Ti14 2.051542 1_555
