# generated using pymatgen
data_H2CS3
_symmetry_space_group_name_H-M   'P 1'
_cell_length_a   6.15016100
_cell_length_b   12.50474100
_cell_length_c   19.59835979
_cell_angle_alpha   77.85869402
_cell_angle_beta   90.00000000
_cell_angle_gamma   90.00000000
_symmetry_Int_Tables_number   1
_chemical_formula_structural   H2CS3
_chemical_formula_sum   'H24 C12 S36'
_cell_volume   1473.52076390
_cell_formula_units_Z   12
loop_
 _symmetry_equiv_pos_site_id
 _symmetry_equiv_pos_as_xyz
  1  'x, y, z'
loop_
 _atom_site_type_symbol
 _atom_site_label
 _atom_site_symmetry_multiplicity
 _atom_site_fract_x
 _atom_site_fract_y
 _atom_site_fract_z
 _atom_site_occupancy
  H  H0  1  0.33761600  0.36538000  0.50535400  1
  H  H1  1  0.83761600  0.63462000  0.99464600  1
  H  H2  1  0.66238400  0.63462000  0.49464600  1
  H  H3  1  0.16238400  0.36538000  0.00535400  1
  H  H4  1  0.59805000  0.23926800  0.35309100  1
  H  H5  1  0.09805000  0.76073200  0.14690900  1
  H  H6  1  0.40195000  0.76073200  0.64690900  1
  H  H7  1  0.90195000  0.23926800  0.85309100  1
  H  H8  1  0.51941800  0.49767700  0.85844000  1
  H  H9  1  0.01941800  0.50232300  0.64156000  1
  H  H10  1  0.48058200  0.50232300  0.14156000  1
  H  H11  1  0.98058200  0.49767700  0.35844000  1
  H  H12  1  0.01656800  0.70675600  0.84038500  1
  H  H13  1  0.51656800  0.29324400  0.65961500  1
  H  H14  1  0.98343200  0.29324400  0.15961500  1
  H  H15  1  0.48343200  0.70675600  0.34038500  1
  H  H16  1  0.91696100  0.13143400  0.71957100  1
  H  H17  1  0.34730200  0.03266400  0.05119200  1
  H  H18  1  0.41696100  0.86856600  0.78042900  1
  H  H19  1  0.58303900  0.13143400  0.21957100  1
  H  H20  1  0.15269800  0.03266400  0.55119200  1
  H  H21  1  0.65269800  0.96733600  0.94880800  1
  H  H22  1  0.84730200  0.96733600  0.44880800  1
  H  H23  1  0.08303900  0.86856600  0.28042900  1
  C  C0  1  0.64726800  0.05672300  0.11835000  1
  C  C1  1  0.14726800  0.94327700  0.38165000  1
  C  C2  1  0.35273200  0.94327700  0.88165000  1
  C  C3  1  0.85273200  0.05672300  0.61835000  1
  C  C4  1  0.85110700  0.31739800  0.95290200  1
  C  C5  1  0.35110700  0.68260200  0.54709800  1
  C  C6  1  0.14889300  0.68260200  0.04709800  1
  C  C7  1  0.64889300  0.31739800  0.45290200  1
  C  C8  1  0.80536100  0.65666700  0.29430200  1
  C  C9  1  0.30536100  0.34333300  0.20569800  1
  C  C10  1  0.19463900  0.34333300  0.70569800  1
  C  C11  1  0.69463900  0.65666700  0.79430200  1
  S  S0  1  0.86589400  0.68824300  0.04734100  1
  S  S1  1  0.28911800  0.23341000  0.26955100  1
  S  S2  1  0.21088200  0.23341000  0.76955100  1
  S  S3  1  0.71088200  0.76659000  0.73044900  1
  S  S4  1  0.61140600  0.61686700  0.35942800  1
  S  S5  1  0.11140600  0.38313300  0.14057200  1
  S  S6  1  0.38859400  0.38313300  0.64057200  1
  S  S7  1  0.88859400  0.61686700  0.85942800  1
  S  S8  1  0.02925700  0.57066000  0.29846500  1
  S  S9  1  0.52925700  0.42934000  0.20153500  1
  S  S10  1  0.97074300  0.42934000  0.70153500  1
  S  S11  1  0.47074300  0.57066000  0.79846500  1
  S  S12  1  0.72270700  0.25948200  0.89035200  1
  S  S13  1  0.22270700  0.74051800  0.60964800  1
  S  S14  1  0.27729300  0.74051800  0.10964800  1
  S  S15  1  0.77729300  0.25948200  0.39035200  1
  S  S16  1  0.13410600  0.31175700  0.95265900  1
  S  S17  1  0.63410600  0.68824300  0.54734100  1
  S  S18  1  0.78911800  0.76659000  0.23044900  1
  S  S19  1  0.36589400  0.31175700  0.45265900  1
  S  S20  1  0.70030700  0.37120400  0.00699600  1
  S  S21  1  0.20030700  0.62879600  0.49300400  1
  S  S22  1  0.29969300  0.62879600  0.99300400  1
  S  S23  1  0.79969300  0.37120400  0.50699600  1
  S  S24  1  0.80960400  0.01020300  0.06414400  1
  S  S25  1  0.30960400  0.98979700  0.43585600  1
  S  S26  1  0.19039600  0.98979700  0.93585600  1
  S  S27  1  0.69039600  0.01020300  0.56414400  1
  S  S28  1  0.36586200  0.06734100  0.11254500  1
  S  S29  1  0.86586200  0.93265900  0.38745500  1
  S  S30  1  0.63413800  0.93265900  0.88745500  1
  S  S31  1  0.13413800  0.06734100  0.61254500  1
  S  S32  1  0.76501800  0.09665600  0.19030700  1
  S  S33  1  0.26501800  0.90334400  0.30969300  1
  S  S34  1  0.23498200  0.90334400  0.80969300  1
  S  S35  1  0.73498200  0.09665600  0.69030700  1
loop_
_geom_bond_atom_site_label_1
_geom_bond_atom_site_label_2
_geom_bond_distance
_geom_bond_site_symmetry_2
H0 S19 1.355622 1_555
H1 S0 1.355622 1_556
H2 S17 1.355622 1_555
H3 S16 1.355622 1_554
H4 S15 1.374786 1_555
H5 S14 1.374786 1_555
H6 S13 1.374786 1_555
H7 S12 1.374786 1_555
H8 S11 1.361202 1_555
H9 S10 1.361202 1_455
H10 S9 1.361202 1_555
H11 S8 1.361202 1_655
H12 S7 1.358584 1_455
H13 S6 1.358584 1_555
H14 S5 1.358584 1_655
H15 S4 1.358584 1_555
H16 S35 1.369521 1_555
H17 S28 1.366088 1_555
H18 S34 1.369521 1_555
H19 S32 1.369521 1_555
H20 S31 1.366088 1_555
H21 S30 1.366088 1_555
H22 S29 1.366088 1_555
H23 S33 1.369521 1_555
C0 S24 1.650372 1_555
C0 S28 1.737675 1_555
C0 S32 1.748939 1_555
C1 S25 1.650372 1_555
C1 S29 1.737675 1_455
C1 S33 1.748939 1_555
C2 S26 1.650372 1_555
C2 S30 1.737675 1_555
C2 S34 1.748939 1_555
C3 S27 1.650372 1_555
C3 S31 1.737675 1_655
C3 S35 1.748939 1_555
C4 S20 1.654336 1_556
C4 S12 1.739059 1_555
C4 S16 1.741965 1_655
C5 S21 1.654336 1_555
C5 S13 1.739059 1_555
C5 S17 1.741965 1_555
C6 S22 1.654336 1_554
C6 S14 1.739059 1_555
C6 S0 1.741965 1_455
C7 S23 1.654336 1_555
C7 S15 1.739059 1_555
C7 S19 1.741965 1_555
C8 S18 1.655855 1_555
C8 S8 1.738550 1_655
C8 S4 1.741405 1_555
C9 S1 1.655855 1_555
C9 S9 1.738550 1_555
C9 S5 1.741405 1_555
C10 S2 1.655855 1_555
C10 S10 1.738550 1_455
C10 S6 1.741405 1_555
C11 S3 1.655855 1_555
C11 S11 1.738550 1_555
C11 S7 1.741405 1_555
