# generated using pymatgen
data_V5FeO12
_symmetry_space_group_name_H-M   'P 1'
_cell_length_a   6.78984663
_cell_length_b   6.91168178
_cell_length_c   5.87912483
_cell_angle_alpha   75.58700269
_cell_angle_beta   104.93116968
_cell_angle_gamma   95.71367999
_symmetry_Int_Tables_number   1
_chemical_formula_structural   V5FeO12
_chemical_formula_sum   'V5 Fe1 O12'
_cell_volume   258.01197704
_cell_formula_units_Z   1
loop_
 _symmetry_equiv_pos_site_id
 _symmetry_equiv_pos_as_xyz
  1  'x, y, z'
loop_
 _atom_site_type_symbol
 _atom_site_label
 _atom_site_symmetry_multiplicity
 _atom_site_fract_x
 _atom_site_fract_y
 _atom_site_fract_z
 _atom_site_occupancy
  V  V0  1  0.91570400  0.91595800  0.24592300  1
  V  V1  1  0.20827700  0.61537900  0.75195600  1
  V  V2  1  0.38974400  0.79220400  0.26010700  1
  V  V3  1  0.61294400  0.20640700  0.75160300  1
  V  V4  1  0.79980600  0.39362100  0.24758900  1
  Fe  Fe0  1  0.08385200  0.08890400  0.73766400  1
  O  O0  1  0.03759100  0.80396500  0.62534100  1
  O  O1  1  0.08969900  0.39122300  0.75707100  1
  O  O2  1  0.19610200  0.95952200  0.16308100  1
  O  O3  1  0.37905300  0.64924900  0.55444400  1
  O  O4  1  0.38244600  0.08052300  0.74091600  1
  O  O5  1  0.34147200  0.63126200  0.05518500  1
  O  O6  1  0.63942000  0.37013500  0.94367100  1
  O  O7  1  0.62533700  0.90307300  0.27672400  1
  O  O8  1  0.62809300  0.33913200  0.45914500  1
  O  O9  1  0.81823200  0.04283200  0.87242400  1
  O  O10  1  0.89801700  0.64049200  0.20879900  1
  O  O11  1  0.95420800  0.17611800  0.34835900  1
loop_
_geom_bond_atom_site_label_1
_geom_bond_atom_site_label_2
_geom_bond_distance
_geom_bond_site_symmetry_2
Fe0 O4 2.029029 1_555
Fe0 O9 2.116165 1_455
Fe0 O1 2.116736 1_555
Fe0 O11 2.181127 1_455
Fe0 O0 2.197878 1_545
Fe0 O2 2.382425 1_546
O0 V1 1.723198 1_555
O0 V0 2.139286 1_455
O1 V1 1.670437 1_555
O2 V2 1.726073 1_555
O2 V0 2.059910 1_455
O3 V2 1.781924 1_555
O3 V1 1.803386 1_555
O4 V3 1.707556 1_555
O5 V2 1.785312 1_555
O5 V1 1.804128 1_554
O6 V3 1.754710 1_555
O6 V4 1.873849 1_556
O7 V2 1.693594 1_555
O7 V0 2.017104 1_555
O8 V3 1.759427 1_555
O8 V4 1.864074 1_555
O9 V3 1.769020 1_555
O9 V0 2.106374 1_546
O10 V4 1.751061 1_555
O10 V0 1.958278 1_555
O11 V4 1.805653 1_555
O11 V0 2.007163 1_545
