# generated using pymatgen
data_Mn(GaSe2)2
_symmetry_space_group_name_H-M   'P 1'
_cell_length_a   5.69844006
_cell_length_b   5.69542051
_cell_length_c   6.76034860
_cell_angle_alpha   114.87990514
_cell_angle_beta   114.89986699
_cell_angle_gamma   90.00834958
_symmetry_Int_Tables_number   1
_chemical_formula_structural   Mn(GaSe2)2
_chemical_formula_sum   'Mn1 Ga2 Se4'
_cell_volume   176.30233391
_cell_formula_units_Z   1
loop_
 _symmetry_equiv_pos_site_id
 _symmetry_equiv_pos_as_xyz
  1  'x, y, z'
loop_
 _atom_site_type_symbol
 _atom_site_label
 _atom_site_symmetry_multiplicity
 _atom_site_fract_x
 _atom_site_fract_y
 _atom_site_fract_z
 _atom_site_occupancy
  Mn  Mn0  1  -0.00001423  0.00016729  0.00013356  1
  Ga  Ga0  1  0.49976538  0.49994493  -0.00019627  1
  Ga  Ga1  1  0.25006233  0.74993689  0.49993685  1
  Se  Se0  1  0.39918435  0.38664778  0.26715774  1
  Se  Se1  1  0.11953007  0.60062376  0.73293696  1
  Se  Se2  1  0.61340600  0.13214109  0.73271548  1
  Se  Se3  1  0.86806611  0.88054027  0.26731470  1
loop_
_geom_bond_atom_site_label_1
_geom_bond_atom_site_label_2
_geom_bond_distance
_geom_bond_site_symmetry_2
Mn0 Se3 2.543724 1_445
Mn0 Se0 2.544753 1_555
Mn0 Se2 2.544872 1_454
Mn0 Se1 2.546189 1_544
Ga0 Se1 2.420237 1_554
Ga0 Se0 2.421809 1_555
Ga0 Se2 2.422833 1_554
Ga0 Se3 2.424468 1_555
Ga1 Se0 2.422074 1_555
Ga1 Se3 2.422178 1_455
Ga1 Se1 2.423045 1_555
Ga1 Se2 2.423734 1_565
