# generated using pymatgen
data_Na10La7TaSi6(SO8)6
_symmetry_space_group_name_H-M   'P 1'
_cell_length_a   19.13132470
_cell_length_b   9.59586050
_cell_length_c   24.35591133
_cell_angle_alpha   90.11256918
_cell_angle_beta   89.71019143
_cell_angle_gamma   120.10001731
_symmetry_Int_Tables_number   1
_chemical_formula_structural   Na10La7TaSi6(SO8)6
_chemical_formula_sum   'Na30 La21 Ta3 Si18 S18 O144'
_cell_volume   3868.29646793
_cell_formula_units_Z   3
loop_
 _symmetry_equiv_pos_site_id
 _symmetry_equiv_pos_as_xyz
  1  'x, y, z'
loop_
 _atom_site_type_symbol
 _atom_site_label
 _atom_site_symmetry_multiplicity
 _atom_site_fract_x
 _atom_site_fract_y
 _atom_site_fract_z
 _atom_site_occupancy
  Na  Na0  1  0.32348832  0.01370708  0.24603845  1
  Na  Na1  1  0.82704297  0.00506949  0.24837216  1
  Na  Na2  1  0.18530370  0.35535044  0.24734744  1
  Na  Na3  1  0.68755950  0.38054532  0.23474285  1
  Na  Na4  1  0.99378185  0.62976174  0.24060522  1
  Na  Na5  1  0.49184290  0.61819469  0.24830211  1
  Na  Na6  1  0.30847437  0.61603560  0.74790401  1
  Na  Na7  1  0.81050220  0.62464895  0.74498718  1
  Na  Na8  1  0.99441946  0.34411692  0.74338612  1
  Na  Na9  1  0.69192391  0.01983270  0.75513707  1
  Na  Na10  1  0.16172035  0.34287933  0.58443092  1
  Na  Na11  1  0.00981657  0.69860528  0.58857195  1
  Na  Na12  1  0.32965990  0.96120406  0.58802831  1
  Na  Na13  1  0.83585348  0.97300718  0.58275596  1
  Na  Na14  1  0.83017432  0.67803855  0.07633750  1
  Na  Na15  1  0.17075010  0.30877282  0.90813947  1
  Na  Na16  1  0.67353917  0.31487165  0.91605185  1
  Na  Na17  1  0.35739046  0.66572993  0.41756117  1
  Na  Na18  1  0.00026045  0.99469604  0.49870485  1
  Na  Na19  1  0.50464633  0.96760272  0.49861136  1
  Na  Na20  1  0.98751787  0.96502670  0.99941075  1
  Na  Na21  1  0.49003430  0.96094857  0.00268885  1
  Na  Na22  1  0.32849940  0.33036138  0.83709563  1
  Na  Na23  1  0.82660577  0.33533346  0.83786697  1
  Na  Na24  1  0.34665270  0.34262731  0.33288025  1
  Na  Na25  1  0.84276259  0.34942321  0.33061140  1
  Na  Na26  1  0.15507796  0.66237670  0.16502845  1
  Na  Na27  1  0.65039656  0.63341668  0.15920757  1
  Na  Na28  1  0.16368160  0.65865398  0.66166798  1
  Na  Na29  1  0.67171485  0.63385724  0.66987196  1
  La  La0  1  0.99874886  0.99901614  0.34735666  1
  La  La1  1  0.50146443  0.99768154  0.34979116  1
  La  La2  1  0.99079374  0.99019943  0.85073514  1
  La  La3  1  0.49593763  0.99358654  0.85240247  1
  La  La4  1  0.50617582  0.00591299  0.65008047  1
  La  La5  1  0.32477024  0.32752630  0.68037692  1
  La  La6  1  0.82870416  0.33788024  0.67866428  1
  La  La7  1  0.33868236  0.34492457  0.17902476  1
  La  La8  1  0.83954559  0.34676896  0.17395715  1
  La  La9  1  0.34396221  0.36817981  0.98927588  1
  La  La10  1  0.83414276  0.35310895  0.99174059  1
  La  La11  1  0.33193332  0.33885822  0.48629335  1
  La  La12  1  0.84288853  0.35303385  0.48897894  1
  La  La13  1  0.16831561  0.67267363  0.01899827  1
  La  La14  1  0.66320101  0.66385389  0.02005574  1
  La  La15  1  0.16397614  0.66511409  0.51842974  1
  La  La16  1  0.66083508  0.65803295  0.51312266  1
  La  La17  1  0.16478600  0.66476724  0.30717078  1
  La  La18  1  0.65937118  0.65410623  0.31645503  1
  La  La19  1  0.16740332  0.66296859  0.81814836  1
  La  La20  1  0.67526060  0.66466347  0.81681929  1
  Ta  Ta0  1  0.00155373  0.01602714  0.64840241  1
  Ta  Ta1  1  0.99972238  0.99043026  0.15504450  1
  Ta  Ta2  1  0.49747701  0.00445829  0.14720579  1
  Si  Si0  1  0.14578091  0.00047034  0.24734056  1
  Si  Si1  1  0.35585330  0.71590560  0.24711744  1
  Si  Si2  1  0.85145068  0.70473497  0.24800175  1
  Si  Si3  1  0.99782038  0.28553680  0.24516428  1
  Si  Si4  1  0.50091540  0.28833471  0.24664575  1
  Si  Si5  1  0.14354141  0.29429124  0.75051162  1
  Si  Si6  1  0.65260997  0.29939044  0.75412545  1
  Si  Si7  1  0.85309642  0.00063360  0.74388609  1
  Si  Si8  1  0.98337545  0.32628983  0.58943575  1
  Si  Si9  1  0.17644647  0.03051316  0.58560114  1
  Si  Si10  1  0.33470464  0.64825452  0.58322381  1
  Si  Si11  1  0.83879799  0.65532843  0.58989836  1
  Si  Si12  1  0.49069971  0.66022506  0.09137145  1
  Si  Si13  1  0.99085288  0.66309160  0.09034183  1
  Si  Si14  1  0.67464865  0.32464107  0.08796211  1
  Si  Si15  1  0.31591537  0.66030676  0.91475402  1
  Si  Si16  1  0.81934278  0.66129843  0.92009994  1
  Si  Si17  1  0.51066396  0.66356953  0.41400952  1
  S  S0  1  0.64481468  0.99908666  0.24382978  1
  S  S1  1  0.00220174  0.71051699  0.74411288  1
  S  S2  1  0.50000413  0.69692699  0.75002194  1
  S  S3  1  0.34764387  0.99813192  0.74844569  1
  S  S4  1  0.48382989  0.33081016  0.58482790  1
  S  S5  1  0.68205407  0.02752791  0.58187168  1
  S  S6  1  0.34094945  0.02902142  0.08794898  1
  S  S7  1  0.84264967  0.02677628  0.08805262  1
  S  S8  1  0.17112479  0.31591607  0.08656405  1
  S  S9  1  0.01501588  0.36543216  0.91681443  1
  S  S10  1  0.51452436  0.36475868  0.91636320  1
  S  S11  1  0.16955563  0.97711087  0.91735840  1
  S  S12  1  0.66875578  0.97703014  0.91465065  1
  S  S13  1  0.31628818  0.96711021  0.41583833  1
  S  S14  1  0.81813744  0.97569612  0.41727220  1
  S  S15  1  0.16713911  0.36530696  0.41596810  1
  S  S16  1  0.67134371  0.36195655  0.41588117  1
  S  S17  1  0.01362894  0.66582623  0.41598952  1
  O  O0  1  0.10865836  0.03399297  0.30180702  1
  O  O1  1  0.61258548  0.02404908  0.29559223  1
  O  O2  1  0.40374642  0.78196111  0.30494086  1
  O  O3  1  0.90865177  0.78321375  0.30068625  1
  O  O4  1  0.49150200  0.18667190  0.30181247  1
  O  O5  1  0.98455772  0.18210639  0.30040163  1
  O  O6  1  0.10550357  0.20355875  0.80822441  1
  O  O7  1  0.60809826  0.19665121  0.81014870  1
  O  O8  1  0.48909946  0.77772295  0.79867893  1
  O  O9  1  0.99644987  0.78842632  0.79460908  1
  O  O10  1  0.39636813  0.00532860  0.79651201  1
  O  O11  1  0.90667795  0.02270453  0.79777650  1
  O  O12  1  0.38680736  0.98623362  0.69674264  1
  O  O13  1  0.90950091  0.99033086  0.69125800  1
  O  O14  1  0.08359717  0.17757435  0.69736541  1
  O  O15  1  0.60046646  0.19917729  0.70002404  1
  O  O16  1  0.00643190  0.80780685  0.69438234  1
  O  O17  1  0.50586468  0.79037661  0.69982790  1
  O  O18  1  0.41426997  0.84188080  0.19663384  1
  O  O19  1  0.90854281  0.82642847  0.19385575  1
  O  O20  1  0.00308324  0.17355816  0.19272706  1
  O  O21  1  0.50476242  0.17718388  0.19412590  1
  O  O22  1  0.08277354  0.98726570  0.19507167  1
  O  O23  1  0.59174734  0.98820549  0.19674929  1
  O  O24  1  0.44429507  0.34533214  0.63491137  1
  O  O25  1  0.94942026  0.36606913  0.64473494  1
  O  O26  1  0.24203071  0.10333955  0.63508745  1
  O  O27  1  0.72363341  0.09895167  0.63468166  1
  O  O28  1  0.32395855  0.53841127  0.63814975  1
  O  O29  1  0.82166703  0.55383613  0.64673563  1
  O  O30  1  0.45248931  0.55350910  0.14680983  1
  O  O31  1  0.95568151  0.56532710  0.14803041  1
  O  O32  1  0.33037126  0.09942973  0.13895138  1
  O  O33  1  0.83085279  0.09519413  0.13954419  1
  O  O34  1  0.22096962  0.33842283  0.13577902  1
  O  O35  1  0.72984262  0.35037695  0.14236267  1
  O  O36  1  0.21015275  0.29425611  0.03664877  1
  O  O37  1  0.71354050  0.29232746  0.03232474  1
  O  O38  1  0.43139160  0.57348564  0.03783068  1
  O  O39  1  0.92308455  0.57261805  0.04155247  1
  O  O40  1  0.35171216  0.12965876  0.03960598  1
  O  O41  1  0.85196615  0.12879561  0.04037275  1
  O  O42  1  0.21080193  0.15153456  0.53293539  1
  O  O43  1  0.72788526  0.13402345  0.53538810  1
  O  O44  1  0.33957768  0.55699884  0.52737804  1
  O  O45  1  0.86233679  0.56874054  0.53986110  1
  O  O46  1  0.43549660  0.31700867  0.53542688  1
  O  O47  1  0.91946832  0.27536377  0.53878185  1
  O  O48  1  0.26190733  0.66764582  0.96551969  1
  O  O49  1  0.77033804  0.66772980  0.97458640  1
  O  O50  1  0.06534957  0.46143824  0.96347058  1
  O  O51  1  0.56106782  0.44896177  0.96568495  1
  O  O52  1  0.16199202  0.87997820  0.96628839  1
  O  O53  1  0.66253668  0.87455890  0.96128065  1
  O  O54  1  0.27395249  0.87510600  0.46659542  1
  O  O55  1  0.77375948  0.88140860  0.46693354  1
  O  O56  1  0.16434017  0.45061859  0.46629400  1
  O  O57  1  0.66799788  0.45253292  0.46416862  1
  O  O58  1  0.05555042  0.66361637  0.46705280  1
  O  O59  1  0.56765051  0.66967711  0.46529008  1
  O  O60  1  0.05864163  0.66333169  0.36655839  1
  O  O61  1  0.55447749  0.65931433  0.35514455  1
  O  O62  1  0.26884513  0.87963970  0.36637991  1
  O  O63  1  0.77370733  0.89014807  0.36642374  1
  O  O64  1  0.16963425  0.45903123  0.36621355  1
  O  O65  1  0.67646988  0.45102448  0.36434874  1
  O  O66  1  0.05087965  0.45409222  0.86419206  1
  O  O67  1  0.55358477  0.46027231  0.86624124  1
  O  O68  1  0.17233164  0.89245585  0.86686589  1
  O  O69  1  0.66967185  0.90005876  0.86136157  1
  O  O70  1  0.26699442  0.64299941  0.85579460  1
  O  O71  1  0.76859287  0.64797936  0.86309371  1
  O  O72  1  0.00590700  0.81155931  0.41821947  1
  O  O73  1  0.49808500  0.82181751  0.41918883  1
  O  O74  1  0.39548575  0.97283073  0.41542282  1
  O  O75  1  0.89955007  0.99130680  0.41878398  1
  O  O76  1  0.09574081  0.20218467  0.41680687  1
  O  O77  1  0.59734939  0.20119639  0.41658422  1
  O  O78  1  0.01768731  0.21193877  0.91660863  1
  O  O79  1  0.51360390  0.20791855  0.91439637  1
  O  O80  1  0.09868131  0.00332154  0.91619227  1
  O  O81  1  0.59724224  0.00225214  0.91676527  1
  O  O82  1  0.40719025  0.81745318  0.91569554  1
  O  O83  1  0.91046264  0.81932449  0.91949639  1
  O  O84  1  0.48726816  0.17892091  0.58639190  1
  O  O85  1  0.99492289  0.16313199  0.59795984  1
  O  O86  1  0.08774214  0.01754775  0.60213146  1
  O  O87  1  0.59961590  0.00444847  0.58145849  1
  O  O88  1  0.41069944  0.83498028  0.58512872  1
  O  O89  1  0.92597841  0.83445654  0.59889126  1
  O  O90  1  0.49362240  0.83734901  0.10008593  1
  O  O91  1  0.99292700  0.84152195  0.09670626  1
  O  O92  1  0.41743529  0.01660264  0.09296610  1
  O  O93  1  0.91768200  0.01133465  0.09236976  1
  O  O94  1  0.08960448  0.16661839  0.09364436  1
  O  O95  1  0.58358401  0.16298461  0.10090982  1
  O  O96  1  0.33833601  0.14135484  0.74898057  1
  O  O97  1  0.84317041  0.15969062  0.73929852  1
  O  O98  1  0.23775902  0.33619780  0.74476932  1
  O  O99  1  0.74349493  0.31489532  0.75311150  1
  O  O100  1  0.42754859  0.53338368  0.74740599  1
  O  O101  1  0.92798176  0.54806607  0.74229037  1
  O  O102  1  0.33769508  0.53004898  0.24114129  1
  O  O103  1  0.83484919  0.51994261  0.24283048  1
  O  O104  1  0.42094391  0.30925304  0.24279791  1
  O  O105  1  0.91832310  0.30802964  0.24162467  1
  O  O106  1  0.23649728  0.15197852  0.23841471  1
  O  O107  1  0.72833501  0.13682079  0.23779085  1
  O  O108  1  0.31529434  0.48551230  0.91847892  1
  O  O109  1  0.81808365  0.48582664  0.91950516  1
  O  O110  1  0.43068053  0.33564773  0.91978275  1
  O  O111  1  0.93168539  0.33490371  0.92113177  1
  O  O112  1  0.24407177  0.13935921  0.91989059  1
  O  O113  1  0.74305762  0.13891825  0.91737520  1
  O  O114  1  0.32610197  0.12949070  0.41711327  1
  O  O115  1  0.82504857  0.13746244  0.41836672  1
  O  O116  1  0.24395600  0.36093748  0.41520149  1
  O  O117  1  0.74469706  0.34593086  0.41861381  1
  O  O118  1  0.41832018  0.50298761  0.41578508  1
  O  O119  1  0.93211092  0.51670952  0.41415743  1
  O  O120  1  0.16107066  0.45855896  0.08095870  1
  O  O121  1  0.67120053  0.49163902  0.08295030  1
  O  O122  1  0.08022530  0.68709591  0.08025459  1
  O  O123  1  0.58139941  0.69068098  0.08282199  1
  O  O124  1  0.27202828  0.86367911  0.08234885  1
  O  O125  1  0.77340411  0.86034441  0.08199221  1
  O  O126  1  0.15477629  0.84301037  0.57738612  1
  O  O127  1  0.67955954  0.87082979  0.57770238  1
  O  O128  1  0.25112685  0.66223047  0.58273819  1
  O  O129  1  0.76663183  0.69473760  0.57775215  1
  O  O130  1  0.07465328  0.47315578  0.57826596  1
  O  O131  1  0.56664500  0.47179703  0.58180871  1
  O  O132  1  0.14290442  0.82607529  0.24669860  1
  O  O133  1  0.64740863  0.84613194  0.24566839  1
  O  O134  1  0.26953740  0.71692288  0.24695392  1
  O  O135  1  0.76761516  0.71243588  0.24829425  1
  O  O136  1  0.08366341  0.45935373  0.24524751  1
  O  O137  1  0.58542393  0.46561995  0.24574114  1
  O  O138  1  0.14351271  0.46865608  0.74593612  1
  O  O139  1  0.66617993  0.48313711  0.75171834  1
  O  O140  1  0.07391193  0.68923443  0.74457467  1
  O  O141  1  0.57623871  0.69337675  0.75398943  1
  O  O142  1  0.26752729  0.84524034  0.75089814  1
  O  O143  1  0.76434145  0.83520452  0.74350187  1
loop_
_geom_bond_atom_site_label_1
_geom_bond_atom_site_label_2
_geom_bond_distance
_geom_bond_site_symmetry_2
Na0 O104 2.494234 1_555
Na0 O134 2.495603 1_545
Na0 O106 2.604546 1_555
Na0 O32 2.719010 1_555
Na1 O135 2.444514 1_545
Na1 O105 2.536736 1_555
Na1 O107 2.762567 1_555
Na1 O33 2.778986 1_555
Na1 O5 2.910016 1_555
Na1 O133 2.980872 1_545
Na1 O63 3.062433 1_545
Na2 O102 2.535214 1_555
Na2 O136 2.593733 1_555
Na2 O106 2.593898 1_555
Na2 O34 2.822524 1_555
Na3 O103 2.447911 1_555
Na3 O35 2.452470 1_555
Na3 O137 2.479942 1_555
Na3 O135 2.775964 1_555
Na3 O107 2.813361 1_555
Na4 O31 2.357240 1_555
Na4 O132 2.514451 1_655
Na4 O103 2.672700 1_555
Na4 O105 2.673133 1_555
Na4 O136 2.909740 1_655
Na5 O30 2.570341 1_555
Na5 O104 2.571656 1_555
Na5 O102 2.635420 1_555
Na5 O133 2.667419 1_555
Na5 O61 2.813631 1_555
Na5 O137 2.824950 1_555
Na6 O98 2.324491 1_555
Na6 O142 2.680183 1_555
Na6 O138 2.736207 1_555
Na6 O100 2.762351 1_555
Na6 O70 2.789995 1_555
Na6 O28 2.827346 1_555
Na7 O139 2.393744 1_555
Na7 O29 2.523461 1_555
Na7 O143 2.579491 1_555
Na7 O99 2.587520 1_555
Na7 O101 2.692726 1_555
Na8 O138 2.480000 1_655
Na8 O97 2.525987 1_555
Na8 O25 2.600669 1_555
Na9 O99 2.488108 1_555
Na9 O97 2.533425 1_555
Na9 O143 2.755826 1_545
Na9 O69 2.775888 1_545
Na9 O141 2.785426 1_545
Na9 O27 3.013370 1_555
Na10 O130 2.540040 1_555
Na10 O128 2.657169 1_555
Na10 O86 2.739019 1_555
Na10 O42 2.744898 1_555
Na10 O85 2.781616 1_455
Na11 O126 2.413447 1_555
Na11 O89 2.535160 1_455
Na11 O86 2.668888 1_565
Na11 O45 2.724450 1_455
Na11 O16 2.792758 1_555
Na12 O88 2.399559 1_555
Na12 O128 2.486299 1_555
Na12 O84 2.671832 1_565
Na12 O12 2.833275 1_555
Na12 O26 2.872692 1_565
Na12 O126 2.957888 1_555
Na13 O129 2.313495 1_555
Na13 O127 2.641949 1_555
Na13 O85 2.677055 1_565
Na13 O89 2.683866 1_555
Na13 O47 2.731963 1_565
Na13 O13 2.966064 1_555
Na13 O55 3.019676 1_555
Na14 O125 2.482370 1_555
Na14 O39 2.585645 1_555
Na14 O121 2.648580 1_555
Na14 O49 2.715891 1_554
Na14 O91 2.741403 1_555
Na14 O93 2.795584 1_565
Na15 O108 2.426526 1_555
Na15 O80 2.544931 1_555
Na15 O78 2.597366 1_555
Na15 O112 2.643023 1_555
Na15 O6 2.693790 1_555
Na16 O109 2.407678 1_555
Na16 O81 2.595762 1_555
Na16 O113 2.621768 1_555
Na16 O79 2.696011 1_555
Na16 O7 2.846771 1_555
Na16 O37 2.973664 1_556
Na17 O73 2.333914 1_555
Na17 O118 2.371603 1_555
Na17 O116 2.627028 1_555
Na17 O74 2.657832 1_555
Na17 O44 2.829103 1_555
Na17 O2 2.923979 1_555
Na18 O72 2.667856 1_555
Na18 O75 2.734447 1_455
Na18 O76 2.758722 1_565
Na18 O89 2.850620 1_455
Na18 O85 2.935056 1_465
Na18 O86 2.977774 1_565
Na19 O73 2.351680 1_555
Na19 O87 2.624433 1_565
Na19 O88 2.639750 1_555
Na19 O77 2.855798 1_565
Na19 O74 2.935537 1_555
Na20 O83 2.422271 1_555
Na20 O91 2.677192 1_556
Na20 O93 2.769402 1_566
Na20 O80 2.818072 1_665
Na20 O78 2.940982 1_665
Na20 O94 3.010414 1_666
Na21 O82 2.594387 1_554
Na21 O90 2.670784 1_555
Na21 O92 2.785216 1_565
Na21 O81 2.808535 1_564
Na22 O108 2.563188 1_555
Na22 O112 2.654591 1_555
Na22 O110 2.796406 1_555
Na22 O98 2.865466 1_555
Na22 O96 2.872918 1_555
Na22 O100 2.903467 1_555
Na23 O109 2.507441 1_555
Na23 O99 2.558668 1_555
Na23 O113 2.611236 1_555
Na23 O111 2.864211 1_555
Na24 O118 2.494922 1_555
Na24 O104 2.712687 1_555
Na24 O114 2.783573 1_555
Na24 O116 2.866371 1_555
Na24 O102 2.930043 1_555
Na24 O106 3.040918 1_555
Na25 O119 2.628577 1_555
Na25 O105 2.736005 1_555
Na25 O103 2.745324 1_555
Na25 O117 2.830473 1_555
Na25 O115 2.852802 1_555
Na26 O122 2.596669 1_555
Na26 O136 2.607225 1_555
Na26 O132 2.613130 1_555
Na26 O134 2.817977 1_555
Na26 O120 2.870151 1_555
Na26 O124 2.902965 1_555
Na27 O121 2.446353 1_555
Na27 O123 2.502400 1_555
Na27 O137 2.561057 1_555
Na27 O125 2.940752 1_555
Na27 O135 2.940942 1_555
Na27 O133 2.950112 1_555
Na28 O128 2.530949 1_555
Na28 O138 2.643190 1_555
Na28 O130 2.678733 1_555
Na28 O140 2.753387 1_555
Na28 O126 2.773542 1_555
Na28 O142 2.887285 1_555
Na29 O139 2.435644 1_555
Na29 O143 2.583335 1_555
Na29 O129 2.751844 1_555
Na29 O131 2.820371 1_555
Na29 O141 2.977240 1_555
La0 O5 2.226612 1_565
La0 O3 2.231990 1_555
La0 O0 2.243841 1_665
La0 O75 2.541633 1_555
La0 O72 2.548523 1_655
La0 O76 2.548637 1_665
La1 O4 2.246779 1_565
La1 O2 2.259077 1_555
La1 O73 2.368470 1_555
La1 O1 2.399878 1_565
La1 O74 2.491324 1_555
La1 O77 2.499966 1_565
La2 O11 2.208333 1_565
La2 O83 2.304870 1_555
La2 O6 2.357648 1_665
La2 O9 2.414015 1_555
La2 O78 2.502631 1_665
La2 O80 2.567020 1_665
La3 O82 2.284992 1_555
La3 O7 2.291752 1_565
La3 O10 2.395095 1_565
La3 O8 2.395665 1_555
La3 O79 2.433071 1_565
La3 O81 2.467611 1_565
La4 O15 2.197926 1_555
La4 O88 2.354433 1_545
La4 O17 2.396504 1_545
La4 O84 2.431320 1_555
La4 O87 2.446247 1_555
La4 O12 2.466679 1_545
La5 O26 2.223307 1_555
La5 O28 2.278799 1_555
La5 O98 2.312928 1_555
La5 O24 2.463234 1_555
La5 O96 2.555765 1_555
La5 O100 2.560769 1_555
La6 O29 2.281326 1_555
La6 O25 2.333379 1_555
La6 O99 2.367472 1_555
La6 O97 2.381166 1_555
La6 O27 2.415432 1_555
La6 O101 2.500395 1_555
La7 O30 2.231627 1_555
La7 O102 2.338320 1_555
La7 O104 2.360862 1_555
La7 O106 2.386119 1_555
La7 O34 2.463256 1_555
La7 O32 2.478754 1_555
La8 O31 2.247432 1_555
La8 O35 2.255544 1_555
La8 O105 2.390674 1_555
La8 O103 2.391794 1_555
La8 O33 2.479659 1_555
La8 O107 2.584991 1_555
La9 O38 2.187042 1_556
La9 O108 2.275595 1_555
La9 O110 2.490709 1_555
La9 O36 2.557292 1_556
La9 O40 2.667691 1_556
La9 O112 2.671794 1_555
La10 O109 2.284375 1_555
La10 O39 2.284715 1_556
La10 O37 2.295690 1_556
La10 O111 2.600726 1_555
La10 O41 2.627303 1_556
La10 O113 2.639409 1_555
La11 O44 2.256230 1_555
La11 O118 2.352046 1_555
La11 O42 2.386461 1_555
La11 O46 2.417277 1_555
La11 O116 2.502900 1_555
La11 O114 2.579069 1_555
La12 O45 2.276141 1_555
La12 O47 2.300011 1_555
La12 O43 2.425167 1_555
La12 O119 2.447886 1_555
La12 O117 2.524747 1_555
La12 O115 2.576271 1_555
La13 O48 2.228834 1_554
La13 O122 2.300642 1_555
La13 O50 2.414404 1_554
La13 O52 2.423415 1_554
La13 O124 2.459508 1_555
La13 O120 2.498493 1_555
La14 O123 2.287086 1_555
La14 O49 2.308618 1_554
La14 O121 2.316660 1_555
La14 O51 2.407857 1_554
La14 O53 2.484916 1_554
La14 O125 2.511876 1_555
La15 O130 2.294607 1_555
La15 O126 2.301335 1_555
La15 O128 2.303652 1_555
La15 O54 2.410750 1_555
La15 O56 2.419290 1_555
La15 O58 2.421809 1_555
La16 O59 2.183855 1_555
La16 O57 2.364136 1_555
La16 O55 2.422296 1_555
La16 O131 2.447587 1_555
La16 O129 2.452262 1_555
La16 O127 2.455882 1_555
La17 O134 2.320516 1_555
La17 O132 2.325005 1_555
La17 O136 2.347814 1_555
La17 O60 2.481603 1_555
La17 O64 2.484000 1_555
La17 O62 2.488859 1_555
La18 O61 2.235801 1_555
La18 O137 2.384320 1_555
La18 O65 2.432594 1_555
La18 O135 2.482735 1_555
La18 O63 2.538275 1_555
La18 O133 2.619089 1_555
La19 O70 2.211834 1_555
La19 O66 2.397173 1_555
La19 O138 2.432986 1_555
La19 O142 2.455660 1_555
La19 O68 2.459429 1_555
La19 O140 2.638207 1_555
La20 O71 2.189051 1_555
La20 O139 2.294976 1_555
La20 O143 2.440202 1_555
La20 O67 2.473049 1_555
La20 O69 2.553836 1_555
La20 O141 2.561449 1_555
O0 Si0 1.607987 1_555
O1 S0 1.471756 1_545
O2 Si1 1.628419 1_555
O3 Si2 1.610912 1_555
O4 Si4 1.617392 1_555
O5 Si3 1.615125 1_555
O6 Si5 1.619387 1_555
O7 Si6 1.646336 1_555
O8 S2 1.484982 1_555
O9 S1 1.470091 1_655
O10 S3 1.479994 1_545
O11 Si7 1.616541 1_555
O12 S3 1.495285 1_555
O13 Si7 1.705800 1_565
O13 Ta0 1.948999 1_665
O14 Si5 1.722243 1_555
O14 Ta0 1.964691 1_555
O15 Si6 1.643872 1_555
O16 S1 1.507606 1_555
O16 Ta0 2.334940 1_565
O17 S2 1.487726 1_555
O18 Si1 1.690864 1_555
O18 Ta2 1.978435 1_565
O19 Si2 1.734350 1_555
O19 Ta1 1.910172 1_555
O20 Si3 1.702265 1_455
O20 Ta1 1.953306 1_445
O21 Si4 1.688704 1_555
O21 Ta2 1.958309 1_555
O22 Si0 1.717976 1_565
O22 Ta1 1.881506 1_455
O23 S0 1.503830 1_555
O23 Ta2 2.244537 1_565
O24 S4 1.474851 1_555
O25 Si8 1.618512 1_555
O26 Si9 1.627233 1_555
O27 S5 1.488943 1_555
O28 Si10 1.651759 1_555
O29 Si11 1.628746 1_555
O30 Si12 1.628130 1_555
O31 Si13 1.633862 1_555
O32 S6 1.473709 1_555
O33 S7 1.482334 1_555
O34 S8 1.482157 1_555
O35 Si14 1.637941 1_555
O36 S8 1.491370 1_555
O37 Si14 1.644875 1_555
O38 Si12 1.656547 1_555
O39 Si13 1.652046 1_555
O40 S6 1.471023 1_555
O41 S7 1.471762 1_555
O42 Si9 1.630256 1_555
O43 S5 1.480082 1_555
O44 Si10 1.643623 1_555
O45 Si11 1.656555 1_555
O46 S4 1.485960 1_555
O47 Si8 1.633802 1_555
O48 Si15 1.631278 1_555
O49 Si16 1.639816 1_555
O50 S9 1.477985 1_555
O51 S10 1.474506 1_555
O52 S11 1.475557 1_555
O53 S12 1.468523 1_555
O54 S13 1.496882 1_555
O55 S14 1.491932 1_555
O56 S15 1.488227 1_555
O57 S16 1.481126 1_555
O58 S17 1.489194 1_555
O59 Si17 1.643592 1_555
O60 S17 1.483814 1_555
O61 Si17 1.667852 1_555
O62 S13 1.490759 1_555
O63 S14 1.495645 1_555
O64 S15 1.496754 1_555
O65 S16 1.494765 1_555
O66 S9 1.499044 1_555
O67 S10 1.482202 1_555
O68 S11 1.487880 1_555
O69 S12 1.496459 1_555
O70 Si15 1.680003 1_555
O71 Si16 1.665906 1_555
O72 S17 1.478928 1_555
O73 Si17 1.656873 1_555
O74 S13 1.488366 1_555
O75 S14 1.488703 1_555
O76 S15 1.473653 1_555
O77 S16 1.481031 1_555
O78 S9 1.499182 1_555
O79 S10 1.496937 1_555
O80 S11 1.498354 1_545
O81 S12 1.504802 1_545
O82 Si15 1.637928 1_555
O83 Si16 1.639196 1_555
O84 S4 1.492151 1_555
O85 Si8 1.700529 1_555
O85 Ta0 1.925123 1_655
O86 Si9 1.684934 1_555
O86 Ta0 1.986524 1_555
O87 S5 1.478636 1_555
O88 Si10 1.647385 1_555
O89 Si11 1.706172 1_555
O89 Ta0 2.015685 1_665
O90 Si12 1.685345 1_555
O90 Ta2 1.941377 1_565
O91 Si13 1.699435 1_555
O91 Ta1 1.971074 1_555
O92 S6 1.532018 1_555
O92 Ta2 2.074542 1_555
O93 S7 1.519379 1_555
O93 Ta1 2.274893 1_545
O94 S8 1.507211 1_555
O94 Ta1 2.262650 1_445
O95 Si14 1.681263 1_555
O95 Ta2 1.942590 1_555
O96 S3 1.471763 1_545
O97 Si7 1.633923 1_555
O98 Si5 1.643454 1_555
O99 Si6 1.669161 1_555
O100 S2 1.485566 1_555
O101 S1 1.492786 1_655
O102 Si1 1.643362 1_555
O103 Si2 1.641875 1_555
O104 Si4 1.642990 1_555
O105 Si3 1.642491 1_555
O106 Si0 1.624683 1_555
O107 S0 1.483833 1_545
O108 Si15 1.674012 1_555
O109 Si16 1.671887 1_555
O110 S10 1.485675 1_555
O111 S9 1.472553 1_655
O112 S11 1.494783 1_545
O113 S12 1.491281 1_545
O114 S13 1.473288 1_545
O115 S14 1.490570 1_545
O116 S15 1.491101 1_555
O117 S16 1.488256 1_555
O118 Si17 1.663242 1_555
O119 S17 1.497936 1_655
O120 S8 1.481310 1_555
O121 Si14 1.641373 1_555
O122 Si13 1.624136 1_455
O123 Si12 1.621001 1_555
O124 S6 1.475507 1_565
O125 S7 1.485365 1_565
O126 Si9 1.643305 1_565
O127 S5 1.483589 1_565
O128 Si10 1.670348 1_555
O129 Si11 1.632462 1_555
O130 Si8 1.624142 1_455
O131 S4 1.481618 1_555
O132 Si0 1.646606 1_565
O133 S0 1.494003 1_555
O134 Si1 1.656280 1_555
O135 Si2 1.642169 1_555
O136 Si3 1.652761 1_455
O137 Si4 1.658171 1_555
O138 Si5 1.677381 1_555
O139 Si6 1.649502 1_555
O140 S1 1.484979 1_555
O141 S2 1.479495 1_555
O142 S3 1.499738 1_555
O143 Si7 1.643086 1_565
