# generated using pymatgen
data_MgVBr2O
_symmetry_space_group_name_H-M   'P 1'
_cell_length_a   4.23354695
_cell_length_b   3.82560607
_cell_length_c   7.73314464
_cell_angle_alpha   104.42927708
_cell_angle_beta   112.00062625
_cell_angle_gamma   89.95582707
_symmetry_Int_Tables_number   1
_chemical_formula_structural   MgVBr2O
_chemical_formula_sum   'Mg1 V1 Br2 O1'
_cell_volume   111.86236221
_cell_formula_units_Z   1
loop_
 _symmetry_equiv_pos_site_id
 _symmetry_equiv_pos_as_xyz
  1  'x, y, z'
loop_
 _atom_site_type_symbol
 _atom_site_label
 _atom_site_symmetry_multiplicity
 _atom_site_fract_x
 _atom_site_fract_y
 _atom_site_fract_z
 _atom_site_occupancy
  Mg  Mg0  1  0.16915900  0.67040500  0.33288700  1
  V  V0  1  0.00436400  0.98411300  0.96733100  1
  Br  Br0  1  0.36545900  0.84911400  0.70213500  1
  Br  Br1  1  0.64639900  0.16416400  0.32497400  1
  O  O0  1  0.01104900  0.52863200  0.05600800  1
loop_
_geom_bond_atom_site_label_1
_geom_bond_atom_site_label_2
_geom_bond_distance
_geom_bond_site_symmetry_2
Mg0 O0 1.916955 1_555
Br0 Mg0 2.561573 1_555
Br0 V0 2.665875 1_655
Br0 V0 2.937569 1_555
Br1 Mg0 2.794638 1_545
Br1 Mg0 2.804299 1_555
Br1 Mg0 2.901625 1_645
Br1 Mg0 2.915217 1_655
Br1 V0 2.988769 1_544
O0 V0 2.020904 1_544
O0 V0 2.021936 1_554
