# generated using pymatgen
data_Bi6Br7
_symmetry_space_group_name_H-M   'P 1'
_cell_length_a   9.19429800
_cell_length_b   16.01728200
_cell_length_c   24.46221700
_cell_angle_alpha   90.00000000
_cell_angle_beta   90.00000000
_cell_angle_gamma   90.00000000
_symmetry_Int_Tables_number   1
_chemical_formula_structural   Bi6Br7
_chemical_formula_sum   'Bi48 Br56'
_cell_volume   3602.49355038
_cell_formula_units_Z   8
loop_
 _symmetry_equiv_pos_site_id
 _symmetry_equiv_pos_as_xyz
  1  'x, y, z'
loop_
 _atom_site_type_symbol
 _atom_site_label
 _atom_site_symmetry_multiplicity
 _atom_site_fract_x
 _atom_site_fract_y
 _atom_site_fract_z
 _atom_site_occupancy
  Bi  Bi0  1  0.82135300  0.83447700  0.80512000  1
  Bi  Bi1  1  0.82135300  0.16552300  0.19488000  1
  Bi  Bi2  1  0.67864700  0.33447700  0.69488000  1
  Bi  Bi3  1  0.67864700  0.66552300  0.30512000  1
  Bi  Bi4  1  0.17864700  0.16552300  0.19488000  1
  Bi  Bi5  1  0.17864700  0.83447700  0.80512000  1
  Bi  Bi6  1  0.32135300  0.66552300  0.30512000  1
  Bi  Bi7  1  0.32135300  0.33447700  0.69488000  1
  Bi  Bi8  1  0.81665700  0.78190000  0.95044800  1
  Bi  Bi9  1  0.81665700  0.21810000  0.04955200  1
  Bi  Bi10  1  0.68334300  0.28190000  0.54955200  1
  Bi  Bi11  1  0.68334300  0.71810000  0.45044800  1
  Bi  Bi12  1  0.18334300  0.21810000  0.04955200  1
  Bi  Bi13  1  0.18334300  0.78190000  0.95044800  1
  Bi  Bi14  1  0.31665700  0.71810000  0.45044800  1
  Bi  Bi15  1  0.31665700  0.28190000  0.54955200  1
  Bi  Bi16  1  0.74458200  0.65635400  0.85156400  1
  Bi  Bi17  1  0.74458200  0.34364600  0.14843600  1
  Bi  Bi18  1  0.75541800  0.15635400  0.64843600  1
  Bi  Bi19  1  0.75541800  0.84364600  0.35156400  1
  Bi  Bi20  1  0.25541800  0.34364600  0.14843600  1
  Bi  Bi21  1  0.25541800  0.65635400  0.85156400  1
  Bi  Bi22  1  0.24458200  0.84364600  0.35156400  1
  Bi  Bi23  1  0.24458200  0.15635400  0.64843600  1
  Bi  Bi24  1  0.00000000  0.61450900  0.93278800  1
  Bi  Bi25  1  0.00000000  0.38549100  0.06721200  1
  Bi  Bi26  1  0.50000000  0.11450900  0.56721200  1
  Bi  Bi27  1  0.50000000  0.88549100  0.43278800  1
  Bi  Bi28  1  0.00000000  0.92560500  0.89860200  1
  Bi  Bi29  1  0.00000000  0.07439500  0.10139800  1
  Bi  Bi30  1  0.50000000  0.42560500  0.60139800  1
  Bi  Bi31  1  0.50000000  0.57439500  0.39860200  1
  Bi  Bi32  1  0.00000000  0.67212300  0.76694400  1
  Bi  Bi33  1  0.00000000  0.32787700  0.23305600  1
  Bi  Bi34  1  0.50000000  0.17212300  0.73305600  1
  Bi  Bi35  1  0.50000000  0.82787700  0.26694400  1
  Bi  Bi36  1  0.00000000  0.90369100  0.59922200  1
  Bi  Bi37  1  0.00000000  0.09630900  0.40077800  1
  Bi  Bi38  1  0.50000000  0.40369100  0.90077800  1
  Bi  Bi39  1  0.50000000  0.59630900  0.09922200  1
  Bi  Bi40  1  0.00000000  0.32167200  0.85566200  1
  Bi  Bi41  1  0.00000000  0.67832800  0.14433800  1
  Bi  Bi42  1  0.50000000  0.82167200  0.64433800  1
  Bi  Bi43  1  0.50000000  0.17832800  0.35566200  1
  Bi  Bi44  1  0.00000000  0.54431500  0.58764900  1
  Bi  Bi45  1  0.00000000  0.45568500  0.41235100  1
  Bi  Bi46  1  0.50000000  0.04431500  0.91235100  1
  Bi  Bi47  1  0.50000000  0.95568500  0.08764900  1
  Br  Br0  1  0.80889600  0.79166300  0.66930800  1
  Br  Br1  1  0.80889600  0.20833700  0.33069200  1
  Br  Br2  1  0.69110400  0.29166300  0.83069200  1
  Br  Br3  1  0.69110400  0.70833700  0.16930800  1
  Br  Br4  1  0.19110400  0.20833700  0.33069200  1
  Br  Br5  1  0.19110400  0.79166300  0.66930800  1
  Br  Br6  1  0.30889600  0.70833700  0.16930800  1
  Br  Br7  1  0.30889600  0.29166300  0.83069200  1
  Br  Br8  1  0.77713400  0.55421000  0.66410700  1
  Br  Br9  1  0.77713400  0.44579000  0.33589300  1
  Br  Br10  1  0.72286600  0.05421000  0.83589300  1
  Br  Br11  1  0.72286600  0.94579000  0.16410700  1
  Br  Br12  1  0.22286600  0.44579000  0.33589300  1
  Br  Br13  1  0.22286600  0.55421000  0.66410700  1
  Br  Br14  1  0.27713400  0.94579000  0.16410700  1
  Br  Br15  1  0.27713400  0.05421000  0.83589300  1
  Br  Br16  1  0.69330900  0.91943600  0.56048400  1
  Br  Br17  1  0.69330900  0.08056400  0.43951600  1
  Br  Br18  1  0.80669100  0.41943600  0.93951600  1
  Br  Br19  1  0.80669100  0.58056400  0.06048400  1
  Br  Br20  1  0.30669100  0.08056400  0.43951600  1
  Br  Br21  1  0.30669100  0.91943600  0.56048400  1
  Br  Br22  1  0.19330900  0.58056400  0.06048400  1
  Br  Br23  1  0.19330900  0.41943600  0.93951600  1
  Br  Br24  1  0.72382200  0.00000000  0.00000000  1
  Br  Br25  1  0.77617800  0.50000000  0.50000000  1
  Br  Br26  1  0.27617800  0.00000000  0.00000000  1
  Br  Br27  1  0.22382200  0.50000000  0.50000000  1
  Br  Br28  1  0.00000000  0.07804400  0.55636700  1
  Br  Br29  1  0.00000000  0.92195600  0.44363300  1
  Br  Br30  1  0.50000000  0.57804400  0.94363300  1
  Br  Br31  1  0.50000000  0.42195600  0.05636700  1
  Br  Br32  1  0.00000000  0.36797400  0.60856400  1
  Br  Br33  1  0.00000000  0.63202600  0.39143600  1
  Br  Br34  1  0.50000000  0.86797400  0.89143600  1
  Br  Br35  1  0.50000000  0.13202600  0.10856400  1
  Br  Br36  1  0.00000000  0.22333000  0.75553900  1
  Br  Br37  1  0.00000000  0.77667000  0.24446100  1
  Br  Br38  1  0.50000000  0.72333000  0.74446100  1
  Br  Br39  1  0.50000000  0.27667000  0.25553900  1
  Br  Br40  1  0.00000000  0.18040100  0.93919300  1
  Br  Br41  1  0.00000000  0.81959900  0.06080700  1
  Br  Br42  1  0.50000000  0.68040100  0.56080700  1
  Br  Br43  1  0.50000000  0.31959900  0.43919300  1
  Br  Br44  1  0.00000000  0.99446300  0.69600400  1
  Br  Br45  1  0.00000000  0.00553700  0.30399600  1
  Br  Br46  1  0.50000000  0.49446300  0.80399600  1
  Br  Br47  1  0.50000000  0.50553700  0.19600400  1
  Br  Br48  1  0.00000000  0.71910300  0.54023000  1
  Br  Br49  1  0.00000000  0.28089700  0.45977000  1
  Br  Br50  1  0.50000000  0.21910300  0.95977000  1
  Br  Br51  1  0.50000000  0.78089700  0.04023000  1
  Br  Br52  1  0.00000000  0.46069000  0.78904600  1
  Br  Br53  1  0.00000000  0.53931000  0.21095400  1
  Br  Br54  1  0.50000000  0.96069000  0.71095400  1
  Br  Br55  1  0.50000000  0.03931000  0.28904600  1
loop_
_geom_bond_atom_site_label_1
_geom_bond_atom_site_label_2
_geom_bond_distance
_geom_bond_site_symmetry_2
Bi0 Bi16 3.151013 1_555
Bi0 Bi28 3.171398 1_655
Bi0 Bi32 3.214416 1_655
Bi0 Bi5 3.285068 1_655
Bi0 Br0 3.394233 1_555
Bi1 Bi17 3.151013 1_555
Bi1 Bi29 3.171398 1_655
Bi1 Bi33 3.214416 1_655
Bi1 Bi4 3.285068 1_655
Bi1 Br1 3.394233 1_555
Bi2 Bi30 3.171398 1_555
Bi2 Bi34 3.214416 1_555
Bi2 Bi7 3.285068 1_555
Bi2 Br2 3.394233 1_555
Bi3 Bi31 3.171398 1_555
Bi3 Bi35 3.214416 1_555
Bi3 Bi6 3.285068 1_555
Bi3 Br3 3.394233 1_555
Bi4 Br4 3.394233 1_555
Bi5 Br5 3.394233 1_555
Bi6 Br6 3.394233 1_555
Bi7 Br7 3.394233 1_555
Bi8 Br41 3.239478 1_656
Bi9 Br40 3.239478 1_654
Bi10 Bi30 3.122217 1_555
Bi10 Bi26 3.196374 1_555
Bi10 Bi18 3.214665 1_555
Bi10 Br43 3.239478 1_555
Bi11 Bi31 3.122217 1_555
Bi11 Bi27 3.196374 1_555
Bi11 Bi19 3.214665 1_555
Bi11 Br42 3.239478 1_555
Bi12 Bi29 3.122217 1_555
Bi12 Bi25 3.196374 1_555
Bi12 Bi20 3.214665 1_555
Bi12 Br40 3.239478 1_554
Bi13 Bi28 3.122217 1_555
Bi13 Bi24 3.196374 1_555
Bi13 Bi21 3.214665 1_555
Bi13 Br41 3.239478 1_556
Bi14 Bi31 3.122217 1_555
Bi14 Bi27 3.196374 1_555
Bi14 Bi22 3.214665 1_555
Bi14 Br42 3.239478 1_555
Bi15 Bi30 3.122217 1_555
Bi15 Bi26 3.196374 1_555
Bi15 Bi23 3.214665 1_555
Bi15 Br43 3.239478 1_555
Bi16 Bi32 3.140636 1_655
Bi16 Bi24 3.148334 1_655
Bi16 Bi8 3.214665 1_555
Bi16 Br30 3.420918 1_555
Bi17 Bi33 3.140636 1_655
Bi17 Bi25 3.148334 1_655
Bi17 Bi9 3.214665 1_555
Bi17 Br31 3.420918 1_555
Bi18 Bi34 3.140636 1_555
Bi18 Bi26 3.148334 1_555
Bi18 Bi2 3.151013 1_555
Bi18 Br28 3.420918 1_655
Bi19 Bi35 3.140636 1_555
Bi19 Bi27 3.148334 1_555
Bi19 Bi3 3.151013 1_555
Bi19 Br29 3.420918 1_655
Bi20 Bi33 3.140636 1_555
Bi20 Bi25 3.148334 1_555
Bi20 Bi4 3.151013 1_555
Bi20 Br31 3.420918 1_555
Bi21 Bi32 3.140636 1_555
Bi21 Bi24 3.148334 1_555
Bi21 Bi5 3.151013 1_555
Bi21 Br30 3.420918 1_555
Bi22 Bi35 3.140636 1_555
Bi22 Bi27 3.148334 1_555
Bi22 Bi6 3.151013 1_555
Bi22 Br29 3.420918 1_555
Bi23 Bi34 3.140636 1_555
Bi23 Bi26 3.148334 1_555
Bi23 Bi7 3.151013 1_555
Bi23 Br28 3.420918 1_555
Bi24 Bi8 3.196374 1_455
Bi25 Bi9 3.196374 1_455
Bi28 Bi8 3.122217 1_455
Bi28 Bi5 3.171398 1_555
Bi29 Bi9 3.122217 1_455
Bi29 Bi4 3.171398 1_555
Bi30 Bi7 3.171398 1_555
Bi31 Bi6 3.171398 1_555
Bi32 Bi5 3.214416 1_555
Bi33 Bi4 3.214416 1_555
Bi34 Bi7 3.214416 1_555
Bi35 Bi6 3.214416 1_555
Bi36 Br44 2.778300 1_555
Bi36 Br28 2.982943 1_565
Bi36 Br21 2.985448 1_555
Bi36 Br16 2.985448 1_455
Bi36 Br5 3.040801 1_555
Bi36 Br0 3.040801 1_455
Bi36 Br48 3.289975 1_555
Bi37 Br45 2.778300 1_555
Bi37 Br29 2.982943 1_545
Bi37 Br20 2.985448 1_555
Bi37 Br17 2.985448 1_455
Bi37 Br1 3.040801 1_455
Bi37 Br4 3.040801 1_555
Bi37 Br49 3.289975 1_555
Bi38 Br46 2.778300 1_555
Bi38 Br30 2.982943 1_555
Bi38 Br23 2.985448 1_555
Bi38 Br18 2.985448 1_555
Bi38 Br7 3.040801 1_555
Bi38 Br2 3.040801 1_555
Bi38 Br50 3.289975 1_555
Bi39 Br47 2.778300 1_555
Bi39 Br31 2.982943 1_555
Bi39 Br22 2.985448 1_555
Bi39 Br19 2.985448 1_555
Bi39 Br6 3.040801 1_555
Bi39 Br3 3.040801 1_555
Bi39 Br51 3.289975 1_555
Bi40 Br52 2.759287 1_555
Bi40 Br36 2.912026 1_555
Bi40 Br2 2.944521 1_455
Bi40 Br7 2.944521 1_555
Bi40 Br40 3.048845 1_555
Bi40 Br18 3.133476 1_455
Bi40 Br23 3.133476 1_555
Bi41 Br53 2.759287 1_555
Bi41 Br37 2.912026 1_555
Bi41 Br3 2.944521 1_455
Bi41 Br6 2.944521 1_555
Bi41 Br41 3.048845 1_555
Bi41 Br19 3.133476 1_455
Bi41 Br22 3.133476 1_555
Bi42 Br54 2.759287 1_555
Bi42 Br38 2.912026 1_555
Bi42 Br5 2.944521 1_555
Bi42 Br0 2.944521 1_555
Bi42 Br42 3.048845 1_555
Bi42 Br16 3.133476 1_555
Bi42 Br21 3.133476 1_555
Bi43 Br55 2.759287 1_555
Bi43 Br39 2.912026 1_555
Bi43 Br1 2.944521 1_555
Bi43 Br4 2.944521 1_555
Bi43 Br43 3.048845 1_555
Bi43 Br20 3.133476 1_555
Bi43 Br17 3.133476 1_555
Bi44 Br13 2.778859 1_555
Bi44 Br8 2.778859 1_455
Bi44 Br32 2.870467 1_555
Bi44 Br48 3.030422 1_555
Bi44 Br25 3.055460 1_455
Bi44 Br27 3.055460 1_555
Bi45 Br12 2.778859 1_555
Bi45 Br9 2.778859 1_455
Bi45 Br33 2.870467 1_555
Bi45 Br49 3.030422 1_555
Bi45 Br25 3.055460 1_455
Bi45 Br27 3.055460 1_555
Bi46 Br15 2.778859 1_555
Bi46 Br10 2.778859 1_555
Bi46 Br34 2.870467 1_545
Bi46 Br50 3.030422 1_555
Bi46 Br24 3.055460 1_556
Bi46 Br26 3.055460 1_556
Bi47 Br14 2.778859 1_555
Bi47 Br11 2.778859 1_555
Bi47 Br35 2.870467 1_565
Bi47 Br51 3.030422 1_555
Bi47 Br24 3.055460 1_565
Bi47 Br26 3.055460 1_565
