# generated using pymatgen
data_Ba2SmMgNbO6
_symmetry_space_group_name_H-M   'P 1'
_cell_length_a   6.39042443
_cell_length_b   6.39042421
_cell_length_c   6.35118000
_cell_angle_alpha   60.20292841
_cell_angle_beta   60.20292957
_cell_angle_gamma   56.90195938
_symmetry_Int_Tables_number   1
_chemical_formula_structural   Ba2SmMgNbO6
_chemical_formula_sum   'Ba2 Sm1 Mg1 Nb1 O6'
_cell_volume   179.24821596
_cell_formula_units_Z   1
loop_
 _symmetry_equiv_pos_site_id
 _symmetry_equiv_pos_as_xyz
  1  'x, y, z'
loop_
 _atom_site_type_symbol
 _atom_site_label
 _atom_site_symmetry_multiplicity
 _atom_site_fract_x
 _atom_site_fract_y
 _atom_site_fract_z
 _atom_site_occupancy
  Ba  Ba0  1  0.68459400  0.68459400  0.81540600  1
  Ba  Ba1  1  0.31540600  0.31540600  0.18459400  1
  Sm  Sm0  1  0.50000000  0.50000000  0.50000000  1
  Mg  Mg0  1  0.00000000  0.00000000  0.50000000  1
  Nb  Nb0  1  0.00000000  0.00000000  0.00000000  1
  O  O0  1  0.22636700  0.77363300  0.74693700  1
  O  O1  1  0.22636700  0.77363300  0.25306300  1
  O  O2  1  0.77363300  0.22636700  0.74693700  1
  O  O3  1  0.22594900  0.22594900  0.77405100  1
  O  O4  1  0.77363300  0.22636700  0.25306300  1
  O  O5  1  0.77405100  0.77405100  0.22594900  1
loop_
_geom_bond_atom_site_label_1
_geom_bond_atom_site_label_2
_geom_bond_distance
_geom_bond_site_symmetry_2
Ba0 O4 2.878808 1_556
Ba0 O1 2.878808 1_556
Ba0 O2 2.878808 1_555
Ba0 O0 2.878808 1_555
Ba0 Mg0 2.923902 1_665
Ba0 O3 3.068484 1_565
Ba0 O3 3.068484 1_655
Ba0 O5 3.282087 1_555
Ba0 O5 3.282087 1_556
Ba1 O0 2.878808 1_554
Ba1 O2 2.878808 1_554
Ba1 O1 2.878808 1_555
Ba1 O4 2.878808 1_555
Ba1 Mg0 2.923902 1_555
Ba1 O5 3.068484 1_545
Ba1 O5 3.068484 1_455
Ba1 O3 3.282087 1_555
Ba1 O3 3.282087 1_554
Mg0 O4 2.087933 1_455
Mg0 O2 2.087933 1_455
Mg0 O0 2.087933 1_545
Mg0 O1 2.087933 1_545
Nb0 O5 2.094611 1_445
Nb0 O3 2.094611 1_554
Nb0 O0 2.117314 1_544
Nb0 O1 2.117314 1_545
Nb0 O2 2.117314 1_454
Nb0 O4 2.117314 1_455
O0 Sm0 2.288154 1_555
O1 Sm0 2.288154 1_555
O2 Sm0 2.288154 1_555
O3 Sm0 2.540530 1_555
O4 Sm0 2.288154 1_555
O5 Sm0 2.540530 1_555
