# generated using pymatgen
data_MgTe2MoW2(SeS)2
_symmetry_space_group_name_H-M   'P 1'
_cell_length_a   6.67577600
_cell_length_b   6.67599805
_cell_length_c   76.54461801
_cell_angle_alpha   90.00149466
_cell_angle_beta   90.00000749
_cell_angle_gamma   119.99888260
_symmetry_Int_Tables_number   1
_chemical_formula_structural   MgTe2MoW2(SeS)2
_chemical_formula_sum   'Mg8 Te16 Mo8 W16 Se16 S16'
_cell_volume   2954.39213305
_cell_formula_units_Z   8
loop_
 _symmetry_equiv_pos_site_id
 _symmetry_equiv_pos_as_xyz
  1  'x, y, z'
loop_
 _atom_site_type_symbol
 _atom_site_label
 _atom_site_symmetry_multiplicity
 _atom_site_fract_x
 _atom_site_fract_y
 _atom_site_fract_z
 _atom_site_occupancy
  Mg  Mg0_0  1  0.49999500  0.49999000  0.22887050  1
  Mg  Mg0_1  1  0.49999500  0.49999000  0.72887050  1
  Mg  Mg0_2  1  0.49999500  0.99999000  0.22887050  1
  Mg  Mg0_3  1  0.49999500  0.99999000  0.72887050  1
  Mg  Mg0_4  1  0.99999500  0.49999000  0.22887050  1
  Mg  Mg0_5  1  0.99999500  0.49999000  0.72887050  1
  Mg  Mg0_6  1  0.99999500  0.99999000  0.22887050  1
  Mg  Mg0_7  1  0.99999500  0.99999000  0.72887050  1
  Te  Te0_0  1  0.33333700  0.16667300  0.03296650  1
  Te  Te0_1  1  0.33333700  0.16667300  0.53296650  1
  Te  Te0_2  1  0.33333700  0.66667300  0.03296650  1
  Te  Te0_3  1  0.33333700  0.66667300  0.53296650  1
  Te  Te0_4  1  0.83333700  0.16667300  0.03296650  1
  Te  Te0_5  1  0.83333700  0.16667300  0.53296650  1
  Te  Te0_6  1  0.83333700  0.66667300  0.03296650  1
  Te  Te0_7  1  0.83333700  0.66667300  0.53296650  1
  Te  Te1_0  1  0.33334550  0.16669100  0.08257000  1
  Te  Te1_1  1  0.33334550  0.16669100  0.58257000  1
  Te  Te1_2  1  0.33334550  0.66669100  0.08257000  1
  Te  Te1_3  1  0.33334550  0.66669100  0.58257000  1
  Te  Te1_4  1  0.83334550  0.16669100  0.08257000  1
  Te  Te1_5  1  0.83334550  0.16669100  0.58257000  1
  Te  Te1_6  1  0.83334550  0.66669100  0.08257000  1
  Te  Te1_7  1  0.83334550  0.66669100  0.58257000  1
  Mo  Mo0_0  1  0.16667150  0.33334150  0.05777500  1
  Mo  Mo0_1  1  0.16667150  0.33334150  0.55777500  1
  Mo  Mo0_2  1  0.16667150  0.83334150  0.05777500  1
  Mo  Mo0_3  1  0.16667150  0.83334150  0.55777500  1
  Mo  Mo0_4  1  0.66667150  0.33334150  0.05777500  1
  Mo  Mo0_5  1  0.66667150  0.33334150  0.55777500  1
  Mo  Mo0_6  1  0.66667150  0.83334150  0.05777500  1
  Mo  Mo0_7  1  0.66667150  0.83334150  0.55777500  1
  W  W0_0  1  0.16665000  0.33330100  0.29298200  1
  W  W0_1  1  0.16665000  0.33330100  0.79298200  1
  W  W0_2  1  0.16665000  0.83330100  0.29298200  1
  W  W0_3  1  0.16665000  0.83330100  0.79298200  1
  W  W0_4  1  0.66665000  0.33330100  0.29298200  1
  W  W0_5  1  0.66665000  0.33330100  0.79298200  1
  W  W0_6  1  0.66665000  0.83330100  0.29298200  1
  W  W0_7  1  0.66665000  0.83330100  0.79298200  1
  W  W1_0  1  0.33333350  0.16666850  0.16946850  1
  W  W1_1  1  0.33333350  0.16666850  0.66946850  1
  W  W1_2  1  0.33333350  0.66666850  0.16946850  1
  W  W1_3  1  0.33333350  0.66666850  0.66946850  1
  W  W1_4  1  0.83333350  0.16666850  0.16946850  1
  W  W1_5  1  0.83333350  0.16666850  0.66946850  1
  W  W1_6  1  0.83333350  0.66666850  0.16946850  1
  W  W1_7  1  0.83333350  0.66666850  0.66946850  1
  Se  Se0_0  1  0.33331050  0.16662000  0.27091900  1
  Se  Se0_1  1  0.33331050  0.16662000  0.77091900  1
  Se  Se0_2  1  0.33331050  0.66662000  0.27091900  1
  Se  Se0_3  1  0.33331050  0.66662000  0.77091900  1
  Se  Se0_4  1  0.83331050  0.16662000  0.27091900  1
  Se  Se0_5  1  0.83331050  0.16662000  0.77091900  1
  Se  Se0_6  1  0.83331050  0.66662000  0.27091900  1
  Se  Se0_7  1  0.83331050  0.66662000  0.77091900  1
  Se  Se1_0  1  0.33332250  0.16664550  0.31487000  1
  Se  Se1_1  1  0.33332250  0.16664550  0.81487000  1
  Se  Se1_2  1  0.33332250  0.66664550  0.31487000  1
  Se  Se1_3  1  0.33332250  0.66664550  0.81487000  1
  Se  Se1_4  1  0.83332250  0.16664550  0.31487000  1
  Se  Se1_5  1  0.83332250  0.16664550  0.81487000  1
  Se  Se1_6  1  0.83332250  0.66664550  0.31487000  1
  Se  Se1_7  1  0.83332250  0.66664550  0.81487000  1
  S  S0_0  1  0.16667100  0.33334300  0.18945300  1
  S  S0_1  1  0.16667100  0.33334300  0.68945300  1
  S  S0_2  1  0.16667100  0.83334300  0.18945300  1
  S  S0_3  1  0.16667100  0.83334300  0.68945300  1
  S  S0_4  1  0.66667100  0.33334300  0.18945300  1
  S  S0_5  1  0.66667100  0.33334300  0.68945300  1
  S  S0_6  1  0.66667100  0.83334300  0.18945300  1
  S  S0_7  1  0.66667100  0.83334300  0.68945300  1
  S  S1_0  1  0.16666350  0.33332700  0.14967200  1
  S  S1_1  1  0.16666350  0.33332700  0.64967200  1
  S  S1_2  1  0.16666350  0.83332700  0.14967200  1
  S  S1_3  1  0.16666350  0.83332700  0.64967200  1
  S  S1_4  1  0.66666350  0.33332700  0.14967200  1
  S  S1_5  1  0.66666350  0.33332700  0.64967200  1
  S  S1_6  1  0.66666350  0.83332700  0.14967200  1
  S  S1_7  1  0.66666350  0.83332700  0.64967200  1
loop_
_geom_bond_atom_site_label_1
_geom_bond_atom_site_label_2
_geom_bond_distance
_geom_bond_site_symmetry_2
Mg0_0 Mg0_4 3.337888 1_555
Mg0_0 Mg0_4 3.337888 1_455
Mg0_0 Mg0_2 3.337999 1_555
Mg0_0 Mg0_2 3.337999 1_545
Mg0_0 Mg0_6 3.338000 1_445
Mg0_0 Mg0_6 3.338000 1_555
Mg0_1 Mg0_5 3.337888 1_555
Mg0_1 Mg0_5 3.337888 1_455
Mg0_1 Mg0_3 3.337999 1_545
Mg0_1 Mg0_3 3.337999 1_555
Mg0_1 Mg0_7 3.338000 1_445
Mg0_1 Mg0_7 3.338000 1_555
Mg0_2 Mg0_6 3.337888 1_455
Mg0_2 Mg0_6 3.337888 1_555
Mg0_2 Mg0_4 3.338000 1_565
Mg0_2 Mg0_4 3.338000 1_455
Mg0_3 Mg0_7 3.337888 1_455
Mg0_3 Mg0_7 3.337888 1_555
Mg0_3 Mg0_5 3.338000 1_565
Mg0_3 Mg0_5 3.338000 1_455
Mg0_4 Mg0_6 3.337999 1_555
Mg0_4 Mg0_6 3.337999 1_545
Mg0_5 Mg0_7 3.337999 1_555
Mg0_5 Mg0_7 3.337999 1_545
Mo0_0 Te1_0 2.704800 1_555
Mo0_0 Te1_4 2.704807 1_455
Mo0_0 Te1_2 2.704888 1_555
Mo0_0 Te0_0 2.705523 1_555
Mo0_0 Te0_4 2.705526 1_455
Mo0_0 Te0_2 2.705620 1_555
Mo0_1 Te1_1 2.704800 1_555
Mo0_1 Te1_5 2.704807 1_455
Mo0_1 Te1_3 2.704888 1_555
Mo0_1 Te0_1 2.705523 1_555
Mo0_1 Te0_5 2.705526 1_455
Mo0_1 Te0_3 2.705620 1_555
Mo0_2 Te1_2 2.704800 1_555
Mo0_2 Te1_6 2.704807 1_455
Mo0_2 Te1_0 2.704888 1_565
Mo0_2 Te0_2 2.705523 1_555
Mo0_2 Te0_6 2.705526 1_455
Mo0_2 Te0_0 2.705620 1_565
Mo0_3 Te1_3 2.704800 1_555
Mo0_3 Te1_7 2.704807 1_455
Mo0_3 Te1_1 2.704888 1_565
Mo0_3 Te0_3 2.705523 1_555
Mo0_3 Te0_7 2.705526 1_455
Mo0_3 Te0_1 2.705620 1_565
Mo0_4 Te1_4 2.704800 1_555
Mo0_4 Te1_0 2.704807 1_555
Mo0_4 Te1_6 2.704888 1_555
Mo0_4 Te0_4 2.705523 1_555
Mo0_4 Te0_0 2.705526 1_555
Mo0_4 Te0_6 2.705620 1_555
Mo0_5 Te1_5 2.704800 1_555
Mo0_5 Te1_1 2.704807 1_555
Mo0_5 Te1_7 2.704888 1_555
Mo0_5 Te0_5 2.705523 1_555
Mo0_5 Te0_1 2.705526 1_555
Mo0_5 Te0_7 2.705620 1_555
Mo0_6 Te1_6 2.704800 1_555
Mo0_6 Te1_2 2.704807 1_555
Mo0_6 Te1_4 2.704888 1_565
Mo0_6 Te0_6 2.705523 1_555
Mo0_6 Te0_2 2.705526 1_555
Mo0_6 Te0_4 2.705620 1_565
Mo0_7 Te1_7 2.704800 1_555
Mo0_7 Te1_3 2.704807 1_555
Mo0_7 Te1_5 2.704888 1_565
Mo0_7 Te0_7 2.705523 1_555
Mo0_7 Te0_3 2.705526 1_555
Mo0_7 Te0_5 2.705620 1_565
Se0_0 W0_4 2.562423 1_555
Se0_0 W0_0 2.562432 1_555
Se0_0 W0_2 2.562440 1_545
Se0_1 W0_5 2.562423 1_555
Se0_1 W0_1 2.562432 1_555
Se0_1 W0_3 2.562440 1_545
Se0_2 W0_6 2.562423 1_555
Se0_2 W0_2 2.562432 1_555
Se0_2 W0_0 2.562440 1_555
Se0_3 W0_7 2.562423 1_555
Se0_3 W0_3 2.562432 1_555
Se0_3 W0_1 2.562440 1_555
Se0_4 W0_0 2.562423 1_655
Se0_4 W0_4 2.562432 1_555
Se0_4 W0_6 2.562440 1_545
Se0_5 W0_1 2.562423 1_655
Se0_5 W0_5 2.562432 1_555
Se0_5 W0_7 2.562440 1_545
Se0_6 W0_2 2.562423 1_655
Se0_6 W0_6 2.562432 1_555
Se0_6 W0_4 2.562440 1_555
Se0_7 W0_3 2.562423 1_655
Se0_7 W0_7 2.562432 1_555
Se0_7 W0_5 2.562440 1_555
Se1_0 W0_4 2.553601 1_555
Se1_0 W0_0 2.553602 1_555
Se1_0 W0_2 2.553666 1_545
Se1_1 W0_5 2.553601 1_555
Se1_1 W0_1 2.553602 1_555
Se1_1 W0_3 2.553666 1_545
Se1_2 W0_6 2.553601 1_555
Se1_2 W0_2 2.553602 1_555
Se1_2 W0_0 2.553666 1_555
Se1_3 W0_7 2.553601 1_555
Se1_3 W0_3 2.553602 1_555
Se1_3 W0_1 2.553666 1_555
Se1_4 W0_0 2.553601 1_655
Se1_4 W0_4 2.553602 1_555
Se1_4 W0_6 2.553666 1_545
Se1_5 W0_1 2.553601 1_655
Se1_5 W0_5 2.553602 1_555
Se1_5 W0_7 2.553666 1_545
Se1_6 W0_2 2.553601 1_655
Se1_6 W0_6 2.553602 1_555
Se1_6 W0_4 2.553666 1_555
Se1_7 W0_3 2.553601 1_655
Se1_7 W0_7 2.553602 1_555
Se1_7 W0_5 2.553666 1_555
S0_0 W1_0 2.460469 1_555
S0_0 W1_4 2.460471 1_455
S0_0 W1_2 2.460522 1_555
S0_1 W1_1 2.460469 1_555
S0_1 W1_5 2.460471 1_455
S0_1 W1_3 2.460522 1_555
S0_2 W1_2 2.460469 1_555
S0_2 W1_6 2.460471 1_455
S0_2 W1_0 2.460522 1_565
S0_3 W1_3 2.460469 1_555
S0_3 W1_7 2.460471 1_455
S0_3 W1_1 2.460522 1_565
S0_4 W1_4 2.460469 1_555
S0_4 W1_0 2.460471 1_555
S0_4 W1_6 2.460522 1_555
S0_5 W1_5 2.460469 1_555
S0_5 W1_1 2.460471 1_555
S0_5 W1_7 2.460522 1_555
S0_6 W1_6 2.460469 1_555
S0_6 W1_2 2.460471 1_555
S0_6 W1_4 2.460522 1_565
S0_7 W1_7 2.460469 1_555
S0_7 W1_3 2.460471 1_555
S0_7 W1_5 2.460522 1_565
S1_0 W1_0 2.451545 1_555
S1_0 W1_4 2.451553 1_455
S1_0 W1_2 2.451601 1_555
S1_1 W1_1 2.451545 1_555
S1_1 W1_5 2.451553 1_455
S1_1 W1_3 2.451601 1_555
S1_2 W1_2 2.451545 1_555
S1_2 W1_6 2.451553 1_455
S1_2 W1_0 2.451601 1_565
S1_3 W1_3 2.451545 1_555
S1_3 W1_7 2.451553 1_455
S1_3 W1_1 2.451601 1_565
S1_4 W1_4 2.451545 1_555
S1_4 W1_0 2.451553 1_555
S1_4 W1_6 2.451601 1_555
S1_5 W1_5 2.451545 1_555
S1_5 W1_1 2.451553 1_555
S1_5 W1_7 2.451601 1_555
S1_6 W1_6 2.451545 1_555
S1_6 W1_2 2.451553 1_555
S1_6 W1_4 2.451601 1_565
S1_7 W1_7 2.451545 1_555
S1_7 W1_3 2.451553 1_555
S1_7 W1_5 2.451601 1_565
