# generated using pymatgen
data_Tl2Te3
_symmetry_space_group_name_H-M   'P 1'
_cell_length_a   6.64435725
_cell_length_b   7.49094339
_cell_length_c   8.12297054
_cell_angle_alpha   104.56668483
_cell_angle_beta   90.00000000
_cell_angle_gamma   116.32693697
_symmetry_Int_Tables_number   1
_chemical_formula_structural   Tl2Te3
_chemical_formula_sum   'Tl4 Te6'
_cell_volume   347.80630993
_cell_formula_units_Z   2
loop_
 _symmetry_equiv_pos_site_id
 _symmetry_equiv_pos_as_xyz
  1  'x, y, z'
loop_
 _atom_site_type_symbol
 _atom_site_label
 _atom_site_symmetry_multiplicity
 _atom_site_fract_x
 _atom_site_fract_y
 _atom_site_fract_z
 _atom_site_occupancy
  Tl  Tl0  1  0.55290813  0.78442771  0.55088201  1
  Tl  Tl1  1  0.76848142  0.21557229  0.94911799  1
  Tl  Tl2  1  0.44709187  0.21557229  0.44911799  1
  Tl  Tl3  1  0.23151858  0.78442771  0.05088201  1
  Te  Te0  1  0.32703661  0.36171295  0.07318351  1
  Te  Te1  1  0.96532366  0.63828705  0.42681649  1
  Te  Te2  1  0.67296339  0.63828705  0.92681649  1
  Te  Te3  1  0.03467734  0.36171295  0.57318351  1
  Te  Te4  1  0.85785178  0.00000000  0.25000000  1
  Te  Te5  1  0.14214822  -0.00000000  0.75000000  1
loop_
_geom_bond_atom_site_label_1
_geom_bond_atom_site_label_2
_geom_bond_distance
_geom_bond_site_symmetry_2
Te0 Te2 2.829153 1_554
Te0 Te5 3.035156 1_554
Te0 Tl1 3.439296 1_454
Te0 Tl3 3.540284 1_555
Te1 Te3 2.829156 1_655
Te1 Te5 3.035155 1_665
Te1 Tl0 3.439303 1_555
Te1 Tl2 3.540281 1_555
Te2 Te4 3.035156 1_566
Te2 Tl3 3.439296 1_656
Te2 Tl1 3.540284 1_555
Te3 Te4 3.035155 1_455
Te3 Tl2 3.439296 1_555
Te3 Tl0 3.540277 1_555
Te4 Tl1 3.430675 1_554
Te4 Tl0 3.430678 1_545
Te5 Tl3 3.430675 1_546
Te5 Tl2 3.430678 1_555
