# generated using pymatgen
data_Na2Y3NbSi2(SO6)4
_symmetry_space_group_name_H-M   'P 1'
_cell_length_a   9.13037614
_cell_length_b   9.12454551
_cell_length_c   24.03320819
_cell_angle_alpha   90.63041999
_cell_angle_beta   89.76916336
_cell_angle_gamma   119.97271205
_symmetry_Int_Tables_number   1
_chemical_formula_structural   Na2Y3NbSi2(SO6)4
_chemical_formula_sum   'Na6 Y9 Nb3 Si6 S12 O72'
_cell_volume   1734.34195992
_cell_formula_units_Z   3
loop_
 _symmetry_equiv_pos_site_id
 _symmetry_equiv_pos_as_xyz
  1  'x, y, z'
loop_
 _atom_site_type_symbol
 _atom_site_label
 _atom_site_symmetry_multiplicity
 _atom_site_fract_x
 _atom_site_fract_y
 _atom_site_fract_z
 _atom_site_occupancy
  Na  Na0  1  0.00155448  0.98422405  0.49658947  1
  Na  Na1  1  0.99792148  0.97074960  0.99702146  1
  Na  Na2  1  0.64404676  0.32616484  0.83510545  1
  Na  Na3  1  0.69449865  0.34126744  0.32971351  1
  Na  Na4  1  0.31019253  0.65547756  0.15756174  1
  Na  Na5  1  0.32788809  0.65333818  0.67389932  1
  Y  Y0  1  0.99620981  0.99890967  0.35062483  1
  Y  Y1  1  0.01460551  0.00269356  0.85356189  1
  Y  Y2  1  0.01216026  0.01487867  0.65450984  1
  Y  Y3  1  0.99827609  -0.00001518  0.14451886  1
  Y  Y4  1  0.65788168  0.33493588  0.68815799  1
  Y  Y5  1  0.68426380  0.34074911  0.18554008  1
  Y  Y6  1  0.67822714  0.34278266  0.47661739  1
  Y  Y7  1  0.33035832  0.67385686  0.01863621  1
  Y  Y8  1  0.32580989  0.66798849  0.51815932  1
  Nb  Nb0  1  0.66508433  0.34584822  0.97795252  1
  Nb  Nb1  1  0.31386118  0.65784875  0.31365932  1
  Nb  Nb2  1  0.34604484  0.66588524  0.82203440  1
  Si  Si0  1  0.99454639  0.28901413  0.25167513  1
  Si  Si1  1  0.29876806  0.30979298  0.75248293  1
  Si  Si2  1  0.96009603  0.62814353  0.08206657  1
  Si  Si3  1  0.62945179  0.66911990  0.92051801  1
  Si  Si4  1  0.34385308  0.96568851  0.91843138  1
  Si  Si5  1  0.03748351  0.66968719  0.41676553  1
  S  S0  1  0.29630396  0.99238333  0.25244257  1
  S  S1  1  0.69203775  0.70336707  0.25226002  1
  S  S2  1  0.01034641  0.70332984  0.75059821  1
  S  S3  1  0.69514730  0.99096110  0.75205778  1
  S  S4  1  0.96008208  0.32944601  0.58336887  1
  S  S5  1  0.37174062  0.03990330  0.58255975  1
  S  S6  1  0.66910987  0.63211162  0.58317295  1
  S  S7  1  0.66833483  0.04801421  0.08089381  1
  S  S8  1  0.38091426  0.33128609  0.08124200  1
  S  S9  1  0.03675289  0.38104375  0.91617562  1
  S  S10  1  0.61854553  0.95197694  0.41510655  1
  S  S11  1  0.33523014  0.38128102  0.41393218  1
  O  O0  1  0.21422161  0.01202456  0.30223445  1
  O  O1  1  0.80017854  0.78091536  0.30153977  1
  O  O2  1  0.98487602  0.18971434  0.30742897  1
  O  O3  1  0.20649874  0.19224234  0.80439760  1
  O  O4  1  0.97714972  0.77935883  0.79971700  1
  O  O5  1  0.79993678  0.01582102  0.80104597  1
  O  O6  1  0.76909021  0.96156923  0.70061995  1
  O  O7  1  0.19031452  0.23357788  0.69468185  1
  O  O8  1  0.03122946  0.80517305  0.69982104  1
  O  O9  1  0.76815362  0.80555785  0.20194269  1
  O  O10  1  0.03521228  0.21575860  0.19576757  1
  O  O11  1  0.19132039  0.95556911  0.20196986  1
  O  O12  1  0.87840774  0.34952960  0.63360909  1
  O  O13  1  0.47190969  0.12465083  0.63301362  1
  O  O14  1  0.65130872  0.52986701  0.63287255  1
  O  O15  1  0.86422593  0.52244421  0.13670933  1
  O  O16  1  0.64638561  0.12322421  0.13293056  1
  O  O17  1  0.47611188  0.34479835  0.13179163  1
  O  O18  1  0.47121312  0.31529354  0.02960933  1
  O  O19  1  0.83238069  0.50879633  0.02612355  1
  O  O20  1  0.67874391  0.14997033  0.03142862  1
  O  O21  1  0.45483275  0.13898173  0.53213704  1
  O  O22  1  0.68513922  0.54615107  0.53224040  1
  O  O23  1  0.85993548  0.31433928  0.53270994  1
  O  O24  1  0.53490643  0.67779517  0.97402763  1
  O  O25  1  0.13562239  0.45251596  0.96640982  1
  O  O26  1  0.31179042  0.85054327  0.97094800  1
  O  O27  1  0.54251208  0.85514239  0.46635664  1
  O  O28  1  0.31944404  0.46119706  0.46548457  1
  O  O29  1  0.14869988  0.68415554  0.47046239  1
  O  O30  1  0.15302211  0.65687678  0.36119979  1
  O  O31  1  0.51561032  0.86105318  0.36513784  1
  O  O32  1  0.35289017  0.48928783  0.36436626  1
  O  O33  1  0.12651945  0.49081473  0.86595487  1
  O  O34  1  0.36269909  0.85783883  0.86209493  1
  O  O35  1  0.50004581  0.63554172  0.86343643  1
  O  O36  1  0.02157661  0.83642582  0.41168852  1
  O  O37  1  0.79012553  0.97515012  0.41093869  1
  O  O38  1  0.18399938  0.21291646  0.40915300  1
  O  O39  1  0.00862197  0.20917457  0.90722447  1
  O  O40  1  0.18972485  0.00021789  0.91004936  1
  O  O41  1  0.81147099  0.82432469  0.90780695  1
  O  O42  1  0.97378679  0.17368638  0.58615939  1
  O  O43  1  0.19928202  0.01861842  0.58694373  1
  O  O44  1  0.82232683  0.80175830  0.58762010  1
  O  O45  1  0.96816103  0.81115657  0.08119707  1
  O  O46  1  0.82683201  0.03946665  0.08371963  1
  O  O47  1  0.21290386  0.17457771  0.08184921  1
  O  O48  1  0.67374297  0.14064088  0.74479179  1
  O  O49  1  0.49074579  0.34079586  0.74644437  1
  O  O50  1  0.86284014  0.53007518  0.74314882  1
  O  O51  1  0.66105359  0.52908323  0.24633713  1
  O  O52  1  0.84099681  0.32913397  0.25022156  1
  O  O53  1  0.46561695  0.14033261  0.24668922  1
  O  O54  1  0.63900550  0.48839976  0.92645297  1
  O  O55  1  0.86836653  0.37189293  0.92002011  1
  O  O56  1  0.52352874  0.15133776  0.92729108  1
  O  O57  1  0.62803966  0.11954331  0.41862823  1
  O  O58  1  0.48949017  0.36615791  0.41618548  1
  O  O59  1  0.85712073  0.49262454  0.41489608  1
  O  O60  1  0.36385640  0.48231840  0.07668752  1
  O  O61  1  0.14161420  0.63888264  0.08036146  1
  O  O62  1  0.52139245  0.87478251  0.07795334  1
  O  O63  1  0.35722520  0.87005704  0.57986725  1
  O  O64  1  0.51534368  0.64780312  0.57919307  1
  O  O65  1  0.13251948  0.48051543  0.57943509  1
  O  O66  1  0.31911149  0.83776387  0.26123161  1
  O  O67  1  0.52349210  0.69279252  0.26229603  1
  O  O68  1  0.17516874  0.48845973  0.26500273  1
  O  O69  1  0.31295738  0.50032579  0.76414625  1
  O  O70  1  0.16558196  0.69079739  0.75758898  1
  O  O71  1  0.52220928  0.83578475  0.75894464  1
loop_
_geom_bond_atom_site_label_1
_geom_bond_atom_site_label_2
_geom_bond_distance
_geom_bond_site_symmetry_2
Na0 O36 2.489638 1_555
Na0 O43 2.742920 1_565
Na0 O44 2.750481 1_455
Na0 O37 2.799864 1_455
Na0 O42 2.835213 1_465
Na0 O38 2.853096 1_565
Na1 O45 2.439672 1_556
Na1 O41 2.640852 1_555
Na1 O40 2.649627 1_665
Na1 O47 2.787344 1_666
Na1 O46 2.845795 1_566
Na2 O49 2.595057 1_555
Na2 O56 2.639753 1_555
Na2 O54 2.647430 1_555
Na2 O55 2.773937 1_555
Na2 O48 2.832554 1_555
Na2 O50 2.945804 1_555
Na3 O52 2.360913 1_555
Na3 O59 2.493272 1_555
Na3 O51 2.765635 1_555
Na3 O53 2.799076 1_555
Na3 O57 2.808149 1_555
Na3 O58 2.873530 1_555
Na4 O61 2.370310 1_555
Na4 O60 2.685623 1_555
Na4 O62 2.753581 1_555
Na4 O68 2.948480 1_555
Na4 O66 2.959038 1_555
Na5 O69 2.558550 1_555
Na5 O70 2.612529 1_555
Na5 O71 2.664577 1_555
Na5 O65 2.822417 1_555
Na5 O64 2.857443 1_555
Na5 O63 2.941672 1_555
Nb0 O19 1.895066 1_556
Nb0 O54 1.904658 1_555
Nb0 O56 1.993995 1_555
Nb0 O18 2.061340 1_556
Nb0 O55 2.232849 1_555
Nb0 O20 2.266338 1_556
Nb1 O68 1.837504 1_555
Nb1 O30 1.853576 1_555
Nb1 O66 2.061870 1_555
Nb1 O32 2.137765 1_555
Nb1 O67 2.160729 1_555
Nb1 O31 2.217414 1_555
Nb2 O35 1.857452 1_555
Nb2 O34 1.927628 1_555
Nb2 O69 1.951930 1_555
Nb2 O33 2.122330 1_555
Nb2 O71 2.197734 1_555
Nb2 O70 2.359657 1_555
O0 S0 1.465616 1_545
O0 Y0 2.252875 1_445
O1 S1 1.473489 1_555
O1 Y0 2.227064 1_555
O2 Si0 1.603131 1_555
O2 Y0 2.083311 1_545
O3 Si1 1.592168 1_555
O3 Y1 2.111322 1_555
O4 S2 1.468284 1_655
O4 Y1 2.278926 1_665
O5 S3 1.462650 1_545
O5 Y1 2.388886 1_655
O6 S3 1.490920 1_555
O6 Y2 2.302921 1_665
O7 Si1 1.641843 1_555
O7 Y2 2.070535 1_555
O8 S2 1.495049 1_555
O8 Y2 2.292989 1_565
O9 S1 1.478298 1_555
O9 Y3 2.402633 1_565
O10 Si0 1.616851 1_455
O10 Y3 2.189435 1_455
O11 S0 1.477071 1_555
O11 Y3 2.433714 1_465
O12 S4 1.473768 1_555
O12 Y4 2.346319 1_555
O13 S5 1.478649 1_555
O13 Y4 2.242330 1_555
O14 S6 1.481528 1_555
O14 Y4 2.256532 1_555
O15 Si2 1.611232 1_555
O15 Y5 2.032509 1_555
O16 S7 1.480421 1_555
O16 Y5 2.218148 1_555
O17 S8 1.464492 1_555
O17 Y5 2.317950 1_555
O18 S8 1.532594 1_555
O19 Si2 1.750691 1_555
O20 S7 1.490920 1_555
O21 S5 1.480802 1_555
O21 Y6 2.375203 1_555
O22 S6 1.492349 1_555
O22 Y6 2.250225 1_555
O23 S4 1.488867 1_555
O23 Y6 2.256797 1_555
O24 Si3 1.569187 1_555
O24 Y7 2.134538 1_556
O25 S9 1.449475 1_555
O25 Y7 2.278141 1_556
O26 Si4 1.581598 1_555
O26 Y7 2.063187 1_556
O27 S10 1.477804 1_555
O27 Y8 2.243186 1_555
O28 S11 1.473514 1_555
O28 Y8 2.237129 1_555
O29 Si5 1.608365 1_555
O29 Y8 2.051279 1_555
O30 Si5 1.737318 1_555
O31 S10 1.490591 1_555
O32 S11 1.510553 1_555
O33 S9 1.526474 1_555
O34 Si4 1.723132 1_555
O35 Si3 1.736077 1_555
O36 Si5 1.604896 1_555
O36 Y0 2.190698 1_455
O37 S10 1.475525 1_555
O37 Y0 2.294781 1_555
O38 S11 1.468928 1_555
O38 Y0 2.311956 1_445
O39 S9 1.470425 1_555
O39 Y1 2.294494 1_555
O40 Si4 1.602150 1_545
O40 Y1 2.110515 1_555
O41 Si3 1.585756 1_555
O41 Y1 2.190769 1_665
O42 S4 1.489941 1_555
O42 Y2 2.342048 1_655
O43 S5 1.490562 1_555
O43 Y2 2.340416 1_555
O44 S6 1.482717 1_555
O44 Y2 2.440480 1_665
O45 Si2 1.634733 1_555
O45 Y3 2.198295 1_565
O46 S7 1.489492 1_555
O46 Y3 2.304057 1_555
O47 S8 1.485460 1_555
O47 Y3 2.357181 1_455
O48 S3 1.485328 1_545
O48 Y4 2.308197 1_555
O49 Si1 1.636125 1_555
O49 Y4 2.087222 1_555
O50 S2 1.487755 1_655
O50 Y4 2.248960 1_555
O51 S1 1.474807 1_555
O51 Y5 2.332188 1_555
O52 Si0 1.616854 1_555
O52 Y5 2.156074 1_555
O53 S0 1.465782 1_545
O53 Y5 2.424266 1_555
O54 Si3 1.701798 1_555
O55 S9 1.499987 1_655
O56 Si4 1.680573 1_545
O57 S10 1.489027 1_545
O57 Y6 2.304675 1_555
O58 S11 1.483471 1_555
O58 Y6 2.349183 1_555
O59 Si5 1.632406 1_655
O59 Y6 2.128693 1_555
O60 S8 1.467417 1_555
O60 Y7 2.384463 1_555
O61 Si2 1.610992 1_455
O61 Y7 2.170849 1_555
O62 S7 1.477449 1_565
O62 Y7 2.281042 1_555
O63 S5 1.488683 1_565
O63 Y8 2.257444 1_555
O64 S6 1.484229 1_555
O64 Y8 2.350549 1_555
O65 S4 1.490317 1_455
O65 Y8 2.286380 1_555
O66 S0 1.542366 1_555
O67 S1 1.511560 1_555
O68 Si0 1.768289 1_455
O69 Si1 1.697748 1_555
O70 S2 1.488119 1_555
O71 S3 1.514793 1_555
