# generated using pymatgen
data_MgNb4(O2F)4
_symmetry_space_group_name_H-M   'P 1'
_cell_length_a   5.43171586
_cell_length_b   5.76564973
_cell_length_c   9.11229061
_cell_angle_alpha   89.95718570
_cell_angle_beta   89.18968677
_cell_angle_gamma   91.33114875
_symmetry_Int_Tables_number   1
_chemical_formula_structural   MgNb4(O2F)4
_chemical_formula_sum   'Mg1 Nb4 O8 F4'
_cell_volume   285.26727584
_cell_formula_units_Z   1
loop_
 _symmetry_equiv_pos_site_id
 _symmetry_equiv_pos_as_xyz
  1  'x, y, z'
loop_
 _atom_site_type_symbol
 _atom_site_label
 _atom_site_symmetry_multiplicity
 _atom_site_fract_x
 _atom_site_fract_y
 _atom_site_fract_z
 _atom_site_occupancy
  Mg  Mg0  1  0.29321200  0.86317600  0.48759000  1
  Nb  Nb0  1  0.12257400  0.66267600  0.13086400  1
  Nb  Nb1  1  0.39273100  0.31297400  0.63663800  1
  Nb  Nb2  1  0.60958700  0.82405100  0.87054400  1
  Nb  Nb3  1  0.86908200  0.15703400  0.36535200  1
  O  O0  1  0.08436300  0.87109300  0.29284700  1
  O  O1  1  0.87683400  0.69267200  0.99113000  1
  O  O2  1  0.62082000  0.33281500  0.48377500  1
  O  O3  1  0.44500800  0.99565700  0.69585100  1
  O  O4  1  0.53035800  0.53267600  0.77698900  1
  O  O5  1  0.37061100  0.86662300  0.01473200  1
  O  O6  1  0.11213100  0.15706600  0.51756300  1
  O  O7  1  0.94616400  0.38869200  0.23286200  1
  F  F0  1  0.16610300  0.59252600  0.58059200  1
  F  F1  1  0.38853900  0.44126300  0.12276600  1
  F  F2  1  0.59770300  0.89407800  0.37561900  1
  F  F3  1  0.84918100  0.08159400  0.83857300  1
loop_
_geom_bond_atom_site_label_1
_geom_bond_atom_site_label_2
_geom_bond_distance
_geom_bond_site_symmetry_2
Mg0 O6 1.995939 1_565
Mg0 O0 2.120668 1_555
Mg0 O3 2.209486 1_555
Nb0 O1 1.868509 1_454
Nb0 O0 1.916069 1_555
Nb0 O7 2.044442 1_455
Nb0 O5 2.049852 1_555
Nb1 O2 1.852734 1_555
Nb1 O3 1.935450 1_545
Nb1 O4 1.945385 1_555
Nb1 O6 2.071942 1_555
Nb2 O5 1.854324 1_556
Nb2 O4 1.926959 1_555
Nb2 O1 1.995823 1_555
Nb2 O3 2.095490 1_555
Nb3 O7 1.836882 1_555
Nb3 O6 1.928310 1_655
Nb3 O2 2.008489 1_555
Nb3 O0 2.142713 1_645
F0 Mg0 1.887158 1_555
F0 Nb1 2.117253 1_555
F1 Nb0 1.950626 1_555
F2 Mg0 1.935588 1_555
F2 Nb3 2.090989 1_565
F3 Nb2 1.970358 1_545
