# generated using pymatgen
data_Ce15B8N25
_symmetry_space_group_name_H-M   'P 1'
_cell_length_a   10.72537698
_cell_length_b   10.72537686
_cell_length_c   10.72537724
_cell_angle_alpha   82.43032438
_cell_angle_beta   82.43032446
_cell_angle_gamma   82.43032328
_symmetry_Int_Tables_number   1
_chemical_formula_structural   Ce15B8N25
_chemical_formula_sum   'Ce30 B16 N50'
_cell_volume   1204.12887596
_cell_formula_units_Z   2
loop_
 _symmetry_equiv_pos_site_id
 _symmetry_equiv_pos_as_xyz
  1  'x, y, z'
loop_
 _atom_site_type_symbol
 _atom_site_label
 _atom_site_symmetry_multiplicity
 _atom_site_fract_x
 _atom_site_fract_y
 _atom_site_fract_z
 _atom_site_occupancy
  B  B0  1  0.16462225  0.16462225  0.16462225  1
  B  B1  1  0.33537775  0.33537775  0.33537775  1
  B  B2  1  0.83537775  0.83537775  0.83537775  1
  B  B3  1  0.66462225  0.66462225  0.66462225  1
  B  B4  1  0.06527537  0.65244607  0.16229556  1
  B  B5  1  0.16229556  0.06527537  0.65244607  1
  B  B6  1  0.65244607  0.16229556  0.06527537  1
  B  B7  1  0.84755393  0.43472463  0.33770444  1
  B  B8  1  0.33770444  0.84755393  0.43472463  1
  B  B9  1  0.43472463  0.33770444  0.84755393  1
  B  B10  1  0.93472463  0.34755393  0.83770444  1
  B  B11  1  0.83770444  0.93472463  0.34755393  1
  B  B12  1  0.34755393  0.83770444  0.93472463  1
  B  B13  1  0.15244607  0.56527537  0.66229556  1
  B  B14  1  0.66229556  0.15244607  0.56527537  1
  B  B15  1  0.56527537  0.66229556  0.15244607  1
  N  N0  1  0.00000000  0.00000000  0.00000000  1
  N  N1  1  0.50000000  0.50000000  0.50000000  1
  N  N2  1  0.75089721  0.16233227  0.95516421  1
  N  N3  1  0.95516421  0.75089721  0.16233227  1
  N  N4  1  0.16233227  0.95516421  0.75089721  1
  N  N5  1  0.33766773  0.74910279  0.54483579  1
  N  N6  1  0.54483579  0.33766773  0.74910279  1
  N  N7  1  0.74910279  0.54483579  0.33766773  1
  N  N8  1  0.24910279  0.83766773  0.04483579  1
  N  N9  1  0.04483579  0.24910279  0.83766773  1
  N  N10  1  0.83766773  0.04483579  0.24910279  1
  N  N11  1  0.66233227  0.25089721  0.45516421  1
  N  N12  1  0.45516421  0.66233227  0.25089721  1
  N  N13  1  0.25089721  0.45516421  0.66233227  1
  N  N14  1  0.60388321  0.55851396  0.07111557  1
  N  N15  1  0.07111557  0.60388321  0.55851396  1
  N  N16  1  0.55851396  0.07111557  0.60388321  1
  N  N17  1  0.94148604  0.89611679  0.42888443  1
  N  N18  1  0.42888443  0.94148604  0.89611679  1
  N  N19  1  0.89611679  0.42888443  0.94148604  1
  N  N20  1  0.39611679  0.44148604  0.92888443  1
  N  N21  1  0.92888443  0.39611679  0.44148604  1
  N  N22  1  0.44148604  0.92888443  0.39611679  1
  N  N23  1  0.05851396  0.10388321  0.57111557  1
  N  N24  1  0.57111557  0.05851396  0.10388321  1
  N  N25  1  0.10388321  0.57111557  0.05851396  1
  N  N26  1  0.14486003  0.27651259  0.07356437  1
  N  N27  1  0.07356437  0.14486003  0.27651259  1
  N  N28  1  0.27651259  0.07356437  0.14486003  1
  N  N29  1  0.22348741  0.35513997  0.42643563  1
  N  N30  1  0.42643563  0.22348741  0.35513997  1
  N  N31  1  0.35513997  0.42643563  0.22348741  1
  N  N32  1  0.85513997  0.72348741  0.92643563  1
  N  N33  1  0.92643563  0.85513997  0.72348741  1
  N  N34  1  0.72348741  0.92643563  0.85513997  1
  N  N35  1  0.77651259  0.64486003  0.57356437  1
  N  N36  1  0.57356437  0.77651259  0.64486003  1
  N  N37  1  0.64486003  0.57356437  0.77651259  1
  N  N38  1  0.27029238  0.13853001  0.63046427  1
  N  N39  1  0.63046427  0.27029238  0.13853001  1
  N  N40  1  0.13853001  0.63046427  0.27029238  1
  N  N41  1  0.36146999  0.22970762  0.86953573  1
  N  N42  1  0.86953573  0.36146999  0.22970762  1
  N  N43  1  0.22970762  0.86953573  0.36146999  1
  N  N44  1  0.72970762  0.86146999  0.36953573  1
  N  N45  1  0.36953573  0.72970762  0.86146999  1
  N  N46  1  0.86146999  0.36953573  0.72970762  1
  N  N47  1  0.63853001  0.77029238  0.13046427  1
  N  N48  1  0.13046427  0.63853001  0.77029238  1
  N  N49  1  0.77029238  0.13046427  0.63853001  1
  Ce  Ce0  1  0.58968887  0.41036136  0.28719430  1
  Ce  Ce1  1  0.28719430  0.58968887  0.41036136  1
  Ce  Ce2  1  0.41036136  0.28719430  0.58968887  1
  Ce  Ce3  1  0.08963864  0.91031113  0.21280570  1
  Ce  Ce4  1  0.21280570  0.08963864  0.91031113  1
  Ce  Ce5  1  0.91031113  0.21280570  0.08963864  1
  Ce  Ce6  1  0.41031113  0.58963864  0.71280570  1
  Ce  Ce7  1  0.71280570  0.41031113  0.58963864  1
  Ce  Ce8  1  0.58963864  0.71280570  0.41031113  1
  Ce  Ce9  1  0.91036136  0.08968887  0.78719430  1
  Ce  Ce10  1  0.78719430  0.91036136  0.08968887  1
  Ce  Ce11  1  0.08968887  0.78719430  0.91036136  1
  Ce  Ce12  1  0.42434843  0.90199054  0.15939760  1
  Ce  Ce13  1  0.15939760  0.42434843  0.90199054  1
  Ce  Ce14  1  0.90199054  0.15939760  0.42434843  1
  Ce  Ce15  1  0.59800946  0.07565157  0.34060240  1
  Ce  Ce16  1  0.34060240  0.59800946  0.07565157  1
  Ce  Ce17  1  0.07565157  0.34060240  0.59800946  1
  Ce  Ce18  1  0.57565157  0.09800946  0.84060240  1
  Ce  Ce19  1  0.84060240  0.57565157  0.09800946  1
  Ce  Ce20  1  0.09800946  0.84060240  0.57565157  1
  Ce  Ce21  1  0.40199054  0.92434843  0.65939760  1
  Ce  Ce22  1  0.65939760  0.40199054  0.92434843  1
  Ce  Ce23  1  0.92434843  0.65939760  0.40199054  1
  Ce  Ce24  1  0.39867201  0.25000000  0.10132799  1
  Ce  Ce25  1  0.10132799  0.39867201  0.25000000  1
  Ce  Ce26  1  0.25000000  0.10132799  0.39867201  1
  Ce  Ce27  1  0.60132799  0.75000000  0.89867201  1
  Ce  Ce28  1  0.89867201  0.60132799  0.75000000  1
  Ce  Ce29  1  0.75000000  0.89867201  0.60132799  1
loop_
_geom_bond_atom_site_label_1
_geom_bond_atom_site_label_2
_geom_bond_distance
_geom_bond_site_symmetry_2
B0 N28 1.455207 1_555
B0 N26 1.455207 1_555
B0 N27 1.455207 1_555
B1 N30 1.455207 1_555
B1 N29 1.455207 1_555
B1 N31 1.455207 1_555
B2 N34 1.455207 1_555
B2 N32 1.455207 1_555
B2 N33 1.455207 1_555
B3 N36 1.455207 1_555
B3 N35 1.455207 1_555
B3 N37 1.455207 1_555
B4 N40 1.460676 1_555
B4 N3 1.476869 1_455
B4 N25 1.486799 1_555
B5 N38 1.460676 1_555
B5 N4 1.476869 1_545
B5 N23 1.486799 1_555
B6 N39 1.460676 1_555
B6 N2 1.476869 1_554
B6 N24 1.486799 1_555
B7 N42 1.460676 1_555
B7 N7 1.476869 1_555
B7 N21 1.486799 1_555
B8 N43 1.460676 1_555
B8 N5 1.476869 1_555
B8 N22 1.486799 1_555
B9 N41 1.460676 1_555
B9 N6 1.476869 1_555
B9 N20 1.486799 1_555
B10 N46 1.460676 1_555
B10 N9 1.476869 1_655
B10 N19 1.486799 1_555
B11 N44 1.460676 1_555
B11 N10 1.476869 1_565
B11 N17 1.486799 1_555
B12 N45 1.460676 1_555
B12 N8 1.476869 1_556
B12 N18 1.486799 1_555
B13 N48 1.460676 1_555
B13 N13 1.476869 1_555
B13 N15 1.486799 1_555
B14 N49 1.460676 1_555
B14 N11 1.476869 1_555
B14 N16 1.486799 1_555
B15 N47 1.460676 1_555
B15 N12 1.476869 1_555
B15 N14 1.486799 1_555
Ce0 N39 2.294513 1_555
Ce0 N11 2.446365 1_555
Ce0 N7 2.529000 1_555
Ce0 N1 2.610577 1_555
Ce0 N14 2.630507 1_555
Ce0 N31 2.670679 1_555
Ce0 N30 2.796015 1_555
Ce0 N12 2.894861 1_555
Ce0 N42 2.974367 1_555
Ce1 N40 2.294513 1_555
Ce1 N12 2.446365 1_555
Ce1 N5 2.529000 1_555
Ce1 N1 2.610577 1_555
Ce1 N15 2.630507 1_555
Ce1 N29 2.670679 1_555
Ce1 N31 2.796015 1_555
Ce1 N13 2.894861 1_555
Ce1 N43 2.974367 1_555
Ce2 N38 2.294513 1_555
Ce2 N13 2.446365 1_555
Ce2 N6 2.529000 1_555
Ce2 N1 2.610577 1_555
Ce2 N16 2.630507 1_555
Ce2 N30 2.670679 1_555
Ce2 N29 2.796015 1_555
Ce2 N11 2.894861 1_555
Ce2 N41 2.974367 1_555
Ce3 N43 2.294513 1_555
Ce3 N8 2.446365 1_555
Ce3 N3 2.529000 1_455
Ce3 N0 2.610577 1_565
Ce3 N17 2.630507 1_455
Ce3 N27 2.670679 1_565
Ce3 N28 2.796015 1_565
Ce3 N10 2.894861 1_465
Ce3 N40 2.974367 1_555
Ce4 N41 2.294513 1_555
Ce4 N9 2.446365 1_555
Ce4 N4 2.529000 1_545
Ce4 N0 2.610577 1_556
Ce4 N18 2.630507 1_545
Ce4 N28 2.670679 1_556
Ce4 N26 2.796015 1_556
Ce4 N8 2.894861 1_546
Ce4 N38 2.974367 1_555
Ce5 N42 2.294513 1_555
Ce5 N10 2.446365 1_555
Ce5 N2 2.529000 1_554
Ce5 N0 2.610577 1_655
Ce5 N19 2.630507 1_554
Ce5 N26 2.670679 1_655
Ce5 N27 2.796015 1_655
Ce5 N9 2.894861 1_654
Ce5 N39 2.974367 1_555
Ce6 N45 2.294513 1_555
Ce6 N5 2.446365 1_555
Ce6 N13 2.529000 1_555
Ce6 N1 2.610577 1_555
Ce6 N20 2.630507 1_555
Ce6 N37 2.670679 1_555
Ce6 N36 2.796015 1_555
Ce6 N6 2.894861 1_555
Ce6 N48 2.974367 1_555
Ce7 N46 2.294513 1_555
Ce7 N6 2.446365 1_555
Ce7 N11 2.529000 1_555
Ce7 N1 2.610577 1_555
Ce7 N21 2.630507 1_555
Ce7 N35 2.670679 1_555
Ce7 N37 2.796015 1_555
Ce7 N7 2.894861 1_555
Ce7 N49 2.974367 1_555
Ce8 N44 2.294513 1_555
Ce8 N7 2.446365 1_555
Ce8 N12 2.529000 1_555
Ce8 N1 2.610577 1_555
Ce8 N22 2.630507 1_555
Ce8 N36 2.670679 1_555
Ce8 N35 2.796015 1_555
Ce8 N5 2.894861 1_555
Ce8 N47 2.974367 1_555
Ce9 N49 2.294513 1_555
Ce9 N2 2.446365 1_555
Ce9 N9 2.529000 1_655
Ce9 N0 2.610577 1_656
Ce9 N23 2.630507 1_655
Ce9 N33 2.670679 1_545
Ce9 N34 2.796015 1_545
Ce9 N4 2.894861 1_645
Ce9 N46 2.974367 1_555
Ce10 N47 2.294513 1_555
Ce10 N3 2.446365 1_555
Ce10 N10 2.529000 1_565
Ce10 N0 2.610577 1_665
Ce10 N24 2.630507 1_565
Ce10 N34 2.670679 1_554
Ce10 N32 2.796015 1_554
Ce10 N2 2.894861 1_564
Ce10 N44 2.974367 1_555
Ce11 N48 2.294513 1_555
Ce11 N4 2.446365 1_555
Ce11 N8 2.529000 1_556
Ce11 N0 2.610577 1_566
Ce11 N25 2.630507 1_556
Ce11 N32 2.670679 1_455
Ce11 N33 2.796015 1_455
Ce11 N3 2.894861 1_456
Ce11 N45 2.974367 1_555
Ce12 N28 2.268379 1_565
Ce12 N24 2.415914 1_565
Ce12 N47 2.537973 1_555
Ce12 N8 2.586875 1_555
Ce12 N12 2.622297 1_555
Ce12 N22 2.625429 1_555
Ce12 N18 2.794578 1_554
Ce12 N43 2.824374 1_555
Ce13 N26 2.268379 1_556
Ce13 N25 2.415914 1_556
Ce13 N48 2.537973 1_555
Ce13 N9 2.586875 1_555
Ce13 N13 2.622297 1_555
Ce13 N20 2.625429 1_555
Ce13 N19 2.794577 1_455
Ce13 N41 2.824374 1_555
Ce14 N27 2.268379 1_655
Ce14 N23 2.415914 1_655
Ce14 N49 2.537973 1_555
Ce14 N10 2.586875 1_555
Ce14 N11 2.622297 1_555
Ce14 N21 2.625429 1_555
Ce14 N17 2.794577 1_545
Ce14 N42 2.824374 1_555
Ce15 N30 2.268379 1_555
Ce15 N22 2.415914 1_545
Ce15 N44 2.537973 1_545
Ce15 N11 2.586875 1_555
Ce15 N10 2.622297 1_555
Ce15 N24 2.625429 1_555
Ce15 N16 2.794578 1_555
Ce15 N39 2.824374 1_555
Ce16 N31 2.268379 1_555
Ce16 N20 2.415914 1_554
Ce16 N45 2.537973 1_554
Ce16 N12 2.586875 1_555
Ce16 N8 2.622297 1_555
Ce16 N25 2.625429 1_555
Ce16 N14 2.794577 1_555
Ce16 N40 2.824374 1_555
Ce17 N29 2.268379 1_555
Ce17 N21 2.415914 1_455
Ce17 N46 2.537973 1_455
Ce17 N13 2.586875 1_555
Ce17 N9 2.622297 1_555
Ce17 N23 2.625429 1_555
Ce17 N15 2.794577 1_555
Ce17 N38 2.824374 1_555
Ce18 N34 2.268379 1_545
Ce18 N18 2.415914 1_545
Ce18 N41 2.537973 1_555
Ce18 N2 2.586875 1_555
Ce18 N6 2.622297 1_555
Ce18 N16 2.625429 1_555
Ce18 N24 2.794578 1_556
Ce18 N49 2.824374 1_555
Ce19 N32 2.268379 1_554
Ce19 N19 2.415914 1_554
Ce19 N42 2.537973 1_555
Ce19 N3 2.586875 1_555
Ce19 N7 2.622297 1_555
Ce19 N14 2.625429 1_555
Ce19 N25 2.794577 1_655
Ce19 N47 2.824374 1_555
Ce20 N33 2.268379 1_455
Ce20 N17 2.415914 1_455
Ce20 N43 2.537973 1_555
Ce20 N4 2.586875 1_555
Ce20 N5 2.622297 1_555
Ce20 N15 2.625429 1_555
Ce20 N23 2.794577 1_565
Ce20 N48 2.824374 1_555
Ce21 N36 2.268379 1_555
Ce21 N16 2.415914 1_565
Ce21 N38 2.537973 1_565
Ce21 N5 2.586875 1_555
Ce21 N4 2.622297 1_555
Ce21 N18 2.625429 1_555
Ce21 N22 2.794578 1_555
Ce21 N45 2.824374 1_555
Ce22 N37 2.268379 1_555
Ce22 N14 2.415914 1_556
Ce22 N39 2.537973 1_556
Ce22 N6 2.586875 1_555
Ce22 N2 2.622297 1_555
Ce22 N19 2.625429 1_555
Ce22 N20 2.794577 1_555
Ce22 N46 2.824374 1_555
Ce23 N35 2.268379 1_555
Ce23 N15 2.415914 1_655
Ce23 N40 2.537973 1_655
Ce23 N7 2.586875 1_555
Ce23 N3 2.622297 1_555
Ce23 N17 2.625429 1_555
Ce23 N21 2.794577 1_555
Ce23 N44 2.824374 1_555
Ce24 N31 2.403092 1_555
Ce24 N28 2.403092 1_555
Ce24 N24 2.576272 1_555
Ce24 N20 2.576272 1_554
Ce24 N39 2.610334 1_555
Ce24 N41 2.610334 1_554
Ce24 N26 2.750886 1_555
Ce24 N30 2.750886 1_555
Ce25 N26 2.403092 1_555
Ce25 N29 2.403092 1_555
Ce25 N25 2.576272 1_555
Ce25 N21 2.576272 1_455
Ce25 N40 2.610334 1_555
Ce25 N42 2.610334 1_455
Ce25 N27 2.750886 1_555
Ce25 N31 2.750886 1_555
Ce26 N27 2.403092 1_555
Ce26 N30 2.403092 1_555
Ce26 N22 2.576272 1_545
Ce26 N23 2.576272 1_555
Ce26 N43 2.610334 1_545
Ce26 N38 2.610334 1_555
Ce26 N29 2.750886 1_555
Ce26 N28 2.750886 1_555
Ce27 N37 2.403092 1_555
Ce27 N34 2.403092 1_555
Ce27 N18 2.576272 1_555
Ce27 N14 2.576272 1_556
Ce27 N45 2.610334 1_555
Ce27 N47 2.610334 1_556
Ce27 N32 2.750886 1_555
Ce27 N36 2.750886 1_555
Ce28 N32 2.403092 1_555
Ce28 N35 2.403092 1_555
Ce28 N19 2.576272 1_555
Ce28 N15 2.576272 1_655
Ce28 N46 2.610334 1_555
Ce28 N48 2.610334 1_655
Ce28 N33 2.750886 1_555
Ce28 N37 2.750886 1_555
Ce29 N33 2.403092 1_555
Ce29 N36 2.403092 1_555
Ce29 N16 2.576272 1_565
Ce29 N17 2.576272 1_555
Ce29 N49 2.610334 1_565
Ce29 N44 2.610334 1_555
Ce29 N35 2.750886 1_555
Ce29 N34 2.750886 1_555
