# generated using pymatgen
data_Na6Ta3Ga5(PO4)12
_symmetry_space_group_name_H-M   'P 1'
_cell_length_a   17.32338394
_cell_length_b   8.66333089
_cell_length_c   22.33075022
_cell_angle_alpha   90.03773360
_cell_angle_beta   89.96923835
_cell_angle_gamma   120.00557495
_symmetry_Int_Tables_number   1
_chemical_formula_structural   Na6Ta3Ga5(PO4)12
_chemical_formula_sum   'Na18 Ta9 Ga15 P36 O144'
_cell_volume   2902.19822222
_cell_formula_units_Z   3
loop_
 _symmetry_equiv_pos_site_id
 _symmetry_equiv_pos_as_xyz
  1  'x, y, z'
loop_
 _atom_site_type_symbol
 _atom_site_label
 _atom_site_symmetry_multiplicity
 _atom_site_fract_x
 _atom_site_fract_y
 _atom_site_fract_z
 _atom_site_occupancy
  Na  Na0  1  0.68401530  0.36698557  0.24938185  1
  Na  Na1  1  0.99940526  0.63127035  0.24939659  1
  Na  Na2  1  0.99943977  0.36583895  0.74823190  1
  Na  Na3  1  0.49947952  0.36588805  0.74830620  1
  Na  Na4  1  0.18315214  0.99942676  0.74829198  1
  Na  Na5  1  0.68313489  0.99938087  0.74845346  1
  Na  Na6  1  0.99998899  0.99967776  0.50381393  1
  Na  Na7  1  0.49980761  0.99978808  0.50388201  1
  Na  Na8  1  0.99899747  0.99853779  0.00424562  1
  Na  Na9  1  0.50085137  0.00151226  0.00390681  1
  Na  Na10  1  0.33317794  0.33830101  0.83506119  1
  Na  Na11  1  0.83291645  0.33797914  0.83545364  1
  Na  Na12  1  0.33328180  0.33362910  0.33764207  1
  Na  Na13  1  0.83311528  0.32737969  0.33551268  1
  Na  Na14  1  0.16834905  0.66557729  0.16945748  1
  Na  Na15  1  0.66768525  0.67377541  0.16915310  1
  Na  Na16  1  0.16939978  0.66611556  0.66662375  1
  Na  Na17  1  0.66937551  0.66602535  0.66671004  1
  Ta  Ta0  1  0.99952321  0.00251308  0.35530121  1
  Ta  Ta1  1  0.50024634  0.99831984  0.35551457  1
  Ta  Ta2  1  0.99956469  0.99868675  0.85483296  1
  Ta  Ta3  1  0.49991291  0.99899287  0.85495967  1
  Ta  Ta4  1  0.33344839  0.33554271  0.18741194  1
  Ta  Ta5  1  0.16549106  0.66643961  0.02251748  1
  Ta  Ta6  1  0.66844095  0.66731127  0.02300263  1
  Ta  Ta7  1  0.16690175  0.66681254  0.52253313  1
  Ta  Ta8  1  0.66685808  0.66698848  0.52268540  1
  Ga  Ga0  1  0.99918775  0.99870028  0.64486652  1
  Ga  Ga1  1  0.49913234  0.99861730  0.64493688  1
  Ga  Ga2  1  0.99784143  0.00001362  0.14702402  1
  Ga  Ga3  1  0.50137447  0.99980960  0.14751831  1
  Ga  Ga4  1  0.33306110  0.33864507  0.68087676  1
  Ga  Ga5  1  0.83303271  0.33868711  0.68090060  1
  Ga  Ga6  1  0.83294552  0.32538674  0.18334188  1
  Ga  Ga7  1  0.33368268  0.33373262  0.98133804  1
  Ga  Ga8  1  0.83313582  0.33271193  0.98320425  1
  Ga  Ga9  1  0.33327864  0.33360990  0.48261155  1
  Ga  Ga10  1  0.83353484  0.33406498  0.48249615  1
  Ga  Ga11  1  0.16912076  0.66514558  0.31618454  1
  Ga  Ga12  1  0.66671085  0.67393342  0.31615126  1
  Ga  Ga13  1  0.16944255  0.66595264  0.81671994  1
  Ga  Ga14  1  0.66916430  0.66606668  0.81695774  1
  P  P0  1  0.14344204  0.99693001  0.24897139  1
  P  P1  1  0.64562152  0.99582962  0.24810529  1
  P  P2  1  0.35440568  0.71640289  0.24865825  1
  P  P3  1  0.85351603  0.71156705  0.24821718  1
  P  P4  1  0.00032932  0.29054777  0.24778666  1
  P  P5  1  0.50140186  0.29016205  0.24922651  1
  P  P6  1  0.14667977  0.29381264  0.74813260  1
  P  P7  1  0.64674687  0.29396297  0.74810785  1
  P  P8  1  0.99816950  0.70767660  0.74794000  1
  P  P9  1  0.49815370  0.70776918  0.74794898  1
  P  P10  1  0.35385822  0.99552212  0.74791311  1
  P  P11  1  0.85376809  0.99550417  0.74781804  1
  P  P12  1  0.47430837  0.32588726  0.58371861  1
  P  P13  1  0.97431432  0.32603553  0.58366842  1
  P  P14  1  0.18869554  0.05148093  0.58381503  1
  P  P15  1  0.68879271  0.05185966  0.58374460  1
  P  P16  1  0.33701198  0.62234948  0.58333592  1
  P  P17  1  0.83701970  0.62218571  0.58325081  1
  P  P18  1  0.47591449  0.62585664  0.08177021  1
  P  P19  1  0.97363134  0.62285368  0.08406546  1
  P  P20  1  0.33739147  0.04916581  0.08207230  1
  P  P21  1  0.83753152  0.05283642  0.08346797  1
  P  P22  1  0.18693210  0.32520642  0.08179478  1
  P  P23  1  0.68876201  0.32485340  0.08412661  1
  P  P24  1  0.30936778  0.65899839  0.91656534  1
  P  P25  1  0.80964991  0.65813059  0.91624573  1
  P  P26  1  0.01970820  0.38066776  0.91582451  1
  P  P27  1  0.52027556  0.38149883  0.91610286  1
  P  P28  1  0.17046281  0.96016776  0.91588825  1
  P  P29  1  0.67066519  0.95983707  0.91620644  1
  P  P30  1  0.30897614  0.95940060  0.41586501  1
  P  P31  1  0.80893681  0.95995588  0.41626808  1
  P  P32  1  0.17080740  0.38182148  0.41618153  1
  P  P33  1  0.67074930  0.38215823  0.41559702  1
  P  P34  1  0.02016229  0.65921996  0.41568483  1
  P  P35  1  0.52037669  0.65780772  0.41609816  1
  O  O0  1  0.10196464  0.03222831  0.30564977  1
  O  O1  1  0.60076710  0.03244882  0.30463031  1
  O  O2  1  0.41422314  0.79694116  0.30532905  1
  O  O3  1  0.91537563  0.79822938  0.30485735  1
  O  O4  1  0.48362182  0.17081333  0.30559135  1
  O  O5  1  0.98542826  0.17140051  0.30501229  1
  O  O6  1  0.10148554  0.17040187  0.80513598  1
  O  O7  1  0.60151230  0.17049217  0.80508636  1
  O  O8  1  0.48491654  0.79829812  0.80546147  1
  O  O9  1  0.98497639  0.79834413  0.80548809  1
  O  O10  1  0.41491752  0.03165840  0.80512658  1
  O  O11  1  0.91495729  0.03176110  0.80508778  1
  O  O12  1  0.39739284  0.96622397  0.69424535  1
  O  O13  1  0.89749038  0.96628497  0.69426198  1
  O  O14  1  0.08472027  0.20796272  0.69504438  1
  O  O15  1  0.58472232  0.20795971  0.69500329  1
  O  O16  1  0.01938906  0.83207008  0.69497735  1
  O  O17  1  0.51936064  0.83202248  0.69495569  1
  O  O18  1  0.39716752  0.82741840  0.19337251  1
  O  O19  1  0.89696340  0.82710258  0.19390560  1
  O  O20  1  0.01741245  0.20591922  0.19372810  1
  O  O21  1  0.51808495  0.20724541  0.19421446  1
  O  O22  1  0.08527631  0.96329443  0.19419320  1
  O  O23  1  0.58641113  0.96620909  0.19386877  1
  O  O24  1  0.43994562  0.36926889  0.64205656  1
  O  O25  1  0.93988565  0.36921947  0.64209801  1
  O  O26  1  0.24497027  0.12024587  0.64207660  1
  O  O27  1  0.74499977  0.12032588  0.64207032  1
  O  O28  1  0.31439581  0.50748662  0.64028736  1
  O  O29  1  0.81436180  0.50747087  0.64026993  1
  O  O30  1  0.43459414  0.50426651  0.13853082  1
  O  O31  1  0.93946094  0.50972524  0.14159007  1
  O  O32  1  0.31763454  0.13162020  0.13873805  1
  O  O33  1  0.81430790  0.12199294  0.13975924  1
  O  O34  1  0.24789376  0.36520169  0.13858623  1
  O  O35  1  0.74535361  0.36952130  0.14158293  1
  O  O36  1  0.23064326  0.30075397  0.02678519  1
  O  O37  1  0.72985338  0.30019241  0.02736004  1
  O  O38  1  0.41975113  0.53902250  0.02686489  1
  O  O39  1  0.92030477  0.53993485  0.02728556  1
  O  O40  1  0.34952987  0.15998038  0.02682998  1
  O  O41  1  0.85009571  0.15912367  0.02641125  1
  O  O42  1  0.23040071  0.16035140  0.52774807  1
  O  O43  1  0.73035783  0.16031923  0.52774433  1
  O  O44  1  0.35004706  0.54054947  0.52685841  1
  O  O45  1  0.84998598  0.54054914  0.52687029  1
  O  O46  1  0.41980732  0.30049478  0.52769985  1
  O  O47  1  0.91984937  0.30043382  0.52777204  1
  O  O48  1  0.26768084  0.69832729  0.97219480  1
  O  O49  1  0.76814991  0.69851346  0.97182077  1
  O  O50  1  0.08175736  0.46515032  0.97128572  1
  O  O51  1  0.58158087  0.46540317  0.97143084  1
  O  O52  1  0.15125005  0.83715060  0.97132324  1
  O  O53  1  0.65076332  0.83616061  0.97140085  1
  O  O54  1  0.26796110  0.83739717  0.47180506  1
  O  O55  1  0.76788806  0.83740653  0.47202208  1
  O  O56  1  0.15081221  0.46415212  0.47196373  1
  O  O57  1  0.65085343  0.46522342  0.47123825  1
  O  O58  1  0.08164635  0.69811618  0.47130457  1
  O  O59  1  0.58133629  0.69856973  0.47195488  1
  O  O60  1  0.06239559  0.63512089  0.35841301  1
  O  O61  1  0.56306835  0.63294367  0.36007196  1
  O  O62  1  0.25331645  0.87324435  0.35986688  1
  O  O63  1  0.75397438  0.87373942  0.36017720  1
  O  O64  1  0.18311296  0.49206596  0.36005715  1
  O  O65  1  0.68228474  0.48973402  0.35830697  1
  O  O66  1  0.06230955  0.49022106  0.85872402  1
  O  O67  1  0.56184389  0.48966656  0.85863056  1
  O  O68  1  0.18253522  0.87561415  0.85861580  1
  O  O69  1  0.68237347  0.87555127  0.85857514  1
  O  O70  1  0.25378543  0.63329540  0.86036249  1
  O  O71  1  0.75383287  0.63347610  0.86017693  1
  O  O72  1  0.01324856  0.83313535  0.40865986  1
  O  O73  1  0.51327567  0.83195527  0.40895590  1
  O  O74  1  0.40293987  0.97333879  0.40868397  1
  O  O75  1  0.90282707  0.97346896  0.40908565  1
  O  O76  1  0.08387904  0.19403501  0.40915775  1
  O  O77  1  0.58353456  0.19375302  0.40876022  1
  O  O78  1  0.01348512  0.19383786  0.90899022  1
  O  O79  1  0.51309421  0.19369047  0.90892717  1
  O  O80  1  0.08366451  0.97363943  0.90928710  1
  O  O81  1  0.58358566  0.97350876  0.90915257  1
  O  O82  1  0.40298804  0.83260729  0.90922793  1
  O  O83  1  0.90296884  0.83260644  0.90900883  1
  O  O84  1  0.48904655  0.16708462  0.59055132  1
  O  O85  1  0.98903756  0.16702980  0.59057566  1
  O  O86  1  0.09463154  0.02262139  0.59075565  1
  O  O87  1  0.59458430  0.02262551  0.59074799  1
  O  O88  1  0.41675302  0.81050458  0.59035915  1
  O  O89  1  0.91670937  0.81049960  0.59035484  1
  O  O90  1  0.48818610  0.81023978  0.09078040  1
  O  O91  1  0.98974304  0.81238885  0.09051450  1
  O  O92  1  0.41683534  0.02290239  0.09119807  1
  O  O93  1  0.91682367  0.02244899  0.08986021  1
  O  O94  1  0.09491195  0.16661372  0.09092848  1
  O  O95  1  0.59387043  0.16608311  0.09045899  1
  O  O96  1  0.34578073  0.16685108  0.74461909  1
  O  O97  1  0.84584976  0.16692460  0.74460256  1
  O  O98  1  0.23794740  0.30413417  0.74417709  1
  O  O99  1  0.73794188  0.30414058  0.74412075  1
  O  O100  1  0.41608689  0.51962304  0.74405435  1
  O  O101  1  0.91613017  0.51969158  0.74406910  1
  O  O102  1  0.34645965  0.52734033  0.24219542  1
  O  O103  1  0.84601886  0.52462854  0.24426523  1
  O  O104  1  0.41631843  0.30767557  0.24263289  1
  O  O105  1  0.91683661  0.31194528  0.24389069  1
  O  O106  1  0.23742051  0.16720080  0.24251511  1
  O  O107  1  0.73683948  0.17067673  0.24401587  1
  O  O108  1  0.32197393  0.49965969  0.92431352  1
  O  O109  1  0.82219760  0.49937469  0.92430493  1
  O  O110  1  0.42780595  0.35611450  0.92390278  1
  O  O111  1  0.92789879  0.35647528  0.92390307  1
  O  O112  1  0.25040070  0.14435910  0.92401215  1
  O  O113  1  0.75031621  0.14437499  0.92387306  1
  O  O114  1  0.32214206  0.14459793  0.42415225  1
  O  O115  1  0.82214224  0.14479605  0.42440660  1
  O  O116  1  0.25038545  0.35577149  0.42415214  1
  O  O117  1  0.75008740  0.35597749  0.42385612  1
  O  O118  1  0.42758620  0.49933465  0.42407700  1
  O  O119  1  0.92797632  0.49968697  0.42388000  1
  O  O120  1  0.18016247  0.49953466  0.07585904  1
  O  O121  1  0.67890369  0.49733660  0.07497535  1
  O  O122  1  0.06980191  0.64162051  0.07471436  1
  O  O123  1  0.56967184  0.64005371  0.07592626  1
  O  O124  1  0.25035978  0.86080900  0.07586926  1
  O  O125  1  0.75124124  0.86060178  0.07470070  1
  O  O126  1  0.17911640  0.86019474  0.57544188  1
  O  O127  1  0.67918216  0.86031777  0.57548981  1
  O  O128  1  0.25107576  0.64213767  0.57518062  1
  O  O129  1  0.75099785  0.64196612  0.57510002  1
  O  O130  1  0.06995632  0.49844246  0.57541197  1
  O  O131  1  0.56995056  0.49818756  0.57536155  1
  O  O132  1  0.15357001  0.83176305  0.25741817  1
  O  O133  1  0.65430854  0.83057583  0.25747805  1
  O  O134  1  0.26111058  0.68943267  0.25727908  1
  O  O135  1  0.75957411  0.68511079  0.25725599  1
  O  O136  1  0.08254602  0.47899927  0.25717158  1
  O  O137  1  0.58409791  0.47468551  0.25749835  1
  O  O138  1  0.15259513  0.47608157  0.75788822  1
  O  O139  1  0.65263667  0.47621398  0.75789300  1
  O  O140  1  0.08303903  0.69039523  0.75748732  1
  O  O141  1  0.58301230  0.69032647  0.75740747  1
  O  O142  1  0.25961532  0.83358016  0.75741104  1
  O  O143  1  0.75963403  0.83353796  0.75738460  1
loop_
_geom_bond_atom_site_label_1
_geom_bond_atom_site_label_2
_geom_bond_distance
_geom_bond_site_symmetry_2
Na0 O107 2.302230 1_555
Na0 O137 2.348228 1_555
Na0 O135 2.394043 1_555
Na0 O103 2.433269 1_555
Na0 O35 2.626463 1_555
Na0 O65 2.660190 1_555
Na0 O21 2.778190 1_555
Na0 O1 2.797131 1_555
Na1 O103 2.339256 1_555
Na1 O132 2.354145 1_655
Na1 O136 2.397007 1_655
Na1 O105 2.399212 1_555
Na1 O31 2.624578 1_555
Na1 O60 2.661686 1_655
Na1 O22 2.780190 1_655
Na1 O3 2.801169 1_555
Na2 O138 2.337502 1_655
Na2 O97 2.338741 1_555
Na2 O101 2.406716 1_555
Na2 O140 2.443928 1_655
Na2 O25 2.591388 1_555
Na2 O66 2.694594 1_655
Na2 O14 2.735115 1_655
Na2 O11 2.810122 1_555
Na3 O139 2.337273 1_555
Na3 O96 2.340414 1_555
Na3 O100 2.407186 1_555
Na3 O141 2.442749 1_555
Na3 O24 2.593611 1_555
Na3 O67 2.688347 1_555
Na3 O15 2.736066 1_555
Na3 O10 2.810784 1_555
Na4 O98 2.317749 1_565
Na4 O140 2.360933 1_555
Na4 O142 2.400947 1_555
Na4 O96 2.441410 1_565
Na4 O26 2.597616 1_565
Na4 O68 2.685522 1_555
Na4 O16 2.730421 1_555
Na4 O6 2.810386 1_565
Na5 O99 2.318341 1_565
Na5 O141 2.360648 1_555
Na5 O143 2.401094 1_555
Na5 O97 2.442845 1_565
Na5 O27 2.601422 1_565
Na5 O69 2.680948 1_555
Na5 O17 2.732358 1_555
Na5 O7 2.808598 1_565
Na6 O89 2.477573 1_555
Na6 O85 2.482484 1_565
Na6 O86 2.484724 1_665
Na6 O76 2.639886 1_665
Na6 O72 2.641290 1_655
Na6 O75 2.642026 1_555
Na7 O88 2.475825 1_555
Na7 O84 2.479362 1_565
Na7 O87 2.485076 1_565
Na7 O73 2.645119 1_555
Na7 O77 2.646340 1_565
Na7 O74 2.646936 1_555
Na8 O93 2.452745 1_565
Na8 O91 2.466331 1_555
Na8 O94 2.491557 1_665
Na8 O83 2.639075 1_554
Na8 O80 2.647032 1_654
Na8 O78 2.651377 1_664
Na9 O95 2.463098 1_555
Na9 O90 2.489486 1_545
Na9 O92 2.493706 1_555
Na9 O81 2.633256 1_544
Na9 O79 2.639391 1_554
Na9 O82 2.646505 1_544
Na10 O108 2.496282 1_555
Na10 O110 2.529223 1_555
Na10 O100 2.530812 1_555
Na10 O112 2.533072 1_555
Na10 O98 2.538207 1_555
Na10 O96 2.579287 1_555
Na11 O109 2.486332 1_555
Na11 O113 2.521936 1_555
Na11 O111 2.524604 1_555
Na11 O101 2.540083 1_555
Na11 O99 2.544208 1_555
Na11 O97 2.586460 1_555
Na12 O116 2.470437 1_555
Na12 O118 2.471706 1_555
Na12 O114 2.477657 1_555
Na12 O104 2.634511 1_555
Na12 O106 2.637053 1_555
Na12 O102 2.651845 1_555
Na13 O115 2.486295 1_555
Na13 O119 2.523662 1_555
Na13 O117 2.524820 1_555
Na13 O105 2.549086 1_555
Na13 O107 2.556306 1_555
Na13 O103 2.596928 1_555
Na14 O134 2.478240 1_555
Na14 O136 2.501344 1_555
Na14 O132 2.522090 1_555
Na14 O120 2.601873 1_555
Na14 O124 2.616275 1_555
Na14 O122 2.661306 1_555
Na15 O133 2.469822 1_555
Na15 O135 2.502197 1_555
Na15 O137 2.543050 1_555
Na15 O123 2.609438 1_555
Na15 O125 2.611814 1_555
Na15 O121 2.662616 1_555
Na16 O142 2.527688 1_555
Na16 O138 2.544216 1_555
Na16 O128 2.550519 1_555
Na16 O140 2.590446 1_555
Na16 O126 2.592753 1_555
Na16 O130 2.592965 1_555
Na17 O143 2.526027 1_555
Na17 O139 2.541858 1_555
Na17 O129 2.553203 1_555
Na17 O141 2.587637 1_555
Na17 O127 2.594160 1_555
Na17 O131 2.595565 1_555
Ga0 O89 1.962369 1_555
Ga0 O85 1.971387 1_565
Ga0 O86 1.972883 1_665
Ga0 O13 1.975548 1_555
Ga0 O16 1.991577 1_655
Ga0 O14 2.012486 1_665
Ga1 O88 1.962393 1_555
Ga1 O84 1.973114 1_565
Ga1 O87 1.973824 1_565
Ga1 O12 1.975121 1_555
Ga1 O17 1.990424 1_555
Ga1 O15 2.011756 1_565
Ga2 O19 1.943128 1_545
Ga2 O20 1.943644 1_655
Ga2 O93 1.977919 1_555
Ga2 O22 1.997241 1_645
Ga2 O91 2.005889 1_545
Ga2 O94 2.013130 1_655
Ga3 O23 1.938312 1_555
Ga3 O18 1.959925 1_555
Ga3 O21 1.969316 1_565
Ga3 O95 1.989399 1_565
Ga3 O90 1.994229 1_555
Ga3 O92 2.015412 1_565
Ga4 O28 1.881698 1_555
Ga4 O24 1.938443 1_555
Ga4 O26 1.941859 1_555
Ga4 O100 2.064242 1_555
Ga4 O98 2.075507 1_555
Ga4 O96 2.149616 1_555
Ga5 O29 1.881765 1_555
Ga5 O25 1.938052 1_555
Ga5 O27 1.941668 1_555
Ga5 O101 2.064591 1_555
Ga5 O99 2.073924 1_555
Ga5 O97 2.149574 1_555
Ga6 O33 1.893509 1_555
Ga6 O31 1.969080 1_555
Ga6 O35 1.974967 1_555
Ga6 O105 2.031090 1_555
Ga6 O107 2.042580 1_555
Ga6 O103 2.118448 1_555
Ga7 O38 1.940814 1_556
Ga7 O36 1.945803 1_556
Ga7 O40 1.946490 1_556
Ga7 O110 2.005765 1_555
Ga7 O108 2.005829 1_555
Ga7 O112 2.010883 1_555
Ga8 O41 1.929493 1_556
Ga8 O37 1.935766 1_556
Ga8 O39 1.939083 1_556
Ga8 O109 2.031490 1_555
Ga8 O113 2.033194 1_555
Ga8 O111 2.037377 1_555
Ga9 O44 1.936968 1_555
Ga9 O42 1.941566 1_555
Ga9 O46 1.942957 1_555
Ga9 O116 2.020198 1_555
Ga9 O118 2.023150 1_555
Ga9 O114 2.025884 1_555
Ga10 O45 1.936789 1_555
Ga10 O47 1.944387 1_555
Ga10 O43 1.946939 1_555
Ga10 O115 2.020906 1_555
Ga10 O119 2.025106 1_555
Ga10 O117 2.029121 1_555
Ga11 O64 1.905945 1_555
Ga11 O62 1.923106 1_555
Ga11 O60 1.972960 1_555
Ga11 O134 1.994190 1_555
Ga11 O136 2.041289 1_555
Ga11 O132 2.066416 1_555
Ga12 O63 1.905329 1_555
Ga12 O61 1.916383 1_555
Ga12 O133 1.974501 1_555
Ga12 O65 1.984523 1_555
Ga12 O135 2.041835 1_555
Ga12 O137 2.066758 1_555
Ga13 O70 1.892088 1_555
Ga13 O68 1.952400 1_555
Ga13 O66 1.953466 1_555
Ga13 O138 2.008555 1_555
Ga13 O142 2.008624 1_555
Ga13 O140 2.086700 1_555
Ga14 O71 1.891715 1_555
Ga14 O69 1.947389 1_555
Ga14 O67 1.953517 1_555
Ga14 O139 2.013308 1_555
Ga14 O143 2.014211 1_555
Ga14 O141 2.087140 1_555
O0 P0 1.558845 1_545
O0 Ta0 1.996563 1_455
O1 P1 1.594570 1_545
O1 Ta1 1.973387 1_545
O2 P2 1.561801 1_555
O2 Ta1 1.979713 1_555
O3 P3 1.583452 1_555
O3 Ta0 1.986155 1_565
O4 P5 1.559154 1_555
O4 Ta1 1.997970 1_545
O5 P4 1.581135 1_655
O5 Ta0 1.954800 1_555
O6 P6 1.593710 1_555
O6 Ta2 1.983701 1_445
O7 P7 1.593596 1_555
O7 Ta3 1.982476 1_545
O8 P9 1.579663 1_555
O8 Ta3 1.964252 1_555
O9 P8 1.580692 1_555
O9 Ta2 1.962033 1_555
O10 P10 1.587101 1_545
O10 Ta3 1.976193 1_545
O11 P11 1.589249 1_545
O11 Ta2 1.971428 1_545
O12 P10 1.503176 1_555
O13 P11 1.502810 1_555
O14 P6 1.520663 1_555
O15 P7 1.521648 1_555
O16 P8 1.516658 1_455
O17 P9 1.516501 1_555
O18 P2 1.511926 1_555
O19 P3 1.512087 1_555
O20 P4 1.515857 1_555
O21 P5 1.521427 1_555
O22 P0 1.517802 1_555
O23 P1 1.523973 1_555
O24 P12 1.554025 1_555
O25 P13 1.555575 1_555
O26 P14 1.554803 1_555
O27 P15 1.555315 1_555
O28 P16 1.540229 1_555
O29 P17 1.540763 1_555
O30 P18 1.573276 1_555
O30 Ta4 1.958741 1_555
O31 P19 1.543258 1_555
O32 P20 1.572096 1_555
O32 Ta4 1.972622 1_555
O33 P21 1.529857 1_555
O34 P22 1.574333 1_555
O34 Ta4 1.958163 1_555
O35 P23 1.542177 1_555
O36 P22 1.512065 1_555
O37 P23 1.519887 1_555
O38 P18 1.511230 1_555
O39 P19 1.520997 1_555
O40 P20 1.512287 1_555
O41 P21 1.522966 1_555
O42 P14 1.515966 1_555
O43 P15 1.512968 1_555
O44 P16 1.517349 1_555
O45 P17 1.514328 1_555
O46 P12 1.515858 1_555
O47 P13 1.512957 1_555
O48 P24 1.557356 1_555
O48 Ta5 1.995527 1_556
O49 P25 1.558663 1_555
O49 Ta6 1.973374 1_556
O50 P26 1.561516 1_555
O50 Ta5 1.980682 1_556
O51 P27 1.552698 1_555
O51 Ta6 2.004205 1_556
O52 P28 1.557404 1_555
O52 Ta5 1.980517 1_556
O53 P29 1.554936 1_555
O53 Ta6 2.002999 1_556
O54 P30 1.559527 1_555
O54 Ta7 1.986087 1_555
O55 P31 1.558408 1_555
O55 Ta8 1.984565 1_555
O56 P32 1.557515 1_555
O56 Ta7 1.985879 1_555
O57 P33 1.557855 1_555
O57 Ta8 1.991250 1_555
O58 P34 1.559663 1_555
O58 Ta7 1.991559 1_555
O59 P35 1.556779 1_555
O59 Ta8 1.990164 1_555
O60 P34 1.538155 1_555
O61 P35 1.522041 1_555
O62 P30 1.526688 1_555
O63 P31 1.523843 1_555
O64 P32 1.525138 1_555
O65 P33 1.536295 1_555
O66 P26 1.539913 1_555
O67 P27 1.539312 1_555
O68 P28 1.538732 1_555
O69 P29 1.541809 1_555
O70 P24 1.529167 1_555
O71 P25 1.530565 1_555
O72 P34 1.577934 1_555
O72 Ta0 1.995257 1_465
O73 P35 1.581992 1_555
O73 Ta1 1.969847 1_555
O74 P30 1.578951 1_555
O74 Ta1 1.982769 1_555
O75 P31 1.579311 1_555
O75 Ta0 1.971923 1_565
O76 P32 1.577533 1_555
O76 Ta0 1.977133 1_455
O77 P33 1.582271 1_555
O77 Ta1 1.979403 1_545
O78 P26 1.574755 1_555
O78 Ta2 1.992213 1_445
O79 P27 1.576598 1_555
O79 Ta3 1.990464 1_545
O80 P28 1.572280 1_555
O80 Ta2 1.991664 1_455
O81 P29 1.579060 1_555
O81 Ta3 1.984084 1_555
O82 P24 1.574680 1_555
O82 Ta3 1.986214 1_555
O83 P25 1.574910 1_555
O83 Ta2 1.981407 1_555
O84 P12 1.527354 1_555
O85 P13 1.529095 1_555
O86 P14 1.527785 1_555
O87 P15 1.529193 1_555
O88 P16 1.528945 1_555
O89 P17 1.529648 1_555
O90 P18 1.515672 1_555
O91 P19 1.528457 1_555
O92 P20 1.516863 1_555
O93 P21 1.529187 1_555
O94 P22 1.509941 1_555
O95 P23 1.533856 1_555
O96 P10 1.560757 1_545
O97 P11 1.559906 1_545
O98 P6 1.540786 1_555
O99 P7 1.540140 1_555
O100 P9 1.538765 1_555
O101 P8 1.537714 1_555
O102 P2 1.580108 1_555
O102 Ta4 1.982769 1_555
O103 P3 1.561064 1_555
O104 P5 1.562406 1_555
O104 Ta4 1.997182 1_555
O105 P4 1.549922 1_655
O106 P0 1.563749 1_545
O106 Ta4 1.995506 1_555
O107 P1 1.551088 1_545
O108 P24 1.511622 1_555
O109 P25 1.506856 1_555
O110 P27 1.513987 1_555
O111 P26 1.507431 1_655
O112 P28 1.512165 1_545
O113 P29 1.510857 1_545
O114 P30 1.514631 1_545
O115 P31 1.510927 1_545
O116 P32 1.514769 1_555
O117 P33 1.512137 1_555
O118 P35 1.514354 1_555
O119 P34 1.512108 1_655
O120 P22 1.577859 1_555
O120 Ta5 1.986048 1_555
O121 P23 1.599835 1_555
O121 Ta6 1.953877 1_555
O122 P19 1.604480 1_455
O122 Ta5 1.947936 1_555
O123 P18 1.571674 1_555
O123 Ta6 1.993522 1_555
O124 P20 1.579347 1_565
O124 Ta5 1.984830 1_555
O125 P21 1.598868 1_565
O125 Ta6 1.947101 1_555
O126 P14 1.591638 1_565
O126 Ta7 1.972446 1_555
O127 P15 1.593296 1_565
O127 Ta8 1.970087 1_555
O128 P16 1.591976 1_555
O128 Ta7 1.966745 1_555
O129 P17 1.593393 1_555
O129 Ta8 1.964614 1_555
O130 P13 1.592151 1_455
O130 Ta7 1.972941 1_555
O131 P12 1.592029 1_555
O131 Ta8 1.971097 1_555
O132 P0 1.537956 1_555
O133 P1 1.527083 1_555
O134 P2 1.525041 1_555
O135 P3 1.538937 1_555
O136 P4 1.553093 1_555
O137 P5 1.533391 1_555
O138 P6 1.545674 1_555
O139 P7 1.545810 1_555
O140 P8 1.565237 1_455
O141 P9 1.565571 1_555
O142 P10 1.545261 1_555
O143 P11 1.544418 1_555
