# generated using pymatgen
data_Ag2HgO2
_symmetry_space_group_name_H-M   'P 1'
_cell_length_a   6.22383338
_cell_length_b   6.22383338
_cell_length_c   8.39465045
_cell_angle_alpha   90.00000000
_cell_angle_beta   90.00000000
_cell_angle_gamma   90.00000000
_symmetry_Int_Tables_number   1
_chemical_formula_structural   Ag2HgO2
_chemical_formula_sum   'Ag8 Hg4 O8'
_cell_volume   325.17603560
_cell_formula_units_Z   4
loop_
 _symmetry_equiv_pos_site_id
 _symmetry_equiv_pos_as_xyz
  1  'x, y, z'
loop_
 _atom_site_type_symbol
 _atom_site_label
 _atom_site_symmetry_multiplicity
 _atom_site_fract_x
 _atom_site_fract_y
 _atom_site_fract_z
 _atom_site_occupancy
  Ag  Ag0  1  0.49917402  0.74543703  0.62818559  1
  Ag  Ag1  1  0.99917402  0.75456297  0.62181441  1
  Ag  Ag2  1  0.24543703  0.00082598  0.87818559  1
  Ag  Ag3  1  0.75456297  0.99917402  0.37818559  1
  Ag  Ag4  1  0.25456297  0.50082598  0.87181441  1
  Ag  Ag5  1  0.00082598  0.24543703  0.12181441  1
  Ag  Ag6  1  0.50082598  0.25456297  0.12818559  1
  Ag  Ag7  1  0.74543703  0.49917402  0.37181441  1
  Hg  Hg0  1  0.21113803  0.21113803  0.50000000  1
  Hg  Hg1  1  0.28886197  0.71113803  0.25000000  1
  Hg  Hg2  1  0.71113803  0.28886197  0.75000000  1
  Hg  Hg3  1  0.78886197  0.78886197  -0.00000000  1
  O  O0  1  0.24892680  0.62162557  0.48534021  1
  O  O1  1  0.75107320  0.37837443  0.98534021  1
  O  O2  1  0.62162557  0.24892680  0.51465979  1
  O  O3  1  0.12162557  0.25107320  0.73534021  1
  O  O4  1  0.74892680  0.87837443  0.76465979  1
  O  O5  1  0.37837443  0.75107320  0.01465979  1
  O  O6  1  0.87837443  0.74892680  0.23534021  1
  O  O7  1  0.25107320  0.12162557  0.26465979  1
loop_
_geom_bond_atom_site_label_1
_geom_bond_atom_site_label_2
_geom_bond_distance
_geom_bond_site_symmetry_2
Ag0 O4 2.100786 1_555
Ag0 O0 2.111285 1_555
Ag1 O0 2.100786 1_655
Ag1 O4 2.111285 1_555
Ag2 O5 2.100786 1_546
Ag2 O3 2.111285 1_555
Ag3 O2 2.100786 1_565
Ag3 O6 2.111285 1_555
Ag4 O3 2.100786 1_555
Ag4 O5 2.111285 1_556
Ag5 O1 2.100786 1_454
Ag5 O7 2.111285 1_555
Ag6 O7 2.100786 1_555
Ag6 O1 2.111285 1_554
Ag7 O6 2.100786 1_555
Ag7 O2 2.111285 1_555
Hg0 O3 2.067641 1_555
Hg0 O7 2.067641 1_555
Hg0 O0 2.568559 1_555
Hg0 O2 2.568559 1_555
Hg1 O5 2.067641 1_555
Hg1 O0 2.067641 1_555
Hg1 O6 2.568559 1_455
Hg1 O7 2.568559 1_565
Hg2 O2 2.067641 1_555
Hg2 O1 2.067641 1_555
Hg2 O3 2.568559 1_655
Hg2 O4 2.568559 1_545
Hg3 O4 2.067641 1_554
Hg3 O6 2.067641 1_555
Hg3 O5 2.568559 1_555
Hg3 O1 2.568559 1_554
