# generated using pymatgen
data_Na2Ca5Ti3(SO4)12
_symmetry_space_group_name_H-M   'P 1'
_cell_length_a   17.93411018
_cell_length_b   8.99237107
_cell_length_c   23.46153165
_cell_angle_alpha   90.16709389
_cell_angle_beta   89.87251974
_cell_angle_gamma   120.16234706
_symmetry_Int_Tables_number   1
_chemical_formula_structural   Na2Ca5Ti3(SO4)12
_chemical_formula_sum   'Na6 Ca15 Ti9 S36 O144'
_cell_volume   3271.34414886
_cell_formula_units_Z   3
loop_
 _symmetry_equiv_pos_site_id
 _symmetry_equiv_pos_as_xyz
  1  'x, y, z'
loop_
 _atom_site_type_symbol
 _atom_site_label
 _atom_site_symmetry_multiplicity
 _atom_site_fract_x
 _atom_site_fract_y
 _atom_site_fract_z
 _atom_site_occupancy
  Na  Na0  1  0.00150924  0.00136786  0.50046920  1
  Na  Na1  1  0.50213365  0.00441263  0.00034692  1
  Na  Na2  1  0.33451939  0.33596765  0.83013057  1
  Na  Na3  1  0.83195773  0.33156526  0.83254470  1
  Na  Na4  1  0.33395205  0.33587719  0.33589790  1
  Na  Na5  1  0.83285239  0.33004283  0.33310537  1
  Ca  Ca0  1  0.00543537  0.00299161  0.35650915  1
  Ca  Ca1  1  0.50060362  0.00003207  0.85756968  1
  Ca  Ca2  1  0.00097798  0.00047176  0.64581410  1
  Ca  Ca3  1  0.50097177  0.00251062  0.14747678  1
  Ca  Ca4  1  0.32895089  0.32974337  0.67856181  1
  Ca  Ca5  1  0.83782097  0.33724753  0.68163164  1
  Ca  Ca6  1  0.82729456  0.32685740  0.17997346  1
  Ca  Ca7  1  0.32682545  0.32916516  0.98383530  1
  Ca  Ca8  1  0.83995634  0.33801502  0.98540564  1
  Ca  Ca9  1  0.34020871  0.34153820  0.48553727  1
  Ca  Ca10  1  0.82751392  0.32546468  0.48420090  1
  Ca  Ca11  1  0.16350392  0.66513088  0.30641674  1
  Ca  Ca12  1  0.67095590  0.66518057  0.30740236  1
  Ca  Ca13  1  0.17359620  0.67636409  0.80780431  1
  Ca  Ca14  1  0.65984962  0.65687879  0.80621511  1
  Ti  Ti0  1  0.50136988  0.99600686  0.35829259  1
  Ti  Ti1  1  0.99782403  0.99777267  0.85123861  1
  Ti  Ti2  1  0.49879638  0.99880291  0.65050167  1
  Ti  Ti3  1  0.99826597  0.00255997  0.14889145  1
  Ti  Ti4  1  0.33681351  0.33745797  0.18309039  1
  Ti  Ti5  1  0.16139156  0.67168145  0.01566497  1
  Ti  Ti6  1  0.67199158  0.66837444  0.01616862  1
  Ti  Ti7  1  0.16818711  0.66477341  0.51886534  1
  Ti  Ti8  1  0.66561204  0.67156712  0.52185712  1
  S  S0  1  0.15042444  0.01807803  0.24271504  1
  S  S1  1  0.64315942  0.01011625  0.25618229  1
  S  S2  1  0.35893412  0.69786988  0.25064185  1
  S  S3  1  0.86115463  0.71551340  0.24688938  1
  S  S4  1  0.99640504  0.27999289  0.24722619  1
  S  S5  1  0.48977957  0.28083985  0.25068415  1
  S  S6  1  0.14398915  0.27821868  0.75510249  1
  S  S7  1  0.64323988  0.28012839  0.74689640  1
  S  S8  1  0.99550433  0.71132825  0.75463030  1
  S  S9  1  0.49621904  0.71302515  0.74704312  1
  S  S10  1  0.35992153  0.00744923  0.74738056  1
  S  S11  1  0.85980513  0.00904114  0.75447446  1
  S  S12  1  0.49014411  0.33241102  0.58305873  1
  S  S13  1  0.99070947  0.34516722  0.57856633  1
  S  S14  1  0.18240080  0.01946306  0.57734397  1
  S  S15  1  0.67618733  0.01980234  0.58418782  1
  S  S16  1  0.33372528  0.64816580  0.58349915  1
  S  S17  1  0.82756106  0.63591300  0.57844835  1
  S  S18  1  0.48318827  0.61881499  0.08292108  1
  S  S19  1  0.98917977  0.64696482  0.08351501  1
  S  S20  1  0.32658972  0.03413126  0.08240171  1
  S  S21  1  0.83339697  0.01952478  0.08347550  1
  S  S22  1  0.18416110  0.33548110  0.08807160  1
  S  S23  1  0.68202165  0.34378657  0.07739222  1
  S  S24  1  0.30857422  0.67118771  0.92196207  1
  S  S25  1  0.81413323  0.67525263  0.91460291  1
  S  S26  1  0.02604250  0.37370201  0.91592956  1
  S  S27  1  0.52429110  0.38087584  0.92084657  1
  S  S28  1  0.16005630  0.95001505  0.91540730  1
  S  S29  1  0.66669986  0.95009623  0.92103964  1
  S  S30  1  0.31607442  0.95536222  0.41370501  1
  S  S31  1  0.80866659  0.94645615  0.42087314  1
  S  S32  1  0.16761375  0.38279505  0.42030019  1
  S  S33  1  0.66048110  0.36807918  0.41458542  1
  S  S34  1  0.02462296  0.66690558  0.42038740  1
  S  S35  1  0.52375874  0.67730712  0.41475356  1
  O  O0  1  0.12202200  0.05689991  0.29641529  1
  O  O1  1  0.58931007  0.02235975  0.30592223  1
  O  O2  1  0.41432666  0.77932510  0.30216130  1
  O  O3  1  0.90966923  0.79355599  0.29924589  1
  O  O4  1  0.47401472  0.16770659  0.30129698  1
  O  O5  1  0.98733784  0.18339925  0.29936384  1
  O  O6  1  0.09183353  0.16331564  0.80634328  1
  O  O7  1  0.60523469  0.18521788  0.79961531  1
  O  O8  1  0.48672858  0.78901079  0.79988726  1
  O  O9  1  0.98952770  0.81486144  0.80617360  1
  O  O10  1  0.40733248  0.02543116  0.80003324  1
  O  O11  1  0.91736320  0.02039592  0.80604083  1
  O  O12  1  0.41211671  0.00266755  0.69616253  1
  O  O13  1  0.89896567  0.99515562  0.70198198  1
  O  O14  1  0.09887533  0.20112973  0.70219459  1
  O  O15  1  0.58851705  0.17546809  0.69603656  1
  O  O16  1  0.00220985  0.80227187  0.70205532  1
  O  O17  1  0.49859256  0.82211185  0.69619356  1
  O  O18  1  0.39625116  0.79790637  0.19924956  1
  O  O19  1  0.91350097  0.82449293  0.19569029  1
  O  O20  1  0.99883920  0.17500433  0.19582834  1
  O  O21  1  0.50308727  0.20921680  0.19860716  1
  O  O22  1  0.09147163  0.99870793  0.19492551  1
  O  O23  1  0.59888808  0.99669835  0.20271143  1
  O  O24  1  0.45653341  0.37994586  0.63221294  1
  O  O25  1  0.95739930  0.37790338  0.63132918  1
  O  O26  1  0.23103688  0.08456803  0.63037660  1
  O  O27  1  0.73433576  0.08744864  0.63300364  1
  O  O28  1  0.30967158  0.53451306  0.63291531  1
  O  O29  1  0.81119964  0.53549392  0.63062553  1
  O  O30  1  0.43465805  0.50330733  0.13468170  1
  O  O31  1  0.95599460  0.53286265  0.13250901  1
  O  O32  1  0.31662205  0.12731553  0.13341710  1
  O  O33  1  0.81057126  0.08579358  0.13320963  1
  O  O34  1  0.24745298  0.36644394  0.13592873  1
  O  O35  1  0.73054539  0.37726205  0.13046369  1
  O  O36  1  0.21254526  0.28703398  0.03680446  1
  O  O37  1  0.72485459  0.31535446  0.02896982  1
  O  O38  1  0.42979951  0.54370200  0.03273936  1
  O  O39  1  0.93416419  0.58137773  0.03325676  1
  O  O40  1  0.34295665  0.13780676  0.03154009  1
  O  O41  1  0.85685115  0.13231961  0.03408151  1
  O  O42  1  0.22489362  0.13318851  0.52896795  1
  O  O43  1  0.70965643  0.12631712  0.53361743  1
  O  O44  1  0.35668829  0.58078240  0.53401911  1
  O  O45  1  0.84031817  0.55372950  0.52880597  1
  O  O46  1  0.43508356  0.28803528  0.53289504  1
  O  O47  1  0.93497509  0.31912426  0.52999120  1
  O  O48  1  0.25529879  0.67721661  0.97248191  1
  O  O49  1  0.76978943  0.69509611  0.96736160  1
  O  O50  1  0.07918803  0.46651074  0.96969703  1
  O  O51  1  0.58118575  0.48868757  0.97044598  1
  O  O52  1  0.15119479  0.83718400  0.96764853  1
  O  O53  1  0.66441884  0.84280521  0.97246377  1
  O  O54  1  0.27674944  0.85073383  0.46574605  1
  O  O55  1  0.75483574  0.83578138  0.47146352  1
  O  O56  1  0.16601661  0.48615124  0.47141497  1
  O  O57  1  0.64686237  0.44841926  0.46587529  1
  O  O58  1  0.08104348  0.67407578  0.46976182  1
  O  O59  1  0.57468561  0.70167690  0.46767578  1
  O  O60  1  0.06285505  0.65597470  0.36664803  1
  O  O61  1  0.56338236  0.65316912  0.36469463  1
  O  O62  1  0.26332541  0.87858272  0.36327425  1
  O  O63  1  0.76378875  0.86734218  0.36826513  1
  O  O64  1  0.17200171  0.47276717  0.36791859  1
  O  O65  1  0.67467740  0.46934320  0.36348726  1
  O  O66  1  0.06580738  0.48064087  0.86652966  1
  O  O67  1  0.56252472  0.46807009  0.86746696  1
  O  O68  1  0.17563942  0.87565958  0.86527605  1
  O  O69  1  0.67141899  0.86898057  0.86861995  1
  O  O70  1  0.26492127  0.66000705  0.86887901  1
  O  O71  1  0.76064852  0.64616878  0.86491561  1
  O  O72  1  0.02063708  0.82698763  0.42382031  1
  O  O73  1  0.51728770  0.84084493  0.40676859  1
  O  O74  1  0.40276050  0.96376529  0.40373614  1
  O  O75  1  0.89318675  0.95656327  0.42458066  1
  O  O76  1  0.08729214  0.21430207  0.42418387  1
  O  O77  1  0.57793912  0.19288314  0.40512321  1
  O  O78  1  0.02194827  0.20413543  0.91062236  1
  O  O79  1  0.52064714  0.21362432  0.92495886  1
  O  O80  1  0.07911692  0.95629322  0.91066544  1
  O  O81  1  0.58648235  0.95775374  0.92519711  1
  O  O82  1  0.39298854  0.83025629  0.92625042  1
  O  O83  1  0.89935183  0.83861314  0.90829040  1
  O  O84  1  0.50581151  0.18845805  0.59723059  1
  O  O85  1  0.00550344  0.19931655  0.58308110  1
  O  O86  1  0.09355108  0.98622551  0.58202620  1
  O  O87  1  0.58878918  0.99048732  0.59788223  1
  O  O88  1  0.40773711  0.82344461  0.59818419  1
  O  O89  1  0.89976783  0.81279900  0.58331382  1
  O  O90  1  0.49552948  0.79067935  0.09212299  1
  O  O91  1  0.00561024  0.82312841  0.09728813  1
  O  O92  1  0.39845431  0.00413890  0.09148242  1
  O  O93  1  0.90863374  0.99402884  0.09751324  1
  O  O94  1  0.09719960  0.18729341  0.10423932  1
  O  O95  1  0.59306702  0.19824446  0.08161461  1
  O  O96  1  0.35044850  0.15945262  0.74082856  1
  O  O97  1  0.85676046  0.16988083  0.75686902  1
  O  O98  1  0.22835791  0.28712895  0.75733461  1
  O  O99  1  0.72916856  0.29947808  0.73996957  1
  O  O100  1  0.41999044  0.54081787  0.74050047  1
  O  O101  1  0.91505706  0.54324320  0.75686820  1
  O  O102  1  0.35260560  0.52059032  0.24175596  1
  O  O103  1  0.85135777  0.54418189  0.24027605  1
  O  O104  1  0.40714637  0.29323684  0.24153426  1
  O  O105  1  0.91995952  0.29844313  0.24058057  1
  O  O106  1  0.23843544  0.17506809  0.22958103  1
  O  O107  1  0.72769068  0.17068984  0.25850512  1
  O  O108  1  0.31715506  0.51812913  0.92700861  1
  O  O109  1  0.82860834  0.53023874  0.92327983  1
  O  O110  1  0.43836414  0.36143971  0.92643499  1
  O  O111  1  0.93880280  0.34637353  0.92385372  1
  O  O112  1  0.23386224  0.12207120  0.92471450  1
  O  O113  1  0.74331404  0.12225944  0.92610779  1
  O  O114  1  0.33375918  0.13277391  0.42110860  1
  O  O115  1  0.81768433  0.11743813  0.42596489  1
  O  O116  1  0.24379501  0.36261136  0.42505640  1
  O  O117  1  0.73195572  0.33453349  0.42170636  1
  O  O118  1  0.43487325  0.53397071  0.42103665  1
  O  O119  1  0.93810193  0.51493745  0.42548441  1
  O  O120  1  0.17655246  0.48991897  0.07941743  1
  O  O121  1  0.67630353  0.50412773  0.06450149  1
  O  O122  1  0.07623952  0.66405381  0.06710155  1
  O  O123  1  0.56776823  0.62828566  0.07688930  1
  O  O124  1  0.24512293  0.86403686  0.07408020  1
  O  O125  1  0.75807881  0.84496274  0.06921586  1
  O  O126  1  0.17663116  0.84830321  0.56468137  1
  O  O127  1  0.66417576  0.84150191  0.57003277  1
  O  O128  1  0.25833376  0.67139238  0.56871459  1
  O  O129  1  0.74685807  0.65011456  0.56663311  1
  O  O130  1  0.07871974  0.50425417  0.56777512  1
  O  O131  1  0.57695539  0.48782900  0.56705382  1
  O  O132  1  0.15983493  0.86725303  0.24523211  1
  O  O133  1  0.65060677  0.85951251  0.26431917  1
  O  O134  1  0.27236513  0.66602092  0.25996942  1
  O  O135  1  0.77904356  0.71088016  0.24503283  1
  O  O136  1  0.07662735  0.44404219  0.24508645  1
  O  O137  1  0.56028297  0.45357790  0.26025108  1
  O  O138  1  0.15094139  0.44402410  0.76297139  1
  O  O139  1  0.64547817  0.44382050  0.74519040  1
  O  O140  1  0.07135228  0.69696161  0.76271227  1
  O  O141  1  0.57655703  0.71014778  0.74509315  1
  O  O142  1  0.27793710  0.84729214  0.74487940  1
  O  O143  1  0.77647700  0.85769382  0.76289218  1
loop_
_geom_bond_atom_site_label_1
_geom_bond_atom_site_label_2
_geom_bond_distance
_geom_bond_site_symmetry_2
Na0 O76 2.506788 1_555
Na0 O75 2.516147 1_445
Na0 O72 2.516314 1_545
Na0 O86 2.577995 1_545
Na0 O85 2.604346 1_555
Na0 O89 2.622352 1_445
Na1 O79 2.483350 1_554
Na1 O81 2.488898 1_544
Na1 O82 2.494985 1_544
Na1 O95 2.543813 1_555
Na1 O92 2.829648 1_555
Na1 O90 2.852813 1_545
Na2 O98 2.429925 1_555
Na2 O100 2.708449 1_555
Na2 O96 2.724777 1_555
Na2 O110 2.865834 1_555
Na2 O112 2.898368 1_555
Na2 O108 2.904150 1_555
Na3 O97 2.468881 1_555
Na3 O101 2.480702 1_555
Na3 O99 2.771017 1_555
Na3 O109 2.795026 1_555
Na3 O113 2.808943 1_555
Na3 O111 2.835290 1_555
Na4 O118 2.682234 1_555
Na4 O102 2.684959 1_555
Na4 O104 2.694342 1_555
Na4 O114 2.710588 1_555
Na4 O116 2.724032 1_555
Na4 O106 2.959055 1_555
Na5 O107 2.440881 1_555
Na5 O117 2.766433 1_555
Na5 O105 2.767821 1_555
Na5 O119 2.805020 1_555
Na5 O103 2.817892 1_555
Na5 O115 2.823918 1_555
Ca0 O3 2.246480 1_445
Ca0 O5 2.253538 1_455
Ca0 O76 2.340156 1_555
Ca0 O72 2.350168 1_545
Ca0 O0 2.359424 1_555
Ca0 O75 2.433598 1_445
Ca1 O7 2.237123 1_555
Ca1 O8 2.237459 1_545
Ca1 O10 2.251264 1_555
Ca1 O79 2.368342 1_555
Ca1 O81 2.374209 1_545
Ca1 O82 2.385718 1_545
Ca2 O14 2.213809 1_555
Ca2 O16 2.229696 1_545
Ca2 O13 2.233308 1_445
Ca2 O89 2.282994 1_445
Ca2 O86 2.283414 1_545
Ca2 O85 2.288898 1_555
Ca3 O21 2.193595 1_555
Ca3 O23 2.206467 1_545
Ca3 O18 2.217710 1_545
Ca3 O90 2.263609 1_545
Ca3 O92 2.268098 1_555
Ca3 O95 2.301483 1_555
Ca4 O96 2.288353 1_555
Ca4 O100 2.293554 1_555
Ca4 O28 2.304347 1_555
Ca4 O26 2.307844 1_555
Ca4 O24 2.361223 1_555
Ca4 O98 2.472165 1_555
Ca5 O99 2.260852 1_555
Ca5 O25 2.308433 1_555
Ca5 O27 2.365789 1_555
Ca5 O29 2.389205 1_555
Ca5 O101 2.424705 1_555
Ca5 O97 2.455242 1_555
Ca6 O103 2.268502 1_555
Ca6 O105 2.299635 1_555
Ca6 O33 2.308036 1_555
Ca6 O35 2.316820 1_555
Ca6 O31 2.388107 1_555
Ca6 O107 2.457094 1_555
Ca7 O40 2.193246 1_556
Ca7 O38 2.205681 1_556
Ca7 O108 2.237273 1_555
Ca7 O112 2.246505 1_555
Ca7 O36 2.258221 1_556
Ca7 O110 2.303500 1_555
Ca8 O37 2.217300 1_556
Ca8 O111 2.255875 1_555
Ca8 O39 2.276535 1_556
Ca8 O113 2.306400 1_555
Ca8 O41 2.322584 1_556
Ca8 O109 2.350175 1_555
Ca9 O42 2.221150 1_555
Ca9 O46 2.279307 1_555
Ca9 O118 2.284363 1_555
Ca9 O44 2.314700 1_555
Ca9 O116 2.319680 1_555
Ca9 O114 2.364006 1_555
Ca10 O45 2.208193 1_555
Ca10 O47 2.234181 1_555
Ca10 O115 2.247662 1_555
Ca10 O43 2.283909 1_555
Ca10 O117 2.290351 1_555
Ca10 O119 2.310835 1_555
Ca11 O134 2.230254 1_555
Ca11 O60 2.258730 1_555
Ca11 O62 2.282805 1_555
Ca11 O136 2.308912 1_555
Ca11 O64 2.319040 1_555
Ca11 O132 2.346121 1_555
Ca12 O133 2.204877 1_555
Ca12 O65 2.229164 1_555
Ca12 O137 2.232981 1_555
Ca12 O63 2.251579 1_555
Ca12 O135 2.293047 1_555
Ca12 O61 2.306578 1_555
Ca13 O138 2.184637 1_555
Ca13 O140 2.206100 1_555
Ca13 O68 2.225164 1_555
Ca13 O70 2.238552 1_555
Ca13 O142 2.270300 1_555
Ca13 O66 2.305676 1_555
Ca14 O143 2.207840 1_555
Ca14 O67 2.240406 1_555
Ca14 O141 2.291248 1_555
Ca14 O139 2.297037 1_555
Ca14 O71 2.315316 1_555
Ca14 O69 2.326338 1_555
O0 S0 1.463533 1_555
O1 S1 1.551673 1_555
O1 Ti0 1.915900 1_545
O2 S2 1.501123 1_555
O2 Ti0 2.214799 1_555
O3 S3 1.464422 1_555
O4 S5 1.497153 1_555
O4 Ti0 2.277901 1_545
O5 S4 1.463073 1_555
O6 S6 1.555251 1_555
O6 Ti1 1.909748 1_445
O7 S7 1.463096 1_555
O8 S9 1.464226 1_555
O9 S8 1.560055 1_555
O9 Ti1 1.894736 1_555
O10 S10 1.463029 1_555
O11 S11 1.561592 1_555
O11 Ti1 1.884449 1_545
O12 S10 1.535316 1_555
O12 Ti2 1.900536 1_545
O13 S11 1.452216 1_565
O14 S6 1.453208 1_555
O15 S7 1.530765 1_555
O15 Ti2 1.919154 1_545
O16 S8 1.452979 1_455
O17 S9 1.533617 1_555
O17 Ti2 1.917758 1_555
O18 S2 1.452128 1_555
O19 S3 1.536858 1_555
O19 Ti3 1.907143 1_565
O20 S4 1.543338 1_555
O20 Ti3 1.895115 1_555
O21 S5 1.453672 1_555
O22 S0 1.491426 1_565
O22 Ti3 2.007041 1_465
O23 S1 1.458086 1_565
O24 S12 1.459094 1_555
O25 S13 1.465340 1_555
O26 S14 1.462560 1_555
O27 S15 1.460488 1_555
O28 S16 1.461642 1_555
O29 S17 1.462416 1_555
O30 S18 1.550905 1_555
O30 Ti4 1.991095 1_555
O31 S19 1.455492 1_555
O32 S20 1.520001 1_555
O32 Ti4 2.088443 1_555
O33 S21 1.457106 1_555
O34 S22 1.520815 1_555
O34 Ti4 2.071213 1_555
O35 S23 1.462079 1_555
O36 S22 1.453526 1_555
O37 S23 1.462149 1_555
O38 S18 1.452448 1_555
O39 S19 1.458783 1_555
O40 S20 1.452309 1_555
O41 S21 1.457610 1_555
O42 S14 1.460999 1_555
O43 S15 1.452966 1_555
O44 S16 1.459083 1_555
O45 S17 1.455575 1_555
O46 S12 1.458050 1_555
O47 S13 1.456371 1_555
O48 S24 1.538613 1_555
O48 Ti5 1.942609 1_556
O49 S25 1.527538 1_555
O49 Ti6 2.003582 1_556
O50 S26 1.547936 1_555
O50 Ti5 2.000657 1_556
O51 S27 1.529642 1_555
O51 Ti6 1.940886 1_556
O52 S28 1.549612 1_555
O52 Ti5 1.949779 1_556
O53 S29 1.534613 1_555
O53 Ti6 1.937592 1_556
O54 S30 1.486411 1_555
O54 Ti7 2.206765 1_555
O55 S31 1.538690 1_555
O55 Ti8 1.940665 1_555
O56 S32 1.524103 1_555
O56 Ti7 1.935921 1_555
O57 S33 1.483424 1_555
O57 Ti8 2.274475 1_555
O58 S34 1.519576 1_555
O58 Ti7 1.979048 1_555
O59 S35 1.492039 1_555
O59 Ti8 2.191632 1_555
O60 S34 1.460337 1_555
O61 S35 1.442651 1_555
O62 S30 1.454443 1_555
O63 S31 1.449556 1_555
O64 S32 1.453440 1_555
O65 S33 1.450267 1_555
O66 S26 1.445776 1_555
O67 S27 1.454308 1_555
O68 S28 1.445767 1_555
O69 S29 1.451923 1_555
O70 S24 1.448641 1_555
O71 S25 1.448627 1_555
O72 S34 1.478685 1_555
O73 S35 1.544155 1_555
O73 Ti0 1.932032 1_555
O74 S30 1.535495 1_555
O74 Ti0 1.956131 1_555
O75 S31 1.474977 1_555
O76 S32 1.478501 1_555
O77 S33 1.542222 1_555
O77 Ti0 1.944088 1_545
O78 S26 1.494105 1_555
O78 Ti1 2.180064 1_445
O79 S27 1.475672 1_555
O80 S28 1.485174 1_555
O80 Ti1 2.183371 1_455
O81 S29 1.477429 1_555
O82 S24 1.473701 1_555
O83 S25 1.503265 1_555
O83 Ti1 2.102270 1_555
O84 S12 1.494527 1_555
O84 Ti2 2.069434 1_545
O85 S13 1.467097 1_455
O86 S14 1.470128 1_565
O87 S15 1.487457 1_565
O87 Ti2 2.060665 1_555
O88 S16 1.503776 1_555
O88 Ti2 2.017412 1_555
O89 S17 1.466201 1_555
O90 S18 1.462395 1_555
O91 S19 1.493007 1_455
O91 Ti3 2.070753 1_465
O92 S20 1.459475 1_555
O93 S21 1.514908 1_565
O93 Ti3 1.981675 1_565
O94 S22 1.504584 1_555
O94 Ti3 2.011250 1_455
O95 S23 1.472973 1_555
O96 S10 1.468171 1_555
O97 S11 1.475426 1_555
O98 S6 1.475489 1_555
O99 S7 1.470078 1_555
O100 S9 1.470602 1_555
O101 S8 1.475671 1_555
O102 S2 1.553721 1_555
O102 Ti4 2.050952 1_555
O103 S3 1.468106 1_555
O104 S5 1.556363 1_555
O104 Ti4 2.035733 1_555
O105 S4 1.470071 1_555
O106 S0 1.529846 1_555
O106 Ti4 1.961287 1_555
O107 S1 1.478626 1_555
O108 S24 1.464904 1_555
O109 S25 1.466718 1_555
O110 S27 1.466653 1_555
O111 S26 1.468135 1_655
O112 S28 1.461116 1_545
O113 S29 1.469988 1_545
O114 S30 1.471759 1_545
O115 S31 1.467505 1_545
O116 S32 1.470374 1_555
O117 S33 1.466908 1_555
O118 S35 1.469523 1_555
O119 S34 1.469269 1_655
O120 S22 1.476721 1_555
O120 Ti5 2.333518 1_555
O121 S23 1.527146 1_555
O121 Ti6 1.896897 1_555
O122 S19 1.538261 1_455
O122 Ti5 1.918375 1_555
O123 S18 1.482384 1_555
O123 Ti6 2.228721 1_555
O124 S20 1.505360 1_565
O124 Ti5 2.123761 1_555
O125 S21 1.506237 1_565
O125 Ti6 1.996878 1_555
O126 S14 1.518330 1_565
O126 Ti7 1.908223 1_555
O127 S15 1.541926 1_565
O127 Ti8 1.908580 1_555
O128 S16 1.509422 1_555
O128 Ti7 1.973929 1_555
O129 S17 1.541319 1_555
O129 Ti8 1.885289 1_555
O130 S13 1.527482 1_455
O130 Ti7 1.910195 1_555
O131 S12 1.527099 1_555
O131 Ti8 1.935240 1_555
O132 S0 1.449821 1_565
O133 S1 1.439361 1_565
O134 S2 1.446485 1_555
O135 S3 1.452850 1_555
O136 S4 1.454626 1_455
O137 S5 1.444816 1_555
O138 S6 1.443727 1_555
O139 S7 1.452893 1_555
O140 S8 1.442516 1_455
O141 S9 1.454579 1_555
O142 S10 1.453065 1_565
O143 S11 1.442549 1_565
