# generated using pymatgen
data_KCoH6(N3O4)2
_symmetry_space_group_name_H-M   'P 1'
_cell_length_a   6.84614600
_cell_length_b   11.43857600
_cell_length_c   12.99027300
_cell_angle_alpha   90.00000000
_cell_angle_beta   90.00000000
_cell_angle_gamma   90.00000000
_symmetry_Int_Tables_number   1
_chemical_formula_structural   KCoH6(N3O4)2
_chemical_formula_sum   'K4 Co4 H24 N24 O32'
_cell_volume   1017.27037433
_cell_formula_units_Z   4
loop_
 _symmetry_equiv_pos_site_id
 _symmetry_equiv_pos_as_xyz
  1  'x, y, z'
loop_
 _atom_site_type_symbol
 _atom_site_label
 _atom_site_symmetry_multiplicity
 _atom_site_fract_x
 _atom_site_fract_y
 _atom_site_fract_z
 _atom_site_occupancy
  K  K0  1  0.81319700  0.63385500  0.02326700  1
  K  K1  1  0.31319700  0.86614500  0.97673300  1
  K  K2  1  0.18680300  0.13385500  0.47673300  1
  K  K3  1  0.68680300  0.36614500  0.52326700  1
  Co  Co0  1  0.74361900  0.91563100  0.68958900  1
  Co  Co1  1  0.24361900  0.58436900  0.31041100  1
  Co  Co2  1  0.25638100  0.41563100  0.81041100  1
  Co  Co3  1  0.75638100  0.08436900  0.18958900  1
  H  H0  1  0.93717500  0.19092800  0.04616000  1
  H  H1  1  0.43717500  0.30907200  0.95384000  1
  H  H2  1  0.06282500  0.69092800  0.45384000  1
  H  H3  1  0.56282500  0.80907200  0.54616000  1
  H  H4  1  0.89489300  0.28356600  0.14169100  1
  H  H5  1  0.39489300  0.21643400  0.85830900  1
  H  H6  1  0.10510700  0.78356600  0.35830900  1
  H  H7  1  0.60510700  0.71643400  0.64169100  1
  H  H8  1  0.07269700  0.60133400  0.79390100  1
  H  H9  1  0.57269700  0.89866600  0.20609900  1
  H  H10  1  0.06119700  0.99695300  0.76156400  1
  H  H11  1  0.56119700  0.50304700  0.23843600  1
  H  H12  1  0.93880300  0.49695300  0.73843600  1
  H  H13  1  0.43880300  0.00304700  0.26156400  1
  H  H14  1  0.87058100  0.05502300  0.82364800  1
  H  H15  1  0.37058100  0.44497700  0.17635200  1
  H  H16  1  0.12941900  0.55502300  0.67635200  1
  H  H17  1  0.62941900  0.94497700  0.32364800  1
  H  H18  1  0.43168100  0.81835300  0.65311000  1
  H  H19  1  0.93168100  0.68164700  0.34689000  1
  H  H20  1  0.56831900  0.31835300  0.84689000  1
  H  H21  1  0.06831900  0.18164700  0.15311000  1
  H  H22  1  0.92730300  0.10133400  0.70609900  1
  H  H23  1  0.42730300  0.39866600  0.29390100  1
  N  N0  1  0.52508700  0.97833900  0.77176400  1
  N  N1  1  0.02508700  0.52166100  0.22823600  1
  N  N2  1  0.47491300  0.47833900  0.72823600  1
  N  N3  1  0.97491300  0.02166100  0.27176400  1
  N  N4  1  0.67957000  0.02817100  0.57951600  1
  N  N5  1  0.17957000  0.47182900  0.42048400  1
  N  N6  1  0.32043000  0.52817100  0.92048400  1
  N  N7  1  0.82043000  0.97182900  0.07951600  1
  N  N8  1  0.29359600  0.69176500  0.19720500  1
  N  N9  1  0.79359600  0.80823500  0.80279500  1
  N  N10  1  0.54113300  0.14847800  0.11108300  1
  N  N11  1  0.04113300  0.35152200  0.88891700  1
  N  N12  1  0.45886700  0.64847800  0.38891700  1
  N  N13  1  0.95886700  0.85152200  0.61108300  1
  N  N14  1  0.93098900  0.19873600  0.12497200  1
  N  N15  1  0.43098900  0.30126400  0.87502800  1
  N  N16  1  0.06901100  0.69873600  0.37502800  1
  N  N17  1  0.56901100  0.80126400  0.62497200  1
  N  N18  1  0.57790900  0.97087400  0.25315500  1
  N  N19  1  0.07790900  0.52912600  0.74684500  1
  N  N20  1  0.42209100  0.47087400  0.24684500  1
  N  N21  1  0.92209100  0.02912600  0.75315500  1
  N  N22  1  0.70640400  0.19176500  0.30279500  1
  N  N23  1  0.20640400  0.30823500  0.69720500  1
  O  O0  1  0.55680500  0.04874100  0.84357600  1
  O  O1  1  0.05680500  0.45125900  0.15642400  1
  O  O2  1  0.44319500  0.54874100  0.65642400  1
  O  O3  1  0.94319500  0.95125900  0.34357600  1
  O  O4  1  0.35432300  0.94223100  0.75648200  1
  O  O5  1  0.85432300  0.55776900  0.24351800  1
  O  O6  1  0.64567700  0.44223100  0.74351800  1
  O  O7  1  0.14567700  0.05776900  0.25648200  1
  O  O8  1  0.53545200  0.01028800  0.52304600  1
  O  O9  1  0.03545200  0.48971200  0.47695400  1
  O  O10  1  0.46454800  0.51028800  0.97695400  1
  O  O11  1  0.96454800  0.98971200  0.02304600  1
  O  O12  1  0.77939000  0.11947000  0.56877900  1
  O  O13  1  0.27939000  0.38053000  0.43122100  1
  O  O14  1  0.22061000  0.61947000  0.93122100  1
  O  O15  1  0.72061000  0.88053000  0.06877900  1
  O  O16  1  0.84607700  0.24809900  0.34129600  1
  O  O17  1  0.34607700  0.25190100  0.65870400  1
  O  O18  1  0.15392300  0.74809900  0.15870400  1
  O  O19  1  0.65392300  0.75190100  0.84129600  1
  O  O20  1  0.97267900  0.74283100  0.60233700  1
  O  O21  1  0.03798400  0.29597400  0.66193600  1
  O  O22  1  0.46201600  0.70402600  0.16193600  1
  O  O23  1  0.96201600  0.79597400  0.83806400  1
  O  O24  1  0.41858900  0.08236600  0.07059400  1
  O  O25  1  0.91858900  0.41763400  0.92940600  1
  O  O26  1  0.58141100  0.58236600  0.42940600  1
  O  O27  1  0.08141100  0.91763400  0.57059400  1
  O  O28  1  0.52732100  0.25716900  0.10233700  1
  O  O29  1  0.02732100  0.24283100  0.89766300  1
  O  O30  1  0.47267900  0.75716900  0.39766300  1
  O  O31  1  0.53798400  0.20402600  0.33806400  1
loop_
_geom_bond_atom_site_label_1
_geom_bond_atom_site_label_2
_geom_bond_distance
_geom_bond_site_symmetry_2
K0 O10 2.838491 1_554
K0 O25 2.850310 1_554
K0 O19 2.932585 1_554
K0 O15 2.951746 1_555
K0 O5 3.003786 1_555
K0 O14 3.039155 1_654
K0 O22 3.109576 1_555
K0 O1 3.183694 1_655
K0 O18 3.200681 1_655
K0 O23 3.203891 1_554
K1 O11 2.838491 1_456
K1 O24 2.850310 1_566
K1 O18 2.932585 1_556
K1 O14 2.951746 1_555
K1 O4 3.003786 1_555
K1 O15 3.039155 1_556
K1 O23 3.109576 1_455
K1 O0 3.183694 1_565
K1 O19 3.200681 1_555
K1 O22 3.203891 1_556
K2 O8 2.838491 1_555
K2 O27 2.850310 1_545
K2 O17 2.932585 1_555
K2 O13 2.951746 1_555
K2 O7 3.003786 1_555
K2 O12 3.039155 1_455
K2 O31 3.109576 1_555
K2 O3 3.183694 1_445
K2 O16 3.200681 1_455
K2 O21 3.203891 1_555
K3 O9 2.838491 1_655
K3 O26 2.850310 1_555
K3 O16 2.932585 1_555
K3 O12 2.951746 1_555
K3 O6 3.003786 1_555
K3 O13 3.039155 1_555
K3 O21 3.109576 1_655
K3 O2 3.183694 1_555
K3 O17 3.200681 1_555
K3 O31 3.203891 1_555
Co0 N13 1.936318 1_555
Co0 N9 1.946476 1_555
Co0 N17 1.960846 1_555
Co0 N21 1.964721 1_565
Co0 N0 1.972899 1_555
Co0 N4 1.973312 1_565
Co1 N12 1.936318 1_555
Co1 N8 1.946476 1_555
Co1 N16 1.960846 1_555
Co1 N20 1.964721 1_555
Co1 N1 1.972899 1_555
Co1 N5 1.973312 1_555
Co2 N11 1.936318 1_555
Co2 N23 1.946476 1_555
Co2 N15 1.960846 1_555
Co2 N19 1.964721 1_555
Co2 N2 1.972899 1_555
Co2 N6 1.973312 1_555
Co3 N10 1.936318 1_555
Co3 N22 1.946476 1_555
Co3 N14 1.960846 1_555
Co3 N18 1.964721 1_545
Co3 N3 1.972899 1_555
Co3 N7 1.973312 1_545
H0 N14 1.028550 1_555
H1 N15 1.028550 1_555
H2 N16 1.028550 1_555
H3 N17 1.028550 1_555
H4 N14 1.024590 1_555
H5 N15 1.024590 1_555
H6 N16 1.024590 1_555
H7 N17 1.024590 1_555
H8 N19 1.028168 1_555
H9 N18 1.028168 1_555
H10 N21 1.026800 1_465
H11 N20 1.026800 1_555
H12 N19 1.026800 1_655
H13 N18 1.026800 1_545
H14 N21 1.025016 1_555
H15 N20 1.025016 1_555
H16 N19 1.025016 1_555
H17 N18 1.025016 1_555
H18 N17 1.027500 1_555
H19 N16 1.027500 1_655
H20 N15 1.027500 1_555
H21 N14 1.027500 1_455
H22 N21 1.028168 1_555
H23 N20 1.028168 1_555
N0 O0 1.251352 1_565
N0 O4 1.255681 1_555
N1 O1 1.251352 1_555
N1 O5 1.255681 1_455
N2 O2 1.251352 1_555
N2 O6 1.255681 1_555
N3 O3 1.251352 1_545
N3 O7 1.255681 1_655
N4 O8 1.246370 1_555
N4 O12 1.255823 1_555
N5 O9 1.246370 1_555
N5 O13 1.255823 1_555
N6 O10 1.246370 1_555
N6 O14 1.255823 1_555
N7 O11 1.246370 1_555
N7 O15 1.255823 1_555
N8 O22 1.248618 1_555
N8 O18 1.256871 1_555
N9 O23 1.248618 1_555
N9 O19 1.256871 1_555
N10 O24 1.245938 1_555
N10 O28 1.252026 1_555
N11 O25 1.245938 1_455
N11 O29 1.252026 1_555
N12 O26 1.245938 1_555
N12 O30 1.252026 1_555
N13 O27 1.245938 1_655
N13 O20 1.252026 1_555
N22 O31 1.248618 1_555
N22 O16 1.256871 1_555
N23 O21 1.248618 1_555
N23 O17 1.256871 1_555
