# generated using pymatgen
data_CuH6CN2O3
_symmetry_space_group_name_H-M   'P 1'
_cell_length_a   10.96202700
_cell_length_b   5.83442400
_cell_length_c   7.62831871
_cell_angle_alpha   85.45701627
_cell_angle_beta   90.00000000
_cell_angle_gamma   90.00000000
_symmetry_Int_Tables_number   1
_chemical_formula_structural   CuH6CN2O3
_chemical_formula_sum   'Cu4 H24 C4 N8 O12'
_cell_volume   486.35240333
_cell_formula_units_Z   4
loop_
 _symmetry_equiv_pos_site_id
 _symmetry_equiv_pos_as_xyz
  1  'x, y, z'
loop_
 _atom_site_type_symbol
 _atom_site_label
 _atom_site_symmetry_multiplicity
 _atom_site_fract_x
 _atom_site_fract_y
 _atom_site_fract_z
 _atom_site_occupancy
  Cu  Cu0  1  0.57448200  0.13940200  0.31037300  1
  Cu  Cu1  1  0.07448200  0.86059800  0.18962700  1
  Cu  Cu2  1  0.42551800  0.86059800  0.68962700  1
  Cu  Cu3  1  0.92551800  0.13940200  0.81037300  1
  H  H0  1  0.60605400  0.70752500  0.25758000  1
  H  H1  1  0.10605400  0.29247500  0.24242000  1
  H  H2  1  0.39394600  0.29247500  0.74242000  1
  H  H3  1  0.89394600  0.70752500  0.75758000  1
  H  H4  1  0.47081500  0.74864000  0.34003300  1
  H  H5  1  0.97081500  0.25136000  0.15996700  1
  H  H6  1  0.52918500  0.25136000  0.65996700  1
  H  H7  1  0.02918500  0.74864000  0.84003300  1
  H  H8  1  0.49197200  0.80376300  0.12867400  1
  H  H9  1  0.99197200  0.19623700  0.37132600  1
  H  H10  1  0.50802800  0.19623700  0.87132600  1
  H  H11  1  0.00802800  0.80376300  0.62867400  1
  H  H12  1  0.40660100  0.39111700  0.16357500  1
  H  H13  1  0.90660100  0.60888300  0.33642500  1
  H  H14  1  0.59339900  0.60888300  0.83642500  1
  H  H15  1  0.09339900  0.39111700  0.66357500  1
  H  H16  1  0.34538600  0.14877600  0.24469600  1
  H  H17  1  0.84538600  0.85122400  0.25530400  1
  H  H18  1  0.65461400  0.85122400  0.75530400  1
  H  H19  1  0.15461400  0.14877600  0.74469600  1
  H  H20  1  0.37542400  0.35961000  0.37550200  1
  H  H21  1  0.87542400  0.64039000  0.12449800  1
  H  H22  1  0.62457600  0.64039000  0.62449800  1
  H  H23  1  0.12457600  0.35961000  0.87550200  1
  C  C0  1  0.74324300  0.26462200  0.95944200  1
  C  C1  1  0.24324300  0.73537800  0.54055800  1
  C  C2  1  0.25675700  0.73537800  0.04055800  1
  C  C3  1  0.75675700  0.26462200  0.45944200  1
  N  N0  1  0.53281900  0.81694900  0.24905200  1
  N  N1  1  0.03281900  0.18305100  0.25094800  1
  N  N2  1  0.46718100  0.18305100  0.75094800  1
  N  N3  1  0.96718100  0.81694900  0.74905200  1
  N  N4  1  0.40730100  0.27379400  0.27171900  1
  N  N5  1  0.90730100  0.72620600  0.22828100  1
  N  N6  1  0.59269900  0.72620600  0.72828100  1
  N  N7  1  0.09269900  0.27379400  0.77171900  1
  O  O0  1  0.74640200  0.07091400  0.38335700  1
  O  O1  1  0.24640200  0.92908600  0.11664300  1
  O  O2  1  0.25359800  0.92908600  0.61664300  1
  O  O3  1  0.75359800  0.07091400  0.88335700  1
  O  O4  1  0.85530600  0.33125100  0.52511700  1
  O  O5  1  0.35530600  0.66874900  0.97488300  1
  O  O6  1  0.14469400  0.66874900  0.47488300  1
  O  O7  1  0.64469400  0.33125100  0.02511700  1
  O  O8  1  0.65410000  0.38333600  0.45761300  1
  O  O9  1  0.15410000  0.61666400  0.04238700  1
  O  O10  1  0.34590000  0.61666400  0.54238700  1
  O  O11  1  0.84590000  0.38333600  0.95761300  1
loop_
_geom_bond_atom_site_label_1
_geom_bond_atom_site_label_2
_geom_bond_distance
_geom_bond_site_symmetry_2
Cu0 O0 1.996517 1_555
Cu0 N4 2.005919 1_555
Cu0 N0 2.026377 1_545
Cu0 O8 2.074143 1_555
Cu0 O7 2.488878 1_555
Cu1 O1 1.996517 1_555
Cu1 N5 2.005919 1_455
Cu1 N1 2.026377 1_565
Cu1 O9 2.074143 1_555
Cu1 O6 2.488878 1_555
Cu2 O2 1.996517 1_555
Cu2 N6 2.005919 1_555
Cu2 N2 2.026377 1_565
Cu2 O10 2.074143 1_555
Cu2 O5 2.488878 1_555
Cu3 O3 1.996517 1_555
Cu3 N7 2.005919 1_655
Cu3 N3 2.026377 1_545
Cu3 O11 2.074143 1_555
Cu3 O4 2.488878 1_555
H0 N0 1.024566 1_555
H1 N1 1.024566 1_555
H2 N2 1.024566 1_555
H3 N3 1.024566 1_555
H4 N0 1.028921 1_555
H5 N1 1.028921 1_655
H6 N2 1.028921 1_555
H7 N3 1.028921 1_455
H8 N0 1.029974 1_555
H9 N1 1.029974 1_655
H10 N2 1.029974 1_555
H11 N3 1.029974 1_455
H12 N4 1.029424 1_555
H13 N5 1.029424 1_555
H14 N6 1.029424 1_555
H15 N7 1.029424 1_555
H16 N4 1.029078 1_555
H17 N5 1.029078 1_555
H18 N6 1.029078 1_555
H19 N7 1.029078 1_555
H20 N4 1.030708 1_555
H21 N5 1.030708 1_555
H22 N6 1.030708 1_555
H23 N7 1.030708 1_555
C0 O7 1.264913 1_556
C0 O3 1.315658 1_555
C0 O11 1.320894 1_555
C1 O6 1.264913 1_555
C1 O2 1.315658 1_555
C1 O10 1.320894 1_555
C2 O5 1.264913 1_554
C2 O1 1.315658 1_555
C2 O9 1.320894 1_555
C3 O4 1.264913 1_555
C3 O0 1.315658 1_555
C3 O8 1.320894 1_555
