# generated using pymatgen
data_SrH2Br2O7
_symmetry_space_group_name_H-M   'P 1'
_cell_length_a   7.61099557
_cell_length_b   7.61099557
_cell_length_c   9.00518380
_cell_angle_alpha   54.11146333
_cell_angle_beta   54.11146333
_cell_angle_gamma   61.58429573
_symmetry_Int_Tables_number   1
_chemical_formula_structural   SrH2Br2O7
_chemical_formula_sum   'Sr2 H4 Br4 O14'
_cell_volume   335.36670558
_cell_formula_units_Z   2
loop_
 _symmetry_equiv_pos_site_id
 _symmetry_equiv_pos_as_xyz
  1  'x, y, z'
loop_
 _atom_site_type_symbol
 _atom_site_label
 _atom_site_symmetry_multiplicity
 _atom_site_fract_x
 _atom_site_fract_y
 _atom_site_fract_z
 _atom_site_occupancy
  Sr  Sr0  1  0.64856600  0.35143400  0.75000000  1
  Sr  Sr1  1  0.35143400  0.64856600  0.25000000  1
  H  H0  1  0.28520600  0.78257600  0.63473300  1
  H  H1  1  0.21742400  0.71479400  0.86526700  1
  H  H2  1  0.71479400  0.21742400  0.36526700  1
  H  H3  1  0.78257600  0.28520600  0.13473300  1
  Br  Br0  1  0.21389700  0.17019200  0.80453600  1
  Br  Br1  1  0.82980800  0.78610300  0.69546400  1
  Br  Br2  1  0.78610300  0.82980800  0.19546400  1
  Br  Br3  1  0.17019200  0.21389700  0.30453600  1
  O  O0  1  0.32411600  0.67588400  0.75000000  1
  O  O1  1  0.67588400  0.32411600  0.25000000  1
  O  O2  1  0.09912800  0.27690100  0.48705800  1
  O  O3  1  0.72309900  0.90087200  0.01294200  1
  O  O4  1  0.90087200  0.72309900  0.51294200  1
  O  O5  1  0.27690100  0.09912800  0.98705800  1
  O  O6  1  0.25519300  0.93315900  0.39976800  1
  O  O7  1  0.06684100  0.74480700  0.10023200  1
  O  O8  1  0.74480700  0.06684100  0.60023200  1
  O  O9  1  0.93315900  0.25519300  0.89976800  1
  O  O10  1  0.40401200  0.31039900  0.12191800  1
  O  O11  1  0.68960100  0.59598800  0.37808200  1
  O  O12  1  0.59598800  0.68960100  0.87808200  1
  O  O13  1  0.31039900  0.40401200  0.62191800  1
loop_
_geom_bond_atom_site_label_1
_geom_bond_atom_site_label_2
_geom_bond_distance
_geom_bond_site_symmetry_2
H0 O0 0.983794 1_555
H1 O0 0.983794 1_555
H2 O1 0.983794 1_555
H3 O1 0.983794 1_555
Br0 O13 1.675575 1_555
Br0 O5 1.690856 1_555
Br0 O9 1.704696 1_455
Br1 O12 1.675575 1_555
Br1 O4 1.690856 1_555
Br1 O8 1.704696 1_565
Br2 O11 1.675575 1_555
Br2 O3 1.690856 1_555
Br2 O7 1.704696 1_655
Br3 O10 1.675575 1_555
Br3 O2 1.690856 1_555
Br3 O6 1.704696 1_545
O0 Sr0 2.528283 1_555
O1 Sr1 2.528283 1_555
O2 Sr0 2.809193 1_455
O2 Sr1 3.087118 1_555
O3 Sr0 2.809193 1_564
O3 Sr1 3.087118 1_555
O4 Sr1 2.809193 1_655
O4 Sr0 3.087118 1_555
O5 Sr1 2.809193 1_546
O5 Sr0 3.087118 1_555
O6 Sr1 2.793558 1_555
O7 Sr1 2.793558 1_555
O8 Sr0 2.793558 1_555
O9 Sr0 2.793558 1_555
O10 Sr0 2.607155 1_554
O10 Sr1 3.173947 1_555
O11 Sr0 2.607155 1_555
O11 Sr1 3.173947 1_555
O12 Sr1 2.607155 1_556
O12 Sr0 3.173947 1_555
O13 Sr1 2.607155 1_555
O13 Sr0 3.173947 1_555
