# generated using pymatgen
data_MgMn(CoO2)4
_symmetry_space_group_name_H-M   'P 1'
_cell_length_a   5.98806755
_cell_length_b   5.82632376
_cell_length_c   5.92023954
_cell_angle_alpha   92.02305882
_cell_angle_beta   62.18709148
_cell_angle_gamma   60.85927801
_symmetry_Int_Tables_number   1
_chemical_formula_structural   MgMn(CoO2)4
_chemical_formula_sum   'Mg1 Mn1 Co4 O8'
_cell_volume   150.06851136
_cell_formula_units_Z   1
loop_
 _symmetry_equiv_pos_site_id
 _symmetry_equiv_pos_as_xyz
  1  'x, y, z'
loop_
 _atom_site_type_symbol
 _atom_site_label
 _atom_site_symmetry_multiplicity
 _atom_site_fract_x
 _atom_site_fract_y
 _atom_site_fract_z
 _atom_site_occupancy
  Mg  Mg0  1  0.49999900  0.99999700  0.50000400  1
  Mn  Mn0  1  0.50000100  0.49999100  0.99999900  1
  Co  Co0  1  0.00000400  0.49999900  0.50000100  1
  Co  Co1  1  0.99999400  0.00000600  0.00000500  1
  Co  Co2  1  0.50000100  0.00000000  0.99999700  1
  Co  Co3  1  0.00000400  0.49999800  0.99999700  1
  O  O0  1  0.43944700  0.29004800  0.79136400  1
  O  O1  1  0.02608900  0.25507500  0.75424000  1
  O  O2  1  0.50220700  0.75272300  0.77817300  1
  O  O3  1  0.94787600  0.75377500  0.80390100  1
  O  O4  1  0.05212600  0.24622400  0.19610200  1
  O  O5  1  0.49779400  0.24728500  0.22182100  1
  O  O6  1  0.97390900  0.74492700  0.24576000  1
  O  O7  1  0.56054800  0.70995500  0.20863400  1
loop_
_geom_bond_atom_site_label_1
_geom_bond_atom_site_label_2
_geom_bond_distance
_geom_bond_site_symmetry_2
Mg0 O1 2.067864 1_565
Mg0 O6 2.067866 1_555
Mg0 O0 2.139270 1_565
Mg0 O7 2.139286 1_555
Mg0 O2 2.226456 1_555
Mg0 O5 2.226573 1_565
Mn0 O0 1.973972 1_555
Mn0 O7 1.974023 1_556
Mn0 O5 2.007946 1_556
Mn0 O2 2.008077 1_555
Mn0 O1 2.296829 1_655
Mn0 O6 2.296839 1_456
Co0 O3 2.087878 1_455
Co0 O4 2.087891 1_555
Co0 O1 2.116647 1_555
Co0 O6 2.116677 1_455
Co0 O5 2.176868 1_555
Co0 O2 2.176891 1_455
Co1 O4 2.039584 1_655
Co1 O3 2.039603 1_544
Co1 O6 2.125229 1_545
Co1 O1 2.125231 1_654
Co1 O5 2.192079 1_555
Co1 O2 2.192132 1_644
Co2 O2 1.905822 1_545
Co2 O5 1.905852 1_556
Co2 O4 1.956609 1_556
Co2 O3 1.956613 1_545
Co2 O0 2.116939 1_555
Co2 O7 2.116941 1_546
Co3 O1 1.897851 1_555
Co3 O6 1.897862 1_456
Co3 O3 1.908216 1_455
Co3 O4 1.908239 1_556
Co3 O0 1.916171 1_555
Co3 O7 1.916228 1_456
