# generated using pymatgen
data_Na6CaZr3Si2(PO6)4
_symmetry_space_group_name_H-M   'P 1'
_cell_length_a   9.23859761
_cell_length_b   9.25722965
_cell_length_c   22.77070771
_cell_angle_alpha   89.94889773
_cell_angle_beta   90.08949607
_cell_angle_gamma   120.05615643
_symmetry_Int_Tables_number   1
_chemical_formula_structural   Na6CaZr3Si2(PO6)4
_chemical_formula_sum   'Na18 Ca3 Zr9 Si6 P12 O72'
_cell_volume   1685.57345840
_cell_formula_units_Z   3
loop_
 _symmetry_equiv_pos_site_id
 _symmetry_equiv_pos_as_xyz
  1  'x, y, z'
loop_
 _atom_site_type_symbol
 _atom_site_label
 _atom_site_symmetry_multiplicity
 _atom_site_fract_x
 _atom_site_fract_y
 _atom_site_fract_z
 _atom_site_occupancy
  Na  Na0  1  0.99956071  0.99551829  0.50110365  1
  Na  Na1  1  0.99886795  0.99785913  0.99966523  1
  Na  Na2  1  0.64489119  0.29594046  0.83186627  1
  Na  Na3  1  0.64834082  0.32918627  0.32174319  1
  Na  Na4  1  0.32311083  0.66599841  0.16113391  1
  Na  Na5  1  0.32343788  0.66217392  0.66602072  1
  Na  Na6  1  0.65440848  0.01412172  0.24125512  1
  Na  Na7  1  0.98507245  0.62278242  0.23709002  1
  Na  Na8  1  0.63209954  0.62026617  0.74112282  1
  Na  Na9  1  0.99026222  0.37147383  0.74512276  1
  Na  Na10  1  0.66649729  0.97729847  0.58698251  1
  Na  Na11  1  0.66342881  0.67894201  0.07766038  1
  Na  Na12  1  0.02308555  0.34525936  0.08519273  1
  Na  Na13  1  0.97093151  0.66702508  0.91860943  1
  Na  Na14  1  0.33534031  0.30588511  0.91824190  1
  Na  Na15  1  0.96019046  0.28375803  0.40998811  1
  Na  Na16  1  0.33001424  0.03040113  0.41064970  1
  Na  Na17  1  0.71374955  0.68848059  0.41522433  1
  Ca  Ca0  1  0.00375909  0.00256933  0.34997200  1
  Ca  Ca1  1  0.65576270  0.32961567  0.68365335  1
  Ca  Ca2  1  0.65772168  0.32818341  0.17852184  1
  Zr  Zr0  1  0.99620789  0.99992906  0.85584168  1
  Zr  Zr1  1  0.00656075  0.99521580  0.64591974  1
  Zr  Zr2  1  0.01068472  0.00288664  0.14999685  1
  Zr  Zr3  1  0.66855129  0.33184946  0.98128398  1
  Zr  Zr4  1  0.66778618  0.33804841  0.48576625  1
  Zr  Zr5  1  0.33393138  0.67554671  0.01397683  1
  Zr  Zr6  1  0.33601941  0.66457390  0.52113563  1
  Zr  Zr7  1  0.33741611  0.66643176  0.31299076  1
  Zr  Zr8  1  0.33674154  0.67570063  0.81566588  1
  Si  Si0  1  0.66972323  0.64021589  0.58732775  1
  Si  Si1  1  0.97259464  0.63804137  0.08577103  1
  Si  Si2  1  0.62821941  0.66333547  0.91686660  1
  Si  Si3  1  0.03781339  0.37375262  0.91562686  1
  Si  Si4  1  0.33784907  0.96783221  0.91454071  1
  Si  Si5  1  0.62487666  0.96856985  0.41771221  1
  P  P0  1  0.30047412  0.99182191  0.25538865  1
  P  P1  1  0.69822744  0.70344577  0.25222202  1
  P  P2  1  0.00348064  0.30467533  0.25230476  1
  P  P3  1  0.28714843  0.29665292  0.75290797  1
  P  P4  1  0.00861523  0.71097148  0.75250215  1
  P  P5  1  0.70773295  0.99115200  0.74806652  1
  P  P6  1  0.96656527  0.33036693  0.58659843  1
  P  P7  1  0.36636168  0.03296089  0.58045182  1
  P  P8  1  0.66997900  0.02883463  0.08682085  1
  P  P9  1  0.36189066  0.33648188  0.08000448  1
  P  P10  1  0.34499854  0.38072945  0.41794638  1
  P  P11  1  0.03750513  0.65446184  0.41674854  1
  O  O0  1  0.23097227  0.00308013  0.31489741  1
  O  O1  1  0.78569005  0.77990066  0.31070975  1
  O  O2  1  0.99308280  0.21458798  0.30983735  1
  O  O3  1  0.19383185  0.20186295  0.80934132  1
  O  O4  1  0.00830946  0.80671533  0.80816787  1
  O  O5  1  0.81513031  0.99087612  0.80065515  1
  O  O6  1  0.79664921  0.98233153  0.69074442  1
  O  O7  1  0.18032677  0.19401159  0.69914438  1
  O  O8  1  0.01246401  0.81622384  0.69805416  1
  O  O9  1  0.80230163  0.82354521  0.19969715  1
  O  O10  1  0.01207158  0.20354995  0.19816799  1
  O  O11  1  0.18061941  0.98637143  0.20482423  1
  O  O12  1  0.89848111  0.35326122  0.64421984  1
  O  O13  1  0.48420487  0.10181837  0.63235738  1
  O  O14  1  0.64408117  0.54496399  0.64803501  1
  O  O15  1  0.90376331  0.53032793  0.14485824  1
  O  O16  1  0.64240430  0.08580543  0.14623190  1
  O  O17  1  0.47382311  0.37075251  0.13297314  1
  O  O18  1  0.44099736  0.31104315  0.02351962  1
  O  O19  1  0.84038006  0.53668734  0.03072724  1
  O  O20  1  0.68615311  0.15342608  0.03752778  1
  O  O21  1  0.45230455  0.14091643  0.52402950  1
  O  O22  1  0.68238177  0.53365266  0.52976143  1
  O  O23  1  0.84259555  0.30662042  0.53404900  1
  O  O24  1  0.54220598  0.68691309  0.97554034  1
  O  O25  1  0.15862245  0.46472875  0.97215419  1
  O  O26  1  0.30214503  0.84269283  0.96962174  1
  O  O27  1  0.51729047  0.85182045  0.47311762  1
  O  O28  1  0.33014546  0.47281181  0.47151267  1
  O  O29  1  0.14559182  0.66092331  0.46862793  1
  O  O30  1  0.12095187  0.63629419  0.35934089  1
  O  O31  1  0.51000173  0.86899364  0.35829977  1
  O  O32  1  0.35613176  0.48609337  0.36241886  1
  O  O33  1  0.12715269  0.49427690  0.85787214  1
  O  O34  1  0.36305524  0.87707842  0.85677321  1
  O  O35  1  0.50838286  0.63732905  0.85927118  1
  O  O36  1  0.01861758  0.81002711  0.41698805  1
  O  O37  1  0.80939908  0.98777389  0.41970379  1
  O  O38  1  0.19475260  0.20336962  0.41683533  1
  O  O39  1  0.02118464  0.18965442  0.91128261  1
  O  O40  1  0.17005150  0.98659852  0.91110118  1
  O  O41  1  0.82044071  0.82002309  0.91178087  1
  O  O42  1  0.97439716  0.16556119  0.58598243  1
  O  O43  1  0.19686849  0.02817776  0.58678944  1
  O  O44  1  0.83907933  0.82938802  0.58491863  1
  O  O45  1  0.97938510  0.82093039  0.09018217  1
  O  O46  1  0.84003608  0.02674357  0.08689934  1
  O  O47  1  0.18264824  0.18024111  0.08792325  1
  O  O48  1  0.69841795  0.15074497  0.75126754  1
  O  O49  1  0.46509063  0.32542349  0.75403155  1
  O  O50  1  0.85030421  0.53736849  0.75305675  1
  O  O51  1  0.67823869  0.53098616  0.24572707  1
  O  O52  1  0.84718254  0.32343365  0.24855592  1
  O  O53  1  0.47990195  0.13207123  0.24793525  1
  O  O54  1  0.64236847  0.49338521  0.92226358  1
  O  O55  1  0.85608916  0.36121645  0.92416203  1
  O  O56  1  0.49840129  0.15365729  0.92236906  1
  O  O57  1  0.63641662  0.15281355  0.42025113  1
  O  O58  1  0.51204013  0.37720311  0.42000035  1
  O  O59  1  0.86114477  0.49364573  0.42107065  1
  O  O60  1  0.33495263  0.48956330  0.07483027  1
  O  O61  1  0.15806233  0.65975298  0.07534102  1
  O  O62  1  0.52788390  0.84744770  0.07571884  1
  O  O63  1  0.32838963  0.85103649  0.57170808  1
  O  O64  1  0.51249661  0.67852586  0.57898439  1
  O  O65  1  0.14186716  0.48032999  0.57481333  1
  O  O66  1  0.29278725  0.81745307  0.25022620  1
  O  O67  1  0.52618341  0.70152104  0.25003598  1
  O  O68  1  0.16458440  0.48158154  0.25049976  1
  O  O69  1  0.29175673  0.46896577  0.75046731  1
  O  O70  1  0.16613619  0.69067213  0.74971273  1
  O  O71  1  0.53532392  0.82593444  0.74963097  1
loop_
_geom_bond_atom_site_label_1
_geom_bond_atom_site_label_2
_geom_bond_distance
_geom_bond_site_symmetry_2
Na0 O44 2.434214 1_555
Na0 O37 2.528055 1_555
Na0 O42 2.576982 1_565
Na0 O43 2.580497 1_665
Na0 O36 2.637792 1_655
Na0 O38 2.676695 1_665
Na1 O46 2.563886 1_566
Na1 O45 2.581302 1_556
Na1 O41 2.590264 1_555
Na1 O40 2.598926 1_655
Na1 O39 2.621721 1_665
Na1 O47 2.626044 1_666
Na2 O56 2.455948 1_555
Na2 O48 2.468299 1_555
Na2 O49 2.533588 1_555
Na2 O55 2.719839 1_555
Na2 O50 2.751681 1_555
Na2 O54 2.761875 1_555
Na3 O53 2.393489 1_555
Na3 O51 2.457871 1_555
Na3 O52 2.502498 1_555
Na3 O58 2.713003 1_555
Na3 O57 2.742894 1_555
Na3 O59 2.879687 1_555
Na4 O61 2.459149 1_555
Na4 O66 2.561274 1_555
Na4 O68 2.588230 1_555
Na4 O60 2.593649 1_555
Na4 O62 2.646857 1_555
Na4 O67 2.664074 1_555
Na5 O70 2.491366 1_555
Na5 O69 2.540369 1_555
Na5 O64 2.597486 1_555
Na5 O71 2.603017 1_555
Na5 O65 2.669778 1_555
Na5 O63 2.753966 1_555
Na6 O16 2.281416 1_555
Na6 O53 2.361972 1_555
Na6 O52 2.508002 1_555
Na6 O67 2.526518 1_545
Na7 O15 2.249851 1_555
Na7 O52 2.415327 1_555
Na7 O66 2.507063 1_655
Na7 O51 2.526832 1_555
Na7 O68 2.592570 1_655
Na8 O14 2.252082 1_555
Na8 O49 2.387117 1_555
Na8 O71 2.483572 1_555
Na8 O50 2.504831 1_555
Na8 O69 2.735635 1_555
Na8 O35 2.959792 1_555
Na9 O12 2.424442 1_555
Na9 O48 2.438540 1_555
Na9 O50 2.460344 1_555
Na9 O69 2.463483 1_655
Na9 O70 2.563797 1_655
Na9 O33 2.835160 1_655
Na10 O64 2.401131 1_555
Na10 O42 2.482663 1_565
Na10 O44 2.570289 1_555
Na10 O6 2.639260 1_555
Na10 O13 2.680433 1_565
Na10 O63 2.753977 1_555
Na10 O27 2.891755 1_555
Na10 O23 2.902589 1_565
Na11 O62 2.441257 1_555
Na11 O45 2.546428 1_555
Na11 O24 2.596393 1_554
Na11 O60 2.637647 1_555
Na11 O19 2.777275 1_555
Na11 O17 2.790833 1_555
Na11 O46 2.794763 1_565
Na12 O60 2.507534 1_555
Na12 O61 2.538571 1_555
Na12 O46 2.561373 1_455
Na12 O47 2.601117 1_555
Na12 O15 2.810135 1_455
Na12 O25 2.834462 1_554
Na12 O10 2.865353 1_555
Na12 O20 2.911485 1_455
Na13 O41 2.436110 1_555
Na13 O55 2.479314 1_555
Na13 O40 2.591121 1_655
Na13 O54 2.630163 1_555
Na13 O4 2.768656 1_655
Na13 O19 2.823956 1_556
Na13 O26 2.892201 1_655
Na13 O33 2.979136 1_655
Na14 O54 2.476819 1_555
Na14 O56 2.527832 1_555
Na14 O39 2.545038 1_555
Na14 O40 2.563872 1_545
Na14 O18 2.578391 1_556
Na14 O3 2.742013 1_555
Na14 O25 2.957871 1_555
Na14 O35 2.976400 1_555
Na15 O37 2.381922 1_545
Na15 O2 2.429554 1_555
Na15 O59 2.541393 1_555
Na15 O57 2.615530 1_555
Na15 O38 2.624542 1_655
Na16 O0 2.327673 1_555
Na16 O57 2.475934 1_555
Na16 O38 2.480029 1_555
Na16 O36 2.565320 1_545
Na16 O58 2.787874 1_555
Na16 O21 2.797544 1_555
Na16 O31 2.986091 1_545
Na17 O37 2.452631 1_555
Na17 O36 2.454757 1_655
Na17 O1 2.501931 1_555
Na17 O58 2.531612 1_555
Na17 O59 2.753965 1_555
Na17 O22 2.918910 1_555
Ca0 O2 2.210787 1_455
Ca0 O1 2.223706 1_445
Ca0 O0 2.244892 1_555
Ca0 O37 2.350829 1_445
Ca0 O38 2.366019 1_555
Ca0 O36 2.400851 1_545
Ca1 O14 2.203625 1_555
Ca1 O13 2.230238 1_555
Ca1 O12 2.323083 1_555
Ca1 O49 2.369171 1_555
Ca1 O48 2.432027 1_555
Ca1 O50 2.441448 1_555
Ca2 O17 2.186761 1_555
Ca2 O15 2.235686 1_555
Ca2 O16 2.297740 1_555
Ca2 O53 2.347009 1_555
Ca2 O51 2.355873 1_555
Ca2 O52 2.382659 1_555
O0 P0 1.526216 1_545
O1 P1 1.533951 1_555
O2 P2 1.529433 1_655
O3 P3 1.551836 1_555
O3 Zr0 2.129030 1_445
O4 P4 1.548153 1_555
O4 Zr0 2.143428 1_455
O5 P5 1.554751 1_555
O5 Zr0 2.058627 1_555
O6 P5 1.567135 1_555
O6 Zr1 2.142695 1_655
O7 P3 1.560294 1_555
O7 Zr1 2.114538 1_545
O8 P4 1.565581 1_555
O8 Zr1 2.060250 1_555
O9 P1 1.587911 1_555
O9 Zr2 2.131942 1_665
O10 P2 1.574509 1_555
O10 Zr2 2.152606 1_555
O11 P0 1.579394 1_555
O11 Zr2 2.068999 1_565
O12 P6 1.516155 1_555
O13 P7 1.513512 1_555
O14 Si0 1.591894 1_555
O15 Si1 1.604375 1_555
O16 P8 1.519910 1_555
O17 P9 1.514242 1_555
O18 P9 1.555558 1_555
O18 Zr3 2.232038 1_554
O19 Si1 1.671113 1_555
O19 Zr3 2.089545 1_554
O20 P8 1.561422 1_555
O20 Zr3 2.158570 1_554
O21 P7 1.576664 1_555
O21 Zr4 2.101419 1_555
O22 Si0 1.680307 1_555
O22 Zr4 2.014659 1_555
O23 P6 1.592440 1_555
O23 Zr4 2.089531 1_555
O24 Si2 1.625325 1_555
O24 Zr5 2.069250 1_556
O25 Si3 1.633295 1_555
O25 Zr5 2.042325 1_556
O26 Si4 1.624756 1_555
O26 Zr5 1.987949 1_556
O27 Si5 1.634968 1_555
O27 Zr6 2.024666 1_555
O28 P10 1.533878 1_555
O28 Zr6 2.082764 1_555
O29 P11 1.527374 1_555
O29 Zr6 2.111804 1_555
O30 P11 1.569982 1_555
O30 Zr7 2.153660 1_555
O31 Si5 1.680495 1_555
O31 Zr7 2.031337 1_555
O32 P10 1.567917 1_555
O32 Zr7 2.090184 1_555
O33 Si3 1.653459 1_555
O33 Zr8 2.058887 1_555
O34 Si4 1.639890 1_555
O34 Zr8 1.989714 1_555
O35 Si2 1.653093 1_555
O35 Zr8 2.045795 1_555
O36 P11 1.534962 1_555
O37 Si5 1.623563 1_555
O38 P10 1.529756 1_555
O39 Si3 1.635791 1_555
O39 Zr0 2.080566 1_445
O40 Si4 1.645856 1_555
O40 Zr0 2.090442 1_455
O41 Si2 1.640460 1_555
O41 Zr0 2.080076 1_555
O42 P6 1.563215 1_555
O42 Zr1 2.214042 1_645
O43 P7 1.551131 1_555
O43 Zr1 2.113400 1_545
O44 Si0 1.665305 1_555
O44 Zr1 2.073136 1_655
O45 Si1 1.665629 1_555
O45 Zr2 2.071455 1_665
O46 P8 1.580871 1_555
O46 Zr2 2.222555 1_655
O47 P9 1.570967 1_555
O47 Zr2 2.146506 1_555
O48 P5 1.524127 1_545
O49 P3 1.528206 1_555
O50 P4 1.538684 1_655
O51 P1 1.519801 1_555
O52 P2 1.540541 1_655
O53 P0 1.518861 1_545
O54 Si2 1.647110 1_555
O54 Zr3 2.111528 1_555
O55 Si3 1.635751 1_655
O55 Zr3 2.074174 1_555
O56 Si4 1.623232 1_545
O56 Zr3 2.095645 1_555
O57 Si5 1.655821 1_545
O57 Zr4 2.180677 1_555
O58 P10 1.560464 1_555
O58 Zr4 2.226900 1_555
O59 P11 1.565622 1_655
O59 Zr4 2.205232 1_555
O60 P9 1.561058 1_555
O60 Zr5 2.212777 1_555
O61 Si1 1.639807 1_455
O61 Zr5 2.093450 1_555
O62 P8 1.548687 1_565
O62 Zr5 2.204425 1_555
O63 P7 1.551622 1_565
O63 Zr6 2.106247 1_555
O64 Si0 1.669374 1_555
O64 Zr6 2.047613 1_555
O65 P6 1.539711 1_455
O65 Zr6 2.135175 1_555
O66 P0 1.584267 1_555
O66 Zr7 2.176948 1_555
O67 P1 1.581303 1_555
O67 Zr7 2.154388 1_555
O68 P2 1.567597 1_555
O68 Zr7 2.182396 1_555
O69 P3 1.575181 1_555
O69 Zr8 2.290379 1_555
O70 P4 1.559297 1_555
O70 Zr8 2.229333 1_555
O71 P5 1.561210 1_555
O71 Zr8 2.238321 1_555
