# generated using pymatgen
data_Ca2Sn5Pt3
_symmetry_space_group_name_H-M   'P 1'
_cell_length_a   4.49088263
_cell_length_b   7.39173374
_cell_length_c   26.59138663
_cell_angle_alpha   90.00000000
_cell_angle_beta   90.00000000
_cell_angle_gamma   90.00000000
_symmetry_Int_Tables_number   1
_chemical_formula_structural   Ca2Sn5Pt3
_chemical_formula_sum   'Ca8 Sn20 Pt12'
_cell_volume   882.71194598
_cell_formula_units_Z   4
loop_
 _symmetry_equiv_pos_site_id
 _symmetry_equiv_pos_as_xyz
  1  'x, y, z'
loop_
 _atom_site_type_symbol
 _atom_site_label
 _atom_site_symmetry_multiplicity
 _atom_site_fract_x
 _atom_site_fract_y
 _atom_site_fract_z
 _atom_site_occupancy
  Ca  Ca0  1  0.75000000  0.25164822  0.92268784  1
  Ca  Ca1  1  0.25000000  0.74835178  0.07731216  1
  Ca  Ca2  1  0.75000000  0.75164822  0.57731216  1
  Ca  Ca3  1  0.25000000  0.24835178  0.42268784  1
  Ca  Ca4  1  0.75000000  0.28499793  0.22704721  1
  Ca  Ca5  1  0.25000000  0.71500207  0.77295279  1
  Ca  Ca6  1  0.75000000  0.78499793  0.27295279  1
  Ca  Ca7  1  0.25000000  0.21500207  0.72704721  1
  Sn  Sn0  1  0.25000000  0.46411975  0.54307435  1
  Sn  Sn1  1  0.25000000  0.03936162  0.54344481  1
  Sn  Sn2  1  0.75000000  0.96063838  0.45655519  1
  Sn  Sn3  1  0.25000000  0.53936162  0.95655519  1
  Sn  Sn4  1  0.75000000  0.46063838  0.04344481  1
  Sn  Sn5  1  0.75000000  0.37976238  0.79784714  1
  Sn  Sn6  1  0.75000000  0.53588025  0.45692565  1
  Sn  Sn7  1  0.25000000  0.96411975  0.95692565  1
  Sn  Sn8  1  0.75000000  0.03588025  0.04307435  1
  Sn  Sn9  1  0.25000000  0.79006378  0.36855005  1
  Sn  Sn10  1  0.75000000  0.20993622  0.63144995  1
  Sn  Sn11  1  0.25000000  0.29006378  0.13144995  1
  Sn  Sn12  1  0.75000000  0.90833192  0.15303277  1
  Sn  Sn13  1  0.25000000  0.62023762  0.20215286  1
  Sn  Sn14  1  0.75000000  0.87976238  0.70215286  1
  Sn  Sn15  1  0.25000000  0.12023762  0.29784714  1
  Sn  Sn16  1  0.25000000  0.59166808  0.65303277  1
  Sn  Sn17  1  0.25000000  0.09166808  0.84696723  1
  Sn  Sn18  1  0.75000000  0.40833192  0.34696723  1
  Sn  Sn19  1  0.75000000  0.70993622  0.86855005  1
  Pt  Pt0  1  0.75000000  0.00019501  0.80025862  1
  Pt  Pt1  1  0.25000000  0.74461635  0.47214354  1
  Pt  Pt2  1  0.75000000  0.25538365  0.52785646  1
  Pt  Pt3  1  0.25000000  0.24461635  0.02785646  1
  Pt  Pt4  1  0.75000000  0.75538365  0.97214354  1
  Pt  Pt5  1  0.25000000  0.95964514  0.64260285  1
  Pt  Pt6  1  0.75000000  0.04035486  0.35739715  1
  Pt  Pt7  1  0.25000000  0.45964514  0.85739715  1
  Pt  Pt8  1  0.75000000  0.54035486  0.14260285  1
  Pt  Pt9  1  0.25000000  0.49980499  0.30025862  1
  Pt  Pt10  1  0.75000000  0.50019501  0.69974138  1
  Pt  Pt11  1  0.25000000  -0.00019501  0.19974138  1
loop_
_geom_bond_atom_site_label_1
_geom_bond_atom_site_label_2
_geom_bond_distance
_geom_bond_site_symmetry_2
Ca0 Sn3 3.221165 1_555
Ca0 Sn3 3.221165 1_655
Ca0 Sn7 3.223032 1_545
Ca0 Sn7 3.223032 1_645
Ca0 Pt7 3.228013 1_655
Ca0 Pt7 3.228013 1_555
Ca0 Sn17 3.239542 1_555
Ca0 Sn17 3.239542 1_655
Ca1 Sn4 3.221165 1_555
Ca1 Sn4 3.221165 1_455
Ca1 Sn8 3.223032 1_565
Ca1 Sn8 3.223032 1_465
Ca1 Pt8 3.228013 1_455
Ca1 Pt8 3.228013 1_555
Ca1 Sn12 3.239542 1_555
Ca1 Sn12 3.239542 1_455
Ca2 Sn1 3.221165 1_665
Ca2 Sn1 3.221165 1_565
Ca2 Sn0 3.223032 1_555
Ca2 Sn0 3.223032 1_655
Ca2 Pt5 3.228013 1_555
Ca2 Pt5 3.228013 1_655
Ca2 Sn16 3.239542 1_555
Ca2 Sn16 3.239542 1_655
Ca3 Sn2 3.221165 1_445
Ca3 Sn2 3.221165 1_545
Ca3 Sn6 3.223032 1_555
Ca3 Sn6 3.223032 1_455
Ca3 Pt6 3.228013 1_455
Ca3 Pt6 3.228013 1_555
Ca3 Sn18 3.239542 1_455
Ca3 Sn18 3.239542 1_555
Ca4 Pt8 2.933429 1_555
Ca4 Pt11 3.164362 1_655
Ca4 Pt11 3.164362 1_555
Ca4 Sn15 3.173270 1_655
Ca4 Sn15 3.173270 1_555
Ca4 Sn18 3.316596 1_555
Ca4 Pt9 3.369437 1_555
Ca4 Pt9 3.369437 1_655
Ca4 Sn11 3.391975 1_655
Ca4 Sn11 3.391975 1_555
Ca4 Sn13 3.408917 1_555
Ca4 Sn13 3.408917 1_655
Ca4 Sn12 3.409612 1_545
Ca5 Pt7 2.933429 1_555
Ca5 Pt0 3.164362 1_565
Ca5 Pt0 3.164362 1_465
Ca5 Sn14 3.173270 1_555
Ca5 Sn14 3.173270 1_455
Ca5 Sn16 3.316596 1_555
Ca5 Pt10 3.369437 1_555
Ca5 Pt10 3.369437 1_455
Ca5 Sn19 3.391975 1_455
Ca5 Sn19 3.391975 1_555
Ca5 Sn5 3.408917 1_555
Ca5 Sn5 3.408917 1_455
Ca5 Sn17 3.409612 1_565
Ca6 Pt6 2.933429 1_565
Ca6 Pt9 3.164362 1_555
Ca6 Pt9 3.164362 1_655
Ca6 Sn13 3.173270 1_555
Ca6 Sn13 3.173270 1_655
Ca6 Sn12 3.316596 1_555
Ca6 Pt11 3.369437 1_565
Ca6 Pt11 3.369437 1_665
Ca6 Sn9 3.391975 1_555
Ca6 Sn9 3.391975 1_655
Ca6 Sn15 3.408917 1_565
Ca6 Sn15 3.408917 1_665
Ca6 Sn18 3.409612 1_555
Ca7 Pt5 2.933429 1_545
Ca7 Pt10 3.164362 1_555
Ca7 Pt10 3.164362 1_455
Ca7 Sn5 3.173270 1_555
Ca7 Sn5 3.173270 1_455
Ca7 Sn17 3.316596 1_555
Ca7 Pt0 3.369437 1_455
Ca7 Pt0 3.369437 1_555
Ca7 Sn10 3.391975 1_455
Ca7 Sn10 3.391975 1_555
Ca7 Sn14 3.408917 1_445
Ca7 Sn14 3.408917 1_545
Ca7 Sn16 3.409612 1_555
Sn0 Sn16 3.072189 1_555
Sn12 Sn8 3.072189 1_565
Sn17 Sn7 3.072189 1_545
Sn18 Sn6 3.072189 1_555
Pt0 Sn17 2.653650 1_555
Pt0 Sn17 2.653650 1_655
Pt0 Sn14 2.756472 1_545
Pt0 Sn5 2.806394 1_555
Pt0 Sn19 2.810865 1_545
Pt1 Sn6 2.754336 1_455
Pt1 Sn6 2.754336 1_555
Pt1 Sn9 2.775103 1_555
Pt1 Sn2 2.786311 1_555
Pt1 Sn2 2.786311 1_455
Pt1 Sn0 2.802920 1_555
Pt1 Sn1 2.888158 1_565
Pt2 Sn0 2.754336 1_655
Pt2 Sn0 2.754336 1_555
Pt2 Sn10 2.775103 1_555
Pt2 Sn1 2.786311 1_555
Pt2 Sn1 2.786311 1_655
Pt2 Sn6 2.802920 1_555
Pt2 Sn2 2.888158 1_545
Pt3 Sn8 2.754336 1_455
Pt3 Sn8 2.754336 1_555
Pt3 Sn11 2.775103 1_555
Pt3 Sn4 2.786311 1_455
Pt3 Sn4 2.786311 1_555
Pt3 Sn7 2.802920 1_544
Pt3 Sn3 2.888158 1_554
Pt4 Sn7 2.754336 1_655
Pt4 Sn7 2.754336 1_555
Pt4 Sn19 2.775103 1_555
Pt4 Sn3 2.786311 1_555
Pt4 Sn3 2.786311 1_655
Pt4 Sn8 2.802920 1_566
Pt4 Sn4 2.888158 1_556
Pt5 Sn1 2.701788 1_565
Pt5 Sn16 2.734092 1_555
Pt5 Sn14 2.810372 1_555
Pt5 Sn14 2.810372 1_455
Pt5 Sn10 2.924513 1_465
Pt5 Sn10 2.924513 1_565
Pt6 Sn2 2.701788 1_545
Pt6 Sn18 2.734092 1_555
Pt6 Sn15 2.810372 1_555
Pt6 Sn15 2.810372 1_655
Pt6 Sn9 2.924513 1_645
Pt6 Sn9 2.924513 1_545
Pt7 Sn3 2.701788 1_555
Pt7 Sn17 2.734092 1_555
Pt7 Sn5 2.810372 1_455
Pt7 Sn5 2.810372 1_555
Pt7 Sn19 2.924513 1_455
Pt7 Sn19 2.924513 1_555
Pt8 Sn4 2.701788 1_555
Pt8 Sn12 2.734092 1_555
Pt8 Sn13 2.810372 1_555
Pt8 Sn13 2.810372 1_655
Pt8 Sn11 2.924513 1_555
Pt8 Sn11 2.924513 1_655
Pt9 Sn18 2.653650 1_555
Pt9 Sn18 2.653650 1_455
Pt9 Sn13 2.756472 1_555
Pt9 Sn15 2.806394 1_555
Pt9 Sn9 2.810865 1_555
Pt10 Sn16 2.653650 1_655
Pt10 Sn16 2.653650 1_555
Pt10 Sn5 2.756472 1_555
Pt10 Sn14 2.806394 1_555
Pt10 Sn10 2.810865 1_555
Pt11 Sn12 2.653650 1_545
Pt11 Sn12 2.653650 1_445
Pt11 Sn15 2.756472 1_555
Pt11 Sn13 2.806394 1_545
Pt11 Sn11 2.810865 1_555
