# generated using pymatgen
data_Na10Zn8SiS11O48
_symmetry_space_group_name_H-M   'P 1'
_cell_length_a   17.87517338
_cell_length_b   8.93233939
_cell_length_c   22.41034261
_cell_angle_alpha   89.79638753
_cell_angle_beta   89.80315437
_cell_angle_gamma   120.02420644
_symmetry_Int_Tables_number   1
_chemical_formula_structural   Na10Zn8SiS11O48
_chemical_formula_sum   'Na30 Zn24 Si3 S33 O144'
_cell_volume   3097.97568734
_cell_formula_units_Z   3
loop_
 _symmetry_equiv_pos_site_id
 _symmetry_equiv_pos_as_xyz
  1  'x, y, z'
loop_
 _atom_site_type_symbol
 _atom_site_label
 _atom_site_symmetry_multiplicity
 _atom_site_fract_x
 _atom_site_fract_y
 _atom_site_fract_z
 _atom_site_occupancy
  Na  Na0  1  0.81834604  0.99106068  0.24759928  1
  Na  Na1  1  0.68578909  0.37483757  0.25012249  1
  Na  Na2  1  0.99619077  0.63883493  0.25240783  1
  Na  Na3  1  0.49866585  0.63112487  0.25028780  1
  Na  Na4  1  0.31812841  0.64688181  0.74724355  1
  Na  Na5  1  0.81771661  0.64628487  0.74735954  1
  Na  Na6  1  0.99463830  0.35373936  0.75255042  1
  Na  Na7  1  0.49458951  0.35345691  0.75259557  1
  Na  Na8  1  0.18749230  -0.00001949  0.75002752  1
  Na  Na9  1  0.68719640  0.99963128  0.75016798  1
  Na  Na10  1  0.33502372  0.96763122  0.58717779  1
  Na  Na11  1  0.83421488  0.96717822  0.58831480  1
  Na  Na12  1  0.15251712  0.97160133  0.08313551  1
  Na  Na13  1  0.83474264  0.70308692  0.08845276  1
  Na  Na14  1  0.35136978  0.03328007  0.91302359  1
  Na  Na15  1  0.85055247  0.03236987  0.91171517  1
  Na  Na16  1  0.16719083  0.03335157  0.41640365  1
  Na  Na17  1  0.85038778  0.66998663  0.41187679  1
  Na  Na18  1  0.00515520  0.01384246  0.50168191  1
  Na  Na19  1  0.50564296  0.99821649  0.49864752  1
  Na  Na20  1  0.00614969  0.01423475  0.99825084  1
  Na  Na21  1  0.50500957  0.99728704  0.00131252  1
  Na  Na22  1  0.33410698  0.33477312  0.83508121  1
  Na  Na23  1  0.83340974  0.33352324  0.83469397  1
  Na  Na24  1  0.33394121  0.33636954  0.33385939  1
  Na  Na25  1  0.83340722  0.33247080  0.33441672  1
  Na  Na26  1  0.17493410  0.65831944  0.16694106  1
  Na  Na27  1  0.66474951  0.66487344  0.16501036  1
  Na  Na28  1  0.16691748  0.66572973  0.66517784  1
  Na  Na29  1  0.66608470  0.66541958  0.66508961  1
  Zn  Zn0  1  0.99702512  0.99806970  0.34387733  1
  Zn  Zn1  1  0.49624831  0.99507233  0.35107316  1
  Zn  Zn2  1  0.99774801  0.00329395  0.84711652  1
  Zn  Zn3  1  0.49770528  0.00364528  0.84740127  1
  Zn  Zn4  1  0.99660530  0.99692319  0.65272026  1
  Zn  Zn5  1  0.49635383  0.99664227  0.65242092  1
  Zn  Zn6  1  0.99702174  0.00554050  0.15599258  1
  Zn  Zn7  1  0.49611471  0.99633244  0.14864125  1
  Zn  Zn8  1  0.33454950  0.32454277  0.67998201  1
  Zn  Zn9  1  0.83407163  0.32317965  0.68014864  1
  Zn  Zn10  1  0.33124043  0.33220987  0.18011791  1
  Zn  Zn11  1  0.83412540  0.34404020  0.18119545  1
  Zn  Zn12  1  0.33625040  0.34530541  0.98648219  1
  Zn  Zn13  1  0.83154249  0.33507423  0.98461043  1
  Zn  Zn14  1  0.33929246  0.34661621  0.48352600  1
  Zn  Zn15  1  0.83095900  0.32650306  0.48597326  1
  Zn  Zn16  1  0.16718009  0.65721056  0.01478645  1
  Zn  Zn17  1  0.65876070  0.66325383  0.01593972  1
  Zn  Zn18  1  0.16538514  0.65503735  0.51466802  1
  Zn  Zn19  1  0.65977128  0.65903022  0.51383616  1
  Zn  Zn20  1  0.17327042  0.66709357  0.31889532  1
  Zn  Zn21  1  0.67023632  0.66564629  0.31959039  1
  Zn  Zn22  1  0.17244497  0.67535631  0.82004512  1
  Zn  Zn23  1  0.67173093  0.67540618  0.82011888  1
  Si  Si0  1  0.85039960  0.70118662  0.25027951  1
  Si  Si1  1  0.35064905  0.00000623  0.75000448  1
  Si  Si2  1  0.85055464  0.99957035  0.75007910  1
  S  S0  1  0.15125767  0.00250400  0.25013597  1
  S  S1  1  0.64446543  0.99908961  0.24990789  1
  S  S2  1  0.35246893  0.70568517  0.24981875  1
  S  S3  1  0.00313531  0.30054353  0.25004264  1
  S  S4  1  0.49686931  0.28826903  0.24986659  1
  S  S5  1  0.14679222  0.29287474  0.74979317  1
  S  S6  1  0.64685650  0.29303333  0.74976597  1
  S  S7  1  0.00021255  0.70706028  0.75017100  1
  S  S8  1  0.50025571  0.70705387  0.75018307  1
  S  S9  1  0.48333797  0.33694322  0.58270192  1
  S  S10  1  0.98343080  0.33771128  0.58261494  1
  S  S11  1  0.18272011  0.03525312  0.58199649  1
  S  S12  1  0.68240725  0.03476025  0.58334149  1
  S  S13  1  0.33326002  0.62659082  0.58358937  1
  S  S14  1  0.83328292  0.62709087  0.58226698  1
  S  S15  1  0.48194129  0.63096429  0.08477167  1
  S  S16  1  0.98347288  0.62843733  0.08242403  1
  S  S17  1  0.33364680  0.03803461  0.08193947  1
  S  S18  1  0.83343447  0.03992918  0.08252419  1
  S  S19  1  0.18516816  0.33283809  0.08383633  1
  S  S20  1  0.68349929  0.33112631  0.08302943  1
  S  S21  1  0.31524864  0.66297430  0.91708503  1
  S  S22  1  0.81479388  0.66296728  0.91861869  1
  S  S23  1  0.01975685  0.37365605  0.91657367  1
  S  S24  1  0.51988929  0.37307762  0.91642124  1
  S  S25  1  0.16507896  0.96504199  0.91795880  1
  S  S26  1  0.66516217  0.96465030  0.91682459  1
  S  S27  1  0.31470842  0.96211304  0.41811027  1
  S  S28  1  0.81495093  0.96720881  0.41816893  1
  S  S29  1  0.16609289  0.36859463  0.41628611  1
  S  S30  1  0.66573160  0.36655263  0.41726853  1
  S  S31  1  0.01974267  0.66457798  0.41678819  1
  S  S32  1  0.51900472  0.66754310  0.41481114  1
  O  O0  1  0.11180421  0.02737833  0.30515076  1
  O  O1  1  0.60636215  0.03277131  0.30336722  1
  O  O2  1  0.40726121  0.78438359  0.30321270  1
  O  O3  1  0.91042704  0.78099459  0.30990358  1
  O  O4  1  0.48608374  0.18640387  0.30446416  1
  O  O5  1  0.98888551  0.19341846  0.30394828  1
  O  O6  1  0.11029025  0.18183398  0.80343021  1
  O  O7  1  0.61045600  0.18202464  0.80337962  1
  O  O8  1  0.48746864  0.78661088  0.80413183  1
  O  O9  1  0.98721526  0.78634748  0.80411856  1
  O  O10  1  0.41037124  0.04026473  0.80965439  1
  O  O11  1  0.91034741  0.03986641  0.80975810  1
  O  O12  1  0.39054389  0.95979095  0.69023500  1
  O  O13  1  0.89051288  0.95957158  0.69020175  1
  O  O14  1  0.09417623  0.21359099  0.69601351  1
  O  O15  1  0.59431294  0.21380924  0.69598945  1
  O  O16  1  0.01943569  0.81821842  0.69658781  1
  O  O17  1  0.51929214  0.81799202  0.69659430  1
  O  O18  1  0.39202606  0.81004425  0.19539072  1
  O  O19  1  0.89136269  0.82097732  0.19013095  1
  O  O20  1  0.01880767  0.22708047  0.19584107  1
  O  O21  1  0.51291316  0.21078180  0.19643821  1
  O  O22  1  0.09693341  0.97488276  0.19608113  1
  O  O23  1  0.59155928  0.97294783  0.19614128  1
  O  O24  1  0.44620364  0.36132691  0.63917536  1
  O  O25  1  0.94585722  0.36087295  0.63903725  1
  O  O26  1  0.23647685  0.11491300  0.63642916  1
  O  O27  1  0.73538828  0.11077338  0.63848321  1
  O  O28  1  0.32244381  0.52718392  0.63964632  1
  O  O29  1  0.82320524  0.52506235  0.63740479  1
  O  O30  1  0.44311351  0.52915907  0.14079438  1
  O  O31  1  0.94592729  0.53028071  0.13870031  1
  O  O32  1  0.31837927  0.12072320  0.13441458  1
  O  O33  1  0.82322583  0.12097169  0.13761695  1
  O  O34  1  0.23738189  0.35870262  0.13803564  1
  O  O35  1  0.73593805  0.35952444  0.13839365  1
  O  O36  1  0.22488824  0.30123108  0.03033109  1
  O  O37  1  0.72616306  0.30817846  0.03023635  1
  O  O38  1  0.42855052  0.54705238  0.03176836  1
  O  O39  1  0.92668731  0.54367321  0.03090644  1
  O  O40  1  0.34482227  0.13869114  0.02609239  1
  O  O41  1  0.84247134  0.14185612  0.02779718  1
  O  O42  1  0.22425039  0.13984458  0.52739697  1
  O  O43  1  0.72477625  0.14324330  0.53025401  1
  O  O44  1  0.34160679  0.53987316  0.53048753  1
  O  O45  1  0.84223314  0.54353625  0.52771104  1
  O  O46  1  0.42545190  0.30732770  0.53136100  1
  O  O47  1  0.92607204  0.30917865  0.53104166  1
  O  O48  1  0.27237682  0.69337488  0.96873758  1
  O  O49  1  0.77248871  0.68963962  0.97182382  1
  O  O50  1  0.07151676  0.46001371  0.96963181  1
  O  O51  1  0.57236310  0.45873874  0.96921115  1
  O  O52  1  0.15385022  0.86012949  0.97260452  1
  O  O53  1  0.65444702  0.85742830  0.96989863  1
  O  O54  1  0.27547186  0.86032756  0.47381427  1
  O  O55  1  0.77300578  0.85576529  0.47181335  1
  O  O56  1  0.15347056  0.44659828  0.47055339  1
  O  O57  1  0.65494563  0.45261972  0.46995851  1
  O  O58  1  0.07517343  0.68895881  0.46887715  1
  O  O59  1  0.57222391  0.69145730  0.46810039  1
  O  O60  1  0.05800114  0.64374650  0.36062106  1
  O  O61  1  0.55891902  0.64487690  0.35915792  1
  O  O62  1  0.25793311  0.88001747  0.36569339  1
  O  O63  1  0.76446417  0.88883613  0.36291713  1
  O  O64  1  0.17840107  0.47337430  0.36218797  1
  O  O65  1  0.68065807  0.47173481  0.36158113  1
  O  O66  1  0.05914202  0.47275293  0.86052465  1
  O  O67  1  0.55897977  0.47275895  0.86029681  1
  O  O68  1  0.17899963  0.88462881  0.86358739  1
  O  O69  1  0.68011734  0.88899222  0.86142112  1
  O  O70  1  0.26572518  0.63843102  0.86096799  1
  O  O71  1  0.76465370  0.64033632  0.86306568  1
  O  O72  1  0.01294700  0.82632797  0.41460352  1
  O  O73  1  0.50986762  0.82432641  0.41049786  1
  O  O74  1  0.40141818  0.98097305  0.41155062  1
  O  O75  1  0.90157136  0.97953158  0.41404158  1
  O  O76  1  0.08860518  0.19009978  0.41125486  1
  O  O77  1  0.58862100  0.19237683  0.41229036  1
  O  O78  1  0.01003632  0.19703187  0.91481728  1
  O  O79  1  0.50992098  0.19650789  0.91442687  1
  O  O80  1  0.08780993  0.98404691  0.91201302  1
  O  O81  1  0.58816860  0.98443845  0.91138459  1
  O  O82  1  0.40205618  0.82299742  0.91320701  1
  O  O83  1  0.90154604  0.82390088  0.91442516  1
  O  O84  1  0.49030340  0.17708374  0.58637588  1
  O  O85  1  0.98996740  0.17702538  0.58617265  1
  O  O86  1  0.09587424  0.01627254  0.58824358  1
  O  O87  1  0.59550242  0.01483454  0.58923188  1
  O  O88  1  0.41170083  0.80298178  0.58520107  1
  O  O89  1  0.91198358  0.80345628  0.58433014  1
  O  O90  1  0.49098424  0.80586693  0.08867407  1
  O  O91  1  0.99278025  0.80548722  0.08577503  1
  O  O92  1  0.41087165  0.01882539  0.08794452  1
  O  O93  1  0.91214975  0.02115554  0.08478113  1
  O  O94  1  0.09829409  0.17049386  0.08969296  1
  O  O95  1  0.59629647  0.17706736  0.08858631  1
  O  O96  1  0.34016672  0.17444141  0.74475553  1
  O  O97  1  0.84046665  0.17443439  0.74502126  1
  O  O98  1  0.23647450  0.32249212  0.74369302  1
  O  O99  1  0.73675200  0.32317299  0.74363217  1
  O  O100  1  0.41951495  0.53522169  0.74417053  1
  O  O101  1  0.91940201  0.53539091  0.74395810  1
  O  O102  1  0.34617378  0.53144044  0.24487356  1
  O  O103  1  0.84008740  0.50625273  0.24535516  1
  O  O104  1  0.42025903  0.31260631  0.24446358  1
  O  O105  1  0.92134283  0.30950879  0.24462233  1
  O  O106  1  0.23857187  0.15636941  0.24392438  1
  O  O107  1  0.73408676  0.15044154  0.24409682  1
  O  O108  1  0.32352749  0.50670759  0.92363329  1
  O  O109  1  0.82426002  0.50758273  0.92374377  1
  O  O110  1  0.43057669  0.35001970  0.92087508  1
  O  O111  1  0.93031010  0.34950351  0.92081561  1
  O  O112  1  0.24668178  0.13716149  0.92222972  1
  O  O113  1  0.74708585  0.13740883  0.92158713  1
  O  O114  1  0.32060092  0.13565924  0.42236609  1
  O  O115  1  0.82440168  0.14140107  0.42338697  1
  O  O116  1  0.24394684  0.34613958  0.42098309  1
  O  O117  1  0.74738440  0.35711714  0.42220027  1
  O  O118  1  0.43190163  0.50899279  0.42003978  1
  O  O119  1  0.93048838  0.51313015  0.42242122  1
  O  O120  1  0.17494639  0.48705657  0.07753180  1
  O  O121  1  0.67919526  0.49458743  0.07767402  1
  O  O122  1  0.07194987  0.65242631  0.07665709  1
  O  O123  1  0.56911658  0.64716767  0.07963010  1
  O  O124  1  0.25259365  0.86359623  0.07803153  1
  O  O125  1  0.75599973  0.86121579  0.07911352  1
  O  O126  1  0.17787586  0.86261513  0.57768291  1
  O  O127  1  0.67830820  0.86282075  0.57783719  1
  O  O128  1  0.25555330  0.65043792  0.57975811  1
  O  O129  1  0.75585273  0.65078098  0.57886850  1
  O  O130  1  0.07013442  0.49341427  0.57651334  1
  O  O131  1  0.57006728  0.49316071  0.57645747  1
  O  O132  1  0.15537174  0.83902696  0.25550977  1
  O  O133  1  0.65157915  0.83961994  0.25582662  1
  O  O134  1  0.26497898  0.68526602  0.25582121  1
  O  O135  1  0.75349108  0.68322215  0.25548031  1
  O  O136  1  0.07721937  0.48075355  0.25575725  1
  O  O137  1  0.57550588  0.46655202  0.25424544  1
  O  O138  1  0.15200253  0.46462847  0.75608301  1
  O  O139  1  0.65229396  0.46496603  0.75613781  1
  O  O140  1  0.07504917  0.67727689  0.75598248  1
  O  O141  1  0.57515329  0.67725547  0.75581908  1
  O  O142  1  0.25293460  0.82525482  0.75531989  1
  O  O143  1  0.75312084  0.82457003  0.75538028  1
loop_
_geom_bond_atom_site_label_1
_geom_bond_atom_site_label_2
_geom_bond_distance
_geom_bond_site_symmetry_2
Na0 O135 2.396077 1_555
Na0 O105 2.498436 1_565
Na0 O107 2.539137 1_565
Na0 O133 2.590210 1_555
Na0 O33 2.702963 1_565
Na0 O63 2.743376 1_555
Na0 O19 2.767120 1_555
Na0 O5 2.946733 1_565
Na1 O135 2.394599 1_555
Na1 O103 2.398669 1_555
Na1 O137 2.486211 1_555
Na1 O107 2.552244 1_555
Na1 O65 2.662688 1_555
Na1 O35 2.683546 1_555
Na1 O1 2.897684 1_555
Na1 O21 2.941167 1_555
Na2 O103 2.431266 1_555
Na2 O136 2.478715 1_655
Na2 O132 2.491808 1_655
Na2 O105 2.557434 1_555
Na2 O60 2.659777 1_655
Na2 O31 2.720728 1_555
Na2 O3 2.751191 1_555
Na2 O22 2.897324 1_655
Na3 O102 2.410771 1_555
Na3 O133 2.421726 1_555
Na3 O137 2.464936 1_555
Na3 O104 2.467685 1_555
Na3 O30 2.638979 1_555
Na3 O61 2.648696 1_555
Na3 O2 2.861278 1_555
Na3 O23 2.904884 1_555
Na4 O142 2.405840 1_555
Na4 O100 2.468295 1_555
Na4 O98 2.510513 1_555
Na4 O138 2.581366 1_555
Na4 O28 2.657632 1_555
Na4 O70 2.699997 1_555
Na4 O12 2.731759 1_555
Na4 O8 2.933054 1_555
Na5 O143 2.396325 1_555
Na5 O101 2.468232 1_555
Na5 O99 2.500771 1_555
Na5 O139 2.570322 1_555
Na5 O29 2.716174 1_555
Na5 O13 2.735687 1_555
Na5 O71 2.749164 1_555
Na5 O9 2.933841 1_555
Na6 O97 2.403415 1_555
Na6 O138 2.472589 1_655
Na6 O140 2.503821 1_655
Na6 O101 2.581040 1_555
Na6 O66 2.669367 1_655
Na6 O25 2.702842 1_555
Na6 O11 2.740063 1_555
Na6 O14 2.926259 1_655
Na7 O96 2.407375 1_555
Na7 O139 2.477366 1_555
Na7 O141 2.505666 1_555
Na7 O100 2.579248 1_555
Na7 O67 2.663807 1_555
Na7 O24 2.699696 1_555
Na7 O10 2.733935 1_555
Na7 O15 2.926373 1_555
Na8 O96 2.372930 1_555
Na8 O142 2.375915 1_545
Na8 O98 2.560812 1_555
Na8 O140 2.562031 1_545
Na8 O26 2.714434 1_555
Na8 O68 2.717252 1_545
Na8 O6 2.867231 1_555
Na8 O16 2.872663 1_545
Na9 O97 2.381808 1_565
Na9 O143 2.385615 1_555
Na9 O141 2.558007 1_555
Na9 O99 2.567560 1_565
Na9 O69 2.657820 1_555
Na9 O27 2.665300 1_565
Na9 O7 2.863053 1_565
Na9 O17 2.871804 1_555
Na10 O84 2.451017 1_565
Na10 O128 2.459734 1_555
Na10 O88 2.461873 1_555
Na10 O126 2.486872 1_555
Na10 O12 2.531401 1_555
Na10 O54 2.742425 1_555
Na10 O26 2.892765 1_565
Na10 O46 2.904349 1_565
Na11 O129 2.457392 1_555
Na11 O85 2.458259 1_565
Na11 O127 2.469209 1_555
Na11 O89 2.472574 1_555
Na11 O13 2.512767 1_555
Na11 O55 2.820001 1_555
Na11 O27 2.879925 1_565
Na11 O47 2.934901 1_565
Na12 O94 2.416884 1_565
Na12 O124 2.422883 1_555
Na12 O91 2.473140 1_455
Na12 O122 2.473607 1_555
Na12 O52 2.677420 1_554
Na12 O22 2.721608 1_555
Na12 O36 2.810004 1_565
Na12 O32 2.822629 1_565
Na13 O125 2.451429 1_555
Na13 O93 2.461033 1_565
Na13 O121 2.466462 1_555
Na13 O91 2.496641 1_555
Na13 O19 2.508343 1_555
Na13 O49 2.823580 1_554
Na13 O35 2.885752 1_555
Na13 O39 2.955065 1_555
Na14 O79 2.454547 1_555
Na14 O110 2.456964 1_555
Na14 O82 2.460081 1_545
Na14 O112 2.478261 1_555
Na14 O10 2.529604 1_555
Na14 O40 2.728763 1_556
Na14 O68 2.902359 1_545
Na14 O48 2.905448 1_545
Na15 O83 2.449531 1_545
Na15 O111 2.462349 1_555
Na15 O113 2.466787 1_555
Na15 O78 2.470064 1_655
Na15 O11 2.505625 1_555
Na15 O41 2.810985 1_556
Na15 O69 2.884675 1_545
Na15 O49 2.969269 1_545
Na16 O116 2.421958 1_555
Na16 O114 2.422474 1_555
Na16 O76 2.432109 1_555
Na16 O72 2.433524 1_545
Na16 O0 2.676603 1_555
Na16 O42 2.682465 1_555
Na16 O62 2.831957 1_545
Na16 O58 2.906707 1_545
Na17 O75 2.440109 1_555
Na17 O119 2.465064 1_555
Na17 O117 2.469178 1_555
Na17 O3 2.501894 1_555
Na17 O72 2.517621 1_655
Na17 O45 2.801327 1_555
Na17 O65 2.876159 1_555
Na17 O55 2.961642 1_555
Na18 O85 2.489101 1_455
Na18 O86 2.525852 1_555
Na18 O76 2.533155 1_555
Na18 O89 2.560826 1_445
Na18 O75 2.615559 1_445
Na18 O72 2.624469 1_545
Na19 O77 2.517009 1_565
Na19 O73 2.541436 1_555
Na19 O87 2.551281 1_565
Na19 O88 2.578071 1_555
Na19 O84 2.636306 1_565
Na19 O74 2.654127 1_555
Na20 O78 2.455774 1_555
Na20 O80 2.513292 1_545
Na20 O94 2.569705 1_556
Na20 O93 2.582618 1_456
Na20 O83 2.604075 1_445
Na20 O91 2.627925 1_446
Na21 O90 2.522542 1_555
Na21 O81 2.536944 1_554
Na21 O95 2.547291 1_565
Na21 O79 2.604526 1_564
Na21 O82 2.624625 1_554
Na21 O92 2.634771 1_565
Na22 O96 2.516862 1_555
Na22 O110 2.545277 1_555
Na22 O112 2.562467 1_555
Na22 O108 2.577260 1_555
Na22 O100 2.627647 1_555
Na22 O98 2.662102 1_555
Na23 O97 2.504331 1_555
Na23 O113 2.547891 1_555
Na23 O111 2.554026 1_555
Na23 O109 2.588604 1_555
Na23 O101 2.632049 1_555
Na23 O99 2.650288 1_555
Na24 O118 2.552688 1_555
Na24 O116 2.554933 1_555
Na24 O102 2.579105 1_555
Na24 O114 2.597850 1_555
Na24 O104 2.597853 1_555
Na24 O106 2.618605 1_555
Na25 O103 2.489638 1_555
Na25 O117 2.569839 1_555
Na25 O115 2.571548 1_555
Na25 O119 2.597853 1_555
Na25 O105 2.620325 1_555
Na25 O107 2.655548 1_555
Na26 O134 2.500757 1_555
Na26 O120 2.525296 1_555
Na26 O124 2.582046 1_555
Na26 O136 2.590268 1_555
Na26 O132 2.692624 1_555
Na26 O122 2.722983 1_555
Na27 O123 2.522384 1_555
Na27 O135 2.533379 1_555
Na27 O125 2.556085 1_555
Na27 O121 2.573285 1_555
Na27 O137 2.609019 1_555
Na27 O133 2.649713 1_555
Na28 O142 2.514892 1_555
Na28 O128 2.528042 1_555
Na28 O126 2.569830 1_555
Na28 O130 2.586659 1_555
Na28 O138 2.634206 1_555
Na28 O140 2.645079 1_555
Na29 O143 2.522792 1_555
Na29 O129 2.552632 1_555
Na29 O127 2.562662 1_555
Na29 O131 2.580880 1_555
Na29 O141 2.634039 1_555
Na29 O139 2.637976 1_555
O0 S0 1.489816 1_555
O0 Zn0 2.116562 1_445
O1 S1 1.480452 1_545
O1 Zn1 2.109572 1_545
O2 S2 1.486691 1_555
O2 Zn1 2.062198 1_555
O3 Si0 1.641976 1_555
O3 Zn0 1.936606 1_555
O4 S4 1.475489 1_555
O4 Zn1 2.084279 1_545
O5 S3 1.478385 1_655
O5 Zn0 2.027435 1_545
O6 S5 1.480833 1_555
O6 Zn2 2.076917 1_455
O7 S6 1.480096 1_555
O7 Zn3 2.082194 1_555
O8 S8 1.478412 1_555
O8 Zn3 2.095620 1_565
O9 S7 1.478516 1_655
O9 Zn2 2.090119 1_565
O10 Si1 1.638591 1_555
O10 Zn3 1.943646 1_555
O11 Si2 1.639778 1_545
O11 Zn2 1.940674 1_555
O12 Si1 1.638577 1_565
O12 Zn5 1.941066 1_555
O13 Si2 1.640317 1_555
O13 Zn4 1.940918 1_555
O14 S5 1.478502 1_555
O14 Zn4 2.091851 1_445
O15 S6 1.477841 1_555
O15 Zn5 2.099610 1_545
O16 S7 1.480930 1_555
O16 Zn4 2.079550 1_455
O17 S8 1.480305 1_555
O17 Zn5 2.083486 1_555
O18 S2 1.477529 1_555
O18 Zn7 2.050426 1_555
O19 Si0 1.642239 1_555
O19 Zn6 1.932721 1_565
O20 S3 1.473705 1_555
O20 Zn6 2.027023 1_455
O21 S4 1.482270 1_555
O21 Zn7 2.085180 1_545
O22 S0 1.497241 1_565
O22 Zn6 2.137847 1_465
O23 S1 1.479722 1_555
O23 Zn7 2.110696 1_555
O24 S9 1.493529 1_555
O24 Zn8 2.063175 1_555
O25 S10 1.492579 1_555
O25 Zn9 2.065630 1_555
O26 S11 1.499228 1_555
O26 Zn8 2.066842 1_555
O27 S12 1.501826 1_555
O27 Zn9 2.063461 1_555
O28 S13 1.490836 1_555
O28 Zn8 2.126482 1_555
O29 S14 1.488637 1_555
O29 Zn9 2.132292 1_555
O30 S15 1.496391 1_555
O30 Zn10 2.080086 1_555
O31 S16 1.485652 1_555
O31 Zn11 2.077722 1_555
O32 S17 1.486150 1_555
O32 Zn10 2.061855 1_555
O33 S18 1.489524 1_555
O33 Zn11 2.142084 1_555
O34 S19 1.481145 1_555
O34 Zn10 2.041274 1_555
O35 S20 1.501556 1_555
O35 Zn11 2.067168 1_555
O36 S19 1.489543 1_555
O36 Zn12 2.069479 1_554
O37 S20 1.474896 1_555
O37 Zn13 2.045383 1_554
O38 S15 1.477093 1_555
O38 Zn12 2.012132 1_554
O39 S16 1.477055 1_555
O39 Zn13 2.072516 1_554
O40 S17 1.491714 1_555
O40 Zn12 2.118910 1_554
O41 S18 1.484154 1_555
O41 Zn13 2.068910 1_554
O42 S11 1.487507 1_555
O42 Zn14 2.186086 1_555
O43 S12 1.476199 1_555
O43 Zn15 2.033010 1_555
O44 S13 1.469493 1_555
O44 Zn14 2.007722 1_555
O45 S14 1.483928 1_555
O45 Zn15 2.072908 1_555
O46 S9 1.483529 1_555
O46 Zn14 2.047888 1_555
O47 S10 1.483489 1_555
O47 Zn15 2.051480 1_555
O48 S21 1.485036 1_555
O48 Zn16 2.020315 1_556
O49 S22 1.492121 1_555
O49 Zn17 2.161192 1_556
O50 S23 1.471311 1_555
O50 Zn16 2.015204 1_556
O51 S24 1.469926 1_555
O51 Zn17 2.005069 1_556
O52 S25 1.490003 1_555
O52 Zn16 2.158068 1_556
O53 S26 1.474927 1_555
O53 Zn17 2.049504 1_556
O54 S27 1.491534 1_555
O54 Zn18 2.106582 1_555
O55 S28 1.495573 1_555
O55 Zn19 2.118379 1_555
O56 S29 1.475415 1_555
O56 Zn18 2.026555 1_555
O57 S30 1.475027 1_555
O57 Zn19 2.056209 1_555
O58 S31 1.478397 1_555
O58 Zn18 2.059929 1_555
O59 S32 1.477516 1_555
O59 Zn19 2.011452 1_555
O60 S31 1.486537 1_555
O60 Zn20 2.172265 1_555
O61 S32 1.498600 1_555
O61 Zn21 2.096986 1_555
O62 S27 1.489003 1_555
O62 Zn20 2.037675 1_555
O63 S28 1.489726 1_555
O63 Zn21 2.102112 1_555
O64 S29 1.475878 1_555
O64 Zn20 2.022712 1_555
O65 S30 1.499950 1_555
O65 Zn21 2.057395 1_555
O66 S23 1.489726 1_555
O66 Zn22 2.123132 1_555
O67 S24 1.492116 1_555
O67 Zn23 2.115266 1_555
O68 S25 1.498513 1_555
O68 Zn22 2.062701 1_555
O69 S26 1.501415 1_555
O69 Zn23 2.060652 1_555
O70 S21 1.492874 1_555
O70 Zn22 2.070940 1_555
O71 S22 1.490714 1_555
O71 Zn23 2.076763 1_555
O72 S31 1.509897 1_555
O72 Zn0 2.317172 1_455
O73 S32 1.491744 1_555
O73 Zn1 2.125615 1_555
O74 S27 1.479628 1_555
O74 Zn1 2.120259 1_555
O75 S28 1.498821 1_555
O75 Zn0 2.260121 1_555
O76 S29 1.505199 1_555
O76 Zn0 2.264365 1_445
O77 S30 1.479563 1_555
O77 Zn1 2.198889 1_545
O78 S23 1.498977 1_555
O78 Zn2 2.232808 1_455
O79 S24 1.496852 1_555
O79 Zn3 2.217167 1_555
O80 S25 1.479873 1_555
O80 Zn2 2.242247 1_465
O81 S26 1.478064 1_555
O81 Zn3 2.234306 1_565
O82 S21 1.495678 1_555
O82 Zn3 2.215100 1_565
O83 S22 1.499073 1_555
O83 Zn2 2.237756 1_565
O84 S9 1.496124 1_555
O84 Zn5 2.226823 1_545
O85 S10 1.499058 1_555
O85 Zn4 2.236387 1_545
O86 S11 1.480944 1_555
O86 Zn4 2.222634 1_445
O87 S12 1.477840 1_555
O87 Zn5 2.205825 1_545
O88 S13 1.496568 1_555
O88 Zn5 2.228471 1_555
O89 S14 1.498695 1_555
O89 Zn4 2.245500 1_555
O90 S15 1.490931 1_555
O90 Zn7 2.137715 1_555
O91 S16 1.507313 1_555
O91 Zn6 2.358041 1_565
O92 S17 1.480276 1_555
O92 Zn7 2.128623 1_545
O93 S18 1.499006 1_555
O93 Zn6 2.257139 1_555
O94 S19 1.508395 1_555
O94 Zn6 2.225385 1_455
O95 S20 1.479790 1_555
O95 Zn7 2.167786 1_545
O96 Si1 1.663634 1_555
O96 Zn8 2.009162 1_555
O97 Si2 1.663064 1_545
O97 Zn9 2.007822 1_555
O98 S5 1.494118 1_555
O98 Zn8 2.250061 1_555
O99 S6 1.496259 1_555
O99 Zn9 2.243470 1_555
O100 S8 1.497642 1_555
O100 Zn8 2.256401 1_555
O101 S7 1.497859 1_655
O101 Zn9 2.259504 1_555
O102 S2 1.507783 1_555
O102 Zn10 2.211293 1_555
O103 Si0 1.660812 1_555
O103 Zn11 2.009850 1_555
O104 S4 1.495360 1_555
O104 Zn10 2.221452 1_555
O105 S3 1.509003 1_655
O105 Zn11 2.244877 1_555
O106 S0 1.481473 1_555
O106 Zn10 2.149340 1_555
O107 S1 1.496999 1_545
O107 Zn11 2.246326 1_555
O108 S21 1.482287 1_555
O108 Zn12 2.104728 1_555
O109 S22 1.483997 1_555
O109 Zn13 2.106884 1_555
O110 S24 1.506928 1_555
O110 Zn12 2.217632 1_555
O111 S23 1.505192 1_655
O111 Zn13 2.220615 1_555
O112 S25 1.502772 1_545
O112 Zn12 2.269230 1_555
O113 S26 1.509289 1_545
O113 Zn13 2.180880 1_555
O114 S27 1.503646 1_545
O114 Zn14 2.220903 1_555
O115 S28 1.483766 1_545
O115 Zn15 2.130341 1_555
O116 S29 1.506055 1_555
O116 Zn14 2.208715 1_555
O117 S30 1.507904 1_555
O117 Zn15 2.183986 1_555
O118 S32 1.494836 1_555
O118 Zn14 2.105857 1_555
O119 S31 1.492956 1_655
O119 Zn15 2.229421 1_555
O120 S19 1.483784 1_555
O120 Zn16 2.122223 1_555
O121 S20 1.504466 1_555
O121 Zn17 2.203777 1_555
O122 S16 1.491024 1_455
O122 Zn16 2.175446 1_555
O123 S15 1.495121 1_555
O123 Zn17 2.092370 1_555
O124 S17 1.509074 1_565
O124 Zn16 2.226026 1_555
O125 S18 1.503466 1_565
O125 Zn17 2.260803 1_555
O126 S11 1.504089 1_565
O126 Zn18 2.255770 1_555
O127 S12 1.506031 1_565
O127 Zn19 2.213316 1_555
O128 S13 1.509605 1_555
O128 Zn18 2.193005 1_555
O129 S14 1.503315 1_555
O129 Zn19 2.285219 1_555
O130 S10 1.481593 1_455
O130 Zn18 2.100899 1_555
O131 S9 1.484046 1_555
O131 Zn19 2.080389 1_555
O132 S0 1.502819 1_565
O132 Zn20 2.226674 1_555
O133 S1 1.497605 1_555
O133 Zn21 2.252596 1_555
O134 S2 1.486630 1_555
O134 Zn20 2.104245 1_555
O135 Si0 1.661432 1_555
O135 Zn21 2.013319 1_555
O136 S3 1.493522 1_555
O136 Zn20 2.212219 1_555
O137 S4 1.511100 1_555
O137 Zn21 2.279566 1_555
O138 S5 1.496942 1_555
O138 Zn22 2.250707 1_555
O139 S6 1.496889 1_555
O139 Zn23 2.253658 1_555
O140 S7 1.494763 1_555
O140 Zn22 2.266999 1_555
O141 S8 1.495573 1_555
O141 Zn23 2.258853 1_555
O142 Si1 1.664443 1_565
O142 Zn22 2.002706 1_555
O143 Si2 1.662442 1_555
O143 Zn23 2.007145 1_555
