# generated using pymatgen
data_MnPO4
_symmetry_space_group_name_H-M   'P 1'
_cell_length_a   8.39404298
_cell_length_b   4.86158811
_cell_length_c   9.09769210
_cell_angle_alpha   90.01745626
_cell_angle_beta   110.05328459
_cell_angle_gamma   89.97814840
_symmetry_Int_Tables_number   1
_chemical_formula_structural   MnPO4
_chemical_formula_sum   'Mn4 P4 O16'
_cell_volume   348.75395816
_cell_formula_units_Z   4
loop_
 _symmetry_equiv_pos_site_id
 _symmetry_equiv_pos_as_xyz
  1  'x, y, z'
loop_
 _atom_site_type_symbol
 _atom_site_label
 _atom_site_symmetry_multiplicity
 _atom_site_fract_x
 _atom_site_fract_y
 _atom_site_fract_z
 _atom_site_occupancy
  Mn  Mn0  1  0.53812400  0.84728600  0.25723000  1
  Mn  Mn1  1  0.46178700  0.34776000  0.74293300  1
  Mn  Mn2  1  0.01441500  0.99634500  0.17825200  1
  Mn  Mn3  1  0.98569700  0.49619800  0.82166900  1
  P  P0  1  0.24233200  0.03754600  0.92904900  1
  P  P1  1  0.75232800  0.01626200  0.63113100  1
  P  P2  1  0.24763600  0.51616400  0.36889800  1
  P  P3  1  0.75773400  0.53763000  0.07094700  1
  O  O0  1  0.27409900  0.18744000  0.79265800  1
  O  O1  1  0.59015700  0.52994100  0.92946000  1
  O  O2  1  0.36856800  0.61389200  0.28400200  1
  O  O3  1  0.19015600  0.22197300  0.31232500  1
  O  O4  1  0.10453300  0.20579200  0.97425800  1
  O  O5  1  0.90461300  0.21391100  0.66606400  1
  O  O6  1  0.63133100  0.11421600  0.71593100  1
  O  O7  1  0.09533700  0.71398300  0.33388500  1
  O  O8  1  0.34010000  0.50996000  0.54758500  1
  O  O9  1  0.80985700  0.72213700  0.68766700  1
  O  O10  1  0.89547000  0.70566600  0.02571800  1
  O  O11  1  0.65985300  0.00985600  0.45242400  1
  O  O12  1  0.17804200  0.74322300  0.88438500  1
  O  O13  1  0.72594000  0.68754500  0.20737700  1
  O  O14  1  0.40987000  0.02969900  0.07064300  1
  O  O15  1  0.82202200  0.24330900  0.11550900  1
loop_
_geom_bond_atom_site_label_1
_geom_bond_atom_site_label_2
_geom_bond_distance
_geom_bond_site_symmetry_2
Mn0 O14 1.890479 1_565
Mn0 O11 1.891461 1_565
Mn0 O2 1.900418 1_555
Mn0 O13 1.945117 1_555
Mn1 O1 1.889722 1_555
Mn1 O8 1.891816 1_555
Mn1 O6 1.900843 1_555
Mn1 O0 1.945283 1_555
Mn2 O3 1.906202 1_565
Mn2 O7 1.921317 1_555
Mn2 O15 1.934474 1_465
Mn2 O10 1.992316 1_455
Mn2 O4 2.453125 1_564
Mn3 O9 1.907072 1_555
Mn3 O5 1.920792 1_555
Mn3 O12 1.934909 1_655
Mn3 O4 1.991457 1_655
Mn3 O10 2.453410 1_556
O0 P0 1.539299 1_555
O1 P3 1.547659 1_556
O2 P2 1.546280 1_555
O3 P2 1.540469 1_555
O4 P0 1.581601 1_555
O5 P1 1.542879 1_555
O6 P1 1.546054 1_555
O7 P2 1.542939 1_555
O8 P2 1.542967 1_555
O9 P1 1.540126 1_565
O10 P3 1.581318 1_555
O11 P1 1.543152 1_555
O12 P0 1.534145 1_565
O13 P3 1.539302 1_555
O14 P0 1.547973 1_554
O15 P3 1.533844 1_555
