# generated using pymatgen
data_Rb3H(SO4)2
_symmetry_space_group_name_H-M   'P 1'
_cell_length_a   5.87898405
_cell_length_b   8.05534034
_cell_length_c   10.06275644
_cell_angle_alpha   101.87951223
_cell_angle_beta   90.00000000
_cell_angle_gamma   111.40218343
_symmetry_Int_Tables_number   1
_chemical_formula_structural   Rb3H(SO4)2
_chemical_formula_sum   'Rb6 H2 S4 O16'
_cell_volume   432.70183497
_cell_formula_units_Z   2
loop_
 _symmetry_equiv_pos_site_id
 _symmetry_equiv_pos_as_xyz
  1  'x, y, z'
loop_
 _atom_site_type_symbol
 _atom_site_label
 _atom_site_symmetry_multiplicity
 _atom_site_fract_x
 _atom_site_fract_y
 _atom_site_fract_z
 _atom_site_occupancy
  Rb  Rb0  1  0.41689047  0.38367046  0.15223568  1
  Rb  Rb1  1  0.03322101  0.61632954  0.34776432  1
  Rb  Rb2  1  0.58310953  0.61632954  0.84776432  1
  Rb  Rb3  1  0.96677899  0.38367046  0.65223568  1
  Rb  Rb4  1  0.24696221  -0.00000000  0.75000000  1
  Rb  Rb5  1  0.75303779  0.00000000  0.25000000  1
  H  H0  1  0.50000000  -0.00000000  0.50000000  1
  H  H1  1  0.50000000  -0.00000000  -0.00000000  1
  S  S0  1  0.60231127  0.76815998  0.53543102  1
  S  S1  1  0.83415029  0.23184002  0.96456898  1
  S  S2  1  0.39768873  0.23184002  0.46456898  1
  S  S3  1  0.16584971  0.76815998  0.03543102  1
  O  O0  1  0.80400122  0.74479019  0.60261097  1
  O  O1  1  0.05921003  0.25520981  0.89738903  1
  O  O2  1  0.19599878  0.25520981  0.39738903  1
  O  O3  1  0.94078997  0.74479019  0.10261097  1
  O  O4  1  0.57602521  0.69411900  0.38811131  1
  O  O5  1  0.88190721  0.30588100  0.11188869  1
  O  O6  1  0.42397479  0.30588100  0.61188869  1
  O  O7  1  0.11809279  0.69411900  0.88811131  1
  O  O8  1  0.31171859  0.97478521  0.05588033  1
  O  O9  1  0.33693338  0.02521479  0.44411967  1
  O  O10  1  0.68828141  0.02521479  0.94411967  1
  O  O11  1  0.66306662  0.97478521  0.55588033  1
  O  O12  1  0.32140218  0.69236979  0.09593362  1
  O  O13  1  0.62903139  0.30763021  0.40406638  1
  O  O14  1  0.67859782  0.30763021  0.90406638  1
  O  O15  1  0.37096861  0.69236979  0.59593362  1
loop_
_geom_bond_atom_site_label_1
_geom_bond_atom_site_label_2
_geom_bond_distance
_geom_bond_site_symmetry_2
H0 O9 1.210628 1_555
H0 O11 1.210628 1_545
H0 Rb5 2.922612 1_555
H0 Rb4 2.922612 1_555
H1 O8 1.210628 1_545
H1 O10 1.210628 1_554
H1 Rb4 2.922612 1_554
H1 Rb5 2.922612 1_555
O0 S0 1.453857 1_555
O0 Rb4 2.836396 1_665
O0 Rb2 2.985489 1_555
O0 Rb1 3.064049 1_655
O0 Rb3 3.500972 1_555
O1 S1 1.453857 1_455
O1 Rb4 2.836400 1_555
O1 Rb3 2.985489 1_455
O1 Rb0 3.064049 1_556
O1 Rb2 3.500979 1_555
O2 S2 1.453857 1_555
O2 Rb5 2.836396 1_455
O2 Rb0 2.985489 1_555
O2 Rb3 3.064049 1_455
O2 Rb1 3.500972 1_555
O3 S3 1.453857 1_655
O3 Rb5 2.836400 1_565
O3 Rb1 2.985489 1_655
O3 Rb2 3.064049 1_554
O3 Rb0 3.500979 1_555
O4 S0 1.464907 1_555
O4 Rb0 2.934553 1_555
O4 Rb5 2.936681 1_565
O4 Rb1 2.984373 1_655
O4 Rb1 3.029311 1_555
O5 S1 1.464908 1_554
O5 Rb1 2.934553 1_655
O5 Rb5 2.936681 1_555
O5 Rb0 2.984362 1_655
O5 Rb0 3.029322 1_555
O6 S2 1.464907 1_555
O6 Rb2 2.934553 1_555
O6 Rb4 2.936681 1_555
O6 Rb3 2.984373 1_455
O6 Rb3 3.029311 1_555
O7 S3 1.464908 1_556
O7 Rb3 2.934553 1_455
O7 Rb4 2.936681 1_565
O7 Rb2 2.984362 1_455
O7 Rb2 3.029322 1_555
O8 S3 1.537977 1_555
O8 Rb0 3.061017 1_565
O8 Rb4 3.158179 1_564
O8 Rb5 3.168670 1_565
O9 S2 1.537978 1_555
O9 Rb1 3.061016 1_545
O9 Rb4 3.158179 1_555
O9 Rb5 3.168670 1_555
O10 S1 1.537977 1_555
O10 Rb2 3.061017 1_545
O10 Rb5 3.158179 1_556
O10 Rb4 3.168670 1_555
O11 S0 1.537978 1_555
O11 Rb3 3.061016 1_565
O11 Rb5 3.158179 1_565
O11 Rb4 3.168670 1_565
O12 S3 1.462938 1_555
O12 Rb0 2.901470 1_555
O12 Rb5 2.968601 1_565
O12 Rb2 3.006123 1_554
O12 Rb1 3.090137 1_555
O13 S2 1.462938 1_555
O13 Rb1 2.901476 1_655
O13 Rb5 2.968604 1_555
O13 Rb3 3.006123 1_555
O13 Rb0 3.090138 1_555
O14 S1 1.462938 1_555
O14 Rb2 2.901470 1_555
O14 Rb4 2.968601 1_555
O14 Rb0 3.006123 1_556
O14 Rb3 3.090137 1_555
O15 S0 1.462938 1_555
O15 Rb3 2.901476 1_455
O15 Rb4 2.968604 1_565
O15 Rb1 3.006123 1_555
O15 Rb2 3.090138 1_555
