# generated using pymatgen
data_Na2LaHf(PO4)3
_symmetry_space_group_name_H-M   'P 1'
_cell_length_a   9.34423397
_cell_length_b   9.34423362
_cell_length_c   23.46327537
_cell_angle_alpha   89.96758219
_cell_angle_beta   90.03241783
_cell_angle_gamma   120.35669327
_symmetry_Int_Tables_number   1
_chemical_formula_structural   Na2LaHf(PO4)3
_chemical_formula_sum   'Na12 La6 Hf6 P18 O72'
_cell_volume   1767.80495021
_cell_formula_units_Z   6
loop_
 _symmetry_equiv_pos_site_id
 _symmetry_equiv_pos_as_xyz
  1  'x, y, z'
loop_
 _atom_site_type_symbol
 _atom_site_label
 _atom_site_symmetry_multiplicity
 _atom_site_fract_x
 _atom_site_fract_y
 _atom_site_fract_z
 _atom_site_occupancy
  Na  Na0  1  0.35899754  0.34767737  0.24815718  1
  Na  Na1  1  0.65232263  0.64100246  0.74815718  1
  Na  Na2  1  0.02566454  0.68101037  0.58149018  1
  Na  Na3  1  0.31898963  0.97433546  0.08149018  1
  Na  Na4  1  0.69233054  0.01434437  0.91482418  1
  Na  Na5  1  0.98565563  0.30766946  0.41482418  1
  Na  Na6  1  0.00006225  0.99880625  0.50318773  1
  Na  Na7  1  0.00119375  -0.00006225  0.00318773  1
  Na  Na8  1  0.66672925  0.33213925  0.83652073  1
  Na  Na9  1  0.66786075  0.33327075  0.33652073  1
  Na  Na10  1  0.33339525  0.66547325  0.16985473  1
  Na  Na11  1  0.33452675  0.66660475  0.66985473  1
  La  La0  1  0.99347092  0.98137617  0.35197029  1
  La  La1  1  0.01862383  0.00652908  0.85197029  1
  La  La2  1  0.66013792  0.31470917  0.68530329  1
  La  La3  1  0.68529083  0.33986208  0.18530329  1
  La  La4  1  0.32680392  0.64804317  0.01863729  1
  La  La5  1  0.35195683  0.67319608  0.51863729  1
  Hf  Hf0  1  0.00440743  0.01151327  0.64871287  1
  Hf  Hf1  1  0.98848673  0.99559257  0.14871287  1
  Hf  Hf2  1  0.67107443  0.34484627  0.98204587  1
  Hf  Hf3  1  0.65515373  0.32892557  0.48204587  1
  Hf  Hf4  1  0.33774043  0.67818027  0.31537987  1
  Hf  Hf5  1  0.32181973  0.66225957  0.81537987  1
  P  P0  1  0.28606386  0.98418748  0.24677782  1
  P  P1  1  0.68595477  0.70830776  0.24840536  1
  P  P2  1  0.02152182  0.30430351  0.25337657  1
  P  P3  1  0.29169224  0.31404523  0.74840536  1
  P  P4  1  0.01581252  0.71393614  0.74677782  1
  P  P5  1  0.69569649  0.97847818  0.75337657  1
  P  P6  1  0.95273086  0.31752048  0.58011082  1
  P  P7  1  0.35262177  0.04164076  0.58173836  1
  P  P8  1  0.68818882  0.63763651  0.58670957  1
  P  P9  1  0.95835924  0.64737823  0.08173836  1
  P  P10  1  0.68247952  0.04726914  0.08011082  1
  P  P11  1  0.36236349  0.31181118  0.08670957  1
  P  P12  1  0.61939686  0.65085448  0.91344482  1
  P  P13  1  0.01928777  0.37497476  0.91507236  1
  P  P14  1  0.35485482  0.97097051  0.92004357  1
  P  P15  1  0.62502524  0.98071223  0.41507236  1
  P  P16  1  0.34914552  0.38060314  0.41344482  1
  P  P17  1  0.02902949  0.64514518  0.42004357  1
  O  O0  1  0.21128638  0.01679121  0.29934903  1
  O  O1  1  0.78276285  0.77533247  0.30293537  1
  O  O2  1  0.00467571  0.21531573  0.30952455  1
  O  O3  1  0.22466753  0.21723715  0.80293537  1
  O  O4  1  0.98320879  0.78871362  0.79934903  1
  O  O5  1  0.78468427  -0.00467571  0.80952455  1
  O  O6  1  0.80079435  0.96665941  0.70183197  1
  O  O7  1  0.17824655  0.20958119  0.69671249  1
  O  O8  1  0.03583572  0.82557466  0.69313051  1
  O  O9  1  0.79041881  0.82175345  0.19671249  1
  O  O10  1  0.03334059  0.19920565  0.20183197  1
  O  O11  1  0.17442534  0.96416428  0.19313051  1
  O  O12  1  0.87795338  0.35012421  0.63268203  1
  O  O13  1  0.44942985  0.10866547  0.63626837  1
  O  O14  1  0.67134271  0.54864873  0.64285755  1
  O  O15  1  0.89133453  0.55057015  0.13626837  1
  O  O16  1  0.64987579  0.12204662  0.13268203  1
  O  O17  1  0.45135127  0.32865729  0.14285755  1
  O  O18  1  0.46746135  0.29999241  0.03516497  1
  O  O19  1  0.84491355  0.54291419  0.03004549  1
  O  O20  1  0.70250272  0.15890766  0.02646351  1
  O  O21  1  0.45708581  0.15508645  0.53004549  1
  O  O22  1  0.70000759  0.53253865  0.53516497  1
  O  O23  1  0.84109234  0.29749728  0.52646351  1
  O  O24  1  0.54461938  0.68345821  0.96601603  1
  O  O25  1  0.11609585  0.44199947  0.96960237  1
  O  O26  1  0.33800871  0.88198273  0.97619155  1
  O  O27  1  0.55800053  0.88390415  0.46960237  1
  O  O28  1  0.31654179  0.45538062  0.46601603  1
  O  O29  1  0.11801727  0.66199129  0.47619155  1
  O  O30  1  0.13412735  0.63332641  0.36849897  1
  O  O31  1  0.51157955  0.87624819  0.36337949  1
  O  O32  1  0.36916872  0.49224166  0.35979751  1
  O  O33  1  0.12375181  0.48842045  0.86337949  1
  O  O34  1  0.36667359  0.86587265  0.86849897  1
  O  O35  1  0.50775834  0.63083128  0.85979751  1
  O  O36  1  -0.00252872  0.78970713  0.41495399  1
  O  O37  1  0.80757978  0.02494836  0.40910530  1
  O  O38  1  0.19655043  0.20520912  0.40819947  1
  O  O39  1  0.97505164  0.19242022  0.90910530  1
  O  O40  1  0.21029287  0.00252872  0.91495399  1
  O  O41  1  0.79479088  0.80344957  0.90819947  1
  O  O42  1  0.96160335  0.15528713  0.58927263  1
  O  O43  1  0.18322002  0.03909847  0.58633931  1
  O  O44  1  0.85801221  0.80884050  0.58805756  1
  O  O45  1  0.96090153  0.81677998  0.08633931  1
  O  O46  1  0.84471287  0.03839665  0.08927263  1
  O  O47  1  0.19115950  0.14198779  0.08805756  1
  O  O48  1  0.66413828  0.12304013  0.74828699  1
  O  O49  1  0.47424678  0.35828136  0.74243830  1
  O  O50  1  0.86321743  0.53854212  0.74153247  1
  O  O51  1  0.64171864  0.52575322  0.24243830  1
  O  O52  1  0.87695987  0.33586172  0.24828699  1
  O  O53  1  0.46145788  0.13678257  0.24153247  1
  O  O54  1  0.62827035  0.48862013  0.92260563  1
  O  O55  1  0.84988702  0.37243147  0.91967231  1
  O  O56  1  0.52467921  0.14217350  0.92139056  1
  O  O57  1  0.62756853  0.15011298  0.41967231  1
  O  O58  1  0.51137987  0.37172965  0.42260563  1
  O  O59  1  0.85782650  0.47532079  0.42139056  1
  O  O60  1  0.33080428  0.45637413  0.08162099  1
  O  O61  1  0.14091278  0.69161536  0.07577230  1
  O  O62  1  0.52988343  0.87187612  0.07486647  1
  O  O63  1  0.30838464  0.85908722  0.57577230  1
  O  O64  1  0.54362587  0.66919572  0.58162099  1
  O  O65  1  0.12812388  0.47011657  0.57486647  1
  O  O66  1  0.29493635  0.82195413  0.25593963  1
  O  O67  1  0.51655302  0.70576547  0.25300631  1
  O  O68  1  0.19134521  0.47550750  0.25472456  1
  O  O69  1  0.29423453  0.48344698  0.75300631  1
  O  O70  1  0.17804587  0.70506365  0.75593963  1
  O  O71  1  0.52449250  0.80865479  0.75472456  1
loop_
_geom_bond_atom_site_label_1
_geom_bond_atom_site_label_2
_geom_bond_distance
_geom_bond_site_symmetry_2
Na0 O51 2.307145 1_555
Na0 O68 2.407605 1_555
Na0 O53 2.594574 1_555
Na0 O17 2.653013 1_555
Na0 O10 2.845508 1_555
Na0 O67 2.897855 1_555
Na0 O32 2.927331 1_555
Na0 O0 2.931157 1_555
Na1 O49 2.307145 1_555
Na1 O71 2.407605 1_555
Na1 O50 2.594574 1_555
Na1 O14 2.653013 1_555
Na1 O6 2.845508 1_555
Na1 O69 2.897855 1_555
Na1 O35 2.927331 1_555
Na1 O4 2.931157 1_555
Na2 O63 2.307138 1_555
Na2 O44 2.407605 1_455
Na2 O65 2.594557 1_555
Na2 O29 2.652986 1_555
Na2 O22 2.845508 1_455
Na2 O43 2.897855 1_565
Na2 O8 2.927331 1_555
Na2 O12 2.931157 1_455
Na3 O61 2.307138 1_555
Na3 O47 2.407605 1_565
Na3 O62 2.594557 1_555
Na3 O26 2.652986 1_554
Na3 O18 2.845508 1_565
Na3 O45 2.897855 1_455
Na3 O11 2.927331 1_555
Na3 O16 2.931157 1_565
Na4 O39 2.307145 1_555
Na4 O56 2.407587 1_555
Na4 O41 2.594574 1_545
Na4 O5 2.653013 1_555
Na4 O34 2.845508 1_545
Na4 O55 2.897845 1_555
Na4 O20 2.927304 1_556
Na4 O24 2.931157 1_545
Na5 O37 2.307145 1_555
Na5 O59 2.407587 1_555
Na5 O38 2.594574 1_655
Na5 O2 2.653013 1_655
Na5 O30 2.845508 1_655
Na5 O57 2.897845 1_555
Na5 O23 2.927304 1_555
Na5 O28 2.931157 1_655
Na6 O43 2.494606 1_565
Na6 O44 2.548652 1_455
Na6 O42 2.623389 1_465
Na6 O36 2.839164 1_555
Na6 O38 2.911805 1_565
Na6 O37 2.933701 1_465
Na7 O45 2.494606 1_445
Na7 O47 2.548652 1_555
Na7 O46 2.623389 1_455
Na7 O40 2.839164 1_554
Na7 O41 2.911805 1_444
Na7 O39 2.933701 1_454
Na8 O55 2.494606 1_555
Na8 O56 2.548652 1_555
Na8 O54 2.623389 1_555
Na8 O48 2.839164 1_555
Na8 O50 2.911805 1_555
Na8 O49 2.933701 1_555
Na9 O57 2.494606 1_555
Na9 O59 2.548652 1_555
Na9 O58 2.623389 1_555
Na9 O52 2.839164 1_555
Na9 O53 2.911805 1_555
Na9 O51 2.933701 1_555
Na10 O67 2.494606 1_555
Na10 O68 2.548652 1_555
Na10 O66 2.623389 1_555
Na10 O60 2.839164 1_555
Na10 O62 2.911805 1_555
Na10 O61 2.933701 1_555
Na11 O69 2.494606 1_555
Na11 O71 2.548652 1_555
Na11 O70 2.623389 1_555
Na11 O64 2.839164 1_555
Na11 O65 2.911805 1_555
Na11 O63 2.933701 1_555
La0 O1 2.252890 1_555
La0 O0 2.257881 1_665
La0 O36 2.336150 1_655
La0 O2 2.355348 1_665
La0 O37 2.387091 1_565
La0 O38 2.388462 1_665
La1 O3 2.252890 1_555
La1 O4 2.257881 1_445
La1 O40 2.336150 1_555
La1 O5 2.355348 1_455
La1 O39 2.387090 1_455
La1 O41 2.388462 1_445
La2 O13 2.252890 1_555
La2 O12 2.257881 1_555
La2 O48 2.336150 1_555
La2 O14 2.355348 1_555
La2 O49 2.387091 1_555
La2 O50 2.388462 1_555
La3 O15 2.252890 1_555
La3 O16 2.257881 1_555
La3 O52 2.336150 1_555
La3 O17 2.355348 1_555
La3 O51 2.387090 1_555
La3 O53 2.388462 1_555
La4 O25 2.252890 1_554
La4 O24 2.257881 1_554
La4 O60 2.336150 1_555
La4 O26 2.355348 1_554
La4 O61 2.387091 1_555
La4 O62 2.388462 1_555
La5 O27 2.252890 1_555
La5 O28 2.257881 1_555
La5 O64 2.336150 1_555
La5 O29 2.355348 1_555
La5 O63 2.387090 1_555
La5 O65 2.388462 1_555
Hf0 O7 2.072195 1_555
Hf0 O42 2.109576 1_455
Hf0 O6 2.131911 1_445
Hf0 O43 2.137066 1_555
Hf0 O8 2.168980 1_545
Hf0 O44 2.205805 1_445
Hf1 O9 2.072195 1_555
Hf1 O46 2.109577 1_565
Hf1 O10 2.131911 1_665
Hf1 O45 2.137066 1_555
Hf1 O11 2.168980 1_655
Hf1 O47 2.205805 1_665
Hf2 O19 2.072195 1_556
Hf2 O54 2.109576 1_555
Hf2 O18 2.131911 1_556
Hf2 O55 2.137066 1_555
Hf2 O20 2.168980 1_556
Hf2 O56 2.205805 1_555
Hf3 O21 2.072195 1_555
Hf3 O58 2.109577 1_555
Hf3 O22 2.131911 1_555
Hf3 O57 2.137066 1_555
Hf3 O23 2.168980 1_555
Hf3 O59 2.205805 1_555
Hf4 O31 2.072195 1_555
Hf4 O66 2.109576 1_555
Hf4 O30 2.131911 1_555
Hf4 O67 2.137066 1_555
Hf4 O32 2.168980 1_555
Hf4 O68 2.205805 1_555
Hf5 O33 2.072195 1_555
Hf5 O70 2.109577 1_555
Hf5 O34 2.131911 1_555
Hf5 O69 2.137066 1_555
Hf5 O35 2.168980 1_555
Hf5 O71 2.205805 1_555
O0 P0 1.522867 1_545
O1 P1 1.508143 1_555
O2 P2 1.522657 1_555
O3 P3 1.508143 1_555
O4 P4 1.522867 1_655
O5 P5 1.522657 1_545
O6 P5 1.597002 1_555
O7 P3 1.581659 1_555
O8 P4 1.584031 1_555
O9 P1 1.581659 1_555
O10 P2 1.597002 1_555
O11 P0 1.584031 1_555
O12 P6 1.522867 1_555
O13 P7 1.508143 1_555
O14 P8 1.522657 1_555
O15 P9 1.508143 1_555
O16 P10 1.522867 1_555
O17 P11 1.522657 1_555
O18 P11 1.597002 1_555
O19 P9 1.581659 1_555
O20 P10 1.584031 1_555
O21 P7 1.581659 1_555
O22 P8 1.597002 1_555
O23 P6 1.584031 1_555
O24 P12 1.522867 1_555
O25 P13 1.508143 1_555
O26 P14 1.522657 1_555
O27 P15 1.508143 1_555
O28 P16 1.522867 1_555
O29 P17 1.522657 1_555
O30 P17 1.597002 1_555
O31 P15 1.581659 1_555
O32 P16 1.584031 1_555
O33 P13 1.581659 1_555
O34 P14 1.597002 1_555
O35 P12 1.584031 1_555
O36 P17 1.525890 1_555
O37 P15 1.545261 1_545
O38 P16 1.540235 1_555
O39 P13 1.545261 1_655
O40 P14 1.525890 1_545
O41 P12 1.540235 1_555
O42 P6 1.574110 1_555
O43 P7 1.574823 1_555
O44 P8 1.585077 1_555
O45 P9 1.574823 1_555
O46 P10 1.574110 1_555
O47 P11 1.585077 1_555
O48 P5 1.525890 1_545
O49 P3 1.545261 1_555
O50 P4 1.540235 1_655
O51 P1 1.545261 1_555
O52 P2 1.525890 1_655
O53 P0 1.540235 1_545
O54 P12 1.574121 1_555
O55 P13 1.574807 1_655
O56 P14 1.585076 1_545
O57 P15 1.574807 1_545
O58 P16 1.574121 1_555
O59 P17 1.585076 1_655
O60 P11 1.525903 1_555
O61 P9 1.545247 1_455
O62 P10 1.540231 1_565
O63 P7 1.545247 1_565
O64 P8 1.525903 1_555
O65 P6 1.540231 1_455
O66 P0 1.574110 1_555
O67 P1 1.574823 1_555
O68 P2 1.585077 1_555
O69 P3 1.574823 1_555
O70 P4 1.574110 1_555
O71 P5 1.585077 1_555
