# generated using pymatgen
data_MgFe6O7F5
_symmetry_space_group_name_H-M   'P 1'
_cell_length_a   5.13298941
_cell_length_b   5.20805440
_cell_length_c   8.87179036
_cell_angle_alpha   90.00018819
_cell_angle_beta   90.00015953
_cell_angle_gamma   101.81106902
_symmetry_Int_Tables_number   1
_chemical_formula_structural   MgFe6O7F5
_chemical_formula_sum   'Mg1 Fe6 O7 F5'
_cell_volume   232.14721320
_cell_formula_units_Z   1
loop_
 _symmetry_equiv_pos_site_id
 _symmetry_equiv_pos_as_xyz
  1  'x, y, z'
loop_
 _atom_site_type_symbol
 _atom_site_label
 _atom_site_symmetry_multiplicity
 _atom_site_fract_x
 _atom_site_fract_y
 _atom_site_fract_z
 _atom_site_occupancy
  Mg  Mg0  1  0.53072007  0.05308806  0.66652660  1
  Fe  Fe0  1  0.01527976  0.96904530  0.98948409  1
  Fe  Fe1  1  0.01513346  0.96867669  0.34393631  1
  Fe  Fe2  1  0.03942620  0.00748597  0.66677037  1
  Fe  Fe3  1  0.56215210  0.42753436  0.16659905  1
  Fe  Fe4  1  0.41189620  0.55162914  0.85818421  1
  Fe  Fe5  1  0.41146359  0.55122771  0.47511550  1
  O  O0  1  0.23668184  0.84314484  0.50177168  1
  O  O1  1  0.23707221  0.84351637  0.83177114  1
  O  O2  1  0.28234874  0.29978204  0.00876317  1
  O  O3  1  0.28246117  0.29920657  0.32455538  1
  O  O4  1  0.33288044  0.34010327  0.66665126  1
  O  O5  1  0.70830256  0.67059361  0.99690243  1
  O  O6  1  0.70781542  0.67063827  0.33633612  1
  F  F0  1  0.17174398  0.82635888  0.16669779  1
  F  F1  1  0.68557211  0.73182786  0.66668842  1
  F  F2  1  0.79421387  0.15732871  0.16664986  1
  F  F3  1  0.80821231  0.15593114  0.82982218  1
  F  F4  1  0.80828897  0.15602519  0.50344443  1
loop_
_geom_bond_atom_site_label_1
_geom_bond_atom_site_label_2
_geom_bond_distance
_geom_bond_site_symmetry_2
Mg0 O4 1.971566 1_555
Mg0 O0 2.221346 1_545
Mg0 O1 2.222377 1_545
Fe0 O5 1.974987 1_455
Fe0 O2 1.977083 1_566
Fe0 O1 1.996480 1_555
Fe1 O6 1.974815 1_455
Fe1 O3 1.977062 1_565
Fe1 O0 1.996448 1_555
Fe2 O4 2.049773 1_555
Fe2 O0 2.062841 1_545
Fe2 O1 2.063012 1_545
Fe3 O6 2.010509 1_555
Fe3 O5 2.010730 1_554
Fe3 O2 2.018670 1_555
Fe3 O3 2.019602 1_555
Fe4 O2 1.894775 1_556
Fe4 O1 1.931198 1_555
Fe4 O5 1.956360 1_555
Fe4 O4 2.020544 1_555
Fe5 O3 1.894628 1_555
Fe5 O0 1.931462 1_555
Fe5 O6 1.956877 1_555
Fe5 O4 2.019322 1_555
F0 Fe1 1.977885 1_555
F0 Fe0 1.978228 1_554
F1 Mg0 1.993895 1_565
F1 Fe2 2.071871 1_665
F1 Fe4 2.280520 1_555
F1 Fe5 2.282797 1_555
F2 Fe3 2.021248 1_555
F2 Fe0 2.274898 1_644
F2 Fe1 2.276221 1_645
F3 Mg0 2.025381 1_555
F3 Fe2 2.115276 1_655
F3 Fe0 2.122963 1_645
F4 Mg0 2.024350 1_555
F4 Fe2 2.116925 1_655
F4 Fe1 2.122725 1_645
