# generated using pymatgen
data_TiSi2
_symmetry_space_group_name_H-M   'P 1'
_cell_length_a   4.76064196
_cell_length_b   4.76064113
_cell_length_c   4.88692788
_cell_angle_alpha   104.20688164
_cell_angle_beta   104.20689779
_cell_angle_gamma   119.74437225
_symmetry_Int_Tables_number   1
_chemical_formula_structural   TiSi2
_chemical_formula_sum   'Ti2 Si4'
_cell_volume   83.88406254
_cell_formula_units_Z   2
loop_
 _symmetry_equiv_pos_site_id
 _symmetry_equiv_pos_as_xyz
  1  'x, y, z'
loop_
 _atom_site_type_symbol
 _atom_site_label
 _atom_site_symmetry_multiplicity
 _atom_site_fract_x
 _atom_site_fract_y
 _atom_site_fract_z
 _atom_site_occupancy
  Ti  Ti0  1  0.87500000  0.12500000  0.25000000  1
  Ti  Ti1  1  0.12500000  0.87500000  0.75000000  1
  Si  Si0  1  0.53756561  0.46243439  0.25000000  1
  Si  Si1  1  0.21243439  0.78756561  0.25000000  1
  Si  Si2  1  0.78756561  0.21243439  0.75000000  1
  Si  Si3  1  0.46243439  0.53756561  0.75000000  1
loop_
_geom_bond_atom_site_label_1
_geom_bond_atom_site_label_2
_geom_bond_distance
_geom_bond_site_symmetry_2
Si0 Si3 2.520578 1_554
Si0 Si3 2.520579 1_555
Si0 Ti1 2.547342 1_544
Si0 Ti1 2.547342 1_655
Si0 Si1 2.677466 1_555
Si0 Ti0 2.738973 1_565
Si0 Ti0 2.738973 1_455
Si0 Ti0 2.778783 1_555
Si0 Si1 2.789894 1_545
Si0 Si1 2.789895 1_655
Si1 Si2 2.520579 1_454
Si1 Si2 2.520579 1_565
Si1 Ti1 2.547342 1_554
Si1 Ti1 2.547342 1_555
Si1 Ti0 2.738973 1_455
Si1 Ti0 2.738973 1_565
Si1 Ti0 2.778783 1_465
Si2 Ti0 2.547342 1_556
Si2 Ti0 2.547342 1_555
Si2 Si3 2.677466 1_555
Si2 Ti1 2.738973 1_655
Si2 Ti1 2.738973 1_545
Si2 Ti1 2.778783 1_645
Si2 Si3 2.789894 1_545
Si2 Si3 2.789895 1_655
Si3 Ti0 2.547342 1_566
Si3 Ti0 2.547342 1_455
Si3 Ti1 2.738973 1_545
Si3 Ti1 2.738973 1_655
Si3 Ti1 2.778783 1_555
