# generated using pymatgen
data_Ni(SbO2)2
_symmetry_space_group_name_H-M   'P 1'
_cell_length_a   5.93603100
_cell_length_b   8.38356416
_cell_length_c   8.38356416
_cell_angle_alpha   90.00000000
_cell_angle_beta   90.00000000
_cell_angle_gamma   90.00000000
_symmetry_Int_Tables_number   1
_chemical_formula_structural   Ni(SbO2)2
_chemical_formula_sum   'Ni4 Sb8 O16'
_cell_volume   417.20888148
_cell_formula_units_Z   4
loop_
 _symmetry_equiv_pos_site_id
 _symmetry_equiv_pos_as_xyz
  1  'x, y, z'
loop_
 _atom_site_type_symbol
 _atom_site_label
 _atom_site_symmetry_multiplicity
 _atom_site_fract_x
 _atom_site_fract_y
 _atom_site_fract_z
 _atom_site_occupancy
  Ni  Ni0  1  0.75000000  0.50000000  0.00000000  1
  Ni  Ni1  1  0.25000000  0.50000000  0.00000000  1
  Ni  Ni2  1  0.25000000  0.00000000  0.50000000  1
  Ni  Ni3  1  0.75000000  0.00000000  0.50000000  1
  Sb  Sb0  1  0.00000000  0.82927154  0.83582857  1
  Sb  Sb1  1  0.50000000  0.16417143  0.82927154  1
  Sb  Sb2  1  0.50000000  0.83582857  0.17072846  1
  Sb  Sb3  1  -0.00000000  0.17072846  0.16417143  1
  Sb  Sb4  1  -0.00000000  0.67072846  0.33582857  1
  Sb  Sb5  1  0.00000000  0.32927154  0.66417143  1
  Sb  Sb6  1  0.50000000  0.66417143  0.67072846  1
  Sb  Sb7  1  0.50000000  0.33582857  0.32927154  1
  O  O0  1  0.50000000  0.86144570  0.40215610  1
  O  O1  1  0.50000000  0.13855430  0.59784390  1
  O  O2  1  -0.00000000  0.40215610  0.13855430  1
  O  O3  1  0.00000000  0.59784390  0.86144570  1
  O  O4  1  0.00000000  0.90215610  0.36144570  1
  O  O5  1  0.50000000  0.63855430  0.90215610  1
  O  O6  1  0.50000000  0.36144570  0.09784390  1
  O  O7  1  -0.00000000  0.09784390  0.63855430  1
  O  O8  1  0.75000000  0.67552223  0.17552223  1
  O  O9  1  0.25000000  0.82447777  0.67552223  1
  O  O10  1  0.25000000  0.17552223  0.32447777  1
  O  O11  1  0.75000000  0.32447777  0.82447777  1
  O  O12  1  0.25000000  0.67552223  0.17552223  1
  O  O13  1  0.75000000  0.82447777  0.67552223  1
  O  O14  1  0.75000000  0.17552223  0.32447777  1
  O  O15  1  0.25000000  0.32447777  0.82447777  1
loop_
_geom_bond_atom_site_label_1
_geom_bond_atom_site_label_2
_geom_bond_distance
_geom_bond_site_symmetry_2
Ni0 O3 2.055336 1_654
Ni0 O6 2.055336 1_555
Ni0 O2 2.055336 1_655
Ni0 O5 2.055336 1_554
Ni0 O11 2.081018 1_554
Ni0 O8 2.081018 1_555
Ni1 O3 2.055336 1_554
Ni1 O6 2.055336 1_555
Ni1 O2 2.055336 1_555
Ni1 O5 2.055336 1_554
Ni1 O15 2.081018 1_554
Ni1 O12 2.081018 1_555
Ni2 O1 2.055336 1_555
Ni2 O7 2.055336 1_555
Ni2 O0 2.055336 1_545
Ni2 O4 2.055336 1_545
Ni2 O10 2.081018 1_555
Ni2 O9 2.081018 1_545
Ni3 O1 2.055336 1_555
Ni3 O7 2.055336 1_655
Ni3 O0 2.055336 1_545
Ni3 O4 2.055336 1_645
Ni3 O13 2.081018 1_545
Ni3 O14 2.081018 1_555
O0 Sb2 1.952039 1_555
O1 Sb1 1.952039 1_555
O2 Sb3 1.952039 1_555
O3 Sb0 1.952039 1_555
O4 Sb4 1.952039 1_555
O5 Sb6 1.952039 1_555
O6 Sb7 1.952039 1_555
O7 Sb5 1.952039 1_555
O8 Sb2 2.002515 1_555
O8 Sb4 2.002515 1_655
O9 Sb0 2.002515 1_555
O9 Sb6 2.002515 1_555
O10 Sb7 2.002515 1_555
O10 Sb3 2.002515 1_555
O11 Sb5 2.002515 1_655
O11 Sb1 2.002515 1_555
O12 Sb2 2.002515 1_555
O12 Sb4 2.002515 1_555
O13 Sb6 2.002515 1_555
O13 Sb0 2.002515 1_655
O14 Sb7 2.002515 1_555
O14 Sb3 2.002515 1_655
O15 Sb5 2.002515 1_555
O15 Sb1 2.002515 1_555
