# generated using pymatgen
data_K5GaSe4
_symmetry_space_group_name_H-M   'P 1'
_cell_length_a   12.78246300
_cell_length_b   13.04715800
_cell_length_c   15.90900900
_cell_angle_alpha   90.00000000
_cell_angle_beta   90.00000000
_cell_angle_gamma   90.00000000
_symmetry_Int_Tables_number   1
_chemical_formula_structural   K5GaSe4
_chemical_formula_sum   'K40 Ga8 Se32'
_cell_volume   2653.22202311
_cell_formula_units_Z   8
loop_
 _symmetry_equiv_pos_site_id
 _symmetry_equiv_pos_as_xyz
  1  'x, y, z'
loop_
 _atom_site_type_symbol
 _atom_site_label
 _atom_site_symmetry_multiplicity
 _atom_site_fract_x
 _atom_site_fract_y
 _atom_site_fract_z
 _atom_site_occupancy
  K  K0  1  0.05402800  0.34001100  0.27802900  1
  K  K1  1  0.55402800  0.15998900  0.72197100  1
  K  K2  1  0.94597200  0.84001100  0.22197100  1
  K  K3  1  0.44597200  0.65998900  0.77802900  1
  K  K4  1  0.94597200  0.65998900  0.72197100  1
  K  K5  1  0.44597200  0.84001100  0.27802900  1
  K  K6  1  0.05402800  0.15998900  0.77802900  1
  K  K7  1  0.55402800  0.34001100  0.22197100  1
  K  K8  1  0.38651800  0.01414100  0.05892800  1
  K  K9  1  0.88651800  0.48585900  0.94107200  1
  K  K10  1  0.61348200  0.51414100  0.44107200  1
  K  K11  1  0.11348200  0.98585900  0.55892800  1
  K  K12  1  0.61348200  0.98585900  0.94107200  1
  K  K13  1  0.11348200  0.51414100  0.05892800  1
  K  K14  1  0.38651800  0.48585900  0.55892800  1
  K  K15  1  0.88651800  0.01414100  0.44107200  1
  K  K16  1  0.05890900  0.07038400  0.10936300  1
  K  K17  1  0.55890900  0.42961600  0.89063700  1
  K  K18  1  0.94109100  0.57038400  0.39063700  1
  K  K19  1  0.44109100  0.92961600  0.60936300  1
  K  K20  1  0.94109100  0.92961600  0.89063700  1
  K  K21  1  0.44109100  0.57038400  0.10936300  1
  K  K22  1  0.05890900  0.42961600  0.60936300  1
  K  K23  1  0.55890900  0.07038400  0.39063700  1
  K  K24  1  0.17955500  0.64749400  0.26837700  1
  K  K25  1  0.67955500  0.85250600  0.73162300  1
  K  K26  1  0.82044500  0.14749400  0.23162300  1
  K  K27  1  0.32044500  0.35250600  0.76837700  1
  K  K28  1  0.82044500  0.35250600  0.73162300  1
  K  K29  1  0.32044500  0.14749400  0.26837700  1
  K  K30  1  0.17955500  0.85250600  0.76837700  1
  K  K31  1  0.67955500  0.64749400  0.23162300  1
  K  K32  1  0.27187800  0.78857300  0.98460400  1
  K  K33  1  0.77187800  0.71142700  0.01539600  1
  K  K34  1  0.72812200  0.28857300  0.51539600  1
  K  K35  1  0.22812200  0.21142700  0.48460400  1
  K  K36  1  0.72812200  0.21142700  0.01539600  1
  K  K37  1  0.22812200  0.28857300  0.98460400  1
  K  K38  1  0.27187800  0.71142700  0.48460400  1
  K  K39  1  0.77187800  0.78857300  0.51539600  1
  Ga  Ga0  1  0.16463900  0.93470900  0.33564300  1
  Ga  Ga1  1  0.66463900  0.56529100  0.66435700  1
  Ga  Ga2  1  0.83536100  0.43470900  0.16435700  1
  Ga  Ga3  1  0.33536100  0.06529100  0.83564300  1
  Ga  Ga4  1  0.83536100  0.06529100  0.66435700  1
  Ga  Ga5  1  0.33536100  0.43470900  0.33564300  1
  Ga  Ga6  1  0.16463900  0.56529100  0.83564300  1
  Ga  Ga7  1  0.66463900  0.93470900  0.16435700  1
  Se  Se0  1  0.06999900  0.09842300  0.32190500  1
  Se  Se1  1  0.56999900  0.40157700  0.67809500  1
  Se  Se2  1  0.93000100  0.59842300  0.17809500  1
  Se  Se3  1  0.43000100  0.90157700  0.82190500  1
  Se  Se4  1  0.93000100  0.90157700  0.67809500  1
  Se  Se5  1  0.43000100  0.59842300  0.32190500  1
  Se  Se6  1  0.06999900  0.40157700  0.82190500  1
  Se  Se7  1  0.56999900  0.09842300  0.17809500  1
  Se  Se8  1  0.31920400  0.96524800  0.42716200  1
  Se  Se9  1  0.81920400  0.53475200  0.57283800  1
  Se  Se10  1  0.68079600  0.46524800  0.07283800  1
  Se  Se11  1  0.18079600  0.03475200  0.92716200  1
  Se  Se12  1  0.68079600  0.03475200  0.57283800  1
  Se  Se13  1  0.18079600  0.46524800  0.42716200  1
  Se  Se14  1  0.31920400  0.53475200  0.92716200  1
  Se  Se15  1  0.81920400  0.96524800  0.07283800  1
  Se  Se16  1  0.21408500  0.88480100  0.19121900  1
  Se  Se17  1  0.71408500  0.61519900  0.80878100  1
  Se  Se18  1  0.78591500  0.38480100  0.30878100  1
  Se  Se19  1  0.28591500  0.11519900  0.69121900  1
  Se  Se20  1  0.78591500  0.11519900  0.80878100  1
  Se  Se21  1  0.28591500  0.38480100  0.19121900  1
  Se  Se22  1  0.21408500  0.61519900  0.69121900  1
  Se  Se23  1  0.71408500  0.88480100  0.30878100  1
  Se  Se24  1  0.05438400  0.80840400  0.40885100  1
  Se  Se25  1  0.55438400  0.69159600  0.59114900  1
  Se  Se26  1  0.94561600  0.30840400  0.09114900  1
  Se  Se27  1  0.44561600  0.19159600  0.90885100  1
  Se  Se28  1  0.94561600  0.19159600  0.59114900  1
  Se  Se29  1  0.44561600  0.30840400  0.40885100  1
  Se  Se30  1  0.05438400  0.69159600  0.90885100  1
  Se  Se31  1  0.55438400  0.80840400  0.09114900  1
loop_
_geom_bond_atom_site_label_1
_geom_bond_atom_site_label_2
_geom_bond_distance
_geom_bond_site_symmetry_2
K0 Se0 3.234849 1_555
K0 Se13 3.305248 1_555
K0 Se26 3.305995 1_455
K0 Se21 3.321843 1_555
K0 Se18 3.510865 1_455
K1 Se1 3.234849 1_555
K1 Se12 3.305248 1_555
K1 Se27 3.305995 1_555
K1 Se20 3.321843 1_555
K1 Se19 3.510865 1_555
K2 Se2 3.234849 1_555
K2 Se15 3.305248 1_555
K2 Se24 3.305995 1_655
K2 Se23 3.321843 1_555
K2 Se16 3.510865 1_655
K3 Se3 3.234849 1_555
K3 Se14 3.305248 1_555
K3 Se25 3.305995 1_555
K3 Se22 3.321843 1_555
K3 Se17 3.510865 1_555
K4 Se4 3.234849 1_555
K4 Se9 3.305248 1_555
K4 Se30 3.305995 1_655
K4 Se17 3.321843 1_555
K4 Se22 3.510865 1_655
K5 Se5 3.234849 1_555
K5 Se8 3.305248 1_555
K5 Se31 3.305995 1_555
K5 Se16 3.321843 1_555
K5 Se23 3.510865 1_555
K6 Se6 3.234849 1_555
K6 Se11 3.305248 1_555
K6 Se28 3.305995 1_455
K6 Se19 3.321843 1_555
K6 Se20 3.510865 1_455
K7 Se7 3.234849 1_555
K7 Se10 3.305248 1_555
K7 Se29 3.305995 1_555
K7 Se18 3.321843 1_555
K7 Se21 3.510865 1_555
K8 Se7 3.209983 1_555
K8 Se11 3.373666 1_554
K8 Se27 3.410530 1_554
K8 Se31 3.474528 1_545
K8 Se16 3.483573 1_545
K9 Se6 3.209983 1_655
K9 Se10 3.373666 1_556
K9 Se26 3.410530 1_556
K9 Se30 3.474528 1_655
K9 Se17 3.483573 1_555
K10 Se5 3.209983 1_555
K10 Se9 3.373666 1_555
K10 Se25 3.410530 1_555
K10 Se29 3.474528 1_555
K10 Se18 3.483573 1_555
K11 Se4 3.209983 1_455
K11 Se8 3.373666 1_555
K11 Se24 3.410530 1_555
K11 Se28 3.474528 1_465
K11 Se19 3.483573 1_565
K12 Se3 3.209983 1_555
K12 Se15 3.373666 1_556
K12 Se31 3.410530 1_556
K12 Se27 3.474528 1_565
K12 Se20 3.483573 1_565
K13 Se2 3.209983 1_455
K13 Se14 3.373666 1_554
K13 Se30 3.410530 1_554
K13 Se26 3.474528 1_455
K13 Se21 3.483573 1_555
K14 Se1 3.209983 1_555
K14 Se13 3.373666 1_555
K14 Se29 3.410530 1_555
K14 Se25 3.474528 1_555
K14 Se22 3.483573 1_555
K15 Se0 3.209983 1_655
K15 Se12 3.373666 1_555
K15 Se28 3.410530 1_555
K15 Se24 3.474528 1_645
K15 Se23 3.483573 1_545
K16 Se11 3.323498 1_554
K16 Se16 3.390146 1_545
K16 Se0 3.404018 1_555
K16 Se15 3.406979 1_445
K16 Se26 3.438775 1_455
K17 Se10 3.323498 1_556
K17 Se17 3.390146 1_555
K17 Se1 3.404018 1_555
K17 Se14 3.406979 1_555
K17 Se27 3.438775 1_555
K18 Se9 3.323498 1_555
K18 Se18 3.390146 1_555
K18 Se2 3.404018 1_555
K18 Se13 3.406979 1_655
K18 Se24 3.438775 1_655
K19 Se8 3.323498 1_555
K19 Se19 3.390146 1_565
K19 Se3 3.404018 1_555
K19 Se12 3.406979 1_565
K19 Se25 3.438775 1_555
K20 Se15 3.323498 1_556
K20 Se20 3.390146 1_565
K20 Se4 3.404018 1_555
K20 Se11 3.406979 1_665
K20 Se30 3.438775 1_655
K21 Se14 3.323498 1_554
K21 Se21 3.390146 1_555
K21 Se5 3.404018 1_555
K21 Se10 3.406979 1_555
K21 Se31 3.438775 1_555
K22 Se13 3.323498 1_555
K22 Se22 3.390146 1_555
K22 Se6 3.404018 1_555
K22 Se9 3.406979 1_455
K22 Se28 3.438775 1_455
K23 Se12 3.323498 1_555
K23 Se23 3.390146 1_545
K23 Se7 3.404018 1_555
K23 Se8 3.406979 1_545
K23 Se29 3.438775 1_555
K24 Se16 3.359752 1_555
K24 Se5 3.373947 1_555
K24 Se24 3.458595 1_555
K24 Se13 3.469206 1_555
K24 Se2 3.556460 1_455
K25 Se17 3.359752 1_555
K25 Se4 3.373947 1_555
K25 Se25 3.458595 1_555
K25 Se12 3.469206 1_565
K25 Se3 3.556460 1_555
K26 Se18 3.359752 1_555
K26 Se7 3.373947 1_555
K26 Se26 3.458595 1_555
K26 Se15 3.469206 1_545
K26 Se0 3.556460 1_655
K27 Se19 3.359752 1_555
K27 Se6 3.373947 1_555
K27 Se27 3.458595 1_555
K27 Se14 3.469206 1_555
K27 Se1 3.556460 1_555
K28 Se20 3.359752 1_555
K28 Se1 3.373947 1_555
K28 Se28 3.458595 1_555
K28 Se9 3.469206 1_555
K28 Se6 3.556460 1_655
K29 Se21 3.359752 1_555
K29 Se0 3.373947 1_555
K29 Se29 3.458595 1_555
K29 Se8 3.469206 1_545
K29 Se7 3.556460 1_555
K30 Se22 3.359752 1_555
K30 Se3 3.373947 1_555
K30 Se30 3.458595 1_555
K30 Se11 3.469206 1_565
K30 Se4 3.556460 1_455
K31 Se23 3.359752 1_555
K31 Se2 3.373947 1_555
K31 Se31 3.458595 1_555
K31 Se10 3.469206 1_555
K31 Se5 3.556460 1_555
K32 Se30 3.283645 1_555
K32 Se14 3.488273 1_555
K32 Se11 3.536542 1_565
K32 Se16 3.595365 1_556
K32 Se3 3.599828 1_555
K33 Se31 3.283645 1_555
K33 Se15 3.488273 1_555
K33 Se10 3.536542 1_555
K33 Se17 3.595365 1_554
K33 Se2 3.599828 1_555
K34 Se28 3.283645 1_555
K34 Se12 3.488273 1_555
K34 Se9 3.536542 1_555
K34 Se18 3.595365 1_555
K34 Se1 3.599828 1_555
K35 Se29 3.283645 1_555
K35 Se13 3.488273 1_555
K35 Se8 3.536542 1_545
K35 Se19 3.595365 1_555
K35 Se0 3.599828 1_555
K36 Se26 3.283645 1_555
K36 Se10 3.488273 1_555
K36 Se15 3.536542 1_545
K36 Se20 3.595365 1_554
K36 Se7 3.599828 1_555
K37 Se27 3.283645 1_555
K37 Se11 3.488273 1_555
K37 Se14 3.536542 1_555
K37 Se21 3.595365 1_556
K37 Se6 3.599828 1_555
K38 Se24 3.283645 1_555
K38 Se8 3.488273 1_555
K38 Se13 3.536542 1_555
K38 Se22 3.595365 1_555
K38 Se5 3.599828 1_555
K39 Se25 3.283645 1_555
K39 Se9 3.488273 1_555
K39 Se12 3.536542 1_565
K39 Se23 3.595365 1_555
K39 Se4 3.599828 1_555
Ga0 Se24 2.461363 1_555
Ga0 Se0 2.464493 1_565
Ga0 Se16 2.470353 1_555
Ga0 Se8 2.486384 1_555
Ga1 Se25 2.461363 1_555
Ga1 Se1 2.464493 1_555
Ga1 Se17 2.470353 1_555
Ga1 Se9 2.486384 1_555
Ga2 Se26 2.461363 1_555
Ga2 Se2 2.464493 1_555
Ga2 Se18 2.470353 1_555
Ga2 Se10 2.486384 1_555
Ga3 Se27 2.461363 1_555
Ga3 Se3 2.464493 1_545
Ga3 Se19 2.470353 1_555
Ga3 Se11 2.486384 1_555
Ga4 Se28 2.461363 1_555
Ga4 Se4 2.464493 1_545
Ga4 Se20 2.470353 1_555
Ga4 Se12 2.486384 1_555
Ga5 Se29 2.461363 1_555
Ga5 Se5 2.464493 1_555
Ga5 Se21 2.470353 1_555
Ga5 Se13 2.486384 1_555
Ga6 Se30 2.461363 1_555
Ga6 Se6 2.464493 1_555
Ga6 Se22 2.470353 1_555
Ga6 Se14 2.486384 1_555
Ga7 Se31 2.461363 1_555
Ga7 Se7 2.464493 1_565
Ga7 Se23 2.470353 1_555
Ga7 Se15 2.486384 1_555
