# generated using pymatgen
data_Na4YInSi2SO12
_symmetry_space_group_name_H-M   'P 1'
_cell_length_a   9.40292590
_cell_length_b   9.39794291
_cell_length_c   23.09059830
_cell_angle_alpha   89.97212370
_cell_angle_beta   90.10642575
_cell_angle_gamma   119.73057774
_symmetry_Int_Tables_number   1
_chemical_formula_structural   Na4YInSi2SO12
_chemical_formula_sum   'Na24 Y6 In6 Si12 S6 O72'
_cell_volume   1771.87669511
_cell_formula_units_Z   6
loop_
 _symmetry_equiv_pos_site_id
 _symmetry_equiv_pos_as_xyz
  1  'x, y, z'
loop_
 _atom_site_type_symbol
 _atom_site_label
 _atom_site_symmetry_multiplicity
 _atom_site_fract_x
 _atom_site_fract_y
 _atom_site_fract_z
 _atom_site_occupancy
  Na  Na0  1  0.65517437  0.99902003  0.25567890  1
  Na  Na1  1  0.36627682  0.38146165  0.23885878  1
  Na  Na2  1  0.98647101  0.61570656  0.25337145  1
  Na  Na3  1  0.61667224  0.63555253  0.74297905  1
  Na  Na4  1  0.00306482  0.35025138  0.75778644  1
  Na  Na5  1  0.38061570  0.00830307  0.75648723  1
  Na  Na6  1  0.32084002  0.33527960  0.58870580  1
  Na  Na7  1  0.03475040  0.71339827  0.57303398  1
  Na  Na8  1  0.64986971  0.94899389  0.58615450  1
  Na  Na9  1  0.28580755  0.96580534  0.07365915  1
  Na  Na10  1  0.66707882  0.68430477  0.08830669  1
  Na  Na11  1  0.04909511  0.34461337  0.08660077  1
  Na  Na12  1  0.98057282  0.66575018  0.92224467  1
  Na  Na13  1  0.70179903  0.04717995  0.90836295  1
  Na  Na14  1  0.32284776  0.28508691  0.92099796  1
  Na  Na15  1  0.95173345  0.30026308  0.40711200  1
  Na  Na16  1  0.33516430  0.01257290  0.42364543  1
  Na  Na17  1  0.71604866  0.67978826  0.42216020  1
  Na  Na18  1  0.98778024  0.97193583  0.50068992  1
  Na  Na19  1  0.02337789  0.01053265  0.99996755  1
  Na  Na20  1  0.65510433  0.30775127  0.83518379  1
  Na  Na21  1  0.69603302  0.34470930  0.33311514  1
  Na  Na22  1  0.32313940  0.64042595  0.16461567  1
  Na  Na23  1  0.35867331  0.67784537  0.66688070  1
  Y  Y0  1  0.98840911  0.99060706  0.34984757  1
  Y  Y1  1  0.99726719  0.00276661  0.65261391  1
  Y  Y2  1  0.65194530  0.32516384  0.68340397  1
  Y  Y3  1  0.67457632  0.34594699  0.18043641  1
  Y  Y4  1  0.66467877  0.33377556  0.48521010  1
  Y  Y5  1  0.33334634  0.66719324  0.31630357  1
  In  In0  1  0.01431250  0.02144351  0.85012189  1
  In  In1  1  0.99921092  0.00096478  0.14936025  1
  In  In2  1  0.66541145  0.33606911  0.98443356  1
  In  In3  1  0.31117201  0.65395627  0.01424445  1
  In  In4  1  0.34703262  0.68851341  0.51538460  1
  In  In5  1  0.33091565  0.66752839  0.81999733  1
  Si  Si0  1  0.69952916  0.70029450  0.24714824  1
  Si  Si1  1  0.00057033  0.29692113  0.24816656  1
  Si  Si2  1  0.30232556  0.30806174  0.75210292  1
  Si  Si3  1  0.69783127  0.99546696  0.75393541  1
  Si  Si4  1  0.35860961  0.02539690  0.58243055  1
  Si  Si5  1  0.66189937  0.63735896  0.58206267  1
  Si  Si6  1  0.96931219  0.63950528  0.08157231  1
  Si  Si7  1  0.36466391  0.33431031  0.08088465  1
  Si  Si8  1  0.02909027  0.36622838  0.91647161  1
  Si  Si9  1  0.33350206  0.96426062  0.91678519  1
  Si  Si10  1  0.63675997  0.97036525  0.41633233  1
  Si  Si11  1  0.03612318  0.66583445  0.41825060  1
  S  S0  1  0.29805261  0.00028841  0.24888014  1
  S  S1  1  0.00081538  0.70294579  0.75195958  1
  S  S2  1  0.97020776  0.33679352  0.58348236  1
  S  S3  1  0.66544902  0.03250899  0.08166718  1
  S  S4  1  0.63045703  0.66745436  0.91714334  1
  S  S5  1  0.33232570  0.36928535  0.41799788  1
  O  O0  1  0.22256668  0.02483048  0.30144956  1
  O  O1  1  0.81245596  0.78134635  0.30486646  1
  O  O2  1  0.98517473  0.19390838  0.30714929  1
  O  O3  1  0.22613709  0.18602945  0.80828538  1
  O  O4  1  0.97491402  0.77876176  0.80414493  1
  O  O5  1  0.81114450  0.01621611  0.81134652  1
  O  O6  1  0.77669275  0.96461435  0.69546440  1
  O  O7  1  0.18984317  0.22596113  0.69416918  1
  O  O8  1  0.02097330  0.80327446  0.69960970  1
  O  O9  1  0.78710772  0.81486335  0.18978108  1
  O  O10  1  0.03194529  0.21283652  0.19040858  1
  O  O11  1  0.19712468  0.97777082  0.19659511  1
  O  O12  1  0.89125153  0.35995981  0.63558902  1
  O  O13  1  0.47697968  0.11271788  0.63877684  1
  O  O14  1  0.64037753  0.52681700  0.63997719  1
  O  O15  1  0.88917060  0.52332930  0.13827884  1
  O  O16  1  0.64015007  0.10804756  0.13414444  1
  O  O17  1  0.47206386  0.35969182  0.13958041  1
  O  O18  1  0.44813371  0.29752596  0.02417584  1
  O  O19  1  0.85325182  0.55397607  0.02402419  1
  O  O20  1  0.68832761  0.13517028  0.02982670  1
  O  O21  1  0.44434236  0.13571590  0.52459781  1
  O  O22  1  0.69419036  0.55467855  0.52497547  1
  O  O23  1  0.86746094  0.31394333  0.53152033  1
  O  O24  1  0.55414928  0.69356631  0.96917831  1
  O  O25  1  0.14797115  0.44042748  0.97323518  1
  O  O26  1  0.30852140  0.85399657  0.97526363  1
  O  O27  1  0.55891920  0.85310173  0.47368566  1
  O  O28  1  0.30756826  0.44611918  0.47032229  1
  O  O29  1  0.14341564  0.68098877  0.47697452  1
  O  O30  1  0.11860893  0.63896622  0.36009968  1
  O  O31  1  0.52516406  0.88370238  0.35886845  1
  O  O32  1  0.35324725  0.46926605  0.36565320  1
  O  O33  1  0.11104887  0.48114442  0.85864823  1
  O  O34  1  0.36910767  0.88464807  0.85909102  1
  O  O35  1  0.53061704  0.64381997  0.86439957  1
  O  O36  1  0.03197368  0.83949376  0.41700329  1
  O  O37  1  0.82310064  0.99544416  0.41507883  1
  O  O38  1  0.18908899  0.20332163  0.41246345  1
  O  O39  1  0.00394186  0.17875539  0.91406268  1
  O  O40  1  0.15875086  0.97016604  0.91209930  1
  O  O41  1  0.79834083  0.81293890  0.91183211  1
  O  O42  1  0.98283402  0.18567774  0.58779312  1
  O  O43  1  0.17740327  0.01106824  0.58696949  1
  O  O44  1  0.82076905  0.82356635  0.58587941  1
  O  O45  1  0.98301569  0.82237592  0.08650699  1
  O  O46  1  0.81537825  0.01786624  0.08589044  1
  O  O47  1  0.17846589  0.17116843  0.08504060  1
  O  O48  1  0.69100110  0.16807637  0.75051519  1
  O  O49  1  0.48909482  0.33444079  0.74862320  1
  O  O50  1  0.85695499  0.53636619  0.74565266  1
  O  O51  1  0.67476228  0.51378945  0.24583893  1
  O  O52  1  0.82742286  0.30212972  0.24581458  1
  O  O53  1  0.46403606  0.14521097  0.24355177  1
  O  O54  1  0.64511313  0.51633882  0.92123742  1
  O  O55  1  0.84675357  0.35379474  0.92218112  1
  O  O56  1  0.49595742  0.15078058  0.92125387  1
  O  O57  1  0.64959819  0.15136991  0.41969503  1
  O  O58  1  0.48363675  0.35611793  0.42166971  1
  O  O59  1  0.85003612  0.50596322  0.42015021  1
  O  O60  1  0.35931072  0.50887435  0.07582571  1
  O  O61  1  0.15612093  0.66371595  0.07950591  1
  O  O62  1  0.51864795  0.86557764  0.07619496  1
  O  O63  1  0.33693616  0.83967445  0.58211036  1
  O  O64  1  0.48496939  0.63773354  0.57818125  1
  O  O65  1  0.13507647  0.48110754  0.57806437  1
  O  O66  1  0.31208017  0.85010098  0.25342355  1
  O  O67  1  0.51808794  0.68654195  0.25026428  1
  O  O68  1  0.16090357  0.48342036  0.24975339  1
  O  O69  1  0.31215593  0.48848322  0.75799261  1
  O  O70  1  0.15269530  0.69025820  0.75528996  1
  O  O71  1  0.51167307  0.83281479  0.75720336  1
loop_
_geom_bond_atom_site_label_1
_geom_bond_atom_site_label_2
_geom_bond_distance
_geom_bond_site_symmetry_2
Na0 O52 2.492855 1_565
Na0 O67 2.558585 1_555
Na0 O31 2.653397 1_555
Na0 O53 2.764598 1_565
Na0 O66 2.808969 1_555
Na0 O2 2.957534 1_565
Na0 O9 2.998118 1_555
Na0 O16 3.014046 1_565
Na1 O67 2.503483 1_555
Na1 O51 2.531203 1_555
Na1 O17 2.548953 1_555
Na1 O68 2.558898 1_555
Na1 O53 2.794636 1_555
Na1 O10 2.948416 1_555
Na1 O32 3.061317 1_555
Na2 O68 2.503163 1_655
Na2 O52 2.565134 1_555
Na2 O51 2.598482 1_555
Na2 O30 2.717475 1_655
Na2 O66 2.745354 1_655
Na2 O15 2.803350 1_555
Na3 O49 2.469253 1_555
Na3 O69 2.511411 1_555
Na3 O71 2.517264 1_555
Na3 O14 2.642133 1_555
Na3 O50 2.840023 1_555
Na3 O6 2.901537 1_555
Na3 O35 2.931275 1_555
Na4 O69 2.527788 1_555
Na4 O48 2.566171 1_455
Na4 O33 2.592950 1_555
Na4 O50 2.721550 1_455
Na4 O70 2.781052 1_555
Na4 O7 2.941541 1_555
Na4 O5 3.004428 1_455
Na4 O12 3.026396 1_455
Na5 O71 2.500910 1_545
Na5 O48 2.538938 1_555
Na5 O34 2.617015 1_545
Na5 O70 2.678440 1_545
Na5 O49 2.714229 1_555
Na5 O13 2.880303 1_555
Na5 O3 2.957189 1_555
Na6 O64 2.483964 1_555
Na6 O43 2.651106 1_555
Na6 O7 2.693794 1_555
Na6 O65 2.713308 1_555
Na6 O42 2.765168 1_455
Na6 O14 2.879910 1_555
Na6 O28 2.949204 1_555
Na6 O21 3.037531 1_555
Na7 O43 2.450746 1_565
Na7 O63 2.485859 1_555
Na7 O29 2.524753 1_555
Na7 O44 2.697590 1_455
Na7 O65 2.776887 1_555
Na8 O44 2.418807 1_555
Na8 O64 2.548668 1_555
Na8 O63 2.592905 1_555
Na8 O27 2.741786 1_555
Na8 O6 2.762228 1_555
Na8 O42 2.800654 1_565
Na8 O13 2.996141 1_565
Na9 O61 2.476237 1_555
Na9 O45 2.491463 1_455
Na9 O26 2.557047 1_554
Na9 O47 2.597354 1_565
Na9 O62 2.780101 1_555
Na9 O18 2.938957 1_565
Na9 O11 2.977940 1_555
Na10 O60 2.537934 1_555
Na10 O45 2.586071 1_555
Na10 O9 2.624668 1_555
Na10 O62 2.699027 1_555
Na10 O46 2.727450 1_565
Na10 O17 2.920108 1_555
Na10 O24 2.963499 1_554
Na10 O19 2.984287 1_555
Na11 O47 2.470826 1_555
Na11 O60 2.547469 1_555
Na11 O61 2.653266 1_555
Na11 O10 2.665656 1_555
Na11 O46 2.750623 1_455
Na11 O25 2.775581 1_554
Na11 O15 3.003299 1_455
Na12 O40 2.508638 1_655
Na12 O55 2.553330 1_555
Na12 O19 2.611633 1_556
Na12 O41 2.693779 1_555
Na12 O54 2.743824 1_555
Na12 O4 2.935988 1_555
Na12 O26 2.952083 1_655
Na12 O33 2.965104 1_655
Na13 O39 2.476320 1_655
Na13 O55 2.523223 1_555
Na13 O5 2.542853 1_555
Na13 O56 2.579594 1_555
Na13 O41 2.767343 1_545
Na13 O34 2.943255 1_545
Na13 O20 2.945081 1_556
Na14 O56 2.506084 1_555
Na14 O40 2.579211 1_545
Na14 O18 2.632631 1_556
Na14 O39 2.653752 1_555
Na14 O54 2.715444 1_555
Na14 O3 2.760621 1_555
Na14 O25 2.946201 1_555
Na15 O57 2.484599 1_555
Na15 O37 2.503360 1_545
Na15 O59 2.564625 1_555
Na15 O2 2.596606 1_555
Na15 O38 2.800352 1_655
Na15 O30 2.970145 1_655
Na15 O23 3.001082 1_555
Na16 O36 2.489187 1_545
Na16 O57 2.574297 1_555
Na16 O21 2.577280 1_555
Na16 O38 2.758126 1_555
Na16 O58 2.811500 1_555
Na16 O29 2.984916 1_545
Na16 O31 3.008918 1_545
Na16 O0 3.033984 1_555
Na17 O59 2.509923 1_555
Na17 O36 2.582704 1_655
Na17 O22 2.611568 1_555
Na17 O37 2.622707 1_555
Na17 O58 2.726780 1_555
Na17 O1 2.866444 1_555
Na17 O27 2.940527 1_555
Na18 O36 2.444242 1_655
Na18 O44 2.473206 1_555
Na18 O43 2.573046 1_665
Na18 O37 2.584931 1_555
Na18 O42 2.859948 1_565
Na18 O38 2.896428 1_665
Na19 O47 2.464375 1_556
Na19 O40 2.523896 1_545
Na19 O45 2.568582 1_446
Na19 O39 2.598002 1_555
Na19 O46 2.813266 1_456
Na19 O41 2.856191 1_445
Na20 O48 2.470550 1_555
Na20 O56 2.486767 1_555
Na20 O55 2.585346 1_555
Na20 O49 2.621214 1_555
Na20 O54 2.826130 1_555
Na20 O50 2.908257 1_555
Na21 O59 2.499590 1_555
Na21 O52 2.500077 1_555
Na21 O57 2.588758 1_555
Na21 O51 2.633785 1_555
Na21 O58 2.899823 1_555
Na21 O53 2.912254 1_555
Na22 O68 2.478864 1_555
Na22 O60 2.503926 1_555
Na22 O67 2.580434 1_555
Na22 O61 2.589491 1_555
Na22 O62 2.859528 1_555
Na22 O66 2.882148 1_555
Na23 O64 2.490181 1_555
Na23 O71 2.540510 1_555
Na23 O63 2.547574 1_555
Na23 O69 2.648049 1_555
Na23 O70 2.858533 1_555
Na23 O65 2.859517 1_555
In0 O3 2.059823 1_555
In0 O5 2.086670 1_455
In0 O39 2.126193 1_555
In0 O40 2.183136 1_545
In0 O4 2.372513 1_445
In0 O41 2.460750 1_445
In1 O10 2.085836 1_655
In1 O9 2.110275 1_545
In1 O45 2.166676 1_545
In1 O47 2.222211 1_655
In1 O11 2.257181 1_645
In1 O46 2.328885 1_555
In2 O18 2.102380 1_556
In2 O19 2.134809 1_556
In2 O55 2.174549 1_555
In2 O56 2.222880 1_555
In2 O20 2.260639 1_556
In2 O54 2.313714 1_555
In3 O25 2.054420 1_554
In3 O26 2.095186 1_554
In3 O61 2.132074 1_555
In3 O60 2.166503 1_555
In3 O24 2.367737 1_554
In3 O62 2.439603 1_555
In4 O27 2.058684 1_555
In4 O29 2.077680 1_555
In4 O63 2.130126 1_555
In4 O64 2.149133 1_555
In4 O28 2.360536 1_555
In4 O65 2.453780 1_555
In5 O34 2.093125 1_555
In5 O33 2.133630 1_555
In5 O69 2.149256 1_555
In5 O71 2.189157 1_555
In5 O35 2.243765 1_555
In5 O70 2.330618 1_555
O0 S0 1.481991 1_555
O0 Y0 2.346599 1_445
O1 Si0 1.636290 1_555
O1 Y0 2.109993 1_555
O2 Si1 1.635094 1_655
O2 Y0 2.163126 1_545
O3 Si2 1.642727 1_555
O4 S1 1.480891 1_655
O5 Si3 1.649109 1_545
O6 Si3 1.635281 1_555
O6 Y1 2.163079 1_565
O7 Si2 1.640069 1_555
O7 Y1 2.197196 1_455
O8 S1 1.486140 1_555
O8 Y1 2.270202 1_465
O9 Si0 1.647834 1_555
O10 Si1 1.650414 1_555
O11 S0 1.483163 1_565
O12 S2 1.486642 1_555
O12 Y2 2.380813 1_555
O13 Si4 1.641576 1_555
O13 Y2 2.119557 1_555
O14 Si5 1.643062 1_555
O14 Y2 2.193408 1_555
O15 Si6 1.631149 1_555
O15 Y3 2.113658 1_555
O16 S3 1.482652 1_555
O16 Y3 2.351427 1_555
O17 Si7 1.633996 1_555
O17 Y3 2.184001 1_555
O18 Si7 1.650308 1_555
O19 Si6 1.651794 1_555
O20 S3 1.484579 1_555
O21 Si4 1.637594 1_555
O21 Y4 2.182802 1_555
O22 Si5 1.634026 1_555
O22 Y4 2.158597 1_555
O23 S2 1.486363 1_555
O23 Y4 2.271256 1_555
O24 S4 1.482170 1_555
O25 Si8 1.635867 1_555
O26 Si9 1.646423 1_555
O27 Si10 1.645048 1_555
O28 S5 1.484574 1_555
O29 Si11 1.652071 1_555
O30 Si11 1.633010 1_555
O30 Y5 2.155486 1_555
O31 Si10 1.635005 1_555
O31 Y5 2.171323 1_555
O32 S5 1.482868 1_555
O32 Y5 2.266250 1_555
O33 Si8 1.649202 1_555
O34 Si9 1.642467 1_555
O35 S4 1.484284 1_555
O36 Si11 1.651973 1_555
O36 Y0 2.271937 1_455
O37 Si10 1.648331 1_555
O37 Y0 2.183059 1_555
O38 S5 1.476154 1_555
O38 Y0 2.428719 1_445
O39 Si8 1.658307 1_555
O40 Si9 1.674690 1_555
O41 S4 1.495397 1_555
O42 S2 1.485920 1_555
O42 Y1 2.332752 1_555
O43 Si4 1.644800 1_555
O43 Y1 2.247437 1_455
O44 Si5 1.645758 1_555
O44 Y1 2.277250 1_565
O45 Si6 1.662436 1_555
O46 S3 1.485868 1_555
O47 Si7 1.662308 1_555
O48 Si3 1.656803 1_545
O48 Y2 2.291090 1_555
O49 Si2 1.649472 1_555
O49 Y2 2.182061 1_555
O50 S1 1.483551 1_655
O50 Y2 2.432935 1_555
O51 Si0 1.649999 1_555
O51 Y3 2.183652 1_555
O52 Si1 1.653707 1_655
O52 Y3 2.256640 1_555
O53 S0 1.482633 1_555
O53 Y3 2.430190 1_555
O54 S4 1.496251 1_555
O55 Si8 1.665130 1_655
O56 Si9 1.661480 1_545
O57 Si10 1.646410 1_545
O57 Y4 2.237824 1_555
O58 S5 1.490280 1_555
O58 Y4 2.332290 1_555
O59 Si11 1.647329 1_655
O59 Y4 2.263429 1_555
O60 Si7 1.670107 1_555
O61 Si6 1.656322 1_455
O62 S3 1.494727 1_565
O63 Si4 1.653857 1_565
O64 Si5 1.667652 1_555
O65 S2 1.474286 1_455
O66 S0 1.484944 1_565
O66 Y5 2.332453 1_555
O67 Si0 1.647521 1_555
O67 Y5 2.252149 1_555
O68 Si1 1.650823 1_555
O68 Y5 2.277966 1_555
O69 Si2 1.657345 1_555
O70 S1 1.492690 1_555
O71 Si3 1.659159 1_555
