# generated using pymatgen
data_Ca(FeO2)2
_symmetry_space_group_name_H-M   'P 1'
_cell_length_a   3.02567488
_cell_length_b   9.24346216
_cell_length_c   10.72256921
_cell_angle_alpha   90.00000000
_cell_angle_beta   90.00000000
_cell_angle_gamma   90.00000000
_symmetry_Int_Tables_number   1
_chemical_formula_structural   Ca(FeO2)2
_chemical_formula_sum   'Ca4 Fe8 O16'
_cell_volume   299.88571965
_cell_formula_units_Z   4
loop_
 _symmetry_equiv_pos_site_id
 _symmetry_equiv_pos_as_xyz
  1  'x, y, z'
loop_
 _atom_site_type_symbol
 _atom_site_label
 _atom_site_symmetry_multiplicity
 _atom_site_fract_x
 _atom_site_fract_y
 _atom_site_fract_z
 _atom_site_occupancy
  Ca  Ca0  1  0.75000000  0.24342433  0.34370964  1
  Ca  Ca1  1  0.25000000  0.75657567  0.65629036  1
  Ca  Ca2  1  0.75000000  0.74342433  0.15629036  1
  Ca  Ca3  1  0.25000000  0.25657567  0.84370964  1
  Fe  Fe0  1  0.25000000  0.41979698  0.10432678  1
  Fe  Fe1  1  0.75000000  0.08020302  0.60432678  1
  Fe  Fe2  1  0.25000000  0.91979698  0.39567322  1
  Fe  Fe3  1  0.75000000  0.58020302  0.89567322  1
  Fe  Fe4  1  0.75000000  0.56780903  0.38981136  1
  Fe  Fe5  1  0.25000000  0.43219097  0.61018864  1
  Fe  Fe6  1  0.75000000  0.06780903  0.11018864  1
  Fe  Fe7  1  0.25000000  0.93219097  0.88981136  1
  O  O0  1  0.25000000  0.91767340  0.07326654  1
  O  O1  1  0.75000000  0.08232660  0.92673346  1
  O  O2  1  0.25000000  0.41767340  0.42673346  1
  O  O3  1  0.75000000  0.58232660  0.57326654  1
  O  O4  1  0.25000000  0.02547117  0.71676489  1
  O  O5  1  0.75000000  0.97452883  0.28323511  1
  O  O6  1  0.25000000  0.52547117  0.78323511  1
  O  O7  1  0.75000000  0.47452883  0.21676489  1
  O  O8  1  0.25000000  0.61989771  0.02445651  1
  O  O9  1  0.75000000  0.38010229  0.97554349  1
  O  O10  1  0.25000000  0.11989771  0.47554349  1
  O  O11  1  0.75000000  0.88010229  0.52445651  1
  O  O12  1  0.75000000  0.79475416  0.83582048  1
  O  O13  1  0.25000000  0.20524584  0.16417952  1
  O  O14  1  0.25000000  0.70524584  0.33582048  1
  O  O15  1  0.75000000  0.29475416  0.66417952  1
loop_
_geom_bond_atom_site_label_1
_geom_bond_atom_site_label_2
_geom_bond_distance
_geom_bond_site_symmetry_2
Ca0 O10 2.364461 1_555
Ca0 O10 2.364461 1_655
Ca0 O2 2.382315 1_555
Ca0 O2 2.382315 1_655
Ca0 O13 2.473648 1_555
Ca0 O13 2.473648 1_655
Ca0 O7 2.533016 1_555
Ca0 O5 2.568718 1_545
Ca1 O11 2.364461 1_555
Ca1 O11 2.364461 1_455
Ca1 O3 2.382315 1_555
Ca1 O3 2.382315 1_455
Ca1 O12 2.473648 1_555
Ca1 O12 2.473648 1_455
Ca1 O6 2.533016 1_555
Ca1 O4 2.568718 1_565
Ca2 O8 2.364461 1_555
Ca2 O8 2.364461 1_655
Ca2 O0 2.382315 1_555
Ca2 O0 2.382315 1_655
Ca2 O14 2.473648 1_555
Ca2 O14 2.473648 1_655
Ca2 O5 2.533016 1_555
Ca2 O7 2.568718 1_555
Ca3 O9 2.364461 1_455
Ca3 O9 2.364461 1_555
Ca3 O1 2.382315 1_555
Ca3 O1 2.382315 1_455
Ca3 O15 2.473648 1_455
Ca3 O15 2.473648 1_555
Ca3 O4 2.533016 1_555
Ca3 O6 2.568718 1_555
Fe0 O7 1.999539 1_455
Fe0 O7 1.999539 1_555
Fe0 O8 2.038272 1_555
Fe0 O9 2.080903 1_554
Fe0 O9 2.080903 1_454
Fe0 O13 2.084452 1_555
Fe1 O4 1.999539 1_555
Fe1 O4 1.999539 1_655
Fe1 O11 2.038272 1_545
Fe1 O10 2.080903 1_555
Fe1 O10 2.080903 1_655
Fe1 O15 2.084452 1_555
Fe2 O5 1.999539 1_555
Fe2 O5 1.999539 1_455
Fe2 O10 2.038272 1_565
Fe2 O11 2.080903 1_455
Fe2 O11 2.080903 1_555
Fe2 O14 2.084452 1_555
Fe3 O6 1.999539 1_655
Fe3 O6 1.999539 1_555
Fe3 O9 2.038272 1_555
Fe3 O8 2.080903 1_656
Fe3 O8 2.080903 1_556
Fe3 O12 2.084452 1_555
Fe4 O3 1.971683 1_555
Fe4 O7 2.046053 1_555
Fe4 O14 2.058573 1_655
Fe4 O14 2.058573 1_555
Fe4 O2 2.090772 1_555
Fe4 O2 2.090772 1_655
Fe5 O2 1.971683 1_555
Fe5 O6 2.046053 1_555
Fe5 O15 2.058573 1_455
Fe5 O15 2.058573 1_555
Fe5 O3 2.090772 1_455
Fe5 O3 2.090772 1_555
Fe6 O1 1.971683 1_554
Fe6 O5 2.046053 1_545
Fe6 O13 2.058573 1_555
Fe6 O13 2.058573 1_655
Fe6 O0 2.090772 1_645
Fe6 O0 2.090772 1_545
Fe7 O0 1.971683 1_556
Fe7 O4 2.046053 1_565
Fe7 O12 2.058573 1_555
Fe7 O12 2.058573 1_455
Fe7 O1 2.090772 1_465
Fe7 O1 2.090772 1_565
