# generated using pymatgen
data_Na9CaNb5(SiO4)9
_symmetry_space_group_name_H-M   'P 1'
_cell_length_a   9.17084433
_cell_length_b   27.45477767
_cell_length_c   22.56216262
_cell_angle_alpha   89.97408819
_cell_angle_beta   89.97952911
_cell_angle_gamma   120.08290655
_symmetry_Int_Tables_number   1
_chemical_formula_structural   Na9CaNb5(SiO4)9
_chemical_formula_sum   'Na54 Ca6 Nb30 Si54 O216'
_cell_volume   4915.58308324
_cell_formula_units_Z   6
loop_
 _symmetry_equiv_pos_site_id
 _symmetry_equiv_pos_as_xyz
  1  'x, y, z'
loop_
 _atom_site_type_symbol
 _atom_site_label
 _atom_site_symmetry_multiplicity
 _atom_site_fract_x
 _atom_site_fract_y
 _atom_site_fract_z
 _atom_site_occupancy
  Na  Na0  1  0.00177440  0.00112611  0.49463034  1
  Na  Na1  1  0.99052594  0.33018800  0.49774461  1
  Na  Na2  1  0.00379064  0.66849952  0.50464507  1
  Na  Na3  1  0.98773225  0.99682020  0.99824551  1
  Na  Na4  1  0.99929051  0.32985391  0.99840788  1
  Na  Na5  1  0.01221024  0.66840206  0.00801295  1
  Na  Na6  1  0.66607026  0.11042997  0.83151226  1
  Na  Na7  1  0.66844415  0.44176267  0.83580103  1
  Na  Na8  1  0.66639527  0.78604218  0.83425820  1
  Na  Na9  1  0.66432344  0.10992764  0.33001050  1
  Na  Na10  1  0.65888245  0.44269273  0.33621654  1
  Na  Na11  1  0.68052100  0.78184504  0.33485177  1
  Na  Na12  1  0.34123004  0.22455566  0.16856752  1
  Na  Na13  1  0.34003266  0.55352824  0.16901370  1
  Na  Na14  1  0.33410586  0.88909178  0.16688382  1
  Na  Na15  1  0.33321227  0.22497238  0.66869625  1
  Na  Na16  1  0.32214231  0.55346950  0.66632981  1
  Na  Na17  1  0.34358487  0.88805705  0.66925813  1
  Na  Na18  1  0.62403164  0.00492060  0.24517559  1
  Na  Na19  1  0.64537886  0.66467171  0.24852415  1
  Na  Na20  1  0.38671203  0.12294031  0.24458186  1
  Na  Na21  1  0.35427359  0.78745868  0.24703314  1
  Na  Na22  1  0.98206973  0.20296709  0.24427976  1
  Na  Na23  1  0.00656883  0.54889749  0.24637957  1
  Na  Na24  1  0.62809177  0.20351270  0.74433273  1
  Na  Na25  1  0.63860924  0.54820669  0.74472218  1
  Na  Na26  1  0.98190620  0.12357828  0.74603020  1
  Na  Na27  1  0.00829929  0.78832406  0.74702311  1
  Na  Na28  1  0.39123402  0.00518394  0.74572234  1
  Na  Na29  1  0.34923214  0.66428145  0.74694143  1
  Na  Na30  1  0.31845341  0.11274449  0.58509887  1
  Na  Na31  1  0.31470157  0.44227547  0.57848644  1
  Na  Na32  1  0.27538077  0.77223345  0.58818937  1
  Na  Na33  1  0.02179503  0.22719551  0.58739046  1
  Na  Na34  1  0.02401698  0.57273563  0.58676682  1
  Na  Na35  1  0.02908754  0.90021181  0.58060836  1
  Na  Na36  1  0.67296745  0.32747069  0.57774559  1
  Na  Na37  1  0.68522134  0.65546825  0.59099895  1
  Na  Na38  1  0.65886833  0.99212975  0.58569699  1
  Na  Na39  1  0.30885932  0.32699387  0.07832516  1
  Na  Na40  1  0.28401364  0.65630492  0.09300567  1
  Na  Na41  1  0.31342114  0.99135786  0.08615606  1
  Na  Na42  1  0.65917350  0.22653545  0.08767213  1
  Na  Na43  1  0.69383200  0.57292394  0.08864870  1
  Na  Na44  1  0.02123555  0.11224618  0.08691091  1
  Na  Na45  1  0.01009110  0.44170906  0.07972956  1
  Na  Na46  1  0.04448356  0.77362675  0.08860054  1
  Na  Na47  1  0.94112304  0.54911372  0.92481968  1
  Na  Na48  1  0.70165508  0.34966272  0.92221753  1
  Na  Na49  1  0.70413033  0.68049424  0.91851889  1
  Na  Na50  1  0.34899567  0.43117596  0.92151637  1
  Na  Na51  1  0.94679910  0.43230808  0.42130532  1
  Na  Na52  1  0.34814345  0.35021160  0.42180856  1
  Na  Na53  1  0.70913016  0.55010550  0.42323968  1
  Ca  Ca0  1  0.00393946  0.66819325  0.65153290  1
  Ca  Ca1  1  0.00221579  0.66861658  0.15212847  1
  Ca  Ca2  1  0.66834094  0.11131396  0.68397733  1
  Ca  Ca3  1  0.66537134  0.11106609  0.18373141  1
  Ca  Ca4  1  0.65763267  0.44014118  0.98186963  1
  Ca  Ca5  1  0.66441378  0.44067686  0.48141667  1
  Nb  Nb0  1  0.99601003  0.99741035  0.35765517  1
  Nb  Nb1  1  0.00063344  0.33409958  0.35510412  1
  Nb  Nb2  1  0.00428819  0.66857573  0.35359653  1
  Nb  Nb3  1  0.99800182  0.99787513  0.85854735  1
  Nb  Nb4  1  0.00079245  0.33375502  0.85536256  1
  Nb  Nb5  1  0.00534211  0.66871082  0.85290294  1
  Nb  Nb6  1  0.99666296  0.99992929  0.64679814  1
  Nb  Nb7  1  0.00114501  0.33256410  0.65041753  1
  Nb  Nb8  1  0.99689941  0.99831885  0.14573238  1
  Nb  Nb9  1  0.99646786  0.33252430  0.15055886  1
  Nb  Nb10  1  0.66423799  0.44309046  0.68621606  1
  Nb  Nb11  1  0.66768768  0.77928794  0.68815903  1
  Nb  Nb12  1  0.66502223  0.44328231  0.18645597  1
  Nb  Nb13  1  0.66969088  0.77967330  0.18808891  1
  Nb  Nb14  1  0.66779820  0.11072430  0.97918788  1
  Nb  Nb15  1  0.67119099  0.78262689  0.97653985  1
  Nb  Nb16  1  0.66533988  0.11125564  0.47849736  1
  Nb  Nb17  1  0.66977023  0.77952925  0.47433530  1
  Nb  Nb18  1  0.33017300  0.22227146  0.01598428  1
  Nb  Nb19  1  0.33195433  0.55586675  0.02184740  1
  Nb  Nb20  1  0.33796858  0.88794758  0.01946612  1
  Nb  Nb21  1  0.33725350  0.22249630  0.51584007  1
  Nb  Nb22  1  0.33441258  0.55616777  0.52065132  1
  Nb  Nb23  1  0.32843963  0.88770212  0.51779777  1
  Nb  Nb24  1  0.33120643  0.22007390  0.31138599  1
  Nb  Nb25  1  0.33601899  0.55536431  0.31402410  1
  Nb  Nb26  1  0.33117957  0.89121090  0.31410167  1
  Nb  Nb27  1  0.32940788  0.22031205  0.81160960  1
  Nb  Nb28  1  0.32909595  0.55436028  0.81335241  1
  Nb  Nb29  1  0.34225189  0.89153710  0.81454547  1
  Si  Si0  1  0.28192878  0.99718409  0.25207880  1
  Si  Si1  1  0.29156273  0.33324791  0.25133952  1
  Si  Si2  1  0.30034636  0.66697591  0.24929601  1
  Si  Si3  1  0.70439612  0.23690427  0.25323692  1
  Si  Si4  1  0.70400769  0.56698853  0.24898313  1
  Si  Si5  1  0.70854220  0.90401954  0.25153466  1
  Si  Si6  1  0.00382749  0.09500779  0.25184354  1
  Si  Si7  1  0.99885423  0.43119798  0.25202340  1
  Si  Si8  1  0.00152377  0.76720117  0.24862339  1
  Si  Si9  1  0.28307287  0.09555256  0.75262351  1
  Si  Si10  1  0.29421917  0.43069202  0.75220272  1
  Si  Si11  1  0.30066080  0.76797516  0.74805406  1
  Si  Si12  1  0.00670095  0.23703576  0.75316017  1
  Si  Si13  1  0.99595832  0.56673434  0.74900990  1
  Si  Si14  1  0.00386887  0.90423482  0.75056335  1
  Si  Si15  1  0.70893096  0.99736578  0.75337718  1
  Si  Si16  1  0.70833033  0.33332630  0.75137426  1
  Si  Si17  1  0.70044444  0.66698488  0.74980480  1
  Si  Si18  1  0.96497142  0.11169867  0.58365285  1
  Si  Si19  1  0.96356853  0.44417788  0.58278343  1
  Si  Si20  1  0.95757339  0.78017331  0.58086641  1
  Si  Si21  1  0.37102057  0.01230558  0.58469884  1
  Si  Si22  1  0.36498378  0.34352739  0.58188597  1
  Si  Si23  1  0.38550047  0.68231156  0.58106035  1
  Si  Si24  1  0.66682661  0.21070293  0.58444948  1
  Si  Si25  1  0.66433403  0.54239473  0.58003249  1
  Si  Si26  1  0.66030484  0.87335675  0.58213833  1
  Si  Si27  1  0.96531336  0.21066884  0.08443137  1
  Si  Si28  1  0.96158752  0.54236739  0.07998113  1
  Si  Si29  1  0.96036504  0.87431737  0.08273144  1
  Si  Si30  1  0.66611035  0.01190588  0.08495210  1
  Si  Si31  1  0.66550767  0.34342871  0.08200560  1
  Si  Si32  1  0.66255535  0.68266874  0.08010416  1
  Si  Si33  1  0.36981584  0.11158201  0.08369664  1
  Si  Si34  1  0.36911904  0.44406929  0.08255504  1
  Si  Si35  1  0.38470704  0.78154730  0.08222357  1
  Si  Si36  1  0.62289846  0.22107017  0.91538530  1
  Si  Si37  1  0.62743554  0.55797817  0.91500435  1
  Si  Si38  1  0.62665125  0.88930409  0.91648399  1
  Si  Si39  1  0.03720054  0.12359439  0.91453891  1
  Si  Si40  1  0.04551867  0.45695679  0.91783379  1
  Si  Si41  1  0.04512745  0.79350170  0.91523978  1
  Si  Si42  1  0.32448801  0.31750351  0.91311945  1
  Si  Si43  1  0.33029569  0.65284819  0.91678179  1
  Si  Si44  1  0.33362000  0.98600059  0.91845582  1
  Si  Si45  1  0.62810742  0.31753209  0.41277836  1
  Si  Si46  1  0.62812299  0.65297613  0.41650577  1
  Si  Si47  1  0.62568477  0.98655432  0.41753472  1
  Si  Si48  1  0.33307676  0.12352487  0.41455657  1
  Si  Si49  1  0.32583568  0.45715491  0.41766322  1
  Si  Si50  1  0.33407186  0.79276451  0.41468306  1
  Si  Si51  1  0.04116489  0.22147836  0.41538650  1
  Si  Si52  1  0.04871681  0.55929418  0.41502117  1
  Si  Si53  1  0.03948438  0.88914780  0.41687967  1
  O  O0  1  0.16881185  0.99734533  0.30844261  1
  O  O1  1  0.20026316  0.34247908  0.31025680  1
  O  O2  1  0.19082473  0.67610251  0.30273173  1
  O  O3  1  0.83248743  0.27671229  0.30701042  1
  O  O4  1  0.83641196  0.60198469  0.30429008  1
  O  O5  1  0.81858827  0.93361465  0.31095350  1
  O  O6  1  0.99327105  0.05461104  0.30737265  1
  O  O7  1  0.98613554  0.39502017  0.31209827  1
  O  O8  1  0.96874982  0.71996395  0.30118955  1
  O  O9  1  0.17140952  0.05498697  0.80747550  1
  O  O10  1  0.19906403  0.39501084  0.81240009  1
  O  O11  1  0.18906841  0.72092660  0.80124374  1
  O  O12  1  0.99781851  0.27677483  0.80694655  1
  O  O13  1  0.97035837  0.60280758  0.80439128  1
  O  O14  1  0.98349103  0.93472666  0.80914730  1
  O  O15  1  0.82376263  0.99767502  0.80872564  1
  O  O16  1  0.82723541  0.34255258  0.81027651  1
  O  O17  1  0.83066502  0.67601213  0.80591255  1
  O  O18  1  0.80140619  0.32319488  0.69349458  1
  O  O19  1  0.75802400  0.65001140  0.69053224  1
  O  O20  1  0.80474975  0.99310743  0.69108827  1
  O  O21  1  0.17084354  0.06370986  0.69084136  1
  O  O22  1  0.17343403  0.39630280  0.69557198  1
  O  O23  1  0.20028571  0.75234379  0.68663514  1
  O  O24  1  0.01075258  0.27172177  0.69252938  1
  O  O25  1  0.05980775  0.60328565  0.68936229  1
  O  O26  1  0.02539868  0.94299208  0.69062537  1
  O  O27  1  0.80468245  0.27173040  0.19264303  1
  O  O28  1  0.75084256  0.60307655  0.18875487  1
  O  O29  1  0.80940150  0.94521558  0.19398731  1
  O  O30  1  0.02347887  0.06454172  0.19030135  1
  O  O31  1  0.01598315  0.39644619  0.19545447  1
  O  O32  1  0.05801836  0.75265038  0.18693394  1
  O  O33  1  0.16831666  0.32321474  0.19344556  1
  O  O34  1  0.19434936  0.64963810  0.18920674  1
  O  O35  1  0.17434017  0.99309634  0.19041525  1
  O  O36  1  0.92093039  0.13124077  0.64491610  1
  O  O37  1  0.85337916  0.45262644  0.63634574  1
  O  O38  1  0.86307762  0.78671659  0.64188869  1
  O  O39  1  0.47333899  0.02795496  0.64590299  1
  O  O40  1  0.50157863  0.38055117  0.63505154  1
  O  O41  1  0.49785006  0.71264817  0.64291839  1
  O  O42  1  0.60808785  0.17553532  0.64519310  1
  O  O43  1  0.64127838  0.50048006  0.63900723  1
  O  O44  1  0.63597320  0.83246961  0.64018102  1
  O  O45  1  0.91863513  0.17578379  0.14532879  1
  O  O46  1  0.86012046  0.50039575  0.13851990  1
  O  O47  1  0.85789224  0.83293625  0.13963029  1
  O  O48  1  0.61116960  0.02771978  0.14626735  1
  O  O49  1  0.63995341  0.38066676  0.13478674  1
  O  O50  1  0.64159603  0.71349476  0.14090815  1
  O  O51  1  0.47556290  0.13234361  0.14436606  1
  O  O52  1  0.50473058  0.45284137  0.13591884  1
  O  O53  1  0.49208389  0.78485637  0.14320865  1
  O  O54  1  0.47782349  0.10174975  0.03107449  1
  O  O55  1  0.40957249  0.42260867  0.02190374  1
  O  O56  1  0.49907957  0.78081744  0.02580312  1
  O  O57  1  0.82869013  0.17541868  0.03136039  1
  O  O58  1  0.86187991  0.51630220  0.01963379  1
  O  O59  1  0.84928324  0.84355508  0.02293190  1
  O  O60  1  0.69833655  0.05824259  0.03174361  1
  O  O61  1  0.72217040  0.37734539  0.02066666  1
  O  O62  1  0.67260735  0.72122289  0.02248605  1
  O  O63  1  0.47492390  0.05830616  0.53161123  1
  O  O64  1  0.41136408  0.37745109  0.52063235  1
  O  O65  1  0.49712954  0.72387899  0.52644674  1
  O  O66  1  0.69781033  0.17529067  0.53150076  1
  O  O67  1  0.68663030  0.51613078  0.51990340  1
  O  O68  1  0.69277739  0.84495935  0.52415992  1
  O  O69  1  0.82657046  0.10091022  0.53125865  1
  O  O70  1  0.85722813  0.42210724  0.52248379  1
  O  O71  1  0.84468058  0.78032793  0.52483231  1
  O  O72  1  0.53210698  0.23240670  0.97320668  1
  O  O73  1  0.52829128  0.56457617  0.97440523  1
  O  O74  1  0.51893739  0.89219408  0.97309362  1
  O  O75  1  0.16032707  0.15958861  0.97079357  1
  O  O76  1  0.15910958  0.48933759  0.97813218  1
  O  O77  1  0.15683053  0.82235353  0.97528624  1
  O  O78  1  0.32256726  0.28422048  0.97447743  1
  O  O79  1  0.30132160  0.61099098  0.97462697  1
  O  O80  1  0.30590296  0.94490565  0.97581511  1
  O  O81  1  0.52962205  0.28406795  0.47424893  1
  O  O82  1  0.52891279  0.61102841  0.47427047  1
  O  O83  1  0.52639923  0.94577577  0.47574812  1
  O  O84  1  0.31869878  0.15949377  0.47114122  1
  O  O85  1  0.30935295  0.48921035  0.47832508  1
  O  O86  1  0.30828589  0.82288315  0.47480960  1
  O  O87  1  0.16457519  0.23211638  0.47352291  1
  O  O88  1  0.16112545  0.56285543  0.47555411  1
  O  O89  1  0.15210933  0.89267491  0.47575935  1
  O  O90  1  0.13341691  0.21270202  0.35662755  1
  O  O91  1  0.15456550  0.55747976  0.35706469  1
  O  O92  1  0.15036324  0.88557818  0.36178100  1
  O  O93  1  0.49965987  0.27780929  0.35947694  1
  O  O94  1  0.51535366  0.62104995  0.35803014  1
  O  O95  1  0.51057901  0.95620972  0.35829941  1
  O  O96  1  0.35004564  0.16080963  0.35490429  1
  O  O97  1  0.32568814  0.49740946  0.36381007  1
  O  O98  1  0.36352585  0.83333215  0.35716517  1
  O  O99  1  0.13273764  0.16077571  0.85470712  1
  O  O100  1  0.16694568  0.49734779  0.86389960  1
  O  O101  1  0.13635328  0.83293878  0.85681000  1
  O  O102  1  0.33381630  0.27794122  0.85948571  1
  O  O103  1  0.35301258  0.62112775  0.85916497  1
  O  O104  1  0.35829952  0.95580146  0.85855912  1
  O  O105  1  0.50467310  0.21278531  0.85647278  1
  O  O106  1  0.51882085  0.55705732  0.85658740  1
  O  O107  1  0.50782714  0.88495706  0.85995588  1
  O  O108  1  0.03723201  0.28075753  0.41011497  1
  O  O109  1  0.02911586  0.61569690  0.41165078  1
  O  O110  1  0.02301162  0.94536327  0.41575011  1
  O  O111  1  0.81491767  0.32294815  0.41278786  1
  O  O112  1  0.80944691  0.65467344  0.41069639  1
  O  O113  1  0.81122867  0.99233803  0.41336551  1
  O  O114  1  0.16475025  0.06136592  0.41229323  1
  O  O115  1  0.14973604  0.39574174  0.41630102  1
  O  O116  1  0.16168781  0.73145137  0.40714291  1
  O  O117  1  0.01942638  0.06136006  0.91198868  1
  O  O118  1  0.03733768  0.39562321  0.91635589  1
  O  O119  1  0.02570898  0.73043085  0.90764713  1
  O  O120  1  0.15412648  0.32308502  0.91286398  1
  O  O121  1  0.15506677  0.65519614  0.91017508  1
  O  O122  1  0.16571893  0.99206682  0.91219025  1
  O  O123  1  0.80489675  0.28056583  0.90982546  1
  O  O124  1  0.81340694  0.61650719  0.91194752  1
  O  O125  1  0.81270084  0.94484824  0.91505876  1
  O  O126  1  0.97431637  0.05255916  0.58675271  1
  O  O127  1  0.00240622  0.39274420  0.59910355  1
  O  O128  1  0.97448467  0.72517330  0.57902908  1
  O  O129  1  0.18108813  0.00654669  0.58669480  1
  O  O130  1  0.17625397  0.33352460  0.59751737  1
  O  O131  1  0.20188864  0.67552757  0.57948968  1
  O  O132  1  0.83894689  0.27401834  0.58663626  1
  O  O133  1  0.82314524  0.60468424  0.58627368  1
  O  O134  1  0.82953872  0.93587096  0.59092301  1
  O  O135  1  0.98345867  0.27408365  0.08662548  1
  O  O136  1  0.99163423  0.60496731  0.08601310  1
  O  O137  1  0.98392927  0.93728929  0.08985116  1
  O  O138  1  0.84319928  0.00948311  0.08733220  1
  O  O139  1  0.82425058  0.33344926  0.09772047  1
  O  O140  1  0.82599179  0.67574213  0.07802498  1
  O  O141  1  0.18470635  0.05286987  0.08682490  1
  O  O142  1  0.17595158  0.39279691  0.09877397  1
  O  O143  1  0.20440094  0.72533414  0.07880923  1
  O  O144  1  0.69789576  0.05382616  0.75472319  1
  O  O145  1  0.68749362  0.38846337  0.74139332  1
  O  O146  1  0.69518418  0.72648777  0.74737133  1
  O  O147  1  0.46600103  0.10177741  0.75410846  1
  O  O148  1  0.47980192  0.43651528  0.74316134  1
  O  O149  1  0.48164859  0.76837638  0.74708506  1
  O  O150  1  0.83869747  0.17680929  0.75735476  1
  O  O151  1  0.81647942  0.50675972  0.74484504  1
  O  O152  1  0.83849458  0.84076069  0.74271006  1
  O  O153  1  0.69159966  0.17668673  0.25739209  1
  O  O154  1  0.70260086  0.50664910  0.24389307  1
  O  O155  1  0.68345028  0.84076354  0.24271386  1
  O  O156  1  0.83976304  0.10148737  0.25407879  1
  O  O157  1  0.82955524  0.43644889  0.24281999  1
  O  O158  1  0.82262028  0.76830854  0.24605836  1
  O  O159  1  0.46265800  0.05374351  0.25444744  1
  O  O160  1  0.47764150  0.38844009  0.24120751  1
  O  O161  1  0.48450815  0.72619806  0.24740395  1
  O  O162  1  0.64303354  0.16599631  0.92483241  1
  O  O163  1  0.64072021  0.50212127  0.91305340  1
  O  O164  1  0.64325325  0.83266154  0.91795435  1
  O  O165  1  0.85496655  0.12006240  0.92417923  1
  O  O166  1  0.86432828  0.45135237  0.91142489  1
  O  O167  1  0.85158457  0.78254109  0.91994037  1
  O  O168  1  0.50472314  0.04775159  0.92627240  1
  O  O169  1  0.49147373  0.37782473  0.90742496  1
  O  O170  1  0.50149350  0.71438307  0.92210666  1
  O  O171  1  0.63900220  0.04809099  0.42643483  1
  O  O172  1  0.64226473  0.37784932  0.40729970  1
  O  O173  1  0.64867449  0.71543115  0.42295440  1
  O  O174  1  0.50540137  0.12018840  0.42460432  1
  O  O175  1  0.48997345  0.45133834  0.41138117  1
  O  O176  1  0.50045545  0.78586677  0.42245577  1
  O  O177  1  0.85556006  0.16621713  0.42529095  1
  O  O178  1  0.86833852  0.50246358  0.41287863  1
  O  O179  1  0.85397786  0.83263869  0.41797921  1
  O  O180  1  0.33323096  0.16367953  0.06819145  1
  O  O181  1  0.36908695  0.50441066  0.07978358  1
  O  O182  1  0.36112231  0.83715205  0.07991489  1
  O  O183  1  0.15583693  0.22160565  0.06915963  1
  O  O184  1  0.14772362  0.54339968  0.08031379  1
  O  O185  1  0.14678500  0.87955336  0.08050100  1
  O  O186  1  0.49252326  0.28094015  0.08103467  1
  O  O187  1  0.48547108  0.62057153  0.07732977  1
  O  O188  1  0.50111785  0.95066334  0.06851050  1
  O  O189  1  0.35011413  0.28093741  0.58103930  1
  O  O190  1  0.37747366  0.62064143  0.57775580  1
  O  O191  1  0.34347682  0.94938082  0.56978787  1
  O  O192  1  0.50926194  0.22167454  0.56915042  1
  O  O193  1  0.48190764  0.54349010  0.58076671  1
  O  O194  1  0.49193813  0.88016947  0.57985833  1
  O  O195  1  0.15801226  0.16334034  0.56848172  1
  O  O196  1  0.14415992  0.50430784  0.58036544  1
  O  O197  1  0.14591850  0.83813210  0.58009548  1
  O  O198  1  0.29387455  0.27369889  0.25631477  1
  O  O199  1  0.33940999  0.61499657  0.25965885  1
  O  O200  1  0.30777025  0.94171985  0.25386607  1
  O  O201  1  0.51780451  0.23176785  0.25359068  1
  O  O202  1  0.51463188  0.55622217  0.26477501  1
  O  O203  1  0.52075674  0.89825439  0.25313694  1
  O  O204  1  0.17982498  0.15710532  0.25262630  1
  O  O205  1  0.16010675  0.49614213  0.25394524  1
  O  O206  1  0.16555925  0.82805774  0.26573901  1
  O  O207  1  0.29139774  0.15712736  0.75203649  1
  O  O208  1  0.32719509  0.49583450  0.75394070  1
  O  O209  1  0.31796518  0.82854128  0.76459251  1
  O  O210  1  0.17772457  0.23181180  0.75360318  1
  O  O211  1  0.15318445  0.55664242  0.76641290  1
  O  O212  1  0.17420148  0.89825389  0.75250530  1
  O  O213  1  0.52720988  0.27377727  0.75628761  1
  O  O214  1  0.50469172  0.61505358  0.75941972  1
  O  O215  1  0.51723008  0.94181206  0.75363506  1
loop_
_geom_bond_atom_site_label_1
_geom_bond_atom_site_label_2
_geom_bond_distance
_geom_bond_site_symmetry_2
Na0 O110 2.418731 1_545
Na0 O114 2.436675 1_555
Na0 O113 2.460411 1_445
Na0 O126 2.595423 1_455
Na0 O129 2.607378 1_555
Na0 O134 2.753510 1_445
Na1 O111 2.447229 1_555
Na1 O115 2.471491 1_655
Na1 O132 2.485770 1_555
Na1 O108 2.553184 1_655
Na1 O130 2.797047 1_655
Na1 O127 2.829754 1_655
Na2 O128 2.393972 1_455
Na2 O131 2.416681 1_555
Na2 O133 2.508225 1_455
Na2 O109 2.626349 1_555
Na2 O112 2.671876 1_455
Na2 O116 2.721886 1_555
Na3 O125 2.417372 1_555
Na3 O138 2.525577 1_566
Na3 O117 2.547907 1_665
Na3 O122 2.581220 1_655
Na3 O141 2.616094 1_666
Na3 O137 2.623739 1_556
Na4 O120 2.457417 1_655
Na4 O135 2.470083 1_556
Na4 O118 2.484819 1_655
Na4 O123 2.567164 1_555
Na4 O139 2.786371 1_556
Na4 O142 2.817513 1_656
Na5 O143 2.311613 1_555
Na5 O140 2.407427 1_455
Na5 O136 2.415231 1_455
Na5 O121 2.682437 1_554
Na5 O124 2.730071 1_454
Na5 O119 2.797906 1_554
Na6 O150 2.393738 1_555
Na6 O144 2.441040 1_555
Na6 O147 2.457346 1_555
Na6 O165 2.643114 1_555
Na6 O162 2.670358 1_555
Na6 O168 2.676467 1_555
Na7 O169 2.338022 1_555
Na7 O166 2.395025 1_555
Na7 O163 2.504674 1_555
Na7 O151 2.608610 1_555
Na7 O145 2.639648 1_555
Na7 O148 2.671220 1_555
Na8 O164 2.350191 1_555
Na8 O149 2.480651 1_555
Na8 O152 2.575294 1_555
Na8 O167 2.607030 1_555
Na8 O146 2.649791 1_555
Na8 O170 2.664164 1_555
Na9 O153 2.375656 1_555
Na9 O159 2.418896 1_555
Na9 O156 2.439160 1_555
Na9 O174 2.677392 1_555
Na9 O171 2.696331 1_555
Na9 O177 2.715518 1_555
Na10 O172 2.343065 1_555
Na10 O175 2.387248 1_555
Na10 O178 2.493850 1_555
Na10 O154 2.621688 1_555
Na10 O160 2.664551 1_555
Na10 O157 2.680792 1_555
Na11 O179 2.402793 1_555
Na11 O158 2.516784 1_555
Na11 O161 2.590424 1_555
Na11 O173 2.612229 1_555
Na11 O176 2.612759 1_555
Na11 O155 2.625305 1_555
Na12 O201 2.454073 1_555
Na12 O186 2.462495 1_555
Na12 O204 2.542452 1_555
Na12 O198 2.552977 1_555
Na12 O183 2.791510 1_555
Na12 O180 2.794327 1_555
Na13 O205 2.503149 1_555
Na13 O181 2.510944 1_555
Na13 O184 2.589239 1_555
Na13 O187 2.641867 1_555
Na13 O199 2.653948 1_555
Na13 O202 2.668593 1_555
Na14 O182 2.510275 1_555
Na14 O200 2.519832 1_555
Na14 O203 2.520245 1_555
Na14 O185 2.523909 1_555
Na14 O188 2.743773 1_555
Na14 O206 2.751236 1_555
Na15 O210 2.450561 1_555
Na15 O189 2.460603 1_555
Na15 O207 2.536237 1_555
Na15 O213 2.545837 1_555
Na15 O192 2.793457 1_555
Na15 O195 2.799580 1_555
Na16 O196 2.458422 1_555
Na16 O193 2.519824 1_555
Na16 O208 2.546380 1_555
Na16 O190 2.590368 1_555
Na16 O214 2.690873 1_555
Na16 O211 2.764139 1_555
Na17 O215 2.446798 1_555
Na17 O194 2.502043 1_555
Na17 O212 2.540377 1_555
Na17 O197 2.593450 1_555
Na17 O209 2.638807 1_555
Na17 O191 2.805279 1_555
Na18 O48 2.336372 1_555
Na18 O156 2.392882 1_555
Na18 O159 2.453453 1_555
Na18 O200 2.532884 1_545
Na18 O203 2.593109 1_545
Na18 O95 2.825854 1_545
Na19 O199 2.441197 1_555
Na19 O158 2.470695 1_555
Na19 O202 2.618595 1_555
Na19 O28 2.693429 1_555
Na19 O94 2.743006 1_555
Na19 O161 2.743886 1_555
Na19 O50 2.781565 1_555
Na19 O8 2.828791 1_555
Na20 O159 2.338811 1_555
Na20 O51 2.372842 1_555
Na20 O153 2.437973 1_555
Na20 O204 2.509318 1_555
Na20 O201 2.610267 1_555
Na20 O96 2.782435 1_555
Na21 O161 2.503830 1_555
Na21 O206 2.519834 1_555
Na21 O155 2.614420 1_555
Na21 O203 2.635836 1_555
Na21 O53 2.679230 1_555
Na21 O32 2.744886 1_555
Na21 O98 2.768315 1_555
Na21 O2 2.928131 1_555
Na22 O45 2.333852 1_555
Na22 O153 2.403465 1_555
Na22 O156 2.422504 1_555
Na22 O198 2.540823 1_655
Na22 O204 2.683136 1_655
Na22 O90 2.838030 1_655
Na23 O154 2.424488 1_455
Na23 O205 2.480750 1_555
Na23 O199 2.673629 1_555
Na23 O157 2.673745 1_455
Na23 O34 2.738530 1_555
Na23 O46 2.776957 1_455
Na23 O91 2.795800 1_555
Na23 O4 2.923514 1_455
Na24 O42 2.342547 1_555
Na24 O150 2.402915 1_555
Na24 O147 2.428309 1_555
Na24 O213 2.537642 1_555
Na24 O207 2.691397 1_555
Na24 O105 2.834576 1_555
Na25 O151 2.411760 1_555
Na25 O208 2.479845 1_555
Na25 O148 2.654898 1_555
Na25 O214 2.691905 1_555
Na25 O19 2.726481 1_555
Na25 O43 2.727905 1_555
Na25 O106 2.811093 1_555
Na25 O13 2.957783 1_555
Na26 O144 2.342800 1_555
Na26 O36 2.383263 1_555
Na26 O150 2.418733 1_555
Na26 O207 2.510424 1_655
Na26 O210 2.595211 1_655
Na26 O99 2.749014 1_655
Na27 O146 2.498138 1_455
Na27 O209 2.509775 1_555
Na27 O152 2.598948 1_455
Na27 O212 2.614596 1_555
Na27 O38 2.710304 1_455
Na27 O101 2.752800 1_555
Na27 O23 2.770427 1_555
Na27 O17 2.980962 1_455
Na28 O39 2.357020 1_555
Na28 O147 2.390902 1_555
Na28 O144 2.443247 1_555
Na28 O215 2.531687 1_545
Na28 O212 2.597132 1_545
Na28 O104 2.827807 1_545
Na29 O214 2.422847 1_555
Na29 O149 2.482555 1_555
Na29 O211 2.613520 1_555
Na29 O25 2.661875 1_555
Na29 O41 2.703662 1_555
Na29 O146 2.747856 1_555
Na29 O103 2.802584 1_555
Na29 O11 2.892679 1_555
Na30 O195 2.506801 1_555
Na30 O129 2.531186 1_555
Na30 O192 2.624449 1_555
Na30 O42 2.698101 1_555
Na30 O126 2.732050 1_455
Na30 O21 2.739458 1_555
Na30 O63 2.810649 1_555
Na30 O84 2.872662 1_555
Na31 O193 2.409211 1_555
Na31 O127 2.522345 1_555
Na31 O85 2.613547 1_555
Na31 O130 2.628512 1_555
Na31 O64 2.690740 1_555
Na31 O196 2.831742 1_555
Na31 O43 2.931722 1_555
Na31 O22 2.933487 1_555
Na32 O23 2.307982 1_555
Na32 O131 2.397632 1_555
Na32 O128 2.398570 1_455
Na32 O194 2.619216 1_555
Na32 O197 2.620993 1_555
Na32 O86 2.853796 1_555
Na33 O130 2.536931 1_555
Na33 O132 2.574056 1_455
Na33 O189 2.609450 1_555
Na33 O195 2.647995 1_555
Na33 O36 2.652060 1_455
Na33 O24 2.694136 1_555
Na33 O87 2.855349 1_555
Na33 O66 2.865056 1_455
Na34 O133 2.404779 1_455
Na34 O25 2.428111 1_555
Na34 O131 2.456950 1_555
Na34 O196 2.615245 1_555
Na34 O190 2.829089 1_555
Na34 O88 2.879412 1_555
Na35 O197 2.425648 1_555
Na35 O134 2.481463 1_455
Na35 O191 2.508416 1_555
Na35 O129 2.530940 1_565
Na35 O89 2.672904 1_555
Na35 O26 2.753994 1_555
Na36 O192 2.521383 1_555
Na36 O189 2.571356 1_555
Na36 O132 2.598121 1_555
Na36 O70 2.599015 1_555
Na36 O81 2.652383 1_555
Na36 O127 2.673119 1_655
Na36 O18 2.891700 1_555
Na36 O40 2.926180 1_555
Na37 O133 2.307225 1_555
Na37 O19 2.369044 1_555
Na37 O128 2.383731 1_555
Na37 O190 2.502889 1_555
Na37 O193 2.689930 1_555
Na37 O82 2.954966 1_555
Na38 O126 2.512089 1_565
Na38 O191 2.543668 1_555
Na38 O194 2.663175 1_555
Na38 O134 2.696851 1_555
Na38 O39 2.717505 1_565
Na38 O20 2.722334 1_555
Na38 O83 2.775669 1_555
Na38 O69 2.860768 1_565
Na39 O183 2.512785 1_555
Na39 O186 2.564080 1_555
Na39 O135 2.589248 1_455
Na39 O55 2.632512 1_555
Na39 O78 2.652344 1_554
Na39 O142 2.677733 1_555
Na39 O33 2.877780 1_555
Na39 O49 2.921113 1_555
Na40 O34 2.295265 1_555
Na40 O136 2.326575 1_455
Na40 O143 2.369423 1_555
Na40 O187 2.513534 1_555
Na40 O184 2.714750 1_555
Na41 O141 2.498834 1_565
Na41 O188 2.509518 1_555
Na41 O137 2.616144 1_455
Na41 O185 2.659276 1_555
Na41 O35 2.687288 1_555
Na41 O48 2.750139 1_565
Na41 O80 2.782775 1_554
Na41 O54 2.901303 1_565
Na42 O139 2.550533 1_555
Na42 O135 2.580133 1_555
Na42 O51 2.605596 1_555
Na42 O186 2.622544 1_555
Na42 O180 2.633751 1_555
Na42 O27 2.697130 1_555
Na42 O57 2.861461 1_555
Na42 O72 2.871197 1_554
Na43 O28 2.372472 1_555
Na43 O136 2.414028 1_555
Na43 O140 2.462558 1_555
Na43 O181 2.613912 1_555
Na43 O187 2.816701 1_555
Na43 O73 2.942064 1_554
Na44 O138 2.451079 1_455
Na44 O180 2.511436 1_555
Na44 O183 2.642320 1_555
Na44 O30 2.679852 1_555
Na44 O45 2.704111 1_455
Na44 O141 2.711999 1_555
Na44 O60 2.849447 1_455
Na44 O75 2.917636 1_554
Na45 O184 2.419768 1_555
Na45 O142 2.519782 1_555
Na45 O139 2.612239 1_455
Na45 O76 2.652458 1_554
Na45 O61 2.682816 1_455
Na45 O181 2.849717 1_555
Na45 O31 2.903275 1_555
Na45 O46 2.910207 1_455
Na46 O32 2.310849 1_555
Na46 O140 2.428297 1_455
Na46 O143 2.430422 1_555
Na46 O182 2.536649 1_555
Na46 O185 2.575907 1_555
Na46 O77 2.828556 1_554
Na47 O58 2.292750 1_556
Na47 O163 2.400485 1_555
Na47 O166 2.428404 1_555
Na47 O121 2.590603 1_655
Na47 O124 2.655572 1_555
Na48 O61 2.324940 1_556
Na48 O166 2.429625 1_555
Na48 O169 2.432881 1_555
Na48 O123 2.524741 1_555
Na48 O118 2.681811 1_655
Na48 O16 2.822592 1_555
Na49 O124 2.424368 1_555
Na49 O167 2.425085 1_555
Na49 O170 2.461505 1_555
Na49 O119 2.565745 1_655
Na49 O62 2.676251 1_556
Na49 O17 2.820981 1_555
Na50 O55 2.371791 1_556
Na50 O163 2.400646 1_555
Na50 O169 2.423366 1_555
Na50 O118 2.517727 1_555
Na50 O120 2.592805 1_555
Na50 O10 2.751981 1_555
Na51 O178 2.377591 1_555
Na51 O70 2.394128 1_555
Na51 O172 2.439294 1_555
Na51 O115 2.521377 1_655
Na51 O111 2.621962 1_555
Na51 O7 2.760631 1_555
Na52 O64 2.331234 1_555
Na52 O175 2.415471 1_555
Na52 O172 2.430200 1_555
Na52 O108 2.527062 1_555
Na52 O115 2.677501 1_555
Na52 O1 2.816581 1_555
Na53 O67 2.339665 1_555
Na53 O178 2.410792 1_555
Na53 O175 2.449784 1_555
Na53 O112 2.553381 1_555
Na53 O109 2.573720 1_655
Ca0 O19 2.231406 1_455
Ca0 O23 2.244857 1_555
Ca0 O133 2.250127 1_455
Ca0 O25 2.254078 1_555
Ca0 O131 2.368398 1_555
Ca0 O128 2.370201 1_455
Ca1 O34 2.235428 1_555
Ca1 O32 2.240468 1_555
Ca1 O28 2.252527 1_455
Ca1 O136 2.262904 1_455
Ca1 O143 2.387531 1_555
Ca1 O140 2.400850 1_455
Ca2 O39 2.252471 1_555
Ca2 O42 2.270584 1_555
Ca2 O36 2.273678 1_555
Ca2 O147 2.350760 1_555
Ca2 O144 2.353556 1_555
Ca2 O150 2.367123 1_555
Ca3 O48 2.249320 1_555
Ca3 O45 2.272089 1_555
Ca3 O51 2.276004 1_555
Ca3 O159 2.353941 1_555
Ca3 O156 2.359922 1_555
Ca3 O153 2.373655 1_555
Ca4 O58 2.164034 1_556
Ca4 O61 2.260714 1_556
Ca4 O55 2.263448 1_556
Ca4 O169 2.336907 1_555
Ca4 O163 2.364897 1_555
Ca4 O166 2.372039 1_555
Ca5 O67 2.159991 1_555
Ca5 O64 2.267219 1_555
Ca5 O70 2.269302 1_555
Ca5 O172 2.337644 1_555
Ca5 O178 2.362522 1_555
Ca5 O175 2.369100 1_555
Nb0 O0 1.935417 1_655
Nb0 O6 1.947279 1_565
Nb0 O5 1.992828 1_555
Nb0 O110 2.043164 1_655
Nb0 O113 2.057357 1_555
Nb0 O114 2.068052 1_665
Nb1 O3 1.898628 1_455
Nb1 O7 1.994541 1_455
Nb1 O1 2.001182 1_555
Nb1 O111 2.040503 1_455
Nb1 O108 2.071065 1_555
Nb1 O115 2.079386 1_555
Nb2 O2 1.982475 1_555
Nb2 O8 1.988610 1_455
Nb2 O116 2.007037 1_555
Nb2 O4 2.032637 1_455
Nb2 O109 2.050617 1_555
Nb2 O112 2.076642 1_455
Nb3 O15 1.951778 1_555
Nb3 O9 1.952602 1_665
Nb3 O14 2.009066 1_555
Nb3 O122 2.025605 1_655
Nb3 O125 2.037047 1_555
Nb3 O117 2.046734 1_665
Nb4 O12 1.897390 1_455
Nb4 O10 2.001457 1_555
Nb4 O16 2.003210 1_455
Nb4 O120 2.039677 1_555
Nb4 O123 2.058324 1_455
Nb4 O118 2.079181 1_555
Nb5 O11 1.956570 1_555
Nb5 O13 1.998698 1_455
Nb5 O17 2.013296 1_455
Nb5 O119 2.028941 1_555
Nb5 O121 2.050465 1_555
Nb5 O124 2.096347 1_455
Nb6 O20 1.949199 1_555
Nb6 O21 1.950367 1_665
Nb6 O26 1.975502 1_655
Nb6 O126 2.064100 1_565
Nb6 O134 2.081470 1_555
Nb6 O129 2.103000 1_665
Nb7 O22 1.956418 1_555
Nb7 O24 1.961369 1_555
Nb7 O18 1.972893 1_455
Nb7 O130 1.990048 1_555
Nb7 O127 2.012337 1_555
Nb7 O132 2.115132 1_455
Nb8 O29 1.936920 1_555
Nb8 O35 1.979875 1_655
Nb8 O30 1.983366 1_665
Nb8 O137 2.052672 1_555
Nb8 O138 2.061810 1_565
Nb8 O141 2.094413 1_665
Nb9 O31 1.955718 1_655
Nb9 O27 1.958388 1_555
Nb9 O33 1.972326 1_655
Nb9 O139 1.989428 1_555
Nb9 O142 2.019659 1_655
Nb9 O135 2.116512 1_555
Nb10 O37 1.971404 1_555
Nb10 O40 1.985258 1_555
Nb10 O43 1.998162 1_555
Nb10 O145 2.040538 1_555
Nb10 O148 2.058253 1_555
Nb10 O151 2.076402 1_555
Nb11 O44 1.952630 1_555
Nb11 O41 1.990286 1_555
Nb11 O38 1.993593 1_555
Nb11 O152 2.042034 1_555
Nb11 O149 2.062482 1_555
Nb11 O146 2.077188 1_555
Nb12 O52 1.979295 1_555
Nb12 O49 1.993227 1_555
Nb12 O46 2.003562 1_555
Nb12 O160 2.036911 1_555
Nb12 O157 2.052840 1_555
Nb12 O154 2.055740 1_555
Nb13 O47 1.944140 1_555
Nb13 O53 1.982931 1_555
Nb13 O50 2.008325 1_555
Nb13 O155 2.034145 1_555
Nb13 O158 2.052954 1_555
Nb13 O161 2.080295 1_555
Nb14 O60 1.990940 1_556
Nb14 O54 2.008601 1_556
Nb14 O168 2.015472 1_555
Nb14 O57 2.023202 1_556
Nb14 O165 2.027180 1_555
Nb14 O162 2.049963 1_555
Nb15 O56 1.910321 1_556
Nb15 O59 1.955806 1_556
Nb15 O62 1.984242 1_556
Nb15 O164 2.012785 1_555
Nb15 O167 2.090470 1_555
Nb15 O170 2.126267 1_555
Nb16 O171 2.006889 1_555
Nb16 O63 2.012666 1_555
Nb16 O174 2.012886 1_555
Nb16 O66 2.021610 1_555
Nb16 O69 2.026338 1_555
Nb16 O177 2.029573 1_555
Nb17 O65 1.948190 1_555
Nb17 O71 1.958995 1_555
Nb17 O176 2.020744 1_555
Nb17 O179 2.030782 1_555
Nb17 O173 2.034430 1_555
Nb17 O68 2.038921 1_555
Nb18 O75 1.934646 1_554
Nb18 O78 1.972844 1_554
Nb18 O72 1.979996 1_554
Nb18 O183 1.991290 1_555
Nb18 O180 2.004862 1_555
Nb18 O186 2.136544 1_555
Nb19 O76 1.980377 1_554
Nb19 O79 1.982277 1_554
Nb19 O73 2.002940 1_554
Nb19 O184 2.032262 1_555
Nb19 O187 2.049609 1_555
Nb19 O181 2.073969 1_555
Nb20 O74 1.915027 1_554
Nb20 O188 1.961648 1_555
Nb20 O80 1.990385 1_554
Nb20 O77 2.000001 1_554
Nb20 O182 2.036024 1_555
Nb20 O185 2.148599 1_555
Nb21 O84 1.935096 1_555
Nb21 O81 1.964219 1_555
Nb21 O87 1.977196 1_555
Nb21 O192 1.993145 1_555
Nb21 O195 2.017652 1_555
Nb21 O189 2.136536 1_555
Nb22 O82 1.961947 1_555
Nb22 O88 1.971808 1_555
Nb22 O85 1.980492 1_555
Nb22 O190 2.061762 1_555
Nb22 O193 2.064784 1_555
Nb22 O196 2.095893 1_555
Nb23 O89 1.937928 1_555
Nb23 O86 1.952888 1_555
Nb23 O83 1.957976 1_555
Nb23 O191 2.007558 1_555
Nb23 O197 2.083860 1_555
Nb23 O194 2.136294 1_555
Nb24 O93 1.903764 1_555
Nb24 O96 1.980359 1_555
Nb24 O90 2.000890 1_555
Nb24 O201 2.044289 1_555
Nb24 O204 2.066635 1_555
Nb24 O198 2.081491 1_555
Nb25 O97 1.910401 1_555
Nb25 O91 1.952266 1_555
Nb25 O202 1.969363 1_555
Nb25 O94 1.993059 1_555
Nb25 O199 2.032982 1_555
Nb25 O205 2.111305 1_555
Nb26 O92 1.916350 1_555
Nb26 O206 1.966386 1_555
Nb26 O95 1.986256 1_555
Nb26 O98 2.007102 1_555
Nb26 O200 2.028057 1_555
Nb26 O203 2.147804 1_555
Nb27 O102 1.899799 1_555
Nb27 O99 1.977918 1_555
Nb27 O105 1.996180 1_555
Nb27 O210 2.046652 1_555
Nb27 O213 2.081002 1_555
Nb27 O207 2.081730 1_555
Nb28 O100 1.904135 1_555
Nb28 O211 1.957197 1_555
Nb28 O106 1.963806 1_555
Nb28 O103 2.018790 1_555
Nb28 O214 2.038933 1_555
Nb28 O208 2.086350 1_555
Nb29 O107 1.914167 1_555
Nb29 O104 1.965235 1_555
Nb29 O209 1.981640 1_555
Nb29 O101 2.003740 1_555
Nb29 O215 2.035948 1_555
Nb29 O212 2.157486 1_555
O0 Si0 1.642264 1_555
O1 Si1 1.656677 1_555
O2 Si2 1.666391 1_555
O3 Si3 1.661781 1_555
O4 Si4 1.669512 1_555
O5 Si5 1.629679 1_555
O6 Si6 1.643200 1_655
O7 Si7 1.649195 1_555
O8 Si8 1.669265 1_655
O9 Si9 1.635584 1_555
O10 Si10 1.645229 1_555
O11 Si11 1.681817 1_555
O12 Si12 1.661286 1_655
O13 Si13 1.682645 1_555
O14 Si14 1.624964 1_655
O15 Si15 1.631116 1_555
O16 Si16 1.656453 1_555
O17 Si17 1.671763 1_555
O18 Si16 1.657976 1_555
O19 Si17 1.590964 1_555
O20 Si15 1.692094 1_555
O21 Si9 1.693151 1_555
O22 Si10 1.644571 1_555
O23 Si11 1.599136 1_555
O24 Si12 1.656165 1_555
O25 Si13 1.603171 1_455
O26 Si14 1.669705 1_555
O27 Si3 1.656943 1_555
O28 Si4 1.607619 1_555
O29 Si5 1.664223 1_555
O30 Si6 1.676933 1_555
O31 Si7 1.647782 1_455
O32 Si8 1.603977 1_555
O33 Si1 1.657962 1_555
O34 Si2 1.596000 1_555
O35 Si0 1.676858 1_555
O36 Si18 1.605947 1_555
O37 Si19 1.664261 1_555
O38 Si20 1.683533 1_555
O39 Si21 1.602892 1_555
O40 Si22 1.663427 1_555
O41 Si23 1.686688 1_555
O42 Si24 1.605478 1_555
O43 Si25 1.701155 1_555
O44 Si26 1.664999 1_555
O45 Si27 1.604910 1_555
O46 Si28 1.691431 1_555
O47 Si29 1.658135 1_555
O48 Si30 1.604845 1_555
O49 Si31 1.661139 1_555
O50 Si32 1.673074 1_555
O51 Si33 1.608287 1_555
O52 Si34 1.659942 1_555
O53 Si35 1.668115 1_555
O54 Si33 1.652608 1_555
O55 Si34 1.605265 1_555
O56 Si35 1.655646 1_555
O57 Si27 1.651286 1_555
O58 Si28 1.596205 1_555
O59 Si29 1.646487 1_555
O60 Si30 1.663848 1_555
O61 Si31 1.601759 1_555
O62 Si32 1.649161 1_555
O63 Si21 1.651974 1_555
O64 Si22 1.599874 1_555
O65 Si23 1.641747 1_555
O66 Si24 1.652543 1_555
O67 Si25 1.597100 1_555
O68 Si26 1.625149 1_555
O69 Si18 1.649442 1_555
O70 Si19 1.605757 1_555
O71 Si20 1.635719 1_555
O72 Si36 1.658752 1_555
O73 Si37 1.679333 1_555
O74 Si38 1.640486 1_555
O75 Si39 1.657116 1_555
O76 Si40 1.673340 1_555
O77 Si41 1.643402 1_555
O78 Si42 1.653626 1_555
O79 Si43 1.669375 1_555
O80 Si44 1.650250 1_555
O81 Si45 1.658144 1_555
O82 Si46 1.673339 1_555
O83 Si47 1.668362 1_555
O84 Si48 1.659527 1_555
O85 Si49 1.674792 1_555
O86 Si50 1.666382 1_555
O87 Si51 1.660349 1_555
O88 Si52 1.684531 1_555
O89 Si53 1.655839 1_555
O90 Si51 1.653853 1_555
O91 Si52 1.643865 1_555
O92 Si53 1.639547 1_555
O93 Si45 1.654547 1_555
O94 Si46 1.634549 1_555
O95 Si47 1.647705 1_555
O96 Si48 1.649963 1_555
O97 Si49 1.642571 1_555
O98 Si50 1.641461 1_555
O99 Si39 1.653269 1_555
O100 Si40 1.646330 1_555
O101 Si41 1.643162 1_555
O102 Si42 1.657011 1_555
O103 Si43 1.635373 1_555
O104 Si44 1.659473 1_555
O105 Si36 1.657742 1_555
O106 Si37 1.644905 1_555
O107 Si38 1.642898 1_555
O108 Si51 1.650111 1_555
O109 Si52 1.647720 1_555
O110 Si53 1.624565 1_555
O111 Si45 1.643717 1_555
O112 Si46 1.645212 1_555
O113 Si47 1.630486 1_555
O114 Si48 1.630055 1_555
O115 Si49 1.649927 1_555
O116 Si50 1.641469 1_555
O117 Si39 1.634069 1_555
O118 Si40 1.647925 1_555
O119 Si41 1.658503 1_555
O120 Si42 1.644537 1_555
O121 Si43 1.647066 1_555
O122 Si44 1.635822 1_555
O123 Si36 1.654140 1_555
O124 Si37 1.657717 1_555
O125 Si38 1.621486 1_555
O126 Si18 1.669705 1_555
O127 Si19 1.661418 1_455
O128 Si20 1.593969 1_555
O129 Si21 1.668797 1_555
O130 Si22 1.648779 1_555
O131 Si23 1.599068 1_555
O132 Si24 1.662871 1_555
O133 Si25 1.602821 1_555
O134 Si26 1.650418 1_555
O135 Si27 1.664631 1_555
O136 Si28 1.604286 1_555
O137 Si29 1.639284 1_555
O138 Si30 1.659283 1_555
O139 Si31 1.649333 1_555
O140 Si32 1.603316 1_555
O141 Si33 1.655810 1_555
O142 Si34 1.659160 1_555
O143 Si35 1.601207 1_555
O144 Si15 1.603529 1_545
O145 Si16 1.633542 1_555
O146 Si17 1.659230 1_555
O147 Si9 1.599160 1_555
O148 Si10 1.640350 1_555
O149 Si11 1.654453 1_555
O150 Si12 1.600830 1_655
O151 Si13 1.646977 1_555
O152 Si14 1.649033 1_655
O153 Si3 1.600367 1_555
O154 Si4 1.654220 1_555
O155 Si5 1.645699 1_555
O156 Si6 1.601976 1_655
O157 Si7 1.642896 1_555
O158 Si8 1.657175 1_655
O159 Si0 1.606613 1_545
O160 Si1 1.633276 1_555
O161 Si2 1.656762 1_555
O162 Si36 1.626481 1_555
O163 Si37 1.598712 1_555
O164 Si38 1.637060 1_555
O165 Si39 1.639210 1_655
O166 Si40 1.596747 1_655
O167 Si41 1.648221 1_655
O168 Si44 1.643510 1_545
O169 Si42 1.600479 1_555
O170 Si43 1.635485 1_555
O171 Si47 1.644091 1_545
O172 Si45 1.599600 1_555
O173 Si46 1.634965 1_555
O174 Si48 1.643987 1_555
O175 Si49 1.597597 1_555
O176 Si50 1.638527 1_555
O177 Si51 1.630823 1_655
O178 Si52 1.608060 1_655
O179 Si53 1.629656 1_655
O180 Si33 1.661780 1_555
O181 Si34 1.657958 1_555
O182 Si35 1.646514 1_555
O183 Si27 1.653882 1_455
O184 Si28 1.693016 1_455
O185 Si29 1.643040 1_455
O186 Si31 1.652900 1_555
O187 Si32 1.665056 1_555
O188 Si30 1.644591 1_565
O189 Si22 1.654373 1_555
O190 Si23 1.659177 1_555
O191 Si21 1.650650 1_565
O192 Si24 1.653642 1_555
O193 Si25 1.688354 1_555
O194 Si26 1.646616 1_555
O195 Si18 1.656594 1_455
O196 Si19 1.652306 1_455
O197 Si20 1.661448 1_455
O198 Si1 1.649409 1_555
O199 Si2 1.652832 1_555
O200 Si0 1.654785 1_555
O201 Si3 1.645064 1_555
O202 Si4 1.647845 1_555
O203 Si5 1.648893 1_555
O204 Si6 1.659355 1_555
O205 Si7 1.650670 1_455
O206 Si8 1.638596 1_555
O207 Si9 1.653621 1_555
O208 Si10 1.658155 1_555
O209 Si11 1.632630 1_555
O210 Si12 1.645043 1_555
O211 Si13 1.646458 1_455
O212 Si14 1.651124 1_555
O213 Si16 1.649696 1_555
O214 Si17 1.654128 1_555
O215 Si15 1.651949 1_555
