# generated using pymatgen
data_H4CSN2
_symmetry_space_group_name_H-M   'P 1'
_cell_length_a   7.13067800
_cell_length_b   4.29975800
_cell_length_c   13.36272330
_cell_angle_alpha   84.49387578
_cell_angle_beta   90.00000000
_cell_angle_gamma   90.00000000
_symmetry_Int_Tables_number   1
_chemical_formula_structural   H4CSN2
_chemical_formula_sum   'H16 C4 S4 N8'
_cell_volume   407.81323844
_cell_formula_units_Z   4
loop_
 _symmetry_equiv_pos_site_id
 _symmetry_equiv_pos_as_xyz
  1  'x, y, z'
loop_
 _atom_site_type_symbol
 _atom_site_label
 _atom_site_symmetry_multiplicity
 _atom_site_fract_x
 _atom_site_fract_y
 _atom_site_fract_z
 _atom_site_occupancy
  H  H0  1  0.95929800  0.68255100  0.59019800  1
  H  H1  1  0.45929800  0.31744900  0.90980200  1
  H  H2  1  0.04070200  0.31744900  0.40980200  1
  H  H3  1  0.54070200  0.68255100  0.09019800  1
  H  H4  1  0.73034100  0.68019400  0.62969000  1
  H  H5  1  0.23034100  0.31980600  0.87031000  1
  H  H6  1  0.26965900  0.31980600  0.37031000  1
  H  H7  1  0.76965900  0.68019400  0.12969000  1
  H  H8  1  0.87939000  0.39345200  0.67427300  1
  H  H9  1  0.69169700  0.40980900  0.05227000  1
  H  H10  1  0.12061000  0.60654800  0.32572700  1
  H  H11  1  0.62061000  0.39345200  0.17427300  1
  H  H12  1  0.80830300  0.40980900  0.55227000  1
  H  H13  1  0.30830300  0.59019100  0.94773000  1
  H  H14  1  0.19169700  0.59019100  0.44773000  1
  H  H15  1  0.37939000  0.60654800  0.82572700  1
  C  C0  1  0.82094200  0.10912400  0.88723200  1
  C  C1  1  0.17905800  0.89087600  0.11276800  1
  C  C2  1  0.67905800  0.10912400  0.38723200  1
  C  C3  1  0.32094200  0.89087600  0.61276800  1
  S  S0  1  0.48169900  0.97567900  0.69264400  1
  S  S1  1  0.98169900  0.02432100  0.80735600  1
  S  S2  1  0.51830100  0.02432100  0.30735600  1
  S  S3  1  0.01830100  0.97567900  0.19264400  1
  N  N0  1  0.84302100  0.54315700  0.61147300  1
  N  N1  1  0.70283200  0.17047600  0.94502200  1
  N  N2  1  0.79716800  0.17047600  0.44502200  1
  N  N3  1  0.29716800  0.82952400  0.05497800  1
  N  N4  1  0.20283200  0.82952400  0.55497800  1
  N  N5  1  0.65697900  0.54315700  0.11147300  1
  N  N6  1  0.15697900  0.45684300  0.38852700  1
  N  N7  1  0.34302100  0.45684300  0.88852700  1
loop_
_geom_bond_atom_site_label_1
_geom_bond_atom_site_label_2
_geom_bond_distance
_geom_bond_site_symmetry_2
H0 N0 1.046336 1_555
H1 N7 1.046336 1_555
H2 N6 1.046336 1_555
H3 N5 1.046336 1_555
H4 N0 1.039018 1_555
H5 N7 1.039018 1_555
H6 N6 1.039018 1_555
H7 N5 1.039018 1_555
H8 N0 1.040268 1_555
H9 N5 1.050210 1_555
H10 N6 1.040268 1_555
H11 N5 1.040268 1_555
H12 N0 1.050210 1_555
H13 N7 1.050210 1_555
H14 N6 1.050210 1_555
H15 N7 1.040268 1_555
C0 N1 1.189258 1_555
C0 S1 1.631233 1_555
C1 N3 1.189258 1_555
C1 S3 1.631233 1_555
C2 N2 1.189258 1_555
C2 S2 1.631233 1_555
C3 N4 1.189258 1_555
C3 S0 1.631233 1_555
