# generated using pymatgen
data_SbO2
_symmetry_space_group_name_H-M   'P 1'
_cell_length_a   7.44343731
_cell_length_b   7.44343731
_cell_length_c   7.44343731
_cell_angle_alpha   60.00000000
_cell_angle_beta   60.00000000
_cell_angle_gamma   60.00000000
_symmetry_Int_Tables_number   1
_chemical_formula_structural   SbO2
_chemical_formula_sum   'Sb8 O16'
_cell_volume   291.61214531
_cell_formula_units_Z   8
loop_
 _symmetry_equiv_pos_site_id
 _symmetry_equiv_pos_as_xyz
  1  'x, y, z'
loop_
 _atom_site_type_symbol
 _atom_site_label
 _atom_site_symmetry_multiplicity
 _atom_site_fract_x
 _atom_site_fract_y
 _atom_site_fract_z
 _atom_site_occupancy
  Sb  Sb0  1  0.87623000  0.37131000  0.87623000  1
  Sb  Sb1  1  0.37377000  0.37377000  0.87869000  1
  Sb  Sb2  1  0.37377000  0.37377000  0.37377000  1
  Sb  Sb3  1  0.87869000  0.37377000  0.37377000  1
  Sb  Sb4  1  0.87623000  0.87623000  0.87623000  1
  Sb  Sb5  1  0.37131000  0.87623000  0.87623000  1
  Sb  Sb6  1  0.87623000  0.87623000  0.37131000  1
  Sb  Sb7  1  0.37377000  0.87869000  0.37377000  1
  O  O0  1  0.12500000  0.12500000  0.12500000  1
  O  O1  1  0.62500000  0.12500000  0.12500000  1
  O  O2  1  0.12500000  0.12500000  0.62500000  1
  O  O3  1  0.12500000  0.62500000  0.12500000  1
  O  O4  1  0.94572800  0.94572800  0.55427200  1
  O  O5  1  0.69572800  0.69572800  0.30427200  1
  O  O6  1  0.55427200  0.94572800  0.55427200  1
  O  O7  1  0.55427200  0.94572800  0.94572800  1
  O  O8  1  0.55427200  0.55427200  0.94572800  1
  O  O9  1  0.30427200  0.69572800  0.69572800  1
  O  O10  1  0.69572800  0.30427200  0.30427200  1
  O  O11  1  0.30427200  0.30427200  0.69572800  1
  O  O12  1  0.30427200  0.69572800  0.30427200  1
  O  O13  1  0.69572800  0.30427200  0.69572800  1
  O  O14  1  0.94572800  0.55427200  0.94572800  1
  O  O15  1  0.94572800  0.55427200  0.55427200  1
loop_
_geom_bond_atom_site_label_1
_geom_bond_atom_site_label_2
_geom_bond_distance
_geom_bond_site_symmetry_2
O0 Sb3 2.618769 1_455
O0 Sb1 2.618769 1_554
O0 Sb7 2.618769 1_545
O0 Sb0 2.618769 1_454
O0 Sb5 2.618769 1_544
O0 Sb6 2.618769 1_445
O1 Sb0 2.618769 1_554
O1 Sb6 2.618769 1_545
O1 Sb2 2.618769 1_555
O1 Sb1 2.618769 1_554
O1 Sb7 2.618769 1_545
O1 Sb4 2.618769 1_544
O2 Sb0 2.618769 1_455
O2 Sb5 2.618769 1_545
O2 Sb2 2.618769 1_555
O2 Sb4 2.618769 1_445
O2 Sb3 2.618769 1_455
O2 Sb7 2.618769 1_545
O3 Sb5 2.618769 1_554
O3 Sb6 2.618769 1_455
O3 Sb2 2.618769 1_555
O3 Sb3 2.618769 1_455
O3 Sb4 2.618769 1_454
O3 Sb1 2.618769 1_554
O4 Sb4 2.016553 1_555
O4 Sb6 2.016553 1_555
O5 Sb7 2.016553 1_555
O5 Sb3 2.016553 1_555
O6 Sb5 2.016553 1_555
O6 Sb6 2.016553 1_555
O7 Sb4 2.016553 1_555
O7 Sb5 2.016553 1_555
O8 Sb0 2.016553 1_555
O8 Sb5 2.016553 1_555
O9 Sb7 2.016553 1_555
O9 Sb1 2.016553 1_555
O10 Sb3 2.016553 1_555
O10 Sb2 2.016553 1_555
O11 Sb1 2.016553 1_555
O11 Sb2 2.016553 1_555
O12 Sb7 2.016553 1_555
O12 Sb2 2.016553 1_555
O13 Sb3 2.016553 1_555
O13 Sb1 2.016553 1_555
O14 Sb4 2.016553 1_555
O14 Sb0 2.016553 1_555
O15 Sb0 2.016553 1_555
O15 Sb6 2.016553 1_555
