# generated using pymatgen
data_Na2LaSn(PO4)3
_symmetry_space_group_name_H-M   'P 1'
_cell_length_a   9.31810755
_cell_length_b   9.31810722
_cell_length_c   23.28341793
_cell_angle_alpha   90.07210697
_cell_angle_beta   89.92789304
_cell_angle_gamma   120.37990537
_symmetry_Int_Tables_number   1
_chemical_formula_structural   Na2LaSn(PO4)3
_chemical_formula_sum   'Na12 La6 Sn6 P18 O72'
_cell_volume   1744.04229128
_cell_formula_units_Z   6
loop_
 _symmetry_equiv_pos_site_id
 _symmetry_equiv_pos_as_xyz
  1  'x, y, z'
loop_
 _atom_site_type_symbol
 _atom_site_label
 _atom_site_symmetry_multiplicity
 _atom_site_fract_x
 _atom_site_fract_y
 _atom_site_fract_z
 _atom_site_occupancy
  Na  Na0  1  0.35923264  0.35011981  0.24945479  1
  Na  Na1  1  0.64988019  0.64076736  0.74945479  1
  Na  Na2  1  0.02589964  0.68345281  0.58278779  1
  Na  Na3  1  0.31654719  0.97410036  0.08278779  1
  Na  Na4  1  0.69256564  0.01678681  0.91612179  1
  Na  Na5  1  0.98321319  0.30743436  0.41612179  1
  Na  Na6  1  0.99991357  0.00029668  0.50509066  1
  Na  Na7  1  0.99970332  0.00008643  0.00509066  1
  Na  Na8  1  0.66658057  0.33362968  0.83842366  1
  Na  Na9  1  0.66637032  0.33341943  0.33842366  1
  Na  Na10  1  0.33324657  0.66696368  0.17175766  1
  Na  Na11  1  0.33303632  0.66675343  0.67175766  1
  La  La0  1  0.99348340  0.98121854  0.35443713  1
  La  La1  1  0.01878146  0.00651660  0.85443713  1
  La  La2  1  0.66015040  0.31455154  0.68777013  1
  La  La3  1  0.68544846  0.33984960  0.18777013  1
  La  La4  1  0.32681640  0.64788554  0.02110413  1
  La  La5  1  0.35211446  0.67318360  0.52110413  1
  Sn  Sn0  1  0.00401823  0.00910163  0.65003291  1
  Sn  Sn1  1  0.99089837  0.99598177  0.15003291  1
  Sn  Sn2  1  0.67068523  0.34243463  0.98336591  1
  Sn  Sn3  1  0.65756537  0.32931477  0.48336591  1
  Sn  Sn4  1  0.33735123  0.67576863  0.31669991  1
  Sn  Sn5  1  0.32423137  0.66264877  0.81669991  1
  P  P0  1  0.28480038  0.97979306  0.24699368  1
  P  P1  1  0.68480691  0.71131589  0.24844540  1
  P  P2  1  0.02407461  0.30591943  0.25409618  1
  P  P3  1  0.28868411  0.31519309  0.74844540  1
  P  P4  1  0.02020694  0.71519962  0.74699368  1
  P  P5  1  0.69408057  0.97592539  0.75409618  1
  P  P6  1  0.95146738  0.31312606  0.58032668  1
  P  P7  1  0.35147391  0.04464889  0.58177840  1
  P  P8  1  0.69074161  0.63925243  0.58742918  1
  P  P9  1  0.95535111  0.64852609  0.08177840  1
  P  P10  1  0.68687394  0.04853262  0.08032668  1
  P  P11  1  0.36074757  0.30925839  0.08742918  1
  P  P12  1  0.61813338  0.64646006  0.91366068  1
  P  P13  1  0.01813991  0.37798289  0.91511240  1
  P  P14  1  0.35740761  0.97258643  0.92076318  1
  P  P15  1  0.62201711  0.98186009  0.41511240  1
  P  P16  1  0.35353994  0.38186662  0.41366068  1
  P  P17  1  0.02741357  0.64259239  0.42076318  1
  O  O0  1  0.20362683  0.00897777  0.29852538  1
  O  O1  1  0.78338129  0.78231049  0.30271634  1
  O  O2  1  0.00880954  0.21523508  0.30987976  1
  O  O3  1  0.21768951  0.21661871  0.80271634  1
  O  O4  1  0.99102223  0.79637317  0.79852538  1
  O  O5  1  0.78476492  0.99119046  0.80987976  1
  O  O6  1  0.78852122  0.95352369  0.70067720  1
  O  O7  1  0.18189203  0.22254473  0.69370897  1
  O  O8  1  0.04197937  0.81984750  0.69023614  1
  O  O9  1  0.77745527  0.81810797  0.19370897  1
  O  O10  1  0.04647631  0.21147878  0.20067720  1
  O  O11  1  0.18015250  0.95802063  0.19023614  1
  O  O12  1  0.87029383  0.34231077  0.63185838  1
  O  O13  1  0.45004829  0.11564349  0.63604934  1
  O  O14  1  0.67547654  0.54856808  0.64321276  1
  O  O15  1  0.88435651  0.54995171  0.13604934  1
  O  O16  1  0.65768923  0.12970617  0.13185838  1
  O  O17  1  0.45143192  0.32452346  0.14321276  1
  O  O18  1  0.45518822  0.28685669  0.03401020  1
  O  O19  1  0.84855903  0.55587773  0.02704197  1
  O  O20  1  0.70864637  0.15318050  0.02356914  1
  O  O21  1  0.44412227  0.15144097  0.52704197  1
  O  O22  1  0.71314331  0.54481178  0.53401020  1
  O  O23  1  0.84681950  0.29135363  0.52356914  1
  O  O24  1  0.53695983  0.67564477  0.96519238  1
  O  O25  1  0.11671429  0.44897749  0.96938334  1
  O  O26  1  0.34214254  0.88190208  0.97654676  1
  O  O27  1  0.55102251  0.88328571  0.46938334  1
  O  O28  1  0.32435523  0.46304017  0.46519238  1
  O  O29  1  0.11809792  0.65785746  0.47654676  1
  O  O30  1  0.12185422  0.62019069  0.36734420  1
  O  O31  1  0.51522503  0.88921173  0.36037597  1
  O  O32  1  0.37531237  0.48651450  0.35690314  1
  O  O33  1  0.11078827  0.48477497  0.86037597  1
  O  O34  1  0.37980931  0.87814578  0.86734420  1
  O  O35  1  0.51348550  0.62468763  0.85690314  1
  O  O36  1  0.99714114  0.78765384  0.41564505  1
  O  O37  1  0.80360477  0.02258265  0.40979347  1
  O  O38  1  0.19961222  0.20684768  0.40945769  1
  O  O39  1  0.97741735  0.19639523  0.90979347  1
  O  O40  1  0.21234616  0.00285886  0.91564505  1
  O  O41  1  0.79315232  0.80038778  0.90945769  1
  O  O42  1  0.96102527  0.15004483  0.58720460  1
  O  O43  1  0.17925396  0.03874053  0.58546977  1
  O  O44  1  0.86020527  0.81330886  0.58813489  1
  O  O45  1  0.96125947  0.82074604  0.08546977  1
  O  O46  1  0.84995517  0.03897473  0.08720460  1
  O  O47  1  0.18669114  0.13979473  0.08813489  1
  O  O48  1  0.66380814  0.12098684  0.74897805  1
  O  O49  1  0.47027177  0.35591565  0.74312647  1
  O  O50  1  0.86627922  0.54018068  0.74279069  1
  O  O51  1  0.64408435  0.52972823  0.24312647  1
  O  O52  1  0.87901316  0.33619186  0.24897805  1
  O  O53  1  0.45981932  0.13372078  0.24279069  1
  O  O54  1  0.62769227  0.48337783  0.92053760  1
  O  O55  1  0.84592096  0.37207353  0.91880277  1
  O  O56  1  0.52687227  0.14664186  0.92146789  1
  O  O57  1  0.62792647  0.15407904  0.41880277  1
  O  O58  1  0.51662217  0.37230773  0.42053760  1
  O  O59  1  0.85335814  0.47312773  0.42146789  1
  O  O60  1  0.33047414  0.45432084  0.08231205  1
  O  O61  1  0.13693777  0.68924965  0.07646047  1
  O  O62  1  0.53294522  0.87351468  0.07612469  1
  O  O63  1  0.31075035  0.86306223  0.57646047  1
  O  O64  1  0.54567916  0.66952586  0.58231205  1
  O  O65  1  0.12648532  0.46705478  0.57612469  1
  O  O66  1  0.29435827  0.81671183  0.25387160  1
  O  O67  1  0.51258696  0.70540753  0.25213677  1
  O  O68  1  0.19353827  0.47997586  0.25480189  1
  O  O69  1  0.29459247  0.48741304  0.75213677  1
  O  O70  1  0.18328817  0.70564173  0.75387160  1
  O  O71  1  0.52002414  0.80646173  0.75480189  1
loop_
_geom_bond_atom_site_label_1
_geom_bond_atom_site_label_2
_geom_bond_distance
_geom_bond_site_symmetry_2
Na0 O51 2.318268 1_555
Na0 O68 2.398374 1_555
Na0 O53 2.622788 1_555
Na0 O17 2.667299 1_555
Na0 O10 2.765589 1_555
Na0 O32 2.774328 1_555
Na0 O67 2.867177 1_555
Na0 O0 2.975824 1_555
Na1 O49 2.318268 1_555
Na1 O71 2.398374 1_555
Na1 O50 2.622788 1_555
Na1 O14 2.667299 1_555
Na1 O6 2.765588 1_555
Na1 O35 2.774328 1_555
Na1 O69 2.867177 1_555
Na1 O4 2.975824 1_555
Na2 O63 2.318261 1_555
Na2 O44 2.398374 1_455
Na2 O65 2.622771 1_555
Na2 O29 2.667272 1_555
Na2 O22 2.765589 1_455
Na2 O8 2.774328 1_555
Na2 O43 2.867177 1_565
Na2 O12 2.975824 1_455
Na3 O61 2.318261 1_555
Na3 O47 2.398374 1_565
Na3 O62 2.622771 1_555
Na3 O26 2.667272 1_554
Na3 O18 2.765588 1_565
Na3 O11 2.774328 1_555
Na3 O45 2.867177 1_455
Na3 O16 2.975824 1_565
Na4 O39 2.318268 1_555
Na4 O56 2.398356 1_555
Na4 O41 2.622788 1_545
Na4 O5 2.667299 1_545
Na4 O34 2.765589 1_545
Na4 O20 2.774301 1_556
Na4 O55 2.867167 1_555
Na4 O24 2.975824 1_545
Na5 O37 2.318268 1_555
Na5 O59 2.398356 1_555
Na5 O38 2.622788 1_655
Na5 O2 2.667299 1_655
Na5 O30 2.765588 1_655
Na5 O23 2.774301 1_555
Na5 O57 2.867167 1_555
Na5 O28 2.975824 1_655
Na6 O43 2.413327 1_655
Na6 O44 2.485380 1_545
Na6 O42 2.497333 1_555
Na6 O36 2.863900 1_545
Na6 O38 2.915965 1_655
Na6 O37 2.950942 1_555
Na7 O45 2.413327 1_545
Na7 O47 2.485380 1_655
Na7 O46 2.497333 1_555
Na7 O40 2.863900 1_654
Na7 O41 2.915965 1_544
Na7 O39 2.950942 1_554
Na8 O55 2.413327 1_555
Na8 O56 2.485380 1_555
Na8 O54 2.497333 1_555
Na8 O48 2.863900 1_555
Na8 O50 2.915965 1_555
Na8 O49 2.950942 1_555
Na9 O57 2.413327 1_555
Na9 O59 2.485380 1_555
Na9 O58 2.497333 1_555
Na9 O52 2.863900 1_555
Na9 O53 2.915965 1_555
Na9 O51 2.950942 1_555
Na10 O67 2.413327 1_555
Na10 O68 2.485380 1_555
Na10 O66 2.497333 1_555
Na10 O60 2.863900 1_555
Na10 O62 2.915965 1_555
Na10 O61 2.950942 1_555
Na11 O69 2.413327 1_555
Na11 O71 2.485380 1_555
Na11 O70 2.497333 1_555
Na11 O64 2.863900 1_555
Na11 O65 2.915965 1_555
Na11 O63 2.950942 1_555
La0 O1 2.246861 1_555
La0 O0 2.253457 1_665
La0 O36 2.313894 1_555
La0 O2 2.354148 1_665
La0 O37 2.371291 1_565
La0 O38 2.380229 1_665
La1 O3 2.246861 1_555
La1 O4 2.253457 1_445
La1 O40 2.313894 1_555
La1 O5 2.354148 1_445
La1 O39 2.371291 1_455
La1 O41 2.380229 1_445
La2 O13 2.246861 1_555
La2 O12 2.253457 1_555
La2 O48 2.313894 1_555
La2 O14 2.354148 1_555
La2 O49 2.371291 1_555
La2 O50 2.380229 1_555
La3 O15 2.246861 1_555
La3 O16 2.253457 1_555
La3 O52 2.313894 1_555
La3 O17 2.354148 1_555
La3 O51 2.371291 1_555
La3 O53 2.380229 1_555
La4 O25 2.246861 1_554
La4 O24 2.253457 1_554
La4 O60 2.313894 1_555
La4 O26 2.354148 1_554
La4 O61 2.371291 1_555
La4 O62 2.380229 1_555
La5 O27 2.246861 1_555
La5 O28 2.253457 1_555
La5 O64 2.313894 1_555
La5 O29 2.354148 1_555
La5 O63 2.371291 1_555
La5 O65 2.380229 1_555
O0 P0 1.513480 1_545
O1 P1 1.504743 1_555
O2 P2 1.517221 1_555
O3 P3 1.504743 1_555
O4 P4 1.513480 1_655
O5 P5 1.517221 1_555
O6 P5 1.596045 1_555
O6 Sn0 2.152800 1_665
O7 P3 1.578369 1_555
O7 Sn0 2.098055 1_555
O8 P4 1.594013 1_555
O8 Sn0 2.178801 1_565
O9 P1 1.578369 1_555
O9 Sn1 2.098055 1_555
O10 P2 1.596045 1_555
O10 Sn1 2.152800 1_445
O11 P0 1.594013 1_555
O11 Sn1 2.178801 1_455
O12 P6 1.513480 1_555
O13 P7 1.504743 1_555
O14 P8 1.517221 1_555
O15 P9 1.504743 1_555
O16 P10 1.513480 1_555
O17 P11 1.517221 1_555
O18 P11 1.596045 1_555
O18 Sn2 2.152800 1_554
O19 P9 1.578369 1_555
O19 Sn2 2.098055 1_554
O20 P10 1.594013 1_555
O20 Sn2 2.178801 1_554
O21 P7 1.578369 1_555
O21 Sn3 2.098055 1_555
O22 P8 1.596045 1_555
O22 Sn3 2.152800 1_555
O23 P6 1.594013 1_555
O23 Sn3 2.178801 1_555
O24 P12 1.513480 1_555
O25 P13 1.504743 1_555
O26 P14 1.517221 1_555
O27 P15 1.504743 1_555
O28 P16 1.513480 1_555
O29 P17 1.517221 1_555
O30 P17 1.596045 1_555
O30 Sn4 2.152800 1_555
O31 P15 1.578369 1_555
O31 Sn4 2.098055 1_555
O32 P16 1.594013 1_555
O32 Sn4 2.178801 1_555
O33 P13 1.578369 1_555
O33 Sn5 2.098055 1_555
O34 P14 1.596045 1_555
O34 Sn5 2.152800 1_555
O35 P12 1.594013 1_555
O35 Sn5 2.178801 1_555
O36 P17 1.518884 1_655
O37 P15 1.540305 1_545
O38 P16 1.536387 1_555
O39 P13 1.540305 1_655
O40 P14 1.518884 1_545
O41 P12 1.536387 1_555
O42 P6 1.574905 1_555
O42 Sn0 2.136291 1_655
O43 P7 1.579870 1_555
O43 Sn0 2.130967 1_555
O44 P8 1.591797 1_555
O44 Sn0 2.174099 1_665
O45 P9 1.579869 1_555
O45 Sn1 2.130967 1_555
O46 P10 1.574905 1_555
O46 Sn1 2.136291 1_545
O47 P11 1.591797 1_555
O47 Sn1 2.174099 1_445
O48 P5 1.518884 1_545
O49 P3 1.540305 1_555
O50 P4 1.536387 1_655
O51 P1 1.540305 1_555
O52 P2 1.518884 1_655
O53 P0 1.536387 1_545
O54 P12 1.574917 1_555
O54 Sn2 2.136291 1_555
O55 P13 1.579855 1_655
O55 Sn2 2.130967 1_555
O56 P14 1.591796 1_545
O56 Sn2 2.174099 1_555
O57 P15 1.579854 1_545
O57 Sn3 2.130967 1_555
O58 P16 1.574917 1_555
O58 Sn3 2.136291 1_555
O59 P17 1.591796 1_655
O59 Sn3 2.174099 1_555
O60 P11 1.518897 1_555
O61 P9 1.540291 1_455
O62 P10 1.536384 1_565
O63 P7 1.540291 1_565
O64 P8 1.518897 1_555
O65 P6 1.536384 1_455
O66 P0 1.574905 1_555
O66 Sn4 2.136291 1_555
O67 P1 1.579870 1_555
O67 Sn4 2.130967 1_555
O68 P2 1.591797 1_555
O68 Sn4 2.174099 1_555
O69 P3 1.579869 1_555
O69 Sn5 2.130967 1_555
O70 P4 1.574905 1_555
O70 Sn5 2.136291 1_555
O71 P5 1.591797 1_555
O71 Sn5 2.174099 1_555
