# generated using pymatgen
data_MgMn5O9F
_symmetry_space_group_name_H-M   'P 1'
_cell_length_a   5.26337810
_cell_length_b   5.22196676
_cell_length_c   7.87120977
_cell_angle_alpha   109.90378300
_cell_angle_beta   76.90157452
_cell_angle_gamma   82.14091825
_symmetry_Int_Tables_number   1
_chemical_formula_structural   MgMn5O9F
_chemical_formula_sum   'Mg1 Mn5 O9 F1'
_cell_volume   192.64669938
_cell_formula_units_Z   1
loop_
 _symmetry_equiv_pos_site_id
 _symmetry_equiv_pos_as_xyz
  1  'x, y, z'
loop_
 _atom_site_type_symbol
 _atom_site_label
 _atom_site_symmetry_multiplicity
 _atom_site_fract_x
 _atom_site_fract_y
 _atom_site_fract_z
 _atom_site_occupancy
  Mg  Mg0  1  0.50562800  0.59008100  0.69506400  1
  Mn  Mn0  1  0.01690100  0.18981700  0.39504400  1
  Mn  Mn1  1  0.95313500  0.01545000  0.01366800  1
  Mn  Mn2  1  0.99552400  0.59680400  0.20279800  1
  Mn  Mn3  1  0.98907100  0.81192500  0.59588500  1
  Mn  Mn4  1  0.00161100  0.41232500  0.80254800  1
  O  O0  1  0.18047500  0.21298000  0.15839300  1
  O  O1  1  0.19297400  0.81317600  0.35996000  1
  O  O2  1  0.21458000  0.42793800  0.56789600  1
  O  O3  1  0.18833800  0.63499400  0.96001300  1
  O  O4  1  0.80728900  0.38784400  0.03567000  1
  O  O5  1  0.79850200  0.97271800  0.27051800  1
  O  O6  1  0.79625900  0.54994900  0.43504600  1
  O  O7  1  0.80185400  0.21551700  0.64308300  1
  O  O8  1  0.77389800  0.81334100  0.82707700  1
  F  F0  1  0.26859900  0.96787600  0.74239500  1
loop_
_geom_bond_atom_site_label_1
_geom_bond_atom_site_label_2
_geom_bond_distance
_geom_bond_site_symmetry_2
Mg0 O2 2.130305 1_555
Mg0 O8 2.173263 1_555
Mg0 O7 2.180847 1_555
Mg0 O6 2.184943 1_555
Mg0 O3 2.274740 1_555
Mn0 O5 1.917768 1_445
Mn0 O0 1.918498 1_555
Mn0 O6 1.954043 1_455
Mn0 O1 1.954266 1_545
Mn0 O7 1.972140 1_455
Mn0 O2 2.079273 1_555
Mn1 O4 1.924332 1_555
Mn1 O0 1.987149 1_655
Mn1 O8 2.001453 1_544
Mn1 O3 2.043802 1_644
Mn1 O5 2.100143 1_545
Mn2 O5 1.921777 1_555
Mn2 O4 1.952388 1_555
Mn2 O1 1.959371 1_655
Mn2 O0 1.980477 1_655
Mn2 O6 2.001856 1_555
Mn2 O3 2.038988 1_654
Mn3 O8 1.910144 1_555
Mn3 O1 1.925411 1_655
Mn3 O7 2.069731 1_565
Mn3 O6 2.070489 1_555
Mn3 O2 2.099495 1_655
Mn4 O3 1.933271 1_555
Mn4 O7 1.937127 1_455
Mn4 O4 1.942762 1_456
Mn4 O2 1.965622 1_555
Mn4 O8 2.189165 1_455
F0 Mg0 2.050149 1_555
F0 Mn3 2.148241 1_455
F0 Mn1 2.301525 1_466
F0 Mn4 2.375665 1_565
