# generated using pymatgen
data_Na3YHfSi2SO12
_symmetry_space_group_name_H-M   'P 1'
_cell_length_a   9.31405102
_cell_length_b   9.31405069
_cell_length_c   23.13206733
_cell_angle_alpha   89.27565002
_cell_angle_beta   90.72434998
_cell_angle_gamma   119.92876477
_symmetry_Int_Tables_number   1
_chemical_formula_structural   Na3YHfSi2SO12
_chemical_formula_sum   'Na18 Y6 Hf6 Si12 S6 O72'
_cell_volume   1738.95071548
_cell_formula_units_Z   6
loop_
 _symmetry_equiv_pos_site_id
 _symmetry_equiv_pos_as_xyz
  1  'x, y, z'
loop_
 _atom_site_type_symbol
 _atom_site_label
 _atom_site_symmetry_multiplicity
 _atom_site_fract_x
 _atom_site_fract_y
 _atom_site_fract_z
 _atom_site_occupancy
  Na  Na0  1  0.62963997  0.99797474  0.24283942  1
  Na  Na1  1  0.99489567  0.64435492  0.24549027  1
  Na  Na2  1  0.00202526  0.37036003  0.74283942  1
  Na  Na3  1  0.35564508  0.00510433  0.74549027  1
  Na  Na4  1  0.29630697  0.33130774  0.57617242  1
  Na  Na5  1  0.66156267  0.97768792  0.57882327  1
  Na  Na6  1  0.66869226  0.70369303  0.07617242  1
  Na  Na7  1  0.02231208  0.33843733  0.07882327  1
  Na  Na8  1  0.96297297  0.66464174  0.90950642  1
  Na  Na9  1  0.32822867  0.31102192  0.91215727  1
  Na  Na10  1  0.33535826  0.03702703  0.40950642  1
  Na  Na11  1  0.68897808  0.67177133  0.41215727  1
  Na  Na12  1  0.00403496  0.02861938  0.49651590  1
  Na  Na13  1  0.97138062  0.99596504  0.99651590  1
  Na  Na14  1  0.67070196  0.36195238  0.82984890  1
  Na  Na15  1  0.63804762  0.32929804  0.32984890  1
  Na  Na16  1  0.33736796  0.69528638  0.16318290  1
  Na  Na17  1  0.30471362  0.66263204  0.66318290  1
  Y  Y0  1  0.00639012  0.01149871  0.35086773  1
  Y  Y1  1  0.98850129  0.99360988  0.85086773  1
  Y  Y2  1  0.67305712  0.34483171  0.68420073  1
  Y  Y3  1  0.65516829  0.32694288  0.18420073  1
  Y  Y4  1  0.33972312  0.67816571  0.01753473  1
  Y  Y5  1  0.32183429  0.66027688  0.51753473  1
  Hf  Hf0  1  0.02171122  0.00645266  0.64779091  1
  Hf  Hf1  1  0.99354734  0.97828878  0.14779091  1
  Hf  Hf2  1  0.68837822  0.33978566  0.98112391  1
  Hf  Hf3  1  0.66021434  0.31162178  0.48112391  1
  Hf  Hf4  1  0.35504422  0.67311966  0.31445791  1
  Hf  Hf5  1  0.32688034  0.64495578  0.81445791  1
  Si  Si0  1  0.29443574  0.99254481  0.25353339  1
  Si  Si1  1  0.70457536  0.70348640  0.25209944  1
  Si  Si2  1  0.29651360  0.29542464  0.75209944  1
  Si  Si3  1  0.00745519  0.70556426  0.75353339  1
  Si  Si4  1  0.96110274  0.32587781  0.58686639  1
  Si  Si5  1  0.37124236  0.03681940  0.58543244  1
  Si  Si6  1  0.96318060  0.62875764  0.08543244  1
  Si  Si7  1  0.67412219  0.03889726  0.08686639  1
  Si  Si8  1  0.62776874  0.65921181  0.92020039  1
  Si  Si9  1  0.03790836  0.37015340  0.91876644  1
  Si  Si10  1  0.62984660  0.96209164  0.41876644  1
  Si  Si11  1  0.34078819  0.37223126  0.42020039  1
  S  S0  1  0.00833873  0.30172390  0.24738837  1
  S  S1  1  0.69827610  0.99166127  0.74738837  1
  S  S2  1  0.67500573  0.63505690  0.58072137  1
  S  S3  1  0.36494310  0.32499427  0.08072137  1
  S  S4  1  0.34167173  0.96839090  0.91405537  1
  S  S5  1  0.03160910  0.65832827  0.41405537  1
  O  O0  1  0.21820493  0.01492645  0.31267015  1
  O  O1  1  0.81200500  0.78973576  0.30941004  1
  O  O2  1  0.98234822  0.19811710  0.29872319  1
  O  O3  1  0.21026424  0.18799500  0.80941004  1
  O  O4  1  0.98507355  0.78179507  0.81267015  1
  O  O5  1  0.80188290  0.01765178  0.79872319  1
  O  O6  1  0.77711718  0.97088240  0.69509142  1
  O  O7  1  0.17286268  0.20251500  0.69449202  1
  O  O8  1  0.02532552  0.83173858  0.69821288  1
  O  O9  1  0.79748500  0.82713732  0.19449202  1
  O  O10  1  0.02911760  0.22288282  0.19509142  1
  O  O11  1  0.16826142  0.97467448  0.19821288  1
  O  O12  1  0.88487193  0.34825945  0.64600315  1
  O  O13  1  0.47867200  0.12306876  0.64274304  1
  O  O14  1  0.64901522  0.53145010  0.63205619  1
  O  O15  1  0.87693124  0.52132800  0.14274304  1
  O  O16  1  0.65174055  0.11512807  0.14600315  1
  O  O17  1  0.46854990  0.35098478  0.13205619  1
  O  O18  1  0.44378418  0.30421540  0.02842442  1
  O  O19  1  0.83952968  0.53584800  0.02782502  1
  O  O20  1  0.69199252  0.16507158  0.03154588  1
  O  O21  1  0.46415200  0.16047032  0.52782502  1
  O  O22  1  0.69578460  0.55621582  0.52842442  1
  O  O23  1  0.83492842  0.30800748  0.53154588  1
  O  O24  1  0.55153793  0.68159345  0.97933715  1
  O  O25  1  0.14533800  0.45640276  0.97607704  1
  O  O26  1  0.31568122  0.86478410  0.96539019  1
  O  O27  1  0.54359724  0.85466200  0.47607704  1
  O  O28  1  0.31840655  0.44846207  0.47933715  1
  O  O29  1  0.13521590  0.68431878  0.46539019  1
  O  O30  1  0.11045018  0.63754940  0.36175842  1
  O  O31  1  0.50619568  0.86918200  0.36115902  1
  O  O32  1  0.35865852  0.49840558  0.36487988  1
  O  O33  1  0.13081800  0.49380432  0.86115902  1
  O  O34  1  0.36245060  0.88954982  0.86175842  1
  O  O35  1  0.50159442  0.64134148  0.86487988  1
  O  O36  1  0.01253613  0.80744509  0.41023697  1
  O  O37  1  0.80896605  0.97498374  0.41331335  1
  O  O38  1  0.19154202  0.18090661  0.41513537  1
  O  O39  1  0.02501626  0.19103395  0.91331335  1
  O  O40  1  0.19255491  0.98746387  0.91023697  1
  O  O41  1  0.81909339  0.80845798  0.91513537  1
  O  O42  1  0.96039226  0.14451225  0.58937248  1
  O  O43  1  0.18908163  0.03126440  0.58898952  1
  O  O44  1  0.82293072  0.80365119  0.58782717  1
  O  O45  1  0.96873560  0.81091837  0.08898952  1
  O  O46  1  0.85548775  0.03960774  0.08937248  1
  O  O47  1  0.19634881  0.17706928  0.08782717  1
  O  O48  1  0.67920313  0.14077809  0.74356997  1
  O  O49  1  0.47563305  0.30831674  0.74664635  1
  O  O50  1  0.85820902  0.51423961  0.74846837  1
  O  O51  1  0.69168326  0.52436695  0.24664635  1
  O  O52  1  0.85922191  0.32079687  0.24356997  1
  O  O53  1  0.48576039  0.14179098  0.24846837  1
  O  O54  1  0.62705926  0.47784525  0.92270548  1
  O  O55  1  0.85574863  0.36459740  0.92232252  1
  O  O56  1  0.48959772  0.13698419  0.92116017  1
  O  O57  1  0.63540260  0.14425137  0.42232252  1
  O  O58  1  0.52215475  0.37294074  0.42270548  1
  O  O59  1  0.86301581  0.51040228  0.42116017  1
  O  O60  1  0.34586913  0.47411209  0.07690397  1
  O  O61  1  0.14229905  0.64165074  0.07998035  1
  O  O62  1  0.52487502  0.84757361  0.08180237  1
  O  O63  1  0.35834926  0.85770095  0.57998035  1
  O  O64  1  0.52588791  0.65413087  0.57690397  1
  O  O65  1  0.15242639  0.47512498  0.58180237  1
  O  O66  1  0.29372526  0.81117925  0.25603948  1
  O  O67  1  0.52241463  0.69793140  0.25565652  1
  O  O68  1  0.15626372  0.47031819  0.25449417  1
  O  O69  1  0.30206860  0.47758537  0.75565652  1
  O  O70  1  0.18882075  0.70627474  0.75603948  1
  O  O71  1  0.52968181  0.84373628  0.75449417  1
loop_
_geom_bond_atom_site_label_1
_geom_bond_atom_site_label_2
_geom_bond_distance
_geom_bond_site_symmetry_2
Na0 O53 2.325329 1_565
Na0 O16 2.444680 1_565
Na0 O67 2.469162 1_555
Na0 O52 2.682949 1_565
Na0 O66 2.736452 1_555
Na0 O9 2.966138 1_555
Na0 O31 2.978639 1_555
Na1 O66 2.428518 1_655
Na1 O51 2.465198 1_555
Na1 O52 2.623502 1_555
Na1 O15 2.629780 1_555
Na1 O68 2.710090 1_655
Na1 O11 2.875986 1_655
Na1 O30 2.895946 1_655
Na2 O50 2.325329 1_455
Na2 O12 2.444680 1_455
Na2 O69 2.469162 1_555
Na2 O48 2.682949 1_455
Na2 O70 2.736452 1_555
Na2 O7 2.966138 1_555
Na2 O33 2.978639 1_555
Na3 O70 2.428518 1_545
Na3 O49 2.465198 1_555
Na3 O48 2.623502 1_555
Na3 O13 2.629780 1_555
Na3 O71 2.710090 1_545
Na3 O8 2.875986 1_545
Na3 O34 2.895946 1_545
Na4 O65 2.325347 1_555
Na4 O28 2.444664 1_555
Na4 O43 2.469162 1_555
Na4 O64 2.682954 1_555
Na4 O42 2.736452 1_455
Na4 O21 2.966138 1_555
Na4 O7 2.978639 1_555
Na5 O42 2.428518 1_565
Na5 O63 2.465208 1_555
Na5 O64 2.623492 1_555
Na5 O27 2.629759 1_555
Na5 O44 2.710090 1_555
Na5 O23 2.875986 1_565
Na5 O6 2.895946 1_555
Na6 O62 2.325347 1_555
Na6 O24 2.444664 1_554
Na6 O45 2.469162 1_555
Na6 O60 2.682954 1_555
Na6 O46 2.736452 1_565
Na6 O19 2.966138 1_555
Na6 O9 2.978639 1_555
Na7 O46 2.428518 1_455
Na7 O61 2.465208 1_555
Na7 O60 2.623492 1_555
Na7 O25 2.629759 1_554
Na7 O47 2.710090 1_555
Na7 O20 2.875986 1_455
Na7 O10 2.895946 1_555
Na8 O41 2.325329 1_555
Na8 O4 2.444680 1_555
Na8 O55 2.469170 1_555
Na8 O40 2.682949 1_655
Na8 O54 2.736442 1_555
Na8 O33 2.966138 1_655
Na8 O19 2.978617 1_556
Na9 O54 2.428523 1_555
Na9 O39 2.465198 1_555
Na9 O40 2.623502 1_545
Na9 O3 2.629780 1_555
Na9 O56 2.710104 1_555
Na9 O35 2.875986 1_555
Na9 O18 2.895930 1_556
Na10 O38 2.325329 1_555
Na10 O0 2.444680 1_555
Na10 O57 2.469170 1_555
Na10 O36 2.682949 1_545
Na10 O58 2.736442 1_555
Na10 O31 2.966138 1_545
Na10 O21 2.978617 1_555
Na11 O58 2.428523 1_555
Na11 O37 2.465198 1_555
Na11 O36 2.623502 1_655
Na11 O1 2.629780 1_555
Na11 O59 2.710104 1_555
Na11 O32 2.875986 1_555
Na11 O22 2.895930 1_555
Na12 O38 2.479829 1_555
Na12 O37 2.507008 1_445
Na12 O42 2.542183 1_455
Na12 O43 2.722627 1_555
Na12 O44 2.854587 1_445
Na12 O36 2.916154 1_545
Na13 O41 2.479829 1_555
Na13 O39 2.507008 1_665
Na13 O46 2.542183 1_566
Na13 O45 2.722627 1_556
Na13 O47 2.854587 1_666
Na13 O40 2.916154 1_655
Na14 O50 2.479829 1_555
Na14 O49 2.507008 1_555
Na14 O54 2.542183 1_555
Na14 O55 2.722627 1_555
Na14 O56 2.854587 1_555
Na14 O48 2.916154 1_555
Na15 O53 2.479829 1_555
Na15 O51 2.507008 1_555
Na15 O58 2.542183 1_555
Na15 O57 2.722627 1_555
Na15 O59 2.854587 1_555
Na15 O52 2.916154 1_555
Na16 O62 2.479829 1_555
Na16 O61 2.507008 1_555
Na16 O66 2.542183 1_555
Na16 O67 2.722627 1_555
Na16 O68 2.854587 1_555
Na16 O60 2.916154 1_555
Na17 O65 2.479829 1_555
Na17 O63 2.507008 1_555
Na17 O70 2.542183 1_555
Na17 O69 2.722627 1_555
Na17 O71 2.854587 1_555
Na17 O64 2.916154 1_555
Hf0 O7 1.982389 1_555
Hf0 O8 2.003824 1_545
Hf0 O43 2.004965 1_555
Hf0 O42 2.115468 1_455
Hf0 O44 2.330551 1_445
Hf0 O6 2.407839 1_445
Hf1 O9 1.982389 1_555
Hf1 O11 2.003824 1_655
Hf1 O45 2.004965 1_555
Hf1 O46 2.115468 1_565
Hf1 O47 2.330551 1_665
Hf1 O10 2.407839 1_665
Hf2 O19 1.982389 1_556
Hf2 O20 2.003824 1_556
Hf2 O55 2.004965 1_555
Hf2 O54 2.115468 1_555
Hf2 O56 2.330551 1_555
Hf2 O18 2.407839 1_556
Hf3 O21 1.982389 1_555
Hf3 O23 2.003824 1_555
Hf3 O57 2.004965 1_555
Hf3 O58 2.115468 1_555
Hf3 O59 2.330551 1_555
Hf3 O22 2.407839 1_555
Hf4 O31 1.982389 1_555
Hf4 O32 2.003824 1_555
Hf4 O67 2.004965 1_555
Hf4 O66 2.115468 1_555
Hf4 O68 2.330551 1_555
Hf4 O30 2.407839 1_555
Hf5 O33 1.982389 1_555
Hf5 O35 2.003824 1_555
Hf5 O69 2.004965 1_555
Hf5 O70 2.115468 1_555
Hf5 O71 2.330551 1_555
Hf5 O34 2.407839 1_555
O0 Si0 1.611939 1_545
O0 Y0 2.157409 1_555
O1 Si1 1.611014 1_555
O1 Y0 2.176829 1_665
O2 S0 1.464626 1_655
O2 Y0 2.203379 1_655
O3 Si2 1.611014 1_555
O3 Y1 2.176829 1_445
O4 Si3 1.611939 1_655
O4 Y1 2.157409 1_555
O5 S1 1.464626 1_545
O5 Y1 2.203380 1_545
O6 S1 1.486725 1_555
O7 Si2 1.687270 1_555
O8 Si3 1.678850 1_555
O9 Si1 1.687270 1_555
O10 S0 1.486725 1_555
O11 Si0 1.678850 1_555
O12 Si4 1.611939 1_555
O12 Y2 2.157409 1_555
O13 Si5 1.611014 1_555
O13 Y2 2.176829 1_555
O14 S2 1.464626 1_555
O14 Y2 2.203379 1_555
O15 Si6 1.611014 1_555
O15 Y3 2.176829 1_555
O16 Si7 1.611939 1_555
O16 Y3 2.157409 1_555
O17 S3 1.464626 1_555
O17 Y3 2.203380 1_555
O18 S3 1.486725 1_555
O19 Si6 1.687270 1_555
O20 Si7 1.678850 1_555
O21 Si5 1.687270 1_555
O22 S2 1.486725 1_555
O23 Si4 1.678850 1_555
O24 Si8 1.611939 1_555
O24 Y4 2.157409 1_556
O25 Si9 1.611014 1_555
O25 Y4 2.176829 1_556
O26 S4 1.464626 1_555
O26 Y4 2.203379 1_556
O27 Si10 1.611014 1_555
O27 Y5 2.176829 1_555
O28 Si11 1.611939 1_555
O28 Y5 2.157409 1_555
O29 S5 1.464626 1_555
O29 Y5 2.203380 1_555
O30 S5 1.486725 1_555
O31 Si10 1.687270 1_555
O32 Si11 1.678850 1_555
O33 Si9 1.687270 1_555
O34 S4 1.486725 1_555
O35 Si8 1.678850 1_555
O36 S5 1.486961 1_555
O36 Y0 2.354156 1_565
O37 Si10 1.618236 1_555
O37 Y0 2.239238 1_665
O38 Si11 1.628180 1_555
O38 Y0 2.225540 1_555
O39 Si9 1.618236 1_555
O39 Y1 2.239238 1_445
O40 S4 1.486961 1_555
O40 Y1 2.354156 1_455
O41 Si8 1.628180 1_555
O41 Y1 2.225540 1_555
O42 Si4 1.686221 1_555
O43 Si5 1.674488 1_555
O44 S2 1.494344 1_555
O45 Si6 1.674488 1_555
O46 Si7 1.686221 1_555
O47 S3 1.494344 1_555
O48 S1 1.486961 1_545
O48 Y2 2.354156 1_555
O49 Si2 1.618236 1_555
O49 Y2 2.239238 1_555
O50 Si3 1.628180 1_655
O50 Y2 2.225540 1_555
O51 Si1 1.618236 1_555
O51 Y3 2.239238 1_555
O52 S0 1.486961 1_655
O52 Y3 2.354156 1_555
O53 Si0 1.628180 1_545
O53 Y3 2.225540 1_555
O54 Si8 1.686235 1_555
O55 Si9 1.674473 1_655
O56 S4 1.494340 1_545
O57 Si10 1.674473 1_545
O58 Si11 1.686235 1_555
O59 S5 1.494340 1_655
O60 S3 1.486974 1_555
O60 Y4 2.354156 1_555
O61 Si6 1.618221 1_455
O61 Y4 2.239238 1_555
O62 Si7 1.628175 1_565
O62 Y4 2.225540 1_555
O63 Si5 1.618221 1_565
O63 Y5 2.239238 1_555
O64 S2 1.486974 1_555
O64 Y5 2.354156 1_555
O65 Si4 1.628175 1_455
O65 Y5 2.225540 1_555
O66 Si0 1.686221 1_555
O67 Si1 1.674488 1_555
O68 S0 1.494344 1_555
O69 Si2 1.674488 1_555
O70 Si3 1.686221 1_555
O71 S1 1.494344 1_555
