# generated using pymatgen
data_UNiSn
_symmetry_space_group_name_H-M   'P 1'
_cell_length_a   5.93495188
_cell_length_b   5.94212710
_cell_length_c   5.94400908
_cell_angle_alpha   41.34719436
_cell_angle_beta   59.14069024
_cell_angle_gamma   74.69989929
_symmetry_Int_Tables_number   1
_chemical_formula_structural   UNiSn
_chemical_formula_sum   'U2 Ni2 Sn2'
_cell_volume   116.12988838
_cell_formula_units_Z   2
loop_
 _symmetry_equiv_pos_site_id
 _symmetry_equiv_pos_as_xyz
  1  'x, y, z'
loop_
 _atom_site_type_symbol
 _atom_site_label
 _atom_site_symmetry_multiplicity
 _atom_site_fract_x
 _atom_site_fract_y
 _atom_site_fract_z
 _atom_site_occupancy
  U  U0  1  0.21606820  0.49723134  0.28843409  1
  U  U1  1  0.78393173  0.50278300  0.71155135  1
  Ni  Ni0  1  0.63115794  0.13104522  0.49988499  1
  Ni  Ni1  1  0.36882284  0.86894459  0.50014312  1
  Sn  Sn0  1  0.79329304  0.79146223  0.99805053  1
  Sn  Sn1  1  0.20672625  0.20853262  0.00193593  1
loop_
_geom_bond_atom_site_label_1
_geom_bond_atom_site_label_2
_geom_bond_distance
_geom_bond_site_symmetry_2
U0 U1 2.523277 1_455
Ni0 Ni1 2.474542 1_545
Ni0 Sn0 2.587068 1_545
Ni0 Sn0 2.587753 1_554
Ni0 U0 2.936767 1_555
Ni0 U1 2.945106 1_545
Ni0 U0 2.961257 1_546
Ni0 U1 2.969213 1_554
Ni0 Sn1 3.008838 1_655
Ni0 Sn1 3.033493 1_556
Ni1 Sn1 2.587076 1_565
Ni1 Sn1 2.587732 1_556
Ni1 U1 2.936760 1_555
Ni1 U0 2.945118 1_565
Ni1 U1 2.961393 1_564
Ni1 U0 2.969082 1_556
Ni1 Sn0 3.008622 1_455
Ni1 Sn0 3.033705 1_554
Sn0 U0 3.132362 1_665
Sn0 U1 3.133331 1_556
Sn0 U0 3.150966 1_656
Sn0 U1 3.151892 1_565
Sn0 U0 3.214980 1_556
Sn0 U1 3.221643 1_555
Sn1 U1 3.132353 1_445
Sn1 U0 3.133344 1_554
Sn1 U1 3.151069 1_454
Sn1 U0 3.151794 1_545
Sn1 U1 3.214919 1_554
Sn1 U0 3.221696 1_555
