# generated using pymatgen
data_Ce(GeRu)2
_symmetry_space_group_name_H-M   'P 1'
_cell_length_a   4.27188165
_cell_length_b   4.27188180
_cell_length_c   5.82777921
_cell_angle_alpha   111.50056034
_cell_angle_beta   111.50054905
_cell_angle_gamma   90.00000526
_symmetry_Int_Tables_number   1
_chemical_formula_structural   Ce(GeRu)2
_chemical_formula_sum   'Ce1 Ge2 Ru2'
_cell_volume   90.94971308
_cell_formula_units_Z   1
loop_
 _symmetry_equiv_pos_site_id
 _symmetry_equiv_pos_as_xyz
  1  'x, y, z'
loop_
 _atom_site_type_symbol
 _atom_site_label
 _atom_site_symmetry_multiplicity
 _atom_site_fract_x
 _atom_site_fract_y
 _atom_site_fract_z
 _atom_site_occupancy
  Ce  Ce0  1  -0.00000000  0.00000000  0.00000000  1
  Ge  Ge0  1  0.63303112  0.63303112  0.26606124  1
  Ge  Ge1  1  0.36696888  0.36696888  0.73393876  1
  Ru  Ru0  1  0.75000000  0.25000000  0.50000000  1
  Ru  Ru1  1  0.25000000  0.75000000  0.50000000  1
loop_
_geom_bond_atom_site_label_1
_geom_bond_atom_site_label_2
_geom_bond_distance
_geom_bond_site_symmetry_2
Ce0 Ru0 3.282053 1_455
Ce0 Ru1 3.282053 1_544
Ce0 Ru0 3.282053 1_444
Ce0 Ru1 3.282053 1_555
Ce0 Ru1 3.282053 1_444
Ce0 Ru0 3.282053 1_555
Ce0 Ru1 3.282054 1_545
Ce0 Ru0 3.282054 1_454
Ce0 Ge1 3.298902 1_554
Ce0 Ge0 3.298902 1_445
Ce0 Ge0 3.298904 1_455
Ce0 Ge1 3.298904 1_544
Ce0 Ge0 3.298905 1_545
Ce0 Ge1 3.298905 1_454
Ce0 Ge0 3.298907 1_555
Ce0 Ge1 3.298907 1_444
Ge0 Ru0 2.433430 1_565
Ge0 Ru1 2.433430 1_655
Ge0 Ru1 2.433433 1_555
Ge0 Ru0 2.433434 1_555
Ge0 Ge1 2.652006 1_554
Ge1 Ru1 2.433430 1_545
Ge1 Ru0 2.433430 1_455
Ge1 Ru0 2.433433 1_555
Ge1 Ru1 2.433434 1_555
