# generated using pymatgen
data_LiNi2(PO4)3
_symmetry_space_group_name_H-M   'P 1'
_cell_length_a   4.83460163
_cell_length_b   4.83460163
_cell_length_c   19.29912891
_cell_angle_alpha   89.53573903
_cell_angle_beta   89.53573903
_cell_angle_gamma   66.11337301
_symmetry_Int_Tables_number   1
_chemical_formula_structural   LiNi2(PO4)3
_chemical_formula_sum   'Li2 Ni4 P6 O24'
_cell_volume   412.43028856
_cell_formula_units_Z   2
loop_
 _symmetry_equiv_pos_site_id
 _symmetry_equiv_pos_as_xyz
  1  'x, y, z'
loop_
 _atom_site_type_symbol
 _atom_site_label
 _atom_site_symmetry_multiplicity
 _atom_site_fract_x
 _atom_site_fract_y
 _atom_site_fract_z
 _atom_site_occupancy
  Li  Li0  1  0.99970300  0.99970300  0.33361000  1
  Li  Li1  1  0.00029700  0.00029700  0.66639000  1
  Ni  Ni0  1  0.00000000  0.00000000  0.00000000  1
  Ni  Ni1  1  0.00161400  0.00161400  0.83371700  1
  Ni  Ni2  1  0.99838600  0.99838600  0.16628300  1
  Ni  Ni3  1  0.00000000  0.00000000  0.50000000  1
  P  P0  1  0.64580400  0.64580400  0.08338600  1
  P  P1  1  0.64343800  0.64343800  0.41867700  1
  P  P2  1  0.35547000  0.35547000  0.24796200  1
  P  P3  1  0.35656200  0.35656200  0.58132300  1
  P  P4  1  0.35419600  0.35419600  0.91661400  1
  P  P5  1  0.64453000  0.64453000  0.75203800  1
  O  O0  1  0.25638500  0.25638500  0.31681600  1
  O  O1  1  0.77413100  0.29694000  0.75408300  1
  O  O2  1  0.75330800  0.75330800  0.01648800  1
  O  O3  1  0.70508600  0.22264800  0.91684900  1
  O  O4  1  0.77220800  0.29556000  0.42020500  1
  O  O5  1  0.70306000  0.22586900  0.24591700  1
  O  O6  1  0.29556000  0.77220800  0.42020500  1
  O  O7  1  0.77735200  0.29491400  0.08315100  1
  O  O8  1  0.74408900  0.74408900  0.35024800  1
  O  O9  1  0.74361500  0.74361500  0.68318400  1
  O  O10  1  0.74966200  0.74966200  0.15037500  1
  O  O11  1  0.29694000  0.77413100  0.75408300  1
  O  O12  1  0.25033800  0.25033800  0.84962500  1
  O  O13  1  0.22264800  0.70508600  0.91684900  1
  O  O14  1  0.22586900  0.70306000  0.24591700  1
  O  O15  1  0.24699600  0.24699600  0.51521200  1
  O  O16  1  0.22779200  0.70444000  0.57979500  1
  O  O17  1  0.75544200  0.75544200  0.81771600  1
  O  O18  1  0.24669200  0.24669200  0.98351200  1
  O  O19  1  0.70444000  0.22779200  0.57979500  1
  O  O20  1  0.25591100  0.25591100  0.64975200  1
  O  O21  1  0.24455800  0.24455800  0.18228400  1
  O  O22  1  0.29491400  0.77735200  0.08315100  1
  O  O23  1  0.75300400  0.75300400  0.48478800  1
loop_
_geom_bond_atom_site_label_1
_geom_bond_atom_site_label_2
_geom_bond_distance
_geom_bond_site_symmetry_2
Li0 O8 2.093180 1_555
Li0 O0 2.102167 1_665
Li0 O6 2.187102 1_655
Li0 O4 2.187102 1_565
Li0 O14 2.203623 1_655
Li0 O5 2.203623 1_565
Li1 O20 2.093180 1_555
Li1 O9 2.102167 1_445
Li1 O16 2.187102 1_545
Li1 O19 2.187102 1_455
Li1 O1 2.203623 1_455
Li1 O11 2.203623 1_545
Ni0 O18 2.021332 1_554
Ni0 O2 2.021332 1_445
Ni0 O13 2.129063 1_544
Ni0 O3 2.129063 1_454
Ni0 O22 2.129063 1_545
Ni0 O7 2.129063 1_455
Ni1 O17 2.021700 1_445
Ni1 O12 2.041853 1_555
Ni1 O11 2.080915 1_545
Ni1 O1 2.080915 1_455
Ni1 O3 2.126262 1_455
Ni1 O13 2.126262 1_545
Ni2 O21 2.021700 1_665
Ni2 O10 2.041853 1_555
Ni2 O14 2.080915 1_655
Ni2 O5 2.080915 1_565
Ni2 O22 2.126262 1_655
Ni2 O7 2.126262 1_565
Ni3 O15 2.025892 1_555
Ni3 O23 2.025892 1_445
Ni3 O19 2.084117 1_455
Ni3 O16 2.084117 1_545
Ni3 O6 2.084117 1_545
Ni3 O4 2.084117 1_455
O0 P2 1.545940 1_555
O1 P5 1.537758 1_555
O2 P0 1.550530 1_555
O3 P4 1.551981 1_555
O4 P1 1.539028 1_555
O5 P2 1.537758 1_555
O6 P1 1.539028 1_555
O7 P0 1.551981 1_555
O8 P1 1.545492 1_555
O9 P5 1.545940 1_555
O10 P0 1.549470 1_555
O11 P5 1.537758 1_555
O12 P4 1.549470 1_555
O13 P4 1.551981 1_555
O14 P2 1.537758 1_555
O15 P3 1.561476 1_555
O16 P3 1.539028 1_555
O17 P5 1.560950 1_555
O18 P4 1.550530 1_555
O19 P3 1.539028 1_555
O20 P3 1.545492 1_555
O21 P2 1.560950 1_555
O22 P0 1.551981 1_555
O23 P1 1.561476 1_555
