# generated using pymatgen
data_SrYb2O4
_symmetry_space_group_name_H-M   'P 1'
_cell_length_a   3.47209700
_cell_length_b   9.81279100
_cell_length_c   11.94805300
_cell_angle_alpha   90.00000000
_cell_angle_beta   90.00000000
_cell_angle_gamma   90.00000000
_symmetry_Int_Tables_number   1
_chemical_formula_structural   SrYb2O4
_chemical_formula_sum   'Sr4 Yb8 O16'
_cell_volume   407.08166204
_cell_formula_units_Z   4
loop_
 _symmetry_equiv_pos_site_id
 _symmetry_equiv_pos_as_xyz
  1  'x, y, z'
loop_
 _atom_site_type_symbol
 _atom_site_label
 _atom_site_symmetry_multiplicity
 _atom_site_fract_x
 _atom_site_fract_y
 _atom_site_fract_z
 _atom_site_occupancy
  Sr  Sr0  1  0.75000000  0.25032000  0.84290700  1
  Sr  Sr1  1  0.25000000  0.74968000  0.15709300  1
  Sr  Sr2  1  0.75000000  0.75032000  0.65709300  1
  Sr  Sr3  1  0.25000000  0.24968000  0.34290700  1
  Yb  Yb0  1  0.25000000  0.57614000  0.89126900  1
  Yb  Yb1  1  0.75000000  0.42386000  0.10873100  1
  Yb  Yb2  1  0.25000000  0.07614000  0.60873100  1
  Yb  Yb3  1  0.75000000  0.92386000  0.39126900  1
  Yb  Yb4  1  0.75000000  0.91489700  0.89478400  1
  Yb  Yb5  1  0.25000000  0.08510300  0.10521600  1
  Yb  Yb6  1  0.75000000  0.41489700  0.60521600  1
  Yb  Yb7  1  0.25000000  0.58510300  0.39478400  1
  O  O0  1  0.25000000  0.57744600  0.58485000  1
  O  O1  1  0.75000000  0.42255400  0.41515000  1
  O  O2  1  0.25000000  0.07744600  0.91515000  1
  O  O3  1  0.75000000  0.92255400  0.08485000  1
  O  O4  1  0.25000000  0.48934000  0.22231000  1
  O  O5  1  0.75000000  0.51066000  0.77769000  1
  O  O6  1  0.25000000  0.98934000  0.27769000  1
  O  O7  1  0.75000000  0.01066000  0.72231000  1
  O  O8  1  0.25000000  0.86766600  0.51994200  1
  O  O9  1  0.75000000  0.13233400  0.48005800  1
  O  O10  1  0.25000000  0.36766600  0.98005800  1
  O  O11  1  0.75000000  0.63233400  0.01994200  1
  O  O12  1  0.75000000  0.71411500  0.31825600  1
  O  O13  1  0.25000000  0.28588500  0.68174400  1
  O  O14  1  0.75000000  0.21411500  0.18174400  1
  O  O15  1  0.25000000  0.78588500  0.81825600  1
loop_
_geom_bond_atom_site_label_1
_geom_bond_atom_site_label_2
_geom_bond_distance
_geom_bond_site_symmetry_2
O0 Yb7 2.272161 1_555
O0 Yb6 2.370082 1_555
O0 Yb6 2.370082 1_455
O0 Sr2 2.576162 1_555
O0 Sr2 2.576162 1_455
O1 Yb6 2.272161 1_555
O1 Yb7 2.370082 1_655
O1 Yb7 2.370082 1_555
O1 Sr3 2.576162 1_555
O1 Sr3 2.576162 1_655
O2 Yb5 2.272161 1_556
O2 Yb4 2.370082 1_445
O2 Yb4 2.370082 1_545
O2 Sr0 2.576162 1_555
O2 Sr0 2.576162 1_455
O3 Yb4 2.272161 1_554
O3 Yb5 2.370082 1_665
O3 Yb5 2.370082 1_565
O3 Sr1 2.576162 1_655
O3 Sr1 2.576162 1_555
O4 Yb7 2.264871 1_555
O4 Yb1 2.295278 1_555
O4 Yb1 2.295278 1_455
O4 Sr1 2.670857 1_555
O4 Sr3 2.758050 1_555
O5 Yb6 2.264871 1_555
O5 Yb0 2.295278 1_555
O5 Yb0 2.295278 1_655
O5 Sr0 2.670857 1_555
O5 Sr2 2.758050 1_555
O6 Yb5 2.264871 1_565
O6 Yb3 2.295278 1_555
O6 Yb3 2.295278 1_455
O6 Sr3 2.670857 1_565
O6 Sr1 2.758050 1_555
O7 Yb4 2.264871 1_545
O7 Yb2 2.295278 1_655
O7 Yb2 2.295278 1_555
O7 Sr2 2.670857 1_545
O7 Sr0 2.758050 1_555
O8 Yb2 2.304420 1_565
O8 Yb3 2.383590 1_455
O8 Yb3 2.383590 1_555
O8 Sr2 2.650489 1_455
O8 Sr2 2.650489 1_555
O9 Yb3 2.304420 1_545
O9 Yb2 2.383590 1_555
O9 Yb2 2.383590 1_655
O9 Sr3 2.650489 1_555
O9 Sr3 2.650489 1_655
O10 Yb0 2.304420 1_555
O10 Yb1 2.383590 1_556
O10 Yb1 2.383590 1_456
O10 Sr0 2.650489 1_455
O10 Sr0 2.650489 1_555
O11 Yb1 2.304420 1_555
O11 Yb0 2.383590 1_654
O11 Yb0 2.383590 1_554
O11 Sr1 2.650489 1_655
O11 Sr1 2.650489 1_555
O12 Yb3 2.235428 1_555
O12 Yb7 2.335079 1_555
O12 Yb7 2.335079 1_655
O12 Sr1 2.616015 1_655
O12 Sr1 2.616015 1_555
O13 Yb2 2.235428 1_555
O13 Yb6 2.335079 1_555
O13 Yb6 2.335079 1_455
O13 Sr0 2.616015 1_455
O13 Sr0 2.616015 1_555
O14 Yb1 2.235428 1_555
O14 Yb5 2.335079 1_555
O14 Yb5 2.335079 1_655
O14 Sr3 2.616015 1_555
O14 Sr3 2.616015 1_655
O15 Yb0 2.235428 1_555
O15 Yb4 2.335079 1_455
O15 Yb4 2.335079 1_555
O15 Sr2 2.616015 1_555
O15 Sr2 2.616015 1_455
