# generated using pymatgen
data_MgV4O8
_symmetry_space_group_name_H-M   'P 1'
_cell_length_a   5.69704857
_cell_length_b   5.11347889
_cell_length_c   6.01801144
_cell_angle_alpha   95.96920211
_cell_angle_beta   99.29990138
_cell_angle_gamma   61.36015093
_symmetry_Int_Tables_number   1
_chemical_formula_structural   MgV4O8
_chemical_formula_sum   'Mg1 V4 O8'
_cell_volume   151.77159672
_cell_formula_units_Z   1
loop_
 _symmetry_equiv_pos_site_id
 _symmetry_equiv_pos_as_xyz
  1  'x, y, z'
loop_
 _atom_site_type_symbol
 _atom_site_label
 _atom_site_symmetry_multiplicity
 _atom_site_fract_x
 _atom_site_fract_y
 _atom_site_fract_z
 _atom_site_occupancy
  Mg  Mg0  1  0.50000000  0.50000000  0.00000000  1
  V  V0  1  0.00000000  0.00000000  0.00000000  1
  V  V1  1  0.00000000  0.00000000  0.50000000  1
  V  V2  1  0.42543300  0.23348400  0.33333300  1
  V  V3  1  0.57456700  0.76651600  0.66666700  1
  O  O0  1  0.24729100  0.18069200  0.09057700  1
  O  O1  1  0.27179600  0.15104000  0.55811900  1
  O  O2  1  0.25267300  0.68430400  0.27995200  1
  O  O3  1  0.24641200  0.76313400  0.77343000  1
  O  O4  1  0.75358800  0.23686600  0.22657000  1
  O  O5  1  0.74732700  0.31569600  0.72004800  1
  O  O6  1  0.75270900  0.81930800  0.90942300  1
  O  O7  1  0.72820400  0.84896000  0.44188100  1
loop_
_geom_bond_atom_site_label_1
_geom_bond_atom_site_label_2
_geom_bond_distance
_geom_bond_site_symmetry_2
Mg0 O4 1.907418 1_555
Mg0 O3 1.907418 1_554
Mg0 O5 2.208170 1_554
Mg0 O2 2.208170 1_555
O0 V2 1.714211 1_555
O0 V0 2.007612 1_555
O1 V2 1.904949 1_555
O1 V3 1.979884 1_545
O1 V1 2.007904 1_555
O2 V2 2.064699 1_555
O2 V1 2.091806 1_565
O2 V0 2.251835 1_565
O3 V0 1.985472 1_566
O3 V1 2.045342 1_565
O3 V3 2.080797 1_555
O4 V0 1.985472 1_655
O4 V1 2.045342 1_655
O4 V2 2.080797 1_555
O5 V3 2.064699 1_555
O5 V1 2.091806 1_655
O5 V0 2.251835 1_656
O6 V3 1.714211 1_555
O6 V0 2.007612 1_666
O7 V3 1.904949 1_555
O7 V2 1.979884 1_565
O7 V1 2.007904 1_665
