# generated using pymatgen
data_Na2Sc4Si3Sn4(S3O16)3
_symmetry_space_group_name_H-M   'P 1'
_cell_length_a   17.64964848
_cell_length_b   8.84109314
_cell_length_c   23.13384389
_cell_angle_alpha   89.85753179
_cell_angle_beta   89.67664635
_cell_angle_gamma   120.13109142
_symmetry_Int_Tables_number   1
_chemical_formula_structural   Na2Sc4Si3Sn4(S3O16)3
_chemical_formula_sum   'Na6 Sc12 Si9 Sn12 S27 O144'
_cell_volume   3121.98004423
_cell_formula_units_Z   3
loop_
 _symmetry_equiv_pos_site_id
 _symmetry_equiv_pos_as_xyz
  1  'x, y, z'
loop_
 _atom_site_type_symbol
 _atom_site_label
 _atom_site_symmetry_multiplicity
 _atom_site_fract_x
 _atom_site_fract_y
 _atom_site_fract_z
 _atom_site_occupancy
  Na  Na0  1  0.99462331  0.00864617  0.49949391  1
  Na  Na1  1  0.49563166  0.98179259  0.00596391  1
  Na  Na2  1  0.32714205  0.32019156  0.84100204  1
  Na  Na3  1  0.82800118  0.33046536  0.83199229  1
  Na  Na4  1  0.33113431  0.32890529  0.32984719  1
  Na  Na5  1  0.81756736  0.32161511  0.33538112  1
  Sc  Sc0  1  0.00678062  0.00382642  0.34935940  1
  Sc  Sc1  1  0.50771679  0.01054875  0.85078765  1
  Sc  Sc2  1  0.99869364  0.01027865  0.64360983  1
  Sc  Sc3  1  0.50415145  0.98318518  0.14752914  1
  Sc  Sc4  1  0.33059230  0.33323723  0.98143658  1
  Sc  Sc5  1  0.84034993  0.34675725  0.98418568  1
  Sc  Sc6  1  0.34072520  0.33074977  0.48159330  1
  Sc  Sc7  1  0.83015856  0.32688207  0.47850180  1
  Sc  Sc8  1  0.16510199  0.67465510  0.30584984  1
  Sc  Sc9  1  0.66720931  0.66273746  0.31015349  1
  Sc  Sc10  1  0.16901190  0.68319652  0.81497226  1
  Sc  Sc11  1  0.66365339  0.65341600  0.80673627  1
  Si  Si0  1  0.15046899  0.01314656  0.24892525  1
  Si  Si1  1  0.65041872  0.00130122  0.24852177  1
  Si  Si2  1  0.65076358  0.28854259  0.74886075  1
  Si  Si3  1  0.48141511  0.33584345  0.58361262  1
  Si  Si4  1  0.97773580  0.33643305  0.58125331  1
  Si  Si5  1  0.47652995  0.62353142  0.08059811  1
  Si  Si6  1  0.97834121  0.62393187  0.08532861  1
  Si  Si7  1  0.16996631  0.96599418  0.91528892  1
  Si  Si8  1  0.66836211  0.37658036  0.41426720  1
  Sn  Sn0  1  0.51363525  0.02028516  0.35260623  1
  Sn  Sn1  1  0.00392977  0.99722327  0.85459428  1
  Sn  Sn2  1  0.50461573  0.01864340  0.64473811  1
  Sn  Sn3  1  0.00383881  0.99025387  0.14580088  1
  Sn  Sn4  1  0.33591172  0.33550165  0.68143455  1
  Sn  Sn5  1  0.83375349  0.33520048  0.68171831  1
  Sn  Sn6  1  0.33590313  0.33494767  0.18349009  1
  Sn  Sn7  1  0.83205424  0.33144533  0.18484206  1
  Sn  Sn8  1  0.16054200  0.67493168  0.02126957  1
  Sn  Sn9  1  0.66250575  0.66736463  0.02193799  1
  Sn  Sn10  1  0.16338519  0.65965854  0.51949649  1
  Sn  Sn11  1  0.66001279  0.64862399  0.51722485  1
  S  S0  1  0.35715144  0.71083074  0.25283792  1
  S  S1  1  0.85638299  0.71109078  0.24955138  1
  S  S2  1  0.99840920  0.28524163  0.24892218  1
  S  S3  1  0.49688683  0.28577280  0.24923982  1
  S  S4  1  0.14905942  0.29258142  0.74824711  1
  S  S5  1  0.99869801  0.70854463  0.74954225  1
  S  S6  1  0.49533214  0.70730873  0.74885384  1
  S  S7  1  0.35444625  0.00207353  0.74929640  1
  S  S8  1  0.85820097  0.00416388  0.75255551  1
  S  S9  1  0.18781150  0.03991941  0.58192236  1
  S  S10  1  0.68627721  0.03291954  0.58240248  1
  S  S11  1  0.33393252  0.62810457  0.58369872  1
  S  S12  1  0.83288887  0.62798619  0.58205557  1
  S  S13  1  0.33384883  0.03962020  0.08240593  1
  S  S14  1  0.83493361  0.03966241  0.08324722  1
  S  S15  1  0.18603307  0.33837736  0.08258811  1
  S  S16  1  0.68718996  0.33619637  0.08062919  1
  S  S17  1  0.31143484  0.66930612  0.91690440  1
  S  S18  1  0.80913269  0.66743550  0.91595446  1
  S  S19  1  0.02022791  0.37179429  0.91448569  1
  S  S20  1  0.52271591  0.37622374  0.91647643  1
  S  S21  1  0.66757135  0.95754966  0.91580622  1
  S  S22  1  0.31032347  0.94990056  0.41575092  1
  S  S23  1  0.81253159  0.95423314  0.41751671  1
  S  S24  1  0.16706575  0.37542642  0.41643460  1
  S  S25  1  0.02296702  0.67006523  0.41641703  1
  S  S26  1  0.51940241  0.66931657  0.41523242  1
  O  O0  1  0.10621509  0.04651233  0.30604787  1
  O  O1  1  0.61179243  0.04775119  0.30653282  1
  O  O2  1  0.41139457  0.79221735  0.30551838  1
  O  O3  1  0.91165373  0.79504491  0.30035190  1
  O  O4  1  0.47618560  0.17340903  0.30296335  1
  O  O5  1  0.98296944  0.17361431  0.30031361  1
  O  O6  1  0.11151255  0.18114942  0.80157200  1
  O  O7  1  0.60604037  0.16539347  0.80592773  1
  O  O8  1  0.48036772  0.78787597  0.80012723  1
  O  O9  1  0.98041877  0.78465072  0.80295838  1
  O  O10  1  0.40976632  0.03223111  0.80019504  1
  O  O11  1  0.91438849  0.03501433  0.80543744  1
  O  O12  1  0.39339764  0.97650541  0.69581655  1
  O  O13  1  0.89921318  0.97884770  0.70124016  1
  O  O14  1  0.09639805  0.20619195  0.69749307  1
  O  O15  1  0.59134492  0.20562899  0.69199454  1
  O  O16  1  0.01018146  0.81606650  0.69883909  1
  O  O17  1  0.50643784  0.80800733  0.69493483  1
  O  O18  1  0.39479962  0.81488678  0.20040382  1
  O  O19  1  0.89447840  0.81778786  0.19588696  1
  O  O20  1  0.00954888  0.20577034  0.19512811  1
  O  O21  1  0.50555300  0.20157470  0.19786844  1
  O  O22  1  0.09179482  0.97718130  0.19167887  1
  O  O23  1  0.59205845  0.98042093  0.19239777  1
  O  O24  1  0.44056731  0.37347902  0.64303860  1
  O  O25  1  0.93779212  0.36874129  0.64230821  1
  O  O26  1  0.23914372  0.11490396  0.63646296  1
  O  O27  1  0.73777899  0.10741196  0.63690263  1
  O  O28  1  0.31079842  0.51494687  0.63764804  1
  O  O29  1  0.81468763  0.52108634  0.63661200  1
  O  O30  1  0.43640446  0.50637274  0.14040422  1
  O  O31  1  0.93353276  0.49919091  0.14229405  1
  O  O32  1  0.31432120  0.11082657  0.13566346  1
  O  O33  1  0.81345145  0.10860509  0.13551271  1
  O  O34  1  0.23824730  0.36684669  0.13594678  1
  O  O35  1  0.73903726  0.36477701  0.13386778  1
  O  O36  1  0.22415070  0.30030001  0.03236393  1
  O  O37  1  0.72803246  0.30462346  0.02972903  1
  O  O38  1  0.41744968  0.52628912  0.02513377  1
  O  O39  1  0.91855358  0.53098715  0.02862475  1
  O  O40  1  0.34380731  0.14599465  0.03104432  1
  O  O41  1  0.84751296  0.14699046  0.03162588  1
  O  O42  1  0.22809765  0.15470578  0.53187637  1
  O  O43  1  0.72522965  0.15042968  0.53327010  1
  O  O44  1  0.34688659  0.54415951  0.53362440  1
  O  O45  1  0.84637681  0.54408357  0.53216551  1
  O  O46  1  0.41761481  0.30643614  0.52946253  1
  O  O47  1  0.91678269  0.30474974  0.52671663  1
  O  O48  1  0.27041880  0.69002058  0.97085737  1
  O  O49  1  0.77046545  0.69374873  0.97016293  1
  O  O50  1  0.07291395  0.44276366  0.96740765  1
  O  O51  1  0.57821791  0.45261632  0.96916765  1
  O  O52  1  0.15073690  0.84228052  0.97213943  1
  O  O53  1  0.65520055  0.85231317  0.97002824  1
  O  O54  1  0.27151956  0.84640125  0.47143899  1
  O  O55  1  0.77224782  0.85337071  0.47285954  1
  O  O56  1  0.15403971  0.45402746  0.47129263  1
  O  O57  1  0.65183854  0.45523785  0.47454409  1
  O  O58  1  0.07784536  0.70520541  0.47020144  1
  O  O59  1  0.57193408  0.70367397  0.46909979  1
  O  O60  1  0.06659334  0.64722092  0.36611398  1
  O  O61  1  0.56102850  0.64156426  0.36509116  1
  O  O62  1  0.25342769  0.86374701  0.36669588  1
  O  O63  1  0.75893321  0.87069814  0.36690020  1
  O  O64  1  0.17780904  0.48311467  0.36592015  1
  O  O65  1  0.68176903  0.49714323  0.35875595  1
  O  O66  1  0.06240908  0.47951578  0.86296654  1
  O  O67  1  0.56575456  0.48528860  0.86532127  1
  O  O68  1  0.18119118  0.87050557  0.85832092  1
  O  O69  1  0.67774951  0.87190687  0.86482869  1
  O  O70  1  0.25750442  0.64546480  0.86535510  1
  O  O71  1  0.75531072  0.64499996  0.86544179  1
  O  O72  1  0.01287230  0.82628642  0.41149340  1
  O  O73  1  0.50498039  0.81970498  0.40858393  1
  O  O74  1  0.39695841  0.96602259  0.40884622  1
  O  O75  1  0.90054422  0.97137072  0.41285055  1
  O  O76  1  0.08611145  0.20090557  0.41363593  1
  O  O77  1  0.57602331  0.18664738  0.41313924  1
  O  O78  1  0.00784361  0.19279795  0.90668327  1
  O  O79  1  0.51252249  0.19942813  0.91105227  1
  O  O80  1  0.07937100  0.97555128  0.90883499  1
  O  O81  1  0.58618612  0.96913123  0.91288517  1
  O  O82  1  0.39905988  0.82854445  0.91056268  1
  O  O83  1  0.89703951  0.82811350  0.90945484  1
  O  O84  1  0.48183979  0.15200989  0.58783507  1
  O  O85  1  0.99051845  0.16564757  0.59068498  1
  O  O86  1  0.09919154  0.01353101  0.59013909  1
  O  O87  1  0.59599392  0.00310462  0.59083364  1
  O  O88  1  0.41437994  0.79645768  0.59449734  1
  O  O89  1  0.91402165  0.79984540  0.59011935  1
  O  O90  1  0.48622723  0.81572974  0.08515576  1
  O  O91  1  0.98227728  0.81141780  0.08868213  1
  O  O92  1  0.41371446  0.02985726  0.08935842  1
  O  O93  1  0.91517058  0.03025653  0.09250661  1
  O  O94  1  0.09573791  0.18838226  0.09055862  1
  O  O95  1  0.59786262  0.18794533  0.08676925  1
  O  O96  1  0.34357214  0.16134903  0.74409614  1
  O  O97  1  0.85046449  0.16374174  0.74750368  1
  O  O98  1  0.23908002  0.30798271  0.74204169  1
  O  O99  1  0.74919286  0.30855498  0.74234046  1
  O  O100  1  0.41327238  0.52812933  0.74505770  1
  O  O101  1  0.91841987  0.53137858  0.74586630  1
  O  O102  1  0.34886844  0.53403894  0.24753683  1
  O  O103  1  0.85062246  0.53706495  0.24439718  1
  O  O104  1  0.41712164  0.30692284  0.24616902  1
  O  O105  1  0.91940107  0.30464972  0.24480014  1
  O  O106  1  0.24858530  0.18953529  0.24249607  1
  O  O107  1  0.74830584  0.18453188  0.24328198  1
  O  O108  1  0.32057653  0.51272879  0.92119809  1
  O  O109  1  0.81877220  0.51106102  0.92177959  1
  O  O110  1  0.43658699  0.36108244  0.92272335  1
  O  O111  1  0.93201186  0.35213072  0.92093676  1
  O  O112  1  0.25520304  0.15782357  0.92021965  1
  O  O113  1  0.74539177  0.13303505  0.92217903  1
  O  O114  1  0.31768862  0.12418279  0.42264991  1
  O  O115  1  0.82210373  0.12969783  0.42247451  1
  O  O116  1  0.24513808  0.35699116  0.42363781  1
  O  O117  1  0.75372806  0.35253954  0.42184132  1
  O  O118  1  0.43129980  0.50988571  0.42282267  1
  O  O119  1  0.93710618  0.51244046  0.42345317  1
  O  O120  1  0.18132191  0.49936729  0.07307752  1
  O  O121  1  0.68506182  0.50156193  0.07265240  1
  O  O122  1  0.07217657  0.63082093  0.07996615  1
  O  O123  1  0.57432237  0.64170761  0.07649978  1
  O  O124  1  0.25692661  0.85954449  0.07668110  1
  O  O125  1  0.75910380  0.85982681  0.07473342  1
  O  O126  1  0.18338607  0.86941259  0.57433646  1
  O  O127  1  0.68112103  0.86289721  0.57340735  1
  O  O128  1  0.25845043  0.65612557  0.57568196  1
  O  O129  1  0.75787762  0.65679093  0.57605474  1
  O  O130  1  0.07665586  0.50969775  0.57630017  1
  O  O131  1  0.57501353  0.51500202  0.57844120  1
  O  O132  1  0.15954156  0.84235974  0.25995173  1
  O  O133  1  0.66175623  0.83632505  0.26077663  1
  O  O134  1  0.26925742  0.68553793  0.26163880  1
  O  O135  1  0.76961196  0.68970236  0.25535456  1
  O  O136  1  0.07693136  0.45650112  0.25643351  1
  O  O137  1  0.57413563  0.45730163  0.25732268  1
  O  O138  1  0.15970909  0.46461114  0.75716956  1
  O  O139  1  0.66035402  0.47779773  0.76014836  1
  O  O140  1  0.07536126  0.68942500  0.75841373  1
  O  O141  1  0.57213155  0.68769539  0.75621245  1
  O  O142  1  0.26791809  0.84608792  0.75562567  1
  O  O143  1  0.77202664  0.85144611  0.76176768  1
loop_
_geom_bond_atom_site_label_1
_geom_bond_atom_site_label_2
_geom_bond_distance
_geom_bond_site_symmetry_2
Na0 O75 2.524838 1_545
Na0 O85 2.548761 1_555
Na0 O76 2.575492 1_655
Na0 O89 2.671611 1_545
Na0 O72 2.716216 1_645
Na0 O86 2.787378 1_655
Na1 O90 2.297367 1_555
Na1 O92 2.565601 1_565
Na1 O95 2.612541 1_565
Na1 O81 2.710256 1_554
Na1 O82 2.711192 1_554
Na1 O79 2.829816 1_564
Na2 O112 2.272014 1_555
Na2 O108 2.562087 1_555
Na2 O110 2.603774 1_555
Na2 O96 2.738454 1_555
Na2 O98 2.746160 1_555
Na2 O100 2.784413 1_555
Na3 O99 2.457179 1_555
Na3 O97 2.596627 1_555
Na3 O101 2.602366 1_555
Na3 O113 2.630214 1_555
Na3 O109 2.676583 1_555
Na3 O111 2.707781 1_555
Na4 O106 2.442902 1_555
Na4 O104 2.520549 1_555
Na4 O102 2.533601 1_555
Na4 O116 2.723423 1_555
Na4 O114 2.735894 1_555
Na4 O118 2.744451 1_555
Na5 O117 2.373075 1_555
Na5 O107 2.461204 1_555
Na5 O115 2.658204 1_555
Na5 O103 2.692472 1_555
Na5 O105 2.806004 1_555
Na5 O119 2.817955 1_555
O0 Si0 1.632471 1_555
O0 Sc0 1.881397 1_555
O1 Si1 1.645577 1_555
O1 Sn0 1.936976 1_555
O2 S0 1.498489 1_555
O2 Sn0 2.211056 1_565
O3 S1 1.474453 1_555
O3 Sc0 2.105216 1_665
O4 S3 1.513056 1_555
O4 Sn0 2.118419 1_555
O5 S2 1.477224 1_555
O5 Sc0 2.085083 1_655
O6 S4 1.503598 1_555
O6 Sn1 2.148987 1_545
O7 Si2 1.633901 1_555
O7 Sc1 1.884184 1_555
O8 S6 1.474323 1_555
O8 Sc1 2.132134 1_565
O9 S5 1.517039 1_555
O9 Sn1 2.089249 1_655
O10 S7 1.471070 1_555
O10 Sc1 2.179391 1_555
O11 S8 1.515999 1_555
O11 Sn1 2.109719 1_645
O12 S7 1.483976 1_565
O12 Sn2 2.150748 1_565
O13 S8 1.462051 1_565
O13 Sc2 2.102233 1_565
O14 S4 1.459420 1_555
O14 Sc2 2.136341 1_455
O15 Si2 1.617517 1_555
O15 Sn2 1.938693 1_555
O16 S5 1.455648 1_455
O16 Sc2 2.227852 1_465
O17 S6 1.484399 1_555
O17 Sn2 2.206196 1_565
O18 S0 1.459754 1_555
O18 Sc3 2.125165 1_555
O19 S1 1.493703 1_555
O19 Sn3 2.098643 1_655
O20 S2 1.490398 1_455
O20 Sn3 2.182248 1_545
O21 S3 1.451388 1_555
O21 Sc3 2.246847 1_545
O22 Si0 1.616898 1_565
O22 Sn3 1.935931 1_555
O23 Si1 1.614370 1_565
O23 Sc3 1.881852 1_555
O24 Si3 1.659021 1_555
O24 Sn4 1.915977 1_555
O25 Si4 1.663284 1_555
O25 Sn5 1.929774 1_555
O26 S9 1.505442 1_555
O26 Sn4 2.118744 1_555
O27 S10 1.505210 1_555
O27 Sn5 2.146004 1_555
O28 S11 1.517619 1_555
O28 Sn4 2.107735 1_555
O29 S12 1.507981 1_555
O29 Sn5 2.110360 1_555
O30 Si5 1.653480 1_555
O30 Sn6 1.926246 1_555
O31 Si6 1.638218 1_555
O31 Sn7 1.918925 1_555
O32 S13 1.499987 1_555
O32 Sn6 2.133868 1_555
O33 S14 1.485839 1_555
O33 Sn7 2.158140 1_555
O34 S15 1.489249 1_555
O34 Sn6 2.183544 1_555
O35 S16 1.483317 1_555
O35 Sn7 2.162983 1_555
O36 S15 1.461644 1_555
O36 Sc4 2.103867 1_554
O37 S16 1.475861 1_555
O37 Sc5 2.100402 1_554
O38 Si5 1.610393 1_555
O38 Sc4 1.919456 1_554
O39 Si6 1.630936 1_555
O39 Sc5 1.839091 1_554
O40 S13 1.467413 1_555
O40 Sc4 2.119691 1_554
O41 S14 1.468222 1_555
O41 Sc5 2.134441 1_554
O42 S9 1.461605 1_555
O42 Sc6 2.141449 1_555
O43 S10 1.453319 1_555
O43 Sc7 2.128819 1_555
O44 S11 1.454869 1_555
O44 Sc6 2.197128 1_555
O45 S12 1.455139 1_555
O45 Sc7 2.185106 1_555
O46 Si3 1.621254 1_555
O46 Sc6 1.850092 1_555
O47 Si4 1.594394 1_555
O47 Sc7 1.984539 1_555
O48 S17 1.496493 1_555
O48 Sn8 2.202881 1_556
O49 S18 1.497900 1_555
O49 Sn9 2.155549 1_556
O50 S19 1.479246 1_555
O50 Sn8 2.237217 1_556
O51 S20 1.501645 1_555
O51 Sn9 2.122381 1_556
O52 Si7 1.629817 1_555
O52 Sn8 1.939514 1_556
O53 S21 1.507949 1_555
O53 Sn9 2.082323 1_556
O54 S22 1.523493 1_555
O54 Sn10 2.099469 1_555
O55 S23 1.512406 1_555
O55 Sn11 2.149871 1_555
O56 S24 1.519150 1_555
O56 Sn10 2.070503 1_555
O57 Si8 1.648318 1_555
O57 Sn11 1.918671 1_555
O58 S25 1.515330 1_555
O58 Sn10 2.090329 1_555
O59 S26 1.495658 1_555
O59 Sn11 2.160891 1_555
O60 S25 1.461186 1_555
O60 Sc8 2.138440 1_555
O61 S26 1.455420 1_555
O61 Sc9 2.186799 1_555
O62 S22 1.457966 1_555
O62 Sc8 2.150906 1_555
O63 S23 1.458376 1_555
O63 Sc9 2.184568 1_555
O64 S24 1.455591 1_555
O64 Sc8 2.285225 1_555
O65 Si8 1.605563 1_555
O65 Sc9 1.961225 1_555
O66 S19 1.467737 1_555
O66 Sc10 2.140202 1_555
O67 S20 1.468363 1_555
O67 Sc11 2.101637 1_555
O68 Si7 1.630735 1_555
O68 Sc10 1.856759 1_555
O69 S21 1.461149 1_555
O69 Sc11 2.265748 1_555
O70 S17 1.478250 1_555
O70 Sc10 2.109715 1_555
O71 S18 1.460053 1_555
O71 Sc11 2.147577 1_555
O72 S25 1.482848 1_555
O72 Sc0 2.168276 1_565
O73 S26 1.481717 1_555
O73 Sn0 2.135288 1_565
O74 S22 1.470450 1_555
O74 Sn0 2.266809 1_565
O75 S23 1.486394 1_555
O75 Sc0 2.276425 1_665
O76 S24 1.488162 1_555
O76 Sc0 2.189644 1_555
O77 Si8 1.652176 1_555
O77 Sn0 1.933516 1_555
O78 S19 1.496438 1_555
O78 Sn1 2.082785 1_545
O79 S20 1.486672 1_555
O79 Sc1 2.147122 1_555
O80 Si7 1.650584 1_555
O80 Sn1 1.912575 1_555
O81 S21 1.492340 1_555
O81 Sc1 2.155195 1_565
O82 S17 1.485211 1_555
O82 Sc1 2.245026 1_565
O83 S18 1.493781 1_555
O83 Sn1 2.130015 1_655
O84 Si3 1.631752 1_555
O84 Sn2 1.938781 1_555
O85 Si4 1.649035 1_555
O85 Sc2 1.897193 1_555
O86 S9 1.472098 1_555
O86 Sc2 2.144996 1_455
O87 S10 1.490372 1_555
O87 Sn2 2.091799 1_555
O88 S11 1.475791 1_555
O88 Sn2 2.153463 1_565
O89 S12 1.487958 1_555
O89 Sc2 2.113499 1_565
O90 Si5 1.623869 1_555
O90 Sc3 1.979786 1_555
O91 Si6 1.625887 1_555
O91 Sn3 1.950062 1_655
O92 S13 1.464559 1_555
O92 Sc3 2.282921 1_545
O93 S14 1.476435 1_555
O93 Sn3 2.160906 1_645
O94 S15 1.485292 1_555
O94 Sn3 2.108417 1_545
O95 S16 1.464816 1_555
O95 Sc3 2.223424 1_545
O96 S7 1.518222 1_555
O96 Sn4 2.165737 1_555
O97 S8 1.488472 1_555
O97 Sn5 2.267915 1_555
O98 S4 1.530903 1_555
O98 Sn4 2.121238 1_555
O99 Si2 1.661441 1_555
O99 Sn5 1.967611 1_555
O100 S6 1.521037 1_555
O100 Sn4 2.152114 1_555
O101 S5 1.497372 1_555
O101 Sn5 2.208902 1_555
O102 S0 1.500410 1_555
O102 Sn6 2.226725 1_555
O103 S1 1.495252 1_555
O103 Sn7 2.174801 1_555
O104 S3 1.512397 1_555
O104 Sn6 2.144065 1_555
O105 S2 1.491547 1_555
O105 Sn7 2.178505 1_555
O106 Si0 1.654568 1_555
O106 Sn6 1.967124 1_555
O107 Si1 1.676494 1_555
O107 Sn7 1.934138 1_555
O108 S17 1.475115 1_555
O108 Sc4 2.182865 1_555
O109 S18 1.481198 1_555
O109 Sc5 2.211468 1_555
O110 S20 1.463820 1_555
O110 Sc4 2.216426 1_555
O111 S19 1.483977 1_655
O111 Sc5 2.157832 1_555
O112 Si7 1.610572 1_545
O112 Sc4 2.035106 1_555
O113 S21 1.476266 1_545
O113 Sc5 2.301773 1_555
O114 S22 1.488939 1_545
O114 Sc6 2.152472 1_555
O115 S23 1.478583 1_545
O115 Sc7 2.122223 1_555
O116 S24 1.476825 1_555
O116 Sc6 2.261541 1_555
O117 Si8 1.634094 1_555
O117 Sc7 1.978637 1_555
O118 S26 1.493587 1_555
O118 Sc6 2.082126 1_555
O119 S25 1.463184 1_655
O119 Sc7 2.174782 1_555
O120 S15 1.482784 1_555
O120 Sn8 2.132477 1_555
O121 S16 1.492251 1_555
O121 Sn9 2.065511 1_555
O122 Si6 1.630442 1_455
O122 Sn8 1.947089 1_555
O123 Si5 1.653333 1_555
O123 Sn9 1.920682 1_555
O124 S13 1.492809 1_565
O124 Sn8 2.109168 1_555
O125 S14 1.492018 1_565
O125 Sn9 2.101223 1_555
O126 S9 1.480748 1_565
O126 Sn10 2.129000 1_555
O127 S10 1.474983 1_565
O127 Sn11 2.173935 1_555
O128 S11 1.484763 1_555
O128 Sn10 2.140722 1_555
O129 S12 1.475563 1_555
O129 Sn11 2.177782 1_555
O130 Si4 1.649148 1_455
O130 Sn10 1.938788 1_555
O131 Si3 1.619280 1_555
O131 Sn11 1.959635 1_555
O132 Si0 1.616144 1_565
O132 Sc8 1.864098 1_555
O133 Si1 1.593563 1_565
O133 Sc9 1.951971 1_555
O134 S0 1.464897 1_555
O134 Sc8 2.058010 1_555
O135 S1 1.451211 1_555
O135 Sc9 2.114371 1_555
O136 S2 1.463133 1_455
O136 Sc8 2.113353 1_555
O137 S3 1.456750 1_555
O137 Sc9 2.128230 1_555
O138 S4 1.451260 1_555
O138 Sc10 2.290527 1_555
O139 Si2 1.617046 1_555
O139 Sc11 1.869212 1_555
O140 S5 1.460859 1_455
O140 Sc10 2.136001 1_555
O141 S6 1.461101 1_555
O141 Sc11 2.139695 1_555
O142 S7 1.462064 1_565
O142 Sc10 2.108409 1_555
O143 S8 1.454277 1_565
O143 Sc11 2.100598 1_555
