# generated using pymatgen
data_NaMgTiP(SO6)2
_symmetry_space_group_name_H-M   'P 1'
_cell_length_a   8.60140983
_cell_length_b   8.60527937
_cell_length_c   22.48032739
_cell_angle_alpha   89.70183541
_cell_angle_beta   90.00000000
_cell_angle_gamma   119.98512616
_symmetry_Int_Tables_number   1
_chemical_formula_structural   NaMgTiP(SO6)2
_chemical_formula_sum   'Na6 Mg6 Ti6 P6 S12 O72'
_cell_volume   1441.20284987
_cell_formula_units_Z   6
loop_
 _symmetry_equiv_pos_site_id
 _symmetry_equiv_pos_as_xyz
  1  'x, y, z'
loop_
 _atom_site_type_symbol
 _atom_site_label
 _atom_site_symmetry_multiplicity
 _atom_site_fract_x
 _atom_site_fract_y
 _atom_site_fract_z
 _atom_site_occupancy
  Na  Na0  1  0.99190111  0.99350289  0.50282630  1
  Na  Na1  1  0.00160178  0.99350289  0.00282630  1
  Na  Na2  1  0.66185710  0.32538461  0.83630751  1
  Na  Na3  1  0.66352851  0.32538461  0.33630751  1
  Na  Na4  1  0.33098051  0.67153720  0.16988703  1
  Na  Na5  1  0.34055569  0.67153720  0.66988703  1
  Mg  Mg0  1  0.99267152  0.99585898  0.64712926  1
  Mg  Mg1  1  0.00318746  0.99585898  0.14712926  1
  Mg  Mg2  1  0.66523221  0.33418828  0.98060435  1
  Mg  Mg3  1  0.66895707  0.33418828  0.48060435  1
  Mg  Mg4  1  0.33556026  0.67461671  0.31409770  1
  Mg  Mg5  1  0.33905544  0.67461671  0.81409770  1
  Ti  Ti0  1  0.00667562  0.00022302  0.35278601  1
  Ti  Ti1  1  0.99354740  0.00022302  0.85278601  1
  Ti  Ti2  1  0.66774385  0.33430621  0.68603985  1
  Ti  Ti3  1  0.66656335  0.33430621  0.18603985  1
  Ti  Ti4  1  0.31969493  0.67618333  0.01960364  1
  Ti  Ti5  1  0.35648740  0.67618333  0.51960364  1
  P  P0  1  0.29105929  0.99890177  0.24771851  1
  P  P1  1  0.70784248  0.99890177  0.74771851  1
  P  P2  1  0.67230621  0.62262312  0.58140252  1
  P  P3  1  0.95031790  0.62262312  0.08140252  1
  P  P4  1  0.33409235  0.96293630  0.91346564  1
  P  P5  1  0.62884295  0.96293630  0.41346564  1
  S  S0  1  0.70940672  0.71015414  0.24926393  1
  S  S1  1  0.00122279  0.28973477  0.24906414  1
  S  S2  1  0.28851198  0.28973477  0.74906414  1
  S  S3  1  0.00074742  0.71015414  0.74926393  1
  S  S4  1  0.95948426  0.33531997  0.58228284  1
  S  S5  1  0.37514090  0.04357973  0.58288467  1
  S  S6  1  0.66843982  0.04357973  0.08288467  1
  S  S7  1  0.37583671  0.33531997  0.08228284  1
  S  S8  1  0.62040213  0.66513830  0.91627801  1
  S  S9  1  0.04414869  0.37802357  0.91555240  1
  S  S10  1  0.33387388  0.37802357  0.41555240  1
  S  S11  1  0.04473516  0.66513830  0.41627801  1
  O  O0  1  0.19783299  0.03017039  0.30528142  1
  O  O1  1  0.82350287  0.79321627  0.30361089  1
  O  O2  1  0.96847634  0.17511882  0.30404942  1
  O  O3  1  0.20664248  0.17511882  0.80404942  1
  O  O4  1  0.96971340  0.79321627  0.80361089  1
  O  O5  1  0.83233740  0.03017039  0.80528142  1
  O  O6  1  0.79797609  0.97724894  0.69420703  1
  O  O7  1  0.18463269  0.20831514  0.69586370  1
  O  O8  1  0.02913181  0.81776896  0.69604197  1
  O  O9  1  0.78863714  0.81776896  0.19604197  1
  O  O10  1  0.02368245  0.20831514  0.19586370  1
  O  O11  1  0.17927284  0.97724894  0.19420703  1
  O  O12  1  0.87106746  0.36180296  0.63707212  1
  O  O13  1  0.49028487  0.12426893  0.63743782  1
  O  O14  1  0.63725741  0.49967231  0.63869586  1
  O  O15  1  0.86241589  0.49967231  0.13869586  1
  O  O16  1  0.63398506  0.12426893  0.13743782  1
  O  O17  1  0.49073650  0.36180296  0.13707212  1
  O  O18  1  0.45653751  0.30631158  0.02981062  1
  O  O19  1  0.84423641  0.53465949  0.02672518  1
  O  O20  1  0.69224319  0.14895200  0.02944835  1
  O  O21  1  0.45670981  0.14895200  0.52944835  1
  O  O22  1  0.69042408  0.53465949  0.52672518  1
  O  O23  1  0.84977506  0.30631158  0.52981062  1
  O  O24  1  0.53946165  0.69646197  0.97043811  1
  O  O25  1  0.15752443  0.45943592  0.97035488  1
  O  O26  1  0.30077691  0.83651311  0.97206860  1
  O  O27  1  0.53573520  0.83651311  0.47206860  1
  O  O28  1  0.30191049  0.45943592  0.47035488  1
  O  O29  1  0.15699932  0.69646197  0.47043811  1
  O  O30  1  0.12319518  0.63940541  0.36274583  1
  O  O31  1  0.51317052  0.87242950  0.36112934  1
  O  O32  1  0.35595867  0.48282821  0.36226645  1
  O  O33  1  0.12686854  0.48282821  0.86226645  1
  O  O34  1  0.35925798  0.87242950  0.86112934  1
  O  O35  1  0.51620923  0.63940541  0.86274583  1
  O  O36  1  0.02960928  0.83390283  0.41034207  1
  O  O37  1  0.81541647  0.97221642  0.40848877  1
  O  O38  1  0.16528023  0.19590534  0.41126347  1
  O  O39  1  0.03062510  0.19590534  0.91126347  1
  O  O40  1  0.15679996  0.97221642  0.90848877  1
  O  O41  1  0.80429355  0.83390283  0.91034207  1
  O  O42  1  0.98455687  0.18079985  0.59040952  1
  O  O43  1  0.19786568  0.02282415  0.59145427  1
  O  O44  1  0.82834721  0.80976426  0.58943450  1
  O  O45  1  0.98141706  0.80976426  0.08943450  1
  O  O46  1  0.82495847  0.02282415  0.09145427  1
  O  O47  1  0.19624298  0.18079985  0.09040952  1
  O  O48  1  0.69566968  0.17628697  0.74202310  1
  O  O49  1  0.47082447  0.30406851  0.74431146  1
  O  O50  1  0.83120457  0.52929198  0.74431754  1
  O  O51  1  0.69808842  0.52929198  0.24431754  1
  O  O52  1  0.83324504  0.30406851  0.24431146  1
  O  O53  1  0.48061829  0.17628697  0.24202310  1
  O  O54  1  0.64854887  0.51189356  0.92323188  1
  O  O55  1  0.86477008  0.35368978  0.92296592  1
  O  O56  1  0.49457179  0.14589100  0.92477678  1
  O  O57  1  0.65132021  0.14589100  0.42477678  1
  O  O58  1  0.48892070  0.35368978  0.42296592  1
  O  O59  1  0.86334569  0.51189356  0.42323188  1
  O  O60  1  0.36626224  0.50363051  0.07759823  1
  O  O61  1  0.14244459  0.63408008  0.07608751  1
  O  O62  1  0.50178808  0.86058574  0.07780500  1
  O  O63  1  0.35879666  0.86058574  0.57780500  1
  O  O64  1  0.49163448  0.63408008  0.57608751  1
  O  O65  1  0.13736726  0.50363051  0.57759823  1
  O  O66  1  0.31621250  0.83907036  0.25663390  1
  O  O67  1  0.52874960  0.68155909  0.25705684  1
  O  O68  1  0.15748740  0.46774680  0.25735731  1
  O  O69  1  0.31025839  0.46774680  0.75735731  1
  O  O70  1  0.15280849  0.68155909  0.75705684  1
  O  O71  1  0.52285686  0.83907036  0.75663390  1
loop_
_geom_bond_atom_site_label_1
_geom_bond_atom_site_label_2
_geom_bond_distance
_geom_bond_site_symmetry_2
Na0 O44 2.452427 1_555
Na0 O37 2.561555 1_555
Na0 O42 2.571588 1_565
Na0 O43 2.594265 1_665
Na0 O36 2.605564 1_655
Na0 O38 2.619327 1_665
Na1 O45 2.452427 1_455
Na1 O40 2.561555 1_554
Na1 O47 2.571588 1_565
Na1 O46 2.594265 1_465
Na1 O41 2.605564 1_454
Na1 O39 2.619327 1_564
Na2 O56 2.481551 1_555
Na2 O55 2.545717 1_555
Na2 O54 2.573664 1_555
Na2 O48 2.573810 1_555
Na2 O49 2.591006 1_555
Na2 O50 2.623854 1_555
Na3 O57 2.481551 1_555
Na3 O58 2.545717 1_555
Na3 O59 2.573664 1_555
Na3 O53 2.573810 1_555
Na3 O52 2.591006 1_555
Na3 O51 2.623854 1_555
Na4 O66 2.471788 1_555
Na4 O68 2.552874 1_555
Na4 O67 2.568332 1_555
Na4 O61 2.581608 1_555
Na4 O62 2.581861 1_555
Na4 O60 2.636964 1_555
Na5 O71 2.471788 1_555
Na5 O69 2.552874 1_555
Na5 O70 2.568332 1_555
Na5 O64 2.581608 1_555
Na5 O63 2.581861 1_555
Na5 O65 2.636964 1_555
Mg0 O6 1.918420 1_555
Mg0 O44 2.000905 1_555
Mg0 O8 2.029500 1_655
Mg0 O42 2.062372 1_565
Mg0 O7 2.067007 1_665
Mg0 O43 2.079188 1_665
Mg1 O11 1.918420 1_555
Mg1 O45 2.000905 1_455
Mg1 O9 2.029500 1_455
Mg1 O47 2.062372 1_565
Mg1 O10 2.067007 1_565
Mg1 O46 2.079188 1_465
Mg2 O19 1.945585 1_556
Mg2 O56 1.999774 1_555
Mg2 O18 2.017487 1_556
Mg2 O20 2.037761 1_556
Mg2 O54 2.054588 1_555
Mg2 O55 2.088692 1_555
Mg3 O22 1.945585 1_555
Mg3 O57 1.999774 1_555
Mg3 O23 2.017487 1_555
Mg3 O21 2.037761 1_555
Mg3 O59 2.054588 1_555
Mg3 O58 2.088692 1_555
Mg4 O31 1.941319 1_555
Mg4 O66 1.978772 1_555
Mg4 O30 2.016869 1_555
Mg4 O32 2.048899 1_555
Mg4 O67 2.075832 1_555
Mg4 O68 2.107195 1_555
Mg5 O34 1.941319 1_555
Mg5 O71 1.978772 1_555
Mg5 O35 2.016869 1_555
Mg5 O33 2.048899 1_555
Mg5 O70 2.075832 1_555
Mg5 O69 2.107195 1_555
O0 P0 1.615309 1_545
O0 Ti0 1.866530 1_555
O1 S0 1.508178 1_555
O1 Ti0 2.023062 1_665
O2 S1 1.513165 1_655
O2 Ti0 2.012599 1_655
O3 S2 1.513165 1_555
O3 Ti1 2.012599 1_455
O4 S3 1.508178 1_655
O4 Ti1 2.023062 1_565
O5 P1 1.615309 1_545
O5 Ti1 1.866530 1_555
O6 P1 1.493184 1_555
O7 S2 1.450019 1_555
O8 S3 1.452979 1_555
O9 S0 1.452979 1_555
O10 S1 1.450019 1_555
O11 P0 1.493184 1_555
O12 S4 1.524305 1_555
O12 Ti2 1.977367 1_555
O13 S5 1.512777 1_555
O13 Ti2 2.013301 1_555
O14 P2 1.592538 1_555
O14 Ti2 1.893074 1_555
O15 P3 1.592538 1_555
O15 Ti3 1.893074 1_555
O16 S6 1.512777 1_555
O16 Ti3 2.013301 1_555
O17 S7 1.524305 1_555
O17 Ti3 1.977367 1_555
O18 S7 1.453219 1_555
O19 P3 1.495226 1_555
O20 S6 1.452675 1_555
O21 S5 1.452675 1_555
O22 P2 1.495226 1_555
O23 S4 1.453219 1_555
O24 S8 1.493567 1_555
O24 Ti4 2.119804 1_556
O25 S9 1.511843 1_555
O25 Ti4 2.017740 1_556
O26 P4 1.635454 1_555
O26 Ti4 1.811346 1_556
O27 P5 1.635454 1_555
O27 Ti5 1.811346 1_555
O28 S10 1.511843 1_555
O28 Ti5 2.017740 1_555
O29 S11 1.493567 1_555
O29 Ti5 2.119804 1_555
O30 S11 1.450810 1_555
O31 P5 1.488532 1_555
O32 S10 1.449794 1_555
O33 S9 1.449794 1_555
O34 P4 1.488532 1_555
O35 S8 1.450810 1_555
O36 S11 1.526648 1_555
O36 Ti0 2.006087 1_565
O37 P5 1.570373 1_555
O37 Ti0 1.983189 1_665
O38 S10 1.515988 1_555
O38 Ti0 2.037556 1_555
O39 S9 1.515992 1_555
O39 Ti1 2.037557 1_455
O40 P4 1.570364 1_555
O40 Ti1 1.983189 1_465
O41 S8 1.526653 1_555
O41 Ti1 2.006087 1_565
O42 S4 1.460158 1_555
O43 S5 1.456537 1_555
O44 P2 1.506647 1_555
O45 P3 1.506650 1_555
O46 S6 1.456529 1_555
O47 S7 1.460163 1_555
O48 P1 1.585913 1_545
O48 Ti2 1.949178 1_555
O49 S2 1.514012 1_555
O49 Ti2 2.051473 1_555
O50 S3 1.514750 1_655
O50 Ti2 2.042882 1_555
O51 S0 1.514754 1_555
O51 Ti3 2.042882 1_555
O52 S1 1.514003 1_655
O52 Ti3 2.051473 1_555
O53 P0 1.585918 1_545
O53 Ti3 1.949178 1_555
O54 S8 1.462542 1_555
O55 S9 1.459071 1_655
O56 P4 1.510178 1_545
O57 P5 1.510171 1_545
O58 S10 1.459088 1_555
O59 S11 1.462532 1_655
O60 S7 1.494408 1_555
O60 Ti4 2.153911 1_555
O61 P3 1.609962 1_455
O61 Ti4 1.873791 1_555
O62 S6 1.514313 1_565
O62 Ti4 2.054365 1_555
O63 S5 1.514306 1_565
O63 Ti5 2.054365 1_555
O64 P2 1.609979 1_555
O64 Ti5 1.873791 1_555
O65 S4 1.494398 1_455
O65 Ti5 2.153911 1_555
O66 P0 1.507731 1_555
O67 S0 1.457127 1_555
O68 S1 1.460428 1_555
O69 S2 1.460431 1_555
O70 S3 1.457119 1_555
O71 P1 1.507736 1_555
