# generated using pymatgen
data_Na6CaSn7(PO4)12
_symmetry_space_group_name_H-M   'P 1'
_cell_length_a   17.67927793
_cell_length_b   8.83210709
_cell_length_c   22.84953597
_cell_angle_alpha   90.04191138
_cell_angle_beta   89.98173865
_cell_angle_gamma   119.96644867
_symmetry_Int_Tables_number   1
_chemical_formula_structural   Na6CaSn7(PO4)12
_chemical_formula_sum   'Na18 Ca3 Sn21 P36 O144'
_cell_volume   3090.88949395
_cell_formula_units_Z   3
loop_
 _symmetry_equiv_pos_site_id
 _symmetry_equiv_pos_as_xyz
  1  'x, y, z'
loop_
 _atom_site_type_symbol
 _atom_site_label
 _atom_site_symmetry_multiplicity
 _atom_site_fract_x
 _atom_site_fract_y
 _atom_site_fract_z
 _atom_site_occupancy
  Na  Na0  1  0.68659644  0.36626145  0.24653884  1
  Na  Na1  1  0.99600834  0.62715184  0.24638147  1
  Na  Na2  1  0.99459261  0.36213758  0.74342711  1
  Na  Na3  1  0.49477804  0.36242502  0.74329616  1
  Na  Na4  1  0.18698689  0.00729278  0.74346870  1
  Na  Na5  1  0.68713748  0.00748299  0.74360088  1
  Na  Na6  1  0.99962382  0.99982302  0.50088393  1
  Na  Na7  1  0.50013272  0.99966008  0.50076356  1
  Na  Na8  1  0.99853087  0.99782796  0.00199018  1
  Na  Na9  1  0.50133068  0.00202097  0.00190036  1
  Na  Na10  1  0.33282150  0.34442016  0.83221583  1
  Na  Na11  1  0.83287839  0.34451011  0.83328935  1
  Na  Na12  1  0.33336566  0.33486423  0.33542617  1
  Na  Na13  1  0.83287343  0.31917932  0.33347486  1
  Na  Na14  1  0.16981121  0.66433831  0.16523800  1
  Na  Na15  1  0.66939748  0.68208266  0.16412052  1
  Na  Na16  1  0.17243314  0.66518775  0.65922960  1
  Na  Na17  1  0.67254344  0.66542744  0.65924927  1
  Ca  Ca0  1  0.33308127  0.34131048  0.68077499  1
  Ca  Ca1  1  0.83312667  0.34140930  0.68080143  1
  Ca  Ca2  1  0.83298463  0.32380774  0.18265385  1
  Sn  Sn0  1  0.00282344  0.00424235  0.35489252  1
  Sn  Sn1  1  0.49594400  0.99553253  0.35401713  1
  Sn  Sn2  1  0.99888739  0.99798441  0.85649765  1
  Sn  Sn3  1  0.49900459  0.99781016  0.85637600  1
  Sn  Sn4  1  0.99871739  0.99707757  0.64492840  1
  Sn  Sn5  1  0.49883406  0.99708846  0.64497269  1
  Sn  Sn6  1  0.99841558  0.00171584  0.14663538  1
  Sn  Sn7  1  0.50041939  0.99910346  0.14689247  1
  Sn  Sn8  1  0.33354366  0.33506251  0.18523568  1
  Sn  Sn9  1  0.33324484  0.33230480  0.98157568  1
  Sn  Sn10  1  0.83361567  0.33335272  0.98389168  1
  Sn  Sn11  1  0.33346551  0.33357405  0.48357475  1
  Sn  Sn12  1  0.83328603  0.33399127  0.48282309  1
  Sn  Sn13  1  0.16777746  0.66771584  0.01903302  1
  Sn  Sn14  1  0.66525751  0.66451566  0.01781079  1
  Sn  Sn15  1  0.16627771  0.66687436  0.51603324  1
  Sn  Sn16  1  0.66629465  0.66710741  0.51578740  1
  Sn  Sn17  1  0.17039959  0.66683847  0.31550935  1
  Sn  Sn18  1  0.66558150  0.67165765  0.31687641  1
  Sn  Sn19  1  0.16850665  0.66583119  0.81757264  1
  Sn  Sn20  1  0.66911343  0.66626023  0.81762321  1
  P  P0  1  0.14633318  0.00168908  0.25006199  1
  P  P1  1  0.64144671  0.99264334  0.25234153  1
  P  P2  1  0.35448822  0.70888427  0.24944263  1
  P  P3  1  0.85393755  0.71658114  0.25238999  1
  P  P4  1  0.00394399  0.29340862  0.25257300  1
  P  P5  1  0.49877634  0.29016243  0.25053196  1
  P  P6  1  0.14222148  0.28938453  0.75285305  1
  P  P7  1  0.64225828  0.28961224  0.75282246  1
  P  P8  1  0.00210305  0.71340780  0.75331348  1
  P  P9  1  0.50210640  0.71320707  0.75338001  1
  P  P10  1  0.35428225  0.99164659  0.75221089  1
  P  P11  1  0.85429447  0.99184278  0.75208176  1
  P  P12  1  0.48446259  0.33445305  0.58347571  1
  P  P13  1  0.98426774  0.33460845  0.58340414  1
  P  P14  1  0.18308538  0.03155123  0.58364677  1
  P  P15  1  0.68321195  0.03178626  0.58360676  1
  P  P16  1  0.33252761  0.63415850  0.58125515  1
  P  P17  1  0.83246272  0.63385795  0.58107465  1
  P  P18  1  0.47886183  0.62474074  0.08301149  1
  P  P19  1  0.98436016  0.63547369  0.08373362  1
  P  P20  1  0.33361534  0.04195412  0.08354628  1
  P  P21  1  0.83301745  0.03143872  0.08097357  1
  P  P22  1  0.18771572  0.33400095  0.08327110  1
  P  P23  1  0.68232562  0.33216496  0.08362654  1
  P  P24  1  0.31312186  0.66493086  0.91823269  1
  P  P25  1  0.81314711  0.66331088  0.91785632  1
  P  P26  1  0.01936914  0.37432580  0.91714630  1
  P  P27  1  0.51883250  0.37356043  0.91631625  1
  P  P28  1  0.16792529  0.96171726  0.91671125  1
  P  P29  1  0.66775550  0.96211693  0.91697638  1
  P  P30  1  0.31257200  0.96183442  0.41650765  1
  P  P31  1  0.81404588  0.96275087  0.41688703  1
  P  P32  1  0.16850624  0.37372626  0.41707114  1
  P  P33  1  0.66691844  0.37239072  0.41507883  1
  P  P34  1  0.01950224  0.66443235  0.41508815  1
  P  P35  1  0.51818107  0.66423604  0.41689607  1
  O  O0  1  0.10755208  0.03203637  0.30599618  1
  O  O1  1  0.59678096  0.02179961  0.30614066  1
  O  O2  1  0.40840671  0.78562068  0.30539439  1
  O  O3  1  0.91309672  0.80283386  0.30608957  1
  O  O4  1  0.48235067  0.17831847  0.30563033  1
  O  O5  1  0.99296133  0.18436185  0.30751782  1
  O  O6  1  0.09917417  0.17759121  0.80804076  1
  O  O7  1  0.59916942  0.17779920  0.80804947  1
  O  O8  1  0.49055505  0.79793095  0.80891195  1
  O  O9  1  0.99102736  0.79862057  0.80880957  1
  O  O10  1  0.41047951  0.02163964  0.80743080  1
  O  O11  1  0.91058294  0.02194098  0.80720552  1
  O  O12  1  0.39501569  0.96368473  0.69653982  1
  O  O13  1  0.89489776  0.96351919  0.69637334  1
  O  O14  1  0.08368898  0.20970472  0.69778793  1
  O  O15  1  0.58357930  0.20979084  0.69780441  1
  O  O16  1  0.02056984  0.82967942  0.69822201  1
  O  O17  1  0.52051828  0.82963739  0.69836041  1
  O  O18  1  0.39437269  0.82115254  0.19419388  1
  O  O19  1  0.89363066  0.82448474  0.19597194  1
  O  O20  1  0.01842832  0.21319607  0.19616929  1
  O  O21  1  0.51869285  0.21211829  0.19581726  1
  O  O22  1  0.08662412  0.96178687  0.19586880  1
  O  O23  1  0.58712740  0.96311545  0.19561158  1
  O  O24  1  0.45320921  0.36468040  0.64168121  1
  O  O25  1  0.95315830  0.36455351  0.64171205  1
  O  O26  1  0.22953112  0.09347558  0.64176703  1
  O  O27  1  0.72955018  0.09396923  0.64175608  1
  O  O28  1  0.31559715  0.53532541  0.63752024  1
  O  O29  1  0.81563786  0.53526756  0.63737339  1
  O  O30  1  0.43932553  0.51231713  0.13836869  1
  O  O31  1  0.95205425  0.54058526  0.14117007  1
  O  O32  1  0.31739273  0.12290984  0.13864524  1
  O  O33  1  0.81610942  0.09821304  0.13686496  1
  O  O34  1  0.24411327  0.36704896  0.13844888  1
  O  O35  1  0.72956380  0.36329138  0.14111139  1
  O  O36  1  0.22740867  0.30081395  0.02777895  1
  O  O37  1  0.72655835  0.30242124  0.02912189  1
  O  O38  1  0.42257465  0.54443611  0.02769212  1
  O  O39  1  0.92564145  0.54733324  0.02917082  1
  O  O40  1  0.34983713  0.15346213  0.02784191  1
  O  O41  1  0.84878006  0.14620770  0.02551590  1
  O  O42  1  0.22794073  0.15167166  0.52991775  1
  O  O43  1  0.72797863  0.15212874  0.52982234  1
  O  O44  1  0.34841957  0.54941172  0.52632858  1
  O  O45  1  0.84851580  0.54934605  0.52602032  1
  O  O46  1  0.42430348  0.30423270  0.52984057  1
  O  O47  1  0.92421876  0.30491641  0.52974068  1
  O  O48  1  0.27224917  0.69787553  0.97235211  1
  O  O49  1  0.77089801  0.69578014  0.97082482  1
  O  O50  1  0.07911713  0.45999039  0.96989855  1
  O  O51  1  0.57673934  0.45900669  0.96947811  1
  O  O52  1  0.15356049  0.84546697  0.96971402  1
  O  O53  1  0.65083046  0.84304934  0.96975069  1
  O  O54  1  0.27201873  0.84678760  0.47020072  1
  O  O55  1  0.77247970  0.84776903  0.47058551  1
  O  O56  1  0.15172740  0.45575465  0.47074178  1
  O  O57  1  0.65121318  0.45790504  0.46831356  1
  O  O58  1  0.07766769  0.69720480  0.46844346  1
  O  O59  1  0.57600974  0.69800810  0.47060280  1
  O  O60  1  0.05883485  0.63625072  0.35752495  1
  O  O61  1  0.55739521  0.63077616  0.36085824  1
  O  O62  1  0.25782565  0.88379300  0.36009363  1
  O  O63  1  0.75838092  0.88441033  0.36080753  1
  O  O64  1  0.18418943  0.48350706  0.36083217  1
  O  O65  1  0.68195546  0.48020145  0.35750153  1
  O  O66  1  0.05753061  0.48048475  0.85926818  1
  O  O67  1  0.55733448  0.47998639  0.85880553  1
  O  O68  1  0.18277854  0.88567945  0.85890930  1
  O  O69  1  0.68239371  0.88530053  0.85914512  1
  O  O70  1  0.25829569  0.63276654  0.86201456  1
  O  O71  1  0.75894871  0.63106358  0.86101175  1
  O  O72  1  0.01085675  0.83041773  0.41061791  1
  O  O73  1  0.50920747  0.82929694  0.41152460  1
  O  O74  1  0.40401529  0.97824612  0.41134374  1
  O  O75  1  0.90549994  0.98050349  0.41149331  1
  O  O76  1  0.08573634  0.19026252  0.41260009  1
  O  O77  1  0.58386813  0.18988405  0.41000257  1
  O  O78  1  0.01016684  0.19075862  0.91268833  1
  O  O79  1  0.50973858  0.19023318  0.91263942  1
  O  O80  1  0.08541125  0.97991645  0.91290463  1
  O  O81  1  0.58487603  0.97975195  0.91291307  1
  O  O82  1  0.40445021  0.83056646  0.91351584  1
  O  O83  1  0.90465901  0.82920368  0.91305015  1
  O  O84  1  0.49240528  0.16609464  0.58533264  1
  O  O85  1  0.99250687  0.16648495  0.58527190  1
  O  O86  1  0.09098426  0.01589629  0.58570759  1
  O  O87  1  0.59103295  0.01601286  0.58569165  1
  O  O88  1  0.41695730  0.81786772  0.58459521  1
  O  O89  1  0.91687252  0.81762607  0.58447486  1
  O  O90  1  0.48686126  0.80700862  0.08860227  1
  O  O91  1  0.99416854  0.82143736  0.08571418  1
  O  O92  1  0.41578370  0.02348912  0.08958117  1
  O  O93  1  0.91748853  0.01602600  0.08419770  1
  O  O94  1  0.09633916  0.17051857  0.08949475  1
  O  O95  1  0.58971239  0.16237989  0.08526894  1
  O  O96  1  0.34317991  0.15219537  0.74967517  1
  O  O97  1  0.84309500  0.15224035  0.74949880  1
  O  O98  1  0.23119407  0.30538235  0.75011284  1
  O  O99  1  0.73117615  0.30549560  0.75007120  1
  O  O100  1  0.42633588  0.52810641  0.75102838  1
  O  O101  1  0.92636638  0.52822534  0.75102017  1
  O  O102  1  0.34463732  0.52441125  0.24367782  1
  O  O103  1  0.84344412  0.53454924  0.24986349  1
  O  O104  1  0.41800400  0.31242812  0.24370935  1
  O  O105  1  0.92653112  0.32294279  0.25127088  1
  O  O106  1  0.23815052  0.16392339  0.24326532  1
  O  O107  1  0.73013916  0.15722868  0.25069679  1
  O  O108  1  0.32229220  0.50045444  0.92315616  1
  O  O109  1  0.82280960  0.49925044  0.92336665  1
  O  O110  1  0.42765892  0.35655585  0.92177336  1
  O  O111  1  0.92845973  0.35779898  0.92291450  1
  O  O112  1  0.25048039  0.14459077  0.92193968  1
  O  O113  1  0.74999092  0.14425267  0.92277615  1
  O  O114  1  0.32252763  0.14512642  0.42259691  1
  O  O115  1  0.82293880  0.14587347  0.42291692  1
  O  O116  1  0.25040250  0.35427706  0.42272831  1
  O  O117  1  0.74936109  0.35462436  0.42148588  1
  O  O118  1  0.42715355  0.49860397  0.42271595  1
  O  O119  1  0.92834294  0.49961892  0.42150158  1
  O  O120  1  0.17909852  0.49961810  0.07718912  1
  O  O121  1  0.66999257  0.49241971  0.07414650  1
  O  O122  1  0.07637611  0.65484648  0.07464550  1
  O  O123  1  0.57054327  0.64530322  0.07671052  1
  O  O124  1  0.25160850  0.85889159  0.07756104  1
  O  O125  1  0.75173526  0.84637438  0.07301765  1
  O  O126  1  0.17151592  0.84777252  0.57368818  1
  O  O127  1  0.67175393  0.84798613  0.57389779  1
  O  O128  1  0.25259495  0.65941029  0.57263168  1
  O  O129  1  0.75230114  0.65840732  0.57240498  1
  O  O130  1  0.07600868  0.49623286  0.57374152  1
  O  O131  1  0.57626040  0.49562478  0.57362433  1
  O  O132  1  0.15197883  0.83056376  0.25570387  1
  O  O133  1  0.64801220  0.82393366  0.25678342  1
  O  O134  1  0.26302241  0.69234273  0.25475529  1
  O  O135  1  0.76040661  0.69463976  0.25716171  1
  O  O136  1  0.08867749  0.48017085  0.25570742  1
  O  O137  1  0.58461024  0.47087065  0.25675354  1
  O  O138  1  0.14585472  0.47044844  0.75757802  1
  O  O139  1  0.64573353  0.47048635  0.75752594  1
  O  O140  1  0.08973271  0.70490065  0.75731255  1
  O  O141  1  0.58970397  0.70488987  0.75751980  1
  O  O142  1  0.26135117  0.82535883  0.75681675  1
  O  O143  1  0.76130111  0.82561327  0.75662596  1
loop_
_geom_bond_atom_site_label_1
_geom_bond_atom_site_label_2
_geom_bond_distance
_geom_bond_site_symmetry_2
Na0 O107 2.330269 1_555
Na0 O103 2.405587 1_555
Na0 O137 2.413018 1_555
Na0 O135 2.528182 1_555
Na0 O35 2.529724 1_555
Na0 O65 2.743454 1_555
Na0 O21 2.823274 1_555
Na0 O1 2.968255 1_555
Na1 O105 2.333158 1_555
Na1 O103 2.397181 1_555
Na1 O132 2.434631 1_655
Na1 O31 2.524432 1_555
Na1 O136 2.557337 1_655
Na1 O60 2.757164 1_655
Na1 O22 2.812044 1_655
Na1 O3 2.947080 1_555
Na2 O101 2.324623 1_555
Na2 O138 2.369714 1_655
Na2 O97 2.381078 1_555
Na2 O25 2.440381 1_555
Na2 O140 2.646999 1_655
Na2 O14 2.737983 1_655
Na2 O66 2.858806 1_655
Na3 O100 2.324853 1_555
Na3 O139 2.365290 1_555
Na3 O96 2.383443 1_555
Na3 O24 2.438703 1_555
Na3 O141 2.645515 1_555
Na3 O15 2.733807 1_555
Na3 O67 2.849212 1_555
Na4 O98 2.347175 1_555
Na4 O140 2.367021 1_545
Na4 O96 2.398494 1_555
Na4 O26 2.444354 1_555
Na4 O142 2.552422 1_545
Na4 O16 2.752230 1_545
Na4 O68 2.835704 1_545
Na5 O99 2.346954 1_555
Na5 O141 2.369127 1_545
Na5 O97 2.394457 1_555
Na5 O27 2.447539 1_555
Na5 O143 2.548099 1_545
Na5 O17 2.755054 1_545
Na5 O69 2.838215 1_545
Na6 O89 2.455369 1_555
Na6 O85 2.466032 1_565
Na6 O86 2.481544 1_665
Na6 O76 2.580892 1_665
Na6 O75 2.586137 1_555
Na6 O72 2.612313 1_655
Na7 O88 2.460401 1_555
Na7 O84 2.471800 1_565
Na7 O87 2.477697 1_565
Na7 O73 2.585347 1_555
Na7 O74 2.603575 1_555
Na7 O77 2.614104 1_565
Na8 O93 2.415566 1_565
Na8 O91 2.444794 1_555
Na8 O83 2.575044 1_554
Na8 O94 2.584019 1_665
Na8 O78 2.600804 1_664
Na8 O80 2.601550 1_654
Na9 O95 2.421438 1_555
Na9 O90 2.553677 1_545
Na9 O92 2.573168 1_555
Na9 O81 2.577279 1_544
Na9 O79 2.589043 1_554
Na9 O82 2.590749 1_544
Na10 O100 2.475815 1_555
Na10 O98 2.499759 1_555
Na10 O108 2.550203 1_555
Na10 O96 2.603581 1_555
Na10 O110 2.613914 1_555
Na10 O112 2.621820 1_555
Na11 O101 2.494320 1_555
Na11 O99 2.519840 1_555
Na11 O109 2.524774 1_555
Na11 O111 2.620462 1_555
Na11 O113 2.621214 1_555
Na11 O97 2.623616 1_555
Na12 O116 2.531567 1_555
Na12 O118 2.534025 1_555
Na12 O114 2.548755 1_555
Na12 O102 2.628468 1_555
Na12 O104 2.638906 1_555
Na12 O106 2.646939 1_555
Na13 O105 2.492790 1_555
Na13 O115 2.507246 1_555
Na13 O107 2.515007 1_555
Na13 O119 2.597020 1_555
Na13 O117 2.604028 1_555
Na13 O103 2.636870 1_555
Na14 O120 2.534810 1_555
Na14 O134 2.560231 1_555
Na14 O124 2.564802 1_555
Na14 O136 2.578515 1_555
Na14 O122 2.623768 1_555
Na14 O132 2.642954 1_555
Na15 O125 2.539723 1_555
Na15 O123 2.565762 1_555
Na15 O133 2.581537 1_555
Na15 O135 2.635210 1_555
Na15 O121 2.654295 1_555
Na15 O137 2.723461 1_555
Na16 O128 2.448820 1_555
Na16 O130 2.530818 1_555
Na16 O126 2.540062 1_555
Na16 O142 2.687113 1_555
Na16 O138 2.725187 1_555
Na16 O140 2.791511 1_555
Na17 O129 2.452577 1_555
Na17 O131 2.534190 1_555
Na17 O127 2.535843 1_555
Na17 O143 2.682241 1_555
Na17 O139 2.724224 1_555
Na17 O141 2.795538 1_555
Ca0 O28 2.130841 1_555
Ca0 O24 2.216328 1_555
Ca0 O26 2.220859 1_555
Ca0 O98 2.298560 1_555
Ca0 O100 2.301610 1_555
Ca0 O96 2.366896 1_555
Ca1 O29 2.131516 1_555
Ca1 O25 2.215504 1_555
Ca1 O27 2.219359 1_555
Ca1 O99 2.298321 1_555
Ca1 O101 2.301028 1_555
Ca1 O97 2.363181 1_555
Ca2 O33 2.134698 1_555
Ca2 O31 2.229483 1_555
Ca2 O35 2.237020 1_555
Ca2 O105 2.282044 1_555
Ca2 O107 2.284069 1_555
Ca2 O103 2.347162 1_555
O0 P0 1.535546 1_555
O0 Sn0 2.069229 1_555
O1 P1 1.550184 1_545
O1 Sn1 2.003655 1_545
O2 P2 1.535124 1_555
O2 Sn1 2.048994 1_555
O3 P3 1.543787 1_555
O3 Sn0 2.025706 1_665
O4 P5 1.536276 1_555
O4 Sn1 2.068027 1_545
O5 P4 1.535016 1_655
O5 Sn0 2.003164 1_655
O6 P6 1.547509 1_555
O6 Sn2 2.019275 1_445
O7 P7 1.548437 1_555
O7 Sn3 2.017775 1_545
O8 P9 1.537142 1_555
O8 Sn3 2.012178 1_555
O9 P8 1.535709 1_655
O9 Sn2 2.014927 1_555
O10 P10 1.544885 1_545
O10 Sn3 2.018659 1_545
O11 P11 1.543852 1_545
O11 Sn2 2.020396 1_545
O12 P10 1.540890 1_555
O12 Sn5 2.074221 1_555
O13 P11 1.541594 1_555
O13 Sn4 2.072246 1_555
O14 P6 1.556027 1_555
O14 Sn4 2.102806 1_445
O15 P7 1.556447 1_555
O15 Sn5 2.101728 1_545
O16 P8 1.553214 1_555
O16 Sn4 2.095608 1_455
O17 P9 1.552782 1_555
O17 Sn5 2.095638 1_555
O18 P2 1.541712 1_555
O18 Sn7 2.052042 1_555
O19 P3 1.547791 1_555
O19 Sn6 2.063326 1_565
O20 P4 1.551823 1_555
O20 Sn6 2.057166 1_455
O21 P5 1.550174 1_555
O21 Sn7 2.069689 1_545
O22 P0 1.549333 1_565
O22 Sn6 2.091154 1_465
O23 P1 1.555833 1_555
O23 Sn7 2.044140 1_555
O24 P12 1.513857 1_555
O25 P13 1.513875 1_555
O26 P14 1.512617 1_555
O27 P15 1.512720 1_555
O28 P16 1.498261 1_555
O29 P17 1.498057 1_555
O30 P18 1.543492 1_555
O30 Sn8 2.042429 1_555
O31 P19 1.507947 1_555
O32 P20 1.543325 1_555
O32 Sn8 2.046605 1_555
O33 P21 1.497632 1_555
O34 P22 1.542224 1_555
O34 Sn8 2.042104 1_555
O35 P23 1.506364 1_555
O36 P22 1.546116 1_555
O36 Sn9 2.042605 1_554
O37 P23 1.560673 1_555
O37 Sn10 2.051257 1_554
O38 P18 1.544496 1_555
O38 Sn9 2.038882 1_554
O39 P19 1.558882 1_555
O39 Sn10 2.053206 1_554
O40 P20 1.546509 1_555
O40 Sn9 2.040627 1_554
O41 P21 1.558962 1_555
O41 Sn10 2.038045 1_554
O42 P14 1.556418 1_555
O42 Sn11 2.046926 1_555
O43 P15 1.557993 1_555
O43 Sn12 2.052626 1_555
O44 P16 1.556536 1_555
O44 Sn11 2.037693 1_555
O45 P17 1.558906 1_555
O45 Sn12 2.037228 1_555
O46 P12 1.555997 1_555
O46 Sn11 2.044759 1_555
O47 P13 1.556143 1_555
O47 Sn12 2.052703 1_555
O48 P24 1.531323 1_555
O48 Sn13 2.031672 1_556
O49 P25 1.522461 1_555
O49 Sn14 2.049623 1_556
O50 P26 1.530428 1_555
O50 Sn13 2.051489 1_556
O51 P27 1.523413 1_555
O51 Sn14 2.030703 1_556
O52 P28 1.525305 1_555
O52 Sn13 2.048100 1_556
O53 P29 1.528669 1_555
O53 Sn14 2.040066 1_556
O54 P30 1.524855 1_555
O54 Sn15 2.037181 1_555
O55 P31 1.527268 1_555
O55 Sn16 2.036106 1_555
O56 P32 1.526421 1_555
O56 Sn15 2.032780 1_555
O57 P33 1.528092 1_555
O57 Sn16 2.041292 1_555
O58 P34 1.526591 1_555
O58 Sn15 2.032009 1_555
O59 P35 1.528328 1_555
O59 Sn16 2.030971 1_555
O60 P34 1.564395 1_555
O60 Sn17 2.086101 1_555
O61 P35 1.552752 1_555
O61 Sn18 2.026815 1_555
O62 P30 1.551300 1_555
O62 Sn17 2.034193 1_555
O63 P31 1.551923 1_555
O63 Sn18 2.036840 1_555
O64 P32 1.549625 1_555
O64 Sn17 2.037326 1_555
O65 P33 1.567457 1_555
O65 Sn18 2.072751 1_555
O66 P26 1.566069 1_555
O66 Sn19 2.056549 1_555
O67 P27 1.560697 1_555
O67 Sn20 2.061693 1_555
O68 P28 1.561729 1_555
O68 Sn19 2.057696 1_555
O69 P29 1.564380 1_555
O69 Sn20 2.059513 1_555
O70 P24 1.547738 1_555
O70 Sn19 2.025066 1_555
O71 P25 1.553685 1_555
O71 Sn20 2.024017 1_555
O72 P34 1.551460 1_555
O72 Sn0 2.054071 1_565
O73 P35 1.548172 1_555
O73 Sn1 2.069836 1_555
O74 P30 1.553802 1_555
O74 Sn1 2.032621 1_555
O75 P31 1.549387 1_555
O75 Sn0 2.077421 1_665
O76 P32 1.551925 1_555
O76 Sn0 2.044226 1_555
O77 P33 1.550179 1_555
O77 Sn1 2.081282 1_545
O78 P26 1.549735 1_555
O78 Sn2 2.060313 1_445
O79 P27 1.547372 1_555
O79 Sn3 2.061999 1_545
O80 P28 1.547841 1_555
O80 Sn2 2.066880 1_455
O81 P29 1.551751 1_555
O81 Sn3 2.059734 1_555
O82 P24 1.548933 1_555
O82 Sn3 2.053203 1_555
O83 P25 1.551891 1_555
O83 Sn2 2.046402 1_555
O84 P12 1.562451 1_555
O84 Sn5 2.066555 1_545
O85 P13 1.563359 1_555
O85 Sn4 2.067859 1_545
O86 P14 1.564509 1_555
O86 Sn4 2.060974 1_445
O87 P15 1.565446 1_555
O87 Sn5 2.060683 1_545
O88 P16 1.564268 1_555
O88 Sn5 2.052631 1_555
O89 P17 1.564474 1_555
O89 Sn4 2.054472 1_555
O90 P18 1.549220 1_555
O90 Sn7 2.073770 1_555
O91 P19 1.563694 1_555
O91 Sn6 2.087098 1_565
O92 P20 1.546840 1_555
O92 Sn7 2.079371 1_545
O93 P21 1.567588 1_555
O93 Sn6 2.068954 1_555
O94 P22 1.544264 1_555
O94 Sn6 2.085070 1_455
O95 P23 1.574232 1_555
O95 Sn7 2.069222 1_545
O96 P10 1.526673 1_545
O97 P11 1.526407 1_545
O98 P6 1.508657 1_555
O99 P7 1.508136 1_555
O100 P9 1.510685 1_555
O101 P8 1.510894 1_655
O102 P2 1.555150 1_555
O102 Sn8 2.070672 1_555
O103 P3 1.524613 1_555
O104 P5 1.543655 1_555
O104 Sn8 2.086773 1_555
O105 P4 1.516139 1_655
O106 P0 1.545581 1_555
O106 Sn8 2.083746 1_555
O107 P1 1.515314 1_545
O108 P24 1.544256 1_555
O108 Sn9 2.077319 1_555
O109 P25 1.546671 1_555
O109 Sn10 2.092549 1_555
O110 P27 1.547363 1_555
O110 Sn9 2.083515 1_555
O111 P26 1.545103 1_655
O111 Sn10 2.106361 1_555
O112 P28 1.548569 1_545
O112 Sn9 2.078712 1_555
O113 P29 1.543518 1_545
O113 Sn10 2.111035 1_555
O114 P30 1.544691 1_545
O114 Sn11 2.103371 1_555
O115 P31 1.550875 1_545
O115 Sn12 2.088268 1_555
O116 P32 1.546333 1_555
O116 Sn11 2.095900 1_555
O117 P33 1.548897 1_555
O117 Sn12 2.114417 1_555
O118 P35 1.547861 1_555
O118 Sn11 2.095573 1_555
O119 P34 1.547358 1_655
O119 Sn12 2.114950 1_555
O120 P22 1.550833 1_555
O120 Sn13 2.076051 1_555
O121 P23 1.551309 1_555
O121 Sn14 2.025921 1_555
O122 P19 1.562233 1_455
O122 Sn13 2.013512 1_555
O123 P18 1.544903 1_555
O123 Sn14 2.087819 1_555
O124 P20 1.546896 1_565
O124 Sn13 2.081834 1_555
O125 P21 1.556590 1_565
O125 Sn14 2.013368 1_555
O126 P14 1.547924 1_565
O126 Sn15 2.036163 1_555
O127 P15 1.548059 1_565
O127 Sn16 2.041430 1_555
O128 P16 1.549405 1_555
O128 Sn15 2.026691 1_555
O129 P17 1.549812 1_555
O129 Sn16 2.027231 1_555
O130 P13 1.550609 1_455
O130 Sn15 2.038582 1_555
O131 P12 1.550234 1_555
O131 Sn16 2.041385 1_555
O132 P0 1.569043 1_565
O132 Sn17 2.130283 1_555
O133 P1 1.554692 1_555
O133 Sn18 2.052067 1_555
O134 P2 1.553970 1_555
O134 Sn17 2.071181 1_555
O135 P3 1.569554 1_555
O135 Sn18 2.091026 1_555
O136 P4 1.581606 1_555
O136 Sn17 2.071497 1_555
O137 P5 1.565438 1_555
O137 Sn18 2.131434 1_555
O138 P6 1.571713 1_555
O138 Sn19 2.079415 1_555
O139 P7 1.571315 1_555
O139 Sn20 2.080672 1_555
O140 P8 1.590752 1_555
O140 Sn19 2.106294 1_555
O141 P9 1.589480 1_555
O141 Sn20 2.110405 1_555
O142 P10 1.567474 1_555
O142 Sn19 2.073095 1_555
O143 P11 1.567806 1_555
O143 Sn20 2.071136 1_555
