# generated using pymatgen
data_Sc4NCl6
_symmetry_space_group_name_H-M   'P 1'
_cell_length_a   3.49215082
_cell_length_b   11.55839449
_cell_length_c   12.06368771
_cell_angle_alpha   90.00014314
_cell_angle_beta   90.00008460
_cell_angle_gamma   89.99996687
_symmetry_Int_Tables_number   1
_chemical_formula_structural   Sc4NCl6
_chemical_formula_sum   'Sc8 N2 Cl12'
_cell_volume   486.93455042
_cell_formula_units_Z   2
loop_
 _symmetry_equiv_pos_site_id
 _symmetry_equiv_pos_as_xyz
  1  'x, y, z'
loop_
 _atom_site_type_symbol
 _atom_site_label
 _atom_site_symmetry_multiplicity
 _atom_site_fract_x
 _atom_site_fract_y
 _atom_site_fract_z
 _atom_site_occupancy
  Sc  Sc0  1  -0.00000016  0.10122421  0.07787188  1
  Sc  Sc1  1  0.00000015  0.89876743  0.92214387  1
  Sc  Sc2  1  0.00000052  0.60127086  0.42208868  1
  Sc  Sc3  1  0.00000065  0.39872295  0.57789336  1
  Sc  Sc4  1  0.50000072  0.12003861  0.85648287  1
  Sc  Sc5  1  0.49999994  0.87996956  0.14352810  1
  Sc  Sc6  1  0.50000011  0.62005434  0.64354111  1
  Sc  Sc7  1  0.50000036  0.37995508  0.35645526  1
  N  N0  1  0.50000014  0.99999828  0.00000406  1
  N  N1  1  0.49999853  0.49999757  0.49999631  1
  Cl  Cl0  1  0.49999905  0.26553739  0.67716559  1
  Cl  Cl1  1  0.50000060  0.73446060  0.32282678  1
  Cl  Cl2  1  0.49999974  0.76553363  0.82282622  1
  Cl  Cl3  1  0.50000034  0.23446307  0.17717537  1
  Cl  Cl4  1  -0.00000006  0.25981853  0.93001704  1
  Cl  Cl5  1  0.00000017  0.74017339  0.06998743  1
  Cl  Cl6  1  0.00000017  0.48532044  0.24138378  1
  Cl  Cl7  1  -0.00000064  0.51468256  0.75862093  1
  Cl  Cl8  1  -0.00000000  0.98530986  0.25862521  1
  Cl  Cl9  1  -0.00000010  0.01468933  0.74137332  1
  Cl  Cl10  1  -0.00000053  0.24017596  0.43000615  1
  Cl  Cl11  1  0.00000028  0.75983638  0.56998567  1
loop_
_geom_bond_atom_site_label_1
_geom_bond_atom_site_label_2
_geom_bond_distance
_geom_bond_site_symmetry_2
N0 Sc5 2.218686 1_555
N0 Sc4 2.218743 1_564
N0 Sc1 2.302189 1_554
N0 Sc1 2.302190 1_654
N0 Sc0 2.302197 1_665
N0 Sc0 2.302200 1_565
N1 Sc7 2.218941 1_555
N1 Sc6 2.219079 1_555
N1 Sc3 2.302627 1_555
N1 Sc3 2.302635 1_655
N1 Sc2 2.302668 1_555
N1 Sc2 2.302682 1_655
Cl0 Sc3 2.617779 1_555
Cl0 Sc3 2.617790 1_655
Cl0 Sc4 2.740036 1_555
Cl1 Sc2 2.617754 1_655
Cl1 Sc2 2.617758 1_555
Cl1 Sc5 2.739931 1_555
Cl2 Sc1 2.618359 1_555
Cl2 Sc1 2.618360 1_655
Cl2 Sc6 2.739584 1_555
Cl3 Sc0 2.618315 1_655
Cl3 Sc0 2.618316 1_555
Cl3 Sc7 2.739625 1_555
Cl4 Sc4 2.538890 1_455
Cl4 Sc4 2.538894 1_555
Cl4 Sc0 2.557685 1_556
Cl5 Sc5 2.539038 1_555
Cl5 Sc5 2.539040 1_455
Cl5 Sc1 2.557588 1_554
Cl6 Sc7 2.541458 1_555
Cl6 Sc7 2.541461 1_455
Cl6 Sc2 2.558981 1_555
Cl7 Sc6 2.541547 1_455
Cl7 Sc6 2.541554 1_555
Cl7 Sc3 2.559269 1_555
Cl8 Sc5 2.541486 1_455
Cl8 Sc5 2.541488 1_555
Cl8 Sc0 2.559266 1_565
Cl9 Sc4 2.541617 1_455
Cl9 Sc4 2.541619 1_555
Cl9 Sc1 2.559488 1_545
Cl10 Sc7 2.538956 1_455
Cl10 Sc7 2.538963 1_555
Cl10 Sc3 2.557559 1_555
Cl11 Sc6 2.538998 1_555
Cl11 Sc6 2.539002 1_455
Cl11 Sc2 2.557794 1_555
