# generated using pymatgen
data_Na6Si7Sn8S5O48
_symmetry_space_group_name_H-M   'P 1'
_cell_length_a   17.80116446
_cell_length_b   8.88958221
_cell_length_c   22.98305728
_cell_angle_alpha   89.94080583
_cell_angle_beta   89.52704794
_cell_angle_gamma   119.99389523
_symmetry_Int_Tables_number   1
_chemical_formula_structural   Na6Si7Sn8S5O48
_chemical_formula_sum   'Na18 Si21 Sn24 S15 O144'
_cell_volume   3149.72330145
_cell_formula_units_Z   3
loop_
 _symmetry_equiv_pos_site_id
 _symmetry_equiv_pos_as_xyz
  1  'x, y, z'
loop_
 _atom_site_type_symbol
 _atom_site_label
 _atom_site_symmetry_multiplicity
 _atom_site_fract_x
 _atom_site_fract_y
 _atom_site_fract_z
 _atom_site_occupancy
  Na  Na0  1  0.00073988  0.63407264  0.25203054  1
  Na  Na1  1  0.49805074  0.64466005  0.24563204  1
  Na  Na2  1  0.99913444  0.35168424  0.75315204  1
  Na  Na3  1  0.50033172  0.36838965  0.75475001  1
  Na  Na4  1  0.66510978  0.31070950  0.91733947  1
  Na  Na5  1  0.16642241  0.02248172  0.41340710  1
  Na  Na6  1  0.99899879  0.98471389  0.50284874  1
  Na  Na7  1  0.49416321  0.98848086  0.49469007  1
  Na  Na8  1  0.99500898  0.00062192  0.99668110  1
  Na  Na9  1  0.49778802  0.00206833  0.00704098  1
  Na  Na10  1  0.33407501  0.33511128  0.83204588  1
  Na  Na11  1  0.83098904  0.33187717  0.83484617  1
  Na  Na12  1  0.33224196  0.33358457  0.32982361  1
  Na  Na13  1  0.83315699  0.33139473  0.32813908  1
  Na  Na14  1  0.17599963  0.67703715  0.17118915  1
  Na  Na15  1  0.66914107  0.66527976  0.16274372  1
  Na  Na16  1  0.17625475  0.68248516  0.66763552  1
  Na  Na17  1  0.67317740  0.67261740  0.67296576  1
  Si  Si0  1  0.14953145  0.00827709  0.24891184  1
  Si  Si1  1  0.64206733  0.00278782  0.25117381  1
  Si  Si2  1  0.35288619  0.70579542  0.24777305  1
  Si  Si3  1  0.85072123  0.70627557  0.24996352  1
  Si  Si4  1  0.00018868  0.29117124  0.25044859  1
  Si  Si5  1  0.14151625  0.28297273  0.75076224  1
  Si  Si6  1  0.64686626  0.29130422  0.75026449  1
  Si  Si7  1  0.50058346  0.70975950  0.75029203  1
  Si  Si8  1  0.35017680  0.99385577  0.75043059  1
  Si  Si9  1  0.85342587  0.99883911  0.74710588  1
  Si  Si10  1  0.18849818  0.04536300  0.58373246  1
  Si  Si11  1  0.83262393  0.62928174  0.58383462  1
  Si  Si12  1  0.48129011  0.62503205  0.08305843  1
  Si  Si13  1  0.33152872  0.03609182  0.08423320  1
  Si  Si14  1  0.68962478  0.33139826  0.08412093  1
  Si  Si15  1  0.81296193  0.67327230  0.91676781  1
  Si  Si16  1  0.02293591  0.38229243  0.91924501  1
  Si  Si17  1  0.51721853  0.36821703  0.91335254  1
  Si  Si18  1  0.31608175  0.95811833  0.41491429  1
  Si  Si19  1  0.01824842  0.66584344  0.41423439  1
  Si  Si20  1  0.52330784  0.66660785  0.41897609  1
  Sn  Sn0  1  0.99956609  0.99331130  0.34580582  1
  Sn  Sn1  1  0.49504410  0.97455259  0.35193908  1
  Sn  Sn2  1  0.99504457  0.01628362  0.85462461  1
  Sn  Sn3  1  0.49848065  0.00222937  0.84829017  1
  Sn  Sn4  1  -0.00002909  0.99787619  0.64663785  1
  Sn  Sn5  1  0.49696716  0.99484474  0.65634124  1
  Sn  Sn6  1  0.99817289  0.00237248  0.15443595  1
  Sn  Sn7  1  0.49823809  0.98794187  0.14251448  1
  Sn  Sn8  1  0.32586646  0.32478318  0.69118061  1
  Sn  Sn9  1  0.82561479  0.33164766  0.68688648  1
  Sn  Sn10  1  0.33220387  0.32893316  0.18378757  1
  Sn  Sn11  1  0.82586228  0.32510154  0.19084153  1
  Sn  Sn12  1  0.34543113  0.33455840  0.98378458  1
  Sn  Sn13  1  0.83476257  0.34141932  0.98047429  1
  Sn  Sn14  1  0.33504119  0.32811556  0.47968760  1
  Sn  Sn15  1  0.83833190  0.35124037  0.48075276  1
  Sn  Sn16  1  0.16850361  0.67116049  0.01987388  1
  Sn  Sn17  1  0.66274031  0.64190973  0.01998914  1
  Sn  Sn18  1  0.17008692  0.69193262  0.51600095  1
  Sn  Sn19  1  0.66749349  0.66358822  0.51903761  1
  Sn  Sn20  1  0.16829412  0.67600569  0.31017697  1
  Sn  Sn21  1  0.66576225  0.67340165  0.31222998  1
  Sn  Sn22  1  0.16826834  0.66005321  0.81495473  1
  Sn  Sn23  1  0.66790847  0.66245303  0.81189760  1
  S  S0  1  0.50053440  0.28719456  0.25088758  1
  S  S1  1  0.00082692  0.71017331  0.75079782  1
  S  S2  1  0.48020777  0.32921236  0.58450021  1
  S  S3  1  0.98037399  0.33610581  0.58241633  1
  S  S4  1  0.68581765  0.04097146  0.58156093  1
  S  S5  1  0.33391012  0.62713247  0.58268057  1
  S  S6  1  0.98026231  0.63106190  0.08440432  1
  S  S7  1  0.83581209  0.04316592  0.08298943  1
  S  S8  1  0.18459352  0.32850292  0.08135718  1
  S  S9  1  0.31392766  0.66344531  0.91779853  1
  S  S10  1  0.16713426  0.96125490  0.91633019  1
  S  S11  1  0.66568319  0.95434176  0.91734136  1
  S  S12  1  0.81427232  0.96333294  0.41847540  1
  S  S13  1  0.16526737  0.37794782  0.41849032  1
  S  S14  1  0.66652838  0.37315797  0.41644578  1
  O  O0  1  0.11190335  0.04214488  0.31060073  1
  O  O1  1  0.60473189  0.04334385  0.31074455  1
  O  O2  1  0.41281319  0.77366243  0.30654666  1
  O  O3  1  0.91110305  0.78172934  0.30767859  1
  O  O4  1  0.48778216  0.18570602  0.30504552  1
  O  O5  1  0.97883527  0.17057962  0.30913894  1
  O  O6  1  0.10124418  0.16161761  0.80846948  1
  O  O7  1  0.60847188  0.17809354  0.80972687  1
  O  O8  1  0.47903015  0.78878869  0.80775904  1
  O  O9  1  0.98546061  0.78540226  0.80312626  1
  O  O10  1  0.41211960  0.03848009  0.80638396  1
  O  O11  1  0.91549477  0.05396833  0.80427544  1
  O  O12  1  0.38666962  0.95386071  0.69016546  1
  O  O13  1  0.89565920  0.96302481  0.68979887  1
  O  O14  1  0.08078242  0.20773172  0.69319745  1
  O  O15  1  0.58597397  0.21202750  0.69192401  1
  O  O16  1  0.01555612  0.81164131  0.69690815  1
  O  O17  1  0.52117598  0.82251776  0.68961754  1
  O  O18  1  0.39582586  0.83219222  0.19260316  1
  O  O19  1  0.88929588  0.82288463  0.19108833  1
  O  O20  1  0.02065608  0.21836482  0.19095179  1
  O  O21  1  0.51459573  0.21436188  0.19843036  1
  O  O22  1  0.08417165  0.95951997  0.19313534  1
  O  O23  1  0.58106581  0.95849185  0.19517895  1
  O  O24  1  0.44244496  0.35961950  0.63718284  1
  O  O25  1  0.94170828  0.36539245  0.63578662  1
  O  O26  1  0.25202159  0.13458018  0.63848008  1
  O  O27  1  0.73926729  0.11628256  0.63405275  1
  O  O28  1  0.32204987  0.52377761  0.63570458  1
  O  O29  1  0.81523429  0.50398041  0.64005603  1
  O  O30  1  0.44081394  0.50728996  0.14260075  1
  O  O31  1  0.94267022  0.52577581  0.13748072  1
  O  O32  1  0.30941366  0.11849199  0.14026855  1
  O  O33  1  0.82469906  0.12413527  0.13608667  1
  O  O34  1  0.23610224  0.35824990  0.13454416  1
  O  O35  1  0.75411593  0.36952989  0.13861978  1
  O  O36  1  0.22498430  0.30433053  0.02827854  1
  O  O37  1  0.72888785  0.29425702  0.02321876  1
  O  O38  1  0.41839195  0.54529053  0.02614508  1
  O  O39  1  0.92810505  0.55197065  0.03153961  1
  O  O40  1  0.34355823  0.14071638  0.02335357  1
  O  O41  1  0.85212396  0.15318745  0.03002876  1
  O  O42  1  0.22887245  0.15949861  0.52315225  1
  O  O43  1  0.72829179  0.14802112  0.52828930  1
  O  O44  1  0.34941388  0.54947882  0.52976846  1
  O  O45  1  0.84835789  0.54453560  0.52529448  1
  O  O46  1  0.42811864  0.30425240  0.53155946  1
  O  O47  1  0.92445603  0.30507081  0.53042373  1
  O  O48  1  0.27474562  0.69625647  0.96992833  1
  O  O49  1  0.77224679  0.71265387  0.97452920  1
  O  O50  1  0.08480074  0.47428366  0.97510341  1
  O  O51  1  0.57918970  0.44843694  0.96982338  1
  O  O52  1  0.15308142  0.85338796  0.96930284  1
  O  O53  1  0.65366476  0.85212509  0.97019343  1
  O  O54  1  0.27967788  0.84137090  0.47476717  1
  O  O55  1  0.77546330  0.85405895  0.47159767  1
  O  O56  1  0.15224617  0.45589200  0.47246091  1
  O  O57  1  0.65449982  0.45215853  0.47060929  1
  O  O58  1  0.07734543  0.70405051  0.47294886  1
  O  O59  1  0.58422411  0.69826600  0.47620760  1
  O  O60  1  0.06108583  0.63455284  0.35683512  1
  O  O61  1  0.56293501  0.62474856  0.36037667  1
  O  O62  1  0.24927515  0.87278387  0.36168197  1
  O  O63  1  0.76120751  0.88598905  0.36628299  1
  O  O64  1  0.17954417  0.48167047  0.36591909  1
  O  O65  1  0.68467182  0.48635392  0.36509428  1
  O  O66  1  0.06125342  0.49761370  0.85866736  1
  O  O67  1  0.55914851  0.48413694  0.85469638  1
  O  O68  1  0.18406011  0.88298454  0.86395298  1
  O  O69  1  0.68022620  0.88064990  0.86376792  1
  O  O70  1  0.26143720  0.63852590  0.86459396  1
  O  O71  1  0.75117163  0.62784381  0.86013677  1
  O  O72  1  0.01282870  0.84804165  0.41159416  1
  O  O73  1  0.51706126  0.84251868  0.41576220  1
  O  O74  1  0.41481287  0.99352717  0.40933104  1
  O  O75  1  0.90147761  0.98461858  0.41320623  1
  O  O76  1  0.08799236  0.20015811  0.41481268  1
  O  O77  1  0.58781557  0.20369526  0.41177489  1
  O  O78  1  0.01732018  0.19401236  0.91593366  1
  O  O79  1  0.51255906  0.17585419  0.91070346  1
  O  O80  1  0.08698619  0.97020973  0.91055449  1
  O  O81  1  0.58827992  0.97741925  0.91262630  1
  O  O82  1  0.40080043  0.81815426  0.91203227  1
  O  O83  1  0.91271352  0.83617295  0.91018431  1
  O  O84  1  0.48948657  0.17162653  0.58827349  1
  O  O85  1  0.98759469  0.17881684  0.58628607  1
  O  O86  1  0.09258801  0.02646272  0.58915651  1
  O  O87  1  0.59951245  0.02697528  0.58634707  1
  O  O88  1  0.41250440  0.80478209  0.58669678  1
  O  O89  1  0.91841542  0.81965853  0.58827634  1
  O  O90  1  0.48898798  0.81288799  0.08489778  1
  O  O91  1  0.98935537  0.80690110  0.08809030  1
  O  O92  1  0.41816122  0.02372906  0.08883386  1
  O  O93  1  0.91563490  0.02556467  0.08694608  1
  O  O94  1  0.09677063  0.16981122  0.08640541  1
  O  O95  1  0.59374647  0.16491328  0.08999770  1
  O  O96  1  0.34984744  0.17599128  0.74457931  1
  O  O97  1  0.85359689  0.18614601  0.73819114  1
  O  O98  1  0.23898086  0.31533106  0.74693255  1
  O  O99  1  0.74247863  0.30938969  0.74708170  1
  O  O100  1  0.41654643  0.51440820  0.74062384  1
  O  O101  1  0.92457346  0.53049993  0.74444275  1
  O  O102  1  0.34992619  0.51748461  0.24159745  1
  O  O103  1  0.85022162  0.52341568  0.24472469  1
  O  O104  1  0.42393177  0.31330714  0.24759113  1
  O  O105  1  0.91658903  0.31926350  0.24144517  1
  O  O106  1  0.24460646  0.17934819  0.24434530  1
  O  O107  1  0.74043007  0.16395465  0.24839804  1
  O  O108  1  0.31724488  0.50124524  0.92336320  1
  O  O109  1  0.81676195  0.49061165  0.92195773  1
  O  O110  1  0.42076536  0.35050639  0.91677229  1
  O  O111  1  0.92512715  0.35572841  0.92548927  1
  O  O112  1  0.24355977  0.13688588  0.92235848  1
  O  O113  1  0.74412457  0.13375133  0.92108791  1
  O  O114  1  0.31658801  0.14439734  0.42162967  1
  O  O115  1  0.81903157  0.13527647  0.42606881  1
  O  O116  1  0.24367984  0.35656817  0.42333427  1
  O  O117  1  0.74434223  0.35113918  0.42245160  1
  O  O118  1  0.42566747  0.49632876  0.42623488  1
  O  O119  1  0.92251359  0.48723260  0.41908687  1
  O  O120  1  0.17508645  0.48589560  0.07674572  1
  O  O121  1  0.68544978  0.51075699  0.08085815  1
  O  O122  1  0.06746274  0.64778862  0.07772104  1
  O  O123  1  0.57860354  0.64859566  0.07628321  1
  O  O124  1  0.24250440  0.83967348  0.07762088  1
  O  O125  1  0.75729564  0.87286888  0.07747966  1
  O  O126  1  0.17822443  0.84901307  0.58086845  1
  O  O127  1  0.67735704  0.86633909  0.57675555  1
  O  O128  1  0.25315901  0.63760496  0.57724885  1
  O  O129  1  0.74364566  0.64447416  0.57666484  1
  O  O130  1  0.06786784  0.49179553  0.57535419  1
  O  O131  1  0.56787593  0.48722401  0.57791808  1
  O  O132  1  0.15069406  0.82691618  0.25257985  1
  O  O133  1  0.64617413  0.82018840  0.25624887  1
  O  O134  1  0.25711681  0.68049400  0.25592211  1
  O  O135  1  0.75394483  0.68115805  0.25855617  1
  O  O136  1  0.08340978  0.48432041  0.25717641  1
  O  O137  1  0.57873291  0.46674465  0.25611745  1
  O  O138  1  0.14625590  0.47393994  0.75612504  1
  O  O139  1  0.65131209  0.47761102  0.75232412  1
  O  O140  1  0.07840140  0.68849299  0.75563788  1
  O  O141  1  0.58420150  0.68412051  0.75630213  1
  O  O142  1  0.25283625  0.82575981  0.75792949  1
  O  O143  1  0.75758121  0.83564534  0.75531787  1
loop_
_geom_bond_atom_site_label_1
_geom_bond_atom_site_label_2
_geom_bond_distance
_geom_bond_site_symmetry_2
Na0 O132 2.343037 1_555
Na0 O103 2.355330 1_455
Na0 O136 2.431686 1_555
Na0 O105 2.439451 1_455
Na0 O60 2.644639 1_555
Na0 O3 2.822868 1_455
Na0 O31 2.825188 1_455
Na0 O22 2.840897 1_555
Na1 O102 2.294164 1_555
Na1 O133 2.311856 1_555
Na1 O104 2.555854 1_555
Na1 O137 2.626469 1_555
Na1 O30 2.634098 1_555
Na1 O23 2.674813 1_555
Na1 O2 2.699140 1_555
Na1 O61 2.928114 1_555
Na2 O97 2.280279 1_555
Na2 O138 2.280787 1_655
Na2 O101 2.538051 1_555
Na2 O11 2.574229 1_555
Na2 O140 2.595487 1_655
Na2 O66 2.720868 1_655
Na2 O14 2.734759 1_655
Na2 O25 2.916384 1_555
Na3 O139 2.357445 1_555
Na3 O96 2.363516 1_555
Na3 O141 2.432982 1_555
Na3 O100 2.440818 1_555
Na3 O67 2.529619 1_555
Na3 O10 2.798708 1_555
Na3 O24 2.887054 1_555
Na3 O15 2.903055 1_555
Na4 O109 2.354824 1_555
Na4 O79 2.363712 1_555
Na4 O81 2.571423 1_545
Na4 O113 2.583477 1_555
Na4 O51 2.671736 1_555
Na4 O7 2.717017 1_555
Na4 O37 2.728154 1_556
Na4 O71 2.768424 1_555
Na5 O114 2.338396 1_555
Na5 O72 2.375904 1_545
Na5 O76 2.578587 1_555
Na5 O116 2.585846 1_555
Na5 O0 2.600363 1_555
Na5 O62 2.701122 1_545
Na5 O42 2.789291 1_555
Na5 O58 2.805067 1_545
Na6 O89 2.430777 1_555
Na6 O72 2.496244 1_655
Na6 O86 2.507172 1_665
Na6 O85 2.654531 1_565
Na6 O76 2.679022 1_665
Na6 O75 2.704794 1_555
Na7 O73 2.379459 1_555
Na7 O74 2.440261 1_555
Na7 O88 2.611517 1_555
Na7 O77 2.611916 1_565
Na7 O84 2.724606 1_565
Na7 O87 2.738005 1_565
Na8 O78 2.419898 1_655
Na8 O83 2.479530 1_545
Na8 O93 2.572005 1_556
Na8 O80 2.657489 1_645
Na8 O94 2.672083 1_656
Na8 O91 2.684236 1_546
Na9 O90 2.404253 1_545
Na9 O92 2.410337 1_555
Na9 O95 2.497143 1_555
Na9 O79 2.633507 1_554
Na9 O81 2.765448 1_544
Na9 O82 2.769344 1_544
Na10 O110 2.455817 1_555
Na10 O98 2.545742 1_555
Na10 O96 2.552333 1_555
Na10 O100 2.590989 1_555
Na10 O112 2.666116 1_555
Na10 O108 2.667215 1_555
Na11 O99 2.515851 1_555
Na11 O109 2.533462 1_555
Na11 O113 2.577019 1_555
Na11 O111 2.626102 1_555
Na11 O101 2.684075 1_555
Na11 O97 2.699528 1_555
Na12 O106 2.467923 1_555
Na12 O102 2.520183 1_555
Na12 O104 2.551938 1_555
Na12 O114 2.621549 1_555
Na12 O116 2.722689 1_555
Na12 O118 2.725918 1_555
Na13 O107 2.428588 1_555
Na13 O103 2.479235 1_555
Na13 O105 2.509812 1_555
Na13 O119 2.583834 1_555
Na13 O117 2.729559 1_555
Na13 O115 2.777178 1_555
Na14 O134 2.425007 1_555
Na14 O132 2.463452 1_555
Na14 O124 2.521237 1_555
Na14 O136 2.583253 1_555
Na14 O120 2.753094 1_555
Na14 O122 2.825358 1_555
Na15 O121 2.430651 1_555
Na15 O123 2.526391 1_555
Na15 O125 2.598953 1_555
Na15 O135 2.643935 1_555
Na15 O133 2.690043 1_555
Na15 O137 2.721325 1_555
Na16 O142 2.470504 1_555
Na16 O126 2.471898 1_555
Na16 O138 2.615853 1_555
Na16 O128 2.617168 1_555
Na16 O140 2.676362 1_555
Na16 O130 2.810580 1_555
Na17 O139 2.406314 1_555
Na17 O143 2.411567 1_555
Na17 O141 2.509948 1_555
Na17 O129 2.608426 1_555
Na17 O127 2.778834 1_555
Na17 O131 2.826330 1_555
O0 Si0 1.654175 1_555
O0 Sn0 1.986626 1_445
O1 Si1 1.634546 1_555
O1 Sn1 1.964011 1_545
O2 Si2 1.645793 1_555
O2 Sn1 1.958503 1_555
O3 Si3 1.633801 1_555
O3 Sn0 1.962197 1_555
O4 S0 1.484266 1_555
O4 Sn1 2.223145 1_545
O5 Si4 1.641437 1_655
O5 Sn0 1.978245 1_545
O6 Si5 1.626311 1_555
O6 Sn2 1.972415 1_455
O7 Si6 1.625317 1_555
O7 Sn3 1.992817 1_555
O8 Si7 1.627340 1_555
O8 Sn3 1.984916 1_565
O9 S1 1.465466 1_655
O9 Sn2 2.302337 1_565
O10 Si8 1.616813 1_545
O10 Sn3 1.978375 1_555
O11 Si9 1.634412 1_545
O11 Sn2 1.989251 1_555
O12 Si8 1.638270 1_555
O12 Sn5 1.962425 1_555
O13 Si9 1.620224 1_555
O13 Sn4 1.980338 1_655
O14 Si5 1.633720 1_555
O14 Sn4 2.010240 1_545
O15 Si6 1.652772 1_555
O15 Sn5 1.967966 1_545
O16 S1 1.473852 1_555
O16 Sn4 2.147847 1_555
O17 Si7 1.644693 1_555
O17 Sn5 1.944338 1_555
O18 Si2 1.605268 1_555
O18 Sn7 2.001042 1_555
O19 Si3 1.626998 1_555
O19 Sn6 1.972369 1_565
O20 Si4 1.628140 1_555
O20 Sn6 1.947248 1_455
O21 S0 1.447083 1_555
O21 Sn7 2.283229 1_545
O22 Si0 1.645123 1_565
O22 Sn6 1.970948 1_465
O23 Si1 1.608424 1_565
O23 Sn7 2.030337 1_555
O24 S2 1.469665 1_555
O24 Sn8 2.292773 1_555
O25 S3 1.487276 1_555
O25 Sn9 2.253773 1_555
O26 Si10 1.618586 1_555
O26 Sn8 1.965251 1_555
O27 S4 1.480776 1_555
O27 Sn9 2.143792 1_555
O28 S5 1.474228 1_555
O28 Sn8 2.208274 1_555
O29 Si11 1.628450 1_555
O29 Sn9 1.955099 1_555
O30 Si12 1.647462 1_555
O30 Sn10 2.012394 1_555
O31 S6 1.473031 1_555
O31 Sn11 2.292311 1_555
O32 Si13 1.622352 1_555
O32 Sn10 1.978988 1_555
O33 S7 1.478729 1_555
O33 Sn11 2.178022 1_555
O34 S8 1.477048 1_555
O34 Sn10 2.180019 1_555
O35 Si14 1.623967 1_555
O35 Sn11 1.938121 1_555
O36 S8 1.480491 1_555
O36 Sn12 2.258820 1_554
O37 Si14 1.665008 1_555
O37 Sn13 1.967616 1_554
O38 Si12 1.643064 1_555
O38 Sn12 1.932892 1_554
O39 S6 1.483340 1_555
O39 Sn13 2.137504 1_554
O40 Si13 1.631527 1_555
O40 Sn12 1.932952 1_554
O41 S7 1.493393 1_555
O41 Sn13 2.170598 1_554
O42 Si10 1.654093 1_555
O42 Sn14 1.987439 1_555
O43 S4 1.496400 1_555
O43 Sn15 2.171817 1_555
O44 S5 1.489370 1_555
O44 Sn14 2.183757 1_555
O45 Si11 1.631875 1_555
O45 Sn15 1.931958 1_555
O46 S2 1.484236 1_555
O46 Sn14 2.143609 1_555
O47 S3 1.496862 1_555
O47 Sn15 2.116400 1_555
O48 S9 1.482343 1_555
O48 Sn16 2.118016 1_556
O49 Si15 1.627566 1_555
O49 Sn17 2.006587 1_556
O50 Si16 1.629343 1_555
O50 Sn16 1.940024 1_556
O51 Si17 1.627570 1_555
O51 Sn17 1.993563 1_556
O52 S10 1.488968 1_555
O52 Sn16 2.120480 1_556
O53 S11 1.464925 1_555
O53 Sn17 2.264620 1_556
O54 Si18 1.642935 1_555
O54 Sn18 1.960721 1_555
O55 S12 1.491366 1_555
O55 Sn19 2.111312 1_555
O56 S13 1.493334 1_555
O56 Sn18 2.201912 1_555
O57 S14 1.495472 1_555
O57 Sn19 2.097345 1_555
O58 Si19 1.646263 1_555
O58 Sn18 1.980076 1_555
O59 Si20 1.644517 1_555
O59 Sn19 1.934301 1_555
O60 Si19 1.611026 1_555
O60 Sn20 2.046975 1_555
O61 Si20 1.642473 1_555
O61 Sn21 1.983961 1_555
O62 Si18 1.615707 1_555
O62 Sn20 2.012594 1_555
O63 S12 1.474783 1_555
O63 Sn21 2.197923 1_555
O64 S13 1.460468 1_555
O64 Sn20 2.238618 1_555
O65 S14 1.475162 1_555
O65 Sn21 2.217319 1_555
O66 Si16 1.654339 1_555
O66 Sn22 1.984584 1_555
O67 Si17 1.627231 1_555
O67 Sn23 2.031143 1_555
O68 S10 1.493104 1_555
O68 Sn22 2.174266 1_555
O69 S11 1.475866 1_555
O69 Sn23 2.194422 1_555
O70 S9 1.493278 1_555
O70 Sn22 2.106412 1_555
O71 Si15 1.627145 1_555
O71 Sn23 2.000761 1_555
O72 Si19 1.671058 1_555
O72 Sn0 2.077571 1_455
O73 Si20 1.623872 1_555
O73 Sn1 2.036851 1_555
O74 Si18 1.627124 1_555
O74 Sn1 2.004576 1_555
O75 S12 1.470865 1_555
O75 Sn0 2.296651 1_555
O76 S13 1.491912 1_555
O76 Sn0 2.351086 1_445
O77 S14 1.461720 1_555
O77 Sn1 2.334031 1_545
O78 Si16 1.627963 1_555
O78 Sn2 2.006577 1_455
O79 Si17 1.671305 1_555
O79 Sn3 2.031370 1_555
O80 S10 1.475185 1_555
O80 Sn2 2.280933 1_465
O81 S11 1.495790 1_555
O81 Sn3 2.276218 1_565
O82 S9 1.473192 1_555
O82 Sn3 2.226102 1_565
O83 Si15 1.642316 1_555
O83 Sn2 1.990176 1_565
O84 S2 1.492841 1_555
O84 Sn5 2.267674 1_545
O85 S3 1.469391 1_555
O85 Sn4 2.216859 1_645
O86 Si10 1.633502 1_555
O86 Sn4 2.018048 1_545
O87 S4 1.481204 1_555
O87 Sn5 2.330427 1_545
O88 S5 1.501091 1_555
O88 Sn5 2.276575 1_555
O89 Si11 1.620396 1_555
O89 Sn4 2.038064 1_655
O90 Si12 1.606481 1_555
O90 Sn7 1.988448 1_555
O91 S6 1.491409 1_555
O91 Sn6 2.259628 1_565
O92 Si13 1.604255 1_555
O92 Sn7 2.033937 1_545
O93 S7 1.508712 1_555
O93 Sn6 2.224203 1_555
O94 S8 1.496415 1_555
O94 Sn6 2.253588 1_455
O95 Si14 1.609927 1_555
O95 Sn7 2.027399 1_545
O96 Si8 1.627478 1_545
O96 Sn8 2.001944 1_555
O97 Si9 1.675917 1_545
O97 Sn9 1.990529 1_555
O98 Si5 1.612174 1_555
O98 Sn8 1.969318 1_555
O99 Si6 1.628612 1_555
O99 Sn9 1.953502 1_555
O100 Si7 1.646788 1_555
O100 Sn8 2.013010 1_555
O101 S1 1.500357 1_655
O101 Sn9 2.215340 1_555
O102 Si2 1.654581 1_555
O102 Sn10 2.038902 1_555
O103 Si3 1.625715 1_555
O103 Sn11 2.019568 1_555
O104 S0 1.495734 1_555
O104 Sn10 2.258707 1_555
O105 Si4 1.642067 1_655
O105 Sn11 2.019497 1_555
O106 Si0 1.616012 1_555
O106 Sn10 2.006010 1_555
O107 Si1 1.616298 1_555
O107 Sn11 1.974718 1_555
O108 S9 1.477757 1_555
O108 Sn12 2.264156 1_555
O109 Si15 1.662831 1_555
O109 Sn13 2.024522 1_555
O110 Si17 1.645131 1_555
O110 Sn12 1.991457 1_555
O111 Si16 1.640900 1_655
O111 Sn13 1.990549 1_555
O112 S10 1.479036 1_545
O112 Sn12 2.287096 1_555
O113 S11 1.508811 1_545
O113 Sn13 2.222095 1_555
O114 Si18 1.658818 1_545
O114 Sn14 2.007740 1_555
O115 S12 1.498429 1_545
O115 Sn15 2.176231 1_555
O116 S13 1.504867 1_555
O116 Sn14 2.198135 1_555
O117 S14 1.500088 1_555
O117 Sn15 2.151812 1_555
O118 Si20 1.644495 1_555
O118 Sn14 1.974698 1_555
O119 Si19 1.651926 1_655
O119 Sn15 1.966180 1_555
O120 S8 1.494739 1_555
O120 Sn16 2.150725 1_555
O121 Si14 1.634520 1_555
O121 Sn17 1.989222 1_555
O122 S6 1.490131 1_455
O122 Sn16 2.152254 1_555
O123 Si12 1.643668 1_555
O123 Sn17 1.994454 1_555
O124 Si13 1.679653 1_565
O124 Sn16 1.949561 1_555
O125 S7 1.466000 1_565
O125 Sn17 2.319803 1_555
O126 Si10 1.663044 1_565
O126 Sn18 1.999783 1_555
O127 S4 1.487185 1_565
O127 Sn19 2.175188 1_555
O128 S5 1.492411 1_555
O128 Sn18 2.269043 1_555
O129 Si11 1.665030 1_555
O129 Sn19 1.969811 1_555
O130 S3 1.485865 1_455
O130 Sn18 2.248202 1_555
O131 S2 1.495116 1_555
O131 Sn19 2.147147 1_555
O132 Si0 1.624779 1_565
O132 Sn20 2.018317 1_555
O133 Si1 1.665001 1_565
O133 Sn21 1.984569 1_555
O134 Si2 1.613475 1_555
O134 Sn20 1.990165 1_555
O135 Si3 1.632902 1_555
O135 Sn21 1.962207 1_555
O136 Si4 1.621065 1_555
O136 Sn20 2.032487 1_555
O137 S0 1.510470 1_555
O137 Sn21 2.151862 1_555
O138 Si5 1.661812 1_555
O138 Sn22 2.020925 1_555
O139 Si6 1.618840 1_555
O139 Sn23 2.046437 1_555
O140 S1 1.491654 1_555
O140 Sn22 2.218394 1_555
O141 Si7 1.621475 1_555
O141 Sn23 2.051336 1_555
O142 Si8 1.634282 1_555
O142 Sn22 1.974883 1_555
O143 Si9 1.603305 1_555
O143 Sn23 2.028270 1_555
