# generated using pymatgen
data_Na10Sc6Nb2Si7S5O48
_symmetry_space_group_name_H-M   'P 1'
_cell_length_a   18.14731088
_cell_length_b   9.07010724
_cell_length_c   22.72290005
_cell_angle_alpha   90.02977102
_cell_angle_beta   90.04225194
_cell_angle_gamma   119.99946022
_symmetry_Int_Tables_number   1
_chemical_formula_structural   Na10Sc6Nb2Si7S5O48
_chemical_formula_sum   'Na30 Sc18 Nb6 Si21 S15 O144'
_cell_volume   3239.07576358
_cell_formula_units_Z   3
loop_
 _symmetry_equiv_pos_site_id
 _symmetry_equiv_pos_as_xyz
  1  'x, y, z'
loop_
 _atom_site_type_symbol
 _atom_site_label
 _atom_site_symmetry_multiplicity
 _atom_site_fract_x
 _atom_site_fract_y
 _atom_site_fract_z
 _atom_site_occupancy
  Na  Na0  1  0.31674844  0.00121778  0.24475210  1
  Na  Na1  1  0.81571962  0.01171034  0.24584754  1
  Na  Na2  1  0.18725845  0.36817495  0.24689886  1
  Na  Na3  1  0.31835590  0.62252048  0.74703188  1
  Na  Na4  1  0.81596889  0.63167807  0.74487031  1
  Na  Na5  1  0.68678196  0.00569404  0.74754715  1
  Na  Na6  1  0.16299166  0.33852214  0.58461817  1
  Na  Na7  1  0.65716646  0.33624891  0.57816745  1
  Na  Na8  1  0.01599533  0.69882022  0.57336900  1
  Na  Na9  1  0.15927922  0.98214694  0.08143605  1
  Na  Na10  1  0.66200896  0.98577417  0.08430149  1
  Na  Na11  1  0.51517362  0.33184096  0.07244655  1
  Na  Na12  1  0.85044060  0.02267520  0.92090457  1
  Na  Na13  1  0.66466798  0.31029504  0.91948313  1
  Na  Na14  1  0.48450594  0.29109041  0.42088897  1
  Na  Na15  1  0.16678236  0.02143242  0.42089839  1
  Na  Na16  1  0.66656552  0.05179642  0.41568156  1
  Na  Na17  1  0.84925432  0.65593160  0.41612322  1
  Na  Na18  1  0.99665380  0.99215407  0.49813070  1
  Na  Na19  1  0.48508820  0.97940747  0.49502117  1
  Na  Na20  1  0.99513598  0.99061513  0.99596448  1
  Na  Na21  1  0.48699457  -0.00022635  0.99489004  1
  Na  Na22  1  0.33725495  0.33117564  0.83226688  1
  Na  Na23  1  0.84083962  0.34344970  0.83193039  1
  Na  Na24  1  0.33542466  0.35069045  0.33212205  1
  Na  Na25  1  0.83779237  0.34389659  0.33015667  1
  Na  Na26  1  0.16691721  0.65194776  0.16186988  1
  Na  Na27  1  0.67624714  0.66987091  0.16295912  1
  Na  Na28  1  0.17779772  0.68764095  0.66232325  1
  Na  Na29  1  0.66695348  0.68336508  0.66112183  1
  Sc  Sc0  1  0.00395897  0.00518558  0.35017324  1
  Sc  Sc1  1  0.50030856  0.99345576  0.35206702  1
  Sc  Sc2  1  0.00262775  0.00793460  0.85145553  1
  Sc  Sc3  1  0.49933016  0.00307824  0.85116135  1
  Sc  Sc4  1  0.32744654  0.33246281  0.68637732  1
  Sc  Sc5  1  0.82580635  0.31934142  0.68433277  1
  Sc  Sc6  1  0.32584294  0.33125015  0.18403370  1
  Sc  Sc7  1  0.82717798  0.32250773  0.18594051  1
  Sc  Sc8  1  0.33259512  0.31601265  0.98007001  1
  Sc  Sc9  1  0.83007566  0.33520100  0.98612516  1
  Sc  Sc10  1  0.32712277  0.33259933  0.48632795  1
  Sc  Sc11  1  0.83231632  0.34654230  0.48091838  1
  Sc  Sc12  1  0.17156496  0.66407932  0.02188254  1
  Sc  Sc13  1  0.67579023  0.65851060  0.01841487  1
  Sc  Sc14  1  0.17735124  0.69398835  0.51846168  1
  Sc  Sc15  1  0.66911331  0.66561975  0.52212391  1
  Sc  Sc16  1  0.66517193  0.66074131  0.31277401  1
  Sc  Sc17  1  0.16448542  0.65701761  0.81302794  1
  Nb  Nb0  1  0.99897185  0.00694884  0.64954153  1
  Nb  Nb1  1  0.50476498  0.98709664  0.64554996  1
  Nb  Nb2  1  0.00464702  0.02238291  0.14521456  1
  Nb  Nb3  1  0.49829177  0.98913989  0.14900376  1
  Nb  Nb4  1  0.16346905  0.67880251  0.31069736  1
  Nb  Nb5  1  0.66232246  0.64524531  0.81083523  1
  Si  Si0  1  0.14507037  0.00116496  0.24947237  1
  Si  Si1  1  0.64792609  0.99609397  0.25382035  1
  Si  Si2  1  0.35406460  0.70205425  0.25314328  1
  Si  Si3  1  0.99822750  0.29574337  0.25375593  1
  Si  Si4  1  0.14782360  0.29702681  0.75257601  1
  Si  Si5  1  0.64411145  0.28629867  0.75012823  1
  Si  Si6  1  0.49846241  0.70193571  0.75440519  1
  Si  Si7  1  0.85438476  0.00632365  0.75499866  1
  Si  Si8  1  0.18525868  0.03613916  0.58496133  1
  Si  Si9  1  0.68737998  0.03457301  0.58159837  1
  Si  Si10  1  0.33190569  0.62728975  0.58481690  1
  Si  Si11  1  0.83442456  0.63043895  0.58589271  1
  Si  Si12  1  0.33406611  0.03984588  0.08616349  1
  Si  Si13  1  0.83202213  0.03741973  0.08228996  1
  Si  Si14  1  0.18878341  0.33786577  0.08221800  1
  Si  Si15  1  0.68532289  0.33408474  0.08506274  1
  Si  Si16  1  0.81871967  0.66677217  0.91494250  1
  Si  Si17  1  0.51546672  0.36958733  0.91920043  1
  Si  Si18  1  0.31693683  0.96970147  0.41482515  1
  Si  Si19  1  0.66548005  0.37371526  0.41774556  1
  Si  Si20  1  0.01765507  0.66341762  0.41885631  1
  S  S0  1  0.85613937  0.71188490  0.25038156  1
  S  S1  1  0.50167348  0.29335372  0.24881446  1
  S  S2  1  0.00236689  0.71197082  0.74932505  1
  S  S3  1  0.35503782  0.99929169  0.74995377  1
  S  S4  1  0.47882474  0.32940248  0.58377901  1
  S  S5  1  0.97801249  0.32882761  0.58339578  1
  S  S6  1  0.47763830  0.62597747  0.08298349  1
  S  S7  1  0.98026447  0.63011993  0.08418923  1
  S  S8  1  0.31253328  0.66547663  0.91604476  1
  S  S9  1  0.02048656  0.37720859  0.91723354  1
  S  S10  1  0.16524031  0.95336994  0.91699085  1
  S  S11  1  0.66582694  0.95554410  0.91668639  1
  S  S12  1  0.81268426  0.95785676  0.41603417  1
  S  S13  1  0.16633351  0.37697785  0.41646229  1
  S  S14  1  0.52111232  0.66303785  0.41721627  1
  O  O0  1  0.10347865  0.03020795  0.30782338  1
  O  O1  1  0.60418656  0.01665608  0.31251786  1
  O  O2  1  0.41105045  0.80220089  0.30824620  1
  O  O3  1  0.90287086  0.78757681  0.30599063  1
  O  O4  1  0.48928572  0.19031196  0.30193648  1
  O  O5  1  0.98084368  0.16481904  0.30672345  1
  O  O6  1  0.09896906  0.17730225  0.80723601  1
  O  O7  1  0.60232535  0.17293784  0.80788256  1
  O  O8  1  0.48119249  0.79873714  0.80698077  1
  O  O9  1  0.98768061  0.79227333  0.80054625  1
  O  O10  1  0.40446194  0.02045159  0.80360182  1
  O  O11  1  0.90802569  0.02215312  0.81298891  1
  O  O12  1  0.39643978  0.96997818  0.69787221  1
  O  O13  1  0.90451055  0.97346361  0.69783558  1
  O  O14  1  0.08580016  0.19649895  0.69289273  1
  O  O15  1  0.58505673  0.19440540  0.69134201  1
  O  O16  1  0.01401623  0.81676226  0.69470437  1
  O  O17  1  0.51490563  0.83218898  0.69459663  1
  O  O18  1  0.40150918  0.83052872  0.19464963  1
  O  O19  1  0.90098245  0.82595080  0.19955865  1
  O  O20  1  0.01442227  0.19725646  0.19441066  1
  O  O21  1  0.51166405  0.20651096  0.19541835  1
  O  O22  1  0.08592620  0.97669227  0.19104306  1
  O  O23  1  0.58349218  0.97734430  0.19568047  1
  O  O24  1  0.43669867  0.34894198  0.63516155  1
  O  O25  1  0.93876163  0.35336170  0.63633712  1
  O  O26  1  0.24619349  0.13433228  0.63917287  1
  O  O27  1  0.73831292  0.11931157  0.64248681  1
  O  O28  1  0.31961085  0.51746989  0.64408515  1
  O  O29  1  0.82357495  0.51662288  0.64374478  1
  O  O30  1  0.43845665  0.52269990  0.13608142  1
  O  O31  1  0.94247809  0.52934692  0.13696461  1
  O  O32  1  0.31956567  0.12151930  0.14569921  1
  O  O33  1  0.82084342  0.12811586  0.14055351  1
  O  O34  1  0.23675029  0.35842183  0.14470353  1
  O  O35  1  0.74664651  0.36008681  0.13932945  1
  O  O36  1  0.23184413  0.29152398  0.02870186  1
  O  O37  1  0.72218694  0.29200421  0.02468790  1
  O  O38  1  0.42617185  0.55186876  0.03026787  1
  O  O39  1  0.92805751  0.55070366  0.03087972  1
  O  O40  1  0.35910278  0.17060812  0.03078301  1
  O  O41  1  0.84992062  0.15142872  0.02238225  1
  O  O42  1  0.22016863  0.15048812  0.52420473  1
  O  O43  1  0.72816613  0.15854320  0.52493802  1
  O  O44  1  0.35016565  0.54143719  0.52766043  1
  O  O45  1  0.85745105  0.55665358  0.52696287  1
  O  O46  1  0.43043979  0.30790281  0.52828414  1
  O  O47  1  0.92657535  0.30096387  0.53054859  1
  O  O48  1  0.26805317  0.68581738  0.96742330  1
  O  O49  1  0.77216904  0.70173947  0.96981645  1
  O  O50  1  0.07058369  0.46550519  0.96949728  1
  O  O51  1  0.57492385  0.45977070  0.97645491  1
  O  O52  1  0.15730496  0.85731988  0.97169198  1
  O  O53  1  0.65625674  0.85803950  0.97045223  1
  O  O54  1  0.27087719  0.85439452  0.47172863  1
  O  O55  1  0.76912538  0.84715970  0.46705027  1
  O  O56  1  0.15659962  0.45521525  0.47017887  1
  O  O57  1  0.65139720  0.46040751  0.47664964  1
  O  O58  1  0.07617835  0.69502017  0.47635526  1
  O  O59  1  0.57425655  0.68698594  0.46922518  1
  O  O60  1  0.07391111  0.65268046  0.36057094  1
  O  O61  1  0.56231783  0.64330123  0.36355242  1
  O  O62  1  0.25270522  0.86236941  0.35670165  1
  O  O63  1  0.76234600  0.88267813  0.36118820  1
  O  O64  1  0.17414906  0.47685107  0.36266682  1
  O  O65  1  0.67955095  0.50173075  0.36223311  1
  O  O66  1  0.06278294  0.47705045  0.86332600  1
  O  O67  1  0.57361011  0.49533835  0.86080006  1
  O  O68  1  0.17238774  0.86121878  0.86511698  1
  O  O69  1  0.67601648  0.87121071  0.86344114  1
  O  O70  1  0.26299433  0.65028854  0.86118682  1
  O  O71  1  0.75422728  0.64514682  0.85627297  1
  O  O72  1  0.00826624  0.83507042  0.41151944  1
  O  O73  1  0.51244946  0.81668016  0.41350342  1
  O  O74  1  0.41211318  0.00069824  0.40915626  1
  O  O75  1  0.89670854  0.96720045  0.41238296  1
  O  O76  1  0.09047384  0.20127456  0.41272058  1
  O  O77  1  0.58213246  0.18344722  0.41321971  1
  O  O78  1  0.01205886  0.20508988  0.91500452  1
  O  O79  1  0.51348201  0.18754217  0.91153991  1
  O  O80  1  0.08869355  0.97036841  0.91265051  1
  O  O81  1  0.59213458  0.98281243  0.91222837  1
  O  O82  1  0.39732451  0.82065307  0.91340374  1
  O  O83  1  0.91104486  0.83762737  0.91015051  1
  O  O84  1  0.48937409  0.17541608  0.58848034  1
  O  O85  1  0.98774345  0.17195829  0.58955851  1
  O  O86  1  0.08905159  0.02410691  0.59384911  1
  O  O87  1  0.59155883  0.02796401  0.58974334  1
  O  O88  1  0.41521988  0.82420338  0.59441237  1
  O  O89  1  0.92140176  0.82161455  0.59460938  1
  O  O90  1  0.48812529  0.80285729  0.08966432  1
  O  O91  1  0.99030230  0.80513330  0.08893850  1
  O  O92  1  0.42064307  0.02129643  0.09437052  1
  O  O93  1  0.91536265  0.00715142  0.09408759  1
  O  O94  1  0.09157940  0.15571662  0.08954792  1
  O  O95  1  0.58940909  0.15368407  0.09387155  1
  O  O96  1  0.34522475  0.14851961  0.74313584  1
  O  O97  1  0.84051342  0.16707803  0.74651680  1
  O  O98  1  0.24252598  0.32341963  0.74714186  1
  O  O99  1  0.74100723  0.32078701  0.74581082  1
  O  O100  1  0.41872168  0.51634362  0.74435599  1
  O  O101  1  0.92642093  0.54258115  0.74268196  1
  O  O102  1  0.33971503  0.51283087  0.24604809  1
  O  O103  1  0.84674578  0.54389198  0.24396141  1
  O  O104  1  0.42512456  0.30874295  0.24237961  1
  O  O105  1  0.91804431  0.32020732  0.24422503  1
  O  O106  1  0.24132948  0.16152564  0.24588191  1
  O  O107  1  0.74203144  0.16288182  0.24675201  1
  O  O108  1  0.31913234  0.51144680  0.92106016  1
  O  O109  1  0.81695929  0.48493128  0.91823093  1
  O  O110  1  0.42392133  0.35881896  0.91802089  1
  O  O111  1  0.93344540  0.35411683  0.91914105  1
  O  O112  1  0.24322438  0.12344280  0.91882294  1
  O  O113  1  0.74575964  0.12668797  0.91867444  1
  O  O114  1  0.32037649  0.15506718  0.41692250  1
  O  O115  1  0.82120639  0.12686962  0.42263402  1
  O  O116  1  0.24322373  0.35738581  0.41831749  1
  O  O117  1  0.75171031  0.35665134  0.42029033  1
  O  O118  1  0.43702009  0.50541038  0.42158205  1
  O  O119  1  0.92428879  0.49534204  0.41774013  1
  O  O120  1  0.16955242  0.49291429  0.07558706  1
  O  O121  1  0.66298243  0.48624144  0.08162422  1
  O  O122  1  0.06807961  0.65903104  0.07674519  1
  O  O123  1  0.56459711  0.65367931  0.07791799  1
  O  O124  1  0.24699599  0.85736520  0.07645723  1
  O  O125  1  0.74351175  0.85530273  0.07758996  1
  O  O126  1  0.16258745  0.83899992  0.58208122  1
  O  O127  1  0.66791869  0.84203671  0.57615847  1
  O  O128  1  0.24354776  0.63226434  0.57820305  1
  O  O129  1  0.74775687  0.63997894  0.57966087  1
  O  O130  1  0.06481774  0.47505877  0.57802386  1
  O  O131  1  0.56603777  0.47937965  0.57996217  1
  O  O132  1  0.15410476  0.82695614  0.25320655  1
  O  O133  1  0.65955412  0.82736432  0.25263468  1
  O  O134  1  0.25900124  0.68895460  0.25645986  1
  O  O135  1  0.77174537  0.70395113  0.25293685  1
  O  O136  1  0.09097474  0.47259380  0.25868170  1
  O  O137  1  0.57881836  0.46262096  0.25199503  1
  O  O138  1  0.15799666  0.48921960  0.75458960  1
  O  O139  1  0.65365659  0.47939529  0.75358126  1
  O  O140  1  0.08003511  0.69885727  0.75460632  1
  O  O141  1  0.59126228  0.70977437  0.75923508  1
  O  O142  1  0.26962500  0.83979661  0.75483367  1
  O  O143  1  0.75961349  0.82911561  0.75670804  1
loop_
_geom_bond_atom_site_label_1
_geom_bond_atom_site_label_2
_geom_bond_distance
_geom_bond_site_symmetry_2
Na0 O106 2.444999 1_555
Na0 O104 2.483080 1_555
Na0 O32 2.491208 1_555
Na0 O134 2.494763 1_545
Na0 O132 2.565703 1_545
Na0 O62 2.819897 1_545
Na0 O18 2.905342 1_545
Na0 O4 3.009211 1_555
Na1 O107 2.345677 1_555
Na1 O105 2.466439 1_555
Na1 O133 2.472533 1_545
Na1 O135 2.495566 1_545
Na1 O33 2.598582 1_555
Na1 O63 2.837289 1_545
Na1 O5 2.941418 1_555
Na1 O19 2.991097 1_545
Na2 O136 2.382631 1_555
Na2 O102 2.397185 1_555
Na2 O34 2.507846 1_555
Na2 O106 2.513091 1_555
Na2 O134 2.533467 1_555
Na2 O64 2.860228 1_555
Na2 O20 2.965424 1_555
Na2 O0 2.995288 1_555
Na3 O98 2.349519 1_555
Na3 O100 2.450028 1_555
Na3 O28 2.529808 1_555
Na3 O142 2.537680 1_555
Na3 O138 2.538204 1_555
Na3 O70 2.838566 1_555
Na3 O8 2.900226 1_555
Na3 O12 2.954306 1_555
Na4 O99 2.442662 1_555
Na4 O143 2.481222 1_555
Na4 O101 2.508596 1_555
Na4 O29 2.555441 1_555
Na4 O139 2.560447 1_555
Na4 O71 2.796247 1_555
Na4 O13 2.891226 1_555
Na4 O9 2.980897 1_555
Na5 O141 2.372387 1_545
Na5 O97 2.417184 1_555
Na5 O99 2.515063 1_555
Na5 O143 2.544013 1_545
Na5 O27 2.584132 1_555
Na5 O69 2.868252 1_545
Na5 O17 2.955842 1_545
Na5 O7 2.975826 1_555
Na6 O128 2.315735 1_555
Na6 O86 2.480252 1_555
Na6 O130 2.633677 1_555
Na6 O85 2.757778 1_455
Na6 O42 2.763889 1_555
Na6 O14 2.806905 1_555
Na6 O28 2.813802 1_555
Na6 O56 2.832126 1_555
Na7 O129 2.400843 1_555
Na7 O87 2.444887 1_555
Na7 O131 2.562965 1_555
Na7 O57 2.592413 1_555
Na7 O84 2.648468 1_555
Na7 O43 2.792486 1_555
Na7 O15 2.881992 1_555
Na8 O126 2.312868 1_555
Na8 O58 2.468733 1_555
Na8 O89 2.516488 1_455
Na8 O130 2.591029 1_555
Na8 O86 2.601000 1_565
Na8 O45 2.708661 1_455
Na9 O124 2.372623 1_555
Na9 O94 2.440471 1_565
Na9 O122 2.547267 1_555
Na9 O91 2.662308 1_455
Na9 O36 2.711963 1_565
Na9 O52 2.730948 1_554
Na9 O22 2.813651 1_555
Na9 O32 2.916521 1_565
Na10 O125 2.315533 1_555
Na10 O95 2.471643 1_565
Na10 O123 2.625548 1_555
Na10 O90 2.736843 1_555
Na10 O37 2.777614 1_565
Na10 O33 2.807228 1_565
Na10 O53 2.814466 1_554
Na10 O23 2.887541 1_555
Na11 O121 2.332834 1_555
Na11 O51 2.455148 1_554
Na11 O92 2.509092 1_555
Na11 O123 2.592765 1_555
Na11 O95 2.615291 1_555
Na11 O40 2.628571 1_555
Na12 O83 2.435606 1_545
Na12 O113 2.508667 1_555
Na12 O78 2.550650 1_655
Na12 O41 2.586338 1_556
Na12 O111 2.603821 1_555
Na12 O11 2.667183 1_555
Na12 O49 2.756327 1_545
Na13 O79 2.396676 1_555
Na13 O109 2.402152 1_555
Na13 O81 2.583011 1_545
Na13 O37 2.646079 1_556
Na13 O113 2.718445 1_555
Na13 O7 2.801042 1_555
Na13 O51 2.894068 1_555
Na13 O71 3.000103 1_555
Na14 O74 2.296284 1_555
Na14 O77 2.419165 1_555
Na14 O118 2.489320 1_555
Na14 O114 2.593567 1_555
Na14 O46 2.663435 1_555
Na14 O4 2.868105 1_555
Na14 O57 2.911648 1_555
Na15 O114 2.422507 1_555
Na15 O72 2.512772 1_545
Na15 O42 2.584363 1_555
Na15 O76 2.621396 1_555
Na15 O116 2.643137 1_555
Na15 O0 2.831101 1_555
Na15 O58 2.862809 1_545
Na15 O62 2.981842 1_545
Na16 O77 2.367751 1_555
Na16 O117 2.402319 1_555
Na16 O73 2.531347 1_545
Na16 O115 2.540158 1_555
Na16 O1 2.552003 1_555
Na16 O43 2.694734 1_555
Na17 O117 2.388818 1_555
Na17 O119 2.441393 1_555
Na17 O75 2.507716 1_555
Na17 O72 2.507976 1_655
Na17 O45 2.704078 1_555
Na17 O3 2.734965 1_555
Na17 O65 2.936902 1_555
Na17 O55 2.997405 1_555
Na18 O72 2.499112 1_655
Na18 O75 2.592510 1_555
Na18 O89 2.638036 1_555
Na18 O76 2.653749 1_665
Na18 O86 2.670992 1_665
Na18 O85 2.694903 1_565
Na19 O74 2.418711 1_565
Na19 O73 2.566600 1_555
Na19 O77 2.594355 1_565
Na19 O88 2.629182 1_555
Na19 O84 2.744849 1_565
Na19 O87 2.775212 1_565
Na20 O83 2.435530 1_555
Na20 O78 2.582631 1_665
Na20 O80 2.610830 1_655
Na20 O91 2.675370 1_556
Na20 O94 2.682897 1_666
Na20 O93 2.703903 1_566
Na21 O79 2.429955 1_555
Na21 O82 2.462652 1_545
Na21 O92 2.614645 1_556
Na21 O81 2.736920 1_545
Na21 O95 2.803167 1_556
Na21 O90 2.805129 1_546
Na22 O110 2.435991 1_555
Na22 O100 2.553753 1_555
Na22 O98 2.564305 1_555
Na22 O96 2.665344 1_555
Na22 O112 2.669064 1_555
Na22 O108 2.718050 1_555
Na23 O109 2.496959 1_555
Na23 O97 2.512622 1_555
Na23 O111 2.567673 1_555
Na23 O99 2.603044 1_555
Na23 O101 2.643923 1_555
Na23 O113 2.710064 1_555
Na24 O102 2.425465 1_555
Na24 O114 2.540785 1_555
Na24 O116 2.597259 1_555
Na24 O106 2.600304 1_555
Na24 O118 2.627735 1_555
Na24 O104 2.752510 1_555
Na25 O119 2.479490 1_555
Na25 O105 2.509287 1_555
Na25 O107 2.538917 1_555
Na25 O117 2.614119 1_555
Na25 O103 2.619636 1_555
Na25 O115 2.791749 1_555
Na26 O120 2.448074 1_555
Na26 O124 2.578833 1_555
Na26 O134 2.637795 1_555
Na26 O122 2.659501 1_555
Na26 O136 2.674187 1_555
Na26 O132 2.692120 1_555
Na27 O121 2.417210 1_555
Na27 O125 2.456751 1_555
Na27 O133 2.591355 1_555
Na27 O135 2.595688 1_555
Na27 O137 2.727361 1_555
Na27 O123 2.749057 1_555
Na28 O126 2.380381 1_555
Na28 O128 2.435424 1_555
Na28 O142 2.606237 1_555
Na28 O138 2.668700 1_555
Na28 O130 2.761853 1_555
Na28 O140 2.782227 1_555
Na29 O127 2.403438 1_555
Na29 O129 2.512303 1_555
Na29 O131 2.604074 1_555
Na29 O143 2.657339 1_555
Na29 O141 2.692102 1_555
Na29 O139 2.730052 1_555
Nb0 O14 1.922488 1_655
Nb0 O13 1.928089 1_545
Nb0 O89 1.998585 1_545
Nb0 O86 2.011669 1_655
Nb0 O85 2.108530 1_555
Nb0 O16 2.139095 1_645
Nb1 O17 1.873479 1_555
Nb1 O87 1.909428 1_565
Nb1 O88 1.941223 1_555
Nb1 O15 1.999341 1_565
Nb1 O12 2.236170 1_555
Nb1 O84 2.270689 1_565
Nb2 O20 1.874407 1_555
Nb2 O94 1.909977 1_555
Nb2 O93 1.940941 1_455
Nb2 O22 2.010280 1_545
Nb2 O19 2.211847 1_445
Nb2 O91 2.251601 1_445
Nb3 O23 1.920964 1_555
Nb3 O18 1.925548 1_555
Nb3 O92 2.005140 1_565
Nb3 O95 2.016978 1_565
Nb3 O90 2.095813 1_555
Nb3 O21 2.139480 1_565
Nb4 O60 1.897306 1_555
Nb4 O132 1.941910 1_555
Nb4 O62 1.945976 1_555
Nb4 O136 2.039797 1_555
Nb4 O134 2.092022 1_555
Nb4 O64 2.268083 1_555
Nb5 O67 1.882785 1_555
Nb5 O139 1.934224 1_555
Nb5 O71 1.961276 1_555
Nb5 O141 2.033100 1_555
Nb5 O143 2.114748 1_555
Nb5 O69 2.275722 1_555
O0 Si0 1.611533 1_555
O0 Sc0 1.957589 1_555
O1 Si1 1.610319 1_545
O1 Sc1 2.002882 1_545
O2 Si2 1.587404 1_555
O2 Sc1 1.952032 1_555
O3 S0 1.484087 1_555
O3 Sc0 2.154850 1_665
O4 S1 1.473956 1_555
O4 Sc1 2.210104 1_545
O5 Si3 1.608011 1_555
O5 Sc0 1.963506 1_655
O6 Si4 1.596300 1_555
O6 Sc2 1.935103 1_555
O7 Si5 1.605509 1_555
O7 Sc3 1.989703 1_555
O8 Si6 1.603423 1_555
O8 Sc3 1.984640 1_565
O9 S2 1.466243 1_655
O9 Sc2 2.169009 1_665
O10 S3 1.467432 1_545
O10 Sc3 2.103653 1_555
O11 Si7 1.600843 1_555
O11 Sc2 1.986768 1_655
O12 S3 1.495485 1_555
O13 Si7 1.695851 1_565
O14 Si4 1.705190 1_555
O15 Si5 1.652592 1_555
O16 S2 1.513009 1_555
O17 Si6 1.726690 1_555
O18 Si2 1.692875 1_555
O19 S0 1.492311 1_555
O20 Si3 1.721811 1_455
O21 S1 1.505844 1_555
O22 Si0 1.650260 1_565
O23 Si1 1.714686 1_555
O24 S4 1.454514 1_555
O24 Sc4 2.239371 1_555
O25 S5 1.470897 1_555
O25 Sc5 2.203994 1_555
O26 Si8 1.595450 1_555
O26 Sc4 1.974861 1_555
O27 Si9 1.626626 1_555
O27 Sc5 1.957590 1_555
O28 Si10 1.623354 1_555
O28 Sc4 1.999905 1_555
O29 Si11 1.622062 1_555
O29 Sc5 2.031791 1_555
O30 S6 1.474851 1_555
O30 Sc6 2.199007 1_555
O31 S7 1.455799 1_555
O31 Sc7 2.283941 1_555
O32 Si12 1.625594 1_555
O32 Sc6 2.042511 1_555
O33 Si13 1.623811 1_555
O33 Sc7 1.995198 1_555
O34 Si14 1.626060 1_555
O34 Sc6 1.967230 1_555
O35 Si15 1.596817 1_555
O35 Sc7 1.967215 1_555
O36 Si14 1.611023 1_555
O36 Sc8 2.051955 1_554
O37 Si15 1.652707 1_555
O37 Sc9 1.997615 1_554
O38 S6 1.459010 1_555
O38 Sc8 2.263418 1_554
O39 S7 1.482830 1_555
O39 Sc9 2.129842 1_554
O40 Si12 1.631015 1_555
O40 Sc8 1.983380 1_554
O41 Si13 1.641380 1_555
O41 Sc9 2.046472 1_554
O42 Si8 1.651888 1_555
O42 Sc10 2.008564 1_555
O43 Si9 1.624949 1_555
O43 Sc11 2.064498 1_555
O44 Si10 1.631122 1_555
O44 Sc10 1.962237 1_555
O45 Si11 1.641681 1_555
O45 Sc11 2.015569 1_555
O46 S4 1.491989 1_555
O46 Sc10 2.211785 1_555
O47 S5 1.462648 1_555
O47 Sc11 2.252432 1_555
O48 S8 1.482791 1_555
O48 Sc12 2.072302 1_556
O49 Si16 1.624202 1_555
O49 Sc13 1.936440 1_556
O50 S9 1.465467 1_555
O50 Sc12 2.170964 1_556
O51 Si17 1.624844 1_555
O51 Sc13 2.050635 1_556
O52 S10 1.483444 1_555
O52 Sc12 2.212432 1_556
O53 S11 1.467215 1_555
O53 Sc13 2.287271 1_556
O54 Si18 1.610332 1_555
O54 Sc14 1.913116 1_555
O55 S12 1.478401 1_555
O55 Sc15 2.142065 1_555
O56 S13 1.466079 1_555
O56 Sc14 2.284100 1_555
O57 Si19 1.635684 1_555
O57 Sc15 2.008638 1_555
O58 Si20 1.615640 1_555
O58 Sc14 2.073902 1_555
O59 S14 1.470545 1_555
O59 Sc15 2.185491 1_555
O60 Si20 1.705011 1_555
O61 S14 1.487654 1_555
O61 Sc16 2.132695 1_555
O62 Si18 1.706581 1_555
O63 S12 1.492367 1_555
O63 Sc16 2.194816 1_555
O64 S13 1.485888 1_555
O65 Si19 1.646220 1_555
O65 Sc16 1.946481 1_555
O66 S9 1.489011 1_555
O66 Sc17 2.090338 1_555
O67 Si17 1.724943 1_555
O68 S10 1.487422 1_555
O68 Sc17 2.140969 1_555
O69 S11 1.491281 1_555
O70 S8 1.501780 1_555
O70 Sc17 2.122098 1_555
O71 Si16 1.718535 1_555
O72 Si20 1.657191 1_555
O72 Sc0 2.110132 1_565
O73 S14 1.480877 1_555
O73 Sc1 2.218858 1_555
O74 Si18 1.610472 1_545
O74 Sc1 2.087311 1_545
O75 S12 1.486639 1_555
O75 Sc0 2.288897 1_665
O76 S13 1.499311 1_555
O76 Sc0 2.202255 1_555
O77 Si19 1.632766 1_555
O77 Sc1 2.130971 1_545
O78 S9 1.491392 1_555
O78 Sc2 2.236764 1_555
O79 Si17 1.642614 1_555
O79 Sc3 2.077253 1_555
O80 S10 1.475509 1_555
O80 Sc2 2.240208 1_565
O81 S11 1.480009 1_555
O81 Sc3 2.258765 1_565
O82 S8 1.478786 1_555
O82 Sc3 2.260130 1_565
O83 Si16 1.620053 1_555
O83 Sc2 2.089327 1_665
O84 S4 1.505411 1_555
O85 S5 1.525332 1_555
O86 Si8 1.706128 1_555
O87 Si9 1.719842 1_555
O88 Si10 1.679932 1_555
O89 Si11 1.673196 1_555
O90 S6 1.525612 1_555
O91 S7 1.508401 1_555
O92 Si12 1.671973 1_555
O93 Si13 1.687984 1_555
O94 Si14 1.719109 1_555
O95 Si15 1.702902 1_555
O96 S3 1.459082 1_545
O96 Sc4 2.256291 1_555
O97 Si7 1.610496 1_555
O97 Sc5 2.084502 1_555
O98 Si4 1.617115 1_555
O98 Sc4 2.040826 1_555
O99 Si5 1.627785 1_555
O99 Sc5 2.084019 1_555
O100 Si6 1.594692 1_555
O100 Sc4 2.119647 1_555
O101 S2 1.471311 1_655
O101 Sc5 2.342701 1_555
O102 Si2 1.610012 1_555
O102 Sc6 2.084226 1_555
O103 S0 1.453285 1_555
O103 Sc7 2.275916 1_555
O104 S1 1.471136 1_555
O104 Sc6 2.325951 1_555
O105 Si3 1.592462 1_555
O105 Sc7 2.122451 1_555
O106 Si0 1.622735 1_555
O106 Sc6 2.083641 1_555
O107 Si1 1.627262 1_545
O107 Sc7 2.039927 1_555
O108 S8 1.465119 1_555
O108 Sc8 2.331272 1_555
O109 Si16 1.635326 1_555
O109 Sc9 2.146156 1_555
O110 Si17 1.614887 1_555
O110 Sc8 2.060569 1_555
O111 S9 1.486624 1_655
O111 Sc9 2.355361 1_555
O112 S10 1.483543 1_545
O112 Sc8 2.186178 1_555
O113 S11 1.504645 1_545
O113 Sc9 2.316653 1_555
O114 Si18 1.651624 1_545
O114 Sc10 2.212468 1_555
O115 S12 1.469368 1_545
O115 Sc11 2.315101 1_555
O116 S13 1.492726 1_555
O116 Sc10 2.257454 1_555
O117 Si19 1.648669 1_555
O117 Sc11 2.043850 1_555
O118 S14 1.483684 1_555
O118 Sc10 2.340827 1_555
O119 Si20 1.616296 1_655
O119 Sc11 2.102652 1_555
O120 Si14 1.616514 1_555
O120 Sc12 1.961139 1_555
O121 Si15 1.623160 1_555
O121 Sc13 2.048914 1_555
O122 S7 1.489808 1_455
O122 Sc12 2.236189 1_555
O123 S6 1.473255 1_555
O123 Sc13 2.411941 1_555
O124 Si12 1.633603 1_565
O124 Sc12 2.020040 1_555
O125 Si13 1.632877 1_565
O125 Sc13 2.075051 1_555
O126 Si8 1.623255 1_565
O126 Sc14 2.059738 1_555
O127 Si9 1.603942 1_565
O127 Sc15 2.025115 1_555
O128 Si10 1.633310 1_555
O128 Sc14 2.066452 1_555
O129 Si11 1.623874 1_555
O129 Sc15 2.032161 1_555
O130 S5 1.471975 1_455
O130 Sc14 2.428389 1_555
O131 S4 1.486697 1_555
O131 Sc15 2.219432 1_555
O132 Si0 1.670312 1_565
O133 Si1 1.646289 1_555
O133 Sc16 2.077939 1_555
O134 Si2 1.670674 1_555
O135 S0 1.498014 1_555
O135 Sc16 2.233656 1_555
O136 Si3 1.648684 1_455
O137 S1 1.473987 1_555
O137 Sc16 2.184147 1_555
O138 Si4 1.659230 1_555
O138 Sc17 1.977860 1_555
O139 Si5 1.673336 1_555
O140 S2 1.477349 1_555
O140 Sc17 2.198656 1_555
O141 Si6 1.653231 1_555
O142 S3 1.505239 1_555
O142 Sc17 2.231672 1_555
O143 Si7 1.666938 1_565
