# generated using pymatgen
data_Na3AlGe3(PO4)6
_symmetry_space_group_name_H-M   'P 1'
_cell_length_a   8.41457488
_cell_length_b   8.41616939
_cell_length_c   21.71381082
_cell_angle_alpha   90.01947771
_cell_angle_beta   89.96612312
_cell_angle_gamma   120.23720467
_symmetry_Int_Tables_number   1
_chemical_formula_structural   Na3AlGe3(PO4)6
_chemical_formula_sum   'Na9 Al3 Ge9 P18 O72'
_cell_volume   1328.52648864
_cell_formula_units_Z   3
loop_
 _symmetry_equiv_pos_site_id
 _symmetry_equiv_pos_as_xyz
  1  'x, y, z'
loop_
 _atom_site_type_symbol
 _atom_site_label
 _atom_site_symmetry_multiplicity
 _atom_site_fract_x
 _atom_site_fract_y
 _atom_site_fract_z
 _atom_site_occupancy
  Na  Na0  1  0.36473399  0.36275985  0.24844646  1
  Na  Na1  1  0.63587374  0.63391543  0.74924612  1
  Na  Na2  1  0.96914098  0.30043242  0.41563569  1
  Na  Na3  1  0.00062957  0.99368725  0.49999744  1
  Na  Na4  1  0.99992806  0.99997970  0.00111929  1
  Na  Na5  1  0.66729953  0.32713559  0.83397400  1
  Na  Na6  1  0.66693497  0.33354067  0.33116140  1
  Na  Na7  1  0.33278541  0.67303364  0.16512252  1
  Na  Na8  1  0.32752419  0.66754736  0.66557161  1
  Al  Al0  1  -0.00011081  0.99501940  0.35253748  1
  Al  Al1  1  0.66701579  0.32869026  0.68625291  1
  Al  Al2  1  0.67096262  0.33252979  0.18582812  1
  Ge  Ge0  1  0.00072683  0.00117962  0.85462670  1
  Ge  Ge1  1  0.00120590  0.00084863  0.64565115  1
  Ge  Ge2  1  0.99864072  0.99783284  0.14594504  1
  Ge  Ge3  1  0.66720799  0.33306458  0.98177262  1
  Ge  Ge4  1  0.66238884  0.33348537  0.48210326  1
  Ge  Ge5  1  0.33290585  0.66683697  0.02138042  1
  Ge  Ge6  1  0.33391624  0.66832629  0.52108705  1
  Ge  Ge7  1  0.33391999  0.67208605  0.31258594  1
  Ge  Ge8  1  0.32905121  0.66751781  0.81512453  1
  P  P0  1  0.28690734  0.99808969  0.25026664  1
  P  P1  1  0.71649184  0.71396791  0.25054865  1
  P  P2  1  0.99293719  0.28514360  0.25110345  1
  P  P3  1  0.28553567  0.28454590  0.75023402  1
  P  P4  1  0.00367386  0.71310634  0.75001742  1
  P  P5  1  0.71429669  0.00600059  0.75045476  1
  P  P6  1  0.95441734  0.33364837  0.58398700  1
  P  P7  1  0.37904336  0.04556491  0.58428663  1
  P  P8  1  0.66612995  0.62074933  0.58451736  1
  P  P9  1  0.95362572  0.62026919  0.08386945  1
  P  P10  1  0.66691484  0.04650495  0.08399345  1
  P  P11  1  0.37933343  0.33347253  0.08416185  1
  P  P12  1  0.62105843  0.66558858  0.91705610  1
  P  P13  1  0.04450670  0.37873294  0.91737523  1
  P  P14  1  0.33399367  0.95525375  0.91728568  1
  P  P15  1  0.61958658  0.95188693  0.41722829  1
  P  P16  1  0.33724585  0.37914907  0.41683161  1
  P  P17  1  0.04688370  0.67261373  0.41734822  1
  O  O0  1  0.20478651  0.03848559  0.30710147  1
  O  O1  1  0.83122626  0.79791036  0.30804949  1
  O  O2  1  0.96718013  0.17342798  0.30989535  1
  O  O3  1  0.20485667  0.16672249  0.80841334  1
  O  O4  1  0.95764349  0.79296042  0.80742963  1
  O  O5  1  0.83205537  0.03791052  0.80842749  1
  O  O6  1  0.79133077  0.95432293  0.69326780  1
  O  O7  1  0.16518333  0.20627189  0.69218558  1
  O  O8  1  0.04140417  0.83373535  0.69217929  1
  O  O9  1  0.79228535  0.83301207  0.19187860  1
  O  O10  1  0.04501319  0.20849005  0.19389749  1
  O  O11  1  0.16748834  0.95918100  0.19182665  1
  O  O12  1  0.86927254  0.36835902  0.64006526  1
  O  O13  1  0.49752305  0.12980944  0.64082863  1
  O  O14  1  0.63241394  0.50560656  0.64251410  1
  O  O15  1  0.87053532  0.50237644  0.14057919  1
  O  O16  1  0.63106250  0.12910665  0.14051988  1
  O  O17  1  0.49416681  0.36776242  0.14222238  1
  O  O18  1  0.45865458  0.29476801  0.02514382  1
  O  O19  1  0.83699945  0.54282930  0.02421496  1
  O  O20  1  0.70608204  0.16287305  0.02433547  1
  O  O21  1  0.45625238  0.16230970  0.52467876  1
  O  O22  1  0.70573807  0.54184468  0.52560701  1
  O  O23  1  0.84027325  0.29530284  0.52325021  1
  O  O24  1  0.53804046  0.70521268  0.97365463  1
  O  O25  1  0.16638797  0.46058633  0.97440389  1
  O  O26  1  0.29394392  0.83355290  0.97430101  1
  O  O27  1  0.53821498  0.83343915  0.47525840  1
  O  O28  1  0.29185803  0.46118025  0.47366207  1
  O  O29  1  0.16511653  0.70451218  0.47521239  1
  O  O30  1  0.12419431  0.62046865  0.36031533  1
  O  O31  1  0.49902637  0.87367182  0.35927189  1
  O  O32  1  0.37374352  0.49681162  0.35776345  1
  O  O33  1  0.12409678  0.49688015  0.85827931  1
  O  O34  1  0.37324800  0.87597896  0.85832960  1
  O  O35  1  0.50567664  0.62865756  0.85678114  1
  O  O36  1  0.02672917  0.84003870  0.40925095  1
  O  O37  1  0.81259465  0.97837203  0.40977546  1
  O  O38  1  0.16384989  0.18987462  0.40953363  1
  O  O39  1  0.02679838  0.18770794  0.90976139  1
  O  O40  1  0.16064566  0.97273546  0.90945937  1
  O  O41  1  0.81285193  0.83943179  0.90947587  1
  O  O42  1  0.97489995  0.16118266  0.58985930  1
  O  O43  1  0.18542387  0.02417427  0.58986979  1
  O  O44  1  0.83893361  0.81479704  0.59013107  1
  O  O45  1  0.97576192  0.81415851  0.08958859  1
  O  O46  1  0.83891817  0.02494778  0.09007048  1
  O  O47  1  0.18499834  0.16112123  0.09007987  1
  O  O48  1  0.69322818  0.17304955  0.74238911  1
  O  O49  1  0.47891856  0.31152170  0.74263025  1
  O  O50  1  0.83045093  0.52355703  0.74238378  1
  O  O51  1  0.68729892  0.51973125  0.24257548  1
  O  O52  1  0.82690785  0.30751240  0.24277762  1
  O  O53  1  0.47755994  0.17013165  0.24232106  1
  O  O54  1  0.64027429  0.49363769  0.92341139  1
  O  O55  1  0.85287846  0.35911756  0.92364872  1
  O  O56  1  0.50640246  0.14758614  0.92374404  1
  O  O57  1  0.64273325  0.14752229  0.42406847  1
  O  O58  1  0.50997133  0.36216035  0.42405877  1
  O  O59  1  0.85534137  0.49321265  0.42432760  1
  O  O60  1  0.36023007  0.50635519  0.07607958  1
  O  O61  1  0.14625737  0.64001846  0.07596497  1
  O  O62  1  0.49367493  0.85322015  0.07586906  1
  O  O63  1  0.35967910  0.85350570  0.57650423  1
  O  O64  1  0.49335729  0.63943190  0.57640475  1
  O  O65  1  0.14732872  0.50643745  0.57612538  1
  O  O66  1  0.30550183  0.82488055  0.25698859  1
  O  O67  1  0.51818602  0.68890877  0.25685470  1
  O  O68  1  0.17343727  0.47887304  0.25734748  1
  O  O69  1  0.30929206  0.48062492  0.75716967  1
  O  O70  1  0.17615090  0.69517531  0.75727801  1
  O  O71  1  0.52232758  0.82658442  0.75740797  1
loop_
_geom_bond_atom_site_label_1
_geom_bond_atom_site_label_2
_geom_bond_distance
_geom_bond_site_symmetry_2
Na0 O53 2.257684 1_555
Na0 O68 2.273147 1_555
Na0 O51 2.348813 1_555
Na0 O67 2.380219 1_555
Na0 O17 2.541447 1_555
Na0 O10 2.609828 1_555
Na0 O32 2.612515 1_555
Na0 O0 2.680052 1_555
Na1 O50 2.257604 1_555
Na1 O71 2.265753 1_555
Na1 O49 2.349000 1_555
Na1 O69 2.382154 1_555
Na1 O14 2.550443 1_555
Na1 O35 2.569556 1_555
Na1 O6 2.628289 1_555
Na1 O4 2.659221 1_555
Na2 O38 2.258921 1_655
Na2 O59 2.269213 1_555
Na2 O37 2.345676 1_545
Na2 O57 2.381811 1_555
Na2 O2 2.528863 1_555
Na2 O23 2.566692 1_555
Na2 O30 2.619348 1_655
Na2 O28 2.663587 1_655
Na3 O44 2.425716 1_455
Na3 O36 2.426291 1_555
Na3 O43 2.427633 1_565
Na3 O42 2.479195 1_465
Na3 O37 2.481148 1_455
Na3 O38 2.487200 1_565
Na4 O45 2.420473 1_555
Na4 O47 2.422898 1_665
Na4 O46 2.427686 1_565
Na4 O41 2.474506 1_554
Na4 O39 2.474745 1_664
Na4 O40 2.480229 1_654
Na5 O56 2.419587 1_555
Na5 O55 2.425358 1_555
Na5 O48 2.442700 1_555
Na5 O54 2.470916 1_555
Na5 O49 2.501532 1_555
Na5 O50 2.507189 1_555
Na6 O52 2.415939 1_555
Na6 O51 2.432305 1_555
Na6 O53 2.438557 1_555
Na6 O58 2.487636 1_555
Na6 O57 2.498556 1_555
Na6 O59 2.503592 1_555
Na7 O62 2.412397 1_555
Na7 O61 2.419214 1_555
Na7 O66 2.440945 1_555
Na7 O60 2.466442 1_555
Na7 O67 2.492531 1_555
Na7 O68 2.504124 1_555
Na8 O63 2.416172 1_555
Na8 O65 2.416783 1_555
Na8 O70 2.436539 1_555
Na8 O64 2.465950 1_555
Na8 O69 2.492586 1_555
Na8 O71 2.499458 1_555
Al0 O1 1.824455 1_455
Al0 O0 1.855474 1_565
Al0 O36 1.888634 1_555
Al0 O2 1.898713 1_465
Al0 O37 1.955382 1_455
Al0 O38 1.961222 1_565
Al1 O13 1.845215 1_555
Al1 O12 1.854646 1_555
Al1 O48 1.882198 1_555
Al1 O14 1.908320 1_555
Al1 O49 1.947326 1_555
Al1 O50 1.948212 1_555
Al2 O15 1.846650 1_555
Al2 O16 1.852574 1_555
Al2 O52 1.890966 1_555
Al2 O17 1.908854 1_555
Al2 O53 1.944170 1_555
Al2 O51 1.949418 1_555
Ge0 O3 1.867375 1_555
Ge0 O5 1.886821 1_455
Ge0 O39 1.896837 1_555
Ge0 O41 1.897942 1_445
Ge0 O4 1.900527 1_445
Ge0 O40 1.900579 1_545
Ge1 O7 1.873959 1_555
Ge1 O8 1.895719 1_545
Ge1 O43 1.897346 1_555
Ge1 O44 1.901827 1_445
Ge1 O42 1.907814 1_455
Ge1 O6 1.908611 1_445
Ge2 O9 1.872712 1_555
Ge2 O11 1.893242 1_655
Ge2 O45 1.903524 1_555
Ge2 O46 1.908245 1_565
Ge2 O47 1.909848 1_665
Ge2 O10 1.918895 1_665
Ge3 O19 1.862084 1_556
Ge3 O20 1.867072 1_556
Ge3 O18 1.870561 1_556
Ge3 O56 1.930974 1_555
Ge3 O55 1.932534 1_555
Ge3 O54 1.947706 1_555
Ge4 O21 1.849600 1_555
Ge4 O22 1.858899 1_555
Ge4 O58 1.898815 1_555
Ge4 O23 1.904792 1_555
Ge4 O57 1.950147 1_555
Ge4 O59 1.953863 1_555
Ge5 O62 1.885185 1_555
Ge5 O61 1.887689 1_555
Ge5 O25 1.888853 1_554
Ge5 O26 1.893652 1_554
Ge5 O24 1.895881 1_554
Ge5 O60 1.897886 1_555
Ge6 O27 1.862655 1_555
Ge6 O29 1.881492 1_555
Ge6 O63 1.892790 1_555
Ge6 O65 1.895804 1_555
Ge6 O28 1.898119 1_555
Ge6 O64 1.905934 1_555
Ge7 O31 1.860845 1_555
Ge7 O66 1.865300 1_555
Ge7 O30 1.898204 1_555
Ge7 O67 1.914521 1_555
Ge7 O68 1.922349 1_555
Ge7 O32 1.936458 1_555
Ge8 O33 1.849133 1_555
Ge8 O34 1.854360 1_555
Ge8 O70 1.894978 1_555
Ge8 O35 1.904035 1_555
Ge8 O71 1.952873 1_555
Ge8 O69 1.954702 1_555
O0 P0 1.533429 1_545
O1 P1 1.517884 1_555
O2 P2 1.534905 1_555
O3 P3 1.536857 1_555
O4 P4 1.554616 1_655
O5 P5 1.540069 1_555
O6 P5 1.560095 1_565
O7 P3 1.541859 1_555
O8 P4 1.544187 1_555
O9 P1 1.545913 1_555
O10 P2 1.560352 1_455
O11 P0 1.548237 1_555
O12 P6 1.513573 1_555
O13 P7 1.514236 1_555
O14 P8 1.526103 1_555
O15 P9 1.513520 1_555
O16 P10 1.513616 1_555
O17 P11 1.525356 1_555
O18 P11 1.552914 1_555
O19 P9 1.556426 1_555
O20 P10 1.555997 1_555
O21 P7 1.555534 1_555
O22 P8 1.552474 1_555
O23 P6 1.566840 1_555
O24 P12 1.530653 1_555
O25 P13 1.532692 1_555
O26 P14 1.532346 1_555
O27 P15 1.537108 1_555
O28 P16 1.552319 1_555
O29 P17 1.540382 1_555
O30 P17 1.560658 1_555
O31 P15 1.540953 1_555
O32 P16 1.553736 1_555
O33 P13 1.553381 1_555
O34 P14 1.553684 1_555
O35 P12 1.565082 1_555
O36 P17 1.511971 1_555
O37 P15 1.532521 1_555
O38 P16 1.533206 1_555
O39 P13 1.546869 1_555
O40 P14 1.547463 1_555
O41 P12 1.547253 1_555
O42 P6 1.550784 1_555
O43 P7 1.551083 1_555
O44 P8 1.550705 1_555
O45 P9 1.551344 1_555
O46 P10 1.552359 1_555
O47 P11 1.550970 1_555
O48 P5 1.513250 1_555
O49 P3 1.534380 1_555
O50 P4 1.534652 1_655
O51 P1 1.535601 1_555
O52 P2 1.511667 1_555
O53 P0 1.536318 1_545
O54 P12 1.541207 1_555
O55 P13 1.541922 1_655
O56 P14 1.542553 1_545
O57 P15 1.564558 1_545
O58 P16 1.538524 1_555
O59 P17 1.565028 1_655
O60 P11 1.552244 1_555
O61 P9 1.553316 1_455
O62 P10 1.553748 1_565
O63 P7 1.549982 1_565
O64 P8 1.549149 1_555
O65 P6 1.549594 1_455
O66 P0 1.549431 1_555
O67 P1 1.578910 1_555
O68 P2 1.577845 1_455
O69 P3 1.566377 1_555
O70 P4 1.541051 1_555
O71 P5 1.566986 1_565
