# generated using pymatgen
data_MgNbBi3O7
_symmetry_space_group_name_H-M   'P 1'
_cell_length_a   3.65325101
_cell_length_b   3.65776284
_cell_length_c   17.56815701
_cell_angle_alpha   65.54792060
_cell_angle_beta   71.95101346
_cell_angle_gamma   60.67828436
_symmetry_Int_Tables_number   1
_chemical_formula_structural   MgNbBi3O7
_chemical_formula_sum   'Mg1 Nb1 Bi3 O7'
_cell_volume   184.61881501
_cell_formula_units_Z   1
loop_
 _symmetry_equiv_pos_site_id
 _symmetry_equiv_pos_as_xyz
  1  'x, y, z'
loop_
 _atom_site_type_symbol
 _atom_site_label
 _atom_site_symmetry_multiplicity
 _atom_site_fract_x
 _atom_site_fract_y
 _atom_site_fract_z
 _atom_site_occupancy
  Mg  Mg0  1  0.64480634  0.00060078  0.09241609  1
  Nb  Nb0  1  0.97690991  0.07747408  0.48859468  1
  Bi  Bi0  1  0.42462316  0.97361154  0.91081045  1
  Bi  Bi1  1  0.83575840  0.01379570  0.29112010  1
  Bi  Bi2  1  0.23225313  0.02324513  0.68549490  1
  O  O0  1  0.12472519  0.23584757  0.35983109  1
  O  O1  1  0.34165783  0.28877385  0.52402305  1
  O  O2  1  0.55473146  0.80033071  0.21743744  1
  O  O3  1  0.72623398  0.74370719  0.45434066  1
  O  O4  1  0.51790207  0.23366031  0.75919786  1
  O  O5  1  0.94306523  0.79982855  0.61763188  1
  O  O6  1  0.33050030  0.71645261  0.06272581  1
loop_
_geom_bond_atom_site_label_1
_geom_bond_atom_site_label_2
_geom_bond_distance
_geom_bond_site_symmetry_2
Mg0 O2 1.981234 1_545
Mg0 O6 2.158603 1_545
Mg0 O6 2.171758 1_645
Mg0 O6 2.177698 1_555
Nb0 O3 2.020161 1_555
Nb0 O1 2.029034 1_555
Nb0 O0 2.051590 1_655
Nb0 O5 2.056469 1_545
Nb0 O1 2.163611 1_655
Nb0 O3 2.176230 1_545
Nb0 O3 2.379178 1_645
Nb0 O1 2.397477 1_645
Bi0 O4 2.402707 1_565
Bi0 O6 2.407433 1_556
Bi1 O0 2.380453 1_555
Bi1 O0 2.381677 1_655
Bi1 O0 2.381717 1_645
Bi1 O2 2.405146 1_545
Bi1 O2 2.419529 1_555
Bi1 O2 2.430122 1_645
Bi1 O3 2.586413 1_545
Bi2 O5 2.374458 1_445
Bi2 O5 2.375328 1_545
Bi2 O5 2.375698 1_455
Bi2 O4 2.409745 1_555
Bi2 O4 2.417307 1_455
Bi2 O4 2.428230 1_545
Bi2 O1 2.558709 1_555
