# generated using pymatgen
data_MgFe2(PO4)2
_symmetry_space_group_name_H-M   'P 1'
_cell_length_a   5.22641851
_cell_length_b   5.00251930
_cell_length_c   7.32114225
_cell_angle_alpha   76.45306844
_cell_angle_beta   60.88495921
_cell_angle_gamma   67.81399171
_symmetry_Int_Tables_number   1
_chemical_formula_structural   MgFe2(PO4)2
_chemical_formula_sum   'Mg1 Fe2 P2 O8'
_cell_volume   154.54394103
_cell_formula_units_Z   1
loop_
 _symmetry_equiv_pos_site_id
 _symmetry_equiv_pos_as_xyz
  1  'x, y, z'
loop_
 _atom_site_type_symbol
 _atom_site_label
 _atom_site_symmetry_multiplicity
 _atom_site_fract_x
 _atom_site_fract_y
 _atom_site_fract_z
 _atom_site_occupancy
  Mg  Mg0  1  0.38887381  0.54703010  0.06819816  1
  Fe  Fe0  1  0.04735091  0.77761090  0.70647305  1
  Fe  Fe1  1  0.92693634  0.19715658  0.32119310  1
  P  P0  1  0.35675412  0.14145082  0.79228518  1
  P  P1  1  0.63936101  0.86315828  0.22015700  1
  O  O0  1  0.16571411  0.35117161  0.68157433  1
  O  O1  1  0.30241788  0.86897007  0.37865568  1
  O  O2  1  0.30300004  0.84147092  0.84010092  1
  O  O3  1  0.26989318  0.25718432  0.00106524  1
  O  O4  1  0.69946501  0.74286017  0.02166211  1
  O  O5  1  0.65728188  0.17714924  0.18642788  1
  O  O6  1  0.70657658  0.10600700  0.64360944  1
  O  O7  1  0.88637513  0.66003001  0.29600491  1
loop_
_geom_bond_atom_site_label_1
_geom_bond_atom_site_label_2
_geom_bond_distance
_geom_bond_site_symmetry_2
Mg0 O3 2.010686 1_555
Mg0 O4 2.053596 1_555
Mg0 O2 2.058500 1_554
Mg0 O5 2.147512 1_555
Mg0 O7 2.248660 1_455
Fe0 O0 2.010608 1_555
Fe0 O6 2.077603 1_465
Fe0 O1 2.139816 1_555
Fe0 O2 2.141305 1_555
Fe0 O4 2.151457 1_456
Fe1 O6 2.086375 1_555
Fe1 O5 2.115559 1_555
Fe1 O1 2.184048 1_645
Fe1 O3 2.187389 1_655
Fe1 O7 2.215383 1_555
O0 P0 1.533817 1_555
O1 P1 1.561117 1_555
O2 P0 1.558855 1_565
O3 P0 1.555137 1_554
O4 P1 1.547694 1_555
O5 P1 1.563292 1_545
O6 P0 1.570971 1_555
O7 P1 1.565286 1_555
