# generated using pymatgen
data_MgScNi2SbO6
_symmetry_space_group_name_H-M   'P 1'
_cell_length_a   5.72162621
_cell_length_b   6.00936426
_cell_length_c   6.52609409
_cell_angle_alpha   54.39151397
_cell_angle_beta   55.72137763
_cell_angle_gamma   54.01531409
_symmetry_Int_Tables_number   1
_chemical_formula_structural   MgScNi2SbO6
_chemical_formula_sum   'Mg1 Sc1 Ni2 Sb1 O6'
_cell_volume   139.03129629
_cell_formula_units_Z   1
loop_
 _symmetry_equiv_pos_site_id
 _symmetry_equiv_pos_as_xyz
  1  'x, y, z'
loop_
 _atom_site_type_symbol
 _atom_site_label
 _atom_site_symmetry_multiplicity
 _atom_site_fract_x
 _atom_site_fract_y
 _atom_site_fract_z
 _atom_site_occupancy
  Mg  Mg0  1  0.34936276  0.54575367  0.17107866  1
  Sc  Sc0  1  0.78827553  0.84715265  0.55861853  1
  Ni  Ni0  1  0.97681887  0.02010370  0.87943326  1
  Ni  Ni1  1  0.57928205  0.53119175  0.48420051  1
  Sb  Sb0  1  0.19473074  0.25161602  0.05260451  1
  O  O0  1  0.26081452  0.82843886  0.30112223  1
  O  O1  1  0.88358953  0.72528328  0.26912247  1
  O  O2  1  0.72140579  0.28771952  0.27291319  1
  O  O3  1  0.67237214  0.09124279  0.77849868  1
  O  O4  1  0.08435031  0.36786401  0.75026267  1
  O  O5  1  0.41309876  0.74023175  0.77115528  1
loop_
_geom_bond_atom_site_label_1
_geom_bond_atom_site_label_2
_geom_bond_distance
_geom_bond_site_symmetry_2
Mg0 O2 1.972833 1_555
Mg0 O0 2.011423 1_555
Mg0 O1 2.044469 1_455
Mg0 O5 2.046311 1_554
Ni0 O3 1.934027 1_555
Ni0 O5 2.005629 1_645
Ni0 O1 2.055897 1_546
Ni0 O4 2.081294 1_655
Ni1 O0 2.020072 1_555
Ni1 O1 2.022194 1_555
Ni1 O2 2.095563 1_555
Ni1 O3 2.132313 1_555
Ni1 O5 2.306325 1_555
O0 Sb0 1.999589 1_565
O0 Sc0 2.211651 1_455
O1 Sc0 2.093899 1_555
O2 Sc0 2.120640 1_545
O2 Sb0 2.176063 1_655
O3 Sc0 2.210543 1_545
O3 Sb0 2.236758 1_556
O4 Sb0 2.014987 1_556
O4 Sc0 2.277656 1_455
O5 Sc0 2.042993 1_555
