# generated using pymatgen
data_MgTiMn3O8
_symmetry_space_group_name_H-M   'P 1'
_cell_length_a   6.08088431
_cell_length_b   5.90058209
_cell_length_c   5.98538838
_cell_angle_alpha   60.45954135
_cell_angle_beta   56.90550673
_cell_angle_gamma   60.97918465
_symmetry_Int_Tables_number   1
_chemical_formula_structural   MgTiMn3O8
_chemical_formula_sum   'Mg1 Ti1 Mn3 O8'
_cell_volume   149.50572177
_cell_formula_units_Z   1
loop_
 _symmetry_equiv_pos_site_id
 _symmetry_equiv_pos_as_xyz
  1  'x, y, z'
loop_
 _atom_site_type_symbol
 _atom_site_label
 _atom_site_symmetry_multiplicity
 _atom_site_fract_x
 _atom_site_fract_y
 _atom_site_fract_z
 _atom_site_occupancy
  Mg  Mg0  1  0.12499900  0.12499500  0.62501000  1
  Ti  Ti0  1  0.62499000  0.62500900  0.12500900  1
  Mn  Mn0  1  0.62499500  0.12502300  0.62497200  1
  Mn  Mn1  1  0.12502100  0.62498500  0.62498800  1
  Mn  Mn2  1  0.62498600  0.62500800  0.62497800  1
  O  O0  1  0.83806600  0.38536600  0.39135600  1
  O  O1  1  0.36969400  0.40033200  0.37940800  1
  O  O2  1  0.36967100  0.85053700  0.37950400  1
  O  O3  1  0.37052700  0.40638800  0.81673700  1
  O  O4  1  0.87947700  0.84360300  0.43327200  1
  O  O5  1  0.88032900  0.39946100  0.87050400  1
  O  O6  1  0.41193500  0.86462900  0.85865900  1
  O  O7  1  0.88030800  0.84966400  0.87060200  1
loop_
_geom_bond_atom_site_label_1
_geom_bond_atom_site_label_2
_geom_bond_distance
_geom_bond_site_symmetry_2
Mg0 O7 2.148520 1_445
Mg0 O1 2.148559 1_555
Mg0 O5 2.148667 1_455
Mg0 O2 2.148679 1_545
Mg0 O6 2.303403 1_545
Mg0 O0 2.303410 1_455
Mn0 O0 1.956622 1_555
Mn0 O6 1.956791 1_545
Mn0 O3 1.978651 1_555
Mn0 O4 1.978678 1_545
Mn0 O1 2.213559 1_555
Mn0 O7 2.213901 1_545
Mn1 O2 1.936253 1_555
Mn1 O5 1.936315 1_455
Mn1 O1 1.936725 1_555
Mn1 O7 1.936974 1_455
Mn1 O3 1.937178 1_555
Mn1 O4 1.937221 1_455
Mn2 O0 1.956300 1_555
Mn2 O6 1.956471 1_555
Mn2 O3 1.978111 1_555
Mn2 O4 1.978206 1_555
Mn2 O2 2.213246 1_555
Mn2 O5 2.213604 1_555
O0 Ti0 2.115406 1_555
O1 Ti0 1.977632 1_555
O2 Ti0 1.978191 1_555
O5 Ti0 1.978315 1_556
O6 Ti0 2.115331 1_556
O7 Ti0 1.977637 1_556
