# generated using pymatgen
data_Mn2Bi2O5
_symmetry_space_group_name_H-M   'P 1'
_cell_length_a   10.19400515
_cell_length_b   9.98550292
_cell_length_c   10.02177386
_cell_angle_alpha   115.59006404
_cell_angle_beta   106.30642536
_cell_angle_gamma   97.63180930
_symmetry_Int_Tables_number   1
_chemical_formula_structural   Mn2Bi2O5
_chemical_formula_sum   'Mn12 Bi12 O30'
_cell_volume   844.16310750
_cell_formula_units_Z   6
loop_
 _symmetry_equiv_pos_site_id
 _symmetry_equiv_pos_as_xyz
  1  'x, y, z'
loop_
 _atom_site_type_symbol
 _atom_site_label
 _atom_site_symmetry_multiplicity
 _atom_site_fract_x
 _atom_site_fract_y
 _atom_site_fract_z
 _atom_site_occupancy
  Mn  Mn0  1  0.16626400  0.53961200  0.12907600  1
  Mn  Mn1  1  0.83373600  0.46038800  0.87092400  1
  Mn  Mn2  1  0.38847900  0.65589800  0.95606200  1
  Mn  Mn3  1  0.61152100  0.34410200  0.04393800  1
  Mn  Mn4  1  0.04939200  0.48009400  0.66945500  1
  Mn  Mn5  1  0.95060800  0.51990600  0.33054500  1
  Mn  Mn6  1  0.83236900  0.12504100  0.53264100  1
  Mn  Mn7  1  0.16763100  0.87495900  0.46735900  1
  Mn  Mn8  1  0.22598500  0.20151800  0.80054200  1
  Mn  Mn9  1  0.77401500  0.79848200  0.19945800  1
  Mn  Mn10  1  0.66868700  0.09850500  0.15635000  1
  Mn  Mn11  1  0.33131300  0.90149500  0.84365000  1
  Bi  Bi0  1  0.32332900  0.21998600  0.15292800  1
  Bi  Bi1  1  0.67667100  0.78001400  0.84707200  1
  Bi  Bi2  1  0.43748300  0.32231100  0.66442200  1
  Bi  Bi3  1  0.56251700  0.67768900  0.33557800  1
  Bi  Bi4  1  0.69477800  0.42838800  0.46971800  1
  Bi  Bi5  1  0.30522200  0.57161200  0.53028200  1
  Bi  Bi6  1  0.07051400  0.15742800  0.37749400  1
  Bi  Bi7  1  0.92948600  0.84257200  0.62250600  1
  Bi  Bi8  1  0.57525600  0.03646900  0.69910700  1
  Bi  Bi9  1  0.42474400  0.96353100  0.30089300  1
  Bi  Bi10  1  0.93438500  0.19344400  0.98924100  1
  Bi  Bi11  1  0.06561500  0.80655600  0.01075900  1
  O  O0  1  0.43431100  0.45615200  0.30356500  1
  O  O1  1  0.56568900  0.54384800  0.69643500  1
  O  O2  1  0.35388100  0.07469100  0.62698900  1
  O  O3  1  0.64611900  0.92530900  0.37301100  1
  O  O4  1  0.74980800  0.35207900  0.25813200  1
  O  O5  1  0.25019200  0.64792100  0.74186800  1
  O  O6  1  0.54015700  0.17635400  0.29901600  1
  O  O7  1  0.45984300  0.82364600  0.70098400  1
  O  O8  1  0.68432000  0.11373200  0.95069700  1
  O  O9  1  0.31568000  0.88626800  0.04930300  1
  O  O10  1  0.93099000  0.42627800  0.07417200  1
  O  O11  1  0.06901000  0.57372200  0.92582800  1
  O  O12  1  0.41186600  0.16945700  0.97728200  1
  O  O13  1  0.58813400  0.83054300  0.02271800  1
  O  O14  1  0.62641700  0.30939300  0.81533700  1
  O  O15  1  0.37358300  0.69060800  0.18466300  1
  O  O16  1  0.84807900  0.05350500  0.28449300  1
  O  O17  1  0.15192100  0.94649500  0.71550700  1
  O  O18  1  0.36300000  0.41433300  0.84783700  1
  O  O19  1  0.63700000  0.58566700  0.15216300  1
  O  O20  1  0.06428300  0.20970900  0.60425800  1
  O  O21  1  0.93571700  0.79029100  0.39574200  1
  O  O22  1  0.82631400  0.35578900  0.62278100  1
  O  O23  1  0.17368600  0.64421100  0.37721900  1
  O  O24  1  0.92603500  0.60862800  0.57144300  1
  O  O25  1  0.07396500  0.39137200  0.42855700  1
  O  O26  1  0.84007300  0.70619100  0.99355200  1
  O  O27  1  0.15992700  0.29380900  0.00644800  1
  O  O28  1  0.15845900  0.88938700  0.25875600  1
  O  O29  1  0.84154100  0.11061300  0.74124400  1
loop_
_geom_bond_atom_site_label_1
_geom_bond_atom_site_label_2
_geom_bond_distance
_geom_bond_site_symmetry_2
Mn0 O11 2.191555 1_554
Mn0 O15 2.194789 1_555
Mn0 O27 2.201464 1_555
Mn0 O23 2.215971 1_555
Mn0 O10 2.309939 1_455
Mn1 O10 2.191555 1_556
Mn1 O14 2.194785 1_555
Mn1 O26 2.201464 1_555
Mn1 O22 2.215971 1_555
Mn1 O11 2.309939 1_655
Mn2 O18 2.116042 1_555
Mn2 O5 2.173634 1_555
Mn2 O15 2.217025 1_556
Mn2 O13 2.217493 1_556
Mn2 O9 2.387783 1_556
Mn3 O19 2.116042 1_555
Mn3 O4 2.173634 1_555
Mn3 O14 2.217028 1_554
Mn3 O12 2.217493 1_554
Mn3 O8 2.387783 1_554
Mn4 O5 2.174670 1_555
Mn4 O24 2.239998 1_455
Mn4 O22 2.254377 1_455
Mn4 O11 2.258796 1_555
Mn4 O25 2.286263 1_555
Mn4 O20 2.525906 1_555
Mn5 O4 2.174670 1_555
Mn5 O25 2.239998 1_655
Mn5 O23 2.254377 1_655
Mn5 O10 2.258796 1_555
Mn5 O24 2.286263 1_555
Mn5 O21 2.525906 1_555
Mn6 O22 2.097595 1_555
Mn6 O29 2.134008 1_555
Mn6 O3 2.161974 1_545
Mn6 O20 2.193426 1_655
Mn6 O16 2.332367 1_555
Mn7 O23 2.097595 1_555
Mn7 O28 2.134008 1_555
Mn7 O2 2.161974 1_565
Mn7 O21 2.193426 1_455
Mn7 O17 2.332367 1_555
Mn8 O18 2.158974 1_555
Mn8 O27 2.205293 1_556
Mn8 O20 2.224265 1_555
Mn8 O17 2.243749 1_545
Mn8 O12 2.365718 1_555
Mn8 O2 2.477499 1_555
Mn9 O19 2.158974 1_555
Mn9 O26 2.205293 1_554
Mn9 O21 2.224265 1_555
Mn9 O16 2.243749 1_565
Mn9 O13 2.365718 1_555
Mn9 O3 2.477499 1_555
Mn10 O16 2.143207 1_555
Mn10 O6 2.174306 1_555
Mn10 O8 2.178298 1_554
Mn10 O4 2.207862 1_555
Mn10 O13 2.308825 1_545
Mn11 O17 2.143207 1_555
Mn11 O7 2.174306 1_555
Mn11 O9 2.178298 1_556
Mn11 O5 2.207862 1_555
Mn11 O12 2.308825 1_565
Bi0 O0 2.092151 1_555
Bi0 O12 2.100865 1_554
Bi0 O27 2.315352 1_555
Bi0 O6 2.491693 1_555
Bi1 O1 2.092151 1_555
Bi1 O13 2.100865 1_556
Bi1 O26 2.315352 1_555
Bi1 O7 2.491693 1_555
Bi2 O18 2.075954 1_555
Bi2 O14 2.147631 1_555
Bi2 O1 2.255696 1_555
Bi2 O2 2.332443 1_555
Bi3 O19 2.075954 1_555
Bi3 O15 2.147636 1_555
Bi3 O0 2.255696 1_555
Bi3 O3 2.332443 1_555
Bi4 O22 2.177230 1_555
Bi4 O4 2.185731 1_555
Bi4 O6 2.336166 1_555
Bi4 O24 2.403012 1_555
Bi5 O23 2.177230 1_555
Bi5 O5 2.185731 1_555
Bi5 O7 2.336166 1_555
Bi5 O25 2.403012 1_555
Bi6 O16 2.107093 1_455
Bi6 O20 2.122773 1_555
Bi6 O25 2.157684 1_555
Bi6 O28 2.805100 1_545
Bi7 O17 2.107093 1_655
Bi7 O21 2.122773 1_555
Bi7 O24 2.157684 1_555
Bi7 O29 2.805100 1_565
Bi8 O8 2.169385 1_555
Bi8 O7 2.298619 1_545
Bi8 O2 2.304753 1_555
Bi8 O14 2.365379 1_555
Bi8 O29 2.578262 1_555
Bi9 O9 2.169385 1_555
Bi9 O6 2.298619 1_565
Bi9 O3 2.304753 1_555
Bi9 O15 2.365370 1_555
Bi9 O28 2.578262 1_555
Bi10 O29 2.110044 1_555
Bi10 O10 2.111763 1_556
Bi10 O27 2.310059 1_656
Bi10 O8 2.433826 1_555
Bi11 O28 2.110044 1_555
Bi11 O11 2.111763 1_554
Bi11 O26 2.310059 1_454
Bi11 O9 2.433826 1_555
