# generated using pymatgen
data_La2B3Cl
_symmetry_space_group_name_H-M   'P 1'
_cell_length_a   7.81691022
_cell_length_b   7.81690323
_cell_length_c   8.22854091
_cell_angle_alpha   89.99908036
_cell_angle_beta   89.99687376
_cell_angle_gamma   119.99978289
_symmetry_Int_Tables_number   1
_chemical_formula_structural   La2B3Cl
_chemical_formula_sum   'La8 B12 Cl4'
_cell_volume   435.43594039
_cell_formula_units_Z   4
loop_
 _symmetry_equiv_pos_site_id
 _symmetry_equiv_pos_as_xyz
  1  'x, y, z'
loop_
 _atom_site_type_symbol
 _atom_site_label
 _atom_site_symmetry_multiplicity
 _atom_site_fract_x
 _atom_site_fract_y
 _atom_site_fract_z
 _atom_site_occupancy
  La  La0  1  0.50034081  0.00120373  0.22610404  1
  La  La1  1  0.50043389  0.00126310  0.77386237  1
  La  La2  1  0.50082306  0.49957256  0.22611114  1
  La  La3  1  0.99864138  0.49919824  0.22616153  1
  La  La4  1  0.50088933  0.49967276  0.77388195  1
  La  La5  1  0.99880020  0.49911311  0.77388674  1
  La  La6  1  0.00000044  -0.00000243  0.24016698  1
  La  La7  1  -0.00000424  -0.00000183  0.75980998  1
  B  B0  1  0.52550790  0.26279543  0.00000242  1
  B  B1  1  0.26291708  0.52567814  0.00003336  1
  B  B2  1  0.72107477  0.86057603  0.00000675  1
  B  B3  1  0.86099510  0.13907990  0.00000499  1
  B  B4  1  0.27809692  0.13901028  0.00001233  1
  B  B5  1  0.26276504  0.73707535  0.00000608  1
  B  B6  1  0.73720716  0.26270378  0.00001124  1
  B  B7  1  0.13951190  0.27893171  0.00000048  1
  B  B8  1  0.47432550  0.73723395  0.00002238  1
  B  B9  1  0.86092918  0.72191152  0.00000625  1
  B  B10  1  0.73728844  0.47449804  -0.00003103  1
  B  B11  1  0.13943110  0.86049263  0.00001045  1
  Cl  Cl0  1  0.33813491  0.17013793  0.49998782  1
  Cl  Cl1  1  0.83201383  0.66187040  0.49998870  1
  Cl  Cl2  1  0.82986424  0.16798504  0.49998070  1
  Cl  Cl3  1  0.33334505  0.66666664  0.49997237  1
loop_
_geom_bond_atom_site_label_1
_geom_bond_atom_site_label_2
_geom_bond_distance
_geom_bond_site_symmetry_2
B0 B10 1.655170 1_555
B0 B6 1.655192 1_555
B0 B4 1.674888 1_555
B0 La0 2.697968 1_555
B0 La1 2.698134 1_554
B0 La2 2.698475 1_555
B0 La4 2.698866 1_554
B1 B5 1.653066 1_555
B1 B8 1.653142 1_555
B1 B7 1.670387 1_555
B1 La5 2.709262 1_454
B1 La2 2.709359 1_555
B1 La4 2.709688 1_554
B1 La3 2.710100 1_455
B2 B8 1.670408 1_555
B2 B3 1.885381 1_565
B2 B9 1.885476 1_555
B2 La7 2.733347 1_664
B2 La6 2.733349 1_665
B3 B6 1.674887 1_555
B3 B7 1.885469 1_655
B3 La6 2.729370 1_655
B3 La7 2.729482 1_654
B4 B7 1.885394 1_555
B4 La6 2.729244 1_555
B4 La7 2.729747 1_554
B5 B8 1.653130 1_555
B5 La0 2.709098 1_565
B5 La1 2.709588 1_564
B5 La5 2.709611 1_454
B5 La3 2.709936 1_455
B6 La5 2.698003 1_554
B6 La3 2.698033 1_555
B6 La0 2.698622 1_555
B6 La1 2.698709 1_554
B7 La6 2.733258 1_555
B7 La7 2.733535 1_554
B8 La4 2.709207 1_554
B8 La2 2.709239 1_555
B8 La0 2.709323 1_565
B8 La1 2.709819 1_564
B9 La6 2.729397 1_665
B9 La7 2.729475 1_664
B10 B6 1.655258 1_555
B10 B9 1.674903 1_555
B10 La4 2.697864 1_554
B10 La2 2.698091 1_555
B10 La3 2.698367 1_555
B10 La5 2.698683 1_554
B11 B5 1.670415 1_555
B11 B9 1.885370 1_455
B11 B4 1.885473 1_565
B11 La6 2.733240 1_565
B11 La7 2.733587 1_564
Cl0 La7 3.132114 1_555
Cl0 La6 3.132310 1_555
Cl0 La2 3.170504 1_555
Cl0 La4 3.171240 1_555
Cl0 La0 3.178786 1_555
Cl0 La1 3.178956 1_555
Cl1 La6 3.132086 1_665
Cl1 La7 3.132243 1_665
Cl1 La3 3.169608 1_555
Cl1 La5 3.171258 1_555
Cl1 La4 3.178692 1_555
Cl1 La2 3.179142 1_555
Cl2 La6 3.132062 1_655
Cl2 La7 3.132193 1_655
Cl2 La1 3.170477 1_555
Cl2 La0 3.171121 1_555
Cl2 La3 3.178704 1_555
Cl2 La5 3.178978 1_555
Cl3 La0 3.194806 1_565
Cl3 La2 3.194972 1_555
Cl3 La5 3.195076 1_455
Cl3 La4 3.195162 1_555
Cl3 La1 3.195376 1_565
Cl3 La3 3.195468 1_455
