# generated using pymatgen
data_HfAg2S3
_symmetry_space_group_name_H-M   'P 1'
_cell_length_a   6.69093844
_cell_length_b   6.69093844
_cell_length_c   12.77342400
_cell_angle_alpha   90.00000000
_cell_angle_beta   90.00000000
_cell_angle_gamma   119.86874818
_symmetry_Int_Tables_number   1
_chemical_formula_structural   HfAg2S3
_chemical_formula_sum   'Hf4 Ag8 S12'
_cell_volume   495.88948474
_cell_formula_units_Z   4
loop_
 _symmetry_equiv_pos_site_id
 _symmetry_equiv_pos_as_xyz
  1  'x, y, z'
loop_
 _atom_site_type_symbol
 _atom_site_label
 _atom_site_symmetry_multiplicity
 _atom_site_fract_x
 _atom_site_fract_y
 _atom_site_fract_z
 _atom_site_occupancy
  Hf  Hf0  1  0.33778400  0.66221600  0.50000000  1
  Hf  Hf1  1  0.16221600  0.83778400  0.00000000  1
  Hf  Hf2  1  0.66221600  0.33778400  0.50000000  1
  Hf  Hf3  1  0.83778400  0.16221600  0.00000000  1
  Ag  Ag0  1  0.85198700  0.35198700  0.75000000  1
  Ag  Ag1  1  0.47514000  0.47514000  0.18024300  1
  Ag  Ag2  1  0.52486000  0.52486000  0.81975700  1
  Ag  Ag3  1  0.97514000  0.97514000  0.31975700  1
  Ag  Ag4  1  0.14801300  0.64801300  0.25000000  1
  Ag  Ag5  1  0.35198700  0.85198700  0.75000000  1
  Ag  Ag6  1  0.64801300  0.14801300  0.25000000  1
  Ag  Ag7  1  0.02486000  0.02486000  0.68024300  1
  S  S0  1  0.61053900  0.61053900  0.37648100  1
  S  S1  1  0.88946100  0.88946100  0.87648100  1
  S  S2  1  0.11053900  0.11053900  0.12351900  1
  S  S3  1  0.38946100  0.38946100  0.62351900  1
  S  S4  1  0.49789700  0.84649800  0.10279000  1
  S  S5  1  0.00210300  0.65350200  0.60279000  1
  S  S6  1  0.34649800  0.99789700  0.39721000  1
  S  S7  1  0.15350200  0.50210300  0.89721000  1
  S  S8  1  0.50210300  0.15350200  0.89721000  1
  S  S9  1  0.84649800  0.49789700  0.10279000  1
  S  S10  1  0.65350200  0.00210300  0.60279000  1
  S  S11  1  0.99789700  0.34649800  0.39721000  1
loop_
_geom_bond_atom_site_label_1
_geom_bond_atom_site_label_2
_geom_bond_distance
_geom_bond_site_symmetry_2
Hf0 S3 2.562806 1_555
Hf0 S0 2.562806 1_555
Hf0 S11 2.563825 1_455
Hf0 S10 2.563825 1_565
Hf0 S5 2.577109 1_555
Hf0 S6 2.577109 1_555
Hf1 S2 2.562806 1_565
Hf1 S1 2.562806 1_454
Hf1 S8 2.563825 1_564
Hf1 S9 2.563825 1_455
Hf1 S7 2.577109 1_554
Hf1 S4 2.577109 1_555
Hf2 S3 2.562806 1_555
Hf2 S0 2.562806 1_555
Hf2 S6 2.563825 1_545
Hf2 S5 2.563825 1_655
Hf2 S10 2.577109 1_555
Hf2 S11 2.577109 1_555
Hf3 S2 2.562806 1_655
Hf3 S1 2.562806 1_544
Hf3 S7 2.563825 1_654
Hf3 S4 2.563825 1_545
Hf3 S8 2.577109 1_554
Hf3 S9 2.577109 1_555
Ag0 S5 2.568338 1_655
Ag0 S7 2.568338 1_655
Ag0 S8 2.771888 1_555
Ag0 S10 2.771888 1_555
Ag1 S2 2.549488 1_555
Ag1 S9 2.607497 1_555
Ag1 S4 2.607497 1_555
Ag1 S0 2.665933 1_555
Ag2 S1 2.549488 1_555
Ag2 S7 2.607497 1_555
Ag2 S8 2.607497 1_555
Ag2 S3 2.665933 1_555
Ag3 S0 2.549488 1_555
Ag3 S6 2.607497 1_655
Ag3 S11 2.607497 1_565
Ag3 S2 2.665933 1_665
Ag4 S9 2.568338 1_455
Ag4 S11 2.568338 1_455
Ag4 S6 2.771888 1_555
Ag4 S4 2.771888 1_555
Ag5 S10 2.568338 1_565
Ag5 S8 2.568338 1_565
Ag5 S7 2.771888 1_555
Ag5 S5 2.771888 1_555
Ag6 S6 2.568338 1_545
Ag6 S4 2.568338 1_545
Ag6 S11 2.771888 1_555
Ag6 S9 2.771888 1_555
Ag7 S3 2.549488 1_555
Ag7 S5 2.607497 1_545
Ag7 S10 2.607497 1_455
Ag7 S1 2.665933 1_445
