# generated using pymatgen
data_Na10Nb7In(SiO4)12
_symmetry_space_group_name_H-M   'P 1'
_cell_length_a   18.15058282
_cell_length_b   9.08083919
_cell_length_c   22.75930313
_cell_angle_alpha   90.00511198
_cell_angle_beta   89.99578190
_cell_angle_gamma   120.04015576
_symmetry_Int_Tables_number   1
_chemical_formula_structural   Na10Nb7In(SiO4)12
_chemical_formula_sum   'Na30 Nb21 In3 Si36 O144'
_cell_volume   3247.35880084
_cell_formula_units_Z   3
loop_
 _symmetry_equiv_pos_site_id
 _symmetry_equiv_pos_as_xyz
  1  'x, y, z'
loop_
 _atom_site_type_symbol
 _atom_site_label
 _atom_site_symmetry_multiplicity
 _atom_site_fract_x
 _atom_site_fract_y
 _atom_site_fract_z
 _atom_site_occupancy
  Na  Na0  1  0.81619328  0.00768718  0.24800851  1
  Na  Na1  1  0.18424118  0.36689539  0.24936818  1
  Na  Na2  1  0.68645751  0.36549849  0.24747875  1
  Na  Na3  1  0.99624590  0.62449849  0.24800802  1
  Na  Na4  1  0.31627815  0.62501940  0.74837709  1
  Na  Na5  1  0.81664670  0.62517098  0.74797364  1
  Na  Na6  1  0.99584902  0.36631060  0.74756060  1
  Na  Na7  1  0.49569576  0.36575026  0.74761754  1
  Na  Na8  1  0.18756149  0.00837105  0.74853519  1
  Na  Na9  1  0.68769668  0.00886068  0.74811997  1
  Na  Na10  1  0.15281358  0.33712930  0.58412586  1
  Na  Na11  1  0.65376610  0.33709767  0.58360157  1
  Na  Na12  1  0.33281787  0.97075599  0.58372589  1
  Na  Na13  1  0.83325058  0.97244875  0.58355893  1
  Na  Na14  1  0.65161368  0.96894139  0.08462993  1
  Na  Na15  1  0.83188494  0.69326061  0.08374449  1
  Na  Na16  1  0.01628653  0.33703573  0.08303548  1
  Na  Na17  1  0.48331711  0.29914537  0.41662663  1
  Na  Na18  1  0.99991371  0.99341006  0.49747033  1
  Na  Na19  1  0.50104306  0.98851115  0.49825863  1
  Na  Na20  1  0.00387385  -0.00010892  0.99762992  1
  Na  Na21  1  0.49635392  0.00043467  0.99949998  1
  Na  Na22  1  0.33307195  0.33313587  0.83466178  1
  Na  Na23  1  0.83350311  0.33322001  0.83384555  1
  Na  Na24  1  0.33325158  0.33330387  0.33222831  1
  Na  Na25  1  0.83303266  0.33248518  0.33330953  1
  Na  Na26  1  0.17290504  0.68077204  0.16456132  1
  Na  Na27  1  0.65989658  0.65821598  0.16620310  1
  Na  Na28  1  0.16292901  0.66658288  0.66564310  1
  Na  Na29  1  0.66309803  0.66688203  0.66543836  1
  Nb  Nb0  1  0.00013076  0.00049219  0.35627453  1
  Nb  Nb1  1  0.49909810  0.99555968  0.35374211  1
  Nb  Nb2  1  0.00018276  0.00092255  0.85721737  1
  Nb  Nb3  1  0.49990867  0.99957853  0.85716380  1
  Nb  Nb4  1  0.99979710  0.99570716  0.64571815  1
  Nb  Nb5  1  0.50039655  0.99659928  0.64574148  1
  Nb  Nb6  1  0.00372695  0.00056809  0.14544320  1
  Nb  Nb7  1  0.49634129  0.99855605  0.14491440  1
  Nb  Nb8  1  0.33664531  0.33349931  0.18636647  1
  Nb  Nb9  1  0.33283713  0.33256410  0.97817515  1
  Nb  Nb10  1  0.83352962  0.33416378  0.97785347  1
  Nb  Nb11  1  0.33027968  0.33486445  0.47898211  1
  Nb  Nb12  1  0.83420288  0.33403961  0.47778277  1
  Nb  Nb13  1  0.17058135  0.67404547  0.02028387  1
  Nb  Nb14  1  0.66290812  0.65957225  0.01877879  1
  Nb  Nb15  1  0.16387080  0.66591098  0.51783168  1
  Nb  Nb16  1  0.66539847  0.66857718  0.51827725  1
  Nb  Nb17  1  0.16963637  0.67192332  0.31360097  1
  Nb  Nb18  1  0.66434164  0.66626746  0.31325338  1
  Nb  Nb19  1  0.16677647  0.66646803  0.81602366  1
  Nb  Nb20  1  0.66684629  0.66659388  0.81568546  1
  In  In0  1  0.33393049  0.33421378  0.68396848  1
  In  In1  1  0.83386651  0.33436545  0.68355293  1
  In  In2  1  0.83260578  0.33292494  0.18401058  1
  Si  Si0  1  0.14585445  0.00059165  0.25119414  1
  Si  Si1  1  0.64256660  0.99632216  0.24932806  1
  Si  Si2  1  0.35593040  0.71045827  0.24985401  1
  Si  Si3  1  0.85573603  0.71265848  0.25051984  1
  Si  Si4  1  0.00055211  0.28945429  0.25080057  1
  Si  Si5  1  0.49846541  0.28665241  0.25062459  1
  Si  Si6  1  0.14361918  0.28897538  0.75077065  1
  Si  Si7  1  0.64368620  0.28887723  0.75091064  1
  Si  Si8  1  0.00074423  0.71206732  0.75183882  1
  Si  Si9  1  0.50074098  0.71201123  0.75171918  1
  Si  Si10  1  0.35542507  0.99856678  0.75099439  1
  Si  Si11  1  0.85546265  0.99891910  0.75109595  1
  Si  Si12  1  0.47973767  0.33681788  0.58333891  1
  Si  Si13  1  0.97957916  0.33667648  0.58403679  1
  Si  Si14  1  0.18673499  0.03850050  0.58395811  1
  Si  Si15  1  0.68770542  0.04109177  0.58334738  1
  Si  Si16  1  0.33377099  0.62595701  0.58363995  1
  Si  Si17  1  0.83403803  0.62417754  0.58300853  1
  Si  Si18  1  0.47675387  0.62167878  0.08226869  1
  Si  Si19  1  0.98027360  0.62481177  0.08338274  1
  Si  Si20  1  0.33311171  0.04621116  0.08254000  1
  Si  Si21  1  0.83279734  0.04081816  0.08330276  1
  Si  Si22  1  0.19130075  0.33653164  0.08363223  1
  Si  Si23  1  0.68645848  0.33243308  0.08341270  1
  Si  Si24  1  0.31224404  0.66479475  0.91695952  1
  Si  Si25  1  0.81186036  0.66620338  0.91755290  1
  Si  Si26  1  0.02192060  0.37773560  0.91839623  1
  Si  Si27  1  0.51935421  0.37400386  0.91601443  1
  Si  Si28  1  0.16729719  0.95823956  0.91708563  1
  Si  Si29  1  0.66708353  0.95827283  0.91744941  1
  Si  Si30  1  0.31189310  0.95770862  0.41750592  1
  Si  Si31  1  0.81171611  0.95709683  0.41622546  1
  Si  Si32  1  0.16643704  0.37660388  0.41610258  1
  Si  Si33  1  0.66841386  0.37671025  0.41591505  1
  Si  Si34  1  0.02100723  0.66557075  0.41497623  1
  Si  Si35  1  0.52068969  0.66923385  0.41659837  1
  O  O0  1  0.09895564  0.03243322  0.30689556  1
  O  O1  1  0.59301707  0.02393536  0.30581322  1
  O  O2  1  0.41547301  0.80596066  0.30744716  1
  O  O3  1  0.91903798  0.81236947  0.30597077  1
  O  O4  1  0.48558576  0.17223158  0.30977944  1
  O  O5  1  0.98829314  0.16446829  0.30633235  1
  O  O6  1  0.09427437  0.16382741  0.80616319  1
  O  O7  1  0.59429131  0.16361002  0.80615189  1
  O  O8  1  0.48755496  0.81006906  0.80704484  1
  O  O9  1  0.98754131  0.81061909  0.80706355  1
  O  O10  1  0.41812863  0.02451084  0.80619107  1
  O  O11  1  0.91792384  0.02424374  0.80632997  1
  O  O12  1  0.39980361  0.96656460  0.69151204  1
  O  O13  1  0.89960482  0.96648254  0.69162422  1
  O  O14  1  0.08331791  0.20064312  0.69134390  1
  O  O15  1  0.58332612  0.20105063  0.69140672  1
  O  O16  1  0.01672753  0.83776116  0.69360613  1
  O  O17  1  0.51675815  0.83780314  0.69361458  1
  O  O18  1  0.40245084  0.83283872  0.19293338  1
  O  O19  1  0.90038475  0.83422009  0.19165380  1
  O  O20  1  0.01690624  0.20012715  0.19197626  1
  O  O21  1  0.51624859  0.19454607  0.19437952  1
  O  O22  1  0.08221249  0.96680458  0.19368232  1
  O  O23  1  0.58496759  0.97093435  0.19061840  1
  O  O24  1  0.44625866  0.37153909  0.64416910  1
  O  O25  1  0.94732896  0.37222003  0.64530437  1
  O  O26  1  0.24283063  0.10430157  0.64320808  1
  O  O27  1  0.74252362  0.10347137  0.64346466  1
  O  O28  1  0.30847934  0.51244838  0.64265605  1
  O  O29  1  0.80825071  0.51340849  0.64290295  1
  O  O30  1  0.43074497  0.50098539  0.14032027  1
  O  O31  1  0.94742187  0.51450323  0.14333779  1
  O  O32  1  0.31955524  0.13959104  0.14058414  1
  O  O33  1  0.80901593  0.10411664  0.14311910  1
  O  O34  1  0.24778647  0.36102549  0.14311016  1
  O  O35  1  0.74284833  0.38318078  0.14305221  1
  O  O36  1  0.23654716  0.30533951  0.02685010  1
  O  O37  1  0.73572005  0.30037320  0.02806578  1
  O  O38  1  0.41657982  0.52758582  0.02576186  1
  O  O39  1  0.91438385  0.53011401  0.02804787  1
  O  O40  1  0.34757141  0.16727158  0.02583217  1
  O  O41  1  0.85044419  0.17168293  0.02814190  1
  O  O42  1  0.23562580  0.16938488  0.52801569  1
  O  O43  1  0.73515774  0.17059157  0.52793152  1
  O  O44  1  0.34732818  0.52696954  0.52724092  1
  O  O45  1  0.84746363  0.52645373  0.52707202  1
  O  O46  1  0.41689965  0.30081882  0.52594941  1
  O  O47  1  0.91445582  0.29966822  0.52849818  1
  O  O48  1  0.26378679  0.69331716  0.97276876  1
  O  O49  1  0.76478954  0.69302977  0.97459356  1
  O  O50  1  0.08181844  0.46868576  0.97563426  1
  O  O51  1  0.58241400  0.47283209  0.97184206  1
  O  O52  1  0.15382825  0.83275513  0.97263550  1
  O  O53  1  0.65302591  0.83782718  0.97489569  1
  O  O54  1  0.26671143  0.83971105  0.47524619  1
  O  O55  1  0.76579418  0.83743904  0.47413011  1
  O  O56  1  0.15431748  0.46869030  0.47434345  1
  O  O57  1  0.65108796  0.46684820  0.47312318  1
  O  O58  1  0.08310927  0.69244126  0.47167904  1
  O  O59  1  0.58208135  0.69370703  0.47304569  1
  O  O60  1  0.06788981  0.63876121  0.35707520  1
  O  O61  1  0.56790210  0.63462495  0.36042332  1
  O  O62  1  0.25027610  0.86078486  0.36043522  1
  O  O63  1  0.75096984  0.86238480  0.35836389  1
  O  O64  1  0.18062221  0.49652038  0.35804930  1
  O  O65  1  0.68000282  0.49604415  0.35786225  1
  O  O66  1  0.06824018  0.49702894  0.85895805  1
  O  O67  1  0.56753785  0.49558610  0.85767732  1
  O  O68  1  0.18025991  0.86456214  0.85789042  1
  O  O69  1  0.68022592  0.86354342  0.85877878  1
  O  O70  1  0.25220059  0.63931840  0.85791162  1
  O  O71  1  0.75169112  0.63949916  0.85863657  1
  O  O72  1  0.01314332  0.83605989  0.40911892  1
  O  O73  1  0.51170917  0.83749593  0.41025925  1
  O  O74  1  0.40736552  0.98300412  0.41066318  1
  O  O75  1  0.90555529  0.97475981  0.40921100  1
  O  O76  1  0.08231736  0.18879774  0.40995251  1
  O  O77  1  0.58000728  0.19228668  0.40956111  1
  O  O78  1  0.01265507  0.19019111  0.90954605  1
  O  O79  1  0.51286240  0.18933229  0.90950819  1
  O  O80  1  0.08204866  0.97429037  0.90968883  1
  O  O81  1  0.58219608  0.97476192  0.90953577  1
  O  O82  1  0.40513982  0.83603447  0.90945069  1
  O  O83  1  0.90515363  0.83599666  0.90985571  1
  O  O84  1  0.48821727  0.16202245  0.58821370  1
  O  O85  1  0.98839953  0.16231393  0.58862033  1
  O  O86  1  0.09439614  0.03106668  0.58859673  1
  O  O87  1  0.59427460  0.03030333  0.58907496  1
  O  O88  1  0.41770587  0.81826283  0.58848151  1
  O  O89  1  0.91733381  0.81815278  0.58885063  1
  O  O90  1  0.49026959  0.81379560  0.09012069  1
  O  O91  1  0.98522610  0.81180813  0.08923891  1
  O  O92  1  0.41768665  0.02620376  0.09146811  1
  O  O93  1  0.91961145  0.02449416  0.08856142  1
  O  O94  1  0.09407136  0.16779529  0.09112480  1
  O  O95  1  0.59359324  0.15710510  0.08854837  1
  O  O96  1  0.34546881  0.16545233  0.74880054  1
  O  O97  1  0.84524868  0.16539593  0.74892948  1
  O  O98  1  0.23702215  0.30844132  0.74828795  1
  O  O99  1  0.73709788  0.30857699  0.74834762  1
  O  O100  1  0.41696988  0.52616695  0.74853694  1
  O  O101  1  0.91686612  0.52625851  0.74860942  1
  O  O102  1  0.34208495  0.51857928  0.24396916  1
  O  O103  1  0.84631426  0.52624914  0.24881284  1
  O  O104  1  0.41517225  0.30938262  0.24338123  1
  O  O105  1  0.91640698  0.30692814  0.24879121  1
  O  O106  1  0.23772019  0.17328744  0.24349389  1
  O  O107  1  0.73606829  0.16559273  0.24910960  1
  O  O108  1  0.32012808  0.49518297  0.92322851  1
  O  O109  1  0.81978925  0.49555719  0.92402269  1
  O  O110  1  0.42710545  0.35906018  0.92288622  1
  O  O111  1  0.92804602  0.36069754  0.92434092  1
  O  O112  1  0.25197000  0.14450842  0.92333734  1
  O  O113  1  0.75248772  0.14460257  0.92404646  1
  O  O114  1  0.32376394  0.14878056  0.42348264  1
  O  O115  1  0.82013408  0.14383357  0.42432831  1
  O  O116  1  0.25221536  0.35946494  0.42361318  1
  O  O117  1  0.75228735  0.35776781  0.42337296  1
  O  O118  1  0.42933324  0.49254013  0.42366232  1
  O  O119  1  0.92808450  0.49547608  0.42402826  1
  O  O120  1  0.17551267  0.49909648  0.07726604  1
  O  O121  1  0.67747124  0.50263273  0.07281889  1
  O  O122  1  0.07385719  0.64319905  0.07321051  1
  O  O123  1  0.57374882  0.64931496  0.07674945  1
  O  O124  1  0.24907858  0.85624369  0.07640640  1
  O  O125  1  0.74975384  0.84882241  0.07378251  1
  O  O126  1  0.17775473  0.85170953  0.57321828  1
  O  O127  1  0.67793560  0.85239282  0.57319894  1
  O  O128  1  0.25057831  0.65110974  0.57338105  1
  O  O129  1  0.75069897  0.65076240  0.57285215  1
  O  O130  1  0.07737329  0.49642748  0.57411444  1
  O  O131  1  0.57759506  0.49631469  0.57394676  1
  O  O132  1  0.15039646  0.82498284  0.25646756  1
  O  O133  1  0.65365957  0.82748211  0.25721072  1
  O  O134  1  0.26002270  0.68706943  0.25699891  1
  O  O135  1  0.76132902  0.69792726  0.25618727  1
  O  O136  1  0.08771807  0.47754562  0.25624114  1
  O  O137  1  0.58681656  0.47313346  0.25703370  1
  O  O138  1  0.15024665  0.47718172  0.75606346  1
  O  O139  1  0.65043864  0.47732903  0.75616432  1
  O  O140  1  0.08820951  0.69913509  0.75595245  1
  O  O141  1  0.58836650  0.69958168  0.75597596  1
  O  O142  1  0.26127201  0.82333990  0.75595555  1
  O  O143  1  0.76125873  0.82336891  0.75617091  1
loop_
_geom_bond_atom_site_label_1
_geom_bond_atom_site_label_2
_geom_bond_distance
_geom_bond_site_symmetry_2
Na0 O105 2.396702 1_555
Na0 O135 2.476721 1_545
Na0 O107 2.501931 1_555
Na0 O133 2.567343 1_545
Na0 O33 2.568493 1_555
Na0 O63 2.808360 1_545
Na1 O106 2.399928 1_555
Na1 O136 2.421949 1_555
Na1 O102 2.483808 1_555
Na1 O134 2.524147 1_555
Na1 O34 2.691229 1_555
Na1 O64 2.754087 1_555
Na1 O20 2.935879 1_555
Na1 O0 2.937382 1_555
Na2 O107 2.396705 1_555
Na2 O137 2.458292 1_555
Na2 O103 2.511944 1_555
Na2 O35 2.560691 1_555
Na2 O135 2.625151 1_555
Na2 O65 2.805163 1_555
Na2 O21 2.934822 1_555
Na2 O1 2.998844 1_555
Na3 O103 2.402324 1_555
Na3 O132 2.465752 1_655
Na3 O105 2.496508 1_555
Na3 O31 2.563523 1_555
Na3 O136 2.605903 1_655
Na3 O60 2.775127 1_655
Na3 O22 2.961421 1_655
Na3 O3 3.001271 1_555
Na4 O100 2.405942 1_555
Na4 O142 2.463730 1_555
Na4 O98 2.488638 1_555
Na4 O28 2.590220 1_555
Na4 O138 2.619894 1_555
Na4 O70 2.781178 1_555
Na5 O101 2.398284 1_555
Na5 O143 2.469062 1_555
Na5 O99 2.488782 1_555
Na5 O29 2.572255 1_555
Na5 O139 2.623546 1_555
Na5 O71 2.811302 1_555
Na6 O97 2.410059 1_555
Na6 O138 2.465712 1_655
Na6 O25 2.498465 1_555
Na6 O101 2.500025 1_555
Na6 O140 2.628386 1_655
Na6 O66 2.828736 1_655
Na6 O14 2.968398 1_655
Na6 O11 3.006664 1_555
Na7 O96 2.403830 1_555
Na7 O139 2.470603 1_555
Na7 O100 2.499666 1_555
Na7 O24 2.529577 1_555
Na7 O141 2.636276 1_555
Na7 O67 2.797420 1_555
Na7 O15 2.963851 1_555
Na7 O10 2.998994 1_555
Na8 O98 2.404534 1_555
Na8 O140 2.468996 1_545
Na8 O96 2.481141 1_555
Na8 O26 2.576182 1_555
Na8 O142 2.625348 1_545
Na8 O68 2.782907 1_545
Na8 O16 2.961112 1_545
Na8 O6 2.995420 1_555
Na9 O99 2.401700 1_555
Na9 O141 2.469937 1_545
Na9 O97 2.475626 1_555
Na9 O27 2.558477 1_555
Na9 O143 2.627821 1_545
Na9 O69 2.814970 1_545
Na9 O17 2.958544 1_545
Na9 O7 2.996341 1_555
Na10 O86 2.430778 1_555
Na10 O130 2.450033 1_555
Na10 O128 2.504491 1_555
Na10 O85 2.587069 1_455
Na10 O14 2.741653 1_555
Na10 O56 2.763828 1_555
Na10 O28 2.790815 1_555
Na10 O42 2.915844 1_555
Na11 O87 2.435390 1_555
Na11 O131 2.459996 1_555
Na11 O129 2.500196 1_555
Na11 O84 2.604707 1_555
Na11 O15 2.756727 1_555
Na11 O29 2.784363 1_555
Na11 O57 2.787611 1_555
Na11 O43 2.882662 1_555
Na12 O84 2.465347 1_565
Na12 O126 2.470012 1_555
Na12 O128 2.524059 1_555
Na12 O88 2.537616 1_555
Na12 O54 2.742571 1_555
Na12 O12 2.746701 1_555
Na12 O26 2.820216 1_565
Na12 O46 2.909009 1_565
Na13 O85 2.460669 1_565
Na13 O127 2.472690 1_555
Na13 O89 2.539264 1_555
Na13 O129 2.540748 1_555
Na13 O13 2.751058 1_555
Na13 O55 2.775225 1_555
Na13 O27 2.819102 1_565
Na13 O47 2.861402 1_565
Na14 O95 2.416227 1_565
Na14 O123 2.519296 1_555
Na14 O125 2.523696 1_555
Na14 O90 2.538837 1_555
Na14 O23 2.702577 1_555
Na14 O53 2.772300 1_554
Na14 O33 2.816028 1_565
Na14 O37 2.906238 1_565
Na15 O91 2.433331 1_555
Na15 O121 2.460898 1_555
Na15 O125 2.525413 1_555
Na15 O93 2.607581 1_565
Na15 O19 2.760874 1_555
Na15 O49 2.766266 1_554
Na15 O35 2.794033 1_555
Na15 O39 2.874792 1_555
Na16 O122 2.441907 1_555
Na16 O93 2.482687 1_455
Na16 O120 2.505404 1_555
Na16 O94 2.561559 1_555
Na16 O50 2.719440 1_554
Na16 O20 2.776300 1_555
Na16 O31 2.838866 1_455
Na16 O41 2.889858 1_455
Na17 O77 2.398418 1_555
Na17 O118 2.406805 1_555
Na17 O74 2.489588 1_545
Na17 O114 2.513240 1_555
Na17 O4 2.700075 1_555
Na17 O46 2.768047 1_555
Na17 O61 2.931156 1_555
Na17 O57 2.933017 1_555
Na18 O72 2.546695 1_655
Na18 O76 2.587623 1_665
Na18 O75 2.589766 1_555
Na18 O89 2.591643 1_555
Na18 O86 2.602400 1_665
Na18 O85 2.649544 1_565
Na19 O73 2.488886 1_555
Na19 O88 2.559957 1_555
Na19 O87 2.576261 1_565
Na19 O74 2.604489 1_555
Na19 O77 2.626473 1_565
Na19 O84 2.663624 1_565
Na20 O80 2.530425 1_545
Na20 O83 2.597382 1_445
Na20 O78 2.599119 1_555
Na20 O91 2.607766 1_446
Na20 O93 2.648313 1_456
Na20 O94 2.652088 1_556
Na21 O82 2.587532 1_545
Na21 O79 2.590956 1_555
Na21 O95 2.594711 1_556
Na21 O92 2.609355 1_556
Na21 O90 2.636594 1_546
Na21 O81 2.652819 1_545
Na22 O96 2.555461 1_555
Na22 O100 2.561506 1_555
Na22 O98 2.561835 1_555
Na22 O110 2.568728 1_555
Na22 O108 2.574729 1_555
Na22 O112 2.578701 1_555
Na23 O97 2.535299 1_555
Na23 O101 2.543645 1_555
Na23 O99 2.550827 1_555
Na23 O113 2.605557 1_555
Na23 O109 2.610381 1_555
Na23 O111 2.611643 1_555
Na24 O102 2.573283 1_555
Na24 O104 2.582600 1_555
Na24 O106 2.583391 1_555
Na24 O114 2.619636 1_555
Na24 O116 2.625825 1_555
Na24 O118 2.633988 1_555
Na25 O105 2.528871 1_555
Na25 O107 2.529047 1_555
Na25 O103 2.535390 1_555
Na25 O117 2.595878 1_555
Na25 O119 2.621731 1_555
Na25 O115 2.622936 1_555
Na26 O124 2.504082 1_555
Na26 O120 2.597854 1_555
Na26 O132 2.606183 1_555
Na26 O134 2.615254 1_555
Na26 O122 2.656554 1_555
Na26 O136 2.700654 1_555
Na27 O123 2.543674 1_555
Na27 O137 2.574074 1_555
Na27 O133 2.615186 1_555
Na27 O135 2.655081 1_555
Na27 O121 2.658115 1_555
Na27 O125 2.693341 1_555
Na28 O140 2.559708 1_555
Na28 O130 2.595365 1_555
Na28 O138 2.617300 1_555
Na28 O126 2.621252 1_555
Na28 O142 2.625525 1_555
Na28 O128 2.680143 1_555
Na29 O141 2.564518 1_555
Na29 O131 2.595511 1_555
Na29 O127 2.619882 1_555
Na29 O139 2.623717 1_555
Na29 O143 2.631176 1_555
Na29 O129 2.687436 1_555
Nb0 O5 1.968766 1_455
Nb0 O3 1.969245 1_445
Nb0 O0 2.010832 1_555
Nb0 O75 2.012708 1_445
Nb0 O72 2.021220 1_545
Nb0 O76 2.021816 1_555
Nb1 O1 1.929310 1_565
Nb1 O2 1.939527 1_555
Nb1 O4 2.007340 1_565
Nb1 O73 2.023980 1_555
Nb1 O74 2.067159 1_555
Nb1 O77 2.082102 1_565
Nb2 O6 1.981339 1_555
Nb2 O11 1.982991 1_455
Nb2 O9 1.986118 1_445
Nb2 O78 2.008420 1_555
Nb2 O80 2.013127 1_545
Nb2 O83 2.016666 1_445
Nb3 O8 1.981482 1_555
Nb3 O10 1.984235 1_565
Nb3 O7 1.986591 1_565
Nb3 O82 2.005700 1_555
Nb3 O79 2.009410 1_565
Nb3 O81 2.009867 1_555
Nb4 O16 1.944502 1_655
Nb4 O13 1.996423 1_555
Nb4 O14 2.003742 1_665
Nb4 O89 2.024537 1_555
Nb4 O86 2.046741 1_665
Nb4 O85 2.081880 1_565
Nb5 O17 1.945195 1_555
Nb5 O12 1.998587 1_555
Nb5 O15 1.998673 1_565
Nb5 O87 2.034206 1_565
Nb5 O88 2.034684 1_555
Nb5 O84 2.086272 1_565
Nb6 O22 1.940701 1_545
Nb6 O20 2.007099 1_555
Nb6 O94 2.007529 1_555
Nb6 O19 2.017282 1_445
Nb6 O91 2.027449 1_445
Nb6 O93 2.094416 1_455
Nb7 O18 1.948213 1_555
Nb7 O21 1.980236 1_565
Nb7 O92 1.984932 1_565
Nb7 O23 2.033922 1_555
Nb7 O90 2.048607 1_555
Nb7 O95 2.071220 1_565
Nb8 O30 1.930747 1_555
Nb8 O32 1.932711 1_555
Nb8 O34 2.009192 1_555
Nb8 O104 2.018941 1_555
Nb8 O102 2.094430 1_555
Nb8 O106 2.101340 1_555
Nb9 O40 1.975650 1_556
Nb9 O36 1.977383 1_556
Nb9 O38 1.981016 1_556
Nb9 O112 2.029441 1_555
Nb9 O108 2.034502 1_555
Nb9 O110 2.038741 1_555
Nb10 O37 2.001547 1_556
Nb10 O39 2.002589 1_556
Nb10 O41 2.008750 1_556
Nb10 O111 2.017494 1_555
Nb10 O109 2.019272 1_555
Nb10 O113 2.022687 1_555
Nb11 O44 1.950521 1_555
Nb11 O42 1.967308 1_555
Nb11 O116 1.990671 1_555
Nb11 O46 2.048660 1_555
Nb11 O114 2.065056 1_555
Nb11 O118 2.071302 1_555
Nb12 O45 1.986948 1_555
Nb12 O47 2.001752 1_555
Nb12 O119 2.012069 1_555
Nb12 O43 2.016428 1_555
Nb12 O115 2.021556 1_555
Nb12 O117 2.027703 1_555
Nb13 O48 1.940459 1_554
Nb13 O52 1.945428 1_554
Nb13 O124 2.009635 1_555
Nb13 O50 2.024285 1_554
Nb13 O122 2.029527 1_555
Nb13 O120 2.087239 1_555
Nb14 O51 1.915903 1_554
Nb14 O53 1.985167 1_554
Nb14 O49 1.990082 1_554
Nb14 O121 1.997778 1_555
Nb14 O123 2.053553 1_555
Nb14 O125 2.071937 1_555
Nb15 O58 1.914160 1_555
Nb15 O56 1.976338 1_555
Nb15 O54 1.991220 1_555
Nb15 O130 2.013755 1_555
Nb15 O126 2.018206 1_555
Nb15 O128 2.074937 1_555
Nb16 O59 1.935076 1_555
Nb16 O55 1.970740 1_555
Nb16 O57 2.000658 1_555
Nb16 O127 2.004952 1_555
Nb16 O131 2.023898 1_555
Nb16 O129 2.053565 1_555
Nb17 O62 1.925206 1_555
Nb17 O64 1.979510 1_555
Nb17 O60 1.980702 1_555
Nb17 O134 2.035606 1_555
Nb17 O132 2.056934 1_555
Nb17 O136 2.098296 1_555
Nb18 O61 1.948153 1_555
Nb18 O63 1.973400 1_555
Nb18 O65 1.985254 1_555
Nb18 O133 2.022923 1_555
Nb18 O137 2.054771 1_555
Nb18 O135 2.088405 1_555
Nb19 O70 1.938213 1_555
Nb19 O68 1.939765 1_555
Nb19 O66 1.940564 1_555
Nb19 O138 2.095267 1_555
Nb19 O142 2.096130 1_555
Nb19 O140 2.101108 1_555
Nb20 O71 1.940951 1_555
Nb20 O67 1.942008 1_555
Nb20 O69 1.945347 1_555
Nb20 O143 2.086973 1_555
Nb20 O139 2.089222 1_555
Nb20 O141 2.095977 1_555
In0 O24 2.097632 1_555
In0 O28 2.113288 1_555
In0 O26 2.120632 1_555
In0 O100 2.199788 1_555
In0 O98 2.208865 1_555
In0 O96 2.211647 1_555
In1 O25 2.099554 1_555
In1 O29 2.114877 1_555
In1 O27 2.120573 1_555
In1 O101 2.206771 1_555
In1 O99 2.214127 1_555
In1 O97 2.220083 1_555
In2 O33 2.115559 1_555
In2 O35 2.115669 1_555
In2 O31 2.116189 1_555
In2 O103 2.209366 1_555
In2 O105 2.214259 1_555
In2 O107 2.215539 1_555
O0 Si0 1.631427 1_555
O1 Si1 1.658295 1_545
O2 Si2 1.643121 1_555
O3 Si3 1.640455 1_555
O4 Si5 1.644337 1_555
O5 Si4 1.637805 1_655
O6 Si6 1.632190 1_555
O7 Si7 1.630171 1_555
O8 Si9 1.627521 1_555
O9 Si8 1.628665 1_655
O10 Si10 1.631142 1_545
O11 Si11 1.630206 1_545
O12 Si10 1.673357 1_555
O13 Si11 1.672364 1_555
O14 Si6 1.670827 1_555
O15 Si7 1.672002 1_555
O16 Si8 1.676951 1_555
O17 Si9 1.675075 1_555
O18 Si2 1.639157 1_555
O19 Si3 1.665733 1_555
O20 Si4 1.667127 1_555
O21 Si5 1.646952 1_555
O22 Si0 1.669456 1_565
O23 Si1 1.640235 1_555
O24 Si12 1.605305 1_555
O25 Si13 1.606287 1_555
O26 Si14 1.613401 1_555
O27 Si15 1.618232 1_555
O28 Si16 1.613594 1_555
O29 Si17 1.617970 1_555
O30 Si18 1.651641 1_555
O31 Si19 1.619570 1_555
O32 Si20 1.653302 1_555
O33 Si21 1.618102 1_555
O34 Si22 1.644652 1_555
O35 Si23 1.621789 1_555
O36 Si22 1.630170 1_555
O37 Si23 1.652679 1_555
O38 Si18 1.625596 1_555
O39 Si19 1.651106 1_555
O40 Si20 1.629254 1_555
O41 Si21 1.646206 1_555
O42 Si14 1.662914 1_555
O43 Si15 1.643605 1_555
O44 Si16 1.654508 1_555
O45 Si17 1.638252 1_555
O46 Si12 1.655467 1_555
O47 Si13 1.646298 1_555
O48 Si24 1.637640 1_555
O49 Si25 1.637919 1_555
O50 Si26 1.631601 1_555
O51 Si27 1.643607 1_555
O52 Si28 1.636438 1_555
O53 Si29 1.640601 1_555
O54 Si30 1.633373 1_555
O55 Si31 1.644844 1_555
O56 Si32 1.639694 1_555
O57 Si33 1.649727 1_555
O58 Si34 1.649336 1_555
O59 Si35 1.641256 1_555
O60 Si34 1.651404 1_555
O61 Si35 1.654415 1_555
O62 Si30 1.651372 1_555
O63 Si31 1.655343 1_555
O64 Si32 1.648421 1_555
O65 Si33 1.654153 1_555
O66 Si26 1.672890 1_555
O67 Si27 1.667329 1_555
O68 Si28 1.671584 1_555
O69 Si29 1.668866 1_555
O70 Si24 1.671826 1_555
O71 Si25 1.668683 1_555
O72 Si34 1.629818 1_555
O73 Si35 1.622176 1_555
O74 Si30 1.637475 1_555
O75 Si31 1.636664 1_555
O76 Si32 1.628564 1_555
O77 Si33 1.646166 1_555
O78 Si26 1.637821 1_555
O79 Si27 1.627934 1_555
O80 Si28 1.633891 1_555
O81 Si29 1.630896 1_555
O82 Si24 1.632521 1_555
O83 Si25 1.631364 1_555
O84 Si12 1.673354 1_555
O85 Si13 1.672532 1_555
O86 Si14 1.646630 1_555
O87 Si15 1.654098 1_555
O88 Si16 1.648934 1_555
O89 Si17 1.655240 1_555
O90 Si18 1.645338 1_555
O91 Si19 1.660261 1_555
O92 Si20 1.646230 1_555
O93 Si21 1.659249 1_555
O94 Si22 1.668519 1_555
O95 Si23 1.644007 1_555
O96 Si10 1.614305 1_545
O97 Si11 1.613321 1_545
O98 Si6 1.615082 1_555
O99 Si7 1.614422 1_555
O100 Si9 1.611235 1_555
O101 Si8 1.611914 1_655
O102 Si2 1.636668 1_555
O103 Si3 1.614412 1_555
O104 Si5 1.633357 1_555
O105 Si4 1.613231 1_655
O106 Si0 1.628578 1_555
O107 Si1 1.622072 1_545
O108 Si24 1.622904 1_555
O109 Si25 1.633099 1_555
O110 Si27 1.618290 1_555
O111 Si26 1.637520 1_655
O112 Si28 1.624977 1_545
O113 Si29 1.631674 1_545
O114 Si30 1.643514 1_545
O115 Si31 1.635049 1_545
O116 Si32 1.649277 1_555
O117 Si33 1.624248 1_555
O118 Si35 1.638928 1_555
O119 Si34 1.632354 1_655
O120 Si22 1.644975 1_555
O121 Si23 1.651054 1_555
O122 Si19 1.637894 1_455
O123 Si18 1.654023 1_555
O124 Si20 1.639318 1_565
O125 Si21 1.651501 1_565
O126 Si14 1.639082 1_565
O127 Si15 1.648252 1_565
O128 Si16 1.652921 1_555
O129 Si17 1.662981 1_555
O130 Si13 1.651680 1_455
O131 Si12 1.650020 1_555
O132 Si0 1.641905 1_565
O133 Si1 1.653054 1_555
O134 Si2 1.652774 1_555
O135 Si3 1.655665 1_555
O136 Si4 1.652329 1_555
O137 Si5 1.655783 1_555
O138 Si6 1.656513 1_555
O139 Si7 1.657661 1_555
O140 Si8 1.652133 1_555
O141 Si9 1.652703 1_555
O142 Si10 1.656073 1_555
O143 Si11 1.658065 1_555
