# generated using pymatgen
data_Na4Ca2P2SO12
_symmetry_space_group_name_H-M   'P 1'
_cell_length_a   9.51143073
_cell_length_b   9.50138398
_cell_length_c   22.93667331
_cell_angle_alpha   90.08622830
_cell_angle_beta   90.00143296
_cell_angle_gamma   120.03571383
_symmetry_Int_Tables_number   1
_chemical_formula_structural   Na4Ca2P2SO12
_chemical_formula_sum   'Na24 Ca12 P12 S6 O72'
_cell_volume   1794.47208797
_cell_formula_units_Z   6
loop_
 _symmetry_equiv_pos_site_id
 _symmetry_equiv_pos_as_xyz
  1  'x, y, z'
loop_
 _atom_site_type_symbol
 _atom_site_label
 _atom_site_symmetry_multiplicity
 _atom_site_fract_x
 _atom_site_fract_y
 _atom_site_fract_z
 _atom_site_occupancy
  Na  Na0  1  0.63334075  0.00984598  0.25792978  1
  Na  Na1  1  0.34984000  0.34721741  0.24312879  1
  Na  Na2  1  0.01133156  0.63296109  0.24827261  1
  Na  Na3  1  0.62160948  0.63295685  0.74826856  1
  Na  Na4  1  0.99736911  0.34720646  0.74312772  1
  Na  Na5  1  0.37651714  0.00984624  0.75792194  1
  Na  Na6  1  0.30000775  0.34317898  0.59126278  1
  Na  Na7  1  0.01650700  0.68055041  0.57646179  1
  Na  Na8  1  0.67799856  0.96629409  0.58160561  1
  Na  Na9  1  0.28827648  0.96628985  0.08160156  1
  Na  Na10  1  0.66403611  0.68053946  0.07646072  1
  Na  Na11  1  0.04318414  0.34317924  0.09125494  1
  Na  Na12  1  0.96667375  0.67651298  0.92459678  1
  Na  Na13  1  0.68317300  0.01388441  0.90979579  1
  Na  Na14  1  0.34466456  0.29962809  0.91493961  1
  Na  Na15  1  0.95494248  0.29962385  0.41493556  1
  Na  Na16  1  0.33070211  0.01387346  0.40979472  1
  Na  Na17  1  0.70985014  0.67651324  0.42458894  1
  Na  Na18  1  0.98038975  0.99059558  0.49998862  1
  Na  Na19  1  0.01021036  0.99060851  -0.00000955  1
  Na  Na20  1  0.64705675  0.32392858  0.83332162  1
  Na  Na21  1  0.67687736  0.32394151  0.33332345  1
  Na  Na22  1  0.31372275  0.65726258  0.16665562  1
  Na  Na23  1  0.34354336  0.65727551  0.66665745  1
  Ca  Ca0  1  0.00185784  0.00197083  0.34654794  1
  Ca  Ca1  1  0.00012710  0.00197100  0.84654708  1
  Ca  Ca2  1  0.99572451  0.00215640  0.65338197  1
  Ca  Ca3  1  0.00642491  0.00215385  0.15338221  1
  Ca  Ca4  1  0.66852484  0.33530383  0.67988094  1
  Ca  Ca5  1  0.66679410  0.33530400  0.17988008  1
  Ca  Ca6  1  0.66239151  0.33548940  0.98671497  1
  Ca  Ca7  1  0.67309191  0.33548685  0.48671521  1
  Ca  Ca8  1  0.33519084  0.66863783  0.01321494  1
  Ca  Ca9  1  0.33346010  0.66863800  0.51321408  1
  Ca  Ca10  1  0.32905751  0.66882340  0.32004897  1
  Ca  Ca11  1  0.33975791  0.66882085  0.82004921  1
  P  P0  1  0.31041463  0.00088093  0.25056948  1
  P  P1  1  0.99950047  0.30781437  0.24976203  1
  P  P2  1  0.30831915  0.30781655  0.74976192  1
  P  P3  1  0.69046756  0.00087209  0.75056650  1
  P  P4  1  0.97708163  0.33421393  0.58390248  1
  P  P5  1  0.66616747  0.64114737  0.58309503  1
  P  P6  1  0.97498615  0.64114955  0.08309492  1
  P  P7  1  0.35713456  0.33420509  0.08389950  1
  P  P8  1  0.64374763  0.66754793  0.91723648  1
  P  P9  1  0.33283347  0.97448137  0.91642903  1
  P  P10  1  0.64165215  0.97448355  0.41642892  1
  P  P11  1  0.02380056  0.66753909  0.41723350  1
  S  S0  1  0.69298060  0.69400289  0.24984169  1
  S  S1  1  0.00101359  0.69399847  0.74984267  1
  S  S2  1  0.35964760  0.02733589  0.58317469  1
  S  S3  1  0.66768059  0.02733147  0.08317567  1
  S  S4  1  0.02631360  0.36066989  0.91650869  1
  S  S5  1  0.33434659  0.36066547  0.41650967  1
  O  O0  1  0.22662373  0.01648246  0.30615139  1
  O  O1  1  0.79095916  0.77745944  0.30252038  1
  O  O2  1  0.98316272  0.20647207  0.30476719  1
  O  O3  1  0.22331226  0.20647366  0.80476594  1
  O  O4  1  0.98649402  0.77743802  0.80252354  1
  O  O5  1  0.78987840  0.01647042  0.80614391  1
  O  O6  1  0.77665333  0.98373294  0.69608011  1
  O  O7  1  0.21023536  0.22104599  0.69418587  1
  O  O8  1  0.01840776  0.79151282  0.69679659  1
  O  O9  1  0.77309041  0.79150298  0.19679229  1
  O  O10  1  0.01080547  0.22103880  0.19418795  1
  O  O11  1  0.20706484  0.98373552  0.19608604  1
  O  O12  1  0.89329073  0.34981546  0.63948439  1
  O  O13  1  0.45762616  0.11079244  0.63585338  1
  O  O14  1  0.64982972  0.53980507  0.63810019  1
  O  O15  1  0.88997926  0.53980666  0.13809894  1
  O  O16  1  0.65316102  0.11077102  0.13585654  1
  O  O17  1  0.45654540  0.34980342  0.13947691  1
  O  O18  1  0.44332033  0.31706594  0.02941311  1
  O  O19  1  0.87690236  0.55437899  0.02751887  1
  O  O20  1  0.68507476  0.12484582  0.03012959  1
  O  O21  1  0.43975741  0.12483598  0.53012529  1
  O  O22  1  0.67747247  0.55437180  0.52752095  1
  O  O23  1  0.87373184  0.31706852  0.52941904  1
  O  O24  1  0.55995673  0.68314946  0.97281839  1
  O  O25  1  0.12429216  0.44412644  0.96918738  1
  O  O26  1  0.31649572  0.87313907  0.97143419  1
  O  O27  1  0.55664526  0.87314066  0.47143294  1
  O  O28  1  0.31982702  0.44410502  0.46919054  1
  O  O29  1  0.12321140  0.68313742  0.47281091  1
  O  O30  1  0.10998633  0.65039994  0.36274711  1
  O  O31  1  0.54356836  0.88771299  0.36085287  1
  O  O32  1  0.35174076  0.45817982  0.36346359  1
  O  O33  1  0.10642341  0.45816998  0.86345929  1
  O  O34  1  0.34413847  0.88770580  0.86085495  1
  O  O35  1  0.54039784  0.65040252  0.86275304  1
  O  O36  1  0.00806035  0.82351104  0.41503495  1
  O  O37  1  0.81578514  0.99651731  0.41549881  1
  O  O38  1  0.18472655  0.19648333  0.41401997  1
  O  O39  1  0.01176437  0.19649047  0.91402312  1
  O  O40  1  0.18073108  0.99651665  0.91549932  1
  O  O41  1  0.81544586  0.82352418  0.91503332  1
  O  O42  1  0.99703476  0.18080222  0.58482318  1
  O  O43  1  0.19353799  0.00713808  0.58645750  1
  O  O44  1  0.82476276  0.81142251  0.58424850  1
  O  O45  1  0.98666462  0.81142274  0.08424873  1
  O  O46  1  0.81359723  0.00713590  0.08645450  1
  O  O47  1  0.18376331  0.18079495  0.08482494  1
  O  O48  1  0.67472735  0.15684404  0.74836795  1
  O  O49  1  0.48245214  0.32985031  0.74883181  1
  O  O50  1  0.85139355  0.52981633  0.74735297  1
  O  O51  1  0.67843137  0.52982347  0.24735612  1
  O  O52  1  0.84739808  0.32984965  0.24883232  1
  O  O53  1  0.48211286  0.15685718  0.24836632  1
  O  O54  1  0.66370176  0.51413522  0.91815618  1
  O  O55  1  0.86020499  0.34047108  0.91979050  1
  O  O56  1  0.49142976  0.14475551  0.91758150  1
  O  O57  1  0.65333162  0.14475574  0.41758173  1
  O  O58  1  0.48026423  0.34046890  0.41978750  1
  O  O59  1  0.85043031  0.51412795  0.41815794  1
  O  O60  1  0.34139335  0.49017804  0.08170195  1
  O  O61  1  0.14911814  0.66318431  0.08216581  1
  O  O62  1  0.51805955  0.86315033  0.08068697  1
  O  O63  1  0.34509737  0.86315747  0.58069012  1
  O  O64  1  0.51406408  0.66318365  0.58216632  1
  O  O65  1  0.14877886  0.49019118  0.58170032  1
  O  O66  1  0.33036776  0.84746922  0.25149018  1
  O  O67  1  0.52687099  0.67380508  0.25312450  1
  O  O68  1  0.15809576  0.47808951  0.25091550  1
  O  O69  1  0.31999762  0.47808974  0.75091573  1
  O  O70  1  0.14693023  0.67380290  0.75312150  1
  O  O71  1  0.51709631  0.84746195  0.75149194  1
loop_
_geom_bond_atom_site_label_1
_geom_bond_atom_site_label_2
_geom_bond_distance
_geom_bond_site_symmetry_2
Na0 O53 2.465848 1_555
Na0 O66 2.500976 1_545
Na0 O31 2.581682 1_545
Na0 O52 2.690385 1_555
Na0 O67 2.827382 1_545
Na0 O16 2.936318 1_555
Na1 O17 2.580343 1_555
Na1 O53 2.673428 1_555
Na1 O68 2.678394 1_555
Na1 O67 2.698867 1_555
Na1 O51 2.712691 1_555
Na1 O32 2.949927 1_555
Na2 O68 2.484795 1_555
Na2 O52 2.496068 1_455
Na2 O66 2.678754 1_555
Na2 O15 2.733474 1_455
Na2 O30 2.764957 1_555
Na2 O51 2.807183 1_455
Na3 O69 2.484577 1_555
Na3 O49 2.496040 1_555
Na3 O71 2.678660 1_555
Na3 O14 2.733446 1_555
Na3 O35 2.765216 1_555
Na3 O50 2.807419 1_555
Na4 O12 2.580009 1_555
Na4 O48 2.673473 1_555
Na4 O69 2.678457 1_655
Na4 O70 2.698939 1_655
Na4 O50 2.712681 1_555
Na4 O33 2.949819 1_655
Na5 O48 2.465575 1_555
Na5 O71 2.500924 1_545
Na5 O34 2.581890 1_545
Na5 O49 2.690406 1_555
Na5 O70 2.827410 1_545
Na5 O13 2.936270 1_555
Na6 O65 2.465863 1_555
Na6 O42 2.500976 1_455
Na6 O7 2.581682 1_555
Na6 O64 2.690388 1_555
Na6 O43 2.827382 1_555
Na6 O28 2.936299 1_555
Na7 O29 2.580317 1_555
Na7 O65 2.673413 1_555
Na7 O44 2.678394 1_455
Na7 O43 2.698867 1_565
Na7 O63 2.712685 1_555
Na7 O8 2.949927 1_555
Na8 O44 2.484795 1_555
Na8 O64 2.496061 1_555
Na8 O42 2.678754 1_565
Na8 O27 2.733454 1_555
Na8 O6 2.764957 1_555
Na8 O63 2.807194 1_555
Na9 O45 2.484577 1_455
Na9 O61 2.496031 1_555
Na9 O47 2.678660 1_565
Na9 O26 2.733418 1_554
Na9 O11 2.765216 1_555
Na9 O62 2.807403 1_555
Na10 O24 2.579994 1_554
Na10 O60 2.673480 1_555
Na10 O45 2.678457 1_555
Na10 O46 2.698939 1_565
Na10 O62 2.712698 1_555
Na10 O9 2.949819 1_555
Na11 O60 2.465564 1_555
Na11 O47 2.500924 1_555
Na11 O10 2.581890 1_555
Na11 O61 2.690415 1_555
Na11 O46 2.827410 1_455
Na11 O25 2.936249 1_554
Na12 O41 2.465848 1_555
Na12 O54 2.500969 1_555
Na12 O19 2.581662 1_556
Na12 O40 2.690385 1_655
Na12 O55 2.827394 1_555
Na12 O4 2.936318 1_555
Na13 O5 2.580343 1_555
Na13 O41 2.673428 1_545
Na13 O56 2.678377 1_555
Na13 O55 2.698858 1_555
Na13 O39 2.712691 1_655
Na13 O20 2.949900 1_556
Na14 O56 2.484811 1_555
Na14 O40 2.496068 1_545
Na14 O54 2.678758 1_555
Na14 O3 2.733474 1_555
Na14 O18 2.764939 1_556
Na14 O39 2.807183 1_555
Na15 O57 2.484568 1_555
Na15 O37 2.496040 1_545
Na15 O59 2.678643 1_555
Na15 O2 2.733446 1_555
Na15 O23 2.765189 1_555
Na15 O38 2.807419 1_655
Na16 O0 2.580009 1_555
Na16 O36 2.673473 1_545
Na16 O57 2.678465 1_555
Na16 O58 2.698929 1_555
Na16 O38 2.712681 1_555
Na16 O21 2.949798 1_555
Na17 O36 2.465575 1_655
Na17 O59 2.500942 1_555
Na17 O22 2.581873 1_555
Na17 O37 2.690406 1_555
Na17 O58 2.827416 1_555
Na17 O1 2.936270 1_555
Na18 O37 2.509626 1_555
Na18 O44 2.512314 1_555
Na18 O42 2.603907 1_565
Na18 O36 2.606795 1_655
Na18 O38 2.774522 1_665
Na18 O43 2.783560 1_665
Na19 O40 2.509715 1_554
Na19 O45 2.512349 1_455
Na19 O47 2.603771 1_565
Na19 O41 2.606836 1_454
Na19 O39 2.774432 1_564
Na19 O46 2.783546 1_465
Na20 O49 2.509626 1_555
Na20 O56 2.512314 1_555
Na20 O54 2.603907 1_555
Na20 O48 2.606795 1_555
Na20 O50 2.774522 1_555
Na20 O55 2.783560 1_555
Na21 O52 2.509715 1_555
Na21 O57 2.512349 1_555
Na21 O59 2.603771 1_555
Na21 O53 2.606836 1_555
Na21 O51 2.774432 1_555
Na21 O58 2.783546 1_555
Na22 O61 2.509626 1_555
Na22 O68 2.512314 1_555
Na22 O66 2.603907 1_555
Na22 O60 2.606795 1_555
Na22 O62 2.774522 1_555
Na22 O67 2.783560 1_555
Na23 O64 2.509715 1_555
Na23 O69 2.512349 1_555
Na23 O71 2.603771 1_555
Na23 O65 2.606836 1_555
Na23 O63 2.774432 1_555
Na23 O70 2.783546 1_555
Ca0 O2 2.253193 1_455
Ca0 O0 2.270090 1_555
Ca0 O1 2.302997 1_445
Ca0 O36 2.335457 1_545
Ca0 O37 2.354713 1_445
Ca0 O38 2.368372 1_555
Ca1 O3 2.253150 1_555
Ca1 O5 2.270006 1_455
Ca1 O4 2.303102 1_445
Ca1 O41 2.335488 1_445
Ca1 O40 2.354573 1_545
Ca1 O39 2.368544 1_555
Ca2 O6 2.228672 1_545
Ca2 O7 2.260591 1_655
Ca2 O42 2.311041 1_555
Ca2 O8 2.341372 1_645
Ca2 O44 2.341788 1_545
Ca2 O43 2.410343 1_655
Ca3 O11 2.228598 1_545
Ca3 O10 2.260602 1_555
Ca3 O47 2.311025 1_555
Ca3 O9 2.341395 1_445
Ca3 O45 2.341840 1_445
Ca3 O46 2.410303 1_455
Ca4 O14 2.253193 1_555
Ca4 O12 2.270090 1_555
Ca4 O13 2.302997 1_555
Ca4 O48 2.335457 1_555
Ca4 O49 2.354713 1_555
Ca4 O50 2.368372 1_555
Ca5 O15 2.253150 1_555
Ca5 O17 2.270006 1_555
Ca5 O16 2.303102 1_555
Ca5 O53 2.335488 1_555
Ca5 O52 2.354573 1_555
Ca5 O51 2.368544 1_555
Ca6 O18 2.228672 1_556
Ca6 O19 2.260591 1_556
Ca6 O54 2.311041 1_555
Ca6 O20 2.341372 1_556
Ca6 O56 2.341788 1_555
Ca6 O55 2.410343 1_555
Ca7 O23 2.228598 1_555
Ca7 O22 2.260602 1_555
Ca7 O59 2.311025 1_555
Ca7 O21 2.341395 1_555
Ca7 O57 2.341840 1_555
Ca7 O58 2.410303 1_555
Ca8 O26 2.253193 1_554
Ca8 O24 2.270090 1_554
Ca8 O25 2.302997 1_554
Ca8 O60 2.335457 1_555
Ca8 O61 2.354713 1_555
Ca8 O62 2.368372 1_555
Ca9 O27 2.253150 1_555
Ca9 O29 2.270006 1_555
Ca9 O28 2.303102 1_555
Ca9 O65 2.335488 1_555
Ca9 O64 2.354573 1_555
Ca9 O63 2.368544 1_555
Ca10 O30 2.228672 1_555
Ca10 O31 2.260591 1_555
Ca10 O66 2.311041 1_555
Ca10 O32 2.341372 1_555
Ca10 O68 2.341788 1_555
Ca10 O67 2.410343 1_555
Ca11 O35 2.228598 1_555
Ca11 O34 2.260602 1_555
Ca11 O71 2.311025 1_555
Ca11 O33 2.341395 1_555
Ca11 O69 2.341840 1_555
Ca11 O70 2.410303 1_555
O0 P0 1.549247 1_555
O1 S0 1.488108 1_555
O2 P1 1.548195 1_555
O3 P2 1.548190 1_555
O4 S1 1.488075 1_655
O5 P3 1.549229 1_555
O6 P3 1.547070 1_565
O7 P2 1.549769 1_555
O8 S1 1.488665 1_555
O9 S0 1.488666 1_555
O10 P1 1.549760 1_455
O11 P0 1.547102 1_565
O12 P4 1.549247 1_555
O13 S2 1.488108 1_555
O14 P5 1.548195 1_555
O15 P6 1.548190 1_555
O16 S3 1.488075 1_555
O17 P7 1.549229 1_555
O18 P7 1.547070 1_555
O19 P6 1.549769 1_555
O20 S3 1.488665 1_555
O21 S2 1.488666 1_555
O22 P5 1.549760 1_555
O23 P4 1.547102 1_555
O24 P8 1.549247 1_555
O25 S4 1.488108 1_555
O26 P9 1.548195 1_555
O27 P10 1.548190 1_555
O28 S5 1.488075 1_555
O29 P11 1.549229 1_555
O30 P11 1.547070 1_555
O31 P10 1.549769 1_555
O32 S5 1.488665 1_555
O33 S4 1.488666 1_555
O34 P9 1.549760 1_555
O35 P8 1.547102 1_555
O36 P11 1.563157 1_555
O37 P10 1.562166 1_555
O38 S5 1.496429 1_555
O39 S4 1.496468 1_555
O40 P9 1.562208 1_555
O41 P8 1.563085 1_555
O42 P4 1.561459 1_555
O43 S2 1.495068 1_555
O44 P5 1.565367 1_555
O45 P6 1.565371 1_555
O46 S3 1.495097 1_555
O47 P7 1.561472 1_555
O48 P3 1.563157 1_555
O49 P2 1.562166 1_555
O50 S1 1.496429 1_655
O51 S0 1.496468 1_555
O52 P1 1.562208 1_555
O53 P0 1.563085 1_555
O54 P8 1.561473 1_555
O55 S4 1.495054 1_655
O56 P9 1.565366 1_545
O57 P10 1.565357 1_545
O58 S5 1.495111 1_555
O59 P11 1.561470 1_655
O60 P7 1.563171 1_555
O61 P6 1.562152 1_455
O62 S3 1.496427 1_565
O63 S2 1.496454 1_565
O64 P5 1.562223 1_555
O65 P4 1.563083 1_455
O66 P0 1.561459 1_565
O67 S0 1.495068 1_555
O68 P1 1.565367 1_455
O69 P2 1.565371 1_555
O70 S1 1.495097 1_555
O71 P3 1.561472 1_565
