# generated using pymatgen
data_Si3Ru2
_symmetry_space_group_name_H-M   'P 1'
_cell_length_a   5.57043126
_cell_length_b   5.57043126
_cell_length_c   8.86499109
_cell_angle_alpha   90.00000000
_cell_angle_beta   90.00000000
_cell_angle_gamma   90.00000000
_symmetry_Int_Tables_number   1
_chemical_formula_structural   Si3Ru2
_chemical_formula_sum   'Si12 Ru8'
_cell_volume   275.07805323
_cell_formula_units_Z   4
loop_
 _symmetry_equiv_pos_site_id
 _symmetry_equiv_pos_as_xyz
  1  'x, y, z'
loop_
 _atom_site_type_symbol
 _atom_site_label
 _atom_site_symmetry_multiplicity
 _atom_site_fract_x
 _atom_site_fract_y
 _atom_site_fract_z
 _atom_site_occupancy
  Si  Si0  1  0.82878102  0.82878102  0.75000000  1
  Si  Si1  1  0.82878102  0.17121898  0.25000000  1
  Si  Si2  1  0.17121898  0.82878102  0.25000000  1
  Si  Si3  1  0.17121898  0.17121898  0.75000000  1
  Si  Si4  1  0.20360246  0.64422250  0.59309973  1
  Si  Si5  1  0.79639754  0.35577750  0.59309973  1
  Si  Si6  1  0.64422250  0.79639754  0.40690027  1
  Si  Si7  1  0.35577750  0.20360246  0.40690027  1
  Si  Si8  1  0.20360246  0.35577750  0.09309973  1
  Si  Si9  1  0.35577750  0.79639754  0.90690027  1
  Si  Si10  1  0.64422250  0.20360246  0.90690027  1
  Si  Si11  1  0.79639754  0.64422250  0.09309973  1
  Ru  Ru0  1  -0.00000000  0.00000000  0.50000000  1
  Ru  Ru1  1  -0.00000000  0.00000000  0.00000000  1
  Ru  Ru2  1  0.50000000  0.50000000  0.75000000  1
  Ru  Ru3  1  0.50000000  0.50000000  0.25000000  1
  Ru  Ru4  1  -0.00000000  0.50000000  0.87253021  1
  Ru  Ru5  1  0.50000000  0.00000000  0.12746979  1
  Ru  Ru6  1  0.50000000  0.00000000  0.62746979  1
  Ru  Ru7  1  -0.00000000  0.50000000  0.37253021  1
loop_
_geom_bond_atom_site_label_1
_geom_bond_atom_site_label_2
_geom_bond_distance
_geom_bond_site_symmetry_2
Ru0 Si5 2.427990 1_455
Ru0 Si7 2.427990 1_555
Ru0 Si6 2.427990 1_445
Ru0 Si4 2.427990 1_545
Ru0 Si2 2.594433 1_545
Ru0 Si3 2.594433 1_555
Ru0 Si1 2.594433 1_455
Ru0 Si0 2.594433 1_445
Ru1 Si9 2.427990 1_544
Ru1 Si8 2.427990 1_555
Ru1 Si11 2.427990 1_445
Ru1 Si10 2.427990 1_454
Ru1 Si2 2.594433 1_545
Ru1 Si0 2.594433 1_444
Ru1 Si1 2.594433 1_455
Ru1 Si3 2.594433 1_554
Ru2 Si4 2.303494 1_555
Ru2 Si10 2.303494 1_555
Ru2 Si5 2.303494 1_555
Ru2 Si9 2.303494 1_555
Ru2 Si3 2.590064 1_555
Ru2 Si0 2.590064 1_555
Ru3 Si6 2.303494 1_555
Ru3 Si11 2.303494 1_555
Ru3 Si7 2.303494 1_555
Ru3 Si8 2.303494 1_555
Ru3 Si1 2.590064 1_555
Ru3 Si2 2.590064 1_555
Ru4 Si0 2.333190 1_455
Ru4 Si3 2.333190 1_555
Ru4 Si11 2.398980 1_456
Ru4 Si8 2.398980 1_556
Ru4 Si9 2.597404 1_555
Ru4 Si10 2.597404 1_455
Ru4 Si4 2.840421 1_555
Ru4 Si5 2.840421 1_455
Ru5 Si1 2.333190 1_555
Ru5 Si2 2.333190 1_545
Ru5 Si10 2.398980 1_554
Ru5 Si9 2.398980 1_544
Ru5 Si8 2.597404 1_555
Ru5 Si11 2.597404 1_545
Ru5 Si6 2.840421 1_545
Ru5 Si7 2.840421 1_555
Ru6 Si0 2.333190 1_545
Ru6 Si3 2.333190 1_555
Ru6 Si6 2.398980 1_545
Ru6 Si7 2.398980 1_555
Ru6 Si5 2.597404 1_555
Ru6 Si4 2.597404 1_545
Ru6 Si10 2.840421 1_555
Ru6 Si9 2.840421 1_545
Ru7 Si1 2.333190 1_455
Ru7 Si2 2.333190 1_555
Ru7 Si4 2.398980 1_555
Ru7 Si5 2.398980 1_455
Ru7 Si7 2.597404 1_555
Ru7 Si6 2.597404 1_455
Ru7 Si11 2.840421 1_455
Ru7 Si8 2.840421 1_555
