# generated using pymatgen
data_Na2Sc2Si(SO6)2
_symmetry_space_group_name_H-M   'P 1'
_cell_length_a   8.98646645
_cell_length_b   8.98646614
_cell_length_c   22.97032168
_cell_angle_alpha   90.05544213
_cell_angle_beta   89.94455789
_cell_angle_gamma   119.80549040
_symmetry_Int_Tables_number   1
_chemical_formula_structural   Na2Sc2Si(SO6)2
_chemical_formula_sum   'Na12 Sc12 Si6 S12 O72'
_cell_volume   1609.61949920
_cell_formula_units_Z   6
loop_
 _symmetry_equiv_pos_site_id
 _symmetry_equiv_pos_as_xyz
  1  'x, y, z'
loop_
 _atom_site_type_symbol
 _atom_site_label
 _atom_site_symmetry_multiplicity
 _atom_site_fract_x
 _atom_site_fract_y
 _atom_site_fract_z
 _atom_site_occupancy
  Na  Na0  1  0.00066332  0.62724448  0.25058822  1
  Na  Na1  1  0.37275552  0.99933668  0.75058822  1
  Na  Na2  1  0.66040153  0.96933875  0.58902422  1
  Na  Na3  1  0.03066125  0.33959847  0.08902422  1
  Na  Na4  1  0.97877348  0.67436948  0.92205643  1
  Na  Na5  1  0.32563052  0.02122652  0.42205643  1
  Na  Na6  1  0.01075822  0.99065173  0.50062842  1
  Na  Na7  1  0.00934827  0.98924178  0.00062842  1
  Na  Na8  1  0.66092644  0.31440416  0.83437349  1
  Na  Na9  1  0.68559584  0.33907356  0.33437349  1
  Na  Na10  1  0.33399730  0.66363429  0.16681465  1
  Na  Na11  1  0.33636571  0.66600270  0.66681465  1
  Sc  Sc0  1  0.99194669  0.00312223  0.35166532  1
  Sc  Sc1  1  0.99687777  0.00805331  0.85166532  1
  Sc  Sc2  1  0.00279091  0.99785666  0.64857729  1
  Sc  Sc3  1  0.00214334  0.99720909  0.14857729  1
  Sc  Sc4  1  0.66417133  0.31946356  0.68504404  1
  Sc  Sc5  1  0.68053644  0.33582867  0.18504404  1
  Sc  Sc6  1  0.65935811  0.33064907  0.98180089  1
  Sc  Sc7  1  0.66935093  0.34064189  0.48180089  1
  Sc  Sc8  1  0.32577376  0.68099773  0.01834446  1
  Sc  Sc9  1  0.31900227  0.67422624  0.51834446  1
  Sc  Sc10  1  0.31417409  0.64855995  0.31497526  1
  Sc  Sc11  1  0.35144005  0.68582591  0.81497526  1
  Si  Si0  1  0.99975429  0.29137349  0.24791521  1
  Si  Si1  1  0.70862651  0.00024571  0.74791521  1
  Si  Si2  1  0.36893844  0.04034276  0.58185386  1
  Si  Si3  1  0.95965724  0.63106156  0.08185386  1
  Si  Si4  1  0.33409180  0.96875776  0.91489044  1
  Si  Si5  1  0.03124224  0.66590820  0.41489044  1
  S  S0  1  0.29566876  0.00280718  0.25114828  1
  S  S1  1  0.70602024  0.70837530  0.24992156  1
  S  S2  1  0.29162470  0.29397976  0.74992156  1
  S  S3  1  0.99719282  0.70433124  0.75114828  1
  S  S4  1  0.96044292  0.33387011  0.58353681  1
  S  S5  1  0.66618882  0.62532439  0.58397326  1
  S  S6  1  0.66612989  0.03955708  0.08353681  1
  S  S7  1  0.37467561  0.33381118  0.08397326  1
  S  S8  1  0.62525144  0.66598973  0.91733973  1
  S  S9  1  0.04323119  0.37508615  0.91732710  1
  S  S10  1  0.62491385  0.95676881  0.41732710  1
  S  S11  1  0.33401027  0.37474856  0.41733973  1
  O  O0  1  0.21566264  0.02425905  0.30473256  1
  O  O1  1  0.81716436  0.78519915  0.30189587  1
  O  O2  1  0.97751124  0.17282522  0.30446571  1
  O  O3  1  0.21480085  0.18283564  0.80189587  1
  O  O4  1  0.97574095  0.78433736  0.80473256  1
  O  O5  1  0.82717478  0.02248876  0.80446571  1
  O  O6  1  0.79554166  0.97830590  0.68821344  1
  O  O7  1  0.18694823  0.21136245  0.69747869  1
  O  O8  1  0.03067686  0.81896151  0.70005514  1
  O  O9  1  0.78863755  0.81305177  0.19747869  1
  O  O10  1  0.02169410  0.20445834  0.18821344  1
  O  O11  1  0.18103849  0.96932314  0.20005514  1
  O  O12  1  0.88286165  0.36289155  0.63592293  1
  O  O13  1  0.49215999  0.12937081  0.63960365  1
  O  O14  1  0.64758808  0.52337785  0.63635597  1
  O  O15  1  0.87062919  0.50784001  0.13960365  1
  O  O16  1  0.63710845  0.11713835  0.13592293  1
  O  O17  1  0.47662215  0.35241192  0.13635597  1
  O  O18  1  0.45394227  0.30702995  0.03120945  1
  O  O19  1  0.84699532  0.53656717  0.02321762  1
  O  O20  1  0.69161207  0.14833642  0.03147261  1
  O  O21  1  0.46343283  0.15300468  0.52321762  1
  O  O22  1  0.69297005  0.54605773  0.53120945  1
  O  O23  1  0.85166358  0.30838793  0.53147261  1
  O  O24  1  0.54264956  0.68633412  0.96959347  1
  O  O25  1  0.14468469  0.45149715  0.97124974  1
  O  O26  1  0.29840836  0.83806324  0.97016443  1
  O  O27  1  0.54850285  0.85531531  0.47124974  1
  O  O28  1  0.31366588  0.45735044  0.46959347  1
  O  O29  1  0.16193676  0.70159164  0.47016443  1
  O  O30  1  0.12294440  0.64200488  0.35599482  1
  O  O31  1  0.51587938  0.87157712  0.36589502  1
  O  O32  1  0.35959938  0.47916231  0.36437760  1
  O  O33  1  0.12842288  0.48412062  0.86589502  1
  O  O34  1  0.35799512  0.87705560  0.85599482  1
  O  O35  1  0.52083769  0.64040062  0.86437760  1
  O  O36  1  0.02685998  0.84654817  0.40946971  1
  O  O37  1  0.79839407  0.97852703  0.41208614  1
  O  O38  1  0.18026843  0.20014777  0.41164545  1
  O  O39  1  0.02147297  0.20160593  0.91208614  1
  O  O40  1  0.15345183  0.97314002  0.90946971  1
  O  O41  1  0.79985223  0.81973157  0.91164545  1
  O  O42  1  0.96975088  0.17381734  0.58857413  1
  O  O43  1  0.17825980  0.01712265  0.58931696  1
  O  O44  1  0.81884815  0.80200168  0.58792752  1
  O  O45  1  0.98287735  0.82174020  0.08931696  1
  O  O46  1  0.82618266  0.03024912  0.08857413  1
  O  O47  1  0.19799832  0.18115185  0.08792752  1
  O  O48  1  0.67961890  0.16900427  0.74577526  1
  O  O49  1  0.46474057  0.31161997  0.74381727  1
  O  O50  1  0.84240958  0.53574549  0.74320521  1
  O  O51  1  0.68838003  0.53525943  0.24381727  1
  O  O52  1  0.83099573  0.32038110  0.24577526  1
  O  O53  1  0.46425451  0.15759042  0.24320521  1
  O  O54  1  0.65013506  0.51391118  0.92120684  1
  O  O55  1  0.87173645  0.36353450  0.92192786  1
  O  O56  1  0.50487622  0.15605393  0.92284830  1
  O  O57  1  0.63646550  0.12826355  0.42192786  1
  O  O58  1  0.48608882  0.34986494  0.42120684  1
  O  O59  1  0.84394607  0.49512378  0.42284830  1
  O  O60  1  0.35552745  0.48818706  0.07773824  1
  O  O61  1  0.14695146  0.63526971  0.07821819  1
  O  O62  1  0.51675440  0.86511694  0.07719002  1
  O  O63  1  0.36473029  0.85304854  0.57821819  1
  O  O64  1  0.51181294  0.64447255  0.57773824  1
  O  O65  1  0.13488306  0.48324560  0.57719002  1
  O  O66  1  0.31443364  0.84742178  0.25581642  1
  O  O67  1  0.53588351  0.69404015  0.25697750  1
  O  O68  1  0.16903373  0.48792109  0.25256129  1
  O  O69  1  0.30595985  0.46411649  0.75697750  1
  O  O70  1  0.15257822  0.68556636  0.75581642  1
  O  O71  1  0.51207891  0.83096627  0.75256129  1
loop_
_geom_bond_atom_site_label_1
_geom_bond_atom_site_label_2
_geom_bond_distance
_geom_bond_site_symmetry_2
Na0 O68 2.396337 1_555
Na0 O52 2.400278 1_455
Na0 O51 2.505479 1_455
Na0 O66 2.516730 1_555
Na0 O30 2.635730 1_555
Na0 O15 2.787480 1_455
Na0 O1 2.905680 1_455
Na0 O11 2.911094 1_555
Na1 O71 2.396337 1_555
Na1 O48 2.400278 1_565
Na1 O49 2.505479 1_565
Na1 O70 2.516730 1_555
Na1 O34 2.635729 1_555
Na1 O13 2.787480 1_565
Na1 O3 2.905680 1_565
Na1 O8 2.911094 1_555
Na2 O63 2.335377 1_555
Na2 O42 2.454911 1_565
Na2 O44 2.533340 1_555
Na2 O64 2.548922 1_555
Na2 O6 2.565189 1_555
Na2 O13 2.803343 1_565
Na2 O27 2.890580 1_555
Na2 O23 2.963528 1_565
Na3 O61 2.335377 1_555
Na3 O46 2.454911 1_455
Na3 O47 2.533340 1_555
Na3 O60 2.548922 1_555
Na3 O10 2.565189 1_555
Na3 O15 2.803343 1_455
Na3 O25 2.890580 1_554
Na3 O20 2.963528 1_455
Na4 O40 2.359484 1_655
Na4 O55 2.461049 1_555
Na4 O41 2.537354 1_555
Na4 O54 2.562847 1_555
Na4 O19 2.622574 1_556
Na4 O26 2.727304 1_655
Na4 O4 2.876151 1_555
Na4 O33 2.945122 1_655
Na5 O36 2.359484 1_545
Na5 O57 2.461049 1_555
Na5 O38 2.537354 1_555
Na5 O58 2.562847 1_555
Na5 O21 2.622574 1_555
Na5 O29 2.727304 1_545
Na5 O0 2.876151 1_555
Na5 O31 2.945122 1_545
Na6 O43 2.474185 1_565
Na6 O36 2.502592 1_555
Na6 O44 2.638718 1_455
Na6 O38 2.681982 1_565
Na6 O42 2.742490 1_465
Na6 O37 2.755135 1_455
Na7 O45 2.474185 1_455
Na7 O40 2.502592 1_554
Na7 O47 2.638718 1_565
Na7 O41 2.681982 1_454
Na7 O46 2.742490 1_465
Na7 O39 2.755135 1_564
Na8 O48 2.467720 1_555
Na8 O56 2.477503 1_555
Na8 O55 2.646266 1_555
Na8 O54 2.714351 1_555
Na8 O49 2.720081 1_555
Na8 O50 2.788967 1_555
Na9 O52 2.467720 1_555
Na9 O59 2.477503 1_555
Na9 O57 2.646266 1_555
Na9 O58 2.714351 1_555
Na9 O51 2.720081 1_555
Na9 O53 2.788967 1_555
Na10 O68 2.498749 1_555
Na10 O61 2.571305 1_555
Na10 O60 2.646902 1_555
Na10 O67 2.677469 1_555
Na10 O66 2.686947 1_555
Na10 O62 2.694144 1_555
Na11 O71 2.498749 1_555
Na11 O63 2.571305 1_555
Na11 O64 2.646902 1_555
Na11 O69 2.677469 1_555
Na11 O70 2.686947 1_555
Na11 O65 2.694144 1_555
O0 S0 1.484818 1_555
O0 Sc0 2.203780 1_455
O1 S1 1.488204 1_555
O1 Sc0 2.133177 1_565
O2 Si0 1.628718 1_555
O2 Sc0 1.928252 1_555
O3 S2 1.488204 1_555
O3 Sc1 2.133177 1_455
O4 S3 1.484818 1_555
O4 Sc1 2.203780 1_565
O5 Si1 1.628719 1_555
O5 Sc1 1.928252 1_555
O6 Si1 1.637093 1_565
O6 Sc2 2.000053 1_655
O7 S2 1.481010 1_555
O7 Sc2 2.127128 1_545
O8 S3 1.490840 1_455
O8 Sc2 2.109563 1_555
O9 S1 1.481010 1_555
O9 Sc3 2.127128 1_655
O10 Si0 1.637093 1_455
O10 Sc3 2.000053 1_545
O11 S0 1.490840 1_565
O11 Sc3 2.109563 1_555
O12 S4 1.476684 1_555
O12 Sc4 2.126442 1_555
O13 Si2 1.657113 1_555
O13 Sc4 1.942082 1_555
O14 S5 1.471246 1_555
O14 Sc4 2.215105 1_555
O15 Si3 1.657113 1_555
O15 Sc5 1.942082 1_555
O16 S6 1.476684 1_555
O16 Sc5 2.126442 1_555
O17 S7 1.471246 1_555
O17 Sc5 2.215105 1_555
O18 S7 1.484072 1_555
O18 Sc6 2.085091 1_554
O19 Si3 1.644989 1_555
O19 Sc6 2.017521 1_554
O20 S6 1.489119 1_555
O20 Sc6 2.132218 1_554
O21 Si2 1.644989 1_555
O21 Sc7 2.017521 1_555
O22 S5 1.484072 1_555
O22 Sc7 2.085091 1_555
O23 S4 1.489119 1_555
O23 Sc7 2.132218 1_555
O24 S8 1.468972 1_555
O24 Sc8 2.226583 1_556
O25 S9 1.488317 1_555
O25 Sc8 2.175915 1_556
O26 Si4 1.649840 1_555
O26 Sc8 1.904239 1_556
O27 S10 1.488317 1_555
O27 Sc9 2.175915 1_555
O28 S11 1.468972 1_555
O28 Sc9 2.226583 1_555
O29 Si5 1.649840 1_555
O29 Sc9 1.904239 1_555
O30 Si5 1.651880 1_555
O30 Sc10 1.934110 1_555
O31 S10 1.482120 1_555
O31 Sc10 2.249094 1_555
O32 S11 1.483403 1_555
O32 Sc10 2.096124 1_555
O33 S9 1.482120 1_555
O33 Sc11 2.249094 1_555
O34 Si4 1.651880 1_555
O34 Sc11 1.934110 1_555
O35 S8 1.483403 1_555
O35 Sc11 2.096124 1_555
O36 Si5 1.648077 1_555
O36 Sc0 2.069907 1_465
O37 S10 1.476407 1_555
O37 Sc0 2.148063 1_565
O38 S11 1.494236 1_555
O38 Sc0 2.217698 1_455
O39 S9 1.476406 1_555
O39 Sc1 2.148063 1_455
O40 Si4 1.648077 1_555
O40 Sc1 2.069907 1_465
O41 S8 1.494236 1_555
O41 Sc1 2.217698 1_565
O42 S4 1.486290 1_555
O42 Sc2 2.227103 1_645
O43 Si2 1.628851 1_555
O43 Sc2 2.023429 1_545
O44 S5 1.498579 1_555
O44 Sc2 2.208731 1_655
O45 Si3 1.628851 1_555
O45 Sc3 2.023429 1_655
O46 S6 1.486290 1_555
O46 Sc3 2.227103 1_645
O47 S7 1.498579 1_555
O47 Sc3 2.208731 1_545
O48 Si1 1.662360 1_555
O48 Sc4 1.996027 1_555
O49 S2 1.489782 1_555
O49 Sc4 2.215716 1_555
O50 S3 1.472520 1_555
O50 Sc4 2.243281 1_555
O51 S1 1.489782 1_555
O51 Sc5 2.215716 1_555
O52 Si0 1.662360 1_555
O52 Sc5 1.996027 1_555
O53 S0 1.472520 1_555
O53 Sc5 2.243281 1_555
O54 S8 1.493219 1_555
O54 Sc6 2.190142 1_555
O55 S9 1.495893 1_655
O55 Sc6 2.248620 1_555
O56 Si4 1.629038 1_545
O56 Sc6 2.014178 1_555
O57 S10 1.495893 1_545
O57 Sc7 2.248620 1_555
O58 S11 1.493219 1_555
O58 Sc7 2.190142 1_555
O59 Si5 1.629038 1_655
O59 Sc7 2.014178 1_555
O60 S7 1.487431 1_555
O60 Sc8 2.323970 1_555
O61 Si3 1.666654 1_455
O61 Sc8 1.995770 1_555
O62 S6 1.479389 1_565
O62 Sc8 2.165048 1_555
O63 Si2 1.666653 1_565
O63 Sc9 1.995770 1_555
O64 S5 1.487431 1_555
O64 Sc9 2.323970 1_555
O65 S4 1.479389 1_455
O65 Sc9 2.165048 1_555
O66 S0 1.491368 1_565
O66 Sc10 2.245164 1_555
O67 S1 1.477919 1_555
O67 Sc10 2.257847 1_555
O68 Si0 1.665560 1_455
O68 Sc10 1.992073 1_555
O69 S2 1.477919 1_555
O69 Sc11 2.257847 1_555
O70 S3 1.491368 1_455
O70 Sc11 2.245164 1_555
O71 Si1 1.665560 1_565
O71 Sc11 1.992073 1_555
