# generated using pymatgen
data_Na6Sc4Al4Si3(S3O16)3
_symmetry_space_group_name_H-M   'P 1'
_cell_length_a   17.40043124
_cell_length_b   8.68625146
_cell_length_c   22.42626963
_cell_angle_alpha   90.22517179
_cell_angle_beta   89.67322899
_cell_angle_gamma   119.90328966
_symmetry_Int_Tables_number   1
_chemical_formula_structural   Na6Sc4Al4Si3(S3O16)3
_chemical_formula_sum   'Na18 Sc12 Al12 Si9 S27 O144'
_cell_volume   2938.29285720
_cell_formula_units_Z   3
loop_
 _symmetry_equiv_pos_site_id
 _symmetry_equiv_pos_as_xyz
  1  'x, y, z'
loop_
 _atom_site_type_symbol
 _atom_site_label
 _atom_site_symmetry_multiplicity
 _atom_site_fract_x
 _atom_site_fract_y
 _atom_site_fract_z
 _atom_site_occupancy
  Na  Na0  1  0.00450886  0.64191142  0.25514927  1
  Na  Na1  1  0.50301595  0.36726313  0.74281367  1
  Na  Na2  1  0.16196204  0.30858463  0.91101133  1
  Na  Na3  1  0.66120954  0.30360255  0.91035752  1
  Na  Na4  1  0.16233543  0.02151371  0.41674403  1
  Na  Na5  1  0.66087307  0.01086690  0.41658291  1
  Na  Na6  1  0.99349265  0.98644798  0.49819378  1
  Na  Na7  1  0.49202768  0.99984772  0.50063745  1
  Na  Na8  1  0.99333672  0.99886947  0.99530017  1
  Na  Na9  1  0.49356616  0.00028678  0.99574460  1
  Na  Na10  1  0.33303389  0.33230633  0.82956025  1
  Na  Na11  1  0.84062483  0.33552969  0.83329420  1
  Na  Na12  1  0.34194728  0.34823989  0.33691786  1
  Na  Na13  1  0.83071970  0.32982978  0.33481685  1
  Na  Na14  1  0.17532479  0.68132739  0.17087388  1
  Na  Na15  1  0.66491354  0.67883832  0.17126566  1
  Na  Na16  1  0.16862883  0.65488984  0.66943125  1
  Na  Na17  1  0.66596754  0.65514640  0.66541469  1
  Sc  Sc0  1  0.00208724  0.01142861  0.64763601  1
  Sc  Sc1  1  0.50599309  0.02052817  0.64585163  1
  Sc  Sc2  1  0.00693379  0.99863447  0.14894271  1
  Sc  Sc3  1  0.50195693  0.99145558  0.14850362  1
  Sc  Sc4  1  0.82957503  0.33557348  0.69136824  1
  Sc  Sc5  1  0.33043329  0.32593240  0.19256764  1
  Sc  Sc6  1  0.16050417  0.65269768  0.01530018  1
  Sc  Sc7  1  0.66334778  0.65337712  0.01568524  1
  Sc  Sc8  1  0.16487278  0.67382768  0.51632623  1
  Sc  Sc9  1  0.65049418  0.65205586  0.52080520  1
  Sc  Sc10  1  0.65871651  0.67043708  0.31591207  1
  Sc  Sc11  1  0.15905094  0.64651926  0.81377816  1
  Al  Al0  1  0.00194687  0.99391676  0.35312494  1
  Al  Al1  1  0.50619060  0.99577644  0.34993869  1
  Al  Al2  1  0.00675216  0.02083283  0.84689488  1
  Al  Al3  1  0.50168379  0.01315904  0.84876057  1
  Al  Al4  1  0.32883785  0.33423941  0.68259340  1
  Al  Al5  1  0.82612117  0.32051687  0.18746425  1
  Al  Al6  1  0.34072326  0.33348671  0.97853574  1
  Al  Al7  1  0.83643670  0.33025369  0.98084954  1
  Al  Al8  1  0.34660798  0.35003795  0.48468999  1
  Al  Al9  1  0.84038303  0.34601537  0.47959821  1
  Al  Al10  1  0.16295342  0.67167482  0.31822911  1
  Al  Al11  1  0.65949290  0.65433522  0.81525235  1
  Si  Si0  1  0.14633573  0.99475729  0.25573847  1
  Si  Si1  1  0.65039313  0.00865425  0.25066845  1
  Si  Si2  1  0.15290555  0.29127383  0.74967484  1
  Si  Si3  1  0.64710880  0.29933110  0.75577792  1
  Si  Si4  1  0.47117394  0.32994251  0.58694102  1
  Si  Si5  1  0.00972658  0.35615935  0.91658346  1
  Si  Si6  1  0.51504944  0.36558961  0.91362714  1
  Si  Si7  1  0.01508225  0.66295704  0.41420208  1
  Si  Si8  1  0.50950981  0.66530236  0.41653319  1
  S  S0  1  0.35167467  0.71457787  0.25448466  1
  S  S1  1  0.85492781  0.70675012  0.24901680  1
  S  S2  1  0.00076876  0.29022030  0.25155844  1
  S  S3  1  0.50117445  0.28293042  0.25236360  1
  S  S4  1  0.00072444  0.72014941  0.75260146  1
  S  S5  1  0.50200231  0.71750702  0.75389113  1
  S  S6  1  0.35458773  -0.00078316  0.75159520  1
  S  S7  1  0.85153923  0.98908923  0.75467802  1
  S  S8  1  0.97522634  0.33274115  0.58093501  1
  S  S9  1  0.19314218  0.05386206  0.58089454  1
  S  S10  1  0.69489292  0.05233333  0.57933844  1
  S  S11  1  0.33138173  0.61348787  0.58332993  1
  S  S12  1  0.83435488  0.62132468  0.58023595  1
  S  S13  1  0.47482732  0.61739373  0.08087903  1
  S  S14  1  0.97040191  0.60901759  0.08456979  1
  S  S15  1  0.33278001  0.04603172  0.08040072  1
  S  S16  1  0.83313347  0.05295124  0.08380683  1
  S  S17  1  0.19242508  0.33498508  0.08014434  1
  S  S18  1  0.69584250  0.33520433  0.08191834  1
  S  S19  1  0.31919534  0.66898947  0.91766459  1
  S  S20  1  0.81567202  0.66969527  0.91534648  1
  S  S21  1  0.16709500  0.96655655  0.91777679  1
  S  S22  1  0.66573904  0.95624883  0.91541823  1
  S  S23  1  0.31543641  0.96003412  0.41348419  1
  S  S24  1  0.81963192  0.96716226  0.41747052  1
  S  S25  1  0.16400503  0.37511598  0.41332354  1
  S  S26  1  0.66700035  0.36719350  0.41662629  1
  O  O0  1  0.09553957  0.02426631  0.31145629  1
  O  O1  1  0.60347704  0.03383346  0.31011861  1
  O  O2  1  0.41011347  0.80772800  0.30521215  1
  O  O3  1  0.91189077  0.79183168  0.30199806  1
  O  O4  1  0.48858989  0.17120597  0.30496618  1
  O  O5  1  0.98249418  0.17431536  0.30383596  1
  O  O6  1  0.10750140  0.17548487  0.81071102  1
  O  O7  1  0.60044931  0.17402570  0.81365324  1
  O  O8  1  0.48799677  0.80532075  0.80667386  1
  O  O9  1  0.98869335  0.80847628  0.80569358  1
  O  O10  1  0.41147105  0.02316986  0.80468344  1
  O  O11  1  0.91038385  0.01450089  0.80590351  1
  O  O12  1  0.39192481  0.96631474  0.69738572  1
  O  O13  1  0.88590430  0.95433319  0.69873831  1
  O  O14  1  0.08723463  0.19886341  0.69269842  1
  O  O15  1  0.58468437  0.21539428  0.69725673  1
  O  O16  1  0.00643332  0.81428440  0.69698443  1
  O  O17  1  0.51370881  0.81611424  0.69875119  1
  O  O18  1  0.38559321  0.81606387  0.19804883  1
  O  O19  1  0.89323805  0.81729458  0.19501508  1
  O  O20  1  0.01292239  0.21038081  0.19648870  1
  O  O21  1  0.50682853  0.19953284  0.19621905  1
  O  O22  1  0.08422608  0.95200335  0.19539730  1
  O  O23  1  0.58774675  0.97326522  0.19179244  1
  O  O24  1  0.42561377  0.35253852  0.64848982  1
  O  O25  1  0.93665867  0.35337062  0.63661993  1
  O  O26  1  0.24478860  0.14258799  0.63449776  1
  O  O27  1  0.74455284  0.13893690  0.63401961  1
  O  O28  1  0.31819515  0.50670931  0.63779877  1
  O  O29  1  0.82438714  0.52095482  0.63565038  1
  O  O30  1  0.43588357  0.51988365  0.13636840  1
  O  O31  1  0.92926957  0.50768320  0.14029038  1
  O  O32  1  0.32304853  0.12725836  0.13581890  1
  O  O33  1  0.82495493  0.14143958  0.13846649  1
  O  O34  1  0.24245027  0.35107934  0.13466525  1
  O  O35  1  0.74919623  0.35260978  0.13513415  1
  O  O36  1  0.23659786  0.31861715  0.02569369  1
  O  O37  1  0.73773215  0.31631846  0.02591496  1
  O  O38  1  0.42056378  0.52463201  0.02805363  1
  O  O39  1  0.91736184  0.52050257  0.03110147  1
  O  O40  1  0.34099729  0.15568826  0.02753422  1
  O  O41  1  0.84133191  0.15762461  0.02954733  1
  O  O42  1  0.23251787  0.15454219  0.52461982  1
  O  O43  1  0.73908175  0.16043438  0.52509132  1
  O  O44  1  0.33741369  0.52426600  0.52843034  1
  O  O45  1  0.84344039  0.52818068  0.52728406  1
  O  O46  1  0.41412711  0.30680818  0.52785196  1
  O  O47  1  0.92121765  0.31629710  0.52810691  1
  O  O48  1  0.28103474  0.70823009  0.97106668  1
  O  O49  1  0.78068626  0.70961969  0.97042637  1
  O  O50  1  0.07969094  0.44333021  0.97333454  1
  O  O51  1  0.58338295  0.44926487  0.97146242  1
  O  O52  1  0.15467334  0.85743194  0.97144221  1
  O  O53  1  0.65492714  0.85243172  0.96993997  1
  O  O54  1  0.28047775  0.85129194  0.46818248  1
  O  O55  1  0.78335761  0.85452955  0.47026011  1
  O  O56  1  0.15220002  0.45516547  0.46816921  1
  O  O57  1  0.65522190  0.45133394  0.47011404  1
  O  O58  1  0.08450937  0.71517523  0.47043020  1
  O  O59  1  0.58005084  0.71802293  0.47174448  1
  O  O60  1  0.06308463  0.63162553  0.35592580  1
  O  O61  1  0.55549003  0.62775350  0.35872969  1
  O  O62  1  0.25427715  0.86736117  0.36257941  1
  O  O63  1  0.76193783  0.88940379  0.36461089  1
  O  O64  1  0.18021753  0.49185287  0.36102226  1
  O  O65  1  0.68704381  0.47873436  0.36343136  1
  O  O66  1  0.05725110  0.48604157  0.86034698  1
  O  O67  1  0.56515356  0.49750418  0.85763760  1
  O  O68  1  0.18709104  0.89371088  0.86496247  1
  O  O69  1  0.68397034  0.87636042  0.86287570  1
  O  O70  1  0.26087295  0.63072841  0.86565679  1
  O  O71  1  0.75488129  0.63516623  0.86459422  1
  O  O72  1  0.00618199  0.84329350  0.40728557  1
  O  O73  1  0.50422963  0.84742386  0.40665682  1
  O  O74  1  0.40536357  0.99194309  0.40252306  1
  O  O75  1  0.91018581  0.99785765  0.40504253  1
  O  O76  1  0.08127844  0.19851218  0.40658080  1
  O  O77  1  0.58474041  0.19127559  0.40961663  1
  O  O78  1  0.00469639  0.16369575  0.90623811  1
  O  O79  1  0.50500560  0.16687810  0.90651273  1
  O  O80  1  0.08530057  0.97914303  0.91148295  1
  O  O81  1  0.58443024  0.96996686  0.90929121  1
  O  O82  1  0.40899496  0.81971551  0.90747037  1
  O  O83  1  0.90586879  0.81707108  0.90528580  1
  O  O84  1  0.48243584  0.15344465  0.58727958  1
  O  O85  1  0.98122293  0.16762436  0.58236016  1
  O  O86  1  0.10208321  0.02765470  0.58493120  1
  O  O87  1  0.60486337  0.02865570  0.58211930  1
  O  O88  1  0.41321722  0.78640620  0.58755695  1
  O  O89  1  0.91622267  0.79733832  0.58333718  1
  O  O90  1  0.48106643  0.79454434  0.08222739  1
  O  O91  1  0.97800447  0.78720323  0.08665478  1
  O  O92  1  0.41361608  0.03051225  0.08284948  1
  O  O93  1  0.91393594  0.03718270  0.08703992  1
  O  O94  1  0.10245730  0.17463752  0.08305862  1
  O  O95  1  0.60621797  0.17755863  0.08508247  1
  O  O96  1  0.35134214  0.16646464  0.74734477  1
  O  O97  1  0.84734453  0.15485444  0.74912793  1
  O  O98  1  0.24997332  0.30786974  0.73941677  1
  O  O99  1  0.74443138  0.31621690  0.74975270  1
  O  O100  1  0.42452049  0.53452232  0.75029203  1
  O  O101  1  0.92351973  0.53789618  0.75016239  1
  O  O102  1  0.34695090  0.53964248  0.24870659  1
  O  O103  1  0.85424432  0.53359169  0.24069144  1
  O  O104  1  0.42358214  0.31061765  0.24934673  1
  O  O105  1  0.92413465  0.32260734  0.24355157  1
  O  O106  1  0.24286052  0.17179380  0.24870549  1
  O  O107  1  0.74779219  0.18847100  0.24168424  1
  O  O108  1  0.32230855  0.50157648  0.92771244  1
  O  O109  1  0.81713705  0.49888274  0.92476407  1
  O  O110  1  0.41894892  0.34902350  0.92503297  1
  O  O111  1  0.91456503  0.34185514  0.92870491  1
  O  O112  1  0.24271049  0.15274848  0.92745360  1
  O  O113  1  0.74219378  0.14244788  0.92347580  1
  O  O114  1  0.31595871  0.13172479  0.42053826  1
  O  O115  1  0.82399500  0.14307786  0.42641148  1
  O  O116  1  0.23915011  0.34142214  0.41952652  1
  O  O117  1  0.74246781  0.33080435  0.42541309  1
  O  O118  1  0.41294621  0.49090908  0.42656332  1
  O  O119  1  0.91893484  0.48764037  0.42521390  1
  O  O120  1  0.18427253  0.49725053  0.07790412  1
  O  O121  1  0.68968051  0.49941393  0.07955884  1
  O  O122  1  0.06038967  0.63034962  0.08027959  1
  O  O123  1  0.56529541  0.64155438  0.07569324  1
  O  O124  1  0.25300361  0.86749549  0.07590769  1
  O  O125  1  0.75298551  0.87566045  0.08005131  1
  O  O126  1  0.18706490  0.87669359  0.57897317  1
  O  O127  1  0.69124606  0.87929447  0.57634835  1
  O  O128  1  0.25238620  0.63599424  0.57870516  1
  O  O129  1  0.75629966  0.64318719  0.57510092  1
  O  O130  1  0.06558791  0.48914546  0.57561443  1
  O  O131  1  0.57063620  0.50779681  0.58383414  1
  O  O132  1  0.15653939  0.81710589  0.26153578  1
  O  O133  1  0.66333437  0.83545004  0.25448087  1
  O  O134  1  0.26094301  0.68519540  0.26379571  1
  O  O135  1  0.76501912  0.67350531  0.25665175  1
  O  O136  1  0.08240276  0.46672076  0.25825774  1
  O  O137  1  0.58322250  0.45624765  0.25567375  1
  O  O138  1  0.16440625  0.48966284  0.75446953  1
  O  O139  1  0.65672166  0.49737435  0.76147208  1
  O  O140  1  0.08286287  0.71047579  0.75633162  1
  O  O141  1  0.58405775  0.70276592  0.76123267  1
  O  O142  1  0.26481208  0.84891212  0.75975852  1
  O  O143  1  0.76150081  0.83742605  0.76506538  1
loop_
_geom_bond_atom_site_label_1
_geom_bond_atom_site_label_2
_geom_bond_distance
_geom_bond_site_symmetry_2
Na0 O132 2.307190 1_555
Na0 O103 2.319750 1_455
Na0 O105 2.418071 1_455
Na0 O136 2.493210 1_555
Na0 O60 2.504654 1_555
Na0 O22 2.693829 1_555
Na0 O3 2.731193 1_455
Na0 O31 2.863796 1_455
Na1 O96 2.329462 1_555
Na1 O139 2.366593 1_555
Na1 O100 2.445104 1_555
Na1 O24 2.482651 1_555
Na1 O141 2.559634 1_555
Na1 O15 2.577876 1_555
Na1 O67 2.805198 1_555
Na1 O10 2.942150 1_555
Na2 O78 2.377422 1_555
Na2 O112 2.418404 1_555
Na2 O108 2.465478 1_555
Na2 O80 2.482409 1_545
Na2 O6 2.491140 1_555
Na2 O50 2.647209 1_555
Na2 O70 2.650897 1_555
Na2 O36 2.869208 1_556
Na3 O79 2.364070 1_555
Na3 O109 2.400003 1_555
Na3 O7 2.430724 1_555
Na3 O113 2.450834 1_555
Na3 O81 2.514654 1_545
Na3 O51 2.643158 1_555
Na3 O71 2.707071 1_555
Na3 O37 2.896829 1_556
Na4 O114 2.349392 1_555
Na4 O72 2.373673 1_545
Na4 O116 2.410073 1_555
Na4 O76 2.563895 1_555
Na4 O58 2.603398 1_545
Na4 O0 2.643148 1_555
Na4 O42 2.698902 1_555
Na4 O62 2.815824 1_545
Na5 O73 2.374968 1_545
Na5 O117 2.417214 1_555
Na5 O115 2.485747 1_555
Na5 O77 2.511823 1_555
Na5 O59 2.533110 1_545
Na5 O1 2.639592 1_555
Na5 O63 2.716822 1_545
Na5 O43 2.776965 1_555
Na6 O89 2.438299 1_555
Na6 O72 2.449512 1_655
Na6 O85 2.528263 1_565
Na6 O75 2.579645 1_555
Na6 O86 2.616163 1_665
Na6 O76 2.671324 1_665
Na7 O84 2.404439 1_565
Na7 O73 2.548217 1_555
Na7 O88 2.565245 1_555
Na7 O87 2.608472 1_565
Na7 O77 2.616989 1_565
Na7 O74 2.655875 1_555
Na8 O78 2.411230 1_665
Na8 O80 2.521881 1_655
Na8 O83 2.549277 1_555
Na8 O93 2.583226 1_566
Na8 O94 2.634044 1_666
Na8 O91 2.680153 1_556
Na9 O79 2.422635 1_555
Na9 O92 2.479786 1_556
Na9 O82 2.500435 1_545
Na9 O90 2.576357 1_546
Na9 O81 2.589288 1_545
Na9 O95 2.690448 1_556
Na10 O98 2.438192 1_555
Na10 O100 2.446201 1_555
Na10 O96 2.450754 1_555
Na10 O110 2.580291 1_555
Na10 O112 2.695529 1_555
Na10 O108 2.699144 1_555
Na11 O99 2.468440 1_555
Na11 O101 2.472489 1_555
Na11 O97 2.489300 1_555
Na11 O111 2.489312 1_555
Na11 O109 2.633269 1_555
Na11 O113 2.638107 1_555
Na12 O118 2.363472 1_555
Na12 O104 2.531290 1_555
Na12 O114 2.535415 1_555
Na12 O116 2.548057 1_555
Na12 O102 2.562177 1_555
Na12 O106 2.572076 1_555
Na13 O107 2.489937 1_555
Na13 O119 2.502141 1_555
Na13 O117 2.542320 1_555
Na13 O115 2.588197 1_555
Na13 O105 2.626389 1_555
Na13 O103 2.655777 1_555
Na14 O132 2.447395 1_555
Na14 O134 2.558938 1_555
Na14 O124 2.606267 1_555
Na14 O136 2.630018 1_555
Na14 O120 2.673244 1_555
Na14 O122 2.734926 1_555
Na15 O133 2.313183 1_555
Na15 O137 2.569033 1_555
Na15 O135 2.611953 1_555
Na15 O125 2.614434 1_555
Na15 O123 2.679668 1_555
Na15 O121 2.734756 1_555
Na16 O138 2.370016 1_555
Na16 O128 2.548107 1_555
Na16 O140 2.633664 1_555
Na16 O142 2.635206 1_555
Na16 O130 2.675730 1_555
Na16 O126 2.708741 1_555
Na17 O131 2.374101 1_555
Na17 O139 2.518738 1_555
Na17 O129 2.590075 1_555
Na17 O127 2.672202 1_555
Na17 O141 2.714016 1_555
Na17 O143 2.766731 1_555
Al0 O0 1.775227 1_565
Al0 O72 1.817186 1_555
Al0 O75 1.984737 1_455
Al0 O76 2.014223 1_565
Al0 O3 2.028184 1_455
Al0 O5 2.082929 1_465
Al1 O1 1.788722 1_565
Al1 O73 1.802275 1_555
Al1 O2 1.937154 1_555
Al1 O4 1.978375 1_565
Al1 O77 2.057138 1_565
Al1 O74 2.094824 1_555
Al2 O6 1.783420 1_555
Al2 O78 1.828418 1_555
Al2 O11 1.893452 1_455
Al2 O9 1.940869 1_445
Al2 O80 2.148833 1_545
Al2 O83 2.196136 1_445
Al3 O7 1.767684 1_555
Al3 O79 1.836838 1_555
Al3 O10 1.898216 1_555
Al3 O8 1.940947 1_545
Al3 O82 2.109318 1_545
Al3 O81 2.149768 1_545
Al4 O24 1.779117 1_555
Al4 O98 1.796798 1_555
Al4 O28 1.891665 1_555
Al4 O26 1.910485 1_555
Al4 O96 2.231136 1_555
Al4 O100 2.285525 1_555
Al5 O107 1.756447 1_555
Al5 O33 1.892832 1_555
Al5 O35 1.907660 1_555
Al5 O31 2.016477 1_555
Al5 O103 2.043560 1_555
Al5 O105 2.117670 1_555
Al6 O110 1.763558 1_555
Al6 O40 1.900900 1_556
Al6 O38 1.903467 1_556
Al6 O108 2.004317 1_555
Al6 O112 2.006036 1_555
Al6 O36 2.040528 1_556
Al7 O111 1.752718 1_555
Al7 O41 1.894662 1_556
Al7 O39 1.914958 1_556
Al7 O37 1.939008 1_556
Al7 O113 2.084748 1_555
Al7 O109 2.085682 1_555
Al8 O46 1.707032 1_555
Al8 O118 1.765236 1_555
Al8 O44 1.872464 1_555
Al8 O42 2.063246 1_555
Al8 O114 2.220182 1_555
Al8 O116 2.351212 1_555
Al9 O119 1.784755 1_555
Al9 O45 1.885120 1_555
Al9 O47 1.900049 1_555
Al9 O43 1.976304 1_555
Al9 O115 2.024238 1_555
Al9 O117 2.048125 1_555
Al10 O60 1.799533 1_555
Al10 O132 1.838365 1_555
Al10 O62 1.927492 1_555
Al10 O64 1.983418 1_555
Al10 O134 2.046693 1_555
Al10 O136 2.111277 1_555
Al11 O67 1.793510 1_555
Al11 O139 1.799453 1_555
Al11 O141 1.985007 1_555
Al11 O143 2.030583 1_555
Al11 O69 2.052175 1_555
Al11 O71 2.074868 1_555
O0 Si0 1.618355 1_545
O1 Si1 1.629461 1_555
O2 S0 1.472578 1_555
O3 S1 1.488799 1_555
O4 S3 1.474979 1_555
O5 S2 1.474801 1_655
O6 Si2 1.647910 1_555
O7 Si3 1.626792 1_555
O8 S5 1.489081 1_555
O9 S4 1.483326 1_655
O10 S6 1.498866 1_555
O11 S7 1.484232 1_545
O12 S6 1.468034 1_565
O12 Sc1 2.131474 1_565
O13 S7 1.480199 1_555
O13 Sc0 2.150514 1_665
O14 Si2 1.636098 1_555
O14 Sc0 1.861758 1_555
O15 Si3 1.628793 1_555
O15 Sc1 1.939259 1_555
O16 S4 1.469625 1_555
O16 Sc0 2.075559 1_565
O17 S5 1.461424 1_555
O17 Sc1 2.198684 1_565
O18 S0 1.486198 1_555
O18 Sc3 2.137117 1_555
O19 S1 1.481472 1_555
O19 Sc2 2.084455 1_655
O20 S2 1.479000 1_555
O20 Sc2 2.079788 1_545
O21 S3 1.477260 1_555
O21 Sc3 2.062053 1_545
O22 Si0 1.658216 1_555
O22 Sc2 1.902811 1_555
O23 Si1 1.644765 1_565
O23 Sc3 1.857078 1_555
O24 Si4 1.647056 1_555
O25 S8 1.466484 1_555
O25 Sc4 2.165981 1_555
O26 S9 1.470081 1_555
O27 S10 1.474136 1_555
O27 Sc4 2.060362 1_555
O28 S11 1.482757 1_555
O29 S12 1.479821 1_555
O29 Sc4 2.079546 1_555
O30 S13 1.466821 1_555
O30 Sc5 2.168317 1_555
O31 S14 1.489579 1_555
O32 S15 1.476794 1_555
O32 Sc5 2.092327 1_555
O33 S16 1.487727 1_555
O34 S17 1.470273 1_555
O34 Sc5 2.106187 1_555
O35 S18 1.476582 1_555
O36 S17 1.482914 1_555
O37 S18 1.497588 1_555
O38 S13 1.480172 1_555
O39 S14 1.476013 1_555
O40 S15 1.484756 1_555
O41 S16 1.484963 1_555
O42 S9 1.492764 1_555
O43 S10 1.493776 1_555
O44 S11 1.483110 1_555
O45 S12 1.485806 1_555
O46 Si4 1.611134 1_555
O47 S8 1.478076 1_555
O48 S19 1.484840 1_555
O48 Sc6 2.141647 1_556
O49 S20 1.488364 1_555
O49 Sc7 2.103160 1_556
O50 Si5 1.663193 1_555
O50 Sc6 1.903226 1_556
O51 Si6 1.665187 1_555
O51 Sc7 1.898747 1_556
O52 S21 1.481678 1_555
O52 Sc6 2.082092 1_556
O53 S22 1.476662 1_555
O53 Sc7 2.081289 1_556
O54 S23 1.481440 1_555
O54 Sc8 2.117761 1_555
O55 S24 1.463556 1_555
O55 Sc9 2.377927 1_555
O56 S25 1.473549 1_555
O56 Sc8 2.095597 1_555
O57 S26 1.467890 1_555
O57 Sc9 2.113136 1_555
O58 Si7 1.649778 1_555
O58 Sc8 1.914129 1_555
O59 Si8 1.643731 1_555
O59 Sc9 1.939582 1_555
O60 Si7 1.640481 1_555
O61 Si8 1.634617 1_555
O61 Sc10 1.898664 1_555
O62 S23 1.495410 1_555
O63 S24 1.483409 1_555
O63 Sc10 2.153180 1_555
O64 S25 1.484552 1_555
O65 S26 1.466605 1_555
O65 Sc10 2.233779 1_555
O66 Si5 1.617491 1_555
O66 Sc11 1.923510 1_555
O67 Si6 1.628629 1_555
O68 S21 1.460561 1_555
O68 Sc11 2.260190 1_555
O69 S22 1.476295 1_555
O70 S19 1.474740 1_555
O70 Sc11 2.185996 1_555
O71 S20 1.482918 1_555
O72 Si7 1.657067 1_555
O73 Si8 1.645595 1_555
O74 S23 1.466107 1_555
O75 S24 1.486006 1_555
O76 S25 1.499039 1_555
O77 S26 1.492767 1_555
O78 Si5 1.645492 1_555
O79 Si6 1.653074 1_555
O80 S21 1.488322 1_555
O81 S22 1.484992 1_555
O82 S19 1.471888 1_555
O83 S20 1.465557 1_555
O84 Si4 1.639673 1_555
O84 Sc1 1.927784 1_555
O85 S8 1.489492 1_555
O85 Sc0 2.151366 1_655
O86 S9 1.486417 1_555
O86 Sc0 2.180366 1_555
O87 S10 1.475810 1_555
O87 Sc1 2.204358 1_555
O88 S11 1.469890 1_555
O88 Sc1 2.276115 1_565
O89 S12 1.483362 1_555
O89 Sc0 2.236745 1_665
O90 S13 1.487829 1_555
O90 Sc3 2.152464 1_555
O91 S14 1.486813 1_555
O91 Sc2 2.154915 1_655
O92 S15 1.479751 1_555
O92 Sc3 2.279383 1_545
O93 S16 1.481251 1_555
O93 Sc2 2.286365 1_645
O94 S17 1.490113 1_555
O94 Sc2 2.176963 1_545
O95 S18 1.477312 1_555
O95 Sc3 2.234261 1_545
O96 S6 1.485170 1_555
O97 S7 1.483364 1_545
O97 Sc4 2.177653 1_555
O98 Si2 1.636934 1_555
O99 Si3 1.630168 1_555
O99 Sc4 1.915421 1_555
O100 S5 1.487997 1_555
O101 S4 1.481065 1_655
O101 Sc4 2.154344 1_555
O102 S0 1.485452 1_555
O102 Sc5 2.137155 1_555
O103 S1 1.509070 1_555
O104 S3 1.486681 1_555
O104 Sc5 2.122745 1_555
O105 S2 1.505551 1_655
O106 Si0 1.623034 1_545
O106 Sc5 1.912254 1_555
O107 Si1 1.646727 1_555
O108 S19 1.499881 1_555
O109 S20 1.512256 1_555
O110 Si6 1.624145 1_555
O111 Si5 1.619004 1_655
O112 S21 1.507556 1_545
O113 S22 1.507793 1_545
O114 S23 1.494616 1_545
O115 S24 1.504325 1_545
O116 S25 1.482793 1_555
O117 S26 1.510115 1_555
O118 Si8 1.621436 1_555
O119 Si7 1.623872 1_655
O120 S17 1.486363 1_555
O120 Sc6 2.131595 1_555
O121 S18 1.483901 1_555
O121 Sc7 2.164237 1_555
O122 S14 1.484767 1_455
O122 Sc6 2.198187 1_555
O123 S13 1.484697 1_555
O123 Sc7 2.129028 1_555
O124 S15 1.481899 1_565
O124 Sc6 2.220347 1_555
O125 S16 1.477335 1_565
O125 Sc7 2.290305 1_555
O126 S9 1.489501 1_565
O126 Sc8 2.129877 1_555
O127 S10 1.473725 1_565
O127 Sc9 2.132061 1_555
O128 S11 1.485968 1_555
O128 Sc8 2.216011 1_555
O129 S12 1.467360 1_555
O129 Sc9 2.246293 1_555
O130 S8 1.483722 1_455
O130 Sc8 2.133818 1_555
O131 Si4 1.649358 1_555
O131 Sc9 1.937642 1_555
O132 Si0 1.644591 1_555
O133 Si1 1.631119 1_565
O133 Sc10 1.964265 1_555
O134 S0 1.481943 1_555
O135 S1 1.451584 1_555
O135 Sc10 2.260849 1_555
O136 S2 1.489971 1_555
O137 S3 1.472246 1_555
O137 Sc10 2.139090 1_555
O138 Si2 1.635900 1_555
O138 Sc11 1.935226 1_555
O139 Si3 1.647778 1_555
O140 S4 1.475792 1_555
O140 Sc11 2.117854 1_555
O141 S5 1.505739 1_555
O142 S6 1.464041 1_565
O142 Sc11 2.170361 1_555
O143 S7 1.478063 1_555
