# generated using pymatgen
data_Na4Mg(NiO2)5
_symmetry_space_group_name_H-M   'P 1'
_cell_length_a   5.19733612
_cell_length_b   6.11337517
_cell_length_c   6.97277893
_cell_angle_alpha   104.73739698
_cell_angle_beta   98.84150844
_cell_angle_gamma   105.97167594
_symmetry_Int_Tables_number   1
_chemical_formula_structural   Na4Mg(NiO2)5
_chemical_formula_sum   'Na4 Mg1 Ni5 O10'
_cell_volume   199.93767098
_cell_formula_units_Z   1
loop_
 _symmetry_equiv_pos_site_id
 _symmetry_equiv_pos_as_xyz
  1  'x, y, z'
loop_
 _atom_site_type_symbol
 _atom_site_label
 _atom_site_symmetry_multiplicity
 _atom_site_fract_x
 _atom_site_fract_y
 _atom_site_fract_z
 _atom_site_occupancy
  Na  Na0  1  0.79188575  0.59437798  0.59008524  1
  Na  Na1  1  0.60459805  0.20268287  0.20708276  1
  Na  Na2  1  0.39540195  0.79731713  0.79291724  1
  Na  Na3  1  0.20811425  0.40562202  0.40991476  1
  Mg  Mg0  1  0.00000000  0.00000000  0.00000000  1
  Ni  Ni0  1  0.79768463  0.09937662  0.60588947  1
  Ni  Ni1  1  0.40043960  0.29758538  0.80695035  1
  Ni  Ni2  1  0.59956040  0.70241462  0.19304965  1
  Ni  Ni3  1  0.20231537  0.90062338  0.39411053  1
  Ni  Ni4  1  0.00000000  0.50000000  0.00000000  1
  O  O0  1  0.92255356  0.02615550  0.30276031  1
  O  O1  1  0.72322723  0.63415049  0.91795747  1
  O  O2  1  0.92879574  0.58152737  0.26973225  1
  O  O3  1  0.73318957  0.18439221  0.90861623  1
  O  O4  1  0.49547543  0.20849691  0.51918818  1
  O  O5  1  0.50452457  0.79150309  0.48081182  1
  O  O6  1  0.26681043  0.81560779  0.09138377  1
  O  O7  1  0.07120426  0.41847263  0.73026775  1
  O  O8  1  0.27677277  0.36584951  0.08204253  1
  O  O9  1  0.07744644  0.97384450  0.69723969  1
loop_
_geom_bond_atom_site_label_1
_geom_bond_atom_site_label_2
_geom_bond_distance
_geom_bond_site_symmetry_2
Na0 O9 2.241662 1_655
Na0 O7 2.275314 1_655
Na0 O4 2.314148 1_555
Na0 O5 2.317594 1_555
Na0 O1 2.329976 1_555
Na0 O2 2.435617 1_555
Na1 O3 2.267293 1_554
Na1 O0 2.312868 1_555
Na1 O4 2.325962 1_555
Na1 O2 2.346332 1_555
Na1 O8 2.362056 1_555
Na1 O6 2.374787 1_545
Na2 O6 2.267293 1_556
Na2 O9 2.312868 1_555
Na2 O5 2.325962 1_555
Na2 O7 2.346332 1_555
Na2 O1 2.362056 1_555
Na2 O3 2.374787 1_565
Na3 O0 2.241662 1_455
Na3 O2 2.275314 1_455
Na3 O5 2.314148 1_555
Na3 O4 2.317594 1_555
Na3 O8 2.329976 1_555
Na3 O7 2.435617 1_555
Mg0 O6 2.133954 1_545
Mg0 O3 2.133954 1_454
Mg0 O8 2.173542 1_555
Mg0 O1 2.173542 1_444
Mg0 O9 2.183836 1_544
Mg0 O0 2.183836 1_455
Ni0 O9 1.920132 1_645
Ni0 O4 1.940992 1_555
Ni0 O5 1.950073 1_545
Ni0 O7 1.952583 1_655
Ni0 O3 2.143215 1_555
Ni0 O0 2.277994 1_555
Ni1 O9 2.080101 1_545
Ni1 O7 2.091843 1_555
Ni1 O8 2.094260 1_556
Ni1 O4 2.112665 1_555
Ni1 O3 2.122160 1_555
Ni1 O1 2.130261 1_555
Ni2 O0 2.080101 1_565
Ni2 O2 2.091843 1_555
Ni2 O1 2.094260 1_554
Ni2 O5 2.112665 1_555
Ni2 O6 2.122160 1_555
Ni2 O8 2.130261 1_555
Ni3 O0 1.920132 1_465
Ni3 O5 1.940992 1_555
Ni3 O4 1.950073 1_565
Ni3 O2 1.952583 1_455
Ni3 O6 2.143215 1_555
Ni3 O9 2.277994 1_555
Ni4 O3 1.918884 1_454
Ni4 O6 1.918884 1_555
Ni4 O1 1.924586 1_454
Ni4 O8 1.924586 1_555
Ni4 O2 1.939394 1_455
Ni4 O7 1.939394 1_554
