# generated using pymatgen
data_ErH3(SO4)3
_symmetry_space_group_name_H-M   'P 1'
_cell_length_a   9.56287700
_cell_length_b   12.10225100
_cell_length_c   16.87849400
_cell_angle_alpha   90.00000000
_cell_angle_beta   90.00000000
_cell_angle_gamma   90.00000000
_symmetry_Int_Tables_number   1
_chemical_formula_structural   ErH3(SO4)3
_chemical_formula_sum   'Er8 H24 S24 O96'
_cell_volume   1953.38756809
_cell_formula_units_Z   8
loop_
 _symmetry_equiv_pos_site_id
 _symmetry_equiv_pos_as_xyz
  1  'x, y, z'
loop_
 _atom_site_type_symbol
 _atom_site_label
 _atom_site_symmetry_multiplicity
 _atom_site_fract_x
 _atom_site_fract_y
 _atom_site_fract_z
 _atom_site_occupancy
  Er  Er0  1  0.83513400  0.60691200  0.26830900  1
  Er  Er1  1  0.33513400  0.39308800  0.23169100  1
  Er  Er2  1  0.66486600  0.10691200  0.73169100  1
  Er  Er3  1  0.16486600  0.89308800  0.76830900  1
  Er  Er4  1  0.16486600  0.39308800  0.73169100  1
  Er  Er5  1  0.66486600  0.60691200  0.76830900  1
  Er  Er6  1  0.33513400  0.89308800  0.26830900  1
  Er  Er7  1  0.83513400  0.10691200  0.23169100  1
  H  H0  1  0.10398600  0.75913600  0.06829800  1
  H  H1  1  0.60398600  0.24086400  0.43170200  1
  H  H2  1  0.39601400  0.25913600  0.93170200  1
  H  H3  1  0.89601400  0.74086400  0.56829800  1
  H  H4  1  0.89601400  0.24086400  0.93170200  1
  H  H5  1  0.39601400  0.75913600  0.56829800  1
  H  H6  1  0.60398600  0.74086400  0.06829800  1
  H  H7  1  0.10398600  0.25913600  0.43170200  1
  H  H8  1  0.88409200  0.42125800  0.05423900  1
  H  H9  1  0.38409200  0.57874200  0.44576100  1
  H  H10  1  0.61590800  0.92125800  0.94576100  1
  H  H11  1  0.11590800  0.07874200  0.55423900  1
  H  H12  1  0.11590800  0.57874200  0.94576100  1
  H  H13  1  0.61590800  0.42125800  0.55423900  1
  H  H14  1  0.38409200  0.07874200  0.05423900  1
  H  H15  1  0.88409200  0.92125800  0.44576100  1
  H  H16  1  0.61934500  0.41888000  0.99742800  1
  H  H17  1  0.11934500  0.58112000  0.50257200  1
  H  H18  1  0.88065500  0.91888000  0.00257200  1
  H  H19  1  0.38065500  0.08112000  0.49742800  1
  H  H20  1  0.38065500  0.58112000  0.00257200  1
  H  H21  1  0.88065500  0.41888000  0.49742800  1
  H  H22  1  0.11934500  0.08112000  0.99742800  1
  H  H23  1  0.61934500  0.91888000  0.50257200  1
  S  S0  1  0.17109700  0.65784900  0.16524400  1
  S  S1  1  0.67109700  0.34215100  0.33475600  1
  S  S2  1  0.32890300  0.15784900  0.83475600  1
  S  S3  1  0.82890300  0.84215100  0.66524400  1
  S  S4  1  0.82890300  0.34215100  0.83475600  1
  S  S5  1  0.32890300  0.65784900  0.66524400  1
  S  S6  1  0.67109700  0.84215100  0.16524400  1
  S  S7  1  0.17109700  0.15784900  0.33475600  1
  S  S8  1  0.09433800  0.48409400  0.39699700  1
  S  S9  1  0.59433800  0.51590600  0.10300300  1
  S  S10  1  0.40566200  0.98409400  0.60300300  1
  S  S11  1  0.90566200  0.01590600  0.89699700  1
  S  S12  1  0.90566200  0.51590600  0.60300300  1
  S  S13  1  0.40566200  0.48409400  0.89699700  1
  S  S14  1  0.59433800  0.01590600  0.39699700  1
  S  S15  1  0.09433800  0.98409400  0.10300300  1
  S  S16  1  0.98625600  0.36335300  0.15971300  1
  S  S17  1  0.48625600  0.63664700  0.34028700  1
  S  S18  1  0.51374400  0.86335300  0.84028700  1
  S  S19  1  0.01374400  0.13664700  0.65971300  1
  S  S20  1  0.01374400  0.63664700  0.84028700  1
  S  S21  1  0.51374400  0.36335300  0.65971300  1
  S  S22  1  0.48625600  0.13664700  0.15971300  1
  S  S23  1  0.98625600  0.86335300  0.34028700  1
  O  O0  1  0.13403500  0.33465000  0.16918400  1
  O  O1  1  0.63403500  0.66535000  0.33081600  1
  O  O2  1  0.36596500  0.83465000  0.83081600  1
  O  O3  1  0.86596500  0.16535000  0.66918400  1
  O  O4  1  0.86596500  0.66535000  0.83081600  1
  O  O5  1  0.36596500  0.33465000  0.66918400  1
  O  O6  1  0.63403500  0.16535000  0.16918400  1
  O  O7  1  0.13403500  0.83465000  0.33081600  1
  O  O8  1  0.03540200  0.66609200  0.20547800  1
  O  O9  1  0.53540200  0.33390800  0.29452200  1
  O  O10  1  0.46459800  0.16609200  0.79452200  1
  O  O11  1  0.96459800  0.83390800  0.70547800  1
  O  O12  1  0.96459800  0.33390800  0.79452200  1
  O  O13  1  0.46459800  0.66609200  0.70547800  1
  O  O14  1  0.53540200  0.83390800  0.20547800  1
  O  O15  1  0.03540200  0.16609200  0.29452200  1
  O  O16  1  0.94110500  0.44644900  0.21735200  1
  O  O17  1  0.44110500  0.55355100  0.28264800  1
  O  O18  1  0.55889500  0.94644900  0.78264800  1
  O  O19  1  0.05889500  0.05355100  0.71735200  1
  O  O20  1  0.05889500  0.55355100  0.78264800  1
  O  O21  1  0.55889500  0.44644900  0.71735200  1
  O  O22  1  0.44110500  0.05355100  0.21735200  1
  O  O23  1  0.94110500  0.94644900  0.28264800  1
  O  O24  1  0.76991400  0.75893000  0.19328000  1
  O  O25  1  0.26991400  0.24107000  0.30672000  1
  O  O26  1  0.73008600  0.25893000  0.80672000  1
  O  O27  1  0.23008600  0.74107000  0.69328000  1
  O  O28  1  0.23008600  0.24107000  0.80672000  1
  O  O29  1  0.73008600  0.75893000  0.69328000  1
  O  O30  1  0.26991400  0.74107000  0.19328000  1
  O  O31  1  0.76991400  0.25893000  0.30672000  1
  O  O32  1  0.69892400  0.54564600  0.16161100  1
  O  O33  1  0.19892400  0.45435400  0.33838900  1
  O  O34  1  0.80107600  0.04564600  0.83838900  1
  O  O35  1  0.30107600  0.95435400  0.66161100  1
  O  O36  1  0.30107600  0.45435400  0.83838900  1
  O  O37  1  0.80107600  0.54564600  0.66161100  1
  O  O38  1  0.19892400  0.95435400  0.16161100  1
  O  O39  1  0.69892400  0.04564600  0.33838900  1
  O  O40  1  0.14425600  0.68268600  0.07462300  1
  O  O41  1  0.64425600  0.31731400  0.42537700  1
  O  O42  1  0.35574400  0.18268600  0.92537700  1
  O  O43  1  0.85574400  0.81731400  0.57462300  1
  O  O44  1  0.85574400  0.31731400  0.92537700  1
  O  O45  1  0.35574400  0.68268600  0.57462300  1
  O  O46  1  0.64425600  0.81731400  0.07462300  1
  O  O47  1  0.14425600  0.18268600  0.42537700  1
  O  O48  1  0.98729300  0.55993000  0.36813600  1
  O  O49  1  0.48729300  0.44007000  0.13186400  1
  O  O50  1  0.51270700  0.05993000  0.63186400  1
  O  O51  1  0.01270700  0.94007000  0.86813600  1
  O  O52  1  0.01270700  0.44007000  0.63186400  1
  O  O53  1  0.51270700  0.55993000  0.86813600  1
  O  O54  1  0.48729300  0.94007000  0.36813600  1
  O  O55  1  0.98729300  0.05993000  0.13186400  1
  O  O56  1  0.98146300  0.41665800  0.07412000  1
  O  O57  1  0.48146300  0.58334200  0.42588000  1
  O  O58  1  0.51853700  0.91665800  0.92588000  1
  O  O59  1  0.01853700  0.08334200  0.57412000  1
  O  O60  1  0.01853700  0.58334200  0.92588000  1
  O  O61  1  0.51853700  0.41665800  0.57412000  1
  O  O62  1  0.48146300  0.08334200  0.07412000  1
  O  O63  1  0.98146300  0.91665800  0.42588000  1
  O  O64  1  0.22913300  0.54665000  0.16458200  1
  O  O65  1  0.72913300  0.45335000  0.33541800  1
  O  O66  1  0.27086700  0.04665000  0.83541800  1
  O  O67  1  0.77086700  0.95335000  0.66458200  1
  O  O68  1  0.77086700  0.45335000  0.83541800  1
  O  O69  1  0.27086700  0.54665000  0.66458200  1
  O  O70  1  0.72913300  0.95335000  0.16458200  1
  O  O71  1  0.22913300  0.04665000  0.33541800  1
  O  O72  1  0.89428400  0.26696100  0.15731000  1
  O  O73  1  0.39428400  0.73303900  0.34269000  1
  O  O74  1  0.60571600  0.76696100  0.84269000  1
  O  O75  1  0.10571600  0.23303900  0.65731000  1
  O  O76  1  0.10571600  0.73303900  0.84269000  1
  O  O77  1  0.60571600  0.26696100  0.65731000  1
  O  O78  1  0.39428400  0.23303900  0.15731000  1
  O  O79  1  0.89428400  0.76696100  0.34269000  1
  O  O80  1  0.03221500  0.38844900  0.43820200  1
  O  O81  1  0.53221500  0.61155100  0.06179800  1
  O  O82  1  0.46778500  0.88844900  0.56179800  1
  O  O83  1  0.96778500  0.11155100  0.93820200  1
  O  O84  1  0.96778500  0.61155100  0.56179800  1
  O  O85  1  0.46778500  0.38844900  0.93820200  1
  O  O86  1  0.53221500  0.11155100  0.43820200  1
  O  O87  1  0.03221500  0.88844900  0.06179800  1
  O  O88  1  0.68333000  0.44868900  0.03953000  1
  O  O89  1  0.18333000  0.55131100  0.46047000  1
  O  O90  1  0.81667000  0.94868900  0.96047000  1
  O  O91  1  0.31667000  0.05131100  0.53953000  1
  O  O92  1  0.31667000  0.55131100  0.96047000  1
  O  O93  1  0.81667000  0.44868900  0.53953000  1
  O  O94  1  0.18333000  0.05131100  0.03953000  1
  O  O95  1  0.68333000  0.94868900  0.46047000  1
loop_
_geom_bond_atom_site_label_1
_geom_bond_atom_site_label_2
_geom_bond_distance
_geom_bond_site_symmetry_2
Er0 O48 2.297723 1_555
Er0 O8 2.303336 1_655
Er0 O1 2.304671 1_555
Er0 O24 2.318926 1_555
Er0 O32 2.343003 1_555
Er0 O16 2.353276 1_555
Er0 O79 2.376524 1_555
Er0 O65 2.400909 1_555
Er1 O49 2.297723 1_555
Er1 O9 2.303336 1_555
Er1 O0 2.304671 1_555
Er1 O25 2.318926 1_555
Er1 O33 2.343003 1_555
Er1 O17 2.353276 1_555
Er1 O78 2.376524 1_555
Er1 O64 2.400909 1_555
Er2 O50 2.297723 1_555
Er2 O10 2.303336 1_555
Er2 O3 2.304671 1_555
Er2 O26 2.318926 1_555
Er2 O34 2.343003 1_555
Er2 O18 2.353276 1_545
Er2 O77 2.376524 1_555
Er2 O67 2.400909 1_545
Er3 O51 2.297723 1_555
Er3 O11 2.303336 1_455
Er3 O2 2.304671 1_555
Er3 O27 2.318926 1_555
Er3 O35 2.343003 1_555
Er3 O19 2.353276 1_565
Er3 O76 2.376524 1_555
Er3 O66 2.400909 1_565
Er4 O52 2.297723 1_555
Er4 O12 2.303336 1_455
Er4 O5 2.304671 1_555
Er4 O28 2.318926 1_555
Er4 O36 2.343003 1_555
Er4 O20 2.353276 1_555
Er4 O75 2.376524 1_555
Er4 O69 2.400909 1_555
Er5 O53 2.297723 1_555
Er5 O13 2.303336 1_555
Er5 O4 2.304671 1_555
Er5 O29 2.318926 1_555
Er5 O37 2.343003 1_555
Er5 O21 2.353276 1_555
Er5 O74 2.376524 1_555
Er5 O68 2.400909 1_555
Er6 O54 2.297723 1_555
Er6 O14 2.303336 1_555
Er6 O7 2.304671 1_555
Er6 O30 2.318926 1_555
Er6 O38 2.343003 1_555
Er6 O22 2.353276 1_565
Er6 O73 2.376524 1_555
Er6 O71 2.400909 1_565
Er7 O55 2.297723 1_555
Er7 O15 2.303336 1_655
Er7 O6 2.304671 1_555
Er7 O31 2.318926 1_555
Er7 O39 2.343003 1_555
Er7 O23 2.353276 1_545
Er7 O72 2.376524 1_555
Er7 O70 2.400909 1_545
H0 O40 1.007831 1_555
H1 O41 1.007831 1_555
H2 O42 1.007831 1_555
H3 O43 1.007831 1_555
H4 O44 1.007831 1_555
H5 O45 1.007831 1_555
H6 O46 1.007831 1_555
H7 O47 1.007831 1_555
H8 O56 0.991330 1_555
H9 O57 0.991330 1_555
H10 O58 0.991330 1_555
H11 O59 0.991330 1_555
H12 O60 0.991330 1_555
H13 O61 0.991330 1_555
H14 O62 0.991330 1_555
H15 O63 0.991330 1_555
H16 O88 1.004749 1_556
H17 O89 1.004749 1_555
H18 O90 1.004749 1_554
H19 O91 1.004749 1_555
H20 O92 1.004749 1_554
H21 O93 1.004749 1_555
H22 O94 1.004749 1_556
H23 O95 1.004749 1_555
O0 S16 1.464013 1_455
O1 S17 1.464013 1_555
O2 S18 1.464013 1_555
O3 S19 1.464013 1_655
O4 S20 1.464013 1_655
O5 S21 1.464013 1_555
O6 S22 1.464013 1_555
O7 S23 1.464013 1_455
O8 S0 1.467982 1_555
O9 S1 1.467982 1_555
O10 S2 1.467982 1_555
O11 S3 1.467982 1_555
O12 S4 1.467982 1_555
O13 S5 1.467982 1_555
O14 S6 1.467982 1_555
O15 S7 1.467982 1_555
O16 S16 1.464313 1_555
O17 S17 1.464313 1_555
O18 S18 1.464313 1_555
O19 S19 1.464313 1_555
O20 S20 1.464313 1_555
O21 S21 1.464313 1_555
O22 S22 1.464313 1_555
O23 S23 1.464313 1_555
O24 S6 1.459889 1_555
O25 S7 1.459889 1_555
O26 S4 1.459889 1_555
O27 S5 1.459889 1_555
O28 S2 1.459889 1_555
O29 S3 1.459889 1_555
O30 S0 1.459889 1_555
O31 S1 1.459889 1_555
O32 S9 1.452024 1_555
O33 S8 1.452024 1_555
O34 S11 1.452024 1_555
O35 S10 1.452024 1_555
O36 S13 1.452024 1_555
O37 S12 1.452024 1_555
O38 S15 1.452024 1_555
O39 S14 1.452024 1_555
O40 S0 1.579793 1_555
O41 S1 1.579793 1_555
O42 S2 1.579793 1_555
O43 S3 1.579793 1_555
O44 S4 1.579793 1_555
O45 S5 1.579793 1_555
O46 S6 1.579793 1_555
O47 S7 1.579793 1_555
O48 S8 1.458596 1_655
O49 S9 1.458596 1_555
O50 S10 1.458596 1_545
O51 S11 1.458596 1_465
O52 S12 1.458596 1_455
O53 S13 1.458596 1_555
O54 S14 1.458596 1_565
O55 S15 1.458596 1_645
O56 S16 1.582837 1_555
O57 S17 1.582837 1_555
O58 S18 1.582837 1_555
O59 S19 1.582837 1_555
O60 S20 1.582837 1_555
O61 S21 1.582837 1_555
O62 S22 1.582837 1_555
O63 S23 1.582837 1_555
O64 S0 1.455749 1_555
O65 S1 1.455749 1_555
O66 S2 1.455749 1_555
O67 S3 1.455749 1_555
O68 S4 1.455749 1_555
O69 S5 1.455749 1_555
O70 S6 1.455749 1_555
O71 S7 1.455749 1_555
O72 S16 1.461526 1_555
O73 S17 1.461526 1_555
O74 S18 1.461526 1_555
O75 S19 1.461526 1_555
O76 S20 1.461526 1_555
O77 S21 1.461526 1_555
O78 S22 1.461526 1_555
O79 S23 1.461526 1_555
O80 S8 1.475285 1_555
O81 S9 1.475285 1_555
O82 S10 1.475285 1_555
O83 S11 1.475285 1_555
O84 S12 1.475285 1_555
O85 S13 1.475285 1_555
O86 S14 1.475285 1_555
O87 S15 1.475285 1_555
O88 S9 1.591768 1_555
O89 S8 1.591768 1_555
O90 S11 1.591768 1_565
O91 S10 1.591768 1_545
O92 S13 1.591768 1_555
O93 S12 1.591768 1_555
O94 S15 1.591768 1_545
O95 S14 1.591768 1_565
