# generated using pymatgen
data_Ce(Ni2B)6
_symmetry_space_group_name_H-M   'P 1'
_cell_length_a   6.00141879
_cell_length_b   6.00401863
_cell_length_c   10.96842655
_cell_angle_alpha   90.00461247
_cell_angle_beta   90.00476620
_cell_angle_gamma   104.74238702
_symmetry_Int_Tables_number   1
_chemical_formula_structural   Ce(Ni2B)6
_chemical_formula_sum   'Ce2 Ni24 B12'
_cell_volume   382.21047575
_cell_formula_units_Z   2
loop_
 _symmetry_equiv_pos_site_id
 _symmetry_equiv_pos_as_xyz
  1  'x, y, z'
loop_
 _atom_site_type_symbol
 _atom_site_label
 _atom_site_symmetry_multiplicity
 _atom_site_fract_x
 _atom_site_fract_y
 _atom_site_fract_z
 _atom_site_occupancy
  Ce  Ce0  1  0.83150744  0.83204968  0.49767088  1
  Ce  Ce1  1  0.16845983  0.16803180  0.99771049  1
  Ni  Ni0  1  0.14708458  0.87943022  0.75606012  1
  Ni  Ni1  1  0.12072464  0.85306037  0.25599171  1
  Ni  Ni2  1  0.34362098  0.72753166  0.06744378  1
  Ni  Ni3  1  0.65639221  0.27262311  0.56745098  1
  Ni  Ni4  1  0.27374437  0.65656351  0.56737896  1
  Ni  Ni5  1  0.87919601  0.14692486  0.75596071  1
  Ni  Ni6  1  0.63000006  0.99300375  0.93725850  1
  Ni  Ni7  1  0.37005533  0.00698772  0.43725190  1
  Ni  Ni8  1  0.00712645  0.37063456  0.43717940  1
  Ni  Ni9  1  0.99285892  0.62936405  0.93722469  1
  Ni  Ni10  1  0.52658916  0.78943069  0.27519816  1
  Ni  Ni11  1  0.47347570  0.21057321  0.77515330  1
  Ni  Ni12  1  0.21036583  0.47359582  0.77503313  1
  Ni  Ni13  1  0.78963622  0.52638467  0.27508694  1
  Ni  Ni14  1  0.19599127  0.46069314  0.23492062  1
  Ni  Ni15  1  0.80400454  0.53923630  0.73497960  1
  Ni  Ni16  1  0.53946660  0.80411105  0.73508052  1
  Ni  Ni17  1  0.46048613  0.19584132  0.23505551  1
  Ni  Ni18  1  0.22267349  0.22275188  0.59905729  1
  Ni  Ni19  1  0.77729879  0.77720689  0.09912549  1
  Ni  Ni20  1  0.43225349  0.43205990  0.41670547  1
  Ni  Ni21  1  0.56778226  0.56799114  0.91671875  1
  Ni  Ni22  1  0.72626960  0.34343671  0.06737647  1
  Ni  Ni23  1  0.85290239  0.12054937  0.25606780  1
  B  B0  1  0.01401615  0.60230187  0.12200441  1
  B  B1  1  0.98597092  0.39771781  0.62196232  1
  B  B2  1  0.24897634  0.67696370  0.38599571  1
  B  B3  1  0.75101424  0.32302287  0.88601265  1
  B  B4  1  0.32306223  0.75097342  0.88604891  1
  B  B5  1  0.67691075  0.24893333  0.38603777  1
  B  B6  1  0.48691225  0.48685453  0.65914799  1
  B  B7  1  0.51308275  0.51315695  0.15917508  1
  B  B8  1  0.83645985  0.83629318  0.83269572  1
  B  B9  1  0.16356372  0.16371718  0.33271275  1
  B  B10  1  0.39764262  0.98587840  0.62202585  1
  B  B11  1  0.60242092  0.01411838  0.12204868  1
loop_
_geom_bond_atom_site_label_1
_geom_bond_atom_site_label_2
_geom_bond_distance
_geom_bond_site_symmetry_2
Ce0 Ni10 3.021500 1_555
Ce0 Ni13 3.025897 1_555
Ce0 Ni20 3.060717 1_555
Ce0 Ni18 3.073565 1_665
Ce0 Ni16 3.119619 1_555
Ce0 Ni15 3.121896 1_555
Ce0 Ni23 3.150712 1_565
Ce0 Ni1 3.153562 1_655
Ce0 Ni3 3.178377 1_565
Ce0 Ni4 3.187740 1_655
Ce0 Ni7 3.203320 1_665
Ce0 Ni8 3.205245 1_665
Ce0 Ni7 3.269858 1_565
Ce0 Ni8 3.272880 1_655
Ce0 Ni4 3.332442 1_555
Ce0 Ni3 3.343035 1_555
Ce0 Ni5 3.377228 1_565
Ce0 Ni0 3.380067 1_655
Ce1 Ni11 3.022902 1_555
Ce1 Ni12 3.026626 1_555
Ce1 Ni21 3.061161 1_555
Ce1 Ni19 3.074359 1_446
Ce1 Ni17 3.118783 1_556
Ce1 Ni14 3.120218 1_556
Ce1 Ni0 3.151238 1_545
Ce1 Ni5 3.154046 1_455
Ce1 Ni2 3.178060 1_546
Ce1 Ni22 3.187173 1_456
Ce1 Ni6 3.202798 1_445
Ce1 Ni9 3.205540 1_445
Ce1 Ni6 3.270772 1_545
Ce1 Ni9 3.272402 1_455
Ce1 Ni22 3.332399 1_556
Ce1 Ni2 3.343176 1_556
Ce1 Ni1 3.377739 1_546
Ce1 Ni23 3.379976 1_456
B0 Ni14 1.980407 1_555
B0 Ni19 1.985757 1_455
B0 Ni2 2.019813 1_555
B0 Ni9 2.039784 1_454
B0 Ni1 2.084566 1_555
B0 Ni22 2.095344 1_455
B0 Ni13 2.128025 1_455
B0 Ce1 3.278063 1_554
B1 Ni15 1.980786 1_555
B1 Ni18 1.985987 1_655
B1 Ni3 2.019281 1_555
B1 Ni8 2.039825 1_655
B1 Ni5 2.085080 1_555
B1 Ni4 2.095399 1_655
B1 Ni12 2.127729 1_655
B1 Ce0 3.278541 1_555
B2 Ni4 2.001104 1_555
B2 Ni7 2.009295 1_565
B2 Ni10 2.033850 1_555
B2 Ni1 2.039073 1_555
B2 Ni20 2.075703 1_555
B2 Ni14 2.079051 1_555
B2 Ni8 2.108603 1_555
B2 Ce0 3.135618 1_455
B3 Ni22 2.000891 1_556
B3 Ni6 2.009317 1_545
B3 Ni11 2.033684 1_555
B3 Ni5 2.039203 1_555
B3 Ni21 2.075822 1_555
B3 Ni15 2.078691 1_555
B3 Ni9 2.108578 1_555
B3 Ce1 3.135203 1_655
B4 Ni2 2.000612 1_556
B4 Ni9 2.009757 1_455
B4 Ni12 2.034679 1_555
B4 Ni0 2.039001 1_555
B4 Ni21 2.073236 1_555
B4 Ni16 2.078464 1_555
B4 Ni6 2.111325 1_555
B4 Ce1 3.132600 1_565
B5 Ni3 2.000919 1_555
B5 Ni8 2.009656 1_655
B5 Ni13 2.034828 1_555
B5 Ni23 2.038722 1_555
B5 Ni20 2.073541 1_555
B5 Ni17 2.078445 1_555
B5 Ni7 2.110900 1_555
B5 Ce0 3.131640 1_545
B6 Ni15 2.026632 1_555
B6 Ni16 2.028642 1_555
B6 Ni18 2.045346 1_555
B6 Ni11 2.075905 1_555
B6 Ni12 2.075960 1_555
B6 Ni4 2.086004 1_555
B6 Ni3 2.089581 1_555
B6 Ce0 3.086925 1_555
B7 Ni14 2.026350 1_555
B7 Ni17 2.028852 1_555
B7 Ni19 2.045107 1_555
B7 Ni10 2.075748 1_555
B7 Ni13 2.076026 1_555
B7 Ni22 2.086311 1_555
B7 Ni2 2.090347 1_555
B7 Ce1 3.086330 1_554
B8 Ni0 2.000852 1_655
B8 Ni5 2.002344 1_565
B8 Ni16 2.045716 1_555
B8 Ni15 2.047078 1_555
B8 Ni6 2.080693 1_555
B8 Ni9 2.081498 1_555
B8 Ni21 2.173203 1_555
B8 Ce1 3.031838 1_665
B9 Ni23 2.000925 1_455
B9 Ni1 2.002204 1_545
B9 Ni17 2.045813 1_555
B9 Ni14 2.047291 1_555
B9 Ni7 2.080724 1_555
B9 Ni8 2.081185 1_555
B9 Ni20 2.173013 1_555
B9 Ce0 3.031813 1_445
B10 Ni16 1.981397 1_555
B10 Ni18 1.987160 1_565
B10 Ni4 2.018172 1_555
B10 Ni7 2.039992 1_565
B10 Ni0 2.083824 1_555
B10 Ni3 2.091260 1_565
B10 Ni11 2.129575 1_565
B10 Ce0 3.273772 1_555
B11 Ni17 1.981250 1_555
B11 Ni19 1.986895 1_545
B11 Ni22 2.018368 1_555
B11 Ni6 2.040174 1_544
B11 Ni23 2.083149 1_555
B11 Ni2 2.090761 1_545
B11 Ni10 2.129972 1_545
B11 Ce1 3.274324 1_554
