# generated using pymatgen
data_Ba2MgCoMoO6
_symmetry_space_group_name_H-M   'P 1'
_cell_length_a   6.68895962
_cell_length_b   6.68984735
_cell_length_c   5.81011103
_cell_angle_alpha   64.25035933
_cell_angle_beta   64.24683087
_cell_angle_gamma   50.70558278
_symmetry_Int_Tables_number   1
_chemical_formula_structural   Ba2MgCoMoO6
_chemical_formula_sum   'Ba2 Mg1 Co1 Mo1 O6'
_cell_volume   176.42840514
_cell_formula_units_Z   1
loop_
 _symmetry_equiv_pos_site_id
 _symmetry_equiv_pos_as_xyz
  1  'x, y, z'
loop_
 _atom_site_type_symbol
 _atom_site_label
 _atom_site_symmetry_multiplicity
 _atom_site_fract_x
 _atom_site_fract_y
 _atom_site_fract_z
 _atom_site_occupancy
  Ba  Ba0  1  0.81787400  0.81759300  0.68233100  1
  Ba  Ba1  1  0.18212600  0.18240700  0.31766900  1
  Mg  Mg0  1  0.50000000  0.50000000  0.00000000  1
  Co  Co0  1  0.00000000  0.00000000  0.00000000  1
  Mo  Mo0  1  0.50000000  0.50000000  0.50000000  1
  O  O0  1  0.75260100  0.24746000  0.76516400  1
  O  O1  1  0.75265300  0.24751900  0.23472000  1
  O  O2  1  0.31024600  0.31083300  0.68948000  1
  O  O3  1  0.24734700  0.75248100  0.76528000  1
  O  O4  1  0.68975400  0.68916700  0.31052000  1
  O  O5  1  0.24739900  0.75254000  0.23483600  1
loop_
_geom_bond_atom_site_label_1
_geom_bond_atom_site_label_2
_geom_bond_distance
_geom_bond_site_symmetry_2
Ba0 O3 2.847864 1_655
Ba0 O5 2.848162 1_655
Ba0 O0 2.849871 1_565
Ba0 O1 2.850179 1_565
Ba0 O2 2.862885 1_655
Ba0 O2 2.867826 1_565
Ba0 O4 3.206843 1_556
Ba0 O4 3.208318 1_555
Ba1 O1 2.847864 1_455
Ba1 O0 2.848162 1_455
Ba1 O5 2.849871 1_545
Ba1 O3 2.850179 1_545
Ba1 O4 2.862885 1_455
Ba1 O4 2.867826 1_545
Ba1 O2 3.206843 1_554
Ba1 O2 3.208318 1_555
Mg0 O1 1.988621 1_555
Mg0 O3 1.988621 1_554
Mg0 O0 1.988639 1_554
Mg0 O5 1.988639 1_555
Co0 O5 1.967309 1_545
Co0 O0 1.967309 1_454
Co0 O3 1.967331 1_544
Co0 O1 1.967331 1_455
Mo0 O4 2.008530 1_555
Mo0 O2 2.008530 1_555
Mo0 O1 2.113657 1_555
Mo0 O3 2.113657 1_555
Mo0 O0 2.113667 1_555
Mo0 O5 2.113667 1_555
