# generated using pymatgen
data_K4MgMo2(SO3)2
_symmetry_space_group_name_H-M   'P 1'
_cell_length_a   6.48754900
_cell_length_b   6.82037728
_cell_length_c   8.72821154
_cell_angle_alpha   103.91982860
_cell_angle_beta   90.00000000
_cell_angle_gamma   118.39844767
_symmetry_Int_Tables_number   1
_chemical_formula_structural   K4MgMo2(SO3)2
_chemical_formula_sum   'K4 Mg1 Mo2 S2 O6'
_cell_volume   326.77632344
_cell_formula_units_Z   1
loop_
 _symmetry_equiv_pos_site_id
 _symmetry_equiv_pos_as_xyz
  1  'x, y, z'
loop_
 _atom_site_type_symbol
 _atom_site_label
 _atom_site_symmetry_multiplicity
 _atom_site_fract_x
 _atom_site_fract_y
 _atom_site_fract_z
 _atom_site_occupancy
  K  K0  1  0.49461600  0.94811800  0.16248800  1
  K  K1  1  0.54649800  0.05188200  0.83751200  1
  K  K2  1  0.20101000  0.38531900  0.80283300  1
  K  K3  1  0.81568900  0.61468100  0.19716700  1
  Mg  Mg0  1  0.76651700  0.00000000  0.50000000  1
  Mo  Mo0  1  0.14819100  0.29520600  0.22347200  1
  Mo  Mo1  1  0.85298500  0.70479400  0.77652800  1
  S  S0  1  0.34801400  0.66478200  0.41156100  1
  S  S1  1  0.68323000  0.33521800  0.58843900  1
  O  O0  1  0.94851100  0.06446500  0.32398100  1
  O  O1  1  0.88404600  0.93553500  0.67601900  1
  O  O2  1  0.93551800  0.29755000  0.08644800  1
  O  O3  1  0.37622200  0.25482000  0.12466000  1
  O  O4  1  0.12140100  0.74518000  0.87534000  1
  O  O5  1  0.63796800  0.70245000  0.91355200  1
loop_
_geom_bond_atom_site_label_1
_geom_bond_atom_site_label_2
_geom_bond_distance
_geom_bond_site_symmetry_2
K0 O3 2.633493 1_565
K0 O5 2.850249 1_554
K0 O0 2.920062 1_565
K0 O2 2.928963 1_565
K0 O4 3.033634 1_554
K0 S0 3.104527 1_555
K1 O4 2.633498 1_545
K1 O2 2.850250 1_556
K1 O1 2.920062 1_545
K1 O5 2.928963 1_545
K1 O3 3.033630 1_556
K1 S1 3.104527 1_555
K2 O5 2.609656 1_555
K2 O4 2.673891 1_555
K2 O1 2.688930 1_445
K2 O2 3.030686 1_456
K3 O2 2.609664 1_555
K3 O3 2.673879 1_555
K3 O0 2.688927 1_565
K3 O5 3.030680 1_554
Mg0 O1 1.943933 1_545
Mg0 O0 1.943933 1_555
Mg0 S0 2.537904 1_545
Mg0 S1 2.537912 1_555
Mo0 O3 1.811495 1_555
Mo0 O2 1.834240 1_455
Mo0 O0 1.910353 1_455
Mo0 S0 2.372797 1_555
Mo1 O4 1.811489 1_655
Mo1 O5 1.834240 1_555
Mo1 O1 1.910353 1_555
Mo1 S1 2.372797 1_555
