# generated using pymatgen
data_MgMo2(PO5)2
_symmetry_space_group_name_H-M   'P 1'
_cell_length_a   4.19455239
_cell_length_b   6.65147007
_cell_length_c   6.71423416
_cell_angle_alpha   90.80758620
_cell_angle_beta   86.65572151
_cell_angle_gamma   93.02204158
_symmetry_Int_Tables_number   1
_chemical_formula_structural   MgMo2(PO5)2
_chemical_formula_sum   'Mg1 Mo2 P2 O10'
_cell_volume   186.73624191
_cell_formula_units_Z   1
loop_
 _symmetry_equiv_pos_site_id
 _symmetry_equiv_pos_as_xyz
  1  'x, y, z'
loop_
 _atom_site_type_symbol
 _atom_site_label
 _atom_site_symmetry_multiplicity
 _atom_site_fract_x
 _atom_site_fract_y
 _atom_site_fract_z
 _atom_site_occupancy
  Mg  Mg0  1  0.00556500  0.50455700  0.00135100  1
  Mo  Mo0  1  0.65905500  0.76192400  0.74592900  1
  Mo  Mo1  1  0.35196000  0.24792100  0.25679700  1
  P  P0  1  0.49974900  0.75632200  0.25385100  1
  P  P1  1  0.51169500  0.25342800  0.74901600  1
  O  O0  1  0.69499200  0.75876200  0.43790600  1
  O  O1  1  0.70863200  0.06679200  0.76282700  1
  O  O2  1  0.74080300  0.44671700  0.75564600  1
  O  O3  1  0.72560100  0.74102800  0.06173500  1
  O  O4  1  0.80272100  0.28713200  0.21866800  1
  O  O5  1  0.20822200  0.72273000  0.78354800  1
  O  O6  1  0.28431900  0.26832400  0.94078800  1
  O  O7  1  0.27092400  0.56289300  0.24787800  1
  O  O8  1  0.30255100  0.94288500  0.23998000  1
  O  O9  1  0.31654500  0.25150300  0.56491100  1
loop_
_geom_bond_atom_site_label_1
_geom_bond_atom_site_label_2
_geom_bond_distance
_geom_bond_site_symmetry_2
Mg0 O6 2.030197 1_554
Mg0 O3 2.034353 1_455
Mg0 O2 2.062460 1_454
Mg0 O7 2.068960 1_555
Mg0 O4 2.174703 1_455
Mg0 O5 2.179855 1_554
Mo0 O5 1.897881 1_555
Mo0 O1 2.029773 1_565
Mo0 O0 2.064727 1_555
Mo0 O2 2.144713 1_555
Mo0 O3 2.162120 1_556
Mo0 O5 2.360292 1_655
Mo1 O4 1.897861 1_555
Mo1 O8 2.030819 1_545
Mo1 O9 2.065306 1_555
Mo1 O7 2.142256 1_555
Mo1 O6 2.164067 1_554
Mo1 O4 2.361177 1_455
O0 P0 1.521262 1_555
O1 P1 1.533744 1_555
O2 P1 1.565736 1_555
O3 P0 1.560635 1_555
O6 P1 1.562193 1_555
O7 P0 1.565566 1_555
O8 P0 1.534019 1_555
O9 P1 1.521421 1_555
