# generated using pymatgen
data_Si2H6O
_symmetry_space_group_name_H-M   'P 1'
_cell_length_a   4.90720400
_cell_length_b   7.95532700
_cell_length_c   13.61078700
_cell_angle_alpha   90.00000000
_cell_angle_beta   90.00000000
_cell_angle_gamma   90.00000000
_symmetry_Int_Tables_number   1
_chemical_formula_structural   Si2H6O
_chemical_formula_sum   'Si8 H24 O4'
_cell_volume   531.34351703
_cell_formula_units_Z   4
loop_
 _symmetry_equiv_pos_site_id
 _symmetry_equiv_pos_as_xyz
  1  'x, y, z'
loop_
 _atom_site_type_symbol
 _atom_site_label
 _atom_site_symmetry_multiplicity
 _atom_site_fract_x
 _atom_site_fract_y
 _atom_site_fract_z
 _atom_site_occupancy
  Si  Si0  1  0.22771800  0.49087700  0.04766400  1
  Si  Si1  1  0.72771800  0.00912300  0.95233600  1
  Si  Si2  1  0.77228200  0.99087700  0.45233600  1
  Si  Si3  1  0.27228200  0.50912300  0.54766400  1
  Si  Si4  1  0.46202700  0.28220500  0.22348600  1
  Si  Si5  1  0.96202700  0.21779500  0.77651400  1
  Si  Si6  1  0.53797300  0.78220500  0.27651400  1
  Si  Si7  1  0.03797300  0.71779500  0.72348600  1
  H  H0  1  0.04199900  0.35326400  0.01388200  1
  H  H1  1  0.54199900  0.14673600  0.98611800  1
  H  H2  1  0.95800100  0.85326400  0.48611800  1
  H  H3  1  0.45800100  0.64673600  0.51388200  1
  H  H4  1  0.07025400  0.64984400  0.05901900  1
  H  H5  1  0.57025400  0.85015600  0.94098100  1
  H  H6  1  0.92974600  0.14984400  0.44098100  1
  H  H7  1  0.42974600  0.35015600  0.55901900  1
  H  H8  1  0.44848300  0.51434600  0.97383900  1
  H  H9  1  0.94848300  0.98565400  0.02616100  1
  H  H10  1  0.55151700  0.01434600  0.52616100  1
  H  H11  1  0.05151700  0.48565400  0.47383900  1
  H  H12  1  0.75618400  0.24875800  0.20475300  1
  H  H13  1  0.25618400  0.25124200  0.79524700  1
  H  H14  1  0.24381600  0.74875800  0.29524700  1
  H  H15  1  0.74381600  0.75124200  0.70475300  1
  H  H16  1  0.42010500  0.32878400  0.32843700  1
  H  H17  1  0.92010500  0.17121600  0.67156300  1
  H  H18  1  0.57989500  0.82878400  0.17156300  1
  H  H19  1  0.07989500  0.67121600  0.82843700  1
  H  H20  1  0.29697100  0.13075300  0.19809900  1
  H  H21  1  0.79697100  0.36924700  0.80190100  1
  H  H22  1  0.70302900  0.63075300  0.30190100  1
  H  H23  1  0.20302900  0.86924700  0.69809900  1
  O  O0  1  0.36133600  0.44370700  0.15563300  1
  O  O1  1  0.86133600  0.05629300  0.84436700  1
  O  O2  1  0.63866400  0.94370700  0.34436700  1
  O  O3  1  0.13866400  0.55629300  0.65563300  1
loop_
_geom_bond_atom_site_label_1
_geom_bond_atom_site_label_2
_geom_bond_distance
_geom_bond_site_symmetry_2
H0 Si0 1.496825 1_555
H1 Si1 1.496825 1_555
H2 Si2 1.496825 1_555
H3 Si3 1.496825 1_555
H4 Si0 1.490055 1_555
H5 Si1 1.490055 1_565
H6 Si2 1.490055 1_545
H7 Si3 1.490055 1_555
H8 Si0 1.489341 1_556
H9 Si1 1.489341 1_564
H10 Si2 1.489341 1_545
H11 Si3 1.489341 1_555
H12 Si4 1.489788 1_555
H13 Si5 1.489788 1_455
H14 Si6 1.489788 1_555
H15 Si7 1.489788 1_655
H16 Si4 1.490014 1_555
H17 Si5 1.490014 1_555
H18 Si6 1.490014 1_555
H19 Si7 1.490014 1_555
H20 Si4 1.492347 1_555
H21 Si5 1.492347 1_555
H22 Si6 1.492347 1_555
H23 Si7 1.492347 1_555
O0 Si0 1.652363 1_555
O0 Si4 1.657641 1_555
O1 Si1 1.652363 1_555
O1 Si5 1.657641 1_555
O2 Si2 1.652363 1_555
O2 Si6 1.657641 1_555
O3 Si3 1.652363 1_555
O3 Si7 1.657641 1_555
