# generated using pymatgen
data_MgCo6(OF)6
_symmetry_space_group_name_H-M   'P 1'
_cell_length_a   5.11043782
_cell_length_b   14.10650938
_cell_length_c   3.02366094
_cell_angle_alpha   84.47340490
_cell_angle_beta   89.63090977
_cell_angle_gamma   95.04746772
_symmetry_Int_Tables_number   1
_chemical_formula_structural   MgCo6(OF)6
_chemical_formula_sum   'Mg1 Co6 O6 F6'
_cell_volume   216.09799261
_cell_formula_units_Z   1
loop_
 _symmetry_equiv_pos_site_id
 _symmetry_equiv_pos_as_xyz
  1  'x, y, z'
loop_
 _atom_site_type_symbol
 _atom_site_label
 _atom_site_symmetry_multiplicity
 _atom_site_fract_x
 _atom_site_fract_y
 _atom_site_fract_z
 _atom_site_occupancy
  Mg  Mg0  1  0.43296830  0.66010743  0.68809102  1
  Co  Co0  1  -0.00744547  0.00859203  0.00965795  1
  Co  Co1  1  0.07585891  0.31726188  -0.12591900  1
  Co  Co2  1  0.93316752  0.68170488  0.17220759  1
  Co  Co3  1  0.59105547  0.16471223  0.41312122  1
  Co  Co4  1  0.57067608  0.46114526  0.31381944  1
  Co  Co5  1  0.37574324  0.85710780  0.58978616  1
  O  O0  1  0.11590400  0.93602932  0.54340664  1
  O  O1  1  0.28771358  0.75968874  0.13589367  1
  O  O2  1  0.39883671  0.41397717  0.82270999  1
  O  O3  1  0.59330515  0.59261484  0.21692081  1
  O  O4  1  0.75096210  0.23051149  -0.08254671  1
  O  O5  1  0.85632066  0.07089443  0.48458160  1
  F  F0  1  0.25744558  0.24973912  0.39501645  1
  F  F1  1  0.07724193  0.60027820  0.70802623  1
  F  F2  1  0.37087217  0.09262200  -0.05617384  1
  F  F3  1  0.60277195  0.91354390  0.06131651  1
  F  F4  1  0.90427435  0.40197597  0.33990776  1
  F  F5  1  0.75677179  0.75416033  0.64100950  1
loop_
_geom_bond_atom_site_label_1
_geom_bond_atom_site_label_2
_geom_bond_distance
_geom_bond_site_symmetry_2
Mg0 O3 1.997753 1_555
Mg0 O3 1.998898 1_556
Mg0 O1 2.212366 1_556
Mg0 O1 2.249396 1_555
Co0 O5 1.905495 1_454
Co0 O5 1.912361 1_455
Co0 O0 1.952608 1_544
Co0 O0 1.964225 1_545
Co0 F2 2.174619 1_555
Co0 F3 2.296895 1_445
Co1 O4 1.969851 1_455
Co1 F0 2.033435 1_555
Co1 O2 2.041925 1_554
Co1 F0 2.066555 1_554
Co1 F4 2.153270 1_454
Co1 F4 2.161837 1_455
Co2 O1 2.031896 1_655
Co2 O3 2.048046 1_555
Co2 F1 2.068192 1_654
Co2 F5 2.071553 1_555
Co2 F1 2.071731 1_655
Co2 F5 2.074039 1_554
Co3 O4 1.832581 1_555
Co3 O5 1.974912 1_555
Co3 O4 2.002495 1_556
Co3 F2 2.082391 1_556
Co3 F2 2.100242 1_555
Co3 F0 2.167181 1_555
Co4 O2 1.806688 1_555
Co4 O3 1.842779 1_555
Co4 O2 1.877042 1_554
Co4 F4 1.961835 1_555
Co5 O0 1.804128 1_555
Co5 F3 2.022393 1_556
Co5 F3 2.025286 1_555
Co5 O1 2.058374 1_555
Co5 O1 2.064484 1_556
Co5 F5 2.526417 1_555
F1 Mg0 1.933798 1_555
F5 Mg0 2.023142 1_555
