# generated using pymatgen
data_Na3CaGe(PO4)3
_symmetry_space_group_name_H-M   'P 1'
_cell_length_a   15.77982852
_cell_length_b   9.06656256
_cell_length_c   8.97521285
_cell_angle_alpha   90.00000000
_cell_angle_beta   126.43100347
_cell_angle_gamma   90.00000000
_symmetry_Int_Tables_number   1
_chemical_formula_structural   Na3CaGe(PO4)3
_chemical_formula_sum   'Na12 Ca4 Ge4 P12 O48'
_cell_volume   1033.12988104
_cell_formula_units_Z   4
loop_
 _symmetry_equiv_pos_site_id
 _symmetry_equiv_pos_as_xyz
  1  'x, y, z'
loop_
 _atom_site_type_symbol
 _atom_site_label
 _atom_site_symmetry_multiplicity
 _atom_site_fract_x
 _atom_site_fract_y
 _atom_site_fract_z
 _atom_site_occupancy
  Na  Na0  1  0.25393718  0.72726028  0.99115991  1
  Na  Na1  1  0.75393718  0.77273972  0.49115991  1
  Na  Na2  1  0.75393718  0.22726028  0.99115991  1
  Na  Na3  1  0.25393718  0.27273972  0.49115991  1
  Na  Na4  1  0.50409442  0.10509055  0.74517582  1
  Na  Na5  1  0.50409442  0.89490945  0.24517582  1
  Na  Na6  1  0.00409442  0.60509055  0.74517582  1
  Na  Na7  1  0.00409442  0.39490945  0.24517582  1
  Na  Na8  1  0.17935693  0.93815154  0.28754613  1
  Na  Na9  1  0.17935693  0.06184846  0.78754613  1
  Na  Na10  1  0.67935693  0.43815154  0.28754613  1
  Na  Na11  1  0.67935693  0.56184846  0.78754613  1
  Ca  Ca0  1  0.10655473  0.74681781  0.56980120  1
  Ca  Ca1  1  0.10655473  0.25318219  0.06980120  1
  Ca  Ca2  1  0.60655473  0.24681781  0.56980120  1
  Ca  Ca3  1  0.60655473  0.75318219  0.06980120  1
  Ge  Ge0  1  0.89526932  0.76212832  0.93228148  1
  Ge  Ge1  1  0.89526932  0.23787168  0.43228148  1
  Ge  Ge2  1  0.39526932  0.26212832  0.93228148  1
  Ge  Ge3  1  0.39526932  0.73787168  0.43228148  1
  P  P0  1  0.98865802  0.95918534  0.75586017  1
  P  P1  1  0.98865802  0.04081466  0.25586017  1
  P  P2  1  0.48865802  0.45918534  0.75586017  1
  P  P3  1  0.48865802  0.54081466  0.25586017  1
  P  P4  1  0.35789460  0.91891668  0.76069816  1
  P  P5  1  0.65129247  0.87503433  0.74662739  1
  P  P6  1  0.65129247  0.12496567  0.24662739  1
  P  P7  1  0.35789460  0.08108332  0.26069816  1
  P  P8  1  0.85789460  0.41891668  0.76069816  1
  P  P9  1  0.15129247  0.37503433  0.74662739  1
  P  P10  1  0.15129247  0.62496567  0.24662739  1
  P  P11  1  0.85789460  0.58108332  0.26069816  1
  O  O0  1  0.16030963  0.54224233  0.75246215  1
  O  O1  1  0.85595410  0.59759847  0.75481376  1
  O  O2  1  0.85595410  0.40240153  0.25481376  1
  O  O3  1  0.16030963  0.45775767  0.25246215  1
  O  O4  1  0.66030963  0.04224233  0.75246215  1
  O  O5  1  0.35595410  0.09759847  0.75481376  1
  O  O6  1  0.35595410  0.90240153  0.25481376  1
  O  O7  1  0.66030963  0.95775767  0.25246215  1
  O  O8  1  0.42631933  0.56676286  0.58000795  1
  O  O9  1  0.55767089  0.53917166  0.93602626  1
  O  O10  1  0.55767089  0.46082834  0.43602626  1
  O  O11  1  0.42631933  0.43323714  0.08000795  1
  O  O12  1  0.92631933  0.06676286  0.58000795  1
  O  O13  1  0.05767089  0.03917166  0.93602626  1
  O  O14  1  0.05767089  0.96082834  0.43602626  1
  O  O15  1  0.92631933  0.93323714  0.08000795  1
  O  O16  1  0.26329856  0.86756348  0.75358072  1
  O  O17  1  0.74282962  0.79886921  0.74806166  1
  O  O18  1  0.74282962  0.20113079  0.24806166  1
  O  O19  1  0.26329856  0.13243652  0.25358072  1
  O  O20  1  0.76329856  0.36756348  0.75358072  1
  O  O21  1  0.24282962  0.29886921  0.74806166  1
  O  O22  1  0.24282962  0.70113079  0.24806166  1
  O  O23  1  0.76329856  0.63243652  0.25358072  1
  O  O24  1  0.35486504  0.87728656  0.58543953  1
  O  O25  1  0.65847321  0.81675325  0.90941562  1
  O  O26  1  0.65847321  0.18324675  0.40941562  1
  O  O27  1  0.35486504  0.12271344  0.08543953  1
  O  O28  1  0.85486504  0.37728656  0.58543953  1
  O  O29  1  0.15847321  0.31675325  0.90941562  1
  O  O30  1  0.15847321  0.68324675  0.40941562  1
  O  O31  1  0.85486504  0.62271344  0.08543953  1
  O  O32  1  0.45905150  0.87438614  0.94121743  1
  O  O33  1  0.54505847  0.81412395  0.55870418  1
  O  O34  1  0.54505847  0.18587605  0.05870418  1
  O  O35  1  0.45905150  0.12561386  0.44121743  1
  O  O36  1  0.95905150  0.37438614  0.94121743  1
  O  O37  1  0.04505847  0.31412395  0.55870418  1
  O  O38  1  0.04505847  0.68587605  0.05870418  1
  O  O39  1  0.95905150  0.62561386  0.44121743  1
  O  O40  1  0.05776477  0.84996898  0.74028978  1
  O  O41  1  0.90134722  0.86814306  0.75083070  1
  O  O42  1  0.90134722  0.13185694  0.25083070  1
  O  O43  1  0.05776477  0.15003102  0.24028978  1
  O  O44  1  0.55776477  0.34996898  0.74028978  1
  O  O45  1  0.40134722  0.36814306  0.75083070  1
  O  O46  1  0.40134722  0.63185694  0.25083070  1
  O  O47  1  0.55776477  0.65003102  0.24028978  1
loop_
_geom_bond_atom_site_label_1
_geom_bond_atom_site_label_2
_geom_bond_distance
_geom_bond_site_symmetry_2
Na0 O46 2.269763 1_556
Na0 O0 2.413943 1_555
Na0 O22 2.425556 1_556
Na0 O6 2.487608 1_556
Na0 O16 2.561425 1_555
Na0 O40 2.758931 1_555
Na1 O41 2.269763 1_555
Na1 O7 2.413943 1_555
Na1 O17 2.425556 1_555
Na1 O1 2.487608 1_555
Na1 O23 2.561425 1_555
Na1 O47 2.758931 1_555
Na2 O42 2.269763 1_556
Na2 O4 2.413943 1_555
Na2 O18 2.425556 1_556
Na2 O2 2.487608 1_556
Na2 O20 2.561425 1_555
Na2 O44 2.758931 1_555
Na3 O45 2.269763 1_555
Na3 O3 2.413943 1_555
Na3 O21 2.425556 1_555
Na3 O5 2.487608 1_555
Na3 O19 2.561425 1_555
Na3 O43 2.758931 1_555
Na4 O35 2.383124 1_555
Na4 O44 2.385917 1_555
Na4 O5 2.390977 1_555
Na4 O4 2.492784 1_555
Na4 O34 2.590832 1_556
Na4 O24 2.802980 1_545
Na5 O32 2.383124 1_554
Na5 O47 2.385917 1_555
Na5 O6 2.390977 1_555
Na5 O7 2.492784 1_555
Na5 O33 2.590832 1_555
Na5 O27 2.802980 1_565
Na6 O39 2.383124 1_455
Na6 O40 2.385917 1_555
Na6 O1 2.390977 1_455
Na6 O0 2.492784 1_555
Na6 O38 2.590832 1_556
Na6 O28 2.802980 1_455
Na7 O36 2.383124 1_454
Na7 O43 2.385917 1_555
Na7 O2 2.390977 1_455
Na7 O3 2.492784 1_555
Na7 O37 2.590832 1_555
Na7 O31 2.802980 1_455
Na8 O19 2.330219 1_565
Na8 O22 2.483622 1_555
Na8 O24 2.515641 1_555
Na8 O43 2.566141 1_565
Na8 O30 2.659765 1_555
Na8 O13 2.698985 1_564
Na9 O16 2.330219 1_545
Na9 O21 2.483622 1_555
Na9 O27 2.515641 1_556
Na9 O40 2.566141 1_545
Na9 O29 2.659765 1_555
Na9 O14 2.698985 1_545
Na10 O23 2.330219 1_555
Na10 O18 2.483622 1_555
Na10 O28 2.515641 1_555
Na10 O47 2.566141 1_555
Na10 O26 2.659765 1_555
Na10 O9 2.698985 1_554
Na11 O20 2.330219 1_555
Na11 O17 2.483622 1_555
Na11 O31 2.515641 1_556
Na11 O44 2.566141 1_555
Na11 O25 2.659765 1_555
Na11 O10 2.698985 1_555
Ca0 O30 2.115713 1_555
Ca0 O14 2.168297 1_555
Ca0 O39 2.183271 1_455
Ca0 O16 2.278440 1_555
Ca0 O0 2.279436 1_555
Ca0 O40 2.282110 1_555
Ca1 O29 2.115713 1_554
Ca1 O13 2.168297 1_554
Ca1 O36 2.183271 1_454
Ca1 O19 2.278440 1_555
Ca1 O3 2.279436 1_555
Ca1 O43 2.282110 1_555
Ca2 O26 2.115713 1_555
Ca2 O10 2.168297 1_555
Ca2 O35 2.183271 1_555
Ca2 O20 2.278440 1_555
Ca2 O4 2.279436 1_555
Ca2 O44 2.282110 1_555
Ca3 O25 2.115713 1_554
Ca3 O9 2.168297 1_554
Ca3 O32 2.183271 1_554
Ca3 O23 2.278440 1_555
Ca3 O7 2.279436 1_555
Ca3 O47 2.282110 1_555
Ge0 O15 1.906092 1_556
Ge0 O41 1.941855 1_555
Ge0 O17 1.976673 1_555
Ge0 O1 1.993366 1_555
Ge0 O38 2.041293 1_656
Ge0 O31 2.221433 1_556
Ge1 O12 1.906092 1_555
Ge1 O42 1.941855 1_555
Ge1 O18 1.976673 1_555
Ge1 O2 1.993366 1_555
Ge1 O37 2.041293 1_655
Ge1 O28 2.221433 1_555
Ge2 O11 1.906092 1_556
Ge2 O45 1.941855 1_555
Ge2 O21 1.976673 1_555
Ge2 O5 1.993366 1_555
Ge2 O34 2.041293 1_556
Ge2 O27 2.221433 1_556
Ge3 O8 1.906092 1_555
Ge3 O46 1.941855 1_555
Ge3 O22 1.976673 1_555
Ge3 O6 1.993366 1_555
Ge3 O33 2.041293 1_555
Ge3 O24 2.221433 1_555
O0 P9 1.520658 1_555
O1 P8 1.620587 1_555
O2 P11 1.620587 1_555
O3 P10 1.520658 1_555
O4 P5 1.520658 1_545
O5 P4 1.620587 1_545
O6 P7 1.620587 1_565
O7 P6 1.520658 1_565
O8 P2 1.601885 1_555
O9 P2 1.495036 1_555
O10 P3 1.495036 1_555
O11 P3 1.601885 1_555
O12 P0 1.601885 1_545
O13 P0 1.495036 1_445
O14 P1 1.495036 1_465
O15 P1 1.601885 1_565
O16 P4 1.528329 1_555
O17 P5 1.594163 1_555
O18 P6 1.594163 1_555
O19 P7 1.528329 1_555
O20 P8 1.528329 1_555
O21 P9 1.594163 1_555
O22 P10 1.594163 1_555
O23 P11 1.528329 1_555
O24 P4 1.590507 1_555
O25 P5 1.493358 1_555
O26 P6 1.493358 1_555
O27 P7 1.590507 1_555
O28 P8 1.590507 1_555
O29 P9 1.493358 1_555
O30 P10 1.493358 1_555
O31 P11 1.590507 1_555
O32 P4 1.504775 1_555
O33 P5 1.613002 1_555
O34 P6 1.613002 1_555
O35 P7 1.504775 1_555
O36 P8 1.504775 1_555
O37 P9 1.613002 1_555
O38 P10 1.613002 1_555
O39 P11 1.504775 1_555
O40 P0 1.539556 1_455
O41 P0 1.583577 1_555
O42 P1 1.583577 1_555
O43 P1 1.539556 1_455
O44 P2 1.539556 1_555
O45 P2 1.583577 1_555
O46 P3 1.583577 1_555
O47 P3 1.539556 1_555
