# generated using pymatgen
data_Na3NbIn3P5SO24
_symmetry_space_group_name_H-M   'P 1'
_cell_length_a   8.91294487
_cell_length_b   8.90958687
_cell_length_c   23.11949194
_cell_angle_alpha   89.75763295
_cell_angle_beta   90.21481635
_cell_angle_gamma   120.06289727
_symmetry_Int_Tables_number   1
_chemical_formula_structural   Na3NbIn3P5SO24
_chemical_formula_sum   'Na9 Nb3 In9 P15 S3 O72'
_cell_volume   1588.93980954
_cell_formula_units_Z   3
loop_
 _symmetry_equiv_pos_site_id
 _symmetry_equiv_pos_as_xyz
  1  'x, y, z'
loop_
 _atom_site_type_symbol
 _atom_site_label
 _atom_site_symmetry_multiplicity
 _atom_site_fract_x
 _atom_site_fract_y
 _atom_site_fract_z
 _atom_site_occupancy
  Na  Na0  1  0.64454224  0.63996763  0.74794030  1
  Na  Na1  1  0.30031502  0.96206531  0.08486864  1
  Na  Na2  1  0.33070346  0.02480258  0.41310629  1
  Na  Na3  1  0.98388413  0.99997229  0.50070504  1
  Na  Na4  1  0.98902095  0.00023002  0.99770062  1
  Na  Na5  1  0.66645949  0.32150164  0.83070743  1
  Na  Na6  1  0.66729532  0.33494457  0.32752608  1
  Na  Na7  1  0.33253590  0.66124051  0.16696643  1
  Na  Na8  1  0.32055218  0.65946079  0.66083656  1
  Nb  Nb0  1  0.66907934  0.33589679  0.97940232  1
  Nb  Nb1  1  0.67820510  0.34462640  0.48164020  1
  Nb  Nb2  1  0.32767101  0.66552728  0.81611329  1
  In  In0  1  0.99936355  0.00180877  0.35004336  1
  In  In1  1  0.00368436  0.00346841  0.85105718  1
  In  In2  1  0.99435172  0.00140614  0.64862069  1
  In  In3  1  0.99966381  0.99942428  0.14541171  1
  In  In4  1  0.67098629  0.33204264  0.68469531  1
  In  In5  1  0.66189401  0.32883641  0.18404349  1
  In  In6  1  0.33405266  0.66124296  0.01720904  1
  In  In7  1  0.33513705  0.65931674  0.51642424  1
  In  In8  1  0.33468040  0.67157895  0.31838036  1
  P  P0  1  0.29808057  0.99846033  0.24981144  1
  P  P1  1  0.29484848  0.29587474  0.75047220  1
  P  P2  1  0.00248589  0.70897772  0.75028807  1
  P  P3  1  0.70194413  0.99902809  0.75191604  1
  P  P4  1  0.96294222  0.33422330  0.58377765  1
  P  P5  1  0.66762694  0.62865389  0.58530478  1
  P  P6  1  0.95760017  0.62306806  0.08355764  1
  P  P7  1  0.66821027  0.04215836  0.08229161  1
  P  P8  1  0.37706567  0.33621340  0.08275506  1
  P  P9  1  0.62717446  0.66716416  0.91697408  1
  P  P10  1  0.03876032  0.37258224  0.91809012  1
  P  P11  1  0.33421188  0.96008407  0.91923752  1
  P  P12  1  0.63138226  0.96462572  0.41892835  1
  P  P13  1  0.33484121  0.37068190  0.41686116  1
  P  P14  1  0.04088837  0.66809649  0.41722721  1
  S  S0  1  0.70185410  0.70290756  0.24978422  1
  S  S1  1  0.00127076  0.29881347  0.24939590  1
  S  S2  1  0.37293208  0.03983165  0.58165130  1
  O  O0  1  0.21400714  0.01890114  0.30575956  1
  O  O1  1  0.80346753  0.78446125  0.30288393  1
  O  O2  1  0.97482005  0.19437223  0.30242001  1
  O  O3  1  0.21887613  0.18754349  0.80469747  1
  O  O4  1  0.96542705  0.78696810  0.80324585  1
  O  O5  1  0.81169563  0.02791498  0.80568875  1
  O  O6  1  0.76690873  0.94622172  0.69797673  1
  O  O7  1  0.18586695  0.22575802  0.69538579  1
  O  O8  1  0.04276378  0.81865205  0.69515435  1
  O  O9  1  0.78207218  0.80798982  0.19717193  1
  O  O10  1  0.01897538  0.21461953  0.19681208  1
  O  O11  1  0.19266441  0.97905262  0.19361849  1
  O  O12  1  0.87983870  0.35471336  0.63814612  1
  O  O13  1  0.47488612  0.11981866  0.63424341  1
  O  O14  1  0.64272777  0.52686210  0.64146958  1
  O  O15  1  0.87775889  0.51826958  0.13825848  1
  O  O16  1  0.63386987  0.11758068  0.13656259  1
  O  O17  1  0.47974386  0.36078772  0.13801008  1
  O  O18  1  0.47830153  0.31643816  0.02887252  1
  O  O19  1  0.84134050  0.52253024  0.02884211  1
  O  O20  1  0.68598767  0.16081766  0.02789896  1
  O  O21  1  0.46445657  0.14598103  0.52855635  1
  O  O22  1  0.67753386  0.51814683  0.53218638  1
  O  O23  1  0.84361189  0.32015655  0.52952284  1
  O  O24  1  0.54713027  0.69460488  0.97047763  1
  O  O25  1  0.14398759  0.45121361  0.97212844  1
  O  O26  1  0.30907483  0.85984660  0.97516705  1
  O  O27  1  0.55091677  0.85568099  0.47292683  1
  O  O28  1  0.30124637  0.44510165  0.47091910  1
  O  O29  1  0.15696649  0.70565124  0.47022807  1
  O  O30  1  0.10637036  0.62313642  0.36284926  1
  O  O31  1  0.51237925  0.89865656  0.36521881  1
  O  O32  1  0.37462460  0.48134551  0.36224844  1
  O  O33  1  0.13348721  0.49286939  0.86405361  1
  O  O34  1  0.35779170  0.86124039  0.86624292  1
  O  O35  1  0.50988056  0.63851285  0.86191423  1
  O  O36  1  0.01740081  0.82712955  0.41113097  1
  O  O37  1  0.81404656  0.99344570  0.41101533  1
  O  O38  1  0.18464817  0.18128501  0.41122143  1
  O  O39  1  0.01096086  0.19145315  0.91004601  1
  O  O40  1  0.17990175  0.98632267  0.91041761  1
  O  O41  1  0.80960118  0.81982832  0.90955085  1
  O  O42  1  0.96924119  0.16459087  0.58243856  1
  O  O43  1  0.20323658  0.03174456  0.58301452  1
  O  O44  1  0.83994487  0.80178192  0.58310445  1
  O  O45  1  0.97008394  0.80308784  0.08289075  1
  O  O46  1  0.83536282  0.03303701  0.08387797  1
  O  O47  1  0.20350028  0.16037606  0.08223829  1
  O  O48  1  0.67013375  0.15132510  0.74517646  1
  O  O49  1  0.48460301  0.33568815  0.74504613  1
  O  O50  1  0.84148336  0.52592102  0.74556975  1
  O  O51  1  0.68921587  0.53041951  0.24652062  1
  O  O52  1  0.84629335  0.32015407  0.24605338  1
  O  O53  1  0.48030398  0.16468630  0.24789819  1
  O  O54  1  0.63538176  0.49447492  0.92378241  1
  O  O55  1  0.85911939  0.36563383  0.92260982  1
  O  O56  1  0.50656583  0.14072089  0.92313411  1
  O  O57  1  0.64474480  0.14822856  0.42927818  1
  O  O58  1  0.49990417  0.34810059  0.42758082  1
  O  O59  1  0.85456533  0.50449921  0.42801893  1
  O  O60  1  0.35339779  0.49290062  0.07719283  1
  O  O61  1  0.14172828  0.65130679  0.07748313  1
  O  O62  1  0.50209612  0.86530232  0.07542515  1
  O  O63  1  0.35504347  0.86661734  0.57696390  1
  O  O64  1  0.50680256  0.64696111  0.57821918  1
  O  O65  1  0.13964964  0.49886946  0.57719454  1
  O  O66  1  0.31387349  0.83260387  0.25299154  1
  O  O67  1  0.52615794  0.68206784  0.25393784  1
  O  O68  1  0.16102411  0.47052017  0.25375343  1
  O  O69  1  0.31606137  0.48379636  0.76108036  1
  O  O70  1  0.16582607  0.68735826  0.76195911  1
  O  O71  1  0.51783959  0.82923726  0.76270178  1
loop_
_geom_bond_atom_site_label_1
_geom_bond_atom_site_label_2
_geom_bond_distance
_geom_bond_site_symmetry_2
Na0 O49 2.348407 1_555
Na0 O50 2.429986 1_555
Na0 O71 2.480152 1_555
Na0 O69 2.553742 1_555
Na0 O6 2.640128 1_555
Na0 O14 2.660705 1_555
Na0 O4 2.786365 1_555
Na0 O35 2.896876 1_555
Na1 O47 2.323005 1_565
Na1 O62 2.362913 1_555
Na1 O61 2.402947 1_555
Na1 O45 2.548364 1_455
Na1 O26 2.712992 1_554
Na1 O11 2.726120 1_555
Na1 O16 2.836710 1_565
Na2 O38 2.336185 1_555
Na2 O36 2.444174 1_545
Na2 O57 2.468890 1_555
Na2 O58 2.517033 1_555
Na2 O31 2.637855 1_545
Na2 O0 2.677851 1_555
Na2 O29 2.792752 1_545
Na2 O21 2.902095 1_555
Na3 O42 2.440492 1_565
Na3 O44 2.472499 1_555
Na3 O37 2.546342 1_555
Na3 O43 2.635499 1_665
Na3 O38 2.682329 1_665
Na3 O36 2.691077 1_655
Na4 O46 2.521333 1_556
Na4 O45 2.582433 1_546
Na4 O39 2.586057 1_655
Na4 O41 2.592710 1_545
Na4 O47 2.602494 1_656
Na4 O40 2.687183 1_645
Na5 O48 2.507146 1_555
Na5 O49 2.597009 1_555
Na5 O50 2.602137 1_555
Na5 O56 2.623998 1_555
Na5 O55 2.630781 1_555
Na5 O54 2.746350 1_555
Na6 O53 2.436294 1_555
Na6 O51 2.492585 1_555
Na6 O52 2.519110 1_555
Na6 O58 2.791773 1_555
Na6 O59 2.817862 1_555
Na6 O57 2.824417 1_555
Na7 O66 2.568439 1_555
Na7 O68 2.577173 1_555
Na7 O67 2.590747 1_555
Na7 O60 2.626883 1_555
Na7 O61 2.646583 1_555
Na7 O62 2.703168 1_555
Na8 O65 2.464758 1_555
Na8 O64 2.574356 1_555
Na8 O63 2.582022 1_555
Na8 O69 2.780212 1_555
Na8 O70 2.793189 1_555
Na8 O71 2.874133 1_555
Nb0 O19 1.968209 1_556
Nb0 O20 1.983062 1_556
Nb0 O18 1.986718 1_556
Nb0 O54 2.036377 1_555
Nb0 O55 2.056047 1_555
Nb0 O56 2.072611 1_555
Nb1 O23 1.937581 1_555
Nb1 O22 1.944318 1_555
Nb1 O59 1.947567 1_555
Nb1 O57 2.026995 1_555
Nb1 O58 2.030418 1_555
Nb1 O21 2.135289 1_555
Nb2 O33 1.980610 1_555
Nb2 O70 1.987897 1_555
Nb2 O34 2.000401 1_555
Nb2 O71 2.012145 1_555
Nb2 O69 2.024786 1_555
Nb2 O35 2.047734 1_555
In0 O0 2.110177 1_655
In0 O2 2.135847 1_555
In0 O1 2.145531 1_545
In0 O37 2.148042 1_545
In0 O38 2.154211 1_655
In0 O36 2.161710 1_645
In1 O3 2.089541 1_555
In1 O4 2.101217 1_445
In1 O5 2.105660 1_455
In1 O39 2.139893 1_555
In1 O40 2.143841 1_545
In1 O41 2.159020 1_445
In2 O7 2.159666 1_655
In2 O6 2.160394 1_545
In2 O8 2.163439 1_645
In2 O42 2.193118 1_555
In2 O44 2.215044 1_545
In2 O43 2.313745 1_655
In3 O11 2.128596 1_655
In3 O46 2.162916 1_565
In3 O45 2.185242 1_555
In3 O9 2.188226 1_555
In3 O10 2.192019 1_665
In3 O47 2.209570 1_665
In4 O12 2.073791 1_555
In4 O14 2.120487 1_555
In4 O48 2.125215 1_555
In4 O50 2.156017 1_555
In4 O13 2.164007 1_555
In4 O49 2.186172 1_555
In5 O17 2.072912 1_555
In5 O16 2.086741 1_555
In5 O15 2.101790 1_555
In5 O53 2.136817 1_555
In5 O52 2.207102 1_555
In5 O51 2.225425 1_555
In6 O25 2.070006 1_554
In6 O24 2.075931 1_554
In6 O60 2.107658 1_555
In6 O26 2.122235 1_554
In6 O62 2.153507 1_555
In6 O61 2.180121 1_555
In7 O28 2.068258 1_555
In7 O27 2.097486 1_555
In7 O29 2.115019 1_555
In7 O64 2.131966 1_555
In7 O65 2.135233 1_555
In7 O63 2.256867 1_555
In8 O30 2.125120 1_555
In8 O31 2.137656 1_555
In8 O32 2.148342 1_555
In8 O66 2.150390 1_555
In8 O67 2.235878 1_555
In8 O68 2.250433 1_555
O0 P0 1.553638 1_545
O1 S0 1.481618 1_555
O2 S1 1.482226 1_655
O3 P1 1.517593 1_555
O4 P2 1.526815 1_655
O5 P3 1.519875 1_545
O6 P3 1.547603 1_555
O7 P1 1.531420 1_555
O8 P2 1.532941 1_555
O9 S0 1.481053 1_555
O10 S1 1.480981 1_555
O11 P0 1.558993 1_555
O12 P4 1.518663 1_555
O13 S2 1.470465 1_555
O14 P5 1.532453 1_555
O15 P6 1.519415 1_555
O16 P7 1.528279 1_555
O17 P8 1.519946 1_555
O18 P8 1.602071 1_555
O19 P6 1.595659 1_555
O20 P7 1.595803 1_555
O21 S2 1.513750 1_555
O22 P5 1.607321 1_555
O23 P4 1.605638 1_555
O24 P9 1.510891 1_555
O25 P10 1.507180 1_555
O26 P11 1.520435 1_555
O27 P12 1.521206 1_555
O28 P13 1.516576 1_555
O29 P14 1.526751 1_555
O30 P14 1.524998 1_555
O31 P12 1.544048 1_555
O32 P13 1.527945 1_555
O33 P10 1.584980 1_555
O34 P11 1.586618 1_555
O35 P9 1.582373 1_555
O36 P14 1.538384 1_555
O37 P12 1.527426 1_555
O38 P13 1.547202 1_555
O39 P10 1.517188 1_555
O40 P11 1.519035 1_555
O41 P9 1.519078 1_555
O42 P4 1.540690 1_555
O43 S2 1.478159 1_555
O44 P5 1.538543 1_555
O45 P6 1.551168 1_555
O46 P7 1.532445 1_555
O47 P8 1.555474 1_555
O48 P3 1.526164 1_545
O49 P1 1.549874 1_555
O50 P2 1.544868 1_655
O51 S0 1.485801 1_555
O52 S1 1.487393 1_655
O53 P0 1.556672 1_545
O54 P9 1.583671 1_555
O55 P10 1.574883 1_655
O56 P11 1.575213 1_545
O57 P12 1.598520 1_545
O58 P13 1.599911 1_555
O59 P14 1.587300 1_655
O60 P8 1.517641 1_555
O61 P6 1.537549 1_455
O62 P7 1.537245 1_565
O63 S2 1.474313 1_565
O64 P5 1.529834 1_555
O65 P4 1.529950 1_455
O66 P0 1.554431 1_555
O67 S0 1.485134 1_555
O68 S1 1.481809 1_555
O69 P1 1.607842 1_555
O70 P2 1.583338 1_555
O71 P3 1.598774 1_555
