# generated using pymatgen
data_SrThBr6
_symmetry_space_group_name_H-M   'P 1'
_cell_length_a   4.28546000
_cell_length_b   9.37859100
_cell_length_c   13.47064500
_cell_angle_alpha   90.00000000
_cell_angle_beta   90.00000000
_cell_angle_gamma   90.00000000
_symmetry_Int_Tables_number   1
_chemical_formula_structural   SrThBr6
_chemical_formula_sum   'Sr2 Th2 Br12'
_cell_volume   541.40646019
_cell_formula_units_Z   2
loop_
 _symmetry_equiv_pos_site_id
 _symmetry_equiv_pos_as_xyz
  1  'x, y, z'
loop_
 _atom_site_type_symbol
 _atom_site_label
 _atom_site_symmetry_multiplicity
 _atom_site_fract_x
 _atom_site_fract_y
 _atom_site_fract_z
 _atom_site_occupancy
  Sr  Sr0  1  0.50000000  0.25000000  0.26898500  1
  Sr  Sr1  1  0.50000000  0.75000000  0.73101500  1
  Th  Th0  1  0.00000000  0.25000000  0.75157100  1
  Th  Th1  1  0.00000000  0.75000000  0.24842900  1
  Br  Br0  1  0.50000000  0.07663600  0.64748800  1
  Br  Br1  1  0.50000000  0.92336400  0.35251200  1
  Br  Br2  1  0.50000000  0.57663600  0.35251200  1
  Br  Br3  1  0.50000000  0.42336400  0.64748800  1
  Br  Br4  1  0.50000000  0.25000000  0.90185300  1
  Br  Br5  1  0.50000000  0.75000000  0.09814700  1
  Br  Br6  1  0.00000000  0.25000000  0.42445000  1
  Br  Br7  1  0.00000000  0.75000000  0.57555000  1
  Br  Br8  1  0.00000000  0.04578100  0.15664300  1
  Br  Br9  1  0.00000000  0.95421900  0.84335700  1
  Br  Br10  1  0.00000000  0.54578100  0.84335700  1
  Br  Br11  1  0.00000000  0.45421900  0.15664300  1
loop_
_geom_bond_atom_site_label_1
_geom_bond_atom_site_label_2
_geom_bond_distance
_geom_bond_site_symmetry_2
Br0 Th0 3.033259 1_655
Br0 Th0 3.033259 1_555
Br0 Sr1 3.263483 1_545
Br1 Th1 3.033259 1_655
Br1 Th1 3.033259 1_555
Br1 Sr0 3.263483 1_565
Br2 Th1 3.033259 1_555
Br2 Th1 3.033259 1_655
Br2 Sr0 3.263483 1_555
Br3 Th0 3.033259 1_555
Br3 Th0 3.033259 1_655
Br3 Sr1 3.263483 1_555
Br4 Th0 2.947791 1_555
Br4 Th0 2.947791 1_655
Br5 Th1 2.947791 1_655
Br5 Th1 2.947791 1_555
Br6 Sr0 2.996168 1_455
Br6 Sr0 2.996168 1_555
Br7 Sr1 2.996168 1_455
Br7 Sr1 2.996168 1_555
Br8 Th1 3.037080 1_545
Br8 Sr0 3.248038 1_455
Br8 Sr0 3.248038 1_555
Br9 Th0 3.037080 1_565
Br9 Sr1 3.248038 1_455
Br9 Sr1 3.248038 1_555
Br10 Th0 3.037080 1_555
Br10 Sr1 3.248038 1_455
Br10 Sr1 3.248038 1_555
Br11 Th1 3.037080 1_555
Br11 Sr0 3.248038 1_555
Br11 Sr0 3.248038 1_455
