# generated using pymatgen
data_TiO2
_symmetry_space_group_name_H-M   'P 1'
_cell_length_a   3.00267777
_cell_length_b   9.70238869
_cell_length_c   9.40652910
_cell_angle_alpha   90.00000000
_cell_angle_beta   90.00000000
_cell_angle_gamma   90.00000000
_symmetry_Int_Tables_number   1
_chemical_formula_structural   TiO2
_chemical_formula_sum   'Ti8 O16'
_cell_volume   274.04179348
_cell_formula_units_Z   8
loop_
 _symmetry_equiv_pos_site_id
 _symmetry_equiv_pos_as_xyz
  1  'x, y, z'
loop_
 _atom_site_type_symbol
 _atom_site_label
 _atom_site_symmetry_multiplicity
 _atom_site_fract_x
 _atom_site_fract_y
 _atom_site_fract_z
 _atom_site_occupancy
  Ti  Ti0  1  0.75000000  0.47573482  0.84846462  1
  Ti  Ti1  1  0.25000000  0.70157038  0.60103037  1
  Ti  Ti2  1  0.75000000  0.79842962  0.10103037  1
  Ti  Ti3  1  0.25000000  0.02426518  0.34846462  1
  Ti  Ti4  1  0.75000000  0.97573482  0.65153538  1
  Ti  Ti5  1  0.25000000  0.20157038  0.89896963  1
  Ti  Ti6  1  0.75000000  0.29842962  0.39896963  1
  Ti  Ti7  1  0.25000000  0.52426518  0.15153538  1
  O  O0  1  0.75000000  0.60405450  0.02371930  1
  O  O1  1  0.25000000  0.56076903  0.75536132  1
  O  O2  1  0.25000000  0.69695748  0.22190959  1
  O  O3  1  0.75000000  0.63996077  0.50924773  1
  O  O4  1  0.25000000  0.86003923  0.00924773  1
  O  O5  1  0.75000000  0.80304252  0.72190959  1
  O  O6  1  0.75000000  0.93923097  0.25536132  1
  O  O7  1  0.25000000  0.89594550  0.52371930  1
  O  O8  1  0.75000000  0.10405450  0.47628070  1
  O  O9  1  0.25000000  0.06076903  0.74463868  1
  O  O10  1  0.25000000  0.19695748  0.27809041  1
  O  O11  1  0.75000000  0.13996077  0.99075227  1
  O  O12  1  0.25000000  0.36003923  0.49075227  1
  O  O13  1  0.75000000  0.30304252  0.77809041  1
  O  O14  1  0.75000000  0.43923097  0.24463868  1
  O  O15  1  0.25000000  0.39594550  0.97628070  1
loop_
_geom_bond_atom_site_label_1
_geom_bond_atom_site_label_2
_geom_bond_distance
_geom_bond_site_symmetry_2
O0 Ti2 2.021260 1_555
O0 Ti0 2.065847 1_554
O0 Ti7 2.073369 1_655
O0 Ti7 2.073369 1_555
O1 Ti0 1.923978 1_455
O1 Ti0 1.923978 1_555
O1 Ti1 1.993425 1_555
O2 Ti7 1.801557 1_555
O2 Ti2 2.125134 1_555
O2 Ti2 2.125134 1_455
O3 Ti1 1.832135 1_555
O3 Ti1 1.832135 1_655
O4 Ti2 1.832135 1_555
O4 Ti2 1.832135 1_455
O5 Ti4 1.801557 1_555
O5 Ti1 2.125134 1_555
O5 Ti1 2.125134 1_655
O6 Ti3 1.923978 1_665
O6 Ti3 1.923978 1_565
O6 Ti2 1.993425 1_555
O7 Ti1 2.021260 1_555
O7 Ti3 2.065847 1_565
O7 Ti4 2.073369 1_455
O7 Ti4 2.073369 1_555
O8 Ti6 2.021260 1_555
O8 Ti4 2.065847 1_545
O8 Ti3 2.073369 1_555
O8 Ti3 2.073369 1_655
O9 Ti4 1.923978 1_445
O9 Ti4 1.923978 1_545
O9 Ti5 1.993425 1_555
O10 Ti3 1.801557 1_555
O10 Ti6 2.125134 1_455
O10 Ti6 2.125134 1_555
O11 Ti5 1.832135 1_555
O11 Ti5 1.832135 1_655
O12 Ti6 1.832135 1_555
O12 Ti6 1.832135 1_455
O13 Ti0 1.801557 1_555
O13 Ti5 2.125134 1_555
O13 Ti5 2.125134 1_655
O14 Ti7 1.923978 1_555
O14 Ti7 1.923978 1_655
O14 Ti6 1.993425 1_555
O15 Ti5 2.021260 1_555
O15 Ti7 2.065847 1_556
O15 Ti0 2.073369 1_555
O15 Ti0 2.073369 1_455
