# generated using pymatgen
data_NaTaSi2SnSO12
_symmetry_space_group_name_H-M   'P 1'
_cell_length_a   8.85523983
_cell_length_b   8.85014070
_cell_length_c   22.83638097
_cell_angle_alpha   91.08670434
_cell_angle_beta   90.00000000
_cell_angle_gamma   120.01906113
_symmetry_Int_Tables_number   1
_chemical_formula_structural   NaTaSi2SnSO12
_chemical_formula_sum   'Na6 Ta6 Si12 Sn6 S6 O72'
_cell_volume   1549.24734661
_cell_formula_units_Z   6
loop_
 _symmetry_equiv_pos_site_id
 _symmetry_equiv_pos_as_xyz
  1  'x, y, z'
loop_
 _atom_site_type_symbol
 _atom_site_label
 _atom_site_symmetry_multiplicity
 _atom_site_fract_x
 _atom_site_fract_y
 _atom_site_fract_z
 _atom_site_occupancy
  Na  Na0  1  0.02691797  0.01322938  0.49652602  1
  Na  Na1  1  0.98631141  0.01322938  0.99652602  1
  Na  Na2  1  0.69358497  0.34656238  0.82985902  1
  Na  Na3  1  0.65297841  0.34656238  0.32985902  1
  Na  Na4  1  0.36025097  0.67989638  0.16319302  1
  Na  Na5  1  0.31964441  0.67989638  0.66319302  1
  Ta  Ta0  1  0.99581349  0.99294665  0.64397608  1
  Ta  Ta1  1  0.99713316  0.99294665  0.14397608  1
  Ta  Ta2  1  0.66248049  0.32627965  0.97730908  1
  Ta  Ta3  1  0.66380016  0.32627965  0.47730908  1
  Ta  Ta4  1  0.32914649  0.65961365  0.31064308  1
  Ta  Ta5  1  0.33046616  0.65961365  0.81064308  1
  Si  Si0  1  0.29223011  0.99766101  0.25010062  1
  Si  Si1  1  0.71413999  0.71064946  0.25006019  1
  Si  Si2  1  0.99650947  0.71064946  0.75006019  1
  Si  Si3  1  0.70543091  0.99766101  0.75010062  1
  Si  Si4  1  0.95889711  0.33099401  0.58343362  1
  Si  Si5  1  0.38080699  0.04398246  0.58339319  1
  Si  Si6  1  0.66317647  0.04398246  0.08339319  1
  Si  Si7  1  0.37209791  0.33099401  0.08343362  1
  Si  Si8  1  0.62556311  0.66432801  0.91676762  1
  Si  Si9  1  0.04747299  0.37731646  0.91672719  1
  Si  Si10  1  0.32984247  0.37731646  0.41672719  1
  Si  Si11  1  0.03876391  0.66432801  0.41676762  1
  Sn  Sn0  1  0.01354156  0.99262909  0.35408942  1
  Sn  Sn1  1  0.97908753  0.99262909  0.85408942  1
  Sn  Sn2  1  0.68020856  0.32596209  0.68742242  1
  Sn  Sn3  1  0.64575453  0.32596209  0.18742242  1
  Sn  Sn4  1  0.34687456  0.65929609  0.02075642  1
  Sn  Sn5  1  0.31242053  0.65929609  0.52075642  1
  S  S0  1  0.99860546  0.28542205  0.24964049  1
  S  S1  1  0.28681659  0.28542205  0.74964049  1
  S  S2  1  0.66527246  0.61875505  0.58297349  1
  S  S3  1  0.95348359  0.61875505  0.08297349  1
  S  S4  1  0.33193846  0.95208905  0.91630749  1
  S  S5  1  0.62014959  0.95208905  0.41630749  1
  O  O0  1  0.22110256  0.04639171  0.30833583  1
  O  O1  1  0.81962355  0.80398419  0.30961483  1
  O  O2  1  0.97129408  0.18466525  0.30251796  1
  O  O3  1  0.21337118  0.18466525  0.80251796  1
  O  O4  1  0.98436064  0.80398419  0.80961483  1
  O  O5  1  0.82528916  0.04639171  0.80833583  1
  O  O6  1  0.80852924  0.97685984  0.69278301  1
  O  O7  1  0.17801109  0.20108669  0.69628826  1
  O  O8  1  0.02592963  0.83278936  0.69252954  1
  O  O9  1  0.80685972  0.83278936  0.19252954  1
  O  O10  1  0.02307560  0.20108669  0.19628826  1
  O  O11  1  0.16833060  0.97685984  0.19278301  1
  O  O12  1  0.88776956  0.37972471  0.64166883  1
  O  O13  1  0.48629055  0.13731719  0.64294783  1
  O  O14  1  0.63796108  0.51799825  0.63585096  1
  O  O15  1  0.88003818  0.51799825  0.13585096  1
  O  O16  1  0.65102764  0.13731719  0.14294783  1
  O  O17  1  0.49195616  0.37972471  0.14166883  1
  O  O18  1  0.47519624  0.31019284  0.02611601  1
  O  O19  1  0.84467809  0.53441969  0.02962126  1
  O  O20  1  0.69259663  0.16612236  0.02586254  1
  O  O21  1  0.47352672  0.16612236  0.52586254  1
  O  O22  1  0.68974260  0.53441969  0.52962126  1
  O  O23  1  0.83499760  0.31019284  0.52611601  1
  O  O24  1  0.55443556  0.71305871  0.97500283  1
  O  O25  1  0.15295655  0.47065119  0.97628183  1
  O  O26  1  0.30462708  0.85133225  0.96918496  1
  O  O27  1  0.54670418  0.85133225  0.46918496  1
  O  O28  1  0.31769364  0.47065119  0.47628183  1
  O  O29  1  0.15862216  0.71305871  0.47500283  1
  O  O30  1  0.14186224  0.64352684  0.35945001  1
  O  O31  1  0.51134409  0.86775369  0.36295526  1
  O  O32  1  0.35926263  0.49945636  0.35919654  1
  O  O33  1  0.14019272  0.49945636  0.85919654  1
  O  O34  1  0.35640860  0.86775369  0.86295526  1
  O  O35  1  0.50166360  0.64352684  0.85945001  1
  O  O36  1  0.00123057  0.82577573  0.41378878  1
  O  O37  1  0.79835620  0.98589296  0.40951031  1
  O  O38  1  0.14847402  0.19112070  0.41124402  1
  O  O39  1  0.04264668  0.19112070  0.91124402  1
  O  O40  1  0.18753676  0.98589296  0.90951031  1
  O  O41  1  0.82454517  0.82577573  0.91378878  1
  O  O42  1  0.96442660  0.14843275  0.59057754  1
  O  O43  1  0.18312059  0.01861553  0.59077944  1
  O  O44  1  0.83198410  0.79184763  0.58763767  1
  O  O45  1  0.95986353  0.79184763  0.08763767  1
  O  O46  1  0.83549494  0.01861553  0.09077944  1
  O  O47  1  0.18400615  0.14843275  0.09057754  1
  O  O48  1  0.66789757  0.15910873  0.74712178  1
  O  O49  1  0.46502320  0.31922596  0.74284331  1
  O  O50  1  0.81514102  0.52445370  0.74457702  1
  O  O51  1  0.70931368  0.52445370  0.24457702  1
  O  O52  1  0.85420376  0.31922596  0.24284331  1
  O  O53  1  0.49121217  0.15910873  0.24712178  1
  O  O54  1  0.63109360  0.48176575  0.92391054  1
  O  O55  1  0.84978759  0.35194853  0.92411244  1
  O  O56  1  0.49865110  0.12518063  0.92097067  1
  O  O57  1  0.62653053  0.12518063  0.42097067  1
  O  O58  1  0.50216194  0.35194853  0.42411244  1
  O  O59  1  0.85067315  0.48176575  0.42391054  1
  O  O60  1  0.33456357  0.49244273  0.08045578  1
  O  O61  1  0.13168920  0.65255996  0.07617731  1
  O  O62  1  0.48180702  0.85778770  0.07791102  1
  O  O63  1  0.37597968  0.85778770  0.57791102  1
  O  O64  1  0.52086976  0.65255996  0.57617731  1
  O  O65  1  0.15787817  0.49244273  0.58045578  1
  O  O66  1  0.29775960  0.81509975  0.25724454  1
  O  O67  1  0.51645359  0.68528253  0.25744644  1
  O  O68  1  0.16531710  0.45851463  0.25430467  1
  O  O69  1  0.29319653  0.45851463  0.75430467  1
  O  O70  1  0.16882794  0.68528253  0.75744644  1
  O  O71  1  0.51733915  0.81509975  0.75724454  1
loop_
_geom_bond_atom_site_label_1
_geom_bond_atom_site_label_2
_geom_bond_distance
_geom_bond_site_symmetry_2
Na0 O38 2.418847 1_555
Na0 O36 2.424339 1_545
Na0 O43 2.545297 1_555
Na0 O42 2.629845 1_455
Na0 O37 2.755987 1_445
Na0 O44 2.813929 1_445
Na1 O39 2.418847 1_655
Na1 O41 2.424339 1_545
Na1 O46 2.545297 1_556
Na1 O47 2.629845 1_656
Na1 O40 2.755987 1_645
Na1 O45 2.813929 1_546
Na2 O50 2.418847 1_555
Na2 O48 2.424339 1_555
Na2 O55 2.545297 1_555
Na2 O54 2.629845 1_555
Na2 O49 2.755987 1_555
Na2 O56 2.813929 1_555
Na3 O51 2.418847 1_555
Na3 O53 2.424339 1_555
Na3 O58 2.545297 1_555
Na3 O59 2.629845 1_555
Na3 O52 2.755987 1_555
Na3 O57 2.813929 1_555
Na4 O62 2.418847 1_555
Na4 O60 2.424339 1_555
Na4 O67 2.545297 1_555
Na4 O66 2.629845 1_555
Na4 O61 2.755987 1_555
Na4 O68 2.813929 1_555
Na5 O63 2.418847 1_555
Na5 O65 2.424339 1_555
Na5 O70 2.545297 1_555
Na5 O71 2.629845 1_555
Na5 O64 2.755987 1_555
Na5 O69 2.813929 1_555
O0 Si0 1.612865 1_545
O0 Sn0 1.959635 1_545
O1 Si1 1.609295 1_555
O1 Sn0 1.958247 1_655
O2 S0 1.461790 1_555
O2 Sn0 2.264402 1_645
O3 S1 1.461790 1_555
O3 Sn1 2.264402 1_445
O4 Si2 1.609295 1_555
O4 Sn1 1.958247 1_555
O5 Si3 1.612865 1_545
O5 Sn1 1.959635 1_545
O6 Si3 1.655205 1_555
O6 Ta0 1.944932 1_555
O7 S1 1.488556 1_555
O7 Ta0 2.089551 1_445
O8 Si2 1.653626 1_455
O8 Ta0 1.935827 1_455
O9 Si1 1.653626 1_555
O9 Ta1 1.935827 1_555
O10 S0 1.488556 1_455
O10 Ta1 2.089551 1_445
O11 Si0 1.655205 1_555
O11 Ta1 1.944932 1_455
O12 Si4 1.612865 1_555
O12 Sn2 1.959635 1_555
O13 Si5 1.609295 1_555
O13 Sn2 1.958247 1_555
O14 S2 1.461790 1_555
O14 Sn2 2.264402 1_555
O15 S3 1.461790 1_555
O15 Sn3 2.264402 1_555
O16 Si6 1.609295 1_555
O16 Sn3 1.958247 1_555
O17 Si7 1.612865 1_555
O17 Sn3 1.959635 1_555
O18 Si7 1.655205 1_555
O18 Ta2 1.944932 1_554
O19 S3 1.488556 1_555
O19 Ta2 2.089551 1_554
O20 Si6 1.653626 1_555
O20 Ta2 1.935827 1_554
O21 Si5 1.653626 1_555
O21 Ta3 1.935827 1_555
O22 S2 1.488556 1_555
O22 Ta3 2.089551 1_555
O23 Si4 1.655205 1_555
O23 Ta3 1.944932 1_555
O24 Si8 1.612865 1_555
O24 Sn4 1.959635 1_556
O25 Si9 1.609295 1_555
O25 Sn4 1.958247 1_556
O26 S4 1.461790 1_555
O26 Sn4 2.264402 1_556
O27 S5 1.461790 1_555
O27 Sn5 2.264402 1_555
O28 Si10 1.609295 1_555
O28 Sn5 1.958247 1_555
O29 Si11 1.612865 1_555
O29 Sn5 1.959635 1_555
O30 Si11 1.655205 1_555
O30 Ta4 1.944932 1_555
O31 S5 1.488556 1_555
O31 Ta4 2.089551 1_555
O32 Si10 1.653626 1_555
O32 Ta4 1.935827 1_555
O33 Si9 1.653626 1_555
O33 Ta5 1.935827 1_555
O34 S4 1.488556 1_555
O34 Ta5 2.089551 1_555
O35 Si8 1.655205 1_555
O35 Ta5 1.944932 1_555
O36 Si11 1.623429 1_555
O36 Sn0 1.991576 1_555
O37 S5 1.460568 1_555
O37 Sn0 2.263962 1_655
O38 Si10 1.629305 1_555
O38 Sn0 2.007487 1_545
O39 Si9 1.629310 1_555
O39 Sn1 2.007487 1_445
O40 S4 1.460559 1_555
O40 Sn1 2.263962 1_455
O41 Si8 1.623435 1_555
O41 Sn1 1.991576 1_555
O42 Si4 1.651857 1_555
O42 Ta0 1.975897 1_545
O43 Si5 1.658771 1_555
O43 Ta0 1.977868 1_445
O44 S2 1.506133 1_555
O44 Ta0 2.063282 1_555
O45 S3 1.506138 1_555
O45 Ta1 2.063282 1_555
O46 Si6 1.658762 1_555
O46 Ta1 1.977868 1_545
O47 Si7 1.651862 1_555
O47 Ta1 1.975897 1_445
O48 Si3 1.623429 1_545
O48 Sn2 1.991576 1_555
O49 S1 1.460568 1_555
O49 Sn2 2.263962 1_555
O50 Si2 1.629305 1_555
O50 Sn2 2.007487 1_555
O51 Si1 1.629310 1_555
O51 Sn3 2.007487 1_555
O52 S0 1.460559 1_555
O52 Sn3 2.263962 1_555
O53 Si0 1.623435 1_545
O53 Sn3 1.991576 1_555
O54 Si8 1.651868 1_555
O54 Ta2 1.975897 1_555
O55 Si9 1.658756 1_655
O55 Ta2 1.977868 1_555
O56 S4 1.506132 1_545
O56 Ta2 2.063282 1_555
O57 S5 1.506123 1_545
O57 Ta3 2.063282 1_555
O58 Si10 1.658774 1_555
O58 Ta3 1.977868 1_555
O59 Si11 1.651859 1_655
O59 Ta3 1.975897 1_555
O60 Si7 1.623442 1_555
O60 Sn4 1.991576 1_555
O61 S3 1.460554 1_455
O61 Sn4 2.263962 1_555
O62 Si6 1.629304 1_565
O62 Sn4 2.007487 1_555
O63 Si5 1.629295 1_565
O63 Sn5 2.007487 1_555
O64 S2 1.460571 1_555
O64 Sn5 2.263962 1_555
O65 Si4 1.623431 1_455
O65 Sn5 1.991576 1_555
O66 Si0 1.651857 1_555
O66 Ta4 1.975897 1_555
O67 Si1 1.658771 1_555
O67 Ta4 1.977868 1_555
O68 S0 1.506133 1_455
O68 Ta4 2.063282 1_555
O69 S1 1.506138 1_555
O69 Ta5 2.063282 1_555
O70 Si2 1.658762 1_455
O70 Ta5 1.977868 1_555
O71 Si3 1.651862 1_555
O71 Ta5 1.975897 1_555
