# generated using pymatgen
data_Na15Mg7Nb5(PO4)18
_symmetry_space_group_name_H-M   'P 1'
_cell_length_a   8.89781895
_cell_length_b   8.86664186
_cell_length_c   22.39168912
_cell_angle_alpha   89.96283686
_cell_angle_beta   90.16716017
_cell_angle_gamma   119.85397898
_symmetry_Int_Tables_number   1
_chemical_formula_structural   Na15Mg7Nb5(PO4)18
_chemical_formula_sum   'Na15 Mg7 Nb5 P18 O72'
_cell_volume   1532.12898379
_cell_formula_units_Z   1
loop_
 _symmetry_equiv_pos_site_id
 _symmetry_equiv_pos_as_xyz
  1  'x, y, z'
loop_
 _atom_site_type_symbol
 _atom_site_label
 _atom_site_symmetry_multiplicity
 _atom_site_fract_x
 _atom_site_fract_y
 _atom_site_fract_z
 _atom_site_occupancy
  Na  Na0  1  0.98968714  0.63163079  0.24618608  1
  Na  Na1  1  0.64537722  0.63585312  0.74863334  1
  Na  Na2  1  0.99024182  0.35386174  0.74870966  1
  Na  Na3  1  0.36429297  0.00954231  0.74858666  1
  Na  Na4  1  0.29692758  0.33332573  0.58489040  1
  Na  Na5  1  0.03738410  0.70410142  0.58540744  1
  Na  Na6  1  0.66581049  0.96349390  0.58495924  1
  Na  Na7  1  0.65712776  0.69157440  0.08013648  1
  Na  Na8  1  0.32304581  0.02602193  0.41286678  1
  Na  Na9  1  0.99102193  0.99941913  0.49601101  1
  Na  Na10  1  0.00830068  0.00700123  0.99069762  1
  Na  Na11  1  0.66687409  0.33336874  0.83273829  1
  Na  Na12  1  0.66492105  0.33111874  0.32535563  1
  Na  Na13  1  0.33130275  0.66741222  0.15812910  1
  Na  Na14  1  0.33359401  0.66702480  0.66390012  1
  Mg  Mg0  1  0.99452717  0.00020574  0.35208514  1
  Mg  Mg1  1  0.99975842  -0.00009564  0.85255969  1
  Mg  Mg2  1  0.00003334  0.00030035  0.65084452  1
  Mg  Mg3  1  0.66654714  0.33282402  0.68439341  1
  Mg  Mg4  1  0.66147293  0.32758690  0.18509299  1
  Mg  Mg5  1  0.32733334  0.66593848  0.01878838  1
  Mg  Mg6  1  0.33405800  0.66652681  0.51641586  1
  Nb  Nb0  1  0.00475031  0.00692093  0.14494742  1
  Nb  Nb1  1  0.66600538  0.33051519  0.97903718  1
  Nb  Nb2  1  0.67201092  0.33801868  0.47839449  1
  Nb  Nb3  1  0.33890018  0.66530499  0.31170215  1
  Nb  Nb4  1  0.33250649  0.66635139  0.81898926  1
  P  P0  1  0.29462960  0.00723631  0.25314017  1
  P  P1  1  0.71357666  0.71003651  0.25086549  1
  P  P2  1  0.99526103  0.28713356  0.25245885  1
  P  P3  1  0.29207102  0.29099665  0.74969683  1
  P  P4  1  0.99894764  0.70804382  0.74969702  1
  P  P5  1  0.70852859  0.00044752  0.74972256  1
  P  P6  1  0.96136365  0.33485977  0.58519841  1
  P  P7  1  0.37413230  0.03965640  0.58413767  1
  P  P8  1  0.66514149  0.62645302  0.58521854  1
  P  P9  1  0.96095136  0.62081871  0.08624904  1
  P  P10  1  0.66194817  0.04164109  0.08552915  1
  P  P11  1  0.37973690  0.33654028  0.08476771  1
  P  P12  1  0.63064218  0.67172467  0.92071549  1
  P  P13  1  0.04212356  0.37034944  0.92017855  1
  P  P14  1  0.32803232  0.95797384  0.92008343  1
  P  P15  1  0.62866973  0.95489103  0.41921280  1
  P  P16  1  0.32880512  0.37337294  0.41937450  1
  P  P17  1  0.04436382  0.66918526  0.41767693  1
  O  O0  1  0.20997362  0.02208776  0.30953058  1
  O  O1  1  0.82611415  0.79531596  0.30433808  1
  O  O2  1  0.97594984  0.18122985  0.30654063  1
  O  O3  1  0.20635118  0.17610737  0.80274996  1
  O  O4  1  0.97018399  0.79394973  0.80285179  1
  O  O5  1  0.82354942  0.02966644  0.80284452  1
  O  O6  1  0.77416756  0.95783864  0.69176703  1
  O  O7  1  0.18374039  0.22580327  0.69164844  1
  O  O8  1  0.04138964  0.81633878  0.69170651  1
  O  O9  1  0.79450592  0.82520437  0.19295735  1
  O  O10  1  0.02747749  0.20072594  0.19524333  1
  O  O11  1  0.16791234  0.96913041  0.19747683  1
  O  O12  1  0.87858992  0.36458816  0.63982917  1
  O  O13  1  0.48707142  0.12343176  0.63883979  1
  O  O14  1  0.63623959  0.51429063  0.63999041  1
  O  O15  1  0.87638067  0.52122334  0.14279122  1
  O  O16  1  0.64218156  0.12777700  0.13976065  1
  O  O17  1  0.49149481  0.36447347  0.13858479  1
  O  O18  1  0.46595456  0.30325509  0.02804568  1
  O  O19  1  0.83413988  0.53276567  0.03079888  1
  O  O20  1  0.69406928  0.15979990  0.02842941  1
  O  O21  1  0.46963538  0.15956769  0.52700093  1
  O  O22  1  0.68942963  0.52667839  0.52904985  1
  O  O23  1  0.83761913  0.31070642  0.52888691  1
  O  O24  1  0.54231569  0.68886232  0.97534999  1
  O  O25  1  0.15327589  0.46263646  0.97256578  1
  O  O26  1  0.31158928  0.84819324  0.97250507  1
  O  O27  1  0.54371003  0.85486661  0.47542435  1
  O  O28  1  0.30947055  0.45540964  0.47532758  1
  O  O29  1  0.15147758  0.69404407  0.47329947  1
  O  O30  1  0.13083746  0.63796162  0.36095994  1
  O  O31  1  0.50172034  0.86503117  0.36365718  1
  O  O32  1  0.35950858  0.49488152  0.36335341  1
  O  O33  1  0.12942548  0.49131780  0.86114515  1
  O  O34  1  0.36084123  0.87080285  0.86098583  1
  O  O35  1  0.50733294  0.63910706  0.86280075  1
  O  O36  1  0.02359640  0.82796936  0.40980679  1
  O  O37  1  0.80745609  0.98226967  0.41038747  1
  O  O38  1  0.17993832  0.18942899  0.41071211  1
  O  O39  1  0.01592775  0.19185141  0.90923845  1
  O  O40  1  0.17589816  0.98432149  0.90939521  1
  O  O41  1  0.80716371  0.82451343  0.90980608  1
  O  O42  1  0.97103408  0.16664219  0.58568185  1
  O  O43  1  0.19586133  0.02856636  0.58528197  1
  O  O44  1  0.83229576  0.80401957  0.58564714  1
  O  O45  1  0.96742775  0.80629345  0.09043708  1
  O  O46  1  0.83561485  0.02675801  0.09023858  1
  O  O47  1  0.19504972  0.16530400  0.09075604  1
  O  O48  1  0.67837926  0.15737709  0.74403489  1
  O  O49  1  0.47836677  0.32105300  0.74413608  1
  O  O50  1  0.84295693  0.52136684  0.74402802  1
  O  O51  1  0.68920812  0.52895726  0.24293355  1
  O  O52  1  0.84823150  0.32529737  0.24392215  1
  O  O53  1  0.47377570  0.15755300  0.24406335  1
  O  O54  1  0.63896761  0.49693948  0.92337236  1
  O  O55  1  0.85944253  0.36243659  0.92376293  1
  O  O56  1  0.50266077  0.14115343  0.92310139  1
  O  O57  1  0.63318292  0.13841563  0.42242536  1
  O  O58  1  0.50103675  0.35864495  0.42275249  1
  O  O59  1  0.85995293  0.49886421  0.42298096  1
  O  O60  1  0.35655628  0.49350432  0.07593261  1
  O  O61  1  0.14031727  0.64976984  0.07745926  1
  O  O62  1  0.51511778  0.85629667  0.07713872  1
  O  O63  1  0.35485721  0.85824523  0.57683582  1
  O  O64  1  0.50377872  0.64490656  0.57691279  1
  O  O65  1  0.14063952  0.49627648  0.57683887  1
  O  O66  1  0.30038899  0.82778716  0.25706336  1
  O  O67  1  0.52767477  0.69536303  0.25777148  1
  O  O68  1  0.16863135  0.47560843  0.25708853  1
  O  O69  1  0.31355920  0.48146411  0.75824189  1
  O  O70  1  0.16766061  0.68669017  0.75814441  1
  O  O71  1  0.51902899  0.83181098  0.75825024  1
loop_
_geom_bond_atom_site_label_1
_geom_bond_atom_site_label_2
_geom_bond_distance
_geom_bond_site_symmetry_2
Na0 O51 2.357538 1_555
Na0 O52 2.358063 1_555
Na0 O66 2.436542 1_655
Na0 O15 2.518248 1_555
Na0 O68 2.588193 1_655
Na0 O11 2.817920 1_655
Na0 O1 2.834913 1_555
Na0 O30 2.845431 1_655
Na1 O49 2.424729 1_555
Na1 O50 2.430976 1_555
Na1 O71 2.505137 1_555
Na1 O69 2.572302 1_555
Na1 O14 2.646015 1_555
Na1 O4 2.782047 1_555
Na1 O6 2.798544 1_555
Na1 O35 2.845773 1_555
Na2 O50 2.423028 1_555
Na2 O48 2.435511 1_555
Na2 O69 2.521505 1_655
Na2 O70 2.570276 1_655
Na2 O12 2.649447 1_555
Na2 O5 2.773705 1_555
Na2 O33 2.800111 1_655
Na2 O7 2.801260 1_655
Na3 O49 2.424505 1_555
Na3 O48 2.427599 1_555
Na3 O70 2.513274 1_545
Na3 O71 2.565884 1_545
Na3 O13 2.676983 1_555
Na3 O3 2.775902 1_555
Na3 O34 2.794165 1_545
Na3 O8 2.809451 1_545
Na4 O43 2.385656 1_555
Na4 O64 2.447608 1_555
Na4 O65 2.460160 1_555
Na4 O42 2.515288 1_455
Na4 O7 2.587050 1_555
Na4 O28 2.660967 1_555
Na4 O14 2.893072 1_555
Na4 O21 2.964232 1_555
Na5 O44 2.392607 1_455
Na5 O65 2.442024 1_555
Na5 O63 2.458353 1_555
Na5 O43 2.495240 1_565
Na5 O8 2.573776 1_555
Na5 O29 2.728622 1_555
Na5 O12 2.883432 1_455
Na5 O22 2.963697 1_455
Na6 O42 2.397910 1_565
Na6 O63 2.446603 1_555
Na6 O64 2.456640 1_555
Na6 O44 2.505849 1_555
Na6 O6 2.585805 1_555
Na6 O27 2.658822 1_555
Na6 O13 2.873110 1_565
Na6 O23 2.951589 1_565
Na7 O60 2.359735 1_555
Na7 O62 2.360301 1_555
Na7 O45 2.431360 1_555
Na7 O24 2.551699 1_554
Na7 O46 2.589519 1_565
Na7 O9 2.797128 1_555
Na7 O19 2.811419 1_555
Na7 O17 2.836787 1_555
Na8 O36 2.351287 1_545
Na8 O38 2.357812 1_555
Na8 O57 2.431657 1_555
Na8 O0 2.513768 1_555
Na8 O58 2.569804 1_555
Na8 O31 2.837407 1_545
Na8 O21 2.842814 1_555
Na8 O29 2.891217 1_545
Na9 O37 2.470145 1_555
Na9 O38 2.550902 1_665
Na9 O42 2.555409 1_565
Na9 O36 2.562538 1_655
Na9 O44 2.569191 1_555
Na9 O43 2.625817 1_665
Na10 O40 2.427624 1_545
Na10 O39 2.429823 1_555
Na10 O41 2.490730 1_445
Na10 O47 2.722372 1_556
Na10 O45 2.764466 1_446
Na10 O46 2.765505 1_456
Na11 O48 2.560237 1_555
Na11 O49 2.561222 1_555
Na11 O50 2.567635 1_555
Na11 O54 2.578576 1_555
Na11 O56 2.582094 1_555
Na11 O55 2.587892 1_555
Na12 O53 2.440105 1_555
Na12 O52 2.467637 1_555
Na12 O51 2.480048 1_555
Na12 O57 2.691075 1_555
Na12 O58 2.704767 1_555
Na12 O59 2.722984 1_555
Na13 O61 2.427534 1_555
Na13 O62 2.460692 1_555
Na13 O60 2.483293 1_555
Na13 O66 2.720724 1_555
Na13 O68 2.731385 1_555
Na13 O67 2.763938 1_555
Na14 O63 2.527761 1_555
Na14 O65 2.537043 1_555
Na14 O64 2.537468 1_555
Na14 O71 2.627561 1_555
Na14 O69 2.628119 1_555
Na14 O70 2.634118 1_555
Mg0 O2 1.976021 1_555
Mg0 O1 1.992939 1_545
Mg0 O37 2.061334 1_545
Mg0 O0 2.064129 1_655
Mg0 O36 2.111487 1_645
Mg0 O38 2.120019 1_655
Mg1 O4 2.040921 1_545
Mg1 O5 2.041679 1_555
Mg1 O3 2.052892 1_655
Mg1 O39 2.070244 1_655
Mg1 O40 2.073339 1_645
Mg1 O41 2.086922 1_545
Mg2 O8 2.055919 1_545
Mg2 O7 2.060170 1_555
Mg2 O6 2.068173 1_445
Mg2 O42 2.178249 1_455
Mg2 O44 2.189111 1_445
Mg2 O43 2.198587 1_555
Mg3 O14 2.019528 1_555
Mg3 O13 2.019607 1_555
Mg3 O12 2.028881 1_555
Mg3 O48 2.091430 1_555
Mg3 O50 2.102338 1_555
Mg3 O49 2.107829 1_555
Mg4 O16 1.974107 1_555
Mg4 O17 1.990421 1_555
Mg4 O15 2.059464 1_555
Mg4 O53 2.075877 1_555
Mg4 O51 2.118655 1_555
Mg4 O52 2.125517 1_555
Mg5 O26 1.981779 1_554
Mg5 O25 1.983138 1_554
Mg5 O24 2.066392 1_554
Mg5 O61 2.071349 1_555
Mg5 O60 2.105649 1_555
Mg5 O62 2.128411 1_555
Mg6 O28 1.997920 1_555
Mg6 O29 2.003997 1_555
Mg6 O27 2.004409 1_555
Mg6 O64 2.104339 1_555
Mg6 O63 2.107741 1_555
Mg6 O65 2.120283 1_555
Nb0 O10 1.979232 1_555
Nb0 O47 1.988482 1_555
Nb0 O46 2.012200 1_455
Nb0 O11 2.019230 1_545
Nb0 O45 2.043737 1_445
Nb0 O9 2.063964 1_445
Nb1 O20 1.987274 1_556
Nb1 O18 2.003458 1_556
Nb1 O56 2.015641 1_555
Nb1 O55 2.025183 1_555
Nb1 O19 2.029519 1_556
Nb1 O54 2.034264 1_555
Nb2 O22 1.962669 1_555
Nb2 O23 1.963027 1_555
Nb2 O59 2.001360 1_555
Nb2 O21 2.025649 1_555
Nb2 O58 2.041015 1_555
Nb2 O57 2.052757 1_555
Nb3 O67 1.978988 1_555
Nb3 O32 1.981662 1_555
Nb3 O31 2.006725 1_555
Nb3 O68 2.018582 1_555
Nb3 O66 2.043661 1_555
Nb3 O30 2.065757 1_555
Nb4 O34 1.944200 1_555
Nb4 O33 1.944443 1_555
Nb4 O35 1.950757 1_555
Nb4 O70 2.071589 1_555
Nb4 O69 2.071827 1_555
Nb4 O71 2.083980 1_555
O0 P0 1.511159 1_555
O1 P1 1.499475 1_555
O2 P2 1.488908 1_555
O3 P3 1.503615 1_555
O4 P4 1.503116 1_555
O5 P5 1.502913 1_555
O6 P5 1.546821 1_565
O7 P3 1.546506 1_555
O8 P4 1.546275 1_455
O9 P1 1.585645 1_555
O10 P2 1.591404 1_455
O11 P0 1.597501 1_565
O12 P6 1.518972 1_555
O13 P7 1.520777 1_555
O14 P8 1.518206 1_555
O15 P9 1.513787 1_555
O16 P10 1.491649 1_555
O17 P11 1.500177 1_555
O18 P11 1.587563 1_555
O19 P9 1.593855 1_555
O20 P10 1.586285 1_555
O21 P7 1.610728 1_555
O22 P8 1.613861 1_555
O23 P6 1.614178 1_555
O24 P12 1.504028 1_555
O25 P13 1.487450 1_555
O26 P14 1.484738 1_555
O27 P15 1.509604 1_555
O28 P16 1.501810 1_555
O29 P17 1.514085 1_555
O30 P17 1.581065 1_555
O31 P15 1.598537 1_555
O32 P16 1.586228 1_555
O33 P13 1.635790 1_555
O34 P14 1.631547 1_555
O35 P12 1.626480 1_555
O36 P17 1.518495 1_555
O37 P15 1.498650 1_555
O38 P16 1.516675 1_555
O39 P13 1.500702 1_555
O40 P14 1.502375 1_555
O41 P12 1.498437 1_555
O42 P6 1.536201 1_555
O43 P7 1.539927 1_555
O44 P8 1.536101 1_555
O45 P9 1.619395 1_555
O46 P10 1.618145 1_555
O47 P11 1.593951 1_555
O48 P5 1.547734 1_555
O49 P3 1.547775 1_555
O50 P4 1.547349 1_555
O51 P1 1.519852 1_555
O52 P2 1.517146 1_555
O53 P0 1.498320 1_555
O54 P12 1.589002 1_555
O55 P13 1.593960 1_655
O56 P14 1.594955 1_545
O57 P15 1.609285 1_545
O58 P16 1.603071 1_555
O59 P17 1.587770 1_655
O60 P11 1.517835 1_555
O61 P9 1.498543 1_455
O62 P10 1.517989 1_565
O63 P7 1.539146 1_565
O64 P8 1.534634 1_555
O65 P6 1.535067 1_455
O66 P0 1.619552 1_565
O67 P1 1.601301 1_555
O68 P2 1.617366 1_455
O69 P3 1.613682 1_555
O70 P4 1.614443 1_455
O71 P5 1.614534 1_565
