# generated using pymatgen
data_MgFeSbO4
_symmetry_space_group_name_H-M   'P 1'
_cell_length_a   3.17302600
_cell_length_b   5.35684170
_cell_length_c   5.17687494
_cell_angle_alpha   92.27357463
_cell_angle_beta   90.00000000
_cell_angle_gamma   90.00000000
_symmetry_Int_Tables_number   1
_chemical_formula_structural   MgFeSbO4
_chemical_formula_sum   'Mg1 Fe1 Sb1 O4'
_cell_volume   87.92413515
_cell_formula_units_Z   1
loop_
 _symmetry_equiv_pos_site_id
 _symmetry_equiv_pos_as_xyz
  1  'x, y, z'
loop_
 _atom_site_type_symbol
 _atom_site_label
 _atom_site_symmetry_multiplicity
 _atom_site_fract_x
 _atom_site_fract_y
 _atom_site_fract_z
 _atom_site_occupancy
  Mg  Mg0  1  0.54034500  0.50000000  0.00000000  1
  Fe  Fe0  1  0.53726600  0.50000000  0.50000000  1
  Sb  Sb0  1  0.03932000  0.00000000  0.00000000  1
  O  O0  1  0.03842000  0.35542200  0.23697400  1
  O  O1  1  0.03842000  0.64457800  0.76302600  1
  O  O2  1  0.53853100  0.82660500  0.20915000  1
  O  O3  1  0.53853100  0.17339500  0.79085000  1
loop_
_geom_bond_atom_site_label_1
_geom_bond_atom_site_label_2
_geom_bond_distance
_geom_bond_site_symmetry_2
Mg0 O3 2.020660 1_554
Mg0 O2 2.020660 1_555
Mg0 O0 2.162842 1_655
Mg0 O1 2.162842 1_654
Mg0 O0 2.171785 1_555
Mg0 O1 2.171785 1_554
Fe0 O1 2.208091 1_555
Fe0 O0 2.208091 1_555
Fe0 O0 2.213347 1_655
Fe0 O1 2.213347 1_655
Fe0 O2 2.353113 1_555
Fe0 O3 2.353113 1_555
O0 Sb0 2.223662 1_555
O1 Sb0 2.223662 1_566
O2 Sb0 2.150343 1_565
O2 Sb0 2.154034 1_665
O3 Sb0 2.150343 1_556
O3 Sb0 2.154034 1_656
