# generated using pymatgen
data_Ba3In2F12
_symmetry_space_group_name_H-M   'P 1'
_cell_length_a   9.57756546
_cell_length_b   9.57756546
_cell_length_c   5.65454054
_cell_angle_alpha   90.00000000
_cell_angle_beta   90.00000000
_cell_angle_gamma   90.00000000
_symmetry_Int_Tables_number   1
_chemical_formula_structural   Ba3In2F12
_chemical_formula_sum   'Ba6 In4 F24'
_cell_volume   518.68964744
_cell_formula_units_Z   2
loop_
 _symmetry_equiv_pos_site_id
 _symmetry_equiv_pos_as_xyz
  1  'x, y, z'
loop_
 _atom_site_type_symbol
 _atom_site_label
 _atom_site_symmetry_multiplicity
 _atom_site_fract_x
 _atom_site_fract_y
 _atom_site_fract_z
 _atom_site_occupancy
  Ba  Ba0  1  0.50000000  0.50000000  0.00000000  1
  Ba  Ba1  1  0.00000000  -0.00000000  0.00000000  1
  Ba  Ba2  1  0.31996480  0.81996480  0.50000000  1
  Ba  Ba3  1  0.81996480  0.68003520  0.50000000  1
  Ba  Ba4  1  0.18003520  0.31996480  0.50000000  1
  Ba  Ba5  1  0.68003520  0.18003520  0.50000000  1
  In  In0  1  0.13265245  0.63265245  0.00000000  1
  In  In1  1  0.63265245  0.86734755  0.00000000  1
  In  In2  1  0.36734755  0.13265245  0.00000000  1
  In  In3  1  0.86734755  0.36734755  0.00000000  1
  F  F0  1  0.29313474  0.79313474  0.00000000  1
  F  F1  1  0.79313474  0.70686526  0.00000000  1
  F  F2  1  0.20686526  0.29313474  0.00000000  1
  F  F3  1  0.70686526  0.20686526  0.00000000  1
  F  F4  1  0.55582332  0.72676773  0.25831859  1
  F  F5  1  0.44417668  0.27323227  0.25831859  1
  F  F6  1  0.27323227  0.55582332  0.25831859  1
  F  F7  1  0.72676773  0.44417668  0.25831859  1
  F  F8  1  0.22676773  0.05582332  0.74168141  1
  F  F9  1  0.05582332  0.77323227  0.74168141  1
  F  F10  1  0.50000000  -0.00000000  0.77792708  1
  F  F11  1  0.00000000  0.50000000  0.77792708  1
  F  F12  1  0.00000000  0.50000000  0.22207292  1
  F  F13  1  0.50000000  -0.00000000  0.22207292  1
  F  F14  1  0.22676773  0.05582332  0.25831859  1
  F  F15  1  0.05582332  0.77323227  0.25831859  1
  F  F16  1  0.94417668  0.22676773  0.25831859  1
  F  F17  1  0.77323227  0.94417668  0.25831859  1
  F  F18  1  0.27323227  0.55582332  0.74168141  1
  F  F19  1  0.72676773  0.44417668  0.74168141  1
  F  F20  1  0.55582332  0.72676773  0.74168141  1
  F  F21  1  0.44417668  0.27323227  0.74168141  1
  F  F22  1  0.77323227  0.94417668  0.74168141  1
  F  F23  1  0.94417668  0.22676773  0.74168141  1
loop_
_geom_bond_atom_site_label_1
_geom_bond_atom_site_label_2
_geom_bond_distance
_geom_bond_site_symmetry_2
Ba0 F21 2.671421 1_554
Ba0 F18 2.671421 1_554
Ba0 F5 2.671421 1_555
Ba0 F6 2.671421 1_555
Ba0 F4 2.671421 1_555
Ba0 F7 2.671421 1_555
Ba0 F19 2.671421 1_554
Ba0 F20 2.671421 1_554
Ba1 F15 2.671421 1_545
Ba1 F9 2.671421 1_544
Ba1 F22 2.671421 1_444
Ba1 F17 2.671421 1_445
Ba1 F14 2.671421 1_555
Ba1 F16 2.671421 1_455
Ba1 F23 2.671421 1_454
Ba1 F8 2.671421 1_554
Ba2 F4 2.786966 1_555
Ba2 F20 2.786966 1_555
Ba2 F14 2.786966 1_565
Ba2 F8 2.786966 1_565
Ba2 F0 2.850530 1_555
Ba2 F0 2.850530 1_556
Ba2 F13 2.901066 1_565
Ba2 F10 2.901066 1_565
Ba2 F18 2.909978 1_555
Ba2 F6 2.909978 1_555
Ba2 F15 2.909978 1_555
Ba2 F9 2.909978 1_555
Ba3 F19 2.786966 1_555
Ba3 F7 2.786966 1_555
Ba3 F9 2.786966 1_655
Ba3 F15 2.786966 1_655
Ba3 F1 2.850530 1_555
Ba3 F1 2.850530 1_556
Ba3 F11 2.901066 1_655
Ba3 F12 2.901066 1_655
Ba3 F20 2.909978 1_555
Ba3 F4 2.909978 1_555
Ba3 F22 2.909978 1_555
Ba3 F17 2.909978 1_555
Ba4 F16 2.786966 1_455
Ba4 F23 2.786966 1_455
Ba4 F18 2.786966 1_555
Ba4 F6 2.786966 1_555
Ba4 F2 2.850530 1_556
Ba4 F2 2.850530 1_555
Ba4 F11 2.901066 1_555
Ba4 F12 2.901066 1_555
Ba4 F14 2.909978 1_555
Ba4 F8 2.909978 1_555
Ba4 F5 2.909978 1_555
Ba4 F21 2.909978 1_555
Ba5 F22 2.786966 1_545
Ba5 F17 2.786966 1_545
Ba5 F5 2.786966 1_555
Ba5 F21 2.786966 1_555
Ba5 F3 2.850530 1_556
Ba5 F3 2.850530 1_555
Ba5 F13 2.901066 1_555
Ba5 F10 2.901066 1_555
Ba5 F16 2.909978 1_555
Ba5 F23 2.909978 1_555
Ba5 F19 2.909978 1_555
Ba5 F7 2.909978 1_555
F0 In0 2.173688 1_555
F1 In1 2.173688 1_555
F2 In2 2.173688 1_555
F3 In3 2.173688 1_555
F4 In1 2.118454 1_555
F5 In2 2.118454 1_555
F6 In0 2.118454 1_555
F7 In3 2.118454 1_555
F8 In2 2.118454 1_556
F9 In0 2.118454 1_556
F10 In2 2.192056 1_556
F10 In1 2.192056 1_546
F11 In3 2.192056 1_456
F11 In0 2.192056 1_556
F12 In0 2.192056 1_555
F12 In3 2.192056 1_455
F13 In2 2.192056 1_555
F13 In1 2.192056 1_545
F14 In2 2.118454 1_555
F15 In0 2.118454 1_555
F16 In3 2.118454 1_555
F17 In1 2.118454 1_555
F18 In0 2.118454 1_556
F19 In3 2.118454 1_556
F20 In1 2.118454 1_556
F21 In2 2.118454 1_556
F22 In1 2.118454 1_556
F23 In3 2.118454 1_556
