# generated using pymatgen
data_HoZn2
_symmetry_space_group_name_H-M   'P 1'
_cell_length_a   4.43070765
_cell_length_b   5.57935797
_cell_length_c   5.57935962
_cell_angle_alpha   77.50975120
_cell_angle_beta   66.60532813
_cell_angle_gamma   66.60534990
_symmetry_Int_Tables_number   1
_chemical_formula_structural   HoZn2
_chemical_formula_sum   'Ho2 Zn4'
_cell_volume   115.89797367
_cell_formula_units_Z   2
loop_
 _symmetry_equiv_pos_site_id
 _symmetry_equiv_pos_as_xyz
  1  'x, y, z'
loop_
 _atom_site_type_symbol
 _atom_site_label
 _atom_site_symmetry_multiplicity
 _atom_site_fract_x
 _atom_site_fract_y
 _atom_site_fract_z
 _atom_site_occupancy
  Ho  Ho0  1  0.52863853  0.72136147  0.22136147  1
  Ho  Ho1  1  0.47136147  0.27863853  0.77863853  1
  Zn  Zn0  1  0.83395244  0.70924863  0.62284549  1
  Zn  Zn1  1  0.16604756  0.29075137  0.37715451  1
  Zn  Zn2  1  0.83395244  0.12284549  0.20924863  1
  Zn  Zn3  1  0.16604756  0.87715451  0.79075137  1
loop_
_geom_bond_atom_site_label_1
_geom_bond_atom_site_label_2
_geom_bond_distance
_geom_bond_site_symmetry_2
Ho0 Zn2 3.020017 1_565
Ho0 Zn0 3.020018 1_555
Ho0 Zn0 3.020020 1_455
Ho0 Zn2 3.020021 1_465
Ho0 Zn2 3.069754 1_555
Ho0 Zn0 3.069754 1_554
Ho0 Zn1 3.075918 1_565
Ho0 Zn3 3.075918 1_555
Ho0 Zn1 3.187712 1_555
Ho0 Zn3 3.187714 1_554
Ho0 Zn3 3.187716 1_654
Ho0 Zn1 3.187717 1_655
Ho1 Zn3 3.020017 1_545
Ho1 Zn1 3.020018 1_555
Ho1 Zn1 3.020020 1_655
Ho1 Zn3 3.020021 1_645
Ho1 Zn3 3.069754 1_555
Ho1 Zn1 3.069754 1_556
Ho1 Zn0 3.075918 1_545
Ho1 Zn2 3.075918 1_555
Ho1 Zn0 3.187712 1_555
Ho1 Zn2 3.187714 1_556
Ho1 Zn2 3.187716 1_456
Ho1 Zn0 3.187717 1_455
Zn0 Zn3 2.547380 1_555
Zn0 Zn3 2.547388 1_655
Zn0 Zn1 2.559390 1_655
Zn0 Zn2 2.889075 1_565
Zn1 Zn2 2.547380 1_555
Zn1 Zn2 2.547388 1_455
Zn1 Zn3 2.889075 1_545
Zn2 Zn3 2.559391 1_644
