# generated using pymatgen
data_V5CoO12
_symmetry_space_group_name_H-M   'P 1'
_cell_length_a   6.85228027
_cell_length_b   6.78143061
_cell_length_c   5.84104221
_cell_angle_alpha   74.18627321
_cell_angle_beta   104.20517058
_cell_angle_gamma   95.99366696
_symmetry_Int_Tables_number   1
_chemical_formula_structural   V5CoO12
_chemical_formula_sum   'V5 Co1 O12'
_cell_volume   252.96013051
_cell_formula_units_Z   1
loop_
 _symmetry_equiv_pos_site_id
 _symmetry_equiv_pos_as_xyz
  1  'x, y, z'
loop_
 _atom_site_type_symbol
 _atom_site_label
 _atom_site_symmetry_multiplicity
 _atom_site_fract_x
 _atom_site_fract_y
 _atom_site_fract_z
 _atom_site_occupancy
  V  V0  1  0.20522100  0.60977000  0.74977600  1
  V  V1  1  0.39635500  0.79757600  0.24629700  1
  V  V2  1  0.61264600  0.20675200  0.74761400  1
  V  V3  1  0.79330600  0.39086900  0.23933800  1
  V  V4  1  0.92112100  0.92048800  0.25731400  1
  Co  Co0  1  0.08808300  0.08290600  0.76448800  1
  O  O0  1  0.04331500  0.81831200  0.62799000  1
  O  O1  1  0.07768000  0.37958900  0.76204400  1
  O  O2  1  0.17618300  0.95712900  0.14005700  1
  O  O3  1  0.37017200  0.63763800  0.55516300  1
  O  O4  1  0.38712500  0.08551600  0.75028000  1
  O  O5  1  0.33917000  0.62101000  0.04610200  1
  O  O6  1  0.65321200  0.37966100  0.94223900  1
  O  O7  1  0.64013900  0.90745000  0.29077700  1
  O  O8  1  0.62475100  0.34208700  0.44023300  1
  O  O9  1  0.80383600  0.03620000  0.86990400  1
  O  O10  1  0.90178700  0.62785000  0.22363100  1
  O  O11  1  0.96589700  0.19919900  0.34675200  1
loop_
_geom_bond_atom_site_label_1
_geom_bond_atom_site_label_2
_geom_bond_distance
_geom_bond_site_symmetry_2
Co0 O1 2.016672 1_555
Co0 O4 2.069101 1_555
Co0 O2 2.083773 1_546
Co0 O0 2.119929 1_545
Co0 O9 2.150959 1_455
Co0 O11 2.315833 1_455
O0 V0 1.768865 1_555
O0 V4 2.069484 1_455
O1 V0 1.700112 1_555
O2 V1 1.829588 1_555
O2 V4 1.997382 1_455
O3 V0 1.753383 1_555
O3 V1 1.874858 1_555
O4 V2 1.674437 1_555
O5 V0 1.766836 1_554
O5 V1 1.842513 1_555
O6 V3 1.782654 1_556
O6 V2 1.802189 1_555
O7 V1 1.745204 1_555
O7 V4 1.973015 1_555
O8 V3 1.787229 1_555
O8 V2 1.797733 1_555
O9 V2 1.723698 1_555
O9 V4 2.157224 1_546
O10 V3 1.687390 1_555
O10 V4 2.034605 1_555
O11 V3 1.730360 1_555
O11 V4 2.068272 1_545
