# generated using pymatgen
data_MoP2
_symmetry_space_group_name_H-M   'P 1'
_cell_length_a   2.98305400
_cell_length_b   2.98305439
_cell_length_c   15.33477500
_cell_angle_alpha   90.00000000
_cell_angle_beta   90.00000000
_cell_angle_gamma   119.99999563
_symmetry_Int_Tables_number   1
_chemical_formula_structural   MoP2
_chemical_formula_sum   'Mo1 P2'
_cell_volume   118.17628862
_cell_formula_units_Z   1
loop_
 _symmetry_equiv_pos_site_id
 _symmetry_equiv_pos_as_xyz
  1  'x, y, z'
loop_
 _atom_site_type_symbol
 _atom_site_label
 _atom_site_symmetry_multiplicity
 _atom_site_fract_x
 _atom_site_fract_y
 _atom_site_fract_z
 _atom_site_occupancy
  Mo  Mo0  1  0.00000000  0.00000000  0.25000000  1
  P  P0  1  0.33333300  0.66666700  0.36845400  1
  P  P1  1  0.33333300  0.66666700  0.13154600  1
loop_
_geom_bond_atom_site_label_1
_geom_bond_atom_site_label_2
_geom_bond_distance
_geom_bond_site_symmetry_2
Mo0 P1 2.503147 1_545
Mo0 P0 2.503147 1_545
Mo0 P1 2.503149 1_445
Mo0 P0 2.503149 1_445
Mo0 P1 2.503149 1_555
Mo0 P0 2.503149 1_555
