# generated using pymatgen
data_Na4LaAlSi(PO6)2
_symmetry_space_group_name_H-M   'P 1'
_cell_length_a   9.24165789
_cell_length_b   9.23878955
_cell_length_c   22.34639916
_cell_angle_alpha   89.90468964
_cell_angle_beta   89.66523299
_cell_angle_gamma   120.11033952
_symmetry_Int_Tables_number   1
_chemical_formula_structural   Na4LaAlSi(PO6)2
_chemical_formula_sum   'Na24 La6 Al6 Si6 P12 O72'
_cell_volume   1650.46249618
_cell_formula_units_Z   6
loop_
 _symmetry_equiv_pos_site_id
 _symmetry_equiv_pos_as_xyz
  1  'x, y, z'
loop_
 _atom_site_type_symbol
 _atom_site_label
 _atom_site_symmetry_multiplicity
 _atom_site_fract_x
 _atom_site_fract_y
 _atom_site_fract_z
 _atom_site_occupancy
  Na  Na0  1  0.62570321  0.99607612  0.26394505  1
  Na  Na1  1  0.36485665  0.37160252  0.25540626  1
  Na  Na2  1  0.00238444  0.62151051  0.25517374  1
  Na  Na3  1  0.63993118  0.63601443  0.73118138  1
  Na  Na4  1  0.98690950  0.35945829  0.73902312  1
  Na  Na5  1  0.38558034  0.01703811  0.73415481  1
  Na  Na6  1  0.29158207  0.32888343  0.58002620  1
  Na  Na7  1  0.04672145  0.71989838  0.58173305  1
  Na  Na8  1  0.66662908  0.95997862  0.58980732  1
  Na  Na9  1  0.29801861  0.98315796  0.09001433  1
  Na  Na10  1  0.68991953  0.69476182  0.09026154  1
  Na  Na11  1  0.01738403  0.32827915  0.10178744  1
  Na  Na12  1  0.97998423  0.68022346  0.92275013  1
  Na  Na13  1  0.68959552  0.03125485  0.90762549  1
  Na  Na14  1  0.33288291  0.30663104  0.91558219  1
  Na  Na15  1  0.96701686  0.30173384  0.40636187  1
  Na  Na16  1  0.33286420  0.03095178  0.41796170  1
  Na  Na17  1  0.69356582  0.66496916  0.41267536  1
  Na  Na18  1  0.00280673  0.99228987  0.49826835  1
  Na  Na19  1  0.00384832  0.99674988  0.00135409  1
  Na  Na20  1  0.66503373  0.32556864  0.83111574  1
  Na  Na21  1  0.67242309  0.33329559  0.34383843  1
  Na  Na22  1  0.33056729  0.66786333  0.17272276  1
  Na  Na23  1  0.33434890  0.67281962  0.65944727  1
  La  La0  1  0.00131367  0.00126473  0.83457100  1
  La  La1  1  0.66902358  0.32941768  0.19259259  1
  La  La2  1  0.67009551  0.33583530  0.99448801  1
  La  La3  1  0.33127010  0.67252917  0.01527371  1
  La  La4  1  0.32802336  0.67321922  0.50849960  1
  La  La5  1  0.34065951  0.67743867  0.80981666  1
  Al  Al0  1  0.99414296  0.99208984  0.35176512  1
  Al  Al1  1  0.01147579  0.00146757  0.64728342  1
  Al  Al2  1  0.00110044  0.00301028  0.15676688  1
  Al  Al3  1  0.66592747  0.32754695  0.67780388  1
  Al  Al4  1  0.67619410  0.34473788  0.48701394  1
  Al  Al5  1  0.30698336  0.64633145  0.32019197  1
  Si  Si0  1  0.01663936  0.28656661  0.25823216  1
  Si  Si1  1  0.70979013  0.01625693  0.73819171  1
  Si  Si2  1  0.37958367  0.06142597  0.58176180  1
  Si  Si3  1  0.98742571  0.66665153  0.09035399  1
  Si  Si4  1  0.33464189  0.99207265  0.91596215  1
  Si  Si5  1  0.01837351  0.66741527  0.41678955  1
  P  P0  1  0.26794790  0.97771830  0.25819379  1
  P  P1  1  0.70603600  0.72805527  0.25597878  1
  P  P2  1  0.31500518  0.30078093  0.73852612  1
  P  P3  1  0.98516404  0.68615616  0.73735407  1
  P  P4  1  0.94152577  0.32092787  0.58166179  1
  P  P5  1  0.67921962  0.62109993  0.58282129  1
  P  P6  1  0.68199048  0.01393586  0.08920059  1
  P  P7  1  0.33590640  0.32073400  0.09018308  1
  P  P8  1  0.65137375  0.66416526  0.91627577  1
  P  P9  1  0.01630286  0.34898153  0.91466061  1
  P  P10  1  0.64015881  0.96786214  0.41286015  1
  P  P11  1  0.32750134  0.35596336  0.41385886  1
  O  O0  1  0.16953718  0.98218800  0.31300082  1
  O  O1  1  0.80952467  0.81978041  0.31119039  1
  O  O2  1  0.01077298  0.17456019  0.31459941  1
  O  O3  1  0.26030133  0.22915105  0.80245560  1
  O  O4  1  0.96610683  0.74284943  0.80037695  1
  O  O5  1  0.78248866  0.03564192  0.80625035  1
  O  O6  1  0.83970286  0.00027378  0.69048263  1
  O  O7  1  0.18666691  0.17731623  0.69228275  1
  O  O8  1  0.00645296  0.81889262  0.68931293  1
  O  O9  1  0.79734049  0.82801752  0.19868681  1
  O  O10  1  0.03120937  0.19678154  0.19673842  1
  O  O11  1  0.17470844  0.97139399  0.20001144  1
  O  O12  1  0.85082633  0.33770173  0.63659102  1
  O  O13  1  0.49329876  0.15781542  0.63898839  1
  O  O14  1  0.66799237  0.51311656  0.63684996  1
  O  O15  1  0.88656478  0.52054428  0.14125123  1
  O  O16  1  0.63465666  0.10119738  0.13874465  1
  O  O17  1  0.46339841  0.35194439  0.14050414  1
  O  O18  1  0.40991043  0.30631875  0.02937863  1
  O  O19  1  0.89014498  0.59574163  0.02602300  1
  O  O20  1  0.69739038  0.10270558  0.02848249  1
  O  O21  1  0.47568879  0.17548729  0.52076467  1
  O  O22  1  0.69447851  0.53677006  0.52413848  1
  O  O23  1  0.83988254  0.30931133  0.52418048  1
  O  O24  1  0.56054075  0.65756535  0.97523809  1
  O  O25  1  0.10967103  0.43773856  0.97237926  1
  O  O26  1  0.32297481  0.89296885  0.97803874  1
  O  O27  1  0.58860342  0.87292174  0.47365417  1
  O  O28  1  0.28812489  0.41381424  0.47379221  1
  O  O29  1  0.12868283  0.72852473  0.47837373  1
  O  O30  1  0.12970890  0.63039574  0.36560472  1
  O  O31  1  0.50695919  0.85778919  0.36427857  1
  O  O32  1  0.34613532  0.48470248  0.36346520  1
  O  O33  1  0.11759871  0.44655386  0.85815093  1
  O  O34  1  0.34663414  0.89173002  0.85692962  1
  O  O35  1  0.54463599  0.65658694  0.86148910  1
  O  O36  1  0.98362293  0.82338031  0.40366303  1
  O  O37  1  0.82008886  0.99821321  0.40262212  1
  O  O38  1  0.18029250  0.17303591  0.40579457  1
  O  O39  1  0.99261605  0.17202750  0.91636814  1
  O  O40  1  0.16608513  0.00602316  0.91451540  1
  O  O41  1  0.82105233  0.82797639  0.91589157  1
  O  O42  1  0.96306742  0.16292596  0.58391077  1
  O  O43  1  0.18253341  0.03249824  0.58839162  1
  O  O44  1  0.83650849  0.80222072  0.58616374  1
  O  O45  1  0.98279564  0.83818152  0.10298189  1
  O  O46  1  0.85299249  0.02793699  0.10022837  1
  O  O47  1  0.17229712  0.15266825  0.09900827  1
  O  O48  1  0.68614037  0.18110257  0.73185584  1
  O  O49  1  0.49479174  0.32896177  0.73167309  1
  O  O50  1  0.82754667  0.51171759  0.72934569  1
  O  O51  1  0.68464919  0.54829688  0.25688000  1
  O  O52  1  0.84733543  0.30598021  0.26184588  1
  O  O53  1  0.44617830  0.13722665  0.26050933  1
  O  O54  1  0.67625059  0.51154502  0.91182685  1
  O  O55  1  0.84597517  0.34201572  0.91230651  1
  O  O56  1  0.50392495  0.17514494  0.91510096  1
  O  O57  1  0.64530189  0.13871926  0.41622795  1
  O  O58  1  0.49716760  0.35831937  0.41572422  1
  O  O59  1  0.83699613  0.48712835  0.42622448  1
  O  O60  1  0.30287291  0.46872433  0.09184865  1
  O  O61  1  0.17832218  0.69998124  0.09288923  1
  O  O62  1  0.54228116  0.82851361  0.08975528  1
  O  O63  1  0.35967159  0.87267066  0.58183345  1
  O  O64  1  0.51844297  0.63625860  0.58269564  1
  O  O65  1  0.12030292  0.47927357  0.58120681  1
  O  O66  1  0.29215634  0.82002556  0.26114713  1
  O  O67  1  0.52579314  0.70563511  0.25872714  1
  O  O68  1  0.18271927  0.48339179  0.26171495  1
  O  O69  1  0.31973378  0.47049532  0.73130311  1
  O  O70  1  0.14365972  0.66845601  0.73288919  1
  O  O71  1  0.52716405  0.84386619  0.73109849  1
loop_
_geom_bond_atom_site_label_1
_geom_bond_atom_site_label_2
_geom_bond_distance
_geom_bond_site_symmetry_2
Na0 O67 2.362795 1_555
Na0 O31 2.533482 1_555
Na0 O52 2.551381 1_565
Na0 O53 2.575083 1_565
Na0 O66 2.668993 1_555
Na0 O16 2.947075 1_565
Na1 O68 2.379463 1_555
Na1 O51 2.561467 1_555
Na1 O53 2.626696 1_555
Na1 O32 2.671625 1_555
Na1 O67 2.671736 1_555
Na1 O17 2.755963 1_555
Na2 O66 2.372797 1_555
Na2 O52 2.525550 1_455
Na2 O68 2.561869 1_555
Na2 O51 2.662182 1_455
Na2 O30 2.723737 1_555
Na2 O15 2.744934 1_455
Na3 O49 2.455332 1_555
Na3 O14 2.469207 1_555
Na3 O50 2.514716 1_555
Na3 O69 2.560220 1_555
Na3 O71 2.604145 1_555
Na4 O48 2.424392 1_555
Na4 O70 2.472669 1_655
Na4 O50 2.505190 1_555
Na4 O12 2.577412 1_555
Na4 O69 2.714831 1_655
Na4 O33 2.874453 1_655
Na5 O48 2.406114 1_555
Na5 O13 2.423249 1_555
Na5 O71 2.525103 1_545
Na5 O49 2.531213 1_555
Na5 O70 2.854418 1_545
Na5 O34 2.925205 1_545
Na6 O43 2.403304 1_555
Na6 O28 2.504431 1_555
Na6 O64 2.547916 1_555
Na6 O65 2.577414 1_555
Na6 O42 2.627126 1_455
Na6 O7 2.791292 1_555
Na7 O29 2.415207 1_555
Na7 O44 2.417204 1_455
Na7 O63 2.502240 1_555
Na7 O43 2.510966 1_565
Na7 O65 2.630858 1_555
Na7 O8 2.663202 1_555
Na8 O42 2.424748 1_565
Na8 O63 2.537782 1_555
Na8 O64 2.596181 1_555
Na8 O44 2.624967 1_555
Na8 O6 2.684332 1_565
Na8 O27 2.711262 1_555
Na9 O61 2.273164 1_555
Na9 O47 2.380522 1_565
Na9 O45 2.537423 1_455
Na9 O11 2.682265 1_555
Na9 O26 2.683607 1_554
Na9 O18 2.948175 1_565
Na9 O16 2.948464 1_565
Na10 O62 2.254002 1_555
Na10 O45 2.361016 1_555
Na10 O46 2.673491 1_565
Na10 O9 2.680203 1_555
Na10 O24 2.789457 1_554
Na10 O19 2.827258 1_555
Na10 O17 2.997085 1_555
Na11 O60 2.291594 1_555
Na11 O46 2.404187 1_455
Na11 O10 2.478846 1_555
Na11 O47 2.648693 1_555
Na11 O15 2.746273 1_455
Na12 O19 2.438400 1_556
Na12 O54 2.446979 1_555
Na12 O41 2.461268 1_555
Na12 O40 2.617688 1_665
Na12 O55 2.733995 1_555
Na12 O4 2.811145 1_555
Na13 O5 2.410933 1_555
Na13 O39 2.434117 1_555
Na13 O55 2.486400 1_555
Na13 O56 2.650570 1_555
Na13 O41 2.706988 1_545
Na13 O20 2.774044 1_556
Na13 O34 2.989731 1_545
Na14 O40 2.407315 1_555
Na14 O56 2.429175 1_555
Na14 O3 2.626226 1_555
Na14 O18 2.645088 1_556
Na14 O39 2.740647 1_455
Na14 O54 2.762180 1_555
Na15 O37 2.428137 1_545
Na15 O2 2.494757 1_655
Na15 O59 2.576028 1_555
Na15 O57 2.579756 1_555
Na15 O38 2.765859 1_655
Na15 O30 2.775657 1_655
Na15 O23 2.892077 1_555
Na15 O28 3.020521 1_655
Na16 O38 2.376043 1_555
Na16 O57 2.538553 1_555
Na16 O58 2.616572 1_555
Na16 O21 2.660833 1_555
Na16 O0 2.710213 1_545
Na16 O29 2.803160 1_545
Na16 O36 2.828572 1_445
Na16 O31 3.025481 1_545
Na17 O36 2.329082 1_555
Na17 O58 2.482730 1_555
Na17 O59 2.595470 1_555
Na17 O1 2.600015 1_555
Na17 O37 2.697999 1_555
Na17 O22 2.758155 1_555
Na17 O27 2.889988 1_555
Na17 O32 2.995746 1_555
Na18 O43 2.524926 1_565
Na18 O44 2.559082 1_455
Na18 O36 2.583368 1_455
Na18 O42 2.620208 1_465
Na18 O38 2.636272 1_565
Na18 O37 2.749033 1_455
Na19 O40 2.420244 1_564
Na19 O41 2.517365 1_454
Na19 O39 2.529922 1_464
Na19 O45 2.653172 1_455
Na19 O47 2.657210 1_565
Na19 O46 2.697717 1_465
Na20 O56 2.356492 1_555
Na20 O55 2.427454 1_555
Na20 O54 2.459617 1_555
Na20 O48 2.646777 1_555
Na20 O49 2.739439 1_555
Na20 O50 2.782236 1_555
Na21 O57 2.333379 1_555
Na21 O59 2.365405 1_555
Na21 O58 2.367220 1_555
Na21 O52 2.531801 1_555
Na21 O53 2.716084 1_555
Na21 O51 2.737485 1_555
Na22 O61 2.386793 1_555
Na22 O60 2.502106 1_555
Na22 O68 2.519293 1_555
Na22 O67 2.545909 1_555
Na22 O62 2.550159 1_555
Na22 O66 2.551167 1_555
Na23 O71 2.335087 1_555
Na23 O70 2.386501 1_555
Na23 O69 2.413456 1_555
Na23 O63 2.454193 1_555
Na23 O64 2.548470 1_555
Na23 O65 2.582475 1_555
La0 O5 2.291251 1_455
La0 O40 2.340319 1_555
La0 O3 2.365447 1_555
La0 O4 2.370487 1_445
La0 O41 2.433033 1_445
La0 O39 2.443694 1_455
La1 O15 2.209210 1_555
La1 O16 2.309873 1_555
La1 O17 2.330503 1_555
La1 O52 2.354591 1_555
La1 O51 2.427541 1_555
La1 O53 2.446035 1_555
La2 O56 2.337221 1_555
La2 O19 2.349679 1_556
La2 O18 2.404906 1_556
La2 O20 2.412805 1_556
La2 O55 2.426826 1_555
La2 O54 2.438586 1_555
La3 O26 2.235552 1_554
La3 O25 2.321830 1_554
La3 O61 2.324442 1_555
La3 O24 2.362448 1_554
La3 O62 2.424068 1_555
La3 O60 2.455724 1_555
La4 O29 2.250757 1_555
La4 O27 2.307625 1_555
La4 O28 2.367281 1_555
La4 O63 2.375172 1_555
La4 O65 2.457289 1_555
La4 O64 2.568583 1_555
La5 O34 2.220126 1_555
La5 O35 2.304998 1_555
La5 O33 2.349611 1_555
La5 O71 2.392878 1_555
La5 O70 2.482354 1_555
La5 O69 2.532822 1_555
Al0 O2 1.813621 1_665
Al0 O0 1.875848 1_655
Al0 O1 1.888147 1_555
Al0 O36 1.903815 1_555
Al0 O37 1.988052 1_555
Al0 O38 2.087440 1_665
Al1 O6 1.848393 1_455
Al1 O8 1.909221 1_545
Al1 O7 1.912398 1_555
Al1 O43 1.957783 1_555
Al1 O44 2.217276 1_445
Al1 O42 2.258467 1_455
Al2 O45 1.882061 1_445
Al2 O10 1.894348 1_555
Al2 O47 1.963711 1_555
Al2 O46 1.964259 1_455
Al2 O9 1.989241 1_445
Al2 O11 2.020085 1_545
Al3 O13 1.807537 1_555
Al3 O48 1.890804 1_555
Al3 O12 1.896667 1_555
Al3 O14 1.933638 1_555
Al3 O50 1.982266 1_555
Al3 O49 1.987259 1_555
Al4 O21 1.876196 1_555
Al4 O22 1.889477 1_555
Al4 O23 1.896283 1_555
Al4 O59 1.947644 1_555
Al4 O58 2.351471 1_555
Al4 O57 2.382542 1_555
Al5 O30 1.863772 1_555
Al5 O68 1.892645 1_555
Al5 O32 1.958881 1_555
Al5 O66 2.133196 1_555
Al5 O31 2.146587 1_555
Al5 O67 2.264797 1_555
O0 P0 1.534170 1_555
O1 P1 1.535950 1_555
O2 Si0 1.612123 1_555
O3 P2 1.545039 1_555
O4 P3 1.543009 1_555
O5 Si1 1.639700 1_555
O6 Si1 1.662329 1_555
O7 P2 1.560945 1_555
O8 P3 1.564019 1_455
O9 P1 1.550990 1_555
O10 Si0 1.645671 1_555
O11 P0 1.548929 1_555
O12 P4 1.533702 1_555
O13 Si2 1.616575 1_555
O14 P5 1.534405 1_555
O15 Si3 1.644582 1_555
O16 P6 1.555052 1_555
O17 P7 1.552921 1_555
O18 P7 1.553333 1_555
O19 Si3 1.652677 1_555
O20 P6 1.552669 1_555
O21 Si2 1.673104 1_555
O22 P5 1.567801 1_555
O23 P4 1.567562 1_555
O24 P8 1.542692 1_555
O25 P9 1.545045 1_555
O26 Si4 1.633773 1_555
O27 P10 1.552783 1_555
O28 P11 1.550364 1_555
O29 Si5 1.641158 1_555
O30 Si5 1.680643 1_555
O31 P10 1.578401 1_555
O32 P11 1.581209 1_555
O33 P9 1.555412 1_555
O34 Si4 1.648434 1_555
O35 P8 1.556255 1_555
O36 Si5 1.652105 1_655
O37 P10 1.556778 1_555
O38 P11 1.560933 1_555
O39 P9 1.537110 1_655
O40 Si4 1.626726 1_545
O41 P8 1.538882 1_555
O42 P4 1.569862 1_555
O43 Si2 1.708237 1_555
O44 P5 1.574742 1_555
O45 Si3 1.631628 1_555
O46 P6 1.540939 1_555
O47 P7 1.541418 1_555
O48 Si1 1.649511 1_555
O49 P2 1.553952 1_555
O50 P3 1.549112 1_555
O51 P1 1.571007 1_555
O52 Si0 1.663417 1_655
O53 P0 1.566291 1_545
O54 P8 1.541546 1_555
O55 P9 1.544044 1_655
O56 Si4 1.628884 1_545
O57 P10 1.557172 1_545
O58 P11 1.557996 1_555
O59 Si5 1.679863 1_655
O60 P7 1.543628 1_555
O61 Si3 1.632973 1_455
O62 P6 1.543496 1_565
O63 Si2 1.659205 1_565
O64 P5 1.560827 1_555
O65 P4 1.563541 1_455
O66 P0 1.582347 1_555
O67 P1 1.572881 1_555
O68 Si0 1.694123 1_555
O69 P2 1.554598 1_555
O70 P3 1.555925 1_455
O71 Si1 1.648408 1_565
