# generated using pymatgen
data_CuAsSe2
_symmetry_space_group_name_H-M   'P 1'
_cell_length_a   6.38230705
_cell_length_b   6.38230705
_cell_length_c   6.38230671
_cell_angle_alpha   40.24354432
_cell_angle_beta   40.24354432
_cell_angle_gamma   40.24354294
_symmetry_Int_Tables_number   1
_chemical_formula_structural   CuAsSe2
_chemical_formula_sum   'Cu1 As1 Se2'
_cell_volume   97.81169796
_cell_formula_units_Z   1
loop_
 _symmetry_equiv_pos_site_id
 _symmetry_equiv_pos_as_xyz
  1  'x, y, z'
loop_
 _atom_site_type_symbol
 _atom_site_label
 _atom_site_symmetry_multiplicity
 _atom_site_fract_x
 _atom_site_fract_y
 _atom_site_fract_z
 _atom_site_occupancy
  Cu  Cu0  1  0.49237700  0.49237700  0.49237700  1
  As  As0  1  0.99506300  0.99506300  0.99506300  1
  Se  Se0  1  0.13188300  0.13188300  0.13188300  1
  Se  Se1  1  0.63167700  0.63167700  0.63167700  1
loop_
_geom_bond_atom_site_label_1
_geom_bond_atom_site_label_2
_geom_bond_distance
_geom_bond_site_symmetry_2
Cu0 Se1 2.447702 1_555
Cu0 Se0 2.579811 1_655
Cu0 Se0 2.579811 1_565
Cu0 Se0 2.579811 1_556
As0 Se0 2.404125 1_666
As0 Se1 2.589694 1_655
As0 Se1 2.589694 1_565
As0 Se1 2.589694 1_556
