# generated using pymatgen
data_Na6Zn2Si3Sn2(SO8)3
_symmetry_space_group_name_H-M   'P 1'
_cell_length_a   9.06601468
_cell_length_b   9.07460599
_cell_length_c   22.31297169
_cell_angle_alpha   89.77482243
_cell_angle_beta   90.61857186
_cell_angle_gamma   119.58439721
_symmetry_Int_Tables_number   1
_chemical_formula_structural   Na6Zn2Si3Sn2(SO8)3
_chemical_formula_sum   'Na18 Zn6 Si9 Sn6 S9 O72'
_cell_volume   1596.28324188
_cell_formula_units_Z   3
loop_
 _symmetry_equiv_pos_site_id
 _symmetry_equiv_pos_as_xyz
  1  'x, y, z'
loop_
 _atom_site_type_symbol
 _atom_site_label
 _atom_site_symmetry_multiplicity
 _atom_site_fract_x
 _atom_site_fract_y
 _atom_site_fract_z
 _atom_site_occupancy
  Na  Na0  1  0.37712941  0.35725572  0.24572201  1
  Na  Na1  1  0.99880722  0.63573178  0.23646958  1
  Na  Na2  1  0.98829475  0.35174969  0.74127285  1
  Na  Na3  1  0.38816010  0.02432094  0.74619745  1
  Na  Na4  1  0.29630178  0.33472616  0.58271108  1
  Na  Na5  1  0.65470044  0.97352727  0.59265452  1
  Na  Na6  1  0.29707831  0.95804667  0.07180230  1
  Na  Na7  1  0.65418772  0.68170042  0.07945861  1
  Na  Na8  1  0.98422848  0.68679424  0.91728000  1
  Na  Na9  1  0.32127404  0.28117844  0.90889740  1
  Na  Na10  1  0.98251898  0.30041935  0.42815534  1
  Na  Na11  1  0.32444160  0.03954360  0.41726546  1
  Na  Na12  1  0.00581449  0.99743682  0.50348628  1
  Na  Na13  1  0.00667610  0.00963266  0.99300255  1
  Na  Na14  1  0.65251483  0.31585716  0.82344003  1
  Na  Na15  1  0.64859833  0.32201217  0.32935746  1
  Na  Na16  1  0.32060057  0.65469401  0.15606354  1
  Na  Na17  1  0.32613579  0.66781478  0.66153311  1
  Zn  Zn0  1  0.03045390  0.02102803  0.34946480  1
  Zn  Zn1  1  0.02258114  0.01520163  0.84143989  1
  Zn  Zn2  1  0.65427013  0.30656670  0.68425285  1
  Zn  Zn3  1  0.64814875  0.32687518  0.17624257  1
  Zn  Zn4  1  0.29996368  0.65353074  0.02079529  1
  Zn  Zn5  1  0.30371437  0.64744725  0.52443183  1
  Si  Si0  1  0.30900032  -0.00006605  0.25313088  1
  Si  Si1  1  0.30954222  0.30790829  0.75272498  1
  Si  Si2  1  0.71327972  0.99792567  0.75180472  1
  Si  Si3  1  0.95565164  0.33361192  0.58631913  1
  Si  Si4  1  0.35691602  0.02159598  0.58463818  1
  Si  Si5  1  0.95257596  0.61851369  0.08802604  1
  Si  Si6  1  0.36473463  0.34001905  0.08476756  1
  Si  Si7  1  0.33512463  0.96078234  0.91969776  1
  Si  Si8  1  0.33943728  0.37795198  0.41910109  1
  Sn  Sn0  1  0.00479030  0.01629161  0.65063890  1
  Sn  Sn1  1  0.01430873  0.99697383  0.14662462  1
  Sn  Sn2  1  0.65685061  0.32388692  0.98463271  1
  Sn  Sn3  1  0.64883475  0.33077106  0.49045851  1
  Sn  Sn4  1  0.34234503  0.67090471  0.31862087  1
  Sn  Sn5  1  0.35461434  0.68369316  0.81234112  1
  S  S0  1  0.71059986  0.71801571  0.25249107  1
  S  S1  1  0.99801518  0.29199945  0.25243960  1
  S  S2  1  0.00005801  0.70656213  0.75288270  1
  S  S3  1  0.67516930  0.63273459  0.58511069  1
  S  S4  1  0.67503069  0.04096385  0.08621291  1
  S  S5  1  0.63096648  0.66510291  0.92021983  1
  S  S6  1  0.03385314  0.37260769  0.91712111  1
  S  S7  1  0.63570181  0.96684560  0.41793181  1
  S  S8  1  0.03079764  0.66360854  0.41508701  1
  O  O0  1  0.22527123  0.02830903  0.31250523  1
  O  O1  1  0.81360561  0.81509815  0.30413569  1
  O  O2  1  0.98114836  0.19788619  0.30834030  1
  O  O3  1  0.23665748  0.19263294  0.81234803  1
  O  O4  1  0.98589558  0.78111458  0.80947746  1
  O  O5  1  0.82996358  0.01370047  0.80811343  1
  O  O6  1  0.78556983  0.96286044  0.68760762  1
  O  O7  1  0.17979758  0.22610264  0.69294537  1
  O  O8  1  0.03058736  0.82149780  0.70031434  1
  O  O9  1  0.78133425  0.81179051  0.19448447  1
  O  O10  1  0.02103912  0.20455333  0.19927195  1
  O  O11  1  0.17600467  0.95094508  0.19396609  1
  O  O12  1  0.86426648  0.35498367  0.64342826  1
  O  O13  1  0.47524120  0.10665832  0.64218546  1
  O  O14  1  0.65270580  0.52197759  0.63542958  1
  O  O15  1  0.86381701  0.51306188  0.14783789  1
  O  O16  1  0.65105331  0.12311765  0.13861514  1
  O  O17  1  0.47009373  0.36932276  0.14685965  1
  O  O18  1  0.44764851  0.28755921  0.02749581  1
  O  O19  1  0.83647294  0.53254699  0.02581688  1
  O  O20  1  0.70591120  0.14343909  0.03004480  1
  O  O21  1  0.42912025  0.15105017  0.52321589  1
  O  O22  1  0.70235316  0.56096855  0.52641079  1
  O  O23  1  0.84159344  0.30569949  0.52114393  1
  O  O24  1  0.55104090  0.67966334  0.97458164  1
  O  O25  1  0.14237062  0.45296359  0.96997422  1
  O  O26  1  0.31314317  0.84855115  0.97866595  1
  O  O27  1  0.55607787  0.86973558  0.47121781  1
  O  O28  1  0.31089890  0.47492813  0.47330877  1
  O  O29  1  0.14614987  0.69647304  0.46604578  1
  O  O30  1  0.10851120  0.63317784  0.35814615  1
  O  O31  1  0.52028795  0.88912860  0.36249898  1
  O  O32  1  0.36574556  0.48247015  0.35298988  1
  O  O33  1  0.10991449  0.47776006  0.86187470  1
  O  O34  1  0.35623522  0.87236005  0.85757121  1
  O  O35  1  0.51669255  0.63038649  0.86620963  1
  O  O36  1  0.00632697  0.81110897  0.40790741  1
  O  O37  1  0.80510544  0.98702577  0.40841839  1
  O  O38  1  0.16860458  0.18807466  0.41497830  1
  O  O39  1  0.01100350  0.20178762  0.91281564  1
  O  O40  1  0.16508283  0.98221949  0.91477744  1
  O  O41  1  0.80091682  0.80964466  0.91313629  1
  O  O42  1  0.95979686  0.14980235  0.58341806  1
  O  O43  1  0.16921823  0.01105654  0.58979598  1
  O  O44  1  0.82917218  0.80330167  0.58769487  1
  O  O45  1  0.95325943  0.80733617  0.08700602  1
  O  O46  1  0.82953711  0.02044399  0.09177807  1
  O  O47  1  0.17660121  0.16140841  0.08737454  1
  O  O48  1  0.69552819  0.16792317  0.74986062  1
  O  O49  1  0.49402710  0.32969242  0.74214932  1
  O  O50  1  0.85477571  0.53781128  0.74552379  1
  O  O51  1  0.69881195  0.54987276  0.25180606  1
  O  O52  1  0.85571590  0.32333033  0.24691844  1
  O  O53  1  0.49071800  0.16928572  0.24389219  1
  O  O54  1  0.64576241  0.50293116  0.92035343  1
  O  O55  1  0.86499465  0.36950971  0.92217563  1
  O  O56  1  0.50821477  0.15703891  0.92122083  1
  O  O57  1  0.65044885  0.14127753  0.41818434  1
  O  O58  1  0.51065927  0.35112697  0.42073059  1
  O  O59  1  0.86628810  0.50241953  0.41981786  1
  O  O60  1  0.35950251  0.51330460  0.07394802  1
  O  O61  1  0.14855990  0.66643991  0.08456331  1
  O  O62  1  0.52635040  0.87134103  0.07975483  1
  O  O63  1  0.35914032  0.84761547  0.57193043  1
  O  O64  1  0.52361661  0.65260597  0.57827726  1
  O  O65  1  0.15085097  0.48292265  0.58308552  1
  O  O66  1  0.30735069  0.81186503  0.25721957  1
  O  O67  1  0.53097913  0.69008184  0.25331603  1
  O  O68  1  0.16325242  0.46379105  0.25322780  1
  O  O69  1  0.29557669  0.48528774  0.75934501  1
  O  O70  1  0.16128757  0.69174620  0.75364935  1
  O  O71  1  0.51334956  0.83549809  0.75044936  1
loop_
_geom_bond_atom_site_label_1
_geom_bond_atom_site_label_2
_geom_bond_distance
_geom_bond_site_symmetry_2
Na0 O17 2.352764 1_555
Na0 O53 2.389071 1_555
Na0 O51 2.557111 1_555
Na0 O68 2.565484 1_555
Na0 O67 2.633529 1_555
Na0 O32 2.678235 1_555
Na1 O15 2.295174 1_555
Na1 O51 2.459039 1_555
Na1 O52 2.478713 1_555
Na1 O66 2.481307 1_655
Na1 O68 2.660317 1_655
Na1 O11 2.671421 1_655
Na1 O30 2.885260 1_655
Na2 O48 2.345405 1_555
Na2 O12 2.451670 1_555
Na2 O69 2.457254 1_655
Na2 O50 2.519309 1_555
Na2 O70 2.697157 1_655
Na2 O7 2.735299 1_655
Na2 O33 2.912026 1_655
Na3 O48 2.424937 1_555
Na3 O49 2.445850 1_555
Na3 O13 2.451779 1_555
Na3 O71 2.479897 1_545
Na3 O70 2.690825 1_545
Na3 O34 2.784868 1_545
Na3 O3 2.920787 1_555
Na3 O8 2.999403 1_545
Na4 O65 2.301923 1_555
Na4 O43 2.576482 1_555
Na4 O64 2.590405 1_555
Na4 O42 2.658798 1_455
Na4 O7 2.673230 1_555
Na4 O28 2.722396 1_555
Na4 O21 2.832682 1_555
Na5 O63 2.377741 1_555
Na5 O42 2.427535 1_565
Na5 O6 2.442009 1_555
Na5 O64 2.564780 1_555
Na5 O44 2.705212 1_555
Na5 O13 2.705212 1_565
Na5 O27 2.857407 1_555
Na6 O61 2.319629 1_555
Na6 O26 2.343688 1_554
Na6 O62 2.564547 1_555
Na6 O47 2.592848 1_565
Na6 O45 2.740704 1_455
Na6 O18 2.785230 1_565
Na6 O11 2.938123 1_555
Na7 O60 2.334749 1_555
Na7 O45 2.370471 1_555
Na7 O62 2.504886 1_555
Na7 O24 2.507385 1_554
Na7 O46 2.687753 1_565
Na7 O9 2.815300 1_555
Na7 O19 2.873978 1_555
Na7 O17 2.903792 1_555
Na8 O40 2.353522 1_655
Na8 O41 2.416314 1_555
Na8 O55 2.529289 1_555
Na8 O4 2.547662 1_555
Na8 O54 2.674465 1_555
Na8 O19 2.794757 1_556
Na8 O26 2.920332 1_655
Na8 O33 2.933951 1_655
Na9 O3 2.290073 1_555
Na9 O40 2.364392 1_545
Na9 O56 2.467736 1_555
Na9 O39 2.538301 1_555
Na9 O54 2.628976 1_555
Na9 O18 2.861653 1_556
Na9 O35 2.925277 1_555
Na10 O38 2.383964 1_655
Na10 O23 2.461325 1_555
Na10 O37 2.519281 1_545
Na10 O59 2.530913 1_555
Na10 O57 2.625568 1_555
Na10 O28 2.771023 1_655
Na10 O2 2.832054 1_555
Na11 O38 2.386128 1_555
Na11 O58 2.477172 1_555
Na11 O0 2.479655 1_555
Na11 O21 2.556465 1_555
Na11 O36 2.597226 1_545
Na11 O57 2.625416 1_555
Na11 O29 2.920980 1_545
Na11 O31 2.993652 1_545
Na12 O43 2.382891 1_565
Na12 O42 2.423169 1_465
Na12 O44 2.540048 1_455
Na12 O38 2.566341 1_565
Na12 O36 2.728279 1_555
Na12 O37 2.751029 1_455
Na13 O40 2.362446 1_545
Na13 O39 2.480493 1_555
Na13 O41 2.561234 1_445
Na13 O47 2.561634 1_556
Na13 O45 2.667935 1_446
Na13 O46 2.771261 1_456
Na14 O48 2.279847 1_555
Na14 O49 2.343155 1_555
Na14 O56 2.593055 1_555
Na14 O50 2.614621 1_555
Na14 O54 2.774182 1_555
Na14 O55 2.791442 1_555
Na15 O53 2.368377 1_555
Na15 O58 2.485148 1_555
Na15 O51 2.556663 1_555
Na15 O57 2.572817 1_555
Na15 O52 2.638533 1_555
Na15 O59 2.720099 1_555
Na16 O61 2.257972 1_555
Na16 O60 2.367904 1_555
Na16 O62 2.581643 1_555
Na16 O68 2.708043 1_555
Na16 O66 2.709881 1_555
Na16 O67 2.785875 1_555
Na17 O65 2.394711 1_555
Na17 O63 2.500827 1_555
Na17 O71 2.556026 1_555
Na17 O70 2.625960 1_555
Na17 O64 2.644477 1_555
Na17 O69 2.667397 1_555
O0 Si0 1.617114 1_555
O0 Zn0 1.928671 1_555
O1 S0 1.465778 1_555
O1 Zn0 2.173579 1_665
O2 S1 1.474906 1_555
O2 Zn0 2.074976 1_655
O3 Si1 1.620587 1_555
O3 Zn1 1.927176 1_555
O4 S2 1.471336 1_655
O4 Zn1 2.107330 1_665
O5 Si2 1.594153 1_545
O5 Zn1 1.884455 1_655
O6 Si2 1.677022 1_555
O6 Sn0 1.986515 1_665
O7 Si1 1.680943 1_555
O7 Sn0 2.008101 1_555
O8 S2 1.500874 1_555
O8 Sn0 2.189786 1_565
O9 S0 1.510306 1_555
O9 Sn1 2.226080 1_655
O10 S1 1.502315 1_455
O10 Sn1 2.198721 1_545
O11 Si0 1.683802 1_565
O11 Sn1 2.001742 1_555
O12 Si3 1.590972 1_555
O12 Zn2 1.963603 1_555
O13 Si4 1.598691 1_555
O13 Zn2 1.969649 1_555
O14 S3 1.451278 1_555
O14 Zn2 2.240179 1_555
O15 Si5 1.611571 1_555
O15 Zn3 1.958506 1_555
O16 S4 1.463744 1_555
O16 Zn3 2.045780 1_555
O17 Si6 1.620527 1_555
O17 Zn3 1.942460 1_555
O18 Si6 1.674389 1_555
O18 Sn2 2.009951 1_554
O19 Si5 1.676135 1_555
O19 Sn2 2.004592 1_554
O20 S4 1.501728 1_555
O20 Sn2 2.145306 1_554
O21 Si4 1.712964 1_555
O21 Sn3 1.994039 1_555
O22 S3 1.540296 1_555
O22 Sn3 2.060737 1_555
O23 Si3 1.720488 1_555
O23 Sn3 1.984949 1_555
O24 S5 1.458970 1_555
O24 Zn4 2.411782 1_556
O25 S6 1.470967 1_555
O25 Zn4 2.013308 1_556
O26 Si7 1.613350 1_555
O26 Zn4 1.952036 1_556
O27 S7 1.446889 1_555
O27 Zn5 2.489225 1_555
O28 Si8 1.595084 1_555
O28 Zn5 1.967920 1_555
O29 S8 1.464412 1_555
O29 Zn5 2.125668 1_555
O30 S8 1.549538 1_555
O30 Sn4 2.170371 1_555
O31 S7 1.540238 1_555
O31 Sn4 2.075888 1_555
O32 Si8 1.704619 1_555
O32 Sn4 1.975217 1_555
O33 S6 1.504994 1_555
O33 Sn5 2.361885 1_555
O34 Si7 1.663793 1_555
O34 Sn5 1.984532 1_555
O35 S5 1.509520 1_555
O35 Sn5 2.120618 1_555
O36 S8 1.468756 1_555
O36 Zn0 2.225378 1_565
O37 S7 1.471853 1_555
O37 Zn0 2.330633 1_665
O38 Si8 1.655064 1_555
O38 Zn0 2.026485 1_555
O39 S6 1.462428 1_555
O39 Zn1 2.369516 1_555
O40 Si7 1.648856 1_555
O40 Zn1 2.183732 1_565
O41 S5 1.458600 1_555
O41 Zn1 2.534132 1_665
O42 Si3 1.688378 1_555
O42 Sn0 2.084333 1_655
O43 Si4 1.661781 1_555
O43 Sn0 2.044904 1_555
O44 S3 1.487803 1_555
O44 Sn0 2.275453 1_665
O45 Si5 1.710502 1_555
O45 Sn1 2.024604 1_655
O46 S4 1.505267 1_555
O46 Sn1 2.157567 1_645
O47 Si6 1.676689 1_555
O47 Sn1 1.999471 1_545
O48 Si2 1.628511 1_545
O48 Zn2 2.074658 1_555
O49 Si1 1.604321 1_555
O49 Zn2 2.041351 1_555
O50 S2 1.453457 1_655
O50 Zn2 2.404016 1_555
O51 S0 1.476127 1_555
O51 Zn3 2.498212 1_555
O52 S1 1.455611 1_555
O52 Zn3 2.454470 1_555
O53 Si0 1.619650 1_555
O53 Zn3 2.091607 1_555
O54 S5 1.542277 1_555
O54 Sn2 2.201565 1_555
O55 S6 1.522594 1_655
O55 Sn2 2.226044 1_555
O56 Si7 1.695648 1_545
O56 Sn2 2.017755 1_555
O57 S7 1.521372 1_545
O57 Sn3 2.367481 1_555
O58 Si8 1.685836 1_555
O58 Sn3 2.051379 1_555
O59 S8 1.491039 1_655
O59 Sn3 2.410993 1_555
O60 Si6 1.613599 1_555
O60 Zn4 1.992419 1_555
O61 Si5 1.609905 1_455
O61 Zn4 2.030911 1_555
O62 S4 1.468287 1_565
O62 Zn4 2.409643 1_555
O63 Si4 1.615088 1_565
O63 Zn5 1.943606 1_555
O64 S3 1.477663 1_555
O64 Zn5 2.297136 1_555
O65 Si3 1.614682 1_455
O65 Zn5 1.960411 1_555
O66 Si0 1.701414 1_565
O66 Sn4 1.997869 1_555
O67 S0 1.519684 1_555
O67 Sn4 2.199125 1_555
O68 S1 1.538970 1_455
O68 Sn4 2.292357 1_555
O69 Si1 1.682951 1_555
O69 Sn5 1.994478 1_555
O70 S2 1.532468 1_555
O70 Sn5 2.206465 1_555
O71 Si2 1.679296 1_555
O71 Sn5 1.986527 1_555
