# generated using pymatgen
data_Rb6Mg(FeO3)2
_symmetry_space_group_name_H-M   'P 1'
_cell_length_a   7.40089328
_cell_length_b   9.78915625
_cell_length_c   6.25038437
_cell_angle_alpha   109.11826496
_cell_angle_beta   99.67441676
_cell_angle_gamma   117.34522345
_symmetry_Int_Tables_number   1
_chemical_formula_structural   Rb6Mg(FeO3)2
_chemical_formula_sum   'Rb6 Mg1 Fe2 O6'
_cell_volume   351.61466725
_cell_formula_units_Z   1
loop_
 _symmetry_equiv_pos_site_id
 _symmetry_equiv_pos_as_xyz
  1  'x, y, z'
loop_
 _atom_site_type_symbol
 _atom_site_label
 _atom_site_symmetry_multiplicity
 _atom_site_fract_x
 _atom_site_fract_y
 _atom_site_fract_z
 _atom_site_occupancy
  Rb  Rb0  1  0.04624312  0.15806449  0.65720947  1
  Rb  Rb1  1  0.03173981  0.80451814  0.32799034  1
  Rb  Rb2  1  0.56003885  0.15772750  0.85813326  1
  Rb  Rb3  1  0.51303780  0.92210538  0.17758368  1
  Rb  Rb4  1  0.24185132  0.50498141  0.48946699  1
  Rb  Rb5  1  0.72019745  0.46653617  0.59127303  1
  Mg  Mg0  1  0.51128264  0.57757699  0.14411645  1
  Fe  Fe0  1  0.78342884  0.83945598  0.81764472  1
  Fe  Fe1  1  0.20931717  0.13483720  0.14772674  1
  O  O0  1  0.39941103  0.35069909  0.13166218  1
  O  O1  1  0.61774523  0.66093570  0.92073221  1
  O  O2  1  0.12321556  0.93474049  0.85463309  1
  O  O3  1  0.35798775  0.13730641  0.42758900  1
  O  O4  1  0.62845528  0.76740544  0.47159753  1
  O  O5  1  0.92271617  0.09236860  0.12153030  1
loop_
_geom_bond_atom_site_label_1
_geom_bond_atom_site_label_2
_geom_bond_distance
_geom_bond_site_symmetry_2
Mg0 O1 1.939472 1_554
Mg0 O0 1.949334 1_555
Mg0 O4 1.956096 1_555
Fe0 O4 1.978623 1_555
Fe0 O1 2.001799 1_555
Fe0 O5 2.171832 1_566
Fe0 O2 2.180766 1_655
Fe1 O3 1.889996 1_555
Fe1 O2 1.925958 1_544
Fe1 O5 1.930618 1_455
Fe1 O0 1.977337 1_555
O0 Rb5 2.876727 1_555
O0 Rb0 2.895793 1_554
O0 Rb2 2.921518 1_554
O0 Rb4 2.987349 1_555
O1 Rb5 2.778548 1_555
O1 Rb4 2.866745 1_555
O1 Rb1 2.986896 1_656
O1 Rb3 3.043672 1_556
O2 Rb1 2.937392 1_555
O2 Rb2 2.945949 1_565
O2 Rb0 3.049821 1_565
O2 Rb3 3.308683 1_556
O3 Rb2 2.745614 1_555
O3 Rb5 2.756982 1_555
O3 Rb1 2.787509 1_545
O3 Rb0 2.962577 1_555
O3 Rb3 2.977199 1_545
O4 Rb4 2.888085 1_555
O4 Rb3 2.980589 1_555
O4 Rb1 3.156541 1_655
O4 Rb0 3.249012 1_665
O5 Rb3 2.861914 1_545
O5 Rb0 3.079031 1_655
O5 Rb4 3.241497 1_655
O5 Rb2 3.332692 1_554
O5 Rb0 3.353537 1_654
