# generated using pymatgen
data_MgMnCo3O8
_symmetry_space_group_name_H-M   'P 1'
_cell_length_a   5.77554803
_cell_length_b   5.67003082
_cell_length_c   6.03612356
_cell_angle_alpha   61.17751686
_cell_angle_beta   60.39082190
_cell_angle_gamma   60.23574034
_symmetry_Int_Tables_number   1
_chemical_formula_structural   MgMnCo3O8
_chemical_formula_sum   'Mg1 Mn1 Co3 O8'
_cell_volume   141.64911534
_cell_formula_units_Z   1
loop_
 _symmetry_equiv_pos_site_id
 _symmetry_equiv_pos_as_xyz
  1  'x, y, z'
loop_
 _atom_site_type_symbol
 _atom_site_label
 _atom_site_symmetry_multiplicity
 _atom_site_fract_x
 _atom_site_fract_y
 _atom_site_fract_z
 _atom_site_occupancy
  Mg  Mg0  1  0.00000000  0.00000000  0.50000000  1
  Mn  Mn0  1  0.00000000  0.00000000  0.00000000  1
  Co  Co0  1  0.50000000  0.00000000  0.00000000  1
  Co  Co1  1  0.00000000  0.50000000  0.00000000  1
  Co  Co2  1  0.50000000  0.50000000  0.00000000  1
  O  O0  1  0.23488100  0.23578900  0.80827500  1
  O  O1  1  0.74990000  0.22233600  0.79119900  1
  O  O2  1  0.22045300  0.74362300  0.78829900  1
  O  O3  1  0.75188600  0.73865700  0.79413700  1
  O  O4  1  0.24811400  0.26134300  0.20586300  1
  O  O5  1  0.77954700  0.25637700  0.21170100  1
  O  O6  1  0.25010000  0.77766400  0.20880100  1
  O  O7  1  0.76511900  0.76421100  0.19172500  1
loop_
_geom_bond_atom_site_label_1
_geom_bond_atom_site_label_2
_geom_bond_distance
_geom_bond_site_symmetry_2
Mg0 O3 2.111632 1_445
Mg0 O4 2.111632 1_555
Mg0 O1 2.141245 1_455
Mg0 O6 2.141245 1_545
Mg0 O2 2.162246 1_545
Mg0 O5 2.162246 1_455
Mn0 O2 1.926873 1_544
Mn0 O5 1.926873 1_455
Mn0 O1 1.929568 1_454
Mn0 O6 1.929568 1_545
Mn0 O0 1.929897 1_554
Mn0 O7 1.929897 1_445
Co0 O7 1.923020 1_545
Co0 O0 1.923020 1_554
Co0 O4 1.924839 1_555
Co0 O3 1.924839 1_544
Co0 O1 1.933360 1_554
Co0 O6 1.933360 1_545
Co1 O0 1.877858 1_554
Co1 O7 1.877858 1_455
Co1 O2 1.897023 1_554
Co1 O5 1.897023 1_455
Co1 O4 1.908324 1_555
Co1 O3 1.908324 1_454
Co2 O6 2.002454 1_555
Co2 O1 2.002454 1_554
Co2 O3 2.009611 1_554
Co2 O4 2.009611 1_555
Co2 O2 2.066445 1_554
Co2 O5 2.066445 1_555
