# generated using pymatgen
data_MgTa2(FeO4)2
_symmetry_space_group_name_H-M   'P 1'
_cell_length_a   5.93035222
_cell_length_b   5.96662529
_cell_length_c   5.81539532
_cell_angle_alpha   71.13053946
_cell_angle_beta   106.47024759
_cell_angle_gamma   64.26311531
_symmetry_Int_Tables_number   1
_chemical_formula_structural   MgTa2(FeO4)2
_chemical_formula_sum   'Mg1 Ta2 Fe2 O8'
_cell_volume   152.16422407
_cell_formula_units_Z   1
loop_
 _symmetry_equiv_pos_site_id
 _symmetry_equiv_pos_as_xyz
  1  'x, y, z'
loop_
 _atom_site_type_symbol
 _atom_site_label
 _atom_site_symmetry_multiplicity
 _atom_site_fract_x
 _atom_site_fract_y
 _atom_site_fract_z
 _atom_site_occupancy
  Mg  Mg0  1  0.27099200  0.70889300  0.53994500  1
  Ta  Ta0  1  0.26765500  0.22973500  0.47295900  1
  Ta  Ta1  1  0.98924400  0.00556600  0.93055000  1
  Fe  Fe0  1  0.74127000  0.74926400  0.48654000  1
  Fe  Fe1  1  0.58062400  0.47866300  0.09935800  1
  O  O0  1  0.56356500  0.25674800  0.76343900  1
  O  O1  1  0.04588700  0.78159400  0.75922500  1
  O  O2  1  0.51236500  0.80600400  0.73872100  1
  O  O3  1  0.02319000  0.28009200  0.69261400  1
  O  O4  1  0.00614900  0.67008200  0.28016200  1
  O  O5  1  0.47580100  0.21652800  0.28332700  1
  O  O6  1  0.00142600  0.17773800  0.23282400  1
  O  O7  1  0.40278300  0.75814300  0.23224100  1
loop_
_geom_bond_atom_site_label_1
_geom_bond_atom_site_label_2
_geom_bond_distance
_geom_bond_site_symmetry_2
Mg0 O2 1.984002 1_555
Mg0 O4 1.999873 1_555
Mg0 O0 2.089455 1_555
Mg0 O1 2.101561 1_555
Mg0 O7 2.133446 1_555
Mg0 O6 2.199204 1_565
Fe0 O7 2.095932 1_555
Fe0 O5 2.156372 1_565
Fe0 O1 2.165965 1_655
Fe0 O3 2.167284 1_655
Fe0 O4 2.218637 1_655
Fe0 O2 2.271336 1_555
Fe1 O5 2.028910 1_555
Fe1 O6 2.040273 1_655
Fe1 O7 2.063606 1_555
Fe1 O2 2.135285 1_554
Fe1 O1 2.527561 1_554
O0 Ta1 1.986032 1_555
O0 Ta0 2.167926 1_555
O1 Ta1 1.884800 1_465
O2 Ta0 1.975086 1_565
O3 Ta1 1.901700 1_455
O3 Ta0 2.178034 1_555
O4 Ta0 2.033520 1_555
O4 Ta1 2.286534 1_464
O5 Ta0 1.868060 1_555
O6 Ta0 1.998640 1_555
O6 Ta1 2.304568 1_454
O7 Ta1 2.003132 1_464
