# generated using pymatgen
data_MgCo2(PO4)2
_symmetry_space_group_name_H-M   'P 1'
_cell_length_a   4.92412930
_cell_length_b   4.92413365
_cell_length_c   6.38453200
_cell_angle_alpha   89.99981532
_cell_angle_beta   90.00000826
_cell_angle_gamma   67.70574967
_symmetry_Int_Tables_number   1
_chemical_formula_structural   MgCo2(PO4)2
_chemical_formula_sum   'Mg1 Co2 P2 O8'
_cell_volume   143.23409398
_cell_formula_units_Z   1
loop_
 _symmetry_equiv_pos_site_id
 _symmetry_equiv_pos_as_xyz
  1  'x, y, z'
loop_
 _atom_site_type_symbol
 _atom_site_label
 _atom_site_symmetry_multiplicity
 _atom_site_fract_x
 _atom_site_fract_y
 _atom_site_fract_z
 _atom_site_occupancy
  Mg  Mg0  1  0.67922000  0.67921800  0.24999800  1
  Co  Co0  1  0.00625400  0.00625600  0.98366600  1
  Co  Co1  1  0.00625600  0.00625600  0.51633200  1
  P  P0  1  0.64486900  0.64486800  0.74999700  1
  P  P1  1  0.34601700  0.34601800  0.25000500  1
  O  O0  1  0.30474000  0.77197500  0.74999900  1
  O  O1  1  0.75438400  0.75438200  0.54855700  1
  O  O2  1  0.69589300  0.24216000  0.25000100  1
  O  O3  1  0.24414700  0.24414700  0.05195400  1
  O  O4  1  0.24414900  0.24414800  0.44805000  1
  O  O5  1  0.75438400  0.75438300  0.95144100  1
  O  O6  1  0.77197700  0.30473800  0.75000000  1
  O  O7  1  0.24215600  0.69589500  0.25000000  1
loop_
_geom_bond_atom_site_label_1
_geom_bond_atom_site_label_2
_geom_bond_distance
_geom_bond_site_symmetry_2
Mg0 O5 2.002824 1_554
Mg0 O1 2.002837 1_555
Mg0 O2 2.122346 1_555
Mg0 O7 2.122367 1_555
Co0 O3 1.993897 1_556
Co0 O5 2.070229 1_445
Co0 O6 2.104798 1_455
Co0 O0 2.104824 1_545
Co0 O7 2.286787 1_546
Co0 O2 2.286801 1_456
Co1 O4 1.993891 1_555
Co1 O1 2.070241 1_445
Co1 O0 2.104813 1_545
Co1 O6 2.104817 1_455
Co1 O2 2.286781 1_455
Co1 O7 2.286783 1_545
O0 P0 1.549670 1_555
O1 P0 1.567259 1_555
O2 P1 1.600376 1_555
O3 P1 1.514278 1_555
O4 P1 1.514237 1_555
O5 P0 1.567285 1_555
O6 P0 1.549676 1_555
O7 P1 1.600381 1_555
