# generated using pymatgen
data_Ba3WO6
_symmetry_space_group_name_H-M   'P 1'
_cell_length_a   6.09098807
_cell_length_b   6.57324092
_cell_length_c   8.84468485
_cell_angle_alpha   86.40387095
_cell_angle_beta   89.87200393
_cell_angle_gamma   90.26024241
_symmetry_Int_Tables_number   1
_chemical_formula_structural   Ba3WO6
_chemical_formula_sum   'Ba6 W2 O12'
_cell_volume   353.41730941
_cell_formula_units_Z   2
loop_
 _symmetry_equiv_pos_site_id
 _symmetry_equiv_pos_as_xyz
  1  'x, y, z'
loop_
 _atom_site_type_symbol
 _atom_site_label
 _atom_site_symmetry_multiplicity
 _atom_site_fract_x
 _atom_site_fract_y
 _atom_site_fract_z
 _atom_site_occupancy
  Ba  Ba0  1  0.49217261  0.39373188  0.94792247  1
  Ba  Ba1  1  0.99739952  0.98863416  0.48162951  1
  Ba  Ba2  1  0.99459774  0.03405001  0.01787882  1
  Ba  Ba3  1  0.48944699  0.43746761  0.48453758  1
  Ba  Ba4  1  0.99696345  0.50786242  0.22504617  1
  Ba  Ba5  1  0.48956398  0.91924626  0.74112763  1
  W  W0  1  0.49687358  0.99152584  0.24708650  1
  W  W1  1  0.98957615  0.43559338  0.71887789  1
  O  O0  1  0.44314076  0.98031408  0.02991036  1
  O  O1  1  0.72822664  0.59561619  0.72457748  1
  O  O2  1  0.31260110  0.76406581  0.29580816  1
  O  O3  1  0.23975501  0.24656601  0.71421132  1
  O  O4  1  0.04343192  0.44730554  0.93618732  1
  O  O5  1  0.93948711  0.39143841  0.50900137  1
  O  O6  1  0.80033453  0.19286105  0.77293203  1
  O  O7  1  0.54721174  0.03488030  0.45715454  1
  O  O8  1  0.68474506  0.23531924  0.19361519  1
  O  O9  1  0.17549457  0.66183697  0.66998285  1
  O  O10  1  0.24560042  0.17906567  0.25251875  1
  O  O11  1  0.75937512  0.83261718  0.24099506  1
loop_
_geom_bond_atom_site_label_1
_geom_bond_atom_site_label_2
_geom_bond_distance
_geom_bond_site_symmetry_2
Ba0 O8 2.630775 1_556
Ba0 O1 2.715086 1_555
Ba0 O4 2.758804 1_555
Ba0 O0 2.782854 1_546
Ba0 O3 2.797149 1_555
Ba0 O6 2.815658 1_555
Ba0 O10 3.315180 1_556
Ba1 O5 2.698522 1_565
Ba1 O10 2.758560 1_665
Ba1 O7 2.767722 1_565
Ba1 O11 2.820915 1_555
Ba1 O9 2.854255 1_655
Ba1 O2 2.980294 1_655
Ba1 O3 3.116686 1_665
Ba1 O6 3.211829 1_565
Ba1 O7 3.366550 1_665
Ba2 O6 2.631048 1_554
Ba2 O11 2.709710 1_545
Ba2 O0 2.757833 1_645
Ba2 O4 2.781187 1_654
Ba2 O10 2.793218 1_655
Ba2 O8 2.827672 1_555
Ba2 O3 3.299606 1_654
Ba3 O7 2.697008 1_555
Ba3 O5 2.766668 1_555
Ba3 O3 2.768270 1_555
Ba3 O1 2.824949 1_555
Ba3 O2 2.852187 1_555
Ba3 O9 2.972758 1_555
Ba3 O10 3.119336 1_555
Ba3 O8 3.198625 1_555
Ba3 O5 3.367322 1_455
Ba4 O11 2.595374 1_555
Ba4 O5 2.601606 1_555
Ba4 O4 2.625122 1_654
Ba4 O8 2.633847 1_555
Ba4 O10 2.643696 1_655
Ba4 O2 2.651834 1_655
Ba5 O1 2.593501 1_555
Ba5 O7 2.600688 1_565
Ba5 O0 2.625149 1_556
Ba5 O6 2.632841 1_565
Ba5 O3 2.639729 1_565
Ba5 O9 2.651028 1_555
O0 W0 1.955141 1_555
O1 W1 1.914300 1_555
O2 W0 1.892809 1_555
O3 W1 1.972561 1_455
O4 W1 1.956757 1_455
O5 W1 1.921576 1_555
O6 W1 1.997022 1_555
O7 W0 1.922370 1_545
O8 W0 1.996758 1_545
O9 W1 1.892848 1_455
O10 W0 1.971964 1_545
O11 W0 1.916321 1_555
