# generated using pymatgen
data_TmMg(FeO2)2
_symmetry_space_group_name_H-M   'P 1'
_cell_length_a   3.28274769
_cell_length_b   3.28274769
_cell_length_c   11.01423069
_cell_angle_alpha   81.42968847
_cell_angle_beta   81.42968847
_cell_angle_gamma   59.99999004
_symmetry_Int_Tables_number   1
_chemical_formula_structural   TmMg(FeO2)2
_chemical_formula_sum   'Tm1 Mg1 Fe2 O4'
_cell_volume   101.25880983
_cell_formula_units_Z   1
loop_
 _symmetry_equiv_pos_site_id
 _symmetry_equiv_pos_as_xyz
  1  'x, y, z'
loop_
 _atom_site_type_symbol
 _atom_site_label
 _atom_site_symmetry_multiplicity
 _atom_site_fract_x
 _atom_site_fract_y
 _atom_site_fract_z
 _atom_site_occupancy
  Tm  Tm0  1  -0.00000000  -0.00000000  0.00000000  1
  Mg  Mg0  1  0.50000000  0.50000000  0.50000000  1
  Fe  Fe0  1  0.23681813  0.23681813  0.28954461  1
  Fe  Fe1  1  0.76318187  0.76318187  0.71045539  1
  O  O0  1  0.13168536  0.13168536  0.60494292  1
  O  O1  1  0.86831464  0.86831464  0.39505708  1
  O  O2  1  0.29840225  0.29840225  0.10479426  1
  O  O3  1  0.70159775  0.70159775  0.89520574  1
loop_
_geom_bond_atom_site_label_1
_geom_bond_atom_site_label_2
_geom_bond_distance
_geom_bond_site_symmetry_2
Mg0 O1 2.211019 1_545
Mg0 O1 2.211019 1_455
Mg0 O0 2.211019 1_655
Mg0 O0 2.211019 1_565
Mg0 O0 2.211022 1_555
Mg0 O1 2.211022 1_555
Fe0 O2 2.004530 1_555
Fe0 O1 2.214205 1_445
Fe0 O1 2.214210 1_545
Fe0 O1 2.214210 1_455
Fe1 O3 2.004530 1_555
Fe1 O0 2.214205 1_665
Fe1 O0 2.214210 1_565
Fe1 O0 2.214210 1_655
O2 Tm0 2.210189 1_655
O2 Tm0 2.210189 1_565
O2 Tm0 2.210191 1_555
O3 Tm0 2.210189 1_656
O3 Tm0 2.210189 1_566
O3 Tm0 2.210191 1_666
