# generated using pymatgen
data_Lu6MgWO12
_symmetry_space_group_name_H-M   'P 1'
_cell_length_a   6.42720141
_cell_length_b   6.42720144
_cell_length_c   6.42720135
_cell_angle_alpha   99.58363752
_cell_angle_beta   99.58363913
_cell_angle_gamma   99.58362573
_symmetry_Int_Tables_number   1
_chemical_formula_structural   Lu6MgWO12
_chemical_formula_sum   'Lu6 Mg1 W1 O12'
_cell_volume   252.93969061
_cell_formula_units_Z   1
loop_
 _symmetry_equiv_pos_site_id
 _symmetry_equiv_pos_as_xyz
  1  'x, y, z'
loop_
 _atom_site_type_symbol
 _atom_site_label
 _atom_site_symmetry_multiplicity
 _atom_site_fract_x
 _atom_site_fract_y
 _atom_site_fract_z
 _atom_site_occupancy
  Lu  Lu0  1  0.13285300  0.30608500  0.65086300  1
  Lu  Lu1  1  0.39442500  0.85903500  0.66774300  1
  Lu  Lu2  1  0.30608500  0.65086300  0.13285300  1
  Lu  Lu3  1  0.66774300  0.39442500  0.85903500  1
  Lu  Lu4  1  0.65086300  0.13285300  0.30608500  1
  Lu  Lu5  1  0.85903500  0.66774300  0.39442500  1
  Mg  Mg0  1  0.27235300  0.27235300  0.27235300  1
  W  W0  1  0.97960800  0.97960800  0.97960800  1
  O  O0  1  0.05612400  0.91566800  0.67750100  1
  O  O1  1  0.09727400  0.30744600  0.97705500  1
  O  O2  1  0.18946600  0.56125400  0.41663500  1
  O  O3  1  0.30744600  0.97705500  0.09727400  1
  O  O4  1  0.40869400  0.58352500  0.82764200  1
  O  O5  1  0.41663500  0.18946600  0.56125400  1
  O  O6  1  0.58352500  0.82764200  0.40869400  1
  O  O7  1  0.56125400  0.41663500  0.18946600  1
  O  O8  1  0.67750100  0.05612400  0.91566800  1
  O  O9  1  0.82764200  0.40869400  0.58352500  1
  O  O10  1  0.91566800  0.67750100  0.05612400  1
  O  O11  1  0.97705500  0.09727400  0.30744600  1
loop_
_geom_bond_atom_site_label_1
_geom_bond_atom_site_label_2
_geom_bond_distance
_geom_bond_site_symmetry_2
Lu0 O1 2.145199 1_555
Lu0 O9 2.171043 1_455
Lu0 O5 2.209399 1_555
Lu0 O4 2.283801 1_555
Lu0 O11 2.346458 1_455
Lu0 O2 2.427793 1_555
Lu0 O0 2.515584 1_545
Lu1 O4 2.197456 1_555
Lu1 O6 2.221160 1_555
Lu1 O8 2.247012 1_565
Lu1 O0 2.272765 1_555
Lu1 O5 2.326950 1_565
Lu1 O2 2.329621 1_555
Lu2 O3 2.145199 1_555
Lu2 O4 2.171043 1_554
Lu2 O2 2.209399 1_555
Lu2 O6 2.283801 1_555
Lu2 O1 2.346458 1_554
Lu2 O7 2.427793 1_555
Lu2 O10 2.515584 1_455
Lu3 O9 2.197456 1_555
Lu3 O4 2.221160 1_555
Lu3 O10 2.247013 1_556
Lu3 O8 2.272765 1_555
Lu3 O7 2.326950 1_556
Lu3 O5 2.329621 1_555
Lu4 O11 2.145199 1_555
Lu4 O6 2.171043 1_545
Lu4 O7 2.209399 1_555
Lu4 O9 2.283801 1_555
Lu4 O3 2.346458 1_545
Lu4 O5 2.427793 1_555
Lu4 O8 2.515584 1_554
Lu5 O6 2.197455 1_555
Lu5 O9 2.221160 1_555
Lu5 O0 2.247012 1_655
Lu5 O10 2.272765 1_555
Lu5 O2 2.326950 1_655
Lu5 O7 2.329621 1_555
Mg0 O1 2.105990 1_554
Mg0 O3 2.105990 1_545
Mg0 O11 2.105991 1_455
Mg0 O2 2.124162 1_555
Mg0 O5 2.124162 1_555
Mg0 O7 2.124163 1_555
O0 W0 2.073764 1_455
O1 W0 2.120623 1_445
O3 W0 2.120623 1_454
O8 W0 2.073764 1_545
O10 W0 2.073764 1_554
O11 W0 2.120623 1_544
