# generated using pymatgen
data_DyVO3
_symmetry_space_group_name_H-M   'P 1'
_cell_length_a   5.25263721
_cell_length_b   5.66556438
_cell_length_c   7.54368515
_cell_angle_alpha   90.00000000
_cell_angle_beta   90.00000000
_cell_angle_gamma   90.00000000
_symmetry_Int_Tables_number   1
_chemical_formula_structural   DyVO3
_chemical_formula_sum   'Dy4 V4 O12'
_cell_volume   224.49369020
_cell_formula_units_Z   4
loop_
 _symmetry_equiv_pos_site_id
 _symmetry_equiv_pos_as_xyz
  1  'x, y, z'
loop_
 _atom_site_type_symbol
 _atom_site_label
 _atom_site_symmetry_multiplicity
 _atom_site_fract_x
 _atom_site_fract_y
 _atom_site_fract_z
 _atom_site_occupancy
  Dy  Dy0  1  0.01988119  0.07072232  0.75000000  1
  Dy  Dy1  1  0.51988119  0.42927768  0.25000000  1
  Dy  Dy2  1  0.48011881  0.57072232  0.75000000  1
  Dy  Dy3  1  0.98011881  0.92927768  0.25000000  1
  V  V0  1  0.50000000  0.00000000  0.50000000  1
  V  V1  1  0.00000000  0.50000000  0.50000000  1
  V  V2  1  0.00000000  0.50000000  -0.00000000  1
  V  V3  1  0.50000000  0.00000000  -0.00000000  1
  O  O0  1  0.69436724  0.69019535  0.44296610  1
  O  O1  1  0.19436724  0.80980465  0.55703390  1
  O  O2  1  0.80563276  0.19019535  0.05703390  1
  O  O3  1  0.30563276  0.30980465  0.94296610  1
  O  O4  1  0.30563276  0.30980465  0.55703390  1
  O  O5  1  0.80563276  0.19019535  0.44296610  1
  O  O6  1  0.19436724  0.80980465  0.94296610  1
  O  O7  1  0.69436724  0.69019535  0.05703390  1
  O  O8  1  0.11486917  0.54377162  0.25000000  1
  O  O9  1  0.61486917  0.95622838  0.75000000  1
  O  O10  1  0.38513083  0.04377162  0.25000000  1
  O  O11  1  0.88513083  0.45622838  0.75000000  1
loop_
_geom_bond_atom_site_label_1
_geom_bond_atom_site_label_2
_geom_bond_distance
_geom_bond_site_symmetry_2
Dy0 O9 2.224079 1_445
Dy0 O1 2.268082 1_545
Dy0 O6 2.268082 1_545
Dy0 O11 2.295933 1_455
Dy0 O3 2.491307 1_555
Dy0 O4 2.491307 1_555
Dy0 O5 2.662566 1_455
Dy0 O2 2.662566 1_456
Dy1 O8 2.224079 1_555
Dy1 O0 2.268082 1_555
Dy1 O7 2.268082 1_555
Dy1 O10 2.295933 1_555
Dy1 O5 2.491307 1_555
Dy1 O2 2.491307 1_555
Dy1 O3 2.662566 1_554
Dy1 O4 2.662566 1_555
Dy2 O11 2.224079 1_555
Dy2 O3 2.268082 1_555
Dy2 O4 2.268082 1_555
Dy2 O9 2.295933 1_555
Dy2 O6 2.491307 1_555
Dy2 O1 2.491307 1_555
Dy2 O7 2.662566 1_556
Dy2 O0 2.662566 1_555
Dy3 O10 2.224079 1_665
Dy3 O5 2.268082 1_565
Dy3 O2 2.268082 1_565
Dy3 O8 2.295933 1_655
Dy3 O0 2.491307 1_555
Dy3 O7 2.491307 1_555
Dy3 O1 2.662566 1_655
Dy3 O6 2.662566 1_654
O0 V1 1.980781 1_655
O0 V0 2.075626 1_565
O1 V0 1.980781 1_565
O1 V1 2.075626 1_555
O2 V3 1.980781 1_555
O2 V2 2.075626 1_655
O3 V2 1.980781 1_556
O3 V3 2.075626 1_556
O4 V1 1.980781 1_555
O4 V0 2.075626 1_555
O5 V0 1.980781 1_555
O5 V1 2.075626 1_655
O6 V3 1.980781 1_566
O6 V2 2.075626 1_556
O7 V2 1.980781 1_655
O7 V3 2.075626 1_565
O8 V2 1.995557 1_555
O8 V1 1.995557 1_555
O9 V3 1.995557 1_566
O9 V0 1.995557 1_565
O10 V3 1.995557 1_555
O10 V0 1.995557 1_555
O11 V2 1.995557 1_656
O11 V1 1.995557 1_655
