# generated using pymatgen
data_LiCaPb
_symmetry_space_group_name_H-M   'P 1'
_cell_length_a   4.94900786
_cell_length_b   4.94900786
_cell_length_c   10.96176079
_cell_angle_alpha   90.00000000
_cell_angle_beta   90.00000000
_cell_angle_gamma   120.00001286
_symmetry_Int_Tables_number   1
_chemical_formula_structural   LiCaPb
_chemical_formula_sum   'Li3 Ca3 Pb3'
_cell_volume   232.51296991
_cell_formula_units_Z   3
loop_
 _symmetry_equiv_pos_site_id
 _symmetry_equiv_pos_as_xyz
  1  'x, y, z'
loop_
 _atom_site_type_symbol
 _atom_site_label
 _atom_site_symmetry_multiplicity
 _atom_site_fract_x
 _atom_site_fract_y
 _atom_site_fract_z
 _atom_site_occupancy
  Li  Li0  1  0.66666700  0.33333300  0.80445157  1
  Li  Li1  1  0.33333300  0.66666700  0.50000000  1
  Li  Li2  1  0.66666700  0.33333300  0.19554843  1
  Ca  Ca0  1  -0.00000000  -0.00000000  0.33345810  1
  Ca  Ca1  1  0.00000000  -0.00000000  0.66654190  1
  Ca  Ca2  1  0.00000000  -0.00000000  0.00000000  1
  Pb  Pb0  1  0.33333300  0.66666700  0.15155337  1
  Pb  Pb1  1  0.33333300  0.66666700  0.84844663  1
  Pb  Pb2  1  0.66666700  0.33333300  0.50000000  1
loop_
_geom_bond_atom_site_label_1
_geom_bond_atom_site_label_2
_geom_bond_distance
_geom_bond_site_symmetry_2
Li0 Pb1 2.897721 1_545
Li0 Pb1 2.897721 1_655
Li0 Pb1 2.897730 1_555
Li0 Pb2 3.337325 1_555
Li1 Pb2 2.857308 1_455
Li1 Pb2 2.857308 1_565
Li1 Pb2 2.857317 1_555
Li2 Pb0 2.897721 1_545
Li2 Pb0 2.897721 1_655
Li2 Pb0 2.897730 1_555
Li2 Pb2 3.337325 1_555
Ca0 Li2 3.232576 1_455
Ca0 Li2 3.232579 1_555
Ca0 Li2 3.232579 1_445
Ca0 Li1 3.390722 1_545
Ca0 Pb2 3.390722 1_455
Ca0 Li1 3.390726 1_555
Ca0 Pb2 3.390726 1_445
Ca0 Pb2 3.390726 1_555
Ca0 Li1 3.390726 1_445
Ca0 Pb0 3.484284 1_545
Ca0 Pb0 3.484287 1_445
Ca0 Pb0 3.484287 1_555
Ca0 Ca1 3.651185 1_555
Ca0 Ca2 3.655288 1_555
Ca1 Li0 3.232576 1_455
Ca1 Li0 3.232579 1_555
Ca1 Li0 3.232579 1_445
Ca1 Li1 3.390722 1_545
Ca1 Pb2 3.390722 1_455
Ca1 Li1 3.390726 1_555
Ca1 Pb2 3.390726 1_445
Ca1 Pb2 3.390726 1_555
Ca1 Li1 3.390726 1_445
Ca1 Pb1 3.484284 1_545
Ca1 Pb1 3.484287 1_445
Ca1 Pb1 3.484287 1_555
Ca1 Ca2 3.655288 1_556
Ca2 Pb0 3.305163 1_545
Ca2 Pb1 3.305163 1_544
Ca2 Pb1 3.305166 1_554
Ca2 Pb0 3.305166 1_555
Ca2 Pb0 3.305166 1_445
Ca2 Pb1 3.305166 1_444
Ca2 Li0 3.571980 1_454
Ca2 Li2 3.571980 1_455
Ca2 Li0 3.571983 1_444
Ca2 Li0 3.571983 1_554
Ca2 Li2 3.571983 1_555
Ca2 Li2 3.571983 1_445
Pb0 Pb1 3.322584 1_554
