# generated using pymatgen
data_Na10Nb4In4Si9(SO16)3
_symmetry_space_group_name_H-M   'P 1'
_cell_length_a   18.25581253
_cell_length_b   9.09257595
_cell_length_c   22.81452165
_cell_angle_alpha   90.06003566
_cell_angle_beta   89.67678328
_cell_angle_gamma   119.79405748
_symmetry_Int_Tables_number   1
_chemical_formula_structural   Na10Nb4In4Si9(SO16)3
_chemical_formula_sum   'Na30 Nb12 In12 Si27 S9 O144'
_cell_volume   3286.39547043
_cell_formula_units_Z   3
loop_
 _symmetry_equiv_pos_site_id
 _symmetry_equiv_pos_as_xyz
  1  'x, y, z'
loop_
 _atom_site_type_symbol
 _atom_site_label
 _atom_site_symmetry_multiplicity
 _atom_site_fract_x
 _atom_site_fract_y
 _atom_site_fract_z
 _atom_site_occupancy
  Na  Na0  1  0.18571666  0.36323687  0.24502277  1
  Na  Na1  1  0.68571487  0.36394064  0.24465192  1
  Na  Na2  1  0.18624013  0.00868645  0.74449891  1
  Na  Na3  1  0.68496455  0.00642410  0.74442577  1
  Na  Na4  1  0.65154923  0.34309065  0.58129571  1
  Na  Na5  1  0.02132285  0.70159396  0.57742289  1
  Na  Na6  1  0.51931494  0.68880158  0.58114966  1
  Na  Na7  1  0.32659383  0.96994118  0.58510293  1
  Na  Na8  1  0.15219070  0.96161091  0.08126056  1
  Na  Na9  1  0.65220251  0.96150930  0.08106102  1
  Na  Na10  1  0.32706941  0.68614373  0.08390336  1
  Na  Na11  1  0.82721567  0.68658412  0.08385775  1
  Na  Na12  1  0.02057749  0.35085425  0.08099589  1
  Na  Na13  1  0.52056701  0.35102268  0.08088719  1
  Na  Na14  1  0.48840533  0.67468954  0.91470366  1
  Na  Na15  1  0.98834822  0.67465424  0.91546523  1
  Na  Na16  1  0.35218091  0.66657002  0.41169875  1
  Na  Na17  1  0.85272460  0.67457431  0.41091998  1
  Na  Na18  1  0.01198305  0.02009763  0.49417114  1
  Na  Na19  1  0.51034044  0.01016224  0.49334709  1
  Na  Na20  1  0.00706245  0.01954221  0.99255837  1
  Na  Na21  1  0.50729972  0.01980495  0.99232806  1
  Na  Na22  1  0.34058856  0.33267438  0.82835107  1
  Na  Na23  1  0.83964624  0.33090555  0.82979893  1
  Na  Na24  1  0.34320394  0.33775222  0.32989592  1
  Na  Na25  1  0.84464613  0.33651509  0.32714929  1
  Na  Na26  1  0.16640695  0.67300275  0.16298622  1
  Na  Na27  1  0.66656685  0.67302340  0.16252706  1
  Na  Na28  1  0.17298047  0.65926035  0.66378524  1
  Na  Na29  1  0.67109000  0.66984985  0.66032265  1
  Nb  Nb0  1  0.99501770  0.98415690  0.64667610  1
  Nb  Nb1  1  0.49289809  0.98350174  0.64357755  1
  Nb  Nb2  1  0.99445269  0.00100161  0.14528945  1
  Nb  Nb3  1  0.49414123  0.00086188  0.14508436  1
  Nb  Nb4  1  0.33376434  0.32217320  0.98027893  1
  Nb  Nb5  1  0.83364476  0.32208370  0.98038310  1
  Nb  Nb6  1  0.33394185  0.33881926  0.48159080  1
  Nb  Nb7  1  0.82901287  0.34181065  0.47752353  1
  Nb  Nb8  1  0.16058649  0.64415273  0.31265930  1
  Nb  Nb9  1  0.66024495  0.64711699  0.31201913  1
  Nb  Nb10  1  0.16253539  0.67788806  0.81251135  1
  Nb  Nb11  1  0.66156706  0.67767445  0.81196064  1
  In  In0  1  0.00182166  0.99963852  0.35199645  1
  In  In1  1  0.50084469  0.99819820  0.35164847  1
  In  In2  1  0.99890999  0.00699595  0.85129485  1
  In  In3  1  0.49907338  0.00705557  0.85117873  1
  In  In4  1  0.33812055  0.33638729  0.68424901  1
  In  In5  1  0.83565608  0.33330708  0.68561372  1
  In  In6  1  0.33903007  0.34214684  0.18472980  1
  In  In7  1  0.83914226  0.34245317  0.18449404  1
  In  In8  1  0.16367314  0.66336735  0.01589934  1
  In  In9  1  0.66372377  0.66333387  0.01574503  1
  In  In10  1  0.16522656  0.66413114  0.51609392  1
  In  In11  1  0.66479713  0.66875053  0.51820104  1
  Si  Si0  1  0.35205937  0.70670832  0.25314156  1
  Si  Si1  1  0.85249255  0.70726056  0.25347279  1
  Si  Si2  1  0.99475655  0.28590726  0.25134401  1
  Si  Si3  1  0.49457519  0.28553588  0.25142102  1
  Si  Si4  1  0.99532489  0.70190414  0.75293318  1
  Si  Si5  1  0.49400449  0.70302834  0.75248067  1
  Si  Si6  1  0.35283656  0.99914610  0.75149045  1
  Si  Si7  1  0.85287232  0.99866428  0.75167293  1
  Si  Si8  1  0.48000316  0.33189655  0.58283882  1
  Si  Si9  1  0.18616899  0.04452872  0.58493957  1
  Si  Si10  1  0.68904090  0.04247527  0.58596967  1
  Si  Si11  1  0.32716704  0.61751651  0.58472749  1
  Si  Si12  1  0.83195724  0.62539768  0.58429653  1
  Si  Si13  1  0.47987411  0.62752856  0.08171963  1
  Si  Si14  1  0.97991337  0.62775563  0.08168493  1
  Si  Si15  1  0.33098945  0.03973112  0.08496342  1
  Si  Si16  1  0.83108431  0.03961132  0.08502634  1
  Si  Si17  1  0.18826242  0.33159462  0.08522593  1
  Si  Si18  1  0.68825063  0.33165721  0.08529895  1
  Si  Si19  1  0.01976216  0.36955214  0.91799597  1
  Si  Si20  1  0.51992565  0.36956107  0.91798248  1
  Si  Si21  1  0.16696962  0.96755627  0.91809046  1
  Si  Si22  1  0.66696284  0.96734310  0.91806760  1
  Si  Si23  1  0.16516194  0.36431106  0.41869182  1
  Si  Si24  1  0.66206163  0.36751860  0.41826618  1
  Si  Si25  1  0.02048067  0.66685294  0.41916781  1
  Si  Si26  1  0.51933385  0.66662819  0.41851898  1
  S  S0  1  0.14596325  0.99477541  0.24863624  1
  S  S1  1  0.64607144  0.99526114  0.24878860  1
  S  S2  1  0.14483937  0.29443762  0.74897012  1
  S  S3  1  0.64574335  0.29700138  0.74910928  1
  S  S4  1  0.97850846  0.32784897  0.58243727  1
  S  S5  1  0.31134320  0.66200947  0.91648993  1
  S  S6  1  0.81136386  0.66193311  0.91638389  1
  S  S7  1  0.31112032  0.96156796  0.41591390  1
  S  S8  1  0.81091609  0.96074386  0.41627772  1
  O  O0  1  0.10742561  0.02372760  0.30145654  1
  O  O1  1  0.60759406  0.02382344  0.30163596  1
  O  O2  1  0.40586248  0.78479321  0.31129357  1
  O  O3  1  0.90602293  0.78517078  0.31181221  1
  O  O4  1  0.49264016  0.18319053  0.30798352  1
  O  O5  1  0.99155416  0.18183716  0.30769930  1
  O  O6  1  0.10864359  0.18988349  0.80236093  1
  O  O7  1  0.60804018  0.18962127  0.80167149  1
  O  O8  1  0.49235990  0.79438539  0.81203888  1
  O  O9  1  0.98994638  0.79064377  0.81182382  1
  O  O10  1  0.41020107  0.03096739  0.80689020  1
  O  O11  1  0.91010844  0.03187354  0.80729408  1
  O  O12  1  0.40220318  0.97448477  0.69151628  1
  O  O13  1  0.90597353  0.97753672  0.69333754  1
  O  O14  1  0.09007944  0.20992693  0.69680973  1
  O  O15  1  0.59365587  0.21710600  0.69554639  1
  O  O16  1  0.01527328  0.83306081  0.69416235  1
  O  O17  1  0.51528095  0.83393043  0.69395336  1
  O  O18  1  0.40418555  0.83244804  0.19410287  1
  O  O19  1  0.90426503  0.83226005  0.19434625  1
  O  O20  1  0.01563707  0.19946587  0.19187091  1
  O  O21  1  0.51591704  0.19960658  0.19204451  1
  O  O22  1  0.09275360  0.97090597  0.19518809  1
  O  O23  1  0.59301109  0.97045014  0.19535143  1
  O  O24  1  0.44221214  0.37518610  0.63887374  1
  O  O25  1  0.94209130  0.35884451  0.63616580  1
  O  O26  1  0.24114173  0.11293279  0.64379032  1
  O  O27  1  0.73933639  0.12121035  0.64546180  1
  O  O28  1  0.31416141  0.51016913  0.64197059  1
  O  O29  1  0.81840170  0.50692007  0.63912253  1
  O  O30  1  0.44187965  0.50703628  0.13736502  1
  O  O31  1  0.94196265  0.50725370  0.13732208  1
  O  O32  1  0.30877378  0.11680017  0.14009884  1
  O  O33  1  0.80869058  0.11675506  0.14008697  1
  O  O34  1  0.24116239  0.36653065  0.14468016  1
  O  O35  1  0.74109786  0.36653112  0.14481440  1
  O  O36  1  0.23833444  0.29938467  0.02887129  1
  O  O37  1  0.73834981  0.29943689  0.02897259  1
  O  O38  1  0.41678041  0.53974288  0.02365110  1
  O  O39  1  0.91686926  0.53969013  0.02360294  1
  O  O40  1  0.35235364  0.16975925  0.02677097  1
  O  O41  1  0.85235113  0.16977698  0.02682605  1
  O  O42  1  0.23771589  0.16984055  0.52763546  1
  O  O43  1  0.74142665  0.17587060  0.52918619  1
  O  O44  1  0.34913706  0.53508203  0.52549812  1
  O  O45  1  0.85173847  0.53620616  0.52464734  1
  O  O46  1  0.41446501  0.29707447  0.52629526  1
  O  O47  1  0.92512735  0.30403593  0.53030523  1
  O  O48  1  0.27574869  0.68584893  0.97189286  1
  O  O49  1  0.77607506  0.68592503  0.97195495  1
  O  O50  1  0.06993111  0.44620711  0.97827274  1
  O  O51  1  0.56988173  0.44572960  0.97839511  1
  O  O52  1  0.15193445  0.85484838  0.97592203  1
  O  O53  1  0.65225812  0.85525154  0.97606074  1
  O  O54  1  0.27604632  0.86457889  0.47127736  1
  O  O55  1  0.77383857  0.85654044  0.46970657  1
  O  O56  1  0.15565029  0.45991769  0.47406141  1
  O  O57  1  0.65873171  0.45774422  0.47719425  1
  O  O58  1  0.07075078  0.69604832  0.47938576  1
  O  O59  1  0.57255192  0.69949633  0.47739564  1
  O  O60  1  0.07425391  0.64581845  0.36238317  1
  O  O61  1  0.57439595  0.64674540  0.36148078  1
  O  O62  1  0.25680844  0.87118772  0.36480793  1
  O  O63  1  0.75772586  0.87923608  0.36389880  1
  O  O64  1  0.18153921  0.49494964  0.35870582  1
  O  O65  1  0.68237270  0.49800285  0.35964762  1
  O  O66  1  0.07371065  0.50593981  0.86208758  1
  O  O67  1  0.57381918  0.50616529  0.86222491  1
  O  O68  1  0.18061290  0.86666733  0.85909457  1
  O  O69  1  0.68074608  0.86727602  0.85908345  1
  O  O70  1  0.25743326  0.64470046  0.86533389  1
  O  O71  1  0.75790349  0.64472413  0.86534692  1
  O  O72  1  0.99728555  0.81635681  0.41273527  1
  O  O73  1  0.49811455  0.81936275  0.41230923  1
  O  O74  1  0.39547105  0.97644421  0.41136752  1
  O  O75  1  0.89528809  0.97760813  0.41146309  1
  O  O76  1  0.08480212  0.17969103  0.41188756  1
  O  O77  1  0.58492589  0.18027988  0.41189315  1
  O  O78  1  0.00489189  0.18143168  0.91286967  1
  O  O79  1  0.50492887  0.18139101  0.91268324  1
  O  O80  1  0.08061073  0.97303501  0.91037601  1
  O  O81  1  0.58080674  0.97395642  0.91097739  1
  O  O82  1  0.39791948  0.80772676  0.91234541  1
  O  O83  1  0.89832451  0.80797738  0.91240021  1
  O  O84  1  0.48525186  0.15408846  0.58962165  1
  O  O85  1  0.98715770  0.17364537  0.58870349  1
  O  O86  1  0.09082520  0.02829181  0.59155639  1
  O  O87  1  0.59515393  0.03736530  0.59048702  1
  O  O88  1  0.42061448  0.80663057  0.58973991  1
  O  O89  1  0.92317914  0.81087730  0.59042607  1
  O  O90  1  0.48581738  0.81657285  0.09058162  1
  O  O91  1  0.98571628  0.81654574  0.09047271  1
  O  O92  1  0.42161120  0.03430929  0.09030570  1
  O  O93  1  0.92161215  0.03411094  0.09038527  1
  O  O94  1  0.09420703  0.15431214  0.09085740  1
  O  O95  1  0.59426329  0.15434479  0.09093468  1
  O  O96  1  0.32828946  0.14682700  0.74639336  1
  O  O97  1  0.83023605  0.14907055  0.74551061  1
  O  O98  1  0.22861371  0.30997626  0.74289123  1
  O  O99  1  0.73002252  0.31279532  0.74445617  1
  O  O100  1  0.41514253  0.51704150  0.74829518  1
  O  O101  1  0.91777140  0.51545273  0.74516352  1
  O  O102  1  0.32944562  0.51138479  0.24706649  1
  O  O103  1  0.82957523  0.51139720  0.24751124  1
  O  O104  1  0.41558110  0.31355295  0.24738177  1
  O  O105  1  0.91559726  0.31372439  0.24713023  1
  O  O106  1  0.22924587  0.14788413  0.24344004  1
  O  O107  1  0.72946064  0.14765544  0.24368144  1
  O  O108  1  0.31826921  0.50410204  0.91941567  1
  O  O109  1  0.81870657  0.50428894  0.91949995  1
  O  O110  1  0.42875509  0.37515842  0.92215971  1
  O  O111  1  0.92869065  0.37538655  0.92190849  1
  O  O112  1  0.25487924  0.15347716  0.92275237  1
  O  O113  1  0.75500033  0.15373551  0.92274855  1
  O  O114  1  0.31812108  0.13143089  0.41957169  1
  O  O115  1  0.81932723  0.13272344  0.42298077  1
  O  O116  1  0.25693003  0.36522727  0.42223664  1
  O  O117  1  0.75564044  0.36556938  0.42246226  1
  O  O118  1  0.42523696  0.48842755  0.42267747  1
  O  O119  1  0.92582628  0.48533968  0.42456258  1
  O  O120  1  0.17557789  0.49486908  0.07746055  1
  O  O121  1  0.67564213  0.49498595  0.07752952  1
  O  O122  1  0.07583764  0.66126207  0.07879890  1
  O  O123  1  0.57584535  0.66118378  0.07881756  1
  O  O124  1  0.25608061  0.84776516  0.07572559  1
  O  O125  1  0.75607264  0.84768113  0.07577926  1
  O  O126  1  0.17058634  0.85147432  0.57771911  1
  O  O127  1  0.66906300  0.85026842  0.57944535  1
  O  O128  1  0.25629924  0.67285311  0.57723657  1
  O  O129  1  0.75144280  0.64766640  0.57660334  1
  O  O130  1  0.06289687  0.48110392  0.57796761  1
  O  O131  1  0.57498431  0.48956930  0.57837666  1
  O  O132  1  0.15338545  0.83972062  0.25460857  1
  O  O133  1  0.65360285  0.83971442  0.25484045  1
  O  O134  1  0.25761007  0.69899561  0.25798063  1
  O  O135  1  0.75784565  0.69897020  0.25830686  1
  O  O136  1  0.08750602  0.47665541  0.25639039  1
  O  O137  1  0.58779827  0.47679475  0.25672497  1
  O  O138  1  0.15212562  0.46494983  0.75523520  1
  O  O139  1  0.65367403  0.46745387  0.75614525  1
  O  O140  1  0.08855324  0.69986640  0.75610610  1
  O  O141  1  0.58776493  0.69903854  0.75670960  1
  O  O142  1  0.25803111  0.81709154  0.75805024  1
  O  O143  1  0.75826101  0.81898330  0.75766304  1
loop_
_geom_bond_atom_site_label_1
_geom_bond_atom_site_label_2
_geom_bond_distance
_geom_bond_site_symmetry_2
Na0 O102 2.278218 1_555
Na0 O106 2.452112 1_555
Na0 O136 2.485349 1_555
Na0 O34 2.492004 1_555
Na0 O134 2.674106 1_555
Na0 O64 2.872106 1_555
Na0 O20 2.961841 1_555
Na0 O0 2.972043 1_555
Na1 O103 2.280735 1_555
Na1 O107 2.462969 1_555
Na1 O137 2.478070 1_555
Na1 O35 2.482214 1_555
Na1 O135 2.669670 1_555
Na1 O65 2.904849 1_555
Na1 O21 2.952499 1_555
Na1 O1 2.982020 1_555
Na2 O96 2.251350 1_555
Na2 O98 2.449189 1_555
Na2 O140 2.480928 1_545
Na2 O26 2.493298 1_555
Na2 O142 2.668859 1_545
Na2 O68 2.895790 1_545
Na2 O16 2.948549 1_545
Na2 O6 2.959304 1_555
Na3 O97 2.301866 1_555
Na3 O141 2.471096 1_545
Na3 O27 2.474355 1_555
Na3 O99 2.481857 1_555
Na3 O143 2.656753 1_545
Na3 O69 2.890892 1_545
Na3 O17 2.930861 1_545
Na3 O7 2.958359 1_555
Na4 O131 2.362898 1_555
Na4 O87 2.446642 1_555
Na4 O129 2.446655 1_555
Na4 O57 2.571103 1_555
Na4 O84 2.648677 1_555
Na4 O15 2.827632 1_555
Na4 O29 2.961394 1_555
Na4 O43 2.978382 1_555
Na5 O126 2.364803 1_555
Na5 O58 2.416956 1_555
Na5 O89 2.459305 1_455
Na5 O130 2.471390 1_555
Na5 O86 2.606709 1_565
Na5 O16 2.942070 1_555
Na5 O45 2.950832 1_455
Na5 O25 3.017930 1_455
Na6 O127 2.375044 1_555
Na6 O131 2.479336 1_555
Na6 O88 2.519311 1_555
Na6 O59 2.537277 1_555
Na6 O87 2.765548 1_565
Na6 O24 2.800938 1_555
Na6 O17 2.908143 1_555
Na6 O44 2.990481 1_555
Na7 O128 2.352165 1_555
Na7 O126 2.501270 1_555
Na7 O84 2.527250 1_565
Na7 O54 2.767017 1_555
Na7 O88 2.774438 1_555
Na7 O12 2.789616 1_555
Na7 O26 2.811606 1_565
Na7 O46 2.909163 1_565
Na8 O122 2.371032 1_555
Na8 O94 2.465404 1_565
Na8 O124 2.575385 1_555
Na8 O52 2.590115 1_554
Na8 O91 2.651408 1_455
Na8 O32 2.827584 1_565
Na8 O22 2.828291 1_555
Na8 O36 2.919058 1_565
Na9 O123 2.370727 1_555
Na9 O95 2.466446 1_565
Na9 O125 2.574674 1_555
Na9 O53 2.582272 1_554
Na9 O90 2.650553 1_555
Na9 O33 2.828312 1_565
Na9 O23 2.833426 1_555
Na9 O37 2.917368 1_565
Na10 O124 2.402046 1_555
Na10 O120 2.432910 1_555
Na10 O90 2.533294 1_555
Na10 O48 2.726298 1_554
Na10 O92 2.755736 1_565
Na10 O18 2.871298 1_555
Na10 O34 2.877903 1_555
Na10 O38 2.912231 1_555
Na11 O125 2.400046 1_555
Na11 O121 2.434351 1_555
Na11 O91 2.529510 1_555
Na11 O49 2.722283 1_554
Na11 O93 2.750883 1_565
Na11 O19 2.875522 1_555
Na11 O35 2.882987 1_555
Na11 O39 2.914735 1_555
Na12 O120 2.458367 1_555
Na12 O122 2.481205 1_555
Na12 O50 2.501996 1_554
Na12 O93 2.535854 1_455
Na12 O94 2.728085 1_555
Na12 O31 2.781541 1_455
Na12 O20 2.860584 1_555
Na12 O41 2.946778 1_455
Na13 O121 2.459489 1_555
Na13 O123 2.479001 1_555
Na13 O51 2.495952 1_554
Na13 O92 2.535670 1_555
Na13 O95 2.730561 1_555
Na13 O30 2.781455 1_555
Na13 O21 2.867530 1_555
Na13 O40 2.946146 1_555
Na14 O110 2.384081 1_555
Na14 O81 2.386314 1_555
Na14 O82 2.486323 1_555
Na14 O8 2.569276 1_555
Na14 O108 2.696937 1_555
Na14 O38 2.787247 1_556
Na14 O67 2.926164 1_555
Na14 O53 2.960519 1_555
Na15 O111 2.380367 1_555
Na15 O80 2.380829 1_655
Na15 O83 2.481276 1_555
Na15 O9 2.584181 1_555
Na15 O109 2.688635 1_555
Na15 O39 2.770202 1_556
Na15 O66 2.935161 1_655
Na15 O52 2.946983 1_655
Na16 O73 2.313035 1_555
Na16 O116 2.418856 1_555
Na16 O2 2.509215 1_555
Na16 O74 2.519998 1_555
Na16 O118 2.572275 1_555
Na16 O44 2.848154 1_555
Na16 O64 2.967981 1_555
Na17 O72 2.290963 1_555
Na17 O75 2.463394 1_555
Na17 O3 2.465384 1_555
Na17 O117 2.480391 1_555
Na17 O119 2.669485 1_555
Na17 O45 2.880822 1_555
Na17 O65 2.948350 1_555
Na17 O55 2.991943 1_555
Na18 O76 2.336145 1_555
Na18 O72 2.541687 1_445
Na18 O86 2.634912 1_555
Na18 O85 2.723504 1_455
Na18 O75 2.733893 1_445
Na18 O89 2.823719 1_445
Na19 O77 2.363146 1_555
Na19 O73 2.467974 1_545
Na19 O87 2.650860 1_555
Na19 O84 2.706486 1_555
Na19 O74 2.719154 1_545
Na19 O88 2.810629 1_545
Na20 O78 2.353308 1_555
Na20 O80 2.455858 1_545
Na20 O94 2.675664 1_556
Na20 O83 2.687793 1_445
Na20 O93 2.756402 1_456
Na20 O91 2.798729 1_446
Na21 O79 2.351999 1_555
Na21 O81 2.438326 1_545
Na21 O95 2.680006 1_556
Na21 O82 2.691235 1_545
Na21 O92 2.761529 1_556
Na21 O90 2.805696 1_546
Na22 O100 2.389458 1_555
Na22 O96 2.454232 1_555
Na22 O110 2.596071 1_555
Na22 O112 2.679062 1_555
Na22 O108 2.743510 1_555
Na22 O98 2.765431 1_555
Na23 O101 2.485096 1_555
Na23 O97 2.485115 1_555
Na23 O111 2.570119 1_555
Na23 O113 2.641269 1_555
Na23 O109 2.720827 1_555
Na23 O99 2.745727 1_555
Na24 O104 2.366037 1_555
Na24 O102 2.555833 1_555
Na24 O118 2.567327 1_555
Na24 O114 2.656797 1_555
Na24 O116 2.708087 1_555
Na24 O106 2.769296 1_555
Na25 O105 2.300596 1_555
Na25 O103 2.520280 1_555
Na25 O119 2.646626 1_555
Na25 O107 2.728876 1_555
Na25 O115 2.751960 1_555
Na25 O117 2.797150 1_555
Na26 O122 2.508832 1_555
Na26 O124 2.559895 1_555
Na26 O120 2.591892 1_555
Na26 O132 2.658900 1_555
Na26 O134 2.678359 1_555
Na26 O136 2.687176 1_555
Na27 O123 2.501989 1_555
Na27 O125 2.549548 1_555
Na27 O121 2.581620 1_555
Na27 O133 2.670761 1_555
Na27 O135 2.693832 1_555
Na27 O137 2.700606 1_555
Na28 O128 2.451039 1_555
Na28 O142 2.629119 1_555
Na28 O138 2.636244 1_555
Na28 O126 2.645008 1_555
Na28 O130 2.701617 1_555
Na28 O140 2.734129 1_555
Na29 O129 2.470279 1_555
Na29 O127 2.482867 1_555
Na29 O131 2.536341 1_555
Na29 O143 2.681822 1_555
Na29 O141 2.753602 1_555
Na29 O139 2.772392 1_555
Nb0 O13 1.913836 1_555
Nb0 O16 1.926243 1_655
Nb0 O89 1.952069 1_555
Nb0 O86 2.019976 1_665
Nb0 O85 2.234060 1_565
Nb0 O14 2.238567 1_665
Nb1 O88 1.934306 1_555
Nb1 O12 1.946569 1_555
Nb1 O17 1.974399 1_555
Nb1 O84 2.040029 1_565
Nb1 O87 2.063717 1_565
Nb1 O15 2.331843 1_565
Nb2 O19 1.946765 1_545
Nb2 O20 1.960218 1_655
Nb2 O93 1.960957 1_555
Nb2 O91 2.033332 1_545
Nb2 O94 2.063277 1_655
Nb2 O22 2.258992 1_645
Nb3 O18 1.943260 1_545
Nb3 O92 1.956332 1_555
Nb3 O21 1.964263 1_555
Nb3 O90 2.030230 1_545
Nb3 O95 2.063467 1_555
Nb3 O23 2.273657 1_545
Nb4 O40 1.906644 1_556
Nb4 O36 1.981665 1_556
Nb4 O112 1.992769 1_555
Nb4 O110 2.035349 1_555
Nb4 O38 2.054967 1_556
Nb4 O108 2.284465 1_555
Nb5 O41 1.906383 1_556
Nb5 O37 1.980027 1_556
Nb5 O113 1.991597 1_555
Nb5 O111 2.040803 1_555
Nb5 O39 2.054485 1_556
Nb5 O109 2.281783 1_555
Nb6 O44 1.942269 1_555
Nb6 O42 1.962261 1_555
Nb6 O46 1.979256 1_555
Nb6 O118 2.039679 1_555
Nb6 O116 2.055620 1_555
Nb6 O114 2.258117 1_555
Nb7 O45 1.929906 1_555
Nb7 O117 1.930285 1_555
Nb7 O43 1.951257 1_555
Nb7 O119 1.993452 1_555
Nb7 O115 2.203977 1_555
Nb7 O47 2.295746 1_555
Nb8 O64 1.900950 1_555
Nb8 O136 1.934796 1_555
Nb8 O60 1.942850 1_555
Nb8 O134 2.010167 1_555
Nb8 O132 2.274330 1_555
Nb8 O62 2.275401 1_555
Nb9 O61 1.924692 1_555
Nb9 O137 1.928276 1_555
Nb9 O65 1.932495 1_555
Nb9 O135 2.010081 1_555
Nb9 O133 2.236237 1_555
Nb9 O63 2.303985 1_555
Nb10 O68 1.903136 1_555
Nb10 O140 1.951523 1_555
Nb10 O66 1.953644 1_555
Nb10 O142 1.992775 1_555
Nb10 O70 2.255783 1_555
Nb10 O138 2.263671 1_555
Nb11 O69 1.910752 1_555
Nb11 O141 1.929169 1_555
Nb11 O67 1.952832 1_555
Nb11 O143 2.006535 1_555
Nb11 O139 2.240357 1_555
Nb11 O71 2.283600 1_555
In0 O5 2.028602 1_465
In0 O3 2.080144 1_455
In0 O76 2.096700 1_565
In0 O72 2.137927 1_455
In0 O0 2.156396 1_565
In0 O75 2.290608 1_455
In1 O4 2.024776 1_565
In1 O2 2.071257 1_555
In1 O77 2.116560 1_565
In1 O73 2.117855 1_555
In1 O1 2.162923 1_565
In1 O74 2.277902 1_555
In2 O11 2.017489 1_555
In2 O78 2.079890 1_655
In2 O9 2.094187 1_545
In2 O80 2.148971 1_645
In2 O6 2.166311 1_655
In2 O83 2.294386 1_545
In3 O10 2.017432 1_555
In3 O8 2.076960 1_545
In3 O79 2.078882 1_555
In3 O81 2.155993 1_545
In3 O7 2.164603 1_555
In3 O82 2.300550 1_545
In4 O24 2.029666 1_555
In4 O28 2.076841 1_555
In4 O100 2.129134 1_555
In4 O26 2.134093 1_555
In4 O96 2.169782 1_555
In4 O98 2.310321 1_555
In5 O29 2.053684 1_555
In5 O27 2.072380 1_555
In5 O101 2.094504 1_555
In5 O97 2.126490 1_555
In5 O25 2.151635 1_555
In5 O99 2.273701 1_555
In6 O30 2.030744 1_555
In6 O32 2.101782 1_555
In6 O104 2.109054 1_555
In6 O34 2.118645 1_555
In6 O102 2.163637 1_555
In6 O106 2.321107 1_555
In7 O31 2.027904 1_555
In7 O33 2.101229 1_555
In7 O105 2.108089 1_555
In7 O35 2.116420 1_555
In7 O103 2.171723 1_555
In7 O107 2.328083 1_555
In8 O50 2.054113 1_554
In8 O52 2.070114 1_554
In8 O122 2.138806 1_555
In8 O120 2.169320 1_555
In8 O124 2.174938 1_555
In8 O48 2.190350 1_554
In9 O51 2.054326 1_554
In9 O53 2.068108 1_554
In9 O123 2.141872 1_555
In9 O121 2.171708 1_555
In9 O125 2.177336 1_555
In9 O49 2.192209 1_554
In10 O56 2.018297 1_555
In10 O58 2.067490 1_555
In10 O128 2.147396 1_555
In10 O126 2.172290 1_555
In10 O54 2.185516 1_555
In10 O130 2.266647 1_555
In11 O59 2.065624 1_555
In11 O57 2.086814 1_555
In11 O127 2.133330 1_555
In11 O131 2.133569 1_555
In11 O129 2.154023 1_555
In11 O55 2.168766 1_555
O0 S0 1.479959 1_545
O1 S1 1.478385 1_545
O2 Si0 1.596468 1_555
O3 Si1 1.597840 1_555
O4 Si3 1.581714 1_555
O5 Si2 1.580707 1_555
O6 S2 1.480949 1_555
O7 S3 1.479992 1_555
O8 Si5 1.599747 1_555
O9 Si4 1.593993 1_555
O10 Si6 1.578278 1_545
O11 Si7 1.579200 1_545
O12 Si6 1.709082 1_555
O13 Si7 1.708187 1_555
O14 S2 1.501363 1_555
O15 S3 1.500009 1_555
O16 Si4 1.708472 1_455
O17 Si5 1.699569 1_555
O18 Si0 1.713040 1_555
O19 Si1 1.710567 1_555
O20 Si2 1.701110 1_455
O21 Si3 1.700490 1_555
O22 S0 1.510270 1_555
O23 S1 1.507013 1_555
O24 Si8 1.588739 1_555
O25 S4 1.483329 1_555
O26 Si9 1.609307 1_555
O27 Si10 1.598935 1_555
O28 Si11 1.575917 1_555
O29 Si12 1.587678 1_555
O30 Si13 1.590880 1_555
O31 Si14 1.590701 1_555
O32 Si15 1.585135 1_555
O33 Si16 1.585706 1_555
O34 Si17 1.606996 1_555
O35 Si18 1.607749 1_555
O36 Si17 1.681189 1_555
O37 Si18 1.681050 1_555
O38 Si13 1.679369 1_555
O39 Si14 1.679544 1_555
O40 Si15 1.688709 1_555
O41 Si16 1.689800 1_555
O42 Si9 1.678303 1_555
O43 Si10 1.703119 1_555
O44 Si11 1.684986 1_555
O45 Si12 1.709749 1_555
O46 Si8 1.684037 1_555
O47 S4 1.487954 1_555
O48 S5 1.482243 1_555
O49 S6 1.483195 1_555
O50 Si19 1.610460 1_555
O51 Si20 1.611070 1_555
O52 Si21 1.607978 1_555
O53 Si22 1.608823 1_555
O54 S7 1.488341 1_555
O55 S8 1.482399 1_555
O56 Si23 1.589603 1_555
O57 Si24 1.590756 1_555
O58 Si25 1.603586 1_555
O59 Si26 1.600889 1_555
O60 Si25 1.688294 1_555
O61 Si26 1.703479 1_555
O62 S7 1.489693 1_555
O63 S8 1.488708 1_555
O64 Si23 1.737571 1_555
O65 Si24 1.701231 1_555
O66 Si19 1.705936 1_555
O67 Si20 1.704032 1_555
O68 Si21 1.713433 1_555
O69 Si22 1.709737 1_555
O70 S5 1.487996 1_555
O71 S6 1.481032 1_555
O72 Si25 1.619228 1_655
O73 Si26 1.623085 1_555
O74 S7 1.480390 1_555
O75 S8 1.473585 1_555
O76 Si23 1.596536 1_555
O77 Si24 1.588044 1_555
O78 Si19 1.597394 1_555
O79 Si20 1.597298 1_555
O80 Si21 1.612504 1_555
O81 Si22 1.612612 1_555
O82 S5 1.476479 1_555
O83 S6 1.481737 1_555
O84 Si8 1.673797 1_555
O85 S4 1.493976 1_555
O86 Si9 1.678068 1_555
O87 Si10 1.693929 1_555
O88 Si11 1.722436 1_555
O89 Si12 1.687661 1_555
O90 Si13 1.679717 1_555
O91 Si14 1.678361 1_555
O92 Si15 1.684510 1_555
O93 Si16 1.683200 1_555
O94 Si17 1.676474 1_555
O95 Si18 1.675927 1_555
O96 Si6 1.617517 1_545
O97 Si7 1.619720 1_545
O98 S2 1.470061 1_555
O99 S3 1.475720 1_555
O100 Si5 1.588511 1_555
O101 Si4 1.589640 1_555
O102 Si0 1.617191 1_555
O103 Si1 1.620137 1_555
O104 Si3 1.587348 1_555
O105 Si2 1.589475 1_555
O106 S0 1.469224 1_545
O107 S1 1.467371 1_545
O108 S5 1.504203 1_555
O109 S6 1.506287 1_555
O110 Si20 1.692411 1_555
O111 Si19 1.691430 1_655
O112 Si21 1.658349 1_545
O113 Si22 1.661765 1_545
O114 S7 1.487427 1_545
O115 S8 1.501128 1_545
O116 Si23 1.673589 1_555
O117 Si24 1.720436 1_555
O118 Si26 1.678607 1_555
O119 Si25 1.699672 1_655
O120 Si17 1.622238 1_555
O121 Si18 1.621905 1_555
O122 Si14 1.622443 1_455
O123 Si13 1.622830 1_555
O124 Si15 1.609838 1_565
O125 Si16 1.610237 1_565
O126 Si9 1.641048 1_565
O127 Si10 1.605029 1_565
O128 Si11 1.614227 1_555
O129 Si12 1.590921 1_555
O130 S4 1.480105 1_455
O131 Si8 1.612528 1_555
O132 S0 1.488304 1_555
O133 S1 1.494034 1_555
O134 Si0 1.693471 1_555
O135 Si1 1.694628 1_555
O136 Si2 1.723872 1_455
O137 Si3 1.730882 1_555
O138 S2 1.495546 1_555
O139 S3 1.491818 1_555
O140 Si4 1.713178 1_455
O141 Si5 1.733213 1_555
O142 Si6 1.705440 1_555
O143 Si7 1.692526 1_555
