# generated using pymatgen
data_Na5La2Al2P5SO24
_symmetry_space_group_name_H-M   'P 1'
_cell_length_a   9.08969778
_cell_length_b   8.94120851
_cell_length_c   22.83417945
_cell_angle_alpha   91.16307841
_cell_angle_beta   89.43930064
_cell_angle_gamma   120.36861780
_symmetry_Int_Tables_number   1
_chemical_formula_structural   Na5La2Al2P5SO24
_chemical_formula_sum   'Na15 La6 Al6 P15 S3 O72'
_cell_volume   1600.83651653
_cell_formula_units_Z   3
loop_
 _symmetry_equiv_pos_site_id
 _symmetry_equiv_pos_as_xyz
  1  'x, y, z'
loop_
 _atom_site_type_symbol
 _atom_site_label
 _atom_site_symmetry_multiplicity
 _atom_site_fract_x
 _atom_site_fract_y
 _atom_site_fract_z
 _atom_site_occupancy
  Na  Na0  1  0.63483828  0.00216097  0.25123113  1
  Na  Na1  1  0.99914017  0.35084579  0.74842868  1
  Na  Na2  1  0.34986653  0.99766150  0.74686424  1
  Na  Na3  1  0.03334240  0.69377999  0.56737140  1
  Na  Na4  1  0.65977346  0.96722826  0.56871997  1
  Na  Na5  1  0.31390980  0.98288719  0.09878268  1
  Na  Na6  1  0.02351823  0.33593294  0.09524976  1
  Na  Na7  1  0.97591435  0.66781134  0.92701071  1
  Na  Na8  1  0.69188939  0.66591983  0.40993984  1
  Na  Na9  1  0.03603445  0.02957257  0.48340875  1
  Na  Na10  1  0.00046732  0.00552811  0.01868153  1
  Na  Na11  1  0.65195417  0.32010447  0.84146931  1
  Na  Na12  1  0.68567827  0.34023771  0.32869378  1
  Na  Na13  1  0.34018288  0.63853272  0.17481838  1
  Na  Na14  1  0.35144118  0.64760308  0.65491261  1
  La  La0  1  0.99107583  0.01723010  0.86333607  1
  La  La1  1  -0.00085342  0.99337529  0.63842052  1
  La  La2  1  0.67124978  0.35971454  0.68008828  1
  La  La3  1  0.66225262  0.32593468  0.00350756  1
  La  La4  1  0.32003914  0.65423151  0.48789931  1
  La  La5  1  0.35299568  0.66727950  0.82103685  1
  Al  Al0  1  0.97562798  0.98319945  0.34126422  1
  Al  Al1  1  0.98961207  0.00279713  0.15859977  1
  Al  Al2  1  0.68127448  0.36616250  0.17723010  1
  Al  Al3  1  0.68578532  0.32575530  0.47735672  1
  Al  Al4  1  0.33480027  0.67898940  0.02774287  1
  Al  Al5  1  0.30985345  0.66034104  0.31777258  1
  P  P0  1  0.70517418  0.70244673  0.24948280  1
  P  P1  1  0.00020133  0.29295330  0.25158838  1
  P  P2  1  0.30570158  0.30266620  0.75004551  1
  P  P3  1  -0.00103964  0.69146801  0.75526049  1
  P  P4  1  0.68785059  0.99645795  0.74219029  1
  P  P5  1  0.96652253  0.33929650  0.57345913  1
  P  P6  1  0.38171980  0.04341121  0.56963722  1
  P  P7  1  0.66509047  0.62504064  0.55805009  1
  P  P8  1  0.97861270  0.65483549  0.08809061  1
  P  P9  1  0.67132922  0.02632546  0.09472487  1
  P  P10  1  0.35126299  0.32586302  0.09306124  1
  P  P11  1  0.04745991  0.38086328  0.93446139  1
  P  P12  1  0.33209730  0.96284826  0.93139364  1
  P  P13  1  0.64608311  0.97940653  0.40742745  1
  P  P14  1  0.02091369  0.67625756  0.41058075  1
  S  S0  1  0.28202398  0.98529065  0.25299261  1
  S  S1  1  0.63199570  0.67309464  0.93618844  1
  S  S2  1  0.32017325  0.34578146  0.40241823  1
  O  O0  1  0.17322383  0.98800680  0.30078530  1
  O  O1  1  0.80163607  0.77089815  0.30857890  1
  O  O2  1  0.96087479  0.15345915  0.29781699  1
  O  O3  1  0.19588323  0.21801694  0.80444081  1
  O  O4  1  0.01133365  0.80334898  0.80929838  1
  O  O5  1  0.79076809  0.98413005  0.79326831  1
  O  O6  1  0.77302602  0.00461362  0.68234250  1
  O  O7  1  0.22026213  0.18911391  0.69522024  1
  O  O8  1  0.98093168  0.76721896  0.69679312  1
  O  O9  1  0.81493653  0.84156399  0.20429309  1
  O  O10  1  0.03338383  0.21987846  0.19359019  1
  O  O11  1  0.19746568  0.97303094  0.19647267  1
  O  O12  1  0.90421695  0.34842687  0.63604882  1
  O  O13  1  0.45522592  0.11285402  0.63172109  1
  O  O14  1  0.66959666  0.55163701  0.61780845  1
  O  O15  1  0.86244987  0.49603955  0.12856532  1
  O  O16  1  0.63208354  0.13546488  0.14216991  1
  O  O17  1  0.49225193  0.35498912  0.13852648  1
  O  O18  1  0.39369405  0.26789108  0.03470723  1
  O  O19  1  0.89732749  0.61372468  0.02725790  1
  O  O20  1  0.73529400  0.13121959  0.03830643  1
  O  O21  1  0.50485523  0.15792304  0.52099580  1
  O  O22  1  0.65264500  0.50587692  0.50530766  1
  O  O23  1  0.85418880  0.35931478  0.52666357  1
  O  O24  1  0.50695910  0.64937565  0.98208434  1
  O  O25  1  0.15873301  0.50580003  0.98476757  1
  O  O26  1  0.35366929  0.86352218  0.98351059  1
  O  O27  1  0.59558130  0.87848225  0.46527081  1
  O  O28  1  0.28294202  0.36968678  0.46423401  1
  O  O29  1  0.10224102  0.71751208  0.47190443  1
  O  O30  1  0.14328082  0.65216429  0.36801112  1
  O  O31  1  0.50831110  0.86966905  0.35907913  1
  O  O32  1  0.34713582  0.50482095  0.36952138  1
  O  O33  1  0.12838004  0.44494400  0.87343276  1
  O  O34  1  0.32408029  0.87467481  0.87146902  1
  O  O35  1  0.58077788  0.69441773  0.87712538  1
  O  O36  1  0.99879489  0.83268237  0.39579822  1
  O  O37  1  0.82088970  0.99582727  0.39324104  1
  O  O38  1  0.17083900  0.18287312  0.38231581  1
  O  O39  1  0.02121429  0.20051727  0.94578061  1
  O  O40  1  0.16045700  0.95820781  0.93988814  1
  O  O41  1  0.79937525  0.82762657  0.94934974  1
  O  O42  1  0.95744944  0.16423196  0.56292705  1
  O  O43  1  0.20343900  0.02317582  0.56319706  1
  O  O44  1  0.83663646  0.79969300  0.55254773  1
  O  O45  1  -0.00182353  0.82824787  0.10903385  1
  O  O46  1  0.82112756  0.00139824  0.11130077  1
  O  O47  1  0.17372009  0.16552553  0.10849737  1
  O  O48  1  0.67883819  0.16257965  0.75345942  1
  O  O49  1  0.48000498  0.31918779  0.76073363  1
  O  O50  1  0.84900618  0.50585688  0.76414598  1
  O  O51  1  0.68873870  0.52278043  0.23387433  1
  O  O52  1  0.83833569  0.31141244  0.24399663  1
  O  O53  1  0.45599055  0.13906775  0.25471213  1
  O  O54  1  0.65410305  0.51981515  0.93084415  1
  O  O55  1  0.87418785  0.37529080  0.93132770  1
  O  O56  1  0.48588570  0.14831169  0.92803440  1
  O  O57  1  0.66386909  0.16087993  0.41711469  1
  O  O58  1  0.47982036  0.34283199  0.39717738  1
  O  O59  1  0.84263667  0.50628725  0.41292975  1
  O  O60  1  0.33203150  0.48848713  0.08728825  1
  O  O61  1  0.15872670  0.66947170  0.08655354  1
  O  O62  1  0.50132997  0.85074627  0.08562202  1
  O  O63  1  0.35958129  0.85925303  0.56619769  1
  O  O64  1  0.51471964  0.65786612  0.55984392  1
  O  O65  1  0.14802738  0.49688059  0.56964611  1
  O  O66  1  0.30248301  0.82581392  0.25838484  1
  O  O67  1  0.52736407  0.68978873  0.25458704  1
  O  O68  1  0.16143337  0.47348311  0.26621791  1
  O  O69  1  0.31809163  0.47793695  0.73949979  1
  O  O70  1  0.16325683  0.68077788  0.74913350  1
  O  O71  1  0.50356897  0.84301688  0.73918339  1
loop_
_geom_bond_atom_site_label_1
_geom_bond_atom_site_label_2
_geom_bond_distance
_geom_bond_site_symmetry_2
Na0 O52 2.436286 1_555
Na0 O67 2.451403 1_545
Na0 O53 2.480572 1_555
Na0 O66 2.612233 1_545
Na0 O31 2.734225 1_545
Na0 O2 2.773800 1_555
Na0 O16 2.788343 1_555
Na0 O9 2.858414 1_545
Na1 O50 2.407233 1_555
Na1 O48 2.523725 1_555
Na1 O69 2.530767 1_655
Na1 O70 2.544990 1_655
Na1 O12 2.711461 1_555
Na2 O71 2.415202 1_555
Na2 O70 2.460165 1_555
Na2 O49 2.509206 1_565
Na2 O48 2.584583 1_565
Na2 O7 2.803030 1_565
Na2 O13 2.820279 1_565
Na3 O29 2.246539 1_555
Na3 O44 2.438279 1_455
Na3 O65 2.459526 1_555
Na3 O43 2.545190 1_565
Na3 O63 2.558757 1_555
Na3 O23 2.729798 1_455
Na4 O42 2.371669 1_565
Na4 O63 2.391261 1_555
Na4 O64 2.392804 1_555
Na4 O27 2.456158 1_555
Na4 O44 2.713972 1_555
Na4 O6 2.751710 1_565
Na5 O61 2.428942 1_555
Na5 O11 2.443648 1_555
Na5 O45 2.488115 1_555
Na5 O62 2.529669 1_555
Na5 O47 2.534469 1_565
Na5 O16 2.686769 1_565
Na5 O18 2.724398 1_565
Na5 O26 2.907781 1_554
Na6 O60 2.426951 1_555
Na6 O10 2.513920 1_555
Na6 O47 2.531240 1_555
Na6 O61 2.599413 1_555
Na6 O15 2.612412 1_455
Na6 O46 2.633068 1_455
Na6 O20 2.650668 1_455
Na6 O25 2.896403 1_554
Na7 O40 2.284032 1_655
Na7 O55 2.295393 1_555
Na7 O19 2.376465 1_556
Na7 O54 2.530052 1_555
Na7 O41 2.673946 1_555
Na7 O4 2.918509 1_655
Na8 O59 2.429558 1_555
Na8 O36 2.430208 1_555
Na8 O1 2.515809 1_555
Na8 O58 2.547978 1_555
Na8 O22 2.551911 1_555
Na8 O37 2.600209 1_555
Na8 O27 2.745527 1_555
Na8 O32 2.860994 1_555
Na9 O43 2.405103 1_555
Na9 O42 2.451994 1_455
Na9 O44 2.512181 1_445
Na9 O36 2.546277 1_445
Na9 O38 2.661519 1_555
Na9 O28 2.758696 1_555
Na9 O37 2.758890 1_445
Na10 O41 2.322101 1_444
Na10 O39 2.371788 1_554
Na10 O40 2.463933 1_544
Na10 O47 2.529587 1_555
Na10 O45 2.620685 1_545
Na10 O46 2.646942 1_455
Na11 O49 2.425772 1_555
Na11 O50 2.476541 1_555
Na11 O56 2.503109 1_555
Na11 O48 2.511095 1_555
Na11 O54 2.677945 1_555
Na11 O55 2.750684 1_555
Na12 O59 2.394886 1_555
Na12 O58 2.435649 1_555
Na12 O52 2.453784 1_555
Na12 O57 2.547484 1_555
Na12 O53 2.568378 1_555
Na12 O51 2.729255 1_555
Na13 O60 2.365080 1_555
Na13 O67 2.379264 1_555
Na13 O68 2.609152 1_555
Na13 O66 2.645800 1_555
Na13 O62 2.679995 1_555
Na13 O61 2.721780 1_555
Na14 O69 2.401326 1_555
Na14 O71 2.477974 1_555
Na14 O65 2.543634 1_555
Na14 O64 2.594396 1_555
Na14 O63 2.775136 1_555
Na14 O70 2.838624 1_555
La0 O3 2.273093 1_655
La0 O5 2.335684 1_545
La0 O4 2.338664 1_645
La0 O39 2.394923 1_655
La0 O40 2.572183 1_645
La0 O41 2.617077 1_545
La1 O7 2.277479 1_565
La1 O6 2.324840 1_465
La1 O8 2.378975 1_455
La1 O43 2.434239 1_565
La1 O42 2.480756 1_465
La1 O44 2.521540 1_455
La2 O14 2.256745 1_555
La2 O13 2.347018 1_555
La2 O12 2.382428 1_555
La2 O50 2.413764 1_555
La2 O49 2.423164 1_555
La2 O48 2.482648 1_555
La3 O20 2.310510 1_555
La3 O56 2.330426 1_554
La3 O18 2.331506 1_555
La3 O55 2.393767 1_554
La3 O19 2.426468 1_555
La3 O54 2.452058 1_554
La4 O27 2.345053 1_555
La4 O29 2.351159 1_555
La4 O65 2.394490 1_555
La4 O64 2.414095 1_555
La4 O63 2.428872 1_555
La4 O28 2.441075 1_555
La5 O34 2.287809 1_555
La5 O33 2.344499 1_555
La5 O35 2.348896 1_555
La5 O71 2.393797 1_555
La5 O69 2.402846 1_555
La5 O70 2.441038 1_555
Al0 O37 1.876734 1_555
Al0 O2 1.894736 1_565
Al0 O1 1.895161 1_555
Al0 O36 1.940585 1_555
Al0 O0 1.993281 1_655
Al0 O38 1.994010 1_665
Al1 O9 1.844473 1_545
Al1 O46 1.877364 1_555
Al1 O10 1.930401 1_655
Al1 O45 1.942206 1_645
Al1 O47 1.947950 1_655
Al1 O11 2.222164 1_645
Al2 O15 1.838011 1_555
Al2 O51 1.862971 1_555
Al2 O17 1.896224 1_555
Al2 O16 2.025596 1_555
Al2 O52 2.319831 1_555
Al3 O23 1.804548 1_555
Al3 O21 1.866219 1_555
Al3 O22 1.880655 1_555
Al3 O57 1.931636 1_555
Al3 O59 2.128588 1_555
Al4 O25 1.839942 1_554
Al4 O26 1.884139 1_554
Al4 O24 1.995424 1_554
Al4 O62 2.000673 1_555
Al4 O61 2.048640 1_555
Al4 O60 2.191037 1_555
Al5 O30 1.863137 1_555
Al5 O68 1.915573 1_555
Al5 O32 1.998932 1_555
Al5 O31 2.048071 1_555
Al5 O66 2.053258 1_555
Al5 O67 2.343747 1_555
O0 S0 1.473658 1_555
O1 P0 1.552841 1_555
O2 P1 1.546912 1_655
O3 P2 1.536881 1_555
O4 P3 1.541017 1_555
O5 P4 1.542219 1_555
O6 P4 1.548713 1_545
O7 P2 1.539919 1_555
O8 P3 1.556016 1_655
O9 P0 1.544193 1_555
O10 P1 1.558227 1_555
O11 S0 1.482185 1_555
O12 P5 1.547948 1_555
O13 P6 1.550795 1_555
O14 P7 1.535908 1_555
O15 P8 1.582177 1_555
O16 P9 1.598345 1_555
O17 P10 1.570213 1_555
O18 P10 1.535232 1_555
O19 P8 1.528161 1_555
O20 P9 1.536336 1_555
O21 P6 1.548483 1_555
O22 P7 1.557925 1_555
O23 P5 1.558950 1_555
O24 S1 1.475466 1_555
O25 P11 1.555190 1_555
O26 P12 1.570645 1_555
O27 P13 1.545065 1_555
O28 S2 1.484629 1_555
O29 P14 1.538470 1_555
O30 P14 1.562388 1_555
O31 P13 1.578123 1_555
O32 S2 1.527678 1_555
O33 P11 1.548380 1_555
O34 P12 1.548949 1_555
O35 S1 1.477985 1_555
O36 P14 1.554136 1_655
O37 P13 1.551512 1_555
O38 S2 1.469963 1_555
O39 P11 1.533185 1_555
O40 P12 1.549964 1_555
O41 S1 1.476724 1_555
O42 P5 1.539267 1_555
O43 P6 1.545175 1_555
O44 P7 1.558155 1_555
O45 P8 1.535314 1_455
O46 P9 1.538608 1_555
O47 P10 1.566504 1_555
O48 P4 1.544743 1_545
O49 P2 1.536571 1_555
O50 P3 1.540872 1_655
O51 P0 1.570068 1_555
O52 P1 1.572811 1_655
O53 S0 1.480939 1_545
O54 S1 1.484840 1_555
O55 P11 1.552711 1_655
O56 P12 1.539168 1_545
O57 P13 1.558447 1_545
O58 S2 1.468334 1_555
O59 P14 1.565234 1_655
O60 P10 1.558029 1_555
O61 P8 1.575167 1_455
O62 P9 1.560682 1_565
O63 P6 1.554982 1_565
O64 P7 1.536253 1_555
O65 P5 1.538338 1_455
O66 S0 1.535797 1_555
O67 P0 1.565413 1_555
O68 P1 1.568655 1_555
O69 P2 1.537175 1_555
O70 P3 1.548763 1_555
O71 P4 1.538688 1_555
