# generated using pymatgen
data_Na4ZnSi2SnSO12
_symmetry_space_group_name_H-M   'P 1'
_cell_length_a   9.23646750
_cell_length_b   9.15571695
_cell_length_c   22.24374780
_cell_angle_alpha   90.14776977
_cell_angle_beta   90.00000000
_cell_angle_gamma   120.29218428
_symmetry_Int_Tables_number   1
_chemical_formula_structural   Na4ZnSi2SnSO12
_chemical_formula_sum   'Na24 Zn6 Si12 Sn6 S6 O72'
_cell_volume   1624.23441577
_cell_formula_units_Z   6
loop_
 _symmetry_equiv_pos_site_id
 _symmetry_equiv_pos_as_xyz
  1  'x, y, z'
loop_
 _atom_site_type_symbol
 _atom_site_label
 _atom_site_symmetry_multiplicity
 _atom_site_fract_x
 _atom_site_fract_y
 _atom_site_fract_z
 _atom_site_occupancy
  Na  Na0  1  0.63887897  0.02167898  0.25388654  1
  Na  Na1  1  0.36427806  0.35151172  0.24422317  1
  Na  Na2  1  0.99444542  0.62250921  0.24311000  1
  Na  Na3  1  0.62806378  0.62250921  0.74311000  1
  Na  Na4  1  0.98723365  0.35151172  0.74422317  1
  Na  Na5  1  0.38280001  0.02167898  0.75388654  1
  Na  Na6  1  0.30554597  0.35501198  0.58721954  1
  Na  Na7  1  0.03094506  0.68484472  0.57755617  1
  Na  Na8  1  0.66111242  0.95584221  0.57644300  1
  Na  Na9  1  0.29473078  0.95584221  0.07644300  1
  Na  Na10  1  0.65390065  0.68484472  0.07755617  1
  Na  Na11  1  0.04946701  0.35501198  0.08721954  1
  Na  Na12  1  0.97221197  0.68834598  0.92055354  1
  Na  Na13  1  0.69761106  0.01817872  0.91089017  1
  Na  Na14  1  0.32777842  0.28917621  0.90977700  1
  Na  Na15  1  0.96139678  0.28917621  0.40977700  1
  Na  Na16  1  0.32056665  0.01817872  0.41089017  1
  Na  Na17  1  0.71613301  0.68834598  0.42055354  1
  Na  Na18  1  0.98293592  0.98881419  0.49476000  1
  Na  Na19  1  0.00587827  0.98881419  0.99476000  1
  Na  Na20  1  0.64960292  0.32214719  0.82809300  1
  Na  Na21  1  0.67254527  0.32214719  0.32809300  1
  Na  Na22  1  0.31626892  0.65548119  0.16142700  1
  Na  Na23  1  0.33921127  0.65548119  0.66142700  1
  Zn  Zn0  1  0.00271040  0.00209789  0.34904669  1
  Zn  Zn1  1  0.99938749  0.00209789  0.84904669  1
  Zn  Zn2  1  0.66937740  0.33543089  0.68237969  1
  Zn  Zn3  1  0.66605449  0.33543089  0.18237969  1
  Zn  Zn4  1  0.33604340  0.66876489  0.01571369  1
  Zn  Zn5  1  0.33272049  0.66876489  0.51571369  1
  Si  Si0  1  0.30097927  0.00298074  0.25285977  1
  Si  Si1  1  0.00040077  0.29377390  0.25315515  1
  Si  Si2  1  0.29337313  0.29377390  0.75315515  1
  Si  Si3  1  0.70200147  0.00298074  0.75285977  1
  Si  Si4  1  0.96764627  0.33631374  0.58619277  1
  Si  Si5  1  0.66706777  0.62710690  0.58648815  1
  Si  Si6  1  0.96004013  0.62710690  0.08648815  1
  Si  Si7  1  0.36866847  0.33631374  0.08619277  1
  Si  Si8  1  0.63431227  0.66964774  0.91952677  1
  Si  Si9  1  0.33373377  0.96044090  0.91982215  1
  Si  Si10  1  0.62670613  0.96044090  0.41982215  1
  Si  Si11  1  0.03533447  0.66964774  0.41952677  1
  Sn  Sn0  1  0.98648347  0.00490656  0.65050067  1
  Sn  Sn1  1  0.01842309  0.00490656  0.15050067  1
  Sn  Sn2  1  0.65315047  0.33823956  0.98383367  1
  Sn  Sn3  1  0.68509009  0.33823956  0.48383367  1
  Sn  Sn4  1  0.31981647  0.67157356  0.31716767  1
  Sn  Sn5  1  0.35175609  0.67157356  0.81716767  1
  S  S0  1  0.70353451  0.70767121  0.25119732  1
  S  S1  1  0.00413670  0.70767121  0.75119732  1
  S  S2  1  0.37020151  0.04100421  0.58453032  1
  S  S3  1  0.67080370  0.04100421  0.08453032  1
  S  S4  1  0.03686751  0.37433821  0.91786432  1
  S  S5  1  0.33746970  0.37433821  0.41786432  1
  O  O0  1  0.21412862  0.03153950  0.31097562  1
  O  O1  1  0.80658766  0.78815640  0.30499439  1
  O  O2  1  0.96742192  0.17631915  0.31099563  1
  O  O3  1  0.20889724  0.17631915  0.81099563  1
  O  O4  1  0.98156874  0.78815640  0.80499439  1
  O  O5  1  0.81741087  0.03153950  0.81097562  1
  O  O6  1  0.77507845  0.95159579  0.69218367  1
  O  O7  1  0.17647482  0.20992582  0.69051797  1
  O  O8  1  0.03614018  0.81561221  0.69571043  1
  O  O9  1  0.77947202  0.81561221  0.19571043  1
  O  O10  1  0.03345100  0.20992582  0.19051797  1
  O  O11  1  0.17651734  0.95159579  0.19218367  1
  O  O12  1  0.88079562  0.36487250  0.64430862  1
  O  O13  1  0.47325466  0.12148940  0.63832739  1
  O  O14  1  0.63408892  0.50965215  0.64432863  1
  O  O15  1  0.87556424  0.50965215  0.14432863  1
  O  O16  1  0.64823574  0.12148940  0.13832739  1
  O  O17  1  0.48407787  0.36487250  0.14430862  1
  O  O18  1  0.44174545  0.28492879  0.02551667  1
  O  O19  1  0.84314182  0.54325882  0.02385097  1
  O  O20  1  0.70280718  0.14894521  0.02904343  1
  O  O21  1  0.44613902  0.14894521  0.52904343  1
  O  O22  1  0.70011800  0.54325882  0.52385097  1
  O  O23  1  0.84318434  0.28492879  0.52551667  1
  O  O24  1  0.54746162  0.69820650  0.97764262  1
  O  O25  1  0.13992066  0.45482340  0.97166139  1
  O  O26  1  0.30075492  0.84298615  0.97766263  1
  O  O27  1  0.54223024  0.84298615  0.47766263  1
  O  O28  1  0.31490174  0.45482340  0.47166139  1
  O  O29  1  0.15074387  0.69820650  0.47764262  1
  O  O30  1  0.10841145  0.61826279  0.35885067  1
  O  O31  1  0.50980782  0.87659282  0.35718497  1
  O  O32  1  0.36947318  0.48227921  0.36237743  1
  O  O33  1  0.11280502  0.48227921  0.86237743  1
  O  O34  1  0.36678400  0.87659282  0.85718497  1
  O  O35  1  0.50985034  0.61826279  0.85885067  1
  O  O36  1  0.01559226  0.83595086  0.41219758  1
  O  O37  1  0.81508276  0.99038274  0.41356090  1
  O  O38  1  0.18745068  0.20574256  0.41228248  1
  O  O39  1  0.01829187  0.20574256  0.91228248  1
  O  O40  1  0.17529997  0.99038274  0.91356090  1
  O  O41  1  0.82035860  0.83595086  0.91219758  1
  O  O42  1  0.98521219  0.16191503  0.58627237  1
  O  O43  1  0.19955426  0.02351464  0.58844311  1
  O  O44  1  0.85230504  0.81340091  0.58912655  1
  O  O45  1  0.96109587  0.81340091  0.08912655  1
  O  O46  1  0.82396038  0.02351464  0.08844311  1
  O  O47  1  0.17670284  0.16191503  0.08627237  1
  O  O48  1  0.68225926  0.16928386  0.74553058  1
  O  O49  1  0.48174976  0.32371574  0.74689390  1
  O  O50  1  0.85411768  0.53907556  0.74561548  1
  O  O51  1  0.68495887  0.53907556  0.24561548  1
  O  O52  1  0.84196697  0.32371574  0.24689390  1
  O  O53  1  0.48702560  0.16928386  0.24553058  1
  O  O54  1  0.65187919  0.49524803  0.91960537  1
  O  O55  1  0.86622126  0.35684764  0.92177611  1
  O  O56  1  0.51897204  0.14673391  0.92245955  1
  O  O57  1  0.62776287  0.14673391  0.42245955  1
  O  O58  1  0.49062738  0.35684764  0.42177611  1
  O  O59  1  0.84336984  0.49524803  0.41960537  1
  O  O60  1  0.34892526  0.50261786  0.07886458  1
  O  O61  1  0.14841576  0.65704974  0.08022790  1
  O  O62  1  0.52078368  0.87240956  0.07894948  1
  O  O63  1  0.35162487  0.87240956  0.57894948  1
  O  O64  1  0.50863297  0.65704974  0.58022790  1
  O  O65  1  0.15369160  0.50261786  0.57886458  1
  O  O66  1  0.31854519  0.82858203  0.25293937  1
  O  O67  1  0.53288726  0.69018164  0.25511011  1
  O  O68  1  0.18563804  0.48006791  0.25579355  1
  O  O69  1  0.29442887  0.48006791  0.75579355  1
  O  O70  1  0.15729338  0.69018164  0.75511011  1
  O  O71  1  0.51003584  0.82858203  0.75293937  1
loop_
_geom_bond_atom_site_label_1
_geom_bond_atom_site_label_2
_geom_bond_distance
_geom_bond_site_symmetry_2
Na0 O53 2.396179 1_555
Na0 O52 2.441161 1_555
Na0 O66 2.569640 1_545
Na0 O31 2.623659 1_545
Na0 O67 2.678406 1_545
Na0 O16 2.717042 1_555
Na0 O2 2.912615 1_555
Na1 O53 2.445079 1_555
Na1 O17 2.458375 1_555
Na1 O68 2.476246 1_555
Na1 O51 2.567403 1_555
Na1 O67 2.687618 1_555
Na1 O32 2.875582 1_555
Na1 O10 2.905273 1_555
Na1 O0 2.938399 1_555
Na2 O52 2.364074 1_555
Na2 O15 2.438248 1_555
Na2 O51 2.560340 1_555
Na2 O66 2.620857 1_655
Na2 O68 2.687795 1_655
Na2 O30 2.789168 1_655
Na2 O11 2.845270 1_655
Na3 O49 2.364074 1_555
Na3 O14 2.438250 1_555
Na3 O50 2.560349 1_555
Na3 O71 2.620864 1_555
Na3 O69 2.687803 1_555
Na3 O35 2.789171 1_555
Na3 O6 2.845270 1_555
Na4 O48 2.445071 1_555
Na4 O12 2.458371 1_555
Na4 O69 2.476237 1_655
Na4 O50 2.567395 1_555
Na4 O70 2.687618 1_655
Na4 O33 2.875580 1_655
Na4 O7 2.905273 1_655
Na4 O5 2.938399 1_555
Na5 O48 2.396187 1_555
Na5 O49 2.441159 1_555
Na5 O71 2.569632 1_545
Na5 O34 2.623657 1_545
Na5 O70 2.678408 1_545
Na5 O13 2.717043 1_555
Na5 O3 2.912615 1_555
Na6 O65 2.396193 1_555
Na6 O64 2.441165 1_555
Na6 O42 2.569640 1_455
Na6 O7 2.623659 1_555
Na6 O43 2.678406 1_555
Na6 O28 2.717025 1_555
Na6 O14 2.912615 1_555
Na7 O65 2.445063 1_555
Na7 O29 2.458349 1_555
Na7 O44 2.476246 1_455
Na7 O63 2.567396 1_555
Na7 O43 2.687618 1_565
Na7 O8 2.875582 1_555
Na7 O22 2.905273 1_455
Na7 O12 2.938399 1_455
Na8 O64 2.364067 1_555
Na8 O27 2.438229 1_555
Na8 O63 2.560352 1_555
Na8 O42 2.620857 1_565
Na8 O44 2.687795 1_555
Na8 O6 2.789168 1_555
Na8 O23 2.845270 1_565
Na9 O61 2.364067 1_555
Na9 O26 2.438224 1_554
Na9 O62 2.560334 1_555
Na9 O47 2.620864 1_565
Na9 O45 2.687803 1_455
Na9 O11 2.789171 1_555
Na9 O18 2.845270 1_565
Na10 O60 2.445078 1_555
Na10 O24 2.458357 1_554
Na10 O45 2.476237 1_555
Na10 O62 2.567412 1_555
Na10 O46 2.687618 1_565
Na10 O9 2.875580 1_555
Na10 O19 2.905273 1_555
Na10 O17 2.938399 1_555
Na11 O60 2.396177 1_555
Na11 O61 2.441168 1_555
Na11 O47 2.569632 1_555
Na11 O10 2.623657 1_555
Na11 O46 2.678408 1_455
Na11 O25 2.717023 1_554
Na11 O15 2.912615 1_455
Na12 O41 2.396179 1_555
Na12 O40 2.441161 1_655
Na12 O54 2.569634 1_555
Na12 O19 2.623640 1_556
Na12 O55 2.678417 1_555
Na12 O4 2.717042 1_555
Na12 O26 2.912615 1_655
Na13 O41 2.445079 1_545
Na13 O5 2.458375 1_555
Na13 O56 2.476228 1_555
Na13 O39 2.567403 1_655
Na13 O55 2.687608 1_555
Na13 O20 2.875556 1_556
Na13 O34 2.905273 1_545
Na13 O24 2.938399 1_545
Na14 O40 2.364074 1_545
Na14 O3 2.438248 1_555
Na14 O39 2.560340 1_555
Na14 O54 2.620861 1_555
Na14 O56 2.687808 1_555
Na14 O18 2.789152 1_556
Na14 O35 2.845270 1_555
Na15 O37 2.364074 1_545
Na15 O2 2.438250 1_555
Na15 O38 2.560349 1_655
Na15 O59 2.620847 1_555
Na15 O57 2.687791 1_555
Na15 O23 2.789145 1_555
Na15 O30 2.845270 1_655
Na16 O36 2.445071 1_545
Na16 O0 2.458371 1_555
Na16 O57 2.476244 1_555
Na16 O38 2.567395 1_555
Na16 O58 2.687608 1_555
Na16 O21 2.875560 1_555
Na16 O31 2.905273 1_545
Na16 O29 2.938399 1_545
Na17 O36 2.396187 1_655
Na17 O37 2.441159 1_555
Na17 O59 2.569648 1_555
Na17 O22 2.623644 1_555
Na17 O58 2.678413 1_555
Na17 O1 2.717043 1_555
Na17 O27 2.912615 1_555
Na18 O37 2.385101 1_555
Na18 O36 2.415601 1_655
Na18 O44 2.550243 1_555
Na18 O42 2.570127 1_565
Na18 O38 2.666970 1_665
Na18 O43 2.793187 1_665
Na19 O40 2.385101 1_555
Na19 O41 2.415601 1_455
Na19 O45 2.550243 1_456
Na19 O47 2.570127 1_566
Na19 O39 2.666970 1_565
Na19 O46 2.793187 1_466
Na20 O49 2.385101 1_555
Na20 O48 2.415601 1_555
Na20 O56 2.550243 1_555
Na20 O54 2.570127 1_555
Na20 O50 2.666970 1_555
Na20 O55 2.793187 1_555
Na21 O52 2.385101 1_555
Na21 O53 2.415601 1_555
Na21 O57 2.550243 1_555
Na21 O59 2.570127 1_555
Na21 O51 2.666970 1_555
Na21 O58 2.793187 1_555
Na22 O61 2.385101 1_555
Na22 O60 2.415601 1_555
Na22 O68 2.550243 1_555
Na22 O66 2.570127 1_555
Na22 O62 2.666970 1_555
Na22 O67 2.793187 1_555
Na23 O64 2.385101 1_555
Na23 O65 2.415601 1_555
Na23 O69 2.550243 1_555
Na23 O71 2.570127 1_555
Na23 O63 2.666970 1_555
Na23 O70 2.793187 1_555
O0 Si0 1.610234 1_555
O0 Zn0 2.018222 1_555
O1 S0 1.472702 1_555
O1 Zn0 2.118724 1_665
O2 Si1 1.606618 1_655
O2 Zn0 1.974462 1_655
O3 Si2 1.606618 1_555
O3 Zn1 1.974462 1_455
O4 S1 1.472702 1_655
O4 Zn1 2.118724 1_565
O5 Si3 1.610234 1_555
O5 Zn1 2.018222 1_555
O6 Si3 1.677974 1_565
O6 Sn0 1.987851 1_565
O7 Si2 1.689580 1_555
O7 Sn0 2.015847 1_455
O8 S1 1.516243 1_555
O8 Sn0 2.244168 1_465
O9 S0 1.516243 1_555
O9 Sn1 2.244168 1_665
O10 Si1 1.689580 1_555
O10 Sn1 2.015847 1_555
O11 Si0 1.677974 1_565
O11 Sn1 1.987851 1_565
O12 Si4 1.610234 1_555
O12 Zn2 2.018222 1_555
O13 S2 1.472702 1_555
O13 Zn2 2.118724 1_555
O14 Si5 1.606618 1_555
O14 Zn2 1.974462 1_555
O15 Si6 1.606618 1_555
O15 Zn3 1.974462 1_555
O16 S3 1.472702 1_555
O16 Zn3 2.118724 1_555
O17 Si7 1.610234 1_555
O17 Zn3 2.018222 1_555
O18 Si7 1.677974 1_555
O18 Sn2 1.987851 1_554
O19 Si6 1.689580 1_555
O19 Sn2 2.015847 1_554
O20 S3 1.516243 1_555
O20 Sn2 2.244168 1_554
O21 S2 1.516243 1_555
O21 Sn3 2.244168 1_555
O22 Si5 1.689580 1_555
O22 Sn3 2.015847 1_555
O23 Si4 1.677974 1_555
O23 Sn3 1.987851 1_555
O24 Si8 1.610234 1_555
O24 Zn4 2.018222 1_556
O25 S4 1.472702 1_555
O25 Zn4 2.118724 1_556
O26 Si9 1.606618 1_555
O26 Zn4 1.974462 1_556
O27 Si10 1.606618 1_555
O27 Zn5 1.974462 1_555
O28 S5 1.472702 1_555
O28 Zn5 2.118724 1_555
O29 Si11 1.610234 1_555
O29 Zn5 2.018222 1_555
O30 Si11 1.677974 1_555
O30 Sn4 1.987851 1_555
O31 Si10 1.689580 1_555
O31 Sn4 2.015847 1_555
O32 S5 1.516243 1_555
O32 Sn4 2.244168 1_555
O33 S4 1.516243 1_555
O33 Sn5 2.244168 1_555
O34 Si9 1.689580 1_555
O34 Sn5 2.015847 1_555
O35 Si8 1.677974 1_555
O35 Sn5 1.987851 1_555
O36 Si11 1.630825 1_555
O36 Zn0 2.120147 1_565
O37 Si10 1.625093 1_555
O37 Zn0 2.210759 1_665
O38 S5 1.469496 1_555
O38 Zn0 2.267920 1_555
O39 S4 1.469500 1_555
O39 Zn1 2.267920 1_455
O40 Si9 1.625084 1_555
O40 Zn1 2.210759 1_465
O41 Si8 1.630831 1_555
O41 Zn1 2.120147 1_565
O42 Si4 1.684425 1_555
O42 Sn0 2.033558 1_555
O43 S2 1.504329 1_555
O43 Sn0 2.338928 1_455
O44 Si5 1.701613 1_555
O44 Sn0 2.066272 1_565
O45 Si6 1.701618 1_555
O45 Sn1 2.066272 1_665
O46 S3 1.504320 1_555
O46 Sn1 2.338928 1_655
O47 Si7 1.684431 1_555
O47 Sn1 2.033558 1_555
O48 Si3 1.630825 1_555
O48 Zn2 2.120147 1_555
O49 Si2 1.625093 1_555
O49 Zn2 2.210759 1_555
O50 S1 1.469496 1_655
O50 Zn2 2.267920 1_555
O51 S0 1.469500 1_555
O51 Zn3 2.267920 1_555
O52 Si1 1.625084 1_655
O52 Zn3 2.210759 1_555
O53 Si0 1.630831 1_555
O53 Zn3 2.120147 1_555
O54 Si8 1.684440 1_555
O54 Sn2 2.033558 1_555
O55 S4 1.504315 1_655
O55 Sn2 2.338928 1_555
O56 Si9 1.701613 1_545
O56 Sn2 2.066272 1_555
O57 Si10 1.701603 1_545
O57 Sn3 2.066272 1_555
O58 S5 1.504333 1_555
O58 Sn3 2.338928 1_555
O59 Si11 1.684429 1_655
O59 Sn3 2.033558 1_555
O60 Si7 1.630837 1_555
O60 Zn4 2.120147 1_555
O61 Si6 1.625079 1_455
O61 Zn4 2.210759 1_555
O62 S3 1.469493 1_565
O62 Zn4 2.267920 1_555
O63 S2 1.469485 1_565
O63 Zn5 2.267920 1_555
O64 Si5 1.625097 1_555
O64 Zn5 2.210759 1_555
O65 Si4 1.630827 1_455
O65 Zn5 2.120147 1_555
O66 Si0 1.684425 1_565
O66 Sn4 2.033558 1_555
O67 S0 1.504329 1_555
O67 Sn4 2.338928 1_555
O68 Si1 1.701613 1_555
O68 Sn4 2.066272 1_555
O69 Si2 1.701618 1_555
O69 Sn5 2.066272 1_555
O70 S1 1.504320 1_555
O70 Sn5 2.338928 1_555
O71 Si3 1.684431 1_565
O71 Sn5 2.033558 1_555
