# generated using pymatgen
data_Sr4MgIn2(SbO6)2
_symmetry_space_group_name_H-M   'P 1'
_cell_length_a   5.92765852
_cell_length_b   6.21320163
_cell_length_c   8.58678579
_cell_angle_alpha   91.09865925
_cell_angle_beta   88.15574030
_cell_angle_gamma   92.87860423
_symmetry_Int_Tables_number   1
_chemical_formula_structural   Sr4MgIn2(SbO6)2
_chemical_formula_sum   'Sr4 Mg1 In2 Sb2 O12'
_cell_volume   315.63757005
_cell_formula_units_Z   1
loop_
 _symmetry_equiv_pos_site_id
 _symmetry_equiv_pos_as_xyz
  1  'x, y, z'
loop_
 _atom_site_type_symbol
 _atom_site_label
 _atom_site_symmetry_multiplicity
 _atom_site_fract_x
 _atom_site_fract_y
 _atom_site_fract_z
 _atom_site_occupancy
  Sr  Sr0  1  0.02585700  0.04325700  0.73952500  1
  Sr  Sr1  1  0.50762000  0.55301100  0.74322600  1
  Sr  Sr2  1  0.90587300  0.93844100  0.22597500  1
  Sr  Sr3  1  0.54644000  0.39029400  0.28500300  1
  Mg  Mg0  1  0.34278700  0.74813300  0.15857700  1
  In  In0  1  0.03260400  0.49229500  0.50345900  1
  In  In1  1  0.49359200  0.04768600  0.95270800  1
  Sb  Sb0  1  0.50530400  0.98184900  0.50886300  1
  Sb  Sb1  1  0.98692400  0.48401700  0.97674700  1
  O  O0  1  0.69282300  0.71771500  0.44929000  1
  O  O1  1  0.63169700  0.73010300  0.04674600  1
  O  O2  1  0.91177500  0.45368000  0.74224000  1
  O  O3  1  0.32743700  0.25412300  0.56008800  1
  O  O4  1  0.27906400  0.32282500  0.93070500  1
  O  O5  1  0.61599800  0.96446700  0.72732000  1
  O  O6  1  0.14240800  0.54042400  0.27138700  1
  O  O7  1  0.40568300  0.00585900  0.28835200  1
  O  O8  1  0.18132700  0.86469900  0.98286000  1
  O  O9  1  0.24443600  0.77982800  0.58223100  1
  O  O10  1  0.77535700  0.22213400  0.04546700  1
  O  O11  1  0.78874100  0.18390800  0.45110600  1
loop_
_geom_bond_atom_site_label_1
_geom_bond_atom_site_label_2
_geom_bond_distance
_geom_bond_site_symmetry_2
Mg0 O1 1.943404 1_555
Mg0 O6 1.958203 1_555
Mg0 O7 1.960433 1_565
Mg0 O8 1.980309 1_554
Mg0 Sr3 2.832927 1_555
In0 O6 2.098558 1_555
In0 O2 2.163704 1_455
In0 O9 2.238039 1_555
In0 O11 2.386125 1_455
In0 O3 2.413025 1_555
In0 O0 2.569672 1_455
In1 O5 2.109111 1_545
In1 O10 2.114118 1_556
In1 O8 2.134227 1_545
In1 O4 2.195758 1_555
In1 O1 2.341291 1_546
O0 Sb0 2.074828 1_555
O0 Sr3 2.583202 1_555
O0 Sr2 2.631295 1_555
O0 Sr1 2.903566 1_555
O1 Sr2 2.561007 1_555
O1 Sb1 2.709161 1_554
O1 Sr1 2.911416 1_554
O1 Sr3 2.981690 1_555
O2 Sb1 2.079313 1_555
O2 Sr1 2.503459 1_555
O2 Sr0 2.670292 1_655
O3 Sb0 2.070672 1_545
O3 Sr1 2.619020 1_555
O3 Sr0 2.636503 1_555
O3 Sr3 2.783796 1_555
O4 Sb1 2.067147 1_455
O4 Sr1 2.495160 1_555
O4 Sr0 2.784294 1_555
O5 Sb0 2.013729 1_555
O5 Sr0 2.459286 1_665
O5 Sr1 2.609528 1_555
O6 Sr3 2.620344 1_555
O6 Sb1 2.730728 1_454
O6 Sr2 2.941751 1_455
O7 Sb0 2.011936 1_545
O7 Sr3 2.490618 1_555
O7 Sr2 3.034608 1_445
O7 Sr2 3.044213 1_545
O8 Sb1 2.578851 1_455
O8 Sr0 2.600288 1_565
O8 Sr2 2.655747 1_456
O9 Sb0 2.033775 1_555
O9 Sr0 2.489476 1_565
O9 Sr1 2.601014 1_555
O10 Sb1 2.086324 1_554
O10 Sr2 2.535117 1_545
O10 Sr3 2.654030 1_555
O10 Sr0 3.184999 1_654
O11 Sb0 2.098395 1_545
O11 Sr3 2.475584 1_555
O11 Sr2 2.540098 1_545
O11 Sr0 3.050109 1_655
