# generated using pymatgen
data_Na6Ca7Hf(SO4)12
_symmetry_space_group_name_H-M   'P 1'
_cell_length_a   18.42158475
_cell_length_b   9.20292985
_cell_length_c   24.13656588
_cell_angle_alpha   90.05815173
_cell_angle_beta   89.93697863
_cell_angle_gamma   119.94919861
_symmetry_Int_Tables_number   1
_chemical_formula_structural   Na6Ca7Hf(SO4)12
_chemical_formula_sum   'Na18 Ca21 Hf3 S36 O144'
_cell_volume   3545.52847031
_cell_formula_units_Z   3
loop_
 _symmetry_equiv_pos_site_id
 _symmetry_equiv_pos_as_xyz
  1  'x, y, z'
loop_
 _atom_site_type_symbol
 _atom_site_label
 _atom_site_symmetry_multiplicity
 _atom_site_fract_x
 _atom_site_fract_y
 _atom_site_fract_z
 _atom_site_occupancy
  Na  Na0  1  0.32125355  0.64099552  0.74923831  1
  Na  Na1  1  0.64947064  0.33050565  0.58435846  1
  Na  Na2  1  0.98726259  0.66764721  0.91758371  1
  Na  Na3  1  0.66477950  0.30150684  0.91536059  1
  Na  Na4  1  0.16706472  0.02960935  0.41709696  1
  Na  Na5  1  0.66643650  0.02884584  0.41724668  1
  Na  Na6  1  0.99512419  0.00290997  0.49567944  1
  Na  Na7  1  0.48545196  0.98272695  0.50146770  1
  Na  Na8  1  0.00303298  0.01631618  0.99797286  1
  Na  Na9  1  0.49107103  0.98477142  0.99521991  1
  Na  Na10  1  0.33780116  0.32544776  0.83720199  1
  Na  Na11  1  0.82983306  0.31715205  0.83003832  1
  Na  Na12  1  0.33994512  0.34576269  0.33460382  1
  Na  Na13  1  0.84024182  0.34600444  0.33387706  1
  Na  Na14  1  0.16761546  0.66690571  0.16638808  1
  Na  Na15  1  0.66584392  0.66619947  0.16660925  1
  Na  Na16  1  0.16540578  0.67146859  0.66337106  1
  Na  Na17  1  0.66249258  0.67389429  0.66999871  1
  Ca  Ca0  1  0.99590642  0.99953862  0.35009637  1
  Ca  Ca1  1  0.49542372  0.00000584  0.35053711  1
  Ca  Ca2  1  0.00141066  0.00965120  0.85028543  1
  Ca  Ca3  1  0.49695863  0.99585211  0.84893099  1
  Ca  Ca4  1  0.49797052  0.99472815  0.65103948  1
  Ca  Ca5  1  0.33677217  0.32878452  0.68090773  1
  Ca  Ca6  1  0.83215381  0.33074797  0.68447390  1
  Ca  Ca7  1  0.33304659  0.33277304  0.18310776  1
  Ca  Ca8  1  0.83288060  0.33293706  0.18317060  1
  Ca  Ca9  1  0.33353236  0.33534049  0.98553039  1
  Ca  Ca10  1  0.83311036  0.32274278  0.98940369  1
  Ca  Ca11  1  0.33661632  0.34095970  0.48568383  1
  Ca  Ca12  1  0.84209156  0.34326548  0.48563186  1
  Ca  Ca13  1  0.17024465  0.66803211  0.01776742  1
  Ca  Ca14  1  0.66566439  0.67045296  0.01773146  1
  Ca  Ca15  1  0.16709735  0.66053952  0.51757476  1
  Ca  Ca16  1  0.66639282  0.67101001  0.51565205  1
  Ca  Ca17  1  0.16714944  0.66197307  0.31357920  1
  Ca  Ca18  1  0.66664172  0.66151907  0.31336656  1
  Ca  Ca19  1  0.16460859  0.66844122  0.81645539  1
  Ca  Ca20  1  0.66711962  0.66983077  0.81530255  1
  Hf  Hf0  1  0.00048075  0.00109628  0.65037334  1
  Hf  Hf1  1  0.00072363  0.00023705  0.15054657  1
  Hf  Hf2  1  0.49969713  0.99968779  0.15012370  1
  S  S0  1  0.14473248  0.99947939  0.24898291  1
  S  S1  1  0.64444101  0.99981142  0.24891289  1
  S  S2  1  0.35512957  0.71034148  0.24745464  1
  S  S3  1  0.85523027  0.71062329  0.24739541  1
  S  S4  1  0.00008991  0.29022702  0.24741816  1
  S  S5  1  0.50013698  0.29005099  0.24736621  1
  S  S6  1  0.14637912  0.29270756  0.74708838  1
  S  S7  1  0.65079697  0.30125339  0.75020377  1
  S  S8  1  0.00000089  0.71102697  0.74883815  1
  S  S9  1  0.49880826  0.69941859  0.74960785  1
  S  S10  1  0.34923665  0.99716730  0.75024713  1
  S  S11  1  0.85558670  0.99974825  0.74774543  1
  S  S12  1  0.48581152  0.33316727  0.58286612  1
  S  S13  1  0.98323410  0.32591321  0.58699024  1
  S  S14  1  0.17847460  0.03116676  0.58502167  1
  S  S15  1  0.68459457  0.03822770  0.58199774  1
  S  S16  1  0.33270508  0.63374811  0.58550115  1
  S  S17  1  0.83687168  0.63874067  0.58616417  1
  S  S18  1  0.48304421  0.64037334  0.08660687  1
  S  S19  1  0.98380026  0.64157275  0.08493889  1
  S  S20  1  0.33715556  0.03420397  0.08643181  1
  S  S21  1  0.83727929  0.03151914  0.08696279  1
  S  S22  1  0.17972416  0.32549805  0.08652667  1
  S  S23  1  0.67899363  0.32581579  0.08518915  1
  S  S24  1  0.31614504  0.66422836  0.91508465  1
  S  S25  1  0.81600100  0.66438737  0.91759279  1
  S  S26  1  0.01714004  0.37172310  0.91764735  1
  S  S27  1  0.51887329  0.36951133  0.91690724  1
  S  S28  1  0.16560287  0.96370627  0.91721551  1
  S  S29  1  0.66740318  0.96966547  0.91671679  1
  S  S30  1  0.31333705  0.96422935  0.41692921  1
  S  S31  1  0.81405338  0.96457411  0.41658210  1
  S  S32  1  0.16675667  0.36443229  0.41626606  1
  S  S33  1  0.66760416  0.36497457  0.41804881  1
  S  S34  1  0.01981532  0.66904526  0.41609347  1
  S  S35  1  0.51867620  0.66856415  0.41524355  1
  O  O0  1  0.10724574  0.01577514  0.30087887  1
  O  O1  1  0.60723201  0.01614534  0.30095777  1
  O  O2  1  0.40194472  0.78716043  0.29828975  1
  O  O3  1  0.90196489  0.78705001  0.29828704  1
  O  O4  1  0.49213840  0.19680136  0.29819881  1
  O  O5  1  0.99170482  0.19650798  0.29820514  1
  O  O6  1  0.10806982  0.19839472  0.79772902  1
  O  O7  1  0.60913817  0.20286374  0.80085937  1
  O  O8  1  0.48840499  0.78136059  0.79934493  1
  O  O9  1  0.99196672  0.78576216  0.80091865  1
  O  O10  1  0.39855397  0.01623311  0.80048489  1
  O  O11  1  0.90236417  0.01529107  0.79849656  1
  O  O12  1  0.39020174  0.97637353  0.70042923  1
  O  O13  1  0.90544331  0.99028421  0.69822819  1
  O  O14  1  0.09164088  0.19539054  0.69782883  1
  O  O15  1  0.60242876  0.21873805  0.69915594  1
  O  O16  1  0.00546959  0.82391493  0.70018331  1
  O  O17  1  0.50795556  0.79805740  0.69934031  1
  O  O18  1  0.40442331  0.82027885  0.19799844  1
  O  O19  1  0.90452861  0.82034683  0.19801652  1
  O  O20  1  0.00534977  0.19098973  0.19793583  1
  O  O21  1  0.50541642  0.19103174  0.19790214  1
  O  O22  1  0.08866015  0.98891851  0.20022312  1
  O  O23  1  0.58864193  0.98938412  0.20020041  1
  O  O24  1  0.44612343  0.35112429  0.63321532  1
  O  O25  1  0.94158349  0.34845683  0.63508404  1
  O  O26  1  0.23223830  0.11813751  0.63239530  1
  O  O27  1  0.73610937  0.12385012  0.63096418  1
  O  O28  1  0.32528685  0.53963015  0.63739755  1
  O  O29  1  0.82399497  0.53085790  0.63416796  1
  O  O30  1  0.44205189  0.53583696  0.13508520  1
  O  O31  1  0.93988449  0.53261040  0.13199852  1
  O  O32  1  0.32571507  0.11571897  0.13508009  1
  O  O33  1  0.82571833  0.11534010  0.13484862  1
  O  O34  1  0.23169391  0.34771044  0.13510220  1
  O  O35  1  0.73348788  0.34716627  0.13222908  1
  O  O36  1  0.21300369  0.29233830  0.03567760  1
  O  O37  1  0.71119360  0.29434084  0.03275525  1
  O  O38  1  0.43343148  0.57380174  0.03570584  1
  O  O39  1  0.93584280  0.57771613  0.03250361  1
  O  O40  1  0.35323905  0.13382165  0.03566008  1
  O  O41  1  0.85414535  0.13067213  0.03571449  1
  O  O42  1  0.20968793  0.12573052  0.53272621  1
  O  O43  1  0.72433216  0.13760514  0.53057947  1
  O  O44  1  0.33974629  0.54532375  0.53645693  1
  O  O45  1  0.85427881  0.57370466  0.53522182  1
  O  O46  1  0.43628031  0.31619376  0.53303278  1
  O  O47  1  0.93410945  0.29159469  0.53572519  1
  O  O48  1  0.27222272  0.68053824  0.96384975  1
  O  O49  1  0.77642519  0.68487346  0.96760443  1
  O  O50  1  0.06687483  0.45314631  0.96753085  1
  O  O51  1  0.57056398  0.45154617  0.96674119  1
  O  O52  1  0.15396787  0.85853605  0.96655852  1
  O  O53  1  0.65952775  0.87273450  0.96701451  1
  O  O54  1  0.27298488  0.86543030  0.46718263  1
  O  O55  1  0.77432549  0.86615057  0.46697862  1
  O  O56  1  0.15758327  0.44436891  0.46638839  1
  O  O57  1  0.65923025  0.44165769  0.46998610  1
  O  O58  1  0.07005988  0.68820214  0.46624814  1
  O  O59  1  0.56942673  0.68989304  0.46542690  1
  O  O60  1  0.06024268  0.65101641  0.36570389  1
  O  O61  1  0.55996652  0.65059682  0.36524480  1
  O  O62  1  0.26254948  0.88235289  0.36671321  1
  O  O63  1  0.76280800  0.88175798  0.36673246  1
  O  O64  1  0.17509542  0.46212844  0.36595931  1
  O  O65  1  0.67561488  0.46730570  0.36908414  1
  O  O66  1  0.05713114  0.47193174  0.86709578  1
  O  O67  1  0.55942039  0.46865872  0.86665970  1
  O  O68  1  0.17414598  0.88358716  0.86640606  1
  O  O69  1  0.67679284  0.88966051  0.86651303  1
  O  O70  1  0.26926793  0.64834719  0.86274773  1
  O  O71  1  0.76565766  0.64359569  0.86759387  1
  O  O72  1  0.01527114  0.82785661  0.41262593  1
  O  O73  1  0.51446156  0.82740392  0.41153510  1
  O  O74  1  0.39876600  0.98760735  0.41301447  1
  O  O75  1  0.89947381  0.98769033  0.41277345  1
  O  O76  1  0.09172539  0.19017300  0.41295975  1
  O  O77  1  0.59261229  0.19221731  0.41356483  1
  O  O78  1  0.00530811  0.20048590  0.91352015  1
  O  O79  1  0.51501207  0.20227475  0.91309866  1
  O  O80  1  0.08583174  0.97217695  0.91328321  1
  O  O81  1  0.59244529  0.99289039  0.91320971  1
  O  O82  1  0.40082362  0.81723726  0.91316654  1
  O  O83  1  0.90335299  0.80968407  0.91282636  1
  O  O84  1  0.49720018  0.18291139  0.58605700  1
  O  O85  1  0.99196208  0.16916402  0.59675870  1
  O  O86  1  0.09182308  0.01490878  0.59593661  1
  O  O87  1  0.60167590  0.03122511  0.58645496  1
  O  O88  1  0.40906874  0.80295177  0.58680280  1
  O  O89  1  0.91244598  0.81274113  0.59637397  1
  O  O90  1  0.49193260  0.81455709  0.09624921  1
  O  O91  1  0.99194137  0.81421183  0.09531483  1
  O  O92  1  0.41533009  0.01632130  0.09598834  1
  O  O93  1  0.91535276  0.01484995  0.09640526  1
  O  O94  1  0.09260130  0.16862942  0.09613548  1
  O  O95  1  0.59313949  0.16958095  0.09553534  1
  O  O96  1  0.33696298  0.14369768  0.74591789  1
  O  O97  1  0.84754831  0.15049777  0.74208571  1
  O  O98  1  0.23133424  0.31589260  0.74054376  1
  O  O99  1  0.73546337  0.31667757  0.74770195  1
  O  O100  1  0.41914226  0.53235706  0.74600134  1
  O  O101  1  0.92520147  0.54504164  0.74178372  1
  O  O102  1  0.34642005  0.54326163  0.24118078  1
  O  O103  1  0.84663925  0.54351547  0.24107246  1
  O  O104  1  0.42547274  0.30791735  0.24136852  1
  O  O105  1  0.92541416  0.30822598  0.24122653  1
  O  O106  1  0.22774158  0.14935784  0.24201149  1
  O  O107  1  0.72769045  0.14992507  0.24199751  1
  O  O108  1  0.32449664  0.51168529  0.91981086  1
  O  O109  1  0.82301330  0.50746878  0.92221620  1
  O  O110  1  0.43348315  0.34610109  0.92181793  1
  O  O111  1  0.93351223  0.36403803  0.92171193  1
  O  O112  1  0.23934654  0.13355085  0.92217182  1
  O  O113  1  0.74262341  0.14438845  0.92050359  1
  O  O114  1  0.31753992  0.13177912  0.42091407  1
  O  O115  1  0.81833377  0.13210894  0.42053806  1
  O  O116  1  0.24173368  0.34053202  0.41981549  1
  O  O117  1  0.74295016  0.34210800  0.42081381  1
  O  O118  1  0.43339093  0.52082898  0.41957068  1
  O  O119  1  0.93417949  0.52134447  0.42011414  1
  O  O120  1  0.16658223  0.47054932  0.08118881  1
  O  O121  1  0.66693487  0.47214185  0.08056672  1
  O  O122  1  0.06888879  0.66576875  0.08025905  1
  O  O123  1  0.56862745  0.66621760  0.08124783  1
  O  O124  1  0.26456222  0.86296057  0.08108517  1
  O  O125  1  0.76436973  0.86140364  0.08122579  1
  O  O126  1  0.16545455  0.85987339  0.58089777  1
  O  O127  1  0.67333548  0.86786253  0.57881568  1
  O  O128  1  0.25660807  0.65096875  0.58183968  1
  O  O129  1  0.76045809  0.65351494  0.58004097  1
  O  O130  1  0.06825232  0.47126297  0.58145325  1
  O  O131  1  0.57268775  0.48302613  0.57949093  1
  O  O132  1  0.14919160  0.84359863  0.24761695  1
  O  O133  1  0.64937805  0.84427771  0.24770063  1
  O  O134  1  0.27272571  0.70145276  0.24687772  1
  O  O135  1  0.77280576  0.70148420  0.24691186  1
  O  O136  1  0.07798380  0.45483889  0.24674214  1
  O  O137  1  0.57819216  0.45475327  0.24662829  1
  O  O138  1  0.15310198  0.46075926  0.74735558  1
  O  O139  1  0.65942592  0.47068658  0.75308867  1
  O  O140  1  0.07762003  0.70154014  0.74749571  1
  O  O141  1  0.57292720  0.67732869  0.75365270  1
  O  O142  1  0.26608922  0.83652437  0.75380760  1
  O  O143  1  0.77321719  0.84513906  0.74677539  1
loop_
_geom_bond_atom_site_label_1
_geom_bond_atom_site_label_2
_geom_bond_distance
_geom_bond_site_symmetry_2
Na0 O100 2.461119 1_555
Na0 O142 2.471435 1_555
Na0 O98 2.605859 1_555
Na0 O138 2.686749 1_555
Na0 O28 2.868177 1_555
Na0 O70 2.913132 1_555
Na0 O12 2.935515 1_555
Na0 O8 2.940456 1_555
Na1 O84 2.431180 1_555
Na1 O87 2.437746 1_555
Na1 O131 2.442896 1_555
Na1 O129 2.638068 1_555
Na1 O57 2.918969 1_555
Na1 O15 2.932048 1_555
Na2 O111 2.456684 1_555
Na2 O80 2.466044 1_655
Na2 O83 2.475742 1_555
Na2 O109 2.624259 1_555
Na2 O39 2.914131 1_556
Na2 O52 2.920873 1_655
Na2 O66 2.948312 1_655
Na2 O9 3.004991 1_555
Na3 O79 2.435845 1_555
Na3 O81 2.462921 1_545
Na3 O113 2.496724 1_555
Na3 O109 2.569181 1_555
Na3 O7 2.929958 1_555
Na3 O37 2.970886 1_556
Na3 O51 2.973469 1_555
Na3 O71 2.975756 1_555
Na4 O114 2.444281 1_555
Na4 O72 2.468714 1_545
Na4 O116 2.480709 1_555
Na4 O76 2.483520 1_555
Na4 O42 2.914518 1_555
Na4 O62 2.963355 1_545
Na4 O58 2.978164 1_545
Na4 O0 2.994184 1_555
Na5 O115 2.466682 1_555
Na5 O73 2.472219 1_545
Na5 O77 2.481930 1_555
Na5 O117 2.499580 1_555
Na5 O43 2.925246 1_555
Na5 O59 2.951815 1_545
Na5 O63 2.976905 1_545
Na5 O1 2.993352 1_555
Na6 O75 2.624768 1_545
Na6 O76 2.657092 1_655
Na6 O72 2.709317 1_645
Na6 O85 2.894414 1_555
Na6 O89 2.937449 1_545
Na6 O86 2.975512 1_655
Na7 O88 2.575974 1_555
Na7 O74 2.681312 1_555
Na7 O84 2.684140 1_565
Na7 O73 2.791863 1_555
Na7 O87 2.836322 1_565
Na7 O77 2.883472 1_565
Na8 O78 2.639207 1_555
Na8 O80 2.698148 1_545
Na8 O83 2.779478 1_445
Na8 O94 2.827279 1_556
Na8 O93 2.867658 1_456
Na8 O91 2.941035 1_446
Na9 O82 2.550515 1_555
Na9 O79 2.693453 1_565
Na9 O81 2.695198 1_555
Na9 O92 2.888302 1_566
Na9 O90 2.903968 1_556
Na9 O95 3.016498 1_566
Na10 O110 2.643237 1_555
Na10 O108 2.717472 1_555
Na10 O112 2.723137 1_555
Na10 O96 2.760292 1_555
Na10 O100 2.805196 1_555
Na10 O98 3.022369 1_555
Na11 O99 2.640383 1_555
Na11 O113 2.706581 1_555
Na11 O97 2.730745 1_555
Na11 O111 2.813276 1_555
Na11 O109 2.871342 1_555
Na11 O101 2.888685 1_555
Na12 O118 2.645131 1_555
Na12 O116 2.722261 1_555
Na12 O114 2.753752 1_555
Na12 O102 2.862459 1_555
Na12 O104 2.864681 1_555
Na12 O106 2.967435 1_555
Na13 O119 2.672813 1_555
Na13 O117 2.746690 1_555
Na13 O115 2.761562 1_555
Na13 O105 2.849371 1_555
Na13 O103 2.851171 1_555
Na13 O107 2.956255 1_555
Na14 O134 2.648950 1_555
Na14 O136 2.660805 1_555
Na14 O132 2.673270 1_555
Na14 O120 2.729993 1_555
Na14 O124 2.732430 1_555
Na14 O122 2.760202 1_555
Na15 O137 2.643410 1_555
Na15 O133 2.664063 1_555
Na15 O135 2.667011 1_555
Na15 O123 2.731417 1_555
Na15 O125 2.740868 1_555
Na15 O121 2.744273 1_555
Na16 O126 2.640899 1_555
Na16 O128 2.653173 1_555
Na16 O130 2.686101 1_555
Na16 O140 2.693160 1_555
Na16 O138 2.736586 1_555
Na16 O142 2.775126 1_555
Na17 O141 2.616246 1_555
Na17 O143 2.621257 1_555
Na17 O139 2.724779 1_555
Na17 O131 2.773671 1_555
Na17 O127 2.778689 1_555
Na17 O129 2.887034 1_555
Ca0 O3 2.236846 1_555
Ca0 O5 2.237289 1_565
Ca0 O75 2.292868 1_555
Ca0 O0 2.308532 1_665
Ca0 O76 2.324721 1_665
Ca0 O72 2.338846 1_655
Ca1 O4 2.234687 1_555
Ca1 O2 2.241523 1_545
Ca1 O74 2.291098 1_545
Ca1 O73 2.318592 1_545
Ca1 O1 2.320750 1_555
Ca1 O77 2.342461 1_555
Ca2 O11 2.234738 1_455
Ca2 O6 2.253489 1_555
Ca2 O78 2.299549 1_555
Ca2 O9 2.309329 1_445
Ca2 O80 2.321926 1_545
Ca2 O83 2.368291 1_445
Ca3 O10 2.243486 1_565
Ca3 O8 2.244724 1_555
Ca3 O7 2.305328 1_565
Ca3 O82 2.309690 1_555
Ca3 O79 2.341479 1_565
Ca3 O81 2.357094 1_555
Ca4 O17 2.237417 1_555
Ca4 O12 2.247512 1_555
Ca4 O88 2.305419 1_555
Ca4 O15 2.311010 1_565
Ca4 O84 2.342992 1_565
Ca4 O87 2.355068 1_565
Ca5 O24 2.237664 1_555
Ca5 O26 2.260615 1_555
Ca5 O28 2.308103 1_555
Ca5 O96 2.318392 1_555
Ca5 O100 2.332738 1_555
Ca5 O98 2.371232 1_555
Ca6 O27 2.249511 1_555
Ca6 O29 2.273695 1_555
Ca6 O25 2.275625 1_555
Ca6 O97 2.289330 1_555
Ca6 O99 2.298379 1_555
Ca6 O101 2.316305 1_555
Ca7 O32 2.253542 1_555
Ca7 O34 2.260262 1_555
Ca7 O30 2.262865 1_555
Ca7 O102 2.301427 1_555
Ca7 O104 2.307277 1_555
Ca7 O106 2.315831 1_555
Ca8 O33 2.262662 1_555
Ca8 O35 2.264086 1_555
Ca8 O31 2.273848 1_555
Ca8 O103 2.297357 1_555
Ca8 O105 2.305200 1_555
Ca8 O107 2.312537 1_555
Ca9 O108 2.335202 1_555
Ca9 O110 2.361539 1_555
Ca9 O112 2.362335 1_555
Ca9 O38 2.374129 1_556
Ca9 O36 2.381013 1_556
Ca9 O40 2.390176 1_556
Ca10 O41 2.283179 1_556
Ca10 O113 2.346713 1_555
Ca10 O111 2.351074 1_555
Ca10 O37 2.369916 1_556
Ca10 O39 2.394839 1_556
Ca10 O109 2.424146 1_555
Ca11 O44 2.220261 1_555
Ca11 O46 2.269751 1_555
Ca11 O118 2.348891 1_555
Ca11 O116 2.362613 1_555
Ca11 O114 2.364954 1_555
Ca11 O42 2.460542 1_555
Ca12 O119 2.299529 1_555
Ca12 O43 2.316162 1_555
Ca12 O47 2.317740 1_555
Ca12 O45 2.345322 1_555
Ca12 O115 2.362715 1_555
Ca12 O117 2.402099 1_555
Ca13 O48 2.239426 1_554
Ca13 O52 2.285039 1_554
Ca13 O50 2.290721 1_554
Ca13 O124 2.336826 1_555
Ca13 O120 2.352410 1_555
Ca13 O122 2.390969 1_555
Ca14 O51 2.262340 1_554
Ca14 O53 2.278558 1_554
Ca14 O49 2.317148 1_554
Ca14 O123 2.339179 1_555
Ca14 O125 2.356540 1_555
Ca14 O121 2.383240 1_555
Ca15 O56 2.272039 1_555
Ca15 O54 2.273050 1_555
Ca15 O58 2.292357 1_555
Ca15 O128 2.298622 1_555
Ca15 O130 2.357827 1_555
Ca15 O126 2.398288 1_555
Ca16 O55 2.234398 1_555
Ca16 O59 2.237335 1_555
Ca16 O131 2.316184 1_555
Ca16 O127 2.320790 1_555
Ca16 O57 2.324851 1_555
Ca16 O129 2.393520 1_555
Ca17 O60 2.295223 1_555
Ca17 O64 2.297007 1_555
Ca17 O62 2.299450 1_555
Ca17 O134 2.407332 1_555
Ca17 O136 2.409881 1_555
Ca17 O132 2.448827 1_555
Ca18 O61 2.288527 1_555
Ca18 O63 2.306548 1_555
Ca18 O65 2.308855 1_555
Ca18 O137 2.402988 1_555
Ca18 O135 2.410177 1_555
Ca18 O133 2.445942 1_555
Ca19 O68 2.247890 1_555
Ca19 O66 2.260226 1_555
Ca19 O142 2.298963 1_555
Ca19 O70 2.315369 1_555
Ca19 O140 2.434204 1_555
Ca19 O138 2.463613 1_555
Ca20 O67 2.287390 1_555
Ca20 O69 2.299535 1_555
Ca20 O141 2.314134 1_555
Ca20 O139 2.317183 1_555
Ca20 O71 2.321546 1_555
Ca20 O143 2.451233 1_555
Hf0 O13 2.056936 1_445
Hf0 O16 2.065549 1_545
Hf0 O14 2.081160 1_555
Hf0 O85 2.082892 1_455
Hf0 O86 2.087061 1_555
Hf0 O89 2.127617 1_445
Hf1 O20 2.060112 1_555
Hf1 O22 2.060505 1_545
Hf1 O19 2.064928 1_445
Hf1 O94 2.090775 1_555
Hf1 O93 2.101214 1_455
Hf1 O91 2.110333 1_445
Hf2 O18 2.061007 1_555
Hf2 O21 2.062219 1_565
Hf2 O23 2.077093 1_555
Hf2 O90 2.089664 1_555
Hf2 O92 2.094903 1_565
Hf2 O95 2.110832 1_565
O0 S0 1.472913 1_545
O1 S1 1.473444 1_545
O2 S2 1.463164 1_555
O3 S3 1.463115 1_555
O4 S5 1.462530 1_555
O5 S4 1.462566 1_655
O6 S6 1.460837 1_555
O7 S7 1.486629 1_555
O8 S9 1.479364 1_555
O9 S8 1.474647 1_655
O10 S10 1.472859 1_545
O11 S11 1.463705 1_545
O12 S10 1.481106 1_555
O13 S11 1.535189 1_555
O14 S6 1.526856 1_555
O15 S7 1.487826 1_555
O16 S8 1.538279 1_555
O17 S9 1.474297 1_555
O18 S2 1.534890 1_555
O19 S3 1.532745 1_555
O20 S4 1.534854 1_555
O21 S5 1.533386 1_555
O22 S0 1.537432 1_555
O23 S1 1.533668 1_555
O24 S12 1.468661 1_555
O25 S13 1.461417 1_555
O26 S14 1.462232 1_555
O27 S15 1.473863 1_555
O28 S16 1.490490 1_555
O29 S17 1.466642 1_555
O30 S18 1.462832 1_555
O31 S19 1.463045 1_555
O32 S20 1.463372 1_555
O33 S21 1.462179 1_555
O34 S22 1.462719 1_555
O35 S23 1.463067 1_555
O36 S22 1.469583 1_555
O37 S23 1.485462 1_555
O38 S18 1.470343 1_555
O39 S19 1.486666 1_555
O40 S20 1.469787 1_555
O41 S21 1.475676 1_555
O42 S14 1.477232 1_555
O43 S15 1.498123 1_555
O44 S16 1.477640 1_555
O45 S17 1.470434 1_555
O46 S12 1.470856 1_555
O47 S13 1.471752 1_555
O48 S24 1.476953 1_555
O49 S25 1.469357 1_555
O50 S26 1.471625 1_555
O51 S27 1.485383 1_555
O52 S28 1.481816 1_555
O53 S29 1.470790 1_555
O54 S30 1.475105 1_555
O55 S31 1.474475 1_555
O56 S32 1.468053 1_555
O57 S33 1.483165 1_555
O58 S34 1.480658 1_555
O59 S35 1.482731 1_555
O60 S34 1.477279 1_555
O61 S35 1.478317 1_555
O62 S30 1.486234 1_555
O63 S31 1.483912 1_555
O64 S32 1.473169 1_555
O65 S33 1.472590 1_555
O66 S26 1.484555 1_555
O67 S27 1.476864 1_555
O68 S28 1.478512 1_555
O69 S29 1.471477 1_555
O70 S24 1.496278 1_555
O71 S25 1.475763 1_555
O72 S34 1.507482 1_555
O73 S35 1.504817 1_555
O74 S30 1.481052 1_555
O75 S31 1.481667 1_555
O76 S32 1.508456 1_555
O77 S33 1.501619 1_555
O78 S26 1.482435 1_555
O79 S27 1.507534 1_555
O80 S28 1.513026 1_555
O81 S29 1.501518 1_555
O82 S24 1.491674 1_555
O83 S25 1.497375 1_555
O84 S12 1.500660 1_555
O85 S13 1.547499 1_555
O86 S14 1.549361 1_555
O87 S15 1.500109 1_555
O88 S16 1.489131 1_555
O89 S17 1.528784 1_555
O90 S18 1.545265 1_555
O91 S19 1.539746 1_555
O92 S20 1.546486 1_555
O93 S21 1.537884 1_555
O94 S22 1.549257 1_555
O95 S23 1.536355 1_555
O96 S10 1.478271 1_545
O97 S11 1.473378 1_545
O98 S6 1.478459 1_555
O99 S7 1.495053 1_555
O100 S9 1.507404 1_555
O101 S8 1.469507 1_655
O102 S2 1.471808 1_555
O103 S3 1.473086 1_555
O104 S5 1.471768 1_555
O105 S4 1.473157 1_655
O106 S0 1.470752 1_545
O107 S1 1.474036 1_545
O108 S24 1.491131 1_555
O109 S25 1.516976 1_555
O110 S27 1.481934 1_555
O111 S26 1.509581 1_655
O112 S28 1.477429 1_545
O113 S29 1.513038 1_545
O114 S30 1.507769 1_545
O115 S31 1.506933 1_545
O116 S32 1.505672 1_555
O117 S33 1.505701 1_555
O118 S35 1.481518 1_555
O119 S34 1.484794 1_655
O120 S22 1.476568 1_555
O121 S23 1.474532 1_555
O122 S19 1.473246 1_455
O123 S18 1.477875 1_555
O124 S20 1.477936 1_565
O125 S21 1.474645 1_565
O126 S14 1.474683 1_565
O127 S15 1.477227 1_565
O128 S16 1.490023 1_555
O129 S17 1.487761 1_555
O130 S13 1.472475 1_455
O131 S12 1.505356 1_555
O132 S0 1.477618 1_555
O133 S1 1.479130 1_555
O134 S2 1.478951 1_555
O135 S3 1.478258 1_555
O136 S4 1.477766 1_555
O137 S5 1.479598 1_555
O138 S6 1.488621 1_555
O139 S7 1.487884 1_555
O140 S8 1.475714 1_555
O141 S9 1.480751 1_555
O142 S10 1.509347 1_555
O143 S11 1.473710 1_555
