# generated using pymatgen
data_Na6Al4Ga4Si3(S3O16)3
_symmetry_space_group_name_H-M   'P 1'
_cell_length_a   17.09761041
_cell_length_b   8.50601548
_cell_length_c   21.92005584
_cell_angle_alpha   90.10680886
_cell_angle_beta   89.44510382
_cell_angle_gamma   119.77097086
_symmetry_Int_Tables_number   1
_chemical_formula_structural   Na6Al4Ga4Si3(S3O16)3
_chemical_formula_sum   'Na18 Al12 Ga12 Si9 S27 O144'
_cell_volume   2766.99691063
_cell_formula_units_Z   3
loop_
 _symmetry_equiv_pos_site_id
 _symmetry_equiv_pos_as_xyz
  1  'x, y, z'
loop_
 _atom_site_type_symbol
 _atom_site_label
 _atom_site_symmetry_multiplicity
 _atom_site_fract_x
 _atom_site_fract_y
 _atom_site_fract_z
 _atom_site_occupancy
  Na  Na0  1  0.00411826  0.64434904  0.25368050  1
  Na  Na1  1  0.50230809  0.36388024  0.74508644  1
  Na  Na2  1  0.16282883  0.30109926  0.91176514  1
  Na  Na3  1  0.66324957  0.30191699  0.91238410  1
  Na  Na4  1  0.16391268  0.02674046  0.41670591  1
  Na  Na5  1  0.66197646  0.02177805  0.41598845  1
  Na  Na6  1  0.99497969  0.99133874  0.50073613  1
  Na  Na7  1  0.49455863  0.00064462  0.50232706  1
  Na  Na8  1  0.99648770  0.00130829  0.99807117  1
  Na  Na9  1  0.49444521  0.99775519  0.99911458  1
  Na  Na10  1  0.33218462  0.33265696  0.83052816  1
  Na  Na11  1  0.83891084  0.33477234  0.82983104  1
  Na  Na12  1  0.33939251  0.34370261  0.33314539  1
  Na  Na13  1  0.83092539  0.32956228  0.33457722  1
  Na  Na14  1  0.17281782  0.67641426  0.16796254  1
  Na  Na15  1  0.66405782  0.67376807  0.16996542  1
  Na  Na16  1  0.16735021  0.65719233  0.66847562  1
  Na  Na17  1  0.66552106  0.65862234  0.66392293  1
  Al  Al0  1  0.00486522  0.00970089  0.65068182  1
  Al  Al1  1  0.50316692  0.01892557  0.64776298  1
  Al  Al2  1  0.00358425  0.99590516  0.15071554  1
  Al  Al3  1  0.50322962  0.99560335  0.15261071  1
  Al  Al4  1  0.83170423  0.33549038  0.68659175  1
  Al  Al5  1  0.33271194  0.32859655  0.18835642  1
  Al  Al6  1  0.16380032  0.65565595  0.01562530  1
  Al  Al7  1  0.66247178  0.65470842  0.01640252  1
  Al  Al8  1  0.16462588  0.67182697  0.51755648  1
  Al  Al9  1  0.65275969  0.65771285  0.52065066  1
  Al  Al10  1  0.65797778  0.66992204  0.31320941  1
  Al  Al11  1  0.15704292  0.64526628  0.81000354  1
  Ga  Ga0  1  0.00491119  0.99357902  0.35347274  1
  Ga  Ga1  1  0.50361307  0.98934004  0.35156477  1
  Ga  Ga2  1  0.00443782  0.02250680  0.84798595  1
  Ga  Ga3  1  0.50490801  0.01945548  0.84955344  1
  Ga  Ga4  1  0.32991545  0.33607488  0.68192139  1
  Ga  Ga5  1  0.82389329  0.31653838  0.18626478  1
  Ga  Ga6  1  0.33946383  0.33315819  0.98096695  1
  Ga  Ga7  1  0.84078655  0.33387066  0.98047774  1
  Ga  Ga8  1  0.35072584  0.35237380  0.48368175  1
  Ga  Ga9  1  0.83918005  0.34601345  0.48238658  1
  Ga  Ga10  1  0.16425130  0.67625099  0.31540320  1
  Ga  Ga11  1  0.66196200  0.65201049  0.81205133  1
  Si  Si0  1  0.14998970  0.00925513  0.24850763  1
  Si  Si1  1  0.64563502  0.99677737  0.24944497  1
  Si  Si2  1  0.14858979  0.29374440  0.74788120  1
  Si  Si3  1  0.65103607  0.29072340  0.74914176  1
  Si  Si4  1  0.47993805  0.33024069  0.58588869  1
  Si  Si5  1  0.02080666  0.38008584  0.91722040  1
  Si  Si6  1  0.51869375  0.37652271  0.91738722  1
  Si  Si7  1  0.01860952  0.65833143  0.41789142  1
  Si  Si8  1  0.51978580  0.66279321  0.41647606  1
  S  S0  1  0.35500312  0.70847647  0.24783155  1
  S  S1  1  0.85247077  0.71232815  0.24861942  1
  S  S2  1  0.00011990  0.28274281  0.24851377  1
  S  S3  1  0.50021133  0.28722758  0.24877657  1
  S  S4  1  0.99994500  0.71336701  0.74913258  1
  S  S5  1  0.50050845  0.72229269  0.74972607  1
  S  S6  1  0.35097244  0.98971183  0.75077770  1
  S  S7  1  0.85518189  0.00104443  0.74758692  1
  S  S8  1  0.97819661  0.33056840  0.58467406  1
  S  S9  1  0.18419899  0.03556920  0.58158843  1
  S  S10  1  0.69117736  0.04520319  0.58335889  1
  S  S11  1  0.33100161  0.63135629  0.58255043  1
  S  S12  1  0.83581357  0.63105116  0.58508891  1
  S  S13  1  0.47822446  0.62567985  0.08481783  1
  S  S14  1  0.97985300  0.62793397  0.08468360  1
  S  S15  1  0.33376364  0.03837655  0.08482605  1
  S  S16  1  0.83323098  0.03273650  0.08332086  1
  S  S17  1  0.18890296  0.33509098  0.08376761  1
  S  S18  1  0.68659499  0.33551837  0.08206174  1
  S  S19  1  0.31111542  0.67238096  0.91737418  1
  S  S20  1  0.81283249  0.67255928  0.91858752  1
  S  S21  1  0.16584086  0.94571385  0.91725218  1
  S  S22  1  0.66635726  0.94841546  0.91858733  1
  S  S23  1  0.31310422  0.95485859  0.41745255  1
  S  S24  1  0.81016069  0.94731944  0.41724844  1
  S  S25  1  0.16671738  0.38428189  0.41779978  1
  S  S26  1  0.66629786  0.38764979  0.41617460  1
  O  O0  1  0.10857616  0.04256031  0.31156059  1
  O  O1  1  0.60778655  0.04381820  0.31136345  1
  O  O2  1  0.40725375  0.78402961  0.30364786  1
  O  O3  1  0.90983148  0.78925641  0.30325633  1
  O  O4  1  0.47881307  0.17342079  0.30387061  1
  O  O5  1  0.98148887  0.17331876  0.30418787  1
  O  O6  1  0.11219446  0.17581130  0.81197410  1
  O  O7  1  0.61362413  0.18153366  0.81417171  1
  O  O8  1  0.48558635  0.79905550  0.80673937  1
  O  O9  1  0.97898057  0.78504689  0.80497383  1
  O  O10  1  0.40784072  0.02583372  0.80619500  1
  O  O11  1  0.90691100  0.03128004  0.80464279  1
  O  O12  1  0.39113602  0.95584978  0.69628379  1
  O  O13  1  0.89648303  0.96364833  0.69411567  1
  O  O14  1  0.08186910  0.19578393  0.69162492  1
  O  O15  1  0.57846259  0.19302827  0.69585958  1
  O  O16  1  0.01214509  0.82406946  0.69432506  1
  O  O17  1  0.50855140  0.82675194  0.69450522  1
  O  O18  1  0.39564951  0.82725908  0.19336897  1
  O  O19  1  0.89329745  0.82720142  0.19332665  1
  O  O20  1  0.00881595  0.19320455  0.19268348  1
  O  O21  1  0.51186264  0.19928985  0.19311309  1
  O  O22  1  0.07837741  0.95778751  0.19286238  1
  O  O23  1  0.58342644  0.96665318  0.19036855  1
  O  O24  1  0.43562703  0.36937671  0.64755221  1
  O  O25  1  0.93490556  0.36261237  0.63863557  1
  O  O26  1  0.24000942  0.11640705  0.63578940  1
  O  O27  1  0.75008208  0.13748383  0.63597668  1
  O  O28  1  0.30905719  0.51483560  0.63734618  1
  O  O29  1  0.82067725  0.51126638  0.63854864  1
  O  O30  1  0.43501551  0.50723846  0.13831979  1
  O  O31  1  0.93982744  0.51477027  0.14034900  1
  O  O32  1  0.31852093  0.12671619  0.13817638  1
  O  O33  1  0.81615105  0.11367932  0.13804621  1
  O  O34  1  0.24740734  0.36231349  0.13613202  1
  O  O35  1  0.74462812  0.36921372  0.13556566  1
  O  O36  1  0.22657716  0.30096601  0.02639745  1
  O  O37  1  0.72684712  0.30167181  0.02615351  1
  O  O38  1  0.42299116  0.54865249  0.02924923  1
  O  O39  1  0.92221747  0.54602634  0.03086704  1
  O  O40  1  0.35097524  0.14901799  0.02856738  1
  O  O41  1  0.85110697  0.14835687  0.02843440  1
  O  O42  1  0.22173719  0.14629177  0.52552047  1
  O  O43  1  0.72851965  0.15780012  0.52609704  1
  O  O44  1  0.34593273  0.55098133  0.52688304  1
  O  O45  1  0.85427858  0.55536421  0.52891537  1
  O  O46  1  0.41539593  0.28441073  0.52735096  1
  O  O47  1  0.92325264  0.29709509  0.52923377  1
  O  O48  1  0.27151171  0.70382268  0.97401984  1
  O  O49  1  0.77171109  0.70425090  0.97383942  1
  O  O50  1  0.08551608  0.46268337  0.97696204  1
  O  O51  1  0.58680696  0.46647770  0.97459247  1
  O  O52  1  0.15747768  0.84162158  0.97395548  1
  O  O53  1  0.65780165  0.84196233  0.97420782  1
  O  O54  1  0.27177624  0.84035545  0.47208711  1
  O  O55  1  0.77138396  0.83798240  0.47287201  1
  O  O56  1  0.15630004  0.47309723  0.47280547  1
  O  O57  1  0.65872298  0.47593646  0.47214474  1
  O  O58  1  0.08815582  0.70364994  0.47355220  1
  O  O59  1  0.58738698  0.71321405  0.47417048  1
  O  O60  1  0.05766670  0.62491543  0.35358751  1
  O  O61  1  0.56528539  0.63001360  0.35695344  1
  O  O62  1  0.25794305  0.87572525  0.36164542  1
  O  O63  1  0.75553351  0.86680736  0.36205661  1
  O  O64  1  0.18402078  0.49230211  0.36123643  1
  O  O65  1  0.68364994  0.49690470  0.36038478  1
  O  O66  1  0.06829467  0.50472333  0.85855645  1
  O  O67  1  0.56011406  0.49328453  0.85507442  1
  O  O68  1  0.18339505  0.87013083  0.86215132  1
  O  O69  1  0.68548101  0.87697296  0.86260575  1
  O  O70  1  0.25499668  0.64223911  0.86338462  1
  O  O71  1  0.75722675  0.63782897  0.86352378  1
  O  O72  1  0.01094734  0.84431698  0.41384860  1
  O  O73  1  0.51002606  0.84692966  0.41324227  1
  O  O74  1  0.40375721  0.98081737  0.40995087  1
  O  O75  1  0.90318660  0.97853917  0.40963517  1
  O  O76  1  0.08131147  0.20595042  0.41434323  1
  O  O77  1  0.58262372  0.20876225  0.41271362  1
  O  O78  1  0.01023927  0.17622638  0.91255336  1
  O  O79  1  0.51022351  0.17507801  0.91321785  1
  O  O80  1  0.08246360  0.95751010  0.91448143  1
  O  O81  1  0.58268822  0.95849748  0.91567121  1
  O  O82  1  0.40265557  0.82543321  0.91127736  1
  O  O83  1  0.90381128  0.82679291  0.91153295  1
  O  O84  1  0.48818125  0.14865657  0.59169925  1
  O  O85  1  0.98585413  0.16491603  0.59155085  1
  O  O86  1  0.09174943  0.01075601  0.58964780  1
  O  O87  1  0.59984192  0.01804311  0.59152001  1
  O  O88  1  0.41314955  0.80618231  0.59175835  1
  O  O89  1  0.91756082  0.81158038  0.59375330  1
  O  O90  1  0.48607823  0.80717557  0.09151997  1
  O  O91  1  0.98695523  0.80918858  0.09078874  1
  O  O92  1  0.41453315  0.01812011  0.09283087  1
  O  O93  1  0.91496964  0.01527182  0.09127241  1
  O  O94  1  0.09697931  0.17485746  0.09131628  1
  O  O95  1  0.59550875  0.17504029  0.08951680  1
  O  O96  1  0.34540594  0.15688019  0.74500599  1
  O  O97  1  0.85022121  0.16824317  0.73828284  1
  O  O98  1  0.24817517  0.31185425  0.74095811  1
  O  O99  1  0.74982832  0.31286237  0.74028404  1
  O  O100  1  0.42287450  0.53569171  0.74739202  1
  O  O101  1  0.92295415  0.52718392  0.74051692  1
  O  O102  1  0.35007554  0.53144595  0.23791299  1
  O  O103  1  0.85042058  0.53528517  0.24049447  1
  O  O104  1  0.42249882  0.31809663  0.23955284  1
  O  O105  1  0.92357246  0.31902520  0.24213214  1
  O  O106  1  0.24803847  0.18478643  0.23936152  1
  O  O107  1  0.74595181  0.17963459  0.24453233  1
  O  O108  1  0.31355428  0.49909823  0.92467804  1
  O  O109  1  0.81548271  0.50024340  0.92623128  1
  O  O110  1  0.41964302  0.35664924  0.92296829  1
  O  O111  1  0.92090394  0.35843603  0.92225254  1
  O  O112  1  0.24361604  0.13562418  0.92355770  1
  O  O113  1  0.74361886  0.13800529  0.92485398  1
  O  O114  1  0.31485438  0.13040776  0.42308387  1
  O  O115  1  0.81430449  0.12730277  0.42338486  1
  O  O116  1  0.24237011  0.34837626  0.42380900  1
  O  O117  1  0.74379949  0.35186453  0.42165487  1
  O  O118  1  0.41890187  0.48891919  0.42011412  1
  O  O119  1  0.91951445  0.48099959  0.42321751  1
  O  O120  1  0.18200195  0.50269233  0.07802223  1
  O  O121  1  0.67983597  0.50254651  0.07595857  1
  O  O122  1  0.07117056  0.64971118  0.07679064  1
  O  O123  1  0.56958566  0.64609424  0.07748228  1
  O  O124  1  0.25162606  0.85753099  0.07746466  1
  O  O125  1  0.75186612  0.85278810  0.07538651  1
  O  O126  1  0.17697929  0.85380909  0.57562855  1
  O  O127  1  0.68834506  0.86968093  0.57681556  1
  O  O128  1  0.25013696  0.65413183  0.57413456  1
  O  O129  1  0.75607429  0.65027864  0.57762798  1
  O  O130  1  0.06917114  0.49245580  0.57768215  1
  O  O131  1  0.57922380  0.51099498  0.57777301  1
  O  O132  1  0.15724254  0.82292377  0.25324040  1
  O  O133  1  0.65879409  0.82110996  0.25609650  1
  O  O134  1  0.26309615  0.68171270  0.25426822  1
  O  O135  1  0.76210984  0.68402161  0.25701707  1
  O  O136  1  0.08419885  0.46025540  0.25146294  1
  O  O137  1  0.58435001  0.46205979  0.25447579  1
  O  O138  1  0.15846971  0.49321205  0.75568399  1
  O  O139  1  0.65749723  0.49138432  0.75294063  1
  O  O140  1  0.08449782  0.70645700  0.75558564  1
  O  O141  1  0.58507603  0.71111779  0.75263569  1
  O  O142  1  0.26011735  0.83310106  0.76001099  1
  O  O143  1  0.76356651  0.84417930  0.75492619  1
loop_
_geom_bond_atom_site_label_1
_geom_bond_atom_site_label_2
_geom_bond_distance
_geom_bond_site_symmetry_2
Na0 O132 2.282974 1_555
Na0 O103 2.332933 1_455
Na0 O105 2.416147 1_455
Na0 O60 2.419089 1_555
Na0 O136 2.540998 1_555
Na0 O22 2.667643 1_555
Na0 O3 2.689482 1_455
Na0 O31 2.726548 1_455
Na1 O139 2.323063 1_555
Na1 O96 2.367742 1_555
Na1 O100 2.439729 1_555
Na1 O24 2.444045 1_555
Na1 O141 2.570160 1_555
Na1 O15 2.611088 1_555
Na1 O67 2.637604 1_555
Na1 O10 2.833985 1_555
Na2 O78 2.276454 1_555
Na2 O108 2.293463 1_555
Na2 O6 2.404539 1_555
Na2 O112 2.427931 1_555
Na2 O80 2.538530 1_545
Na2 O50 2.727470 1_555
Na2 O70 2.732428 1_555
Na2 O36 2.748847 1_556
Na3 O79 2.281602 1_555
Na3 O109 2.316383 1_555
Na3 O7 2.359544 1_555
Na3 O113 2.412071 1_555
Na3 O81 2.537443 1_545
Na3 O51 2.702241 1_555
Na3 O71 2.704021 1_555
Na3 O37 2.730634 1_556
Na4 O114 2.281218 1_555
Na4 O72 2.285699 1_545
Na4 O116 2.380431 1_555
Na4 O0 2.528862 1_555
Na4 O76 2.541757 1_555
Na4 O42 2.595969 1_555
Na4 O58 2.688792 1_545
Na4 O62 2.774682 1_545
Na5 O73 2.265106 1_545
Na5 O115 2.302434 1_555
Na5 O117 2.440741 1_555
Na5 O1 2.523580 1_555
Na5 O77 2.553586 1_555
Na5 O59 2.607425 1_545
Na5 O43 2.682169 1_555
Na5 O63 2.783059 1_545
Na6 O72 2.363468 1_655
Na6 O89 2.489331 1_555
Na6 O75 2.520510 1_555
Na6 O86 2.520523 1_665
Na6 O85 2.525626 1_565
Na6 O76 2.525927 1_665
Na7 O84 2.357497 1_555
Na7 O73 2.432399 1_545
Na7 O88 2.487814 1_545
Na7 O74 2.517627 1_545
Na7 O77 2.562852 1_555
Na7 O87 2.624356 1_555
Na8 O78 2.331827 1_655
Na8 O83 2.454488 1_545
Na8 O80 2.479125 1_645
Na8 O93 2.497754 1_556
Na8 O91 2.563026 1_546
Na8 O94 2.616669 1_656
Na9 O79 2.342993 1_565
Na9 O82 2.466211 1_555
Na9 O81 2.485549 1_555
Na9 O92 2.509213 1_566
Na9 O90 2.554888 1_556
Na9 O95 2.579568 1_566
Na10 O98 2.397965 1_555
Na10 O100 2.450618 1_555
Na10 O96 2.473439 1_555
Na10 O110 2.477422 1_555
Na10 O112 2.587078 1_555
Na10 O108 2.605606 1_555
Na11 O111 2.425547 1_555
Na11 O99 2.445832 1_555
Na11 O101 2.489636 1_555
Na11 O97 2.514913 1_555
Na11 O113 2.652085 1_555
Na11 O109 2.671909 1_555
Na12 O118 2.319885 1_555
Na12 O106 2.539308 1_555
Na12 O104 2.554317 1_555
Na12 O114 2.568214 1_555
Na12 O102 2.580046 1_555
Na12 O116 2.589261 1_555
Na13 O119 2.416369 1_555
Na13 O107 2.416437 1_555
Na13 O117 2.474379 1_555
Na13 O115 2.519203 1_555
Na13 O105 2.588758 1_555
Na13 O103 2.616711 1_555
Na14 O132 2.330121 1_555
Na14 O134 2.439410 1_555
Na14 O124 2.454035 1_555
Na14 O136 2.493747 1_555
Na14 O120 2.511686 1_555
Na14 O122 2.596059 1_555
Na15 O133 2.289820 1_555
Na15 O137 2.461336 1_555
Na15 O135 2.524953 1_555
Na15 O123 2.541295 1_555
Na15 O125 2.559680 1_555
Na15 O121 2.609281 1_555
Na16 O138 2.327410 1_555
Na16 O128 2.502070 1_555
Na16 O140 2.522387 1_555
Na16 O130 2.541775 1_555
Na16 O142 2.544425 1_555
Na16 O126 2.588237 1_555
Na17 O131 2.350563 1_555
Na17 O139 2.379336 1_555
Na17 O129 2.456034 1_555
Na17 O127 2.514696 1_555
Na17 O141 2.535241 1_555
Na17 O143 2.589603 1_555
Al0 O14 1.729827 1_555
Al0 O16 1.904467 1_545
Al0 O13 1.933943 1_445
Al0 O86 1.986210 1_555
Al0 O85 1.992353 1_455
Al0 O89 2.038492 1_445
Al1 O84 1.756566 1_555
Al1 O15 1.757598 1_555
Al1 O17 1.971751 1_545
Al1 O12 2.007523 1_545
Al1 O87 2.055458 1_555
Al1 O88 2.100709 1_545
Al2 O22 1.740597 1_555
Al2 O20 1.875503 1_565
Al2 O19 1.941915 1_455
Al2 O91 1.969729 1_455
Al2 O94 2.028667 1_565
Al2 O93 2.075417 1_465
Al3 O23 1.727374 1_555
Al3 O21 1.885367 1_565
Al3 O18 1.894532 1_555
Al3 O90 1.995229 1_555
Al3 O95 2.075044 1_565
Al3 O92 2.093180 1_565
Al4 O99 1.755921 1_555
Al4 O29 1.915650 1_555
Al4 O27 1.924594 1_555
Al4 O25 1.957658 1_555
Al4 O97 1.966755 1_555
Al4 O101 1.998063 1_555
Al5 O106 1.748521 1_555
Al5 O102 1.932836 1_555
Al5 O104 1.947802 1_555
Al5 O32 1.949844 1_555
Al5 O30 1.975112 1_555
Al5 O34 1.992217 1_555
Al6 O50 1.743290 1_554
Al6 O52 1.877574 1_554
Al6 O48 1.900180 1_554
Al6 O120 2.019269 1_555
Al6 O122 2.046463 1_555
Al6 O124 2.123914 1_555
Al7 O51 1.742870 1_554
Al7 O53 1.879367 1_554
Al7 O49 1.929393 1_554
Al7 O121 1.965449 1_555
Al7 O123 2.040521 1_555
Al7 O125 2.078306 1_555
Al8 O58 1.757833 1_555
Al8 O56 1.896713 1_555
Al8 O126 1.932434 1_555
Al8 O54 1.940765 1_555
Al8 O128 1.988123 1_555
Al8 O130 2.054624 1_555
Al9 O59 1.748736 1_555
Al9 O131 1.767255 1_555
Al9 O57 1.918317 1_555
Al9 O127 2.013342 1_555
Al9 O55 2.106676 1_555
Al9 O129 2.199569 1_555
Al10 O61 1.727380 1_555
Al10 O133 1.791409 1_555
Al10 O63 1.996785 1_555
Al10 O65 2.020847 1_555
Al10 O137 2.044728 1_555
Al10 O135 2.108898 1_555
Al11 O66 1.742510 1_555
Al11 O138 1.765271 1_555
Al11 O140 1.975938 1_555
Al11 O142 2.008061 1_555
Al11 O70 2.062911 1_555
Al11 O68 2.077036 1_555
Ga0 O0 1.842732 1_565
Ga0 O72 1.874335 1_555
Ga0 O3 2.024026 1_455
Ga0 O5 2.070621 1_465
Ga0 O75 2.072455 1_455
Ga0 O76 2.105064 1_565
Ga1 O1 1.820752 1_565
Ga1 O73 1.856903 1_555
Ga1 O2 2.009176 1_555
Ga1 O74 2.095993 1_555
Ga1 O4 2.097261 1_565
Ga1 O77 2.151030 1_565
Ga2 O6 1.818728 1_555
Ga2 O78 1.894640 1_555
Ga2 O11 1.960415 1_455
Ga2 O9 2.070244 1_445
Ga2 O83 2.188528 1_445
Ga2 O80 2.232267 1_545
Ga3 O7 1.840780 1_555
Ga3 O79 1.893175 1_555
Ga3 O10 1.944411 1_555
Ga3 O8 1.972030 1_545
Ga3 O82 2.169782 1_545
Ga3 O81 2.205165 1_545
Ga4 O98 1.830389 1_555
Ga4 O24 1.838628 1_555
Ga4 O28 1.986135 1_555
Ga4 O26 2.011844 1_555
Ga4 O96 2.172893 1_555
Ga4 O100 2.196322 1_555
Ga5 O107 1.787384 1_555
Ga5 O33 1.970071 1_555
Ga5 O35 1.976497 1_555
Ga5 O103 2.060331 1_555
Ga5 O105 2.099813 1_555
Ga5 O31 2.105657 1_555
Ga6 O110 1.797408 1_555
Ga6 O40 1.974065 1_556
Ga6 O38 1.985436 1_556
Ga6 O36 2.056909 1_556
Ga6 O108 2.085417 1_555
Ga6 O112 2.095227 1_555
Ga7 O111 1.797745 1_555
Ga7 O41 1.978005 1_556
Ga7 O39 1.985518 1_556
Ga7 O109 2.056222 1_555
Ga7 O113 2.074932 1_555
Ga7 O37 2.075066 1_556
Ga8 O46 1.769294 1_555
Ga8 O118 1.810913 1_555
Ga8 O44 1.971656 1_555
Ga8 O114 2.135829 1_555
Ga8 O42 2.214801 1_555
Ga8 O116 2.267195 1_555
Ga9 O119 1.814389 1_555
Ga9 O45 1.954411 1_555
Ga9 O47 1.979404 1_555
Ga9 O43 2.005839 1_555
Ga9 O115 2.128481 1_555
Ga9 O117 2.134718 1_555
Ga10 O60 1.842217 1_555
Ga10 O132 1.893554 1_555
Ga10 O62 1.948929 1_555
Ga10 O64 2.027179 1_555
Ga10 O134 2.128970 1_555
Ga10 O136 2.177983 1_555
Ga11 O67 1.839218 1_555
Ga11 O139 1.855580 1_555
Ga11 O71 2.042492 1_555
Ga11 O69 2.070728 1_555
Ga11 O141 2.090223 1_555
Ga11 O143 2.098399 1_555
O0 Si0 1.634221 1_555
O1 Si1 1.630678 1_545
O2 S0 1.468380 1_555
O3 S1 1.485562 1_555
O4 S3 1.474280 1_555
O5 S2 1.469485 1_655
O6 Si2 1.654006 1_555
O7 Si3 1.643475 1_555
O8 S5 1.486433 1_555
O9 S4 1.484675 1_555
O10 S6 1.496738 1_545
O11 S7 1.485561 1_555
O12 S6 1.469906 1_555
O13 S7 1.476237 1_565
O14 Si2 1.611133 1_555
O15 Si3 1.610837 1_555
O16 S4 1.475744 1_455
O17 S5 1.467317 1_555
O18 S0 1.490017 1_555
O19 S1 1.490536 1_555
O20 S2 1.485028 1_555
O21 S3 1.492585 1_555
O22 Si0 1.634998 1_565
O23 Si1 1.621311 1_555
O24 Si4 1.655519 1_555
O25 S8 1.484401 1_555
O26 S9 1.470453 1_555
O27 S10 1.481488 1_555
O28 S11 1.480617 1_555
O29 S12 1.488303 1_555
O30 S13 1.478054 1_555
O31 S14 1.489219 1_555
O32 S15 1.478323 1_555
O33 S16 1.479227 1_555
O34 S17 1.470692 1_555
O35 S18 1.476826 1_555
O36 S17 1.499749 1_555
O37 S18 1.495833 1_555
O38 S13 1.486484 1_555
O39 S14 1.478422 1_555
O40 S15 1.488400 1_555
O41 S16 1.485563 1_555
O42 S9 1.482620 1_555
O43 S10 1.510668 1_555
O44 S11 1.478419 1_555
O45 S12 1.490525 1_555
O46 Si4 1.616957 1_555
O47 S8 1.481758 1_555
O48 S19 1.494692 1_555
O49 S20 1.484693 1_555
O50 Si5 1.638684 1_555
O51 Si6 1.629071 1_555
O52 S21 1.491385 1_555
O53 S22 1.482193 1_555
O54 S23 1.478732 1_555
O55 S24 1.472199 1_555
O56 S25 1.477261 1_555
O57 S26 1.475129 1_555
O58 Si7 1.619342 1_555
O59 Si8 1.628880 1_555
O60 Si7 1.637777 1_555
O61 Si8 1.606131 1_555
O62 S23 1.492603 1_555
O63 S24 1.479385 1_555
O64 S25 1.481971 1_555
O65 S26 1.473294 1_555
O66 Si5 1.602128 1_555
O67 Si6 1.625256 1_555
O68 S21 1.464218 1_555
O69 S22 1.472681 1_555
O70 S19 1.470883 1_555
O71 S20 1.479859 1_555
O72 Si7 1.653568 1_555
O73 Si8 1.657183 1_555
O74 S23 1.460641 1_555
O75 S24 1.484489 1_555
O76 S25 1.497010 1_555
O77 S26 1.485822 1_555
O78 Si5 1.654855 1_555
O79 Si6 1.648825 1_555
O80 S21 1.479764 1_555
O81 S22 1.476993 1_555
O82 S19 1.461320 1_555
O83 S20 1.460892 1_555
O84 Si4 1.624501 1_555
O85 S8 1.486485 1_555
O86 S9 1.495890 1_555
O87 S10 1.469863 1_555
O88 S11 1.468007 1_555
O89 S12 1.490060 1_555
O90 S13 1.488832 1_555
O91 S14 1.491069 1_555
O92 S15 1.486150 1_555
O93 S16 1.488805 1_555
O94 S17 1.491211 1_555
O95 S18 1.483297 1_555
O96 S6 1.477249 1_545
O97 S7 1.480754 1_555
O98 Si2 1.637213 1_555
O99 Si3 1.613742 1_555
O100 S5 1.480739 1_555
O101 S4 1.486594 1_555
O102 S0 1.481561 1_555
O103 S1 1.499158 1_555
O104 S3 1.492355 1_555
O105 S2 1.494167 1_655
O106 Si0 1.608957 1_555
O107 Si1 1.649373 1_545
O108 S19 1.503972 1_555
O109 S20 1.498494 1_555
O110 Si6 1.619678 1_555
O111 Si5 1.627185 1_655
O112 S21 1.505449 1_545
O113 S22 1.500563 1_545
O114 S23 1.483530 1_545
O115 S24 1.502863 1_545
O116 S25 1.476306 1_555
O117 S26 1.505564 1_555
O118 Si8 1.622754 1_555
O119 Si7 1.618139 1_655
O120 S17 1.493377 1_555
O121 S18 1.487892 1_555
O122 S14 1.486479 1_455
O123 S13 1.490607 1_555
O124 S15 1.490871 1_565
O125 S16 1.482400 1_565
O126 S9 1.494197 1_565
O127 S10 1.476309 1_565
O128 S11 1.501396 1_555
O129 S12 1.462214 1_555
O130 S8 1.486008 1_455
O131 Si4 1.637225 1_555
O132 Si0 1.653544 1_565
O133 Si1 1.624778 1_555
O134 S0 1.477014 1_555
O135 S1 1.450515 1_555
O136 S2 1.482056 1_555
O137 S3 1.474760 1_555
O138 Si2 1.628297 1_555
O139 Si3 1.656741 1_555
O140 S4 1.483827 1_455
O141 S5 1.497343 1_555
O142 S6 1.472592 1_555
O143 S7 1.476553 1_565
