# generated using pymatgen
data_ZnHgAsHO5
_symmetry_space_group_name_H-M   'P 1'
_cell_length_a   6.42726800
_cell_length_b   7.76168400
_cell_length_c   8.83815600
_cell_angle_alpha   90.00000000
_cell_angle_beta   90.00000000
_cell_angle_gamma   90.00000000
_symmetry_Int_Tables_number   1
_chemical_formula_structural   ZnHgAsHO5
_chemical_formula_sum   'Zn4 Hg4 As4 H4 O20'
_cell_volume   440.90399052
_cell_formula_units_Z   4
loop_
 _symmetry_equiv_pos_site_id
 _symmetry_equiv_pos_as_xyz
  1  'x, y, z'
loop_
 _atom_site_type_symbol
 _atom_site_label
 _atom_site_symmetry_multiplicity
 _atom_site_fract_x
 _atom_site_fract_y
 _atom_site_fract_z
 _atom_site_occupancy
  Zn  Zn0  1  0.00000000  0.50000000  0.50000000  1
  Zn  Zn1  1  0.50000000  0.50000000  0.50000000  1
  Zn  Zn2  1  0.50000000  0.00000000  0.00000000  1
  Zn  Zn3  1  0.00000000  0.00000000  0.00000000  1
  Hg  Hg0  1  0.25000000  0.88679400  0.32489500  1
  Hg  Hg1  1  0.75000000  0.11320600  0.67510500  1
  Hg  Hg2  1  0.25000000  0.38679400  0.17510500  1
  Hg  Hg3  1  0.75000000  0.61320600  0.82489500  1
  As  As0  1  0.25000000  0.86061800  0.67818400  1
  As  As1  1  0.75000000  0.13938200  0.32181600  1
  As  As2  1  0.25000000  0.36061800  0.82181600  1
  As  As3  1  0.75000000  0.63938200  0.17818400  1
  H  H0  1  0.25000000  0.74063300  0.04277200  1
  H  H1  1  0.75000000  0.25936700  0.95722800  1
  H  H2  1  0.25000000  0.24063300  0.45722800  1
  H  H3  1  0.75000000  0.75936700  0.54277200  1
  O  O0  1  0.25000000  0.86093200  0.08047500  1
  O  O1  1  0.75000000  0.13906800  0.91952500  1
  O  O2  1  0.25000000  0.36093200  0.41952500  1
  O  O3  1  0.75000000  0.63906800  0.58047500  1
  O  O4  1  0.25000000  0.67409900  0.56850600  1
  O  O5  1  0.75000000  0.32590100  0.43149400  1
  O  O6  1  0.25000000  0.17409900  0.93149400  1
  O  O7  1  0.75000000  0.82590100  0.06850600  1
  O  O8  1  0.97429700  0.62626600  0.28474300  1
  O  O9  1  0.47429700  0.37373400  0.71525700  1
  O  O10  1  0.52570300  0.12626600  0.21525700  1
  O  O11  1  0.02570300  0.87373400  0.78474300  1
  O  O12  1  0.02570300  0.37373400  0.71525700  1
  O  O13  1  0.52570300  0.62626600  0.28474300  1
  O  O14  1  0.47429700  0.87373400  0.78474300  1
  O  O15  1  0.97429700  0.12626600  0.21525700  1
  O  O16  1  0.75000000  0.97815400  0.46065200  1
  O  O17  1  0.25000000  0.02184600  0.53934800  1
  O  O18  1  0.75000000  0.47815400  0.03934800  1
  O  O19  1  0.25000000  0.52184600  0.96065200  1
loop_
_geom_bond_atom_site_label_1
_geom_bond_atom_site_label_2
_geom_bond_distance
_geom_bond_site_symmetry_2
Hg0 O17 2.165921 1_565
Hg0 O0 2.169528 1_555
Hg1 O16 2.165921 1_545
Hg1 O1 2.169528 1_555
Hg2 O19 2.165921 1_554
Hg2 O2 2.169528 1_555
Hg3 O18 2.165921 1_556
Hg3 O3 2.169528 1_555
As0 O11 1.724988 1_555
As0 O14 1.724988 1_555
As0 O4 1.742263 1_555
As0 O17 1.752617 1_565
As1 O10 1.724988 1_555
As1 O15 1.724988 1_555
As1 O5 1.742263 1_555
As1 O16 1.752617 1_545
As2 O12 1.724988 1_555
As2 O9 1.724988 1_555
As2 O6 1.742263 1_555
As2 O19 1.752617 1_555
As3 O13 1.724988 1_555
As3 O8 1.724988 1_555
As3 O7 1.742263 1_555
As3 O18 1.752617 1_555
H0 O0 0.991402 1_555
H1 O1 0.991402 1_555
H2 O2 0.991402 1_555
H3 O3 0.991402 1_555
O0 Zn3 2.062243 1_565
O0 Zn2 2.062243 1_565
O1 Zn2 2.062243 1_556
O1 Zn3 2.062243 1_656
O2 Zn0 2.062243 1_555
O2 Zn1 2.062243 1_555
O3 Zn0 2.062243 1_655
O3 Zn1 2.062243 1_555
O4 Zn1 2.185055 1_555
O4 Zn0 2.185055 1_555
O5 Zn1 2.185055 1_555
O5 Zn0 2.185055 1_655
O6 Zn3 2.185055 1_556
O6 Zn2 2.185055 1_556
O7 Zn2 2.185055 1_565
O7 Zn3 2.185055 1_665
O8 Zn0 2.146433 1_655
O9 Zn1 2.146433 1_555
O10 Zn2 2.146433 1_555
O11 Zn3 2.146433 1_566
O12 Zn0 2.146433 1_555
O13 Zn1 2.146433 1_555
O14 Zn2 2.146433 1_566
O15 Zn3 2.146433 1_655
