# generated using pymatgen
data_Mn3GeIr
_symmetry_space_group_name_H-M   'P 1'
_cell_length_a   6.60948600
_cell_length_b   6.60948600
_cell_length_c   6.60948600
_cell_angle_alpha   90.00000000
_cell_angle_beta   90.00000000
_cell_angle_gamma   90.00000000
_symmetry_Int_Tables_number   1
_chemical_formula_structural   Mn3GeIr
_chemical_formula_sum   'Mn12 Ge4 Ir4'
_cell_volume   288.73741302
_cell_formula_units_Z   4
loop_
 _symmetry_equiv_pos_site_id
 _symmetry_equiv_pos_as_xyz
  1  'x, y, z'
loop_
 _atom_site_type_symbol
 _atom_site_label
 _atom_site_symmetry_multiplicity
 _atom_site_fract_x
 _atom_site_fract_y
 _atom_site_fract_z
 _atom_site_occupancy
  Mn  Mn0  1  0.12063000  0.20617900  0.45303100  1
  Mn  Mn1  1  0.45303100  0.12063000  0.20617900  1
  Mn  Mn2  1  0.20617900  0.45303100  0.12063000  1
  Mn  Mn3  1  0.29382100  0.54696900  0.62063000  1
  Mn  Mn4  1  0.95303100  0.37937000  0.79382100  1
  Mn  Mn5  1  0.79382100  0.95303100  0.37937000  1
  Mn  Mn6  1  0.04696900  0.87937000  0.70617900  1
  Mn  Mn7  1  0.54696900  0.62063000  0.29382100  1
  Mn  Mn8  1  0.70617900  0.04696900  0.87937000  1
  Mn  Mn9  1  0.62063000  0.29382100  0.54696900  1
  Mn  Mn10  1  0.87937000  0.70617900  0.04696900  1
  Mn  Mn11  1  0.37937000  0.79382100  0.95303100  1
  Ge  Ge0  1  0.93813900  0.56186100  0.43813900  1
  Ge  Ge1  1  0.56186100  0.43813900  0.93813900  1
  Ge  Ge2  1  0.43813900  0.93813900  0.56186100  1
  Ge  Ge3  1  0.06186100  0.06186100  0.06186100  1
  Ir  Ir0  1  0.31034600  0.18965400  0.81034600  1
  Ir  Ir1  1  0.18965400  0.81034600  0.31034600  1
  Ir  Ir2  1  0.81034600  0.31034600  0.18965400  1
  Ir  Ir3  1  0.68965400  0.68965400  0.68965400  1
loop_
_geom_bond_atom_site_label_1
_geom_bond_atom_site_label_2
_geom_bond_distance
_geom_bond_site_symmetry_2
Mn0 Mn3 2.758796 1_555
Mn0 Mn4 2.758796 1_455
Mn0 Mn5 2.775307 1_445
Mn0 Mn6 2.775307 1_545
Mn0 Mn1 2.794374 1_555
Mn0 Mn2 2.794374 1_555
Mn1 Mn9 2.758796 1_555
Mn1 Mn5 2.758796 1_545
Mn1 Mn11 2.775307 1_544
Mn1 Mn8 2.775307 1_554
Mn1 Mn2 2.794374 1_555
Mn2 Mn7 2.758796 1_555
Mn2 Mn4 2.775307 1_454
Mn3 Mn4 2.758796 1_455
Mn3 Mn9 2.775307 1_555
Mn3 Mn7 2.775307 1_555
Mn3 Mn6 2.794374 1_555
Mn4 Mn8 2.794374 1_555
Mn4 Mn9 2.794374 1_555
Mn5 Mn9 2.758796 1_565
Mn5 Mn6 2.775307 1_655
Mn5 Mn7 2.794374 1_555
Mn6 Mn8 2.758796 1_465
Mn7 Mn9 2.775307 1_555
Mn8 Mn9 2.794374 1_555
Mn10 Mn6 2.758796 1_654
Mn10 Mn8 2.758796 1_564
Mn10 Mn4 2.775307 1_554
Mn10 Mn2 2.775307 1_655
Mn10 Mn5 2.794374 1_555
Mn10 Mn7 2.794374 1_555
Mn11 Mn7 2.758796 1_556
Mn11 Mn2 2.758796 1_556
Mn11 Mn8 2.775307 1_565
Mn11 Mn6 2.794374 1_555
Mn11 Mn3 2.794374 1_555
Ge0 Ir2 2.484812 1_555
Ge0 Ir3 2.484812 1_555
Ge0 Ir1 2.484812 1_655
Ge0 Mn0 2.644079 1_655
Ge0 Mn4 2.644079 1_555
Ge0 Mn3 2.644079 1_655
Ge0 Mn10 2.783021 1_555
Ge0 Mn5 2.783021 1_555
Ge0 Mn7 2.783021 1_555
Ge0 Mn9 2.839014 1_555
Ge0 Mn2 2.839014 1_655
Ge0 Mn6 2.839014 1_655
Ge1 Ir0 2.484812 1_555
Ge1 Ir3 2.484812 1_555
Ge1 Ir2 2.484812 1_556
Ge1 Mn2 2.644079 1_556
Ge1 Mn11 2.644079 1_555
Ge1 Mn7 2.644079 1_556
Ge1 Mn8 2.783021 1_555
Ge1 Mn4 2.783021 1_555
Ge1 Mn9 2.783021 1_555
Ge1 Mn3 2.839014 1_555
Ge1 Mn1 2.839014 1_556
Ge1 Mn10 2.839014 1_556
Ge2 Ir1 2.484812 1_555
Ge2 Ir3 2.484812 1_555
Ge2 Ir0 2.484812 1_565
Ge2 Mn1 2.644079 1_565
Ge2 Mn5 2.644079 1_555
Ge2 Mn9 2.644079 1_565
Ge2 Mn6 2.783021 1_555
Ge2 Mn11 2.783021 1_555
Ge2 Mn3 2.783021 1_555
Ge2 Mn7 2.839014 1_555
Ge2 Mn0 2.839014 1_565
Ge2 Mn8 2.839014 1_565
Ge3 Ir2 2.484812 1_455
Ge3 Ir1 2.484812 1_545
Ge3 Ir0 2.484812 1_554
Ge3 Mn6 2.644079 1_544
Ge3 Mn10 2.644079 1_445
Ge3 Mn8 2.644079 1_454
Ge3 Mn1 2.783021 1_555
Ge3 Mn2 2.783021 1_555
Ge3 Mn0 2.783021 1_555
Ge3 Mn11 2.839014 1_544
Ge3 Mn4 2.839014 1_454
Ge3 Mn5 2.839014 1_445
Ir0 Mn3 2.676142 1_555
Ir0 Mn4 2.676142 1_455
Ir0 Mn0 2.676142 1_555
Ir0 Mn2 2.776727 1_556
Ir0 Mn6 2.776727 1_545
Ir0 Mn9 2.776727 1_555
Ir0 Mn1 2.818208 1_556
Ir0 Mn11 2.818208 1_545
Ir0 Mn8 2.818208 1_555
Ir1 Mn7 2.676142 1_555
Ir1 Mn11 2.676142 1_554
Ir1 Mn2 2.676142 1_555
Ir1 Mn1 2.776727 1_565
Ir1 Mn10 2.776727 1_455
Ir1 Mn3 2.776727 1_555
Ir1 Mn0 2.818208 1_565
Ir1 Mn5 2.818208 1_455
Ir1 Mn6 2.818208 1_555
Ir2 Mn9 2.676142 1_555
Ir2 Mn5 2.676142 1_545
Ir2 Mn1 2.676142 1_555
Ir2 Mn0 2.776727 1_655
Ir2 Mn8 2.776727 1_554
Ir2 Mn7 2.776727 1_555
Ir2 Mn2 2.818208 1_655
Ir2 Mn4 2.818208 1_554
Ir2 Mn10 2.818208 1_555
Ir3 Mn10 2.676142 1_556
Ir3 Mn6 2.676142 1_655
Ir3 Mn8 2.676142 1_565
Ir3 Mn4 2.776727 1_555
Ir3 Mn5 2.776727 1_555
Ir3 Mn11 2.776727 1_555
Ir3 Mn3 2.818208 1_555
Ir3 Mn7 2.818208 1_555
Ir3 Mn9 2.818208 1_555
