# generated using pymatgen
data_K3Nb2Se11
_symmetry_space_group_name_H-M   'P 1'
_cell_length_a   9.29574100
_cell_length_b   8.12249500
_cell_length_c   26.44960514
_cell_angle_alpha   80.17953327
_cell_angle_beta   90.00000000
_cell_angle_gamma   90.00000000
_symmetry_Int_Tables_number   1
_chemical_formula_structural   K3Nb2Se11
_chemical_formula_sum   'K12 Nb8 Se44'
_cell_volume   1967.80416063
_cell_formula_units_Z   4
loop_
 _symmetry_equiv_pos_site_id
 _symmetry_equiv_pos_as_xyz
  1  'x, y, z'
loop_
 _atom_site_type_symbol
 _atom_site_label
 _atom_site_symmetry_multiplicity
 _atom_site_fract_x
 _atom_site_fract_y
 _atom_site_fract_z
 _atom_site_occupancy
  K  K0  1  0.73275300  0.74150800  0.17236600  1
  K  K1  1  0.23275300  0.25849200  0.32763400  1
  K  K2  1  0.26724700  0.25849200  0.82763400  1
  K  K3  1  0.76724700  0.74150800  0.67236600  1
  K  K4  1  0.76156700  0.20112500  0.01484000  1
  K  K5  1  0.26156700  0.79887500  0.48516000  1
  K  K6  1  0.23843300  0.79887500  0.98516000  1
  K  K7  1  0.73843300  0.20112500  0.51484000  1
  K  K8  1  0.70136600  0.24690900  0.31577200  1
  K  K9  1  0.20136600  0.75309100  0.18422800  1
  K  K10  1  0.29863400  0.75309100  0.68422800  1
  K  K11  1  0.79863400  0.24690900  0.81577200  1
  Nb  Nb0  1  0.17312100  0.21435400  0.07900800  1
  Nb  Nb1  1  0.67312100  0.78564600  0.42099200  1
  Nb  Nb2  1  0.82687900  0.78564600  0.92099200  1
  Nb  Nb3  1  0.32687900  0.21435400  0.57900800  1
  Nb  Nb4  1  0.45821800  0.32727400  0.16924000  1
  Nb  Nb5  1  0.95821800  0.67272600  0.33076000  1
  Nb  Nb6  1  0.54178200  0.67272600  0.83076000  1
  Nb  Nb7  1  0.04178200  0.32727400  0.66924000  1
  Se  Se0  1  0.46141700  0.49339200  0.23614300  1
  Se  Se1  1  0.96141700  0.50660800  0.26385700  1
  Se  Se2  1  0.53858300  0.50660800  0.76385700  1
  Se  Se3  1  0.03858300  0.49339200  0.73614300  1
  Se  Se4  1  0.60277400  0.48412600  0.09229600  1
  Se  Se5  1  0.10277400  0.51587400  0.40770400  1
  Se  Se6  1  0.39722600  0.51587400  0.90770300  1
  Se  Se7  1  0.89722600  0.48412600  0.59229700  1
  Se  Se8  1  0.01124500  0.98126800  0.08715600  1
  Se  Se9  1  0.51124500  0.01873200  0.41284400  1
  Se  Se10  1  0.98875500  0.01873200  0.91284400  1
  Se  Se11  1  0.48875500  0.98126800  0.58715600  1
  Se  Se12  1  0.69132600  0.14333000  0.19263500  1
  Se  Se13  1  0.19132600  0.85667000  0.30736500  1
  Se  Se14  1  0.30867400  0.85667000  0.80736500  1
  Se  Se15  1  0.80867400  0.14333000  0.69263500  1
  Se  Se16  1  0.46670100  0.02327800  0.22425800  1
  Se  Se17  1  0.96670100  0.97672200  0.27574200  1
  Se  Se18  1  0.53329900  0.97672200  0.77574200  1
  Se  Se19  1  0.03329900  0.02327800  0.72425800  1
  Se  Se20  1  0.03426700  0.43495900  0.12186500  1
  Se  Se21  1  0.53426700  0.56504100  0.37813500  1
  Se  Se22  1  0.96573300  0.56504100  0.87813500  1
  Se  Se23  1  0.46573300  0.43495900  0.62186500  1
  Se  Se24  1  0.37672700  0.16748100  0.01535400  1
  Se  Se25  1  0.87672700  0.83251900  0.48464600  1
  Se  Se26  1  0.62327300  0.83251900  0.98464600  1
  Se  Se27  1  0.12327300  0.16748100  0.51535400  1
  Se  Se28  1  0.09166400  0.40122300  0.99162900  1
  Se  Se29  1  0.59166400  0.59877700  0.50837100  1
  Se  Se30  1  0.90833600  0.59877700  0.00837100  1
  Se  Se31  1  0.40833600  0.40122300  0.49162900  1
  Se  Se32  1  0.34577500  0.51973400  0.09114300  1
  Se  Se33  1  0.84577500  0.48026600  0.40885700  1
  Se  Se34  1  0.65422500  0.48026600  0.90885700  1
  Se  Se35  1  0.15422500  0.51973400  0.59114300  1
  Se  Se36  1  0.17653600  0.23786400  0.17898000  1
  Se  Se37  1  0.67653600  0.76213600  0.32102000  1
  Se  Se38  1  0.82346400  0.76213600  0.82102000  1
  Se  Se39  1  0.32346400  0.23786400  0.67898000  1
  Se  Se40  1  0.41778100  0.06085400  0.10489900  1
  Se  Se41  1  0.91778100  0.93914600  0.39510100  1
  Se  Se42  1  0.58221900  0.93914600  0.89510100  1
  Se  Se43  1  0.08221900  0.06085400  0.60489900  1
loop_
_geom_bond_atom_site_label_1
_geom_bond_atom_site_label_2
_geom_bond_distance
_geom_bond_site_symmetry_2
K0 Se12 3.418327 1_565
K0 Se4 3.438879 1_555
K0 Se0 3.479832 1_555
K0 Se1 3.526962 1_555
K0 Se8 3.751886 1_655
K1 Se13 3.418327 1_545
K1 Se5 3.438879 1_555
K1 Se1 3.479832 1_455
K1 Se0 3.526962 1_555
K1 Se9 3.751886 1_555
K2 Se14 3.418327 1_545
K2 Se6 3.438860 1_555
K2 Se2 3.479832 1_555
K2 Se3 3.526962 1_555
K2 Se10 3.751886 1_455
K3 Se15 3.418327 1_565
K3 Se7 3.438860 1_555
K3 Se3 3.479832 1_655
K3 Se2 3.526962 1_555
K3 Se11 3.751886 1_555
K4 Se8 3.327035 1_645
K4 Se34 3.438935 1_554
K4 Se26 3.474206 1_544
K4 Se28 3.477611 1_654
K4 Se30 3.483470 1_555
K4 Se24 3.587645 1_555
K4 Se4 3.642293 1_555
K4 Se10 3.911020 1_554
K5 Se9 3.327035 1_565
K5 Se35 3.438935 1_555
K5 Se27 3.474206 1_565
K5 Se29 3.477611 1_555
K5 Se31 3.483470 1_555
K5 Se25 3.587645 1_455
K5 Se5 3.642293 1_555
K5 Se11 3.911020 1_555
K6 Se10 3.327035 1_465
K6 Se32 3.438935 1_556
K6 Se24 3.474206 1_566
K6 Se30 3.477611 1_456
K6 Se28 3.483470 1_555
K6 Se26 3.587645 1_555
K6 Se6 3.642310 1_555
K6 Se8 3.911020 1_556
K7 Se11 3.327035 1_545
K7 Se33 3.438935 1_555
K7 Se25 3.474206 1_545
K7 Se31 3.477611 1_555
K7 Se29 3.483470 1_555
K7 Se27 3.587645 1_655
K7 Se7 3.642310 1_555
K7 Se9 3.911020 1_555
K8 Se1 3.345247 1_555
K8 Se9 3.395182 1_555
K8 Se0 3.461340 1_555
K8 Se12 3.501258 1_555
K8 Se17 3.579585 1_545
K8 Se41 3.592965 1_545
K8 Se33 3.612252 1_555
K8 Se21 3.642073 1_555
K9 Se0 3.345247 1_555
K9 Se8 3.395182 1_555
K9 Se1 3.461340 1_455
K9 Se13 3.501258 1_555
K9 Se16 3.579585 1_565
K9 Se40 3.592965 1_565
K9 Se32 3.612252 1_555
K9 Se20 3.642073 1_555
K10 Se3 3.345247 1_555
K10 Se11 3.395182 1_555
K10 Se2 3.461340 1_555
K10 Se14 3.501258 1_555
K10 Se19 3.579585 1_565
K10 Se43 3.592965 1_565
K10 Se35 3.612252 1_555
K10 Se23 3.642073 1_555
K11 Se2 3.345247 1_555
K11 Se10 3.395182 1_555
K11 Se3 3.461340 1_655
K11 Se15 3.501258 1_555
K11 Se18 3.579585 1_545
K11 Se42 3.592965 1_545
K11 Se34 3.612252 1_555
K11 Se22 3.642073 1_555
Nb0 Se8 2.399149 1_545
Nb0 Se24 2.603919 1_555
Nb0 Se20 2.618134 1_555
Nb0 Se40 2.627669 1_555
Nb0 Se28 2.649892 1_554
Nb0 Se36 2.683583 1_555
Nb0 Se32 3.017130 1_555
Nb1 Se9 2.399149 1_565
Nb1 Se25 2.603919 1_555
Nb1 Se21 2.618134 1_555
Nb1 Se41 2.627669 1_555
Nb1 Se29 2.649892 1_555
Nb1 Se37 2.683583 1_555
Nb1 Se33 3.017130 1_555
Nb2 Se10 2.399149 1_565
Nb2 Se26 2.603919 1_555
Nb2 Se22 2.618134 1_555
Nb2 Se42 2.627669 1_555
Nb2 Se30 2.649892 1_556
Nb2 Se38 2.683583 1_555
Nb2 Se34 3.017130 1_555
Nb3 Se11 2.399149 1_545
Nb3 Se27 2.603919 1_555
Nb3 Se23 2.618134 1_555
Nb3 Se43 2.627669 1_555
Nb3 Se31 2.649892 1_555
Nb3 Se39 2.683583 1_555
Nb3 Se35 3.017130 1_555
Nb4 Se0 2.401519 1_555
Nb4 Se4 2.585758 1_555
Nb4 Se32 2.588748 1_555
Nb4 Se16 2.644824 1_555
Nb4 Se12 2.644866 1_555
Nb4 Se36 2.717757 1_555
Nb4 Se40 2.996084 1_555
Nb5 Se1 2.401519 1_555
Nb5 Se5 2.585758 1_655
Nb5 Se33 2.588748 1_555
Nb5 Se17 2.644824 1_555
Nb5 Se13 2.644866 1_655
Nb5 Se37 2.717757 1_555
Nb5 Se41 2.996084 1_555
Nb6 Se2 2.401519 1_555
Nb6 Se6 2.585739 1_555
Nb6 Se34 2.588748 1_555
Nb6 Se18 2.644824 1_555
Nb6 Se14 2.644866 1_555
Nb6 Se38 2.717757 1_555
Nb6 Se42 2.996084 1_555
Nb7 Se3 2.401519 1_555
Nb7 Se7 2.585739 1_455
Nb7 Se35 2.588748 1_555
Nb7 Se19 2.644824 1_555
Nb7 Se15 2.644866 1_455
Nb7 Se39 2.717757 1_555
Nb7 Se43 2.996084 1_555
Se12 Se16 2.394203 1_555
Se13 Se17 2.394203 1_455
Se14 Se18 2.394203 1_555
Se15 Se19 2.394203 1_655
Se24 Se40 2.409453 1_555
Se25 Se41 2.409453 1_555
Se26 Se42 2.409453 1_555
Se27 Se43 2.409453 1_555
Se28 Se30 2.432594 1_456
Se29 Se31 2.432594 1_555
Se32 Se4 2.406008 1_555
Se33 Se5 2.406008 1_655
Se34 Se6 2.406008 1_555
Se35 Se7 2.406008 1_455
