# generated using pymatgen
data_Na3TaAlSi2PO12
_symmetry_space_group_name_H-M   'P 1'
_cell_length_a   15.40675568
_cell_length_b   26.54903542
_cell_length_c   8.90496260
_cell_angle_alpha   90.00000000
_cell_angle_beta   124.92469137
_cell_angle_gamma   90.00000000
_symmetry_Int_Tables_number   1
_chemical_formula_structural   Na3TaAlSi2PO12
_chemical_formula_sum   'Na36 Ta12 Al12 Si24 P12 O144'
_cell_volume   2986.45312390
_cell_formula_units_Z   12
loop_
 _symmetry_equiv_pos_site_id
 _symmetry_equiv_pos_as_xyz
  1  'x, y, z'
loop_
 _atom_site_type_symbol
 _atom_site_label
 _atom_site_symmetry_multiplicity
 _atom_site_fract_x
 _atom_site_fract_y
 _atom_site_fract_z
 _atom_site_occupancy
  Na  Na0  1  0.25748135  0.25313985  0.00853830  1
  Na  Na1  1  0.25136800  0.58624960  0.01826010  1
  Na  Na2  1  0.25220445  0.91735786  0.01944814  1
  Na  Na3  1  0.75748135  0.24686015  0.50853830  1
  Na  Na4  1  0.75220445  0.58264214  0.51944814  1
  Na  Na5  1  0.75136800  0.91375040  0.51826010  1
  Na  Na6  1  0.75136800  0.08624960  0.01826010  1
  Na  Na7  1  0.75220445  0.41735786  0.01944814  1
  Na  Na8  1  0.75748135  0.75313985  0.00853830  1
  Na  Na9  1  0.25220445  0.08264214  0.51944814  1
  Na  Na10  1  0.25136800  0.41375040  0.51826010  1
  Na  Na11  1  0.25748135  0.74686015  0.50853830  1
  Na  Na12  1  0.49685965  0.03419121  0.75027735  1
  Na  Na13  1  0.49874264  0.36821514  0.75595296  1
  Na  Na14  1  0.49712677  0.70075146  0.74659193  1
  Na  Na15  1  0.49712677  0.29924854  0.24659193  1
  Na  Na16  1  0.49874264  0.63178486  0.25595296  1
  Na  Na17  1  0.49685965  0.96580879  0.25027735  1
  Na  Na18  1  0.99712677  0.20075146  0.74659193  1
  Na  Na19  1  0.99685965  0.53419121  0.75027735  1
  Na  Na20  1  0.99874264  0.86821514  0.75595296  1
  Na  Na21  1  0.99874264  0.13178486  0.25595296  1
  Na  Na22  1  0.99685965  0.46580879  0.25027735  1
  Na  Na23  1  0.99712677  0.79924854  0.24659193  1
  Na  Na24  1  0.81484984  0.64318797  0.20692752  1
  Na  Na25  1  0.81527461  0.97752867  0.21566620  1
  Na  Na26  1  0.19418725  0.30860005  0.28885630  1
  Na  Na27  1  0.19418725  0.69139995  0.78885630  1
  Na  Na28  1  0.81527461  0.02247133  0.71566620  1
  Na  Na29  1  0.81484984  0.35681203  0.70692752  1
  Na  Na30  1  0.31484984  0.14318797  0.20692752  1
  Na  Na31  1  0.31527461  0.47752867  0.21566620  1
  Na  Na32  1  0.69418725  0.80860005  0.28885630  1
  Na  Na33  1  0.69418725  0.19139995  0.78885630  1
  Na  Na34  1  0.31527461  0.52247133  0.71566620  1
  Na  Na35  1  0.31484984  0.85681203  0.70692752  1
  Ta  Ta0  1  0.10938707  0.24770707  0.57099825  1
  Ta  Ta1  1  0.10383754  0.58275255  0.56728883  1
  Ta  Ta2  1  0.10613343  0.91756620  0.56662167  1
  Ta  Ta3  1  0.10613343  0.08243380  0.06662167  1
  Ta  Ta4  1  0.10383754  0.41724745  0.06728883  1
  Ta  Ta5  1  0.10938707  0.75229293  0.07099825  1
  Ta  Ta6  1  0.60383754  0.08275255  0.56728883  1
  Ta  Ta7  1  0.60613343  0.41756620  0.56662167  1
  Ta  Ta8  1  0.60938707  0.74770707  0.57099825  1
  Ta  Ta9  1  0.60938707  0.25229293  0.07099825  1
  Ta  Ta10  1  0.60613343  0.58243380  0.06662167  1
  Ta  Ta11  1  0.60383754  0.91724745  0.06728883  1
  Al  Al0  1  0.89674555  0.24902126  0.93940778  1
  Al  Al1  1  0.89225647  0.58131156  0.93399355  1
  Al  Al2  1  0.89299963  0.91251034  0.93559718  1
  Al  Al3  1  0.89299963  0.08748966  0.43559718  1
  Al  Al4  1  0.89225647  0.41868844  0.43399355  1
  Al  Al5  1  0.89674555  0.75097874  0.43940778  1
  Al  Al6  1  0.39225647  0.08131156  0.93399355  1
  Al  Al7  1  0.39299963  0.41251034  0.93559718  1
  Al  Al8  1  0.39674555  0.74902126  0.93940778  1
  Al  Al9  1  0.39674555  0.25097874  0.43940778  1
  Al  Al10  1  0.39299963  0.58748966  0.43559718  1
  Al  Al11  1  0.39225647  0.91868844  0.43399355  1
  Si  Si0  1  0.35477987  0.29912501  0.74757800  1
  Si  Si1  1  0.35514073  0.63351678  0.74979024  1
  Si  Si2  1  0.35387474  0.96744735  0.74597678  1
  Si  Si3  1  0.64514642  0.29666884  0.73754578  1
  Si  Si4  1  0.64605232  0.62701624  0.73832094  1
  Si  Si5  1  0.64578932  0.96061041  0.73880930  1
  Si  Si6  1  0.64578932  0.03938959  0.23880930  1
  Si  Si7  1  0.64605232  0.37298376  0.23832094  1
  Si  Si8  1  0.64514642  0.70333116  0.23754578  1
  Si  Si9  1  0.35387474  0.03255265  0.24597678  1
  Si  Si10  1  0.35514073  0.36648322  0.24979024  1
  Si  Si11  1  0.35477987  0.70087499  0.24757800  1
  Si  Si12  1  0.85514073  0.13351678  0.74979024  1
  Si  Si13  1  0.85387474  0.46744735  0.74597678  1
  Si  Si14  1  0.85477987  0.79912501  0.74757800  1
  Si  Si15  1  0.14605232  0.12701624  0.73832094  1
  Si  Si16  1  0.14578932  0.46061041  0.73880930  1
  Si  Si17  1  0.14514642  0.79666884  0.73754578  1
  Si  Si18  1  0.14514642  0.20333116  0.23754578  1
  Si  Si19  1  0.14578932  0.53938959  0.23880930  1
  Si  Si20  1  0.14605232  0.87298376  0.23832094  1
  Si  Si21  1  0.85477987  0.20087499  0.24757800  1
  Si  Si22  1  0.85387474  0.53255265  0.24597678  1
  Si  Si23  1  0.85514073  0.86648322  0.24979024  1
  P  P0  1  0.99889515  0.32091621  0.74530259  1
  P  P1  1  0.99136649  0.65535053  0.74254768  1
  P  P2  1  0.99640478  0.98762652  0.73983461  1
  P  P3  1  0.99640478  0.01237348  0.23983461  1
  P  P4  1  0.99136649  0.34464947  0.24254768  1
  P  P5  1  0.99889515  0.67908379  0.24530259  1
  P  P6  1  0.49136649  0.15535053  0.74254768  1
  P  P7  1  0.49640478  0.48762652  0.73983461  1
  P  P8  1  0.49889515  0.82091621  0.74530259  1
  P  P9  1  0.49889515  0.17908379  0.24530259  1
  P  P10  1  0.49640478  0.51237348  0.23983461  1
  P  P11  1  0.49136649  0.84464947  0.24254768  1
  O  O0  1  0.14811775  0.19071137  0.73956677  1
  O  O1  1  0.14990908  0.52487944  0.74053862  1
  O  O2  1  0.14892159  0.85912758  0.73832465  1
  O  O3  1  0.85151811  0.19418675  0.76483827  1
  O  O4  1  0.85455319  0.52743458  0.76562571  1
  O  O5  1  0.85260432  0.86000453  0.76326962  1
  O  O6  1  0.85260432  0.13999547  0.26326962  1
  O  O7  1  0.85455319  0.47256542  0.26562571  1
  O  O8  1  0.85151811  0.80581325  0.26483827  1
  O  O9  1  0.14892159  0.14087242  0.23832465  1
  O  O10  1  0.14990908  0.47512056  0.24053862  1
  O  O11  1  0.14811775  0.80928863  0.23956677  1
  O  O12  1  0.64990908  0.02487944  0.74053862  1
  O  O13  1  0.64892159  0.35912758  0.73832465  1
  O  O14  1  0.64811775  0.69071137  0.73956677  1
  O  O15  1  0.35455319  0.02743458  0.76562571  1
  O  O16  1  0.35260432  0.36000453  0.76326962  1
  O  O17  1  0.35151811  0.69418675  0.76483827  1
  O  O18  1  0.35151811  0.30581325  0.26483827  1
  O  O19  1  0.35260432  0.63999547  0.26326962  1
  O  O20  1  0.35455319  0.97256542  0.26562571  1
  O  O21  1  0.64811775  0.30928863  0.23956677  1
  O  O22  1  0.64892159  0.64087242  0.23832465  1
  O  O23  1  0.64990908  0.97512056  0.24053862  1
  O  O24  1  0.43119820  0.18730757  0.56766392  1
  O  O25  1  0.43221224  0.52073887  0.56998838  1
  O  O26  1  0.43594003  0.85582980  0.58236712  1
  O  O27  1  0.56254242  0.18918187  0.91332896  1
  O  O28  1  0.56100608  0.52123683  0.91486862  1
  O  O29  1  0.56708335  0.85266741  0.92630369  1
  O  O30  1  0.56708335  0.14733259  0.42630369  1
  O  O31  1  0.56100608  0.47876317  0.41486862  1
  O  O32  1  0.56254242  0.81081813  0.41332896  1
  O  O33  1  0.43594003  0.14417020  0.08236712  1
  O  O34  1  0.43221224  0.47926113  0.06998838  1
  O  O35  1  0.43119820  0.81269243  0.06766392  1
  O  O36  1  0.93221224  0.02073887  0.56998838  1
  O  O37  1  0.93594003  0.35582980  0.58236712  1
  O  O38  1  0.93119820  0.68730757  0.56766392  1
  O  O39  1  0.06100608  0.02123683  0.91486862  1
  O  O40  1  0.06708335  0.35266741  0.92630369  1
  O  O41  1  0.06254242  0.68918187  0.91332896  1
  O  O42  1  0.06254242  0.31081813  0.41332896  1
  O  O43  1  0.06708335  0.64733259  0.42630369  1
  O  O44  1  0.06100608  0.97876317  0.41486862  1
  O  O45  1  0.93119820  0.31269243  0.06766392  1
  O  O46  1  0.93594003  0.64417020  0.08236712  1
  O  O47  1  0.93221224  0.97926113  0.06998838  1
  O  O48  1  0.25277133  0.27455336  0.73591122  1
  O  O49  1  0.25341892  0.60904977  0.74347924  1
  O  O50  1  0.25471671  0.93990723  0.73748410  1
  O  O51  1  0.75097922  0.27495389  0.76231472  1
  O  O52  1  0.75282390  0.60633370  0.77214453  1
  O  O53  1  0.75498662  0.94323657  0.76860874  1
  O  O54  1  0.75498662  0.05676343  0.26860874  1
  O  O55  1  0.75282390  0.39366630  0.27214453  1
  O  O56  1  0.75097922  0.72504611  0.26231472  1
  O  O57  1  0.25471671  0.06009277  0.23748410  1
  O  O58  1  0.25341892  0.39095023  0.24347924  1
  O  O59  1  0.25277133  0.72544664  0.23591122  1
  O  O60  1  0.75341892  0.10904977  0.74347924  1
  O  O61  1  0.75471671  0.43990723  0.73748410  1
  O  O62  1  0.75277133  0.77455336  0.73591122  1
  O  O63  1  0.25282390  0.10633370  0.77214453  1
  O  O64  1  0.25498662  0.44323657  0.76860874  1
  O  O65  1  0.25097922  0.77495389  0.76231472  1
  O  O66  1  0.25097922  0.22504611  0.26231472  1
  O  O67  1  0.25498662  0.55676343  0.26860874  1
  O  O68  1  0.25282390  0.89366630  0.27214453  1
  O  O69  1  0.75277133  0.22544664  0.23591122  1
  O  O70  1  0.75471671  0.56009277  0.23748410  1
  O  O71  1  0.75341892  0.89095023  0.24347924  1
  O  O72  1  0.35606604  0.28568164  0.57099122  1
  O  O73  1  0.35893947  0.61678881  0.58109160  1
  O  O74  1  0.36293280  0.95053430  0.58355188  1
  O  O75  1  0.64113797  0.28450053  0.91664540  1
  O  O76  1  0.64133247  0.61793589  0.92132908  1
  O  O77  1  0.64438181  0.95064493  0.92447220  1
  O  O78  1  0.64438181  0.04935507  0.42447220  1
  O  O79  1  0.64133247  0.38206411  0.42132908  1
  O  O80  1  0.64113797  0.71549947  0.41664540  1
  O  O81  1  0.36293280  0.04946570  0.08355188  1
  O  O82  1  0.35893947  0.38321119  0.08109160  1
  O  O83  1  0.35606604  0.71431836  0.07099122  1
  O  O84  1  0.85893947  0.11678881  0.58109160  1
  O  O85  1  0.86293280  0.45053430  0.58355188  1
  O  O86  1  0.85606604  0.78568164  0.57099122  1
  O  O87  1  0.14133247  0.11793589  0.92132908  1
  O  O88  1  0.14438181  0.45064493  0.92447220  1
  O  O89  1  0.14113797  0.78450053  0.91664540  1
  O  O90  1  0.14113797  0.21549947  0.41664540  1
  O  O91  1  0.14438181  0.54935507  0.42447220  1
  O  O92  1  0.14133247  0.88206411  0.42132908  1
  O  O93  1  0.85606604  0.21431836  0.07099122  1
  O  O94  1  0.86293280  0.54946570  0.08355188  1
  O  O95  1  0.85893947  0.88321119  0.08109160  1
  O  O96  1  0.46209543  0.27593959  0.93522743  1
  O  O97  1  0.46004026  0.60798837  0.93784739  1
  O  O98  1  0.46046952  0.94136186  0.93661539  1
  O  O99  1  0.53833328  0.27350723  0.56017071  1
  O  O100  1  0.53571173  0.60774872  0.55920699  1
  O  O101  1  0.53752788  0.94111177  0.55963953  1
  O  O102  1  0.53752788  0.05888823  0.05963953  1
  O  O103  1  0.53571173  0.39225128  0.05920699  1
  O  O104  1  0.53833328  0.72649277  0.06017071  1
  O  O105  1  0.46046952  0.05863814  0.43661539  1
  O  O106  1  0.46004026  0.39201163  0.43784739  1
  O  O107  1  0.46209543  0.72406041  0.43522743  1
  O  O108  1  0.96004026  0.10798837  0.93784739  1
  O  O109  1  0.96046952  0.44136186  0.93661539  1
  O  O110  1  0.96209543  0.77593959  0.93522743  1
  O  O111  1  0.03571173  0.10774872  0.55920699  1
  O  O112  1  0.03752788  0.44111177  0.55963953  1
  O  O113  1  0.03833328  0.77350723  0.56017071  1
  O  O114  1  0.03833328  0.22649277  0.06017071  1
  O  O115  1  0.03752788  0.55888823  0.05963953  1
  O  O116  1  0.03571173  0.89225128  0.05920699  1
  O  O117  1  0.96209543  0.22406041  0.43522743  1
  O  O118  1  0.96046952  0.55863814  0.43661539  1
  O  O119  1  0.96004026  0.89201163  0.43784739  1
  O  O120  1  0.07905864  0.28605717  0.74293017  1
  O  O121  1  0.07746795  0.62216146  0.74071625  1
  O  O122  1  0.08003055  0.95396525  0.74316568  1
  O  O123  1  0.92149246  0.28725436  0.75856150  1
  O  O124  1  0.92031133  0.61957358  0.75802570  1
  O  O125  1  0.92046328  0.95346470  0.75305302  1
  O  O126  1  0.92046328  0.04653530  0.25305302  1
  O  O127  1  0.92031133  0.38042642  0.25802570  1
  O  O128  1  0.92149246  0.71274564  0.25856150  1
  O  O129  1  0.08003055  0.04603475  0.24316568  1
  O  O130  1  0.07746795  0.37783854  0.24071625  1
  O  O131  1  0.07905864  0.71394283  0.24293017  1
  O  O132  1  0.57746795  0.12216146  0.74071625  1
  O  O133  1  0.58003055  0.45396525  0.74316568  1
  O  O134  1  0.57905864  0.78605717  0.74293017  1
  O  O135  1  0.42031133  0.11957358  0.75802570  1
  O  O136  1  0.42046328  0.45346470  0.75305302  1
  O  O137  1  0.42149246  0.78725436  0.75856150  1
  O  O138  1  0.42149246  0.21274564  0.25856150  1
  O  O139  1  0.42046328  0.54653530  0.25305302  1
  O  O140  1  0.42031133  0.88042642  0.25802570  1
  O  O141  1  0.57905864  0.21394283  0.24293017  1
  O  O142  1  0.58003055  0.54603475  0.24316568  1
  O  O143  1  0.57746795  0.87783854  0.24071625  1
loop_
_geom_bond_atom_site_label_1
_geom_bond_atom_site_label_2
_geom_bond_distance
_geom_bond_site_symmetry_2
Na0 O18 2.340425 1_555
Na0 O66 2.435686 1_555
Na0 O48 2.453700 1_554
Na0 O138 2.459790 1_555
Na0 O120 2.543623 1_554
Na0 O0 2.588828 1_554
Na1 O19 2.309243 1_555
Na1 O67 2.333152 1_555
Na1 O139 2.456323 1_555
Na1 O49 2.538371 1_554
Na1 O121 2.571730 1_554
Na1 O1 2.605374 1_554
Na2 O68 2.331257 1_555
Na2 O20 2.341476 1_555
Na2 O140 2.425417 1_555
Na2 O122 2.561548 1_554
Na2 O2 2.574474 1_554
Na2 O50 2.603015 1_554
Na3 O3 2.340425 1_555
Na3 O51 2.435686 1_555
Na3 O69 2.453700 1_555
Na3 O123 2.459790 1_555
Na3 O141 2.543623 1_555
Na3 O21 2.588828 1_555
Na4 O52 2.331257 1_555
Na4 O4 2.341476 1_555
Na4 O124 2.425417 1_555
Na4 O142 2.561548 1_555
Na4 O22 2.574474 1_555
Na4 O70 2.603015 1_555
Na5 O5 2.309243 1_555
Na5 O53 2.333152 1_555
Na5 O125 2.456323 1_555
Na5 O71 2.538371 1_555
Na5 O143 2.571730 1_555
Na5 O23 2.605374 1_555
Na6 O6 2.309243 1_555
Na6 O54 2.333152 1_555
Na6 O126 2.456323 1_555
Na6 O60 2.538371 1_554
Na6 O132 2.571730 1_554
Na6 O12 2.605374 1_554
Na7 O55 2.331257 1_555
Na7 O7 2.341476 1_555
Na7 O127 2.425417 1_555
Na7 O133 2.561548 1_554
Na7 O13 2.574474 1_554
Na7 O61 2.603015 1_554
Na8 O8 2.340425 1_555
Na8 O56 2.435686 1_555
Na8 O62 2.453700 1_554
Na8 O128 2.459790 1_555
Na8 O134 2.543623 1_554
Na8 O14 2.588828 1_554
Na9 O63 2.331257 1_555
Na9 O15 2.341476 1_555
Na9 O135 2.425417 1_555
Na9 O129 2.561548 1_555
Na9 O9 2.574474 1_555
Na9 O57 2.603015 1_555
Na10 O16 2.309243 1_555
Na10 O64 2.333152 1_555
Na10 O136 2.456323 1_555
Na10 O58 2.538371 1_555
Na10 O130 2.571730 1_555
Na10 O10 2.605374 1_555
Na11 O17 2.340425 1_555
Na11 O65 2.435686 1_555
Na11 O59 2.453700 1_555
Na11 O137 2.459790 1_555
Na11 O131 2.543623 1_555
Na11 O11 2.588828 1_555
Na12 O15 2.280557 1_555
Na12 O12 2.421347 1_555
Na12 O102 2.536803 1_556
Na12 O135 2.574354 1_555
Na12 O105 2.596962 1_555
Na12 O132 2.669334 1_555
Na12 O74 2.808388 1_545
Na12 O77 2.907752 1_545
Na13 O16 2.299796 1_555
Na13 O13 2.419146 1_555
Na13 O103 2.502600 1_556
Na13 O136 2.557736 1_555
Na13 O106 2.616290 1_555
Na13 O133 2.632023 1_555
Na13 O72 2.863670 1_555
Na13 O75 2.864579 1_555
Na14 O17 2.346655 1_555
Na14 O14 2.377642 1_555
Na14 O104 2.576392 1_556
Na14 O107 2.578487 1_555
Na14 O134 2.602086 1_555
Na14 O137 2.604934 1_555
Na14 O73 2.842725 1_555
Na14 O76 2.869348 1_555
Na15 O18 2.346655 1_555
Na15 O21 2.377642 1_555
Na15 O99 2.576392 1_555
Na15 O96 2.578487 1_554
Na15 O141 2.602086 1_555
Na15 O138 2.604934 1_555
Na15 O82 2.842725 1_555
Na15 O79 2.869348 1_555
Na16 O19 2.299796 1_555
Na16 O22 2.419146 1_555
Na16 O100 2.502600 1_555
Na16 O139 2.557736 1_555
Na16 O97 2.616290 1_554
Na16 O142 2.632023 1_555
Na16 O83 2.863670 1_555
Na16 O80 2.864579 1_555
Na17 O20 2.280557 1_555
Na17 O23 2.421347 1_555
Na17 O101 2.536803 1_555
Na17 O140 2.574354 1_555
Na17 O98 2.596962 1_554
Na17 O143 2.669334 1_555
Na17 O81 2.808388 1_565
Na17 O78 2.907752 1_565
Na18 O3 2.346655 1_555
Na18 O0 2.377642 1_655
Na18 O114 2.576392 1_656
Na18 O117 2.578487 1_555
Na18 O120 2.602086 1_655
Na18 O123 2.604934 1_555
Na18 O84 2.842725 1_555
Na18 O87 2.869348 1_655
Na19 O4 2.280557 1_555
Na19 O1 2.421347 1_655
Na19 O115 2.536803 1_656
Na19 O124 2.574354 1_555
Na19 O118 2.596962 1_555
Na19 O121 2.669334 1_655
Na19 O85 2.808388 1_555
Na19 O88 2.907752 1_655
Na20 O5 2.299796 1_555
Na20 O2 2.419146 1_655
Na20 O116 2.502600 1_656
Na20 O125 2.557736 1_555
Na20 O119 2.616290 1_555
Na20 O122 2.632023 1_655
Na20 O86 2.863670 1_555
Na20 O89 2.864579 1_655
Na21 O6 2.299796 1_555
Na21 O9 2.419146 1_655
Na21 O111 2.502600 1_655
Na21 O126 2.557736 1_555
Na21 O108 2.616290 1_554
Na21 O129 2.632023 1_655
Na21 O93 2.863670 1_555
Na21 O90 2.864579 1_655
Na22 O7 2.280557 1_555
Na22 O10 2.421347 1_655
Na22 O112 2.536803 1_655
Na22 O127 2.574354 1_555
Na22 O109 2.596962 1_554
Na22 O130 2.669334 1_655
Na22 O94 2.808388 1_555
Na22 O91 2.907752 1_655
Na23 O8 2.346655 1_555
Na23 O11 2.377642 1_655
Na23 O113 2.576392 1_655
Na23 O110 2.578487 1_554
Na23 O131 2.602086 1_655
Na23 O128 2.604934 1_555
Na23 O95 2.842725 1_555
Na23 O92 2.869348 1_655
Na24 O128 2.335847 1_555
Na24 O70 2.467362 1_555
Na24 O76 2.505893 1_554
Na24 O56 2.547618 1_555
Na24 O46 2.660996 1_555
Na24 O22 2.726830 1_555
Na24 O38 2.882912 1_555
Na25 O126 2.340063 1_565
Na25 O54 2.451851 1_565
Na25 O77 2.519596 1_554
Na25 O71 2.554064 1_555
Na25 O23 2.681468 1_555
Na25 O47 2.758064 1_555
Na25 O36 2.829940 1_565
Na26 O72 2.393324 1_555
Na26 O130 2.431851 1_555
Na26 O66 2.445198 1_555
Na26 O58 2.489632 1_555
Na26 O18 2.553507 1_555
Na26 O42 2.814223 1_555
Na26 O40 2.896184 1_554
Na27 O83 2.393324 1_556
Na27 O121 2.431851 1_555
Na27 O65 2.445198 1_555
Na27 O49 2.489632 1_555
Na27 O17 2.553507 1_555
Na27 O41 2.814223 1_555
Na27 O43 2.896184 1_555
Na28 O125 2.340063 1_545
Na28 O53 2.451851 1_545
Na28 O78 2.519596 1_555
Na28 O60 2.554064 1_555
Na28 O12 2.681468 1_555
Na28 O36 2.758064 1_555
Na28 O47 2.829940 1_546
Na29 O123 2.335847 1_555
Na29 O61 2.467362 1_555
Na29 O79 2.505893 1_555
Na29 O51 2.547618 1_555
Na29 O37 2.660996 1_555
Na29 O13 2.726830 1_555
Na29 O45 2.882912 1_556
Na30 O138 2.335847 1_555
Na30 O57 2.467362 1_555
Na30 O87 2.505893 1_554
Na30 O66 2.547618 1_555
Na30 O33 2.660996 1_555
Na30 O9 2.726830 1_555
Na30 O24 2.882912 1_555
Na31 O139 2.340063 1_555
Na31 O67 2.451851 1_555
Na31 O88 2.519596 1_554
Na31 O58 2.554064 1_555
Na31 O10 2.681468 1_555
Na31 O34 2.758064 1_555
Na31 O25 2.829940 1_555
Na32 O86 2.393324 1_555
Na32 O143 2.431851 1_555
Na32 O56 2.445198 1_555
Na32 O71 2.489632 1_555
Na32 O8 2.553507 1_555
Na32 O32 2.814223 1_555
Na32 O29 2.896184 1_554
Na33 O93 2.393324 1_556
Na33 O132 2.431851 1_555
Na33 O51 2.445198 1_555
Na33 O60 2.489632 1_555
Na33 O3 2.553507 1_555
Na33 O27 2.814223 1_555
Na33 O30 2.896184 1_555
Na34 O136 2.340063 1_555
Na34 O64 2.451851 1_555
Na34 O91 2.519596 1_555
Na34 O49 2.554064 1_555
Na34 O1 2.681468 1_555
Na34 O25 2.758064 1_555
Na34 O34 2.829940 1_556
Na35 O137 2.335847 1_555
Na35 O50 2.467362 1_555
Na35 O92 2.505893 1_555
Na35 O65 2.547618 1_555
Na35 O26 2.660996 1_555
Na35 O2 2.726830 1_555
Na35 O35 2.882912 1_556
Al0 O93 1.858897 1_556
Al0 O114 1.893866 1_656
Al0 O45 1.936367 1_556
Al0 O3 1.944533 1_555
Al0 O51 1.987302 1_555
Al0 O123 2.114762 1_555
Al1 O94 1.838911 1_556
Al1 O52 1.894273 1_555
Al1 O4 1.906342 1_555
Al1 O115 1.936058 1_656
Al1 O46 1.991363 1_556
Al1 O124 2.109426 1_555
Al2 O95 1.826896 1_556
Al2 O116 1.887902 1_656
Al2 O5 1.895225 1_555
Al2 O53 1.943606 1_555
Al2 O47 2.027298 1_556
Al2 O125 2.188882 1_555
Al3 O84 1.826896 1_555
Al3 O111 1.887902 1_655
Al3 O6 1.895225 1_555
Al3 O54 1.943606 1_555
Al3 O36 2.027298 1_555
Al3 O126 2.188882 1_555
Al4 O85 1.838911 1_555
Al4 O55 1.894273 1_555
Al4 O7 1.906342 1_555
Al4 O112 1.936058 1_655
Al4 O37 1.991363 1_555
Al4 O127 2.109426 1_555
Al5 O86 1.858897 1_555
Al5 O113 1.893866 1_655
Al5 O38 1.936367 1_555
Al5 O8 1.944533 1_555
Al5 O56 1.987302 1_555
Al5 O128 2.114762 1_555
Al6 O81 1.838911 1_556
Al6 O63 1.894273 1_555
Al6 O15 1.906342 1_555
Al6 O102 1.936058 1_556
Al6 O33 1.991363 1_556
Al6 O135 2.109426 1_555
Al7 O82 1.826896 1_556
Al7 O103 1.887902 1_556
Al7 O16 1.895225 1_555
Al7 O64 1.943606 1_555
Al7 O34 2.027298 1_556
Al7 O136 2.188882 1_555
Al8 O83 1.858897 1_556
Al8 O104 1.893866 1_556
Al8 O35 1.936367 1_556
Al8 O17 1.944533 1_555
Al8 O65 1.987302 1_555
Al8 O137 2.114762 1_555
Al9 O72 1.858897 1_555
Al9 O99 1.893866 1_555
Al9 O24 1.936367 1_555
Al9 O18 1.944533 1_555
Al9 O66 1.987302 1_555
Al9 O138 2.114762 1_555
Al10 O73 1.826896 1_555
Al10 O100 1.887902 1_555
Al10 O19 1.895225 1_555
Al10 O67 1.943606 1_555
Al10 O25 2.027298 1_555
Al10 O139 2.188882 1_555
Al11 O74 1.838911 1_555
Al11 O68 1.894273 1_555
Al11 O20 1.906342 1_555
Al11 O101 1.936058 1_555
Al11 O26 1.991363 1_555
Al11 O140 2.109426 1_555
O0 Si15 1.691261 1_555
O0 Ta0 1.968113 1_555
O1 Si16 1.707203 1_555
O1 Ta1 1.997723 1_555
O2 Si17 1.659114 1_555
O2 Ta2 2.006352 1_555
O3 Si12 1.619902 1_555
O4 Si13 1.601567 1_555
O5 Si14 1.624319 1_555
O6 Si21 1.624319 1_555
O7 Si22 1.601567 1_555
O8 Si23 1.619902 1_555
O9 Si18 1.659114 1_555
O9 Ta3 2.006352 1_555
O10 Si19 1.707203 1_555
O10 Ta4 1.997723 1_555
O11 Si20 1.691261 1_555
O11 Ta5 1.968113 1_555
O12 Si5 1.707203 1_545
O12 Ta6 1.997723 1_555
O13 Si3 1.659114 1_555
O13 Ta7 2.006352 1_555
O14 Si4 1.691261 1_555
O14 Ta8 1.968113 1_555
O15 Si2 1.601567 1_545
O16 Si0 1.624319 1_555
O17 Si1 1.619902 1_555
O18 Si10 1.619902 1_555
O19 Si11 1.624319 1_555
O20 Si9 1.601567 1_565
O21 Si7 1.691261 1_555
O21 Ta9 1.968113 1_555
O22 Si8 1.659114 1_555
O22 Ta10 2.006352 1_555
O23 Si6 1.707203 1_565
O23 Ta11 1.997723 1_555
O24 P6 1.533451 1_555
O25 P7 1.525053 1_555
O26 P8 1.514529 1_555
O27 P6 1.553249 1_555
O27 Ta9 2.034546 1_556
O28 P7 1.562058 1_555
O28 Ta10 1.968118 1_556
O29 P8 1.572693 1_555
O29 Ta11 2.005613 1_556
O30 P9 1.572693 1_555
O30 Ta6 2.005613 1_555
O31 P10 1.562058 1_555
O31 Ta7 1.968118 1_555
O32 P11 1.553249 1_555
O32 Ta8 2.034546 1_555
O33 P9 1.514529 1_555
O34 P10 1.525053 1_555
O35 P11 1.533451 1_555
O36 P2 1.525053 1_545
O37 P0 1.514529 1_555
O38 P1 1.533451 1_555
O39 P2 1.562058 1_445
O39 Ta3 1.968118 1_556
O40 P0 1.572693 1_455
O40 Ta4 2.005613 1_556
O41 P1 1.553249 1_455
O41 Ta5 2.034546 1_556
O42 P4 1.553249 1_455
O42 Ta0 2.034546 1_555
O43 P5 1.572693 1_455
O43 Ta1 2.005613 1_555
O44 P3 1.562058 1_465
O44 Ta2 1.968118 1_555
O45 P4 1.533451 1_555
O46 P5 1.514529 1_555
O47 P3 1.525053 1_565
O48 Si0 1.649059 1_555
O48 Ta0 1.957077 1_555
O49 Si1 1.667449 1_555
O49 Ta1 2.029788 1_555
O50 Si2 1.655871 1_555
O50 Ta2 1.979678 1_555
O51 Si3 1.621075 1_555
O52 Si4 1.590898 1_555
O53 Si5 1.613193 1_555
O54 Si6 1.613193 1_555
O55 Si7 1.590898 1_555
O56 Si8 1.621075 1_555
O57 Si9 1.655871 1_555
O57 Ta3 1.979678 1_555
O58 Si10 1.667449 1_555
O58 Ta4 2.029788 1_555
O59 Si11 1.649059 1_555
O59 Ta5 1.957077 1_555
O60 Si12 1.667449 1_555
O60 Ta6 2.029788 1_555
O61 Si13 1.655871 1_555
O61 Ta7 1.979678 1_555
O62 Si14 1.649059 1_555
O62 Ta8 1.957077 1_555
O63 Si15 1.590898 1_555
O64 Si16 1.613193 1_555
O65 Si17 1.621075 1_555
O66 Si18 1.621075 1_555
O67 Si19 1.613193 1_555
O68 Si20 1.590898 1_555
O69 Si21 1.649059 1_555
O69 Ta9 1.957077 1_555
O70 Si22 1.655871 1_555
O70 Ta10 1.979678 1_555
O71 Si23 1.667449 1_555
O71 Ta11 2.029788 1_555
O72 Si0 1.623640 1_555
O73 Si1 1.599406 1_555
O74 Si2 1.595072 1_555
O75 Si3 1.662704 1_555
O75 Ta9 1.905151 1_556
O76 Si4 1.689661 1_555
O76 Ta10 1.913074 1_556
O77 Si5 1.686710 1_555
O77 Ta11 1.924424 1_556
O78 Si6 1.686710 1_555
O78 Ta6 1.924424 1_555
O79 Si7 1.689661 1_555
O79 Ta7 1.913074 1_555
O80 Si8 1.662704 1_555
O80 Ta8 1.905151 1_555
O81 Si9 1.595072 1_555
O82 Si10 1.599406 1_555
O83 Si11 1.623640 1_555
O84 Si12 1.599406 1_555
O85 Si13 1.595072 1_555
O86 Si14 1.623640 1_555
O87 Si15 1.689661 1_555
O87 Ta3 1.913074 1_556
O88 Si16 1.686710 1_555
O88 Ta4 1.924424 1_556
O89 Si17 1.662704 1_555
O89 Ta5 1.905151 1_556
O90 Si18 1.662704 1_555
O90 Ta0 1.905151 1_555
O91 Si19 1.686710 1_555
O91 Ta1 1.924424 1_555
O92 Si20 1.689661 1_555
O92 Ta2 1.913074 1_555
O93 Si21 1.623640 1_555
O94 Si22 1.595072 1_555
O95 Si23 1.599406 1_555
O96 Si0 1.655727 1_555
O96 Ta9 1.965727 1_556
O97 Si1 1.666381 1_555
O97 Ta10 1.971330 1_556
O98 Si2 1.693048 1_555
O98 Ta11 1.923515 1_556
O99 Si3 1.613978 1_555
O100 Si4 1.609664 1_555
O101 Si5 1.596429 1_555
O102 Si6 1.596429 1_555
O103 Si7 1.609664 1_555
O104 Si8 1.613978 1_555
O105 Si9 1.693048 1_555
O105 Ta6 1.923515 1_555
O106 Si10 1.666381 1_555
O106 Ta7 1.971330 1_555
O107 Si11 1.655727 1_555
O107 Ta8 1.965727 1_555
O108 Si12 1.666381 1_555
O108 Ta3 1.971330 1_656
O109 Si13 1.693048 1_555
O109 Ta4 1.923515 1_656
O110 Si14 1.655727 1_555
O110 Ta5 1.965727 1_656
O111 Si15 1.609664 1_555
O112 Si16 1.596429 1_555
O113 Si17 1.613978 1_555
O114 Si18 1.613978 1_555
O115 Si19 1.596429 1_555
O116 Si20 1.609664 1_555
O117 Si21 1.655727 1_555
O117 Ta0 1.965727 1_655
O118 Si22 1.693048 1_555
O118 Ta1 1.923515 1_655
O119 Si23 1.666381 1_555
O119 Ta2 1.971330 1_655
O120 P0 1.553124 1_455
O120 Ta0 2.101956 1_555
O121 P1 1.600363 1_455
O121 Ta1 2.088828 1_555
O122 P2 1.554269 1_455
O122 Ta2 2.071487 1_555
O123 P0 1.547887 1_555
O124 P1 1.514067 1_555
O125 P2 1.537224 1_555
O126 P3 1.537224 1_555
O127 P4 1.514067 1_555
O128 P5 1.547887 1_555
O129 P3 1.554269 1_455
O129 Ta3 2.071487 1_555
O130 P4 1.600363 1_455
O130 Ta4 2.088828 1_555
O131 P5 1.553124 1_455
O131 Ta5 2.101956 1_555
O132 P6 1.600363 1_555
O132 Ta6 2.088828 1_555
O133 P7 1.554269 1_555
O133 Ta7 2.071487 1_555
O134 P8 1.553124 1_555
O134 Ta8 2.101956 1_555
O135 P6 1.514067 1_555
O136 P7 1.537224 1_555
O137 P8 1.547887 1_555
O138 P9 1.547887 1_555
O139 P10 1.537224 1_555
O140 P11 1.514067 1_555
O141 P9 1.553124 1_555
O141 Ta9 2.101956 1_555
O142 P10 1.554269 1_555
O142 Ta10 2.071487 1_555
O143 P11 1.600363 1_555
O143 Ta11 2.088828 1_555
