# generated using pymatgen
data_Pu(SiOs)2
_symmetry_space_group_name_H-M   'P 1'
_cell_length_a   5.72400619
_cell_length_b   5.72400619
_cell_length_c   5.72400619
_cell_angle_alpha   137.44978901
_cell_angle_beta   137.44978901
_cell_angle_gamma   61.74672586
_symmetry_Int_Tables_number   1
_chemical_formula_structural   Pu(SiOs)2
_chemical_formula_sum   'Pu1 Si2 Os2'
_cell_volume   84.77089902
_cell_formula_units_Z   1
loop_
 _symmetry_equiv_pos_site_id
 _symmetry_equiv_pos_as_xyz
  1  'x, y, z'
loop_
 _atom_site_type_symbol
 _atom_site_label
 _atom_site_symmetry_multiplicity
 _atom_site_fract_x
 _atom_site_fract_y
 _atom_site_fract_z
 _atom_site_occupancy
  Pu  Pu0  1  -0.00000000  -0.00000000  -0.00000000  1
  Si  Si0  1  0.62939944  0.62939944  0.00000000  1
  Si  Si1  1  0.37060056  0.37060056  -0.00000000  1
  Os  Os0  1  0.25000000  0.75000000  0.50000000  1
  Os  Os1  1  0.75000000  0.25000000  0.50000000  1
loop_
_geom_bond_atom_site_label_1
_geom_bond_atom_site_label_2
_geom_bond_distance
_geom_bond_site_symmetry_2
Pu0 Si1 3.200615 1_545
Pu0 Si1 3.200615 1_556
Pu0 Si1 3.200615 1_455
Pu0 Si1 3.200615 1_444
Pu0 Si0 3.200615 1_556
Pu0 Si0 3.200615 1_455
Pu0 Si0 3.200615 1_545
Pu0 Si0 3.200615 1_444
Si0 Si1 2.542924 1_555
Os0 Si0 2.391212 1_455
Os0 Si0 2.391212 1_556
Os0 Si1 2.391212 1_555
Os0 Si1 2.391212 1_566
Os0 Pu0 3.216814 1_666
Os0 Pu0 3.216814 1_565
Os0 Pu0 3.216814 1_555
Os0 Pu0 3.216814 1_566
Os1 Si0 2.391212 1_545
Os1 Si0 2.391212 1_556
Os1 Si1 2.391212 1_656
Os1 Si1 2.391212 1_555
Os1 Pu0 3.216814 1_666
Os1 Pu0 3.216814 1_655
Os1 Pu0 3.216814 1_555
Os1 Pu0 3.216814 1_656
