# generated using pymatgen
data_GdScSi
_symmetry_space_group_name_H-M   'P 1'
_cell_length_a   4.22791744
_cell_length_b   4.22791887
_cell_length_c   8.34562604
_cell_angle_alpha   104.67296885
_cell_angle_beta   104.67295157
_cell_angle_gamma   89.99999937
_symmetry_Int_Tables_number   1
_chemical_formula_structural   GdScSi
_chemical_formula_sum   'Gd2 Sc2 Si2'
_cell_volume   139.28033449
_cell_formula_units_Z   2
loop_
 _symmetry_equiv_pos_site_id
 _symmetry_equiv_pos_as_xyz
  1  'x, y, z'
loop_
 _atom_site_type_symbol
 _atom_site_label
 _atom_site_symmetry_multiplicity
 _atom_site_fract_x
 _atom_site_fract_y
 _atom_site_fract_z
 _atom_site_occupancy
  Gd  Gd0  1  0.67821499  0.67821499  0.35642897  1
  Gd  Gd1  1  0.32178501  0.32178501  0.64357103  1
  Sc  Sc0  1  0.50000000  0.00000000  0.00000000  1
  Sc  Sc1  1  0.00000000  0.50000000  0.00000000  1
  Si  Si0  1  0.87551433  0.87551433  0.75102766  1
  Si  Si1  1  0.12448567  0.12448567  0.24897234  1
loop_
_geom_bond_atom_site_label_1
_geom_bond_atom_site_label_2
_geom_bond_distance
_geom_bond_site_symmetry_2
Gd0 Si0 3.074626 1_555
Gd0 Si1 3.104617 1_665
Gd0 Si1 3.104622 1_655
Gd0 Si1 3.104623 1_565
Gd0 Si1 3.104628 1_555
Gd1 Si1 3.074626 1_555
Gd1 Si0 3.104617 1_445
Gd1 Si0 3.104622 1_455
Gd1 Si0 3.104623 1_545
Gd1 Si0 3.104628 1_555
Sc0 Si0 2.869176 1_444
Sc0 Si1 2.869176 1_655
Sc0 Si1 2.869179 1_555
Sc0 Si0 2.869179 1_544
Sc1 Si0 2.869176 1_444
Sc1 Si1 2.869176 1_565
Sc1 Si1 2.869180 1_555
Sc1 Si0 2.869180 1_454
