# generated using pymatgen
data_Ti3InC
_symmetry_space_group_name_H-M   'P 1'
_cell_length_a   4.23556108
_cell_length_b   4.23556108
_cell_length_c   4.23556108
_cell_angle_alpha   90.00000000
_cell_angle_beta   90.00000000
_cell_angle_gamma   90.00000000
_symmetry_Int_Tables_number   1
_chemical_formula_structural   Ti3InC
_chemical_formula_sum   'Ti3 In1 C1'
_cell_volume   75.98587116
_cell_formula_units_Z   1
loop_
 _symmetry_equiv_pos_site_id
 _symmetry_equiv_pos_as_xyz
  1  'x, y, z'
loop_
 _atom_site_type_symbol
 _atom_site_label
 _atom_site_symmetry_multiplicity
 _atom_site_fract_x
 _atom_site_fract_y
 _atom_site_fract_z
 _atom_site_occupancy
  Ti  Ti0  1  0.50000000  0.50000000  0.00000000  1
  Ti  Ti1  1  0.50000000  0.00000000  0.50000000  1
  Ti  Ti2  1  0.00000000  0.50000000  0.50000000  1
  In  In0  1  0.00000000  0.00000000  0.00000000  1
  C  C0  1  0.50000000  0.50000000  0.50000000  1
loop_
_geom_bond_atom_site_label_1
_geom_bond_atom_site_label_2
_geom_bond_distance
_geom_bond_site_symmetry_2
In0 Ti2 2.994994 1_545
In0 Ti0 2.994994 1_555
In0 Ti0 2.994994 1_545
In0 Ti1 2.994994 1_455
In0 Ti1 2.994994 1_454
In0 Ti0 2.994994 1_445
In0 Ti2 2.994994 1_554
In0 Ti2 2.994994 1_544
In0 Ti2 2.994994 1_555
In0 Ti1 2.994994 1_555
In0 Ti1 2.994994 1_554
In0 Ti0 2.994994 1_455
C0 Ti0 2.117781 1_555
C0 Ti2 2.117781 1_655
C0 Ti1 2.117781 1_555
C0 Ti2 2.117781 1_555
C0 Ti1 2.117781 1_565
C0 Ti0 2.117781 1_556
