# generated using pymatgen
data_CsH18RuN6(ClO2)4
_symmetry_space_group_name_H-M   'P 1'
_cell_length_a   10.20190921
_cell_length_b   10.20190921
_cell_length_c   10.20190916
_cell_angle_alpha   42.86091096
_cell_angle_beta   42.86091096
_cell_angle_gamma   42.86090808
_symmetry_Int_Tables_number   1
_chemical_formula_structural   CsH18RuN6(ClO2)4
_chemical_formula_sum   'Cs1 H18 Ru1 N6 Cl4 O8'
_cell_volume   445.18629679
_cell_formula_units_Z   1
loop_
 _symmetry_equiv_pos_site_id
 _symmetry_equiv_pos_as_xyz
  1  'x, y, z'
loop_
 _atom_site_type_symbol
 _atom_site_label
 _atom_site_symmetry_multiplicity
 _atom_site_fract_x
 _atom_site_fract_y
 _atom_site_fract_z
 _atom_site_occupancy
  Cs  Cs0  1  0.50000000  0.50000000  0.50000000  1
  H  H0  1  0.66612800  0.90731400  0.28044100  1
  H  H1  1  0.71955900  0.33387200  0.09268600  1
  H  H2  1  0.09268600  0.71955900  0.33387200  1
  H  H3  1  0.33387200  0.09268600  0.71955900  1
  H  H4  1  0.28044100  0.66612800  0.90731400  1
  H  H5  1  0.90731400  0.28044100  0.66612800  1
  H  H6  1  0.94278100  0.95489500  0.33506300  1
  H  H7  1  0.57280700  0.16529900  0.17866700  1
  H  H8  1  0.16529900  0.17866700  0.57280700  1
  H  H9  1  0.17866700  0.57280700  0.16529900  1
  H  H10  1  0.42719300  0.83470100  0.82133300  1
  H  H11  1  0.95489500  0.33506300  0.94278100  1
  H  H12  1  0.82133300  0.42719300  0.83470100  1
  H  H13  1  0.66493700  0.05721900  0.04510500  1
  H  H14  1  0.05721900  0.04510500  0.66493700  1
  H  H15  1  0.04510500  0.66493700  0.05721900  1
  H  H16  1  0.33506300  0.94278100  0.95489500  1
  H  H17  1  0.83470100  0.82133300  0.42719300  1
  Ru  Ru0  1  0.00000000  0.00000000  0.00000000  1
  N  N0  1  0.86150300  0.30814400  0.96185200  1
  N  N1  1  0.69185600  0.03814800  0.13849700  1
  N  N2  1  0.96185200  0.86150300  0.30814400  1
  N  N3  1  0.30814400  0.96185200  0.86150300  1
  N  N4  1  0.13849700  0.69185600  0.03814800  1
  N  N5  1  0.03814800  0.13849700  0.69185600  1
  Cl  Cl0  1  0.81171200  0.81171200  0.81171200  1
  Cl  Cl1  1  0.18828800  0.18828800  0.18828800  1
  Cl  Cl2  1  0.63313400  0.63313400  0.63313400  1
  Cl  Cl3  1  0.36686600  0.36686600  0.36686600  1
  O  O0  1  0.72553800  0.00333500  0.65324400  1
  O  O1  1  0.65324400  0.72553800  0.00333500  1
  O  O2  1  0.00333500  0.65324400  0.72553800  1
  O  O3  1  0.27446200  0.99666500  0.34675600  1
  O  O4  1  0.86451900  0.86451900  0.86451900  1
  O  O5  1  0.99666500  0.34675600  0.27446200  1
  O  O6  1  0.34675600  0.27446200  0.99666500  1
  O  O7  1  0.13548100  0.13548100  0.13548100  1
loop_
_geom_bond_atom_site_label_1
_geom_bond_atom_site_label_2
_geom_bond_distance
_geom_bond_site_symmetry_2
Cs0 O3 3.159268 1_555
Cs0 O0 3.159268 1_555
Cs0 O2 3.159269 1_555
Cs0 O5 3.159269 1_555
Cs0 O1 3.159269 1_555
Cs0 O6 3.159269 1_555
H0 N1 1.034527 1_565
H1 N0 1.034527 1_554
H2 N2 1.034527 1_455
H3 N3 1.034527 1_545
H4 N4 1.034527 1_556
H5 N5 1.034527 1_655
H6 N2 1.026917 1_555
H7 N1 1.032333 1_555
H8 N5 1.032333 1_555
H9 N4 1.032333 1_555
H10 N3 1.032333 1_555
H11 N0 1.026917 1_555
H12 N0 1.032333 1_555
H13 N1 1.026917 1_555
H14 N5 1.026917 1_555
H15 N4 1.026917 1_555
H16 N3 1.026917 1_555
H17 N2 1.032333 1_555
N0 Ru0 2.128674 1_656
N1 Ru0 2.128674 1_655
N2 Ru0 2.128674 1_665
N3 Ru0 2.128674 1_566
N4 Ru0 2.128674 1_565
N5 Ru0 2.128674 1_556
Cl0 O2 1.462533 1_655
Cl0 O0 1.462533 1_565
Cl0 O1 1.462533 1_556
Cl0 O4 1.465316 1_555
Cl1 O5 1.462533 1_455
Cl1 O3 1.462533 1_545
Cl1 O6 1.462533 1_554
Cl1 O7 1.465316 1_555
Cl2 Cs0 3.694272 1_555
Cl3 Cs0 3.694272 1_555
