# generated using pymatgen
data_Na14Ca4Al4Si5S7O48
_symmetry_space_group_name_H-M   'P 1'
_cell_length_a   18.29838991
_cell_length_b   9.02658236
_cell_length_c   22.17501994
_cell_angle_alpha   89.81019392
_cell_angle_beta   89.57426828
_cell_angle_gamma   119.32921188
_symmetry_Int_Tables_number   1
_chemical_formula_structural   Na14Ca4Al4Si5S7O48
_chemical_formula_sum   'Na42 Ca12 Al12 Si15 S21 O144'
_cell_volume   3193.01604098
_cell_formula_units_Z   3
loop_
 _symmetry_equiv_pos_site_id
 _symmetry_equiv_pos_as_xyz
  1  'x, y, z'
loop_
 _atom_site_type_symbol
 _atom_site_label
 _atom_site_symmetry_multiplicity
 _atom_site_fract_x
 _atom_site_fract_y
 _atom_site_fract_z
 _atom_site_occupancy
  Na  Na0  1  0.80910569  0.00273696  0.24361397  1
  Na  Na1  1  0.18310372  0.35189495  0.25455444  1
  Na  Na2  1  0.67692950  0.34772003  0.25011096  1
  Na  Na3  1  0.01157213  0.65136122  0.24358544  1
  Na  Na4  1  0.50082541  0.64538810  0.23068718  1
  Na  Na5  1  0.32274281  0.61877518  0.74833091  1
  Na  Na6  1  0.00110977  0.35702941  0.73184288  1
  Na  Na7  1  0.50889733  0.37470344  0.74259126  1
  Na  Na8  1  0.18265362  0.01379303  0.74997947  1
  Na  Na9  1  0.67508264  0.00160254  0.75463753  1
  Na  Na10  1  0.14934511  0.31929124  0.58332189  1
  Na  Na11  1  0.65833053  0.32219974  0.58026509  1
  Na  Na12  1  0.32223061  0.97387307  0.59238609  1
  Na  Na13  1  0.83403409  0.98741107  0.58980503  1
  Na  Na14  1  0.16162503  0.99539286  0.06899378  1
  Na  Na15  1  0.64857172  0.97353587  0.07308601  1
  Na  Na16  1  0.33510348  0.68062429  0.08555604  1
  Na  Na17  1  0.81739427  0.66601985  0.08042701  1
  Na  Na18  1  0.48047639  0.67401985  0.91999736  1
  Na  Na19  1  0.98562980  0.67483108  0.91611580  1
  Na  Na20  1  0.34431631  0.03740693  0.91134642  1
  Na  Na21  1  0.84422573  0.02379422  0.91190495  1
  Na  Na22  1  0.16953005  0.27458814  0.91613493  1
  Na  Na23  1  0.66831953  0.26866780  0.91687030  1
  Na  Na24  1  0.48746817  0.30000838  0.42076206  1
  Na  Na25  1  0.98423218  0.29344852  0.43140839  1
  Na  Na26  1  0.16759081  0.06978214  0.42050055  1
  Na  Na27  1  0.66660060  0.05800824  0.42045830  1
  Na  Na28  1  0.34857732  0.66448753  0.41844467  1
  Na  Na29  1  0.84181440  0.65389278  0.41913350  1
  Na  Na30  1  0.01130990  0.01627872  0.50973714  1
  Na  Na31  1  0.51722185  0.00108593  0.51127020  1
  Na  Na32  1  0.01595334  0.03526454  0.00768291  1
  Na  Na33  1  0.51112541  0.00536745  0.00526911  1
  Na  Na34  1  0.32887086  0.33617559  0.82668750  1
  Na  Na35  1  0.81064684  0.32814249  0.82400568  1
  Na  Na36  1  0.31501860  0.29948494  0.32536724  1
  Na  Na37  1  0.80925732  0.31256407  0.33526652  1
  Na  Na38  1  0.17249710  0.67130994  0.16537715  1
  Na  Na39  1  0.65554123  0.64511535  0.15890934  1
  Na  Na40  1  0.15632257  0.66457480  0.66060730  1
  Na  Na41  1  0.66474778  0.67169929  0.66866093  1
  Ca  Ca0  1  0.01628698  0.02158707  0.35010960  1
  Ca  Ca1  1  0.50822555  0.01555255  0.35000931  1
  Ca  Ca2  1  0.00675803  0.99940520  0.84938464  1
  Ca  Ca3  1  0.51607448  0.00204487  0.84679249  1
  Ca  Ca4  1  0.33122125  0.32727459  0.67534104  1
  Ca  Ca5  1  0.82542644  0.33669532  0.17271166  1
  Ca  Ca6  1  0.33026723  0.33273536  0.99292521  1
  Ca  Ca7  1  0.82326654  0.31477592  0.98684775  1
  Ca  Ca8  1  0.32144577  0.32868641  0.48804348  1
  Ca  Ca9  1  0.82924769  0.32730276  0.49507437  1
  Ca  Ca10  1  0.66311575  0.66335756  0.31107583  1
  Ca  Ca11  1  0.16379478  0.66252596  0.80990604  1
  Al  Al0  1  0.01315300  0.01200843  0.64955036  1
  Al  Al1  1  0.52991799  0.01621669  0.66551225  1
  Al  Al2  1  0.01894987  0.00961222  0.15543734  1
  Al  Al3  1  0.51413103  0.01639554  0.14793403  1
  Al  Al4  1  0.82360775  0.30765879  0.67304067  1
  Al  Al5  1  0.32330339  0.33089835  0.17186118  1
  Al  Al6  1  0.16357553  0.65123069  0.01529341  1
  Al  Al7  1  0.63681326  0.64366664  0.02305006  1
  Al  Al8  1  0.14374337  0.63168595  0.52603215  1
  Al  Al9  1  0.66237475  0.66659528  0.51795114  1
  Al  Al10  1  0.17879418  0.69384354  0.31618119  1
  Al  Al11  1  0.66422748  0.66667343  0.80938227  1
  Si  Si0  1  0.16173944  0.00541062  0.24855061  1
  Si  Si1  1  0.65005663  0.00237772  0.24981004  1
  Si  Si2  1  0.14860038  0.29910093  0.74982678  1
  Si  Si3  1  0.66521460  0.32104094  0.74896791  1
  Si  Si4  1  0.50150366  0.69297531  0.75760692  1
  Si  Si5  1  0.97899360  0.31616570  0.58714313  1
  Si  Si6  1  0.16918367  0.99908057  0.58113370  1
  Si  Si7  1  0.67641600  0.01240033  0.58236810  1
  Si  Si8  1  0.47775726  0.64020974  0.08697669  1
  Si  Si9  1  0.17589176  0.33756322  0.08401999  1
  Si  Si10  1  0.66867673  0.34052048  0.08225046  1
  Si  Si11  1  0.16782732  0.95376142  0.92039851  1
  Si  Si12  1  0.66816878  0.93554817  0.91878147  1
  Si  Si13  1  0.16775871  0.40266552  0.41629729  1
  Si  Si14  1  0.66821309  0.38046291  0.41942680  1
  S  S0  1  0.34524879  0.69262384  0.25223415  1
  S  S1  1  0.86286728  0.72114727  0.24674949  1
  S  S2  1  0.00138800  0.29618510  0.24736083  1
  S  S3  1  0.48825672  0.28472764  0.24450450  1
  S  S4  1  0.98897745  0.69368977  0.74412820  1
  S  S5  1  0.36074588  0.99953803  0.74666971  1
  S  S6  1  0.84699854  0.00291687  0.75025885  1
  S  S7  1  0.49477614  0.33553810  0.57948465  1
  S  S8  1  0.33373963  0.66057936  0.58084534  1
  S  S9  1  0.83404871  0.63982510  0.58422263  1
  S  S10  1  0.99419653  0.65799968  0.08473782  1
  S  S11  1  0.33650884  0.03083057  0.08600755  1
  S  S12  1  0.84078413  0.01578871  0.08616814  1
  S  S13  1  0.31211551  0.67133971  0.92099843  1
  S  S14  1  0.80605530  0.66096364  0.91464354  1
  S  S15  1  0.02028561  0.37548827  0.92190981  1
  S  S16  1  0.52507358  0.38497658  0.91386598  1
  S  S17  1  0.30778667  0.95528192  0.41547668  1
  S  S18  1  0.81325318  0.95733892  0.41866640  1
  S  S19  1  0.02720219  0.66402152  0.41363439  1
  S  S20  1  0.51971705  0.66448500  0.42159784  1
  O  O0  1  0.13607880  0.06440523  0.31108822  1
  O  O1  1  0.61744338  0.01402339  0.31722511  1
  O  O2  1  0.39118840  0.76622243  0.30863142  1
  O  O3  1  0.90245399  0.80115212  0.30429524  1
  O  O4  1  0.48185491  0.21460684  0.30640738  1
  O  O5  1  0.98707880  0.21530907  0.30801321  1
  O  O6  1  0.11400575  0.22164406  0.81704785  1
  O  O7  1  0.63913353  0.20632131  0.81074195  1
  O  O8  1  0.47560031  0.74232374  0.82130147  1
  O  O9  1  0.98168640  0.74968488  0.80582664  1
  O  O10  1  0.40033051  0.00513268  0.80526070  1
  O  O11  1  0.89343846  0.02534771  0.80704060  1
  O  O12  1  0.41578542  0.00358986  0.69472183  1
  O  O13  1  0.89212675  0.98646547  0.69784026  1
  O  O14  1  0.08392543  0.16597133  0.69927157  1
  O  O15  1  0.59252349  0.22081071  0.69635633  1
  O  O16  1  0.98814340  0.81253216  0.69859476  1
  O  O17  1  0.51871910  0.84790312  0.70928546  1
  O  O18  1  0.38810961  0.79513289  0.19905787  1
  O  O19  1  0.91474401  0.82922402  0.19424154  1
  O  O20  1  0.00567141  0.17919696  0.20198541  1
  O  O21  1  0.48959326  0.16743143  0.19921460  1
  O  O22  1  0.08648787  0.95814613  0.19823873  1
  O  O23  1  0.58528117  0.00798778  0.19973085  1
  O  O24  1  0.45611589  0.35718127  0.63432297  1
  O  O25  1  0.92250225  0.33888634  0.64100417  1
  O  O26  1  0.23607755  0.07470414  0.63659895  1
  O  O27  1  0.74879837  0.11569452  0.63404097  1
  O  O28  1  0.32365184  0.55091036  0.63341454  1
  O  O29  1  0.82104914  0.50070282  0.62635523  1
  O  O30  1  0.42135838  0.50509135  0.14159620  1
  O  O31  1  0.95661143  0.56061395  0.14050108  1
  O  O32  1  0.32355681  0.14390176  0.12872520  1
  O  O33  1  0.83246417  0.10502596  0.13943527  1
  O  O34  1  0.24768307  0.37971743  0.13652942  1
  O  O35  1  0.73128467  0.40083479  0.14074734  1
  O  O36  1  0.20288326  0.27771874  0.02295243  1
  O  O37  1  0.70912858  0.28187308  0.02735509  1
  O  O38  1  0.42884240  0.58781089  0.02355937  1
  O  O39  1  0.93988970  0.57651477  0.03229807  1
  O  O40  1  0.35302866  0.10901329  0.02484160  1
  O  O41  1  0.85511164  0.11935378  0.03092309  1
  O  O42  1  0.20321845  0.12983058  0.52287600  1
  O  O43  1  0.70283048  0.12287576  0.52048780  1
  O  O44  1  0.34739068  0.58603217  0.52505374  1
  O  O45  1  0.85250953  0.59849382  0.52277775  1
  O  O46  1  0.44312715  0.31702438  0.52574663  1
  O  O47  1  0.92960306  0.27411043  0.52389797  1
  O  O48  1  0.25999079  0.66090584  0.97594552  1
  O  O49  1  0.76525657  0.66262470  0.97166719  1
  O  O50  1  0.07880112  0.47123476  0.97244554  1
  O  O51  1  0.57263732  0.47769779  0.96757066  1
  O  O52  1  0.16870489  0.82992151  0.97724751  1
  O  O53  1  0.66633084  0.83085694  0.98098756  1
  O  O54  1  0.26408339  0.86506441  0.46989217  1
  O  O55  1  0.76198571  0.85934493  0.47237992  1
  O  O56  1  0.16519042  0.50240115  0.47737901  1
  O  O57  1  0.66985968  0.50942310  0.47398118  1
  O  O58  1  0.07467452  0.66453001  0.46698486  1
  O  O59  1  0.57730501  0.68081671  0.47155132  1
  O  O60  1  0.07306137  0.66923643  0.35637467  1
  O  O61  1  0.55522117  0.65597466  0.36299049  1
  O  O62  1  0.25734691  0.87305465  0.35980946  1
  O  O63  1  0.76967793  0.87848275  0.36184530  1
  O  O64  1  0.16948836  0.51341415  0.35552688  1
  O  O65  1  0.67155816  0.45809206  0.35223797  1
  O  O66  1  0.05622408  0.45701883  0.86385425  1
  O  O67  1  0.57025843  0.47363970  0.85761546  1
  O  O68  1  0.16962872  0.87727608  0.85461713  1
  O  O69  1  0.67280880  0.83186487  0.85933211  1
  O  O70  1  0.26719742  0.66371335  0.86535643  1
  O  O71  1  0.75502837  0.64708173  0.86119159  1
  O  O72  1  0.01688190  0.81775827  0.41640899  1
  O  O73  1  0.50571212  0.81351847  0.42530174  1
  O  O74  1  0.39020787  0.96042964  0.41126435  1
  O  O75  1  0.89515048  0.95861505  0.42161798  1
  O  O76  1  0.08396171  0.21273713  0.42070734  1
  O  O77  1  0.58061052  0.19688353  0.42882691  1
  O  O78  1  0.00521054  0.19858932  0.92538109  1
  O  O79  1  0.51573297  0.21180017  0.91665161  1
  O  O80  1  0.08000572  0.96309099  0.92977522  1
  O  O81  1  0.58552342  0.96182030  0.92416076  1
  O  O82  1  0.39191655  0.83400491  0.92544078  1
  O  O83  1  0.89001049  0.81991320  0.91187681  1
  O  O84  1  0.50470240  0.18167237  0.58430668  1
  O  O85  1  0.99022449  0.14717939  0.60100158  1
  O  O86  1  0.07719931  0.98245514  0.59566724  1
  O  O87  1  0.58682195  0.00403035  0.60195911  1
  O  O88  1  0.40427248  0.83517886  0.58767481  1
  O  O89  1  0.90224073  0.80994908  0.60078571  1
  O  O90  1  0.49075447  0.83214206  0.10242349  1
  O  O91  1  0.00349365  0.83367610  0.09029167  1
  O  O92  1  0.40555283  0.99902585  0.10259062  1
  O  O93  1  0.91351736  0.98305486  0.09298747  1
  O  O94  1  0.08589184  0.16974306  0.10363408  1
  O  O95  1  0.57657836  0.17282385  0.09378784  1
  O  O96  1  0.34917472  0.15039430  0.74422041  1
  O  O97  1  0.83773825  0.16061099  0.74367935  1
  O  O98  1  0.24203689  0.31736952  0.74525868  1
  O  O99  1  0.75239475  0.32467914  0.72648751  1
  O  O100  1  0.42563393  0.50744880  0.74014635  1
  O  O101  1  0.91943379  0.51792936  0.73656801  1
  O  O102  1  0.33515773  0.51623716  0.24719828  1
  O  O103  1  0.85810551  0.55258816  0.24496951  1
  O  O104  1  0.41693269  0.31813858  0.23716689  1
  O  O105  1  0.93104214  0.32844288  0.23611109  1
  O  O106  1  0.24979315  0.17412715  0.22699223  1
  O  O107  1  0.74464724  0.17070023  0.24540416  1
  O  O108  1  0.32566800  0.52276792  0.92096690  1
  O  O109  1  0.82253273  0.51230574  0.91326343  1
  O  O110  1  0.44087189  0.37168066  0.91440072  1
  O  O111  1  0.94010960  0.37619006  0.92955469  1
  O  O112  1  0.25288306  0.14199080  0.92171042  1
  O  O113  1  0.75329315  0.12500728  0.91498402  1
  O  O114  1  0.32271697  0.13400114  0.41350046  1
  O  O115  1  0.82715811  0.13352669  0.41876517  1
  O  O116  1  0.25242949  0.38211540  0.41208456  1
  O  O117  1  0.75365301  0.36266353  0.42173448  1
  O  O118  1  0.43769894  0.50596890  0.42763402  1
  O  O119  1  0.94338442  0.50956516  0.41255414  1
  O  O120  1  0.17157350  0.51741252  0.07483968  1
  O  O121  1  0.66325406  0.51277149  0.06630145  1
  O  O122  1  0.08002831  0.67843227  0.07703916  1
  O  O123  1  0.57352709  0.66635196  0.08191593  1
  O  O124  1  0.25678078  0.86341563  0.08681076  1
  O  O125  1  0.76232351  0.84965572  0.08253141  1
  O  O126  1  0.16248504  0.81438738  0.56675772  1
  O  O127  1  0.67263310  0.82550704  0.57366338  1
  O  O128  1  0.25332869  0.66796368  0.57708587  1
  O  O129  1  0.75340039  0.64719195  0.58371564  1
  O  O130  1  0.07549609  0.47837960  0.58227497  1
  O  O131  1  0.58133937  0.48936507  0.57367363  1
  O  O132  1  0.16270273  0.82094942  0.25789158  1
  O  O133  1  0.65538883  0.82825108  0.23738939  1
  O  O134  1  0.25759212  0.67197976  0.25574596  1
  O  O135  1  0.77855645  0.70502941  0.24147425  1
  O  O136  1  0.08212254  0.46064857  0.24459141  1
  O  O137  1  0.56903726  0.45116043  0.23902402  1
  O  O138  1  0.15229240  0.48177118  0.73677253  1
  O  O139  1  0.66678016  0.50422426  0.75821617  1
  O  O140  1  0.07108292  0.69373419  0.73850190  1
  O  O141  1  0.59145870  0.68728211  0.75686458  1
  O  O142  1  0.27860615  0.84206666  0.74117906  1
  O  O143  1  0.76077123  0.85239251  0.75342007  1
loop_
_geom_bond_atom_site_label_1
_geom_bond_atom_site_label_2
_geom_bond_distance
_geom_bond_site_symmetry_2
Na0 O107 2.333025 1_555
Na0 O33 2.440624 1_555
Na0 O135 2.462889 1_545
Na0 O133 2.465480 1_545
Na0 O105 2.686004 1_555
Na0 O63 2.794978 1_545
Na1 O102 2.432454 1_555
Na1 O136 2.491683 1_555
Na1 O134 2.519810 1_555
Na1 O106 2.520177 1_555
Na1 O0 2.611738 1_555
Na1 O64 2.751425 1_555
Na1 O34 2.822801 1_555
Na2 O107 2.457323 1_555
Na2 O65 2.497705 1_555
Na2 O35 2.567045 1_555
Na2 O137 2.577114 1_555
Na2 O135 2.830575 1_555
Na2 O103 2.900087 1_555
Na2 O23 2.911536 1_555
Na3 O132 2.441460 1_555
Na3 O31 2.479367 1_455
Na3 O103 2.495505 1_455
Na3 O105 2.548374 1_455
Na3 O22 2.607889 1_555
Na3 O136 2.609195 1_555
Na3 O60 2.722897 1_555
Na4 O30 2.424137 1_555
Na4 O133 2.485995 1_555
Na4 O104 2.579639 1_555
Na4 O137 2.609772 1_555
Na4 O102 2.683536 1_555
Na4 O23 2.930249 1_565
Na5 O98 2.377852 1_555
Na5 O142 2.516821 1_555
Na5 O100 2.537138 1_555
Na5 O28 2.624677 1_555
Na5 O138 2.749241 1_555
Na5 O70 2.881583 1_555
Na5 O8 2.951079 1_555
Na6 O138 2.426214 1_555
Na6 O25 2.442922 1_455
Na6 O101 2.545422 1_455
Na6 O97 2.634761 1_455
Na6 O140 2.663078 1_555
Na6 O14 2.888703 1_555
Na7 O100 2.355694 1_555
Na7 O141 2.486090 1_555
Na7 O139 2.557715 1_555
Na7 O24 2.570842 1_555
Na7 O96 2.616022 1_555
Na7 O15 2.718632 1_555
Na7 O67 2.763957 1_555
Na8 O98 2.404182 1_555
Na8 O68 2.577679 1_545
Na8 O140 2.610314 1_545
Na8 O26 2.647072 1_555
Na8 O96 2.670914 1_555
Na8 O142 2.861263 1_545
Na8 O14 2.977589 1_555
Na9 O141 2.477622 1_545
Na9 O143 2.518279 1_545
Na9 O7 2.566949 1_555
Na9 O97 2.603773 1_555
Na9 O99 2.613199 1_555
Na9 O17 2.699239 1_545
Na9 O69 2.766154 1_545
Na9 O27 2.932380 1_555
Na10 O130 2.406253 1_555
Na10 O85 2.567602 1_455
Na10 O86 2.668172 1_545
Na10 O42 2.709298 1_555
Na10 O128 2.769780 1_555
Na10 O56 2.798180 1_555
Na10 O14 2.875241 1_555
Na11 O84 2.453934 1_555
Na11 O131 2.523321 1_555
Na11 O87 2.547909 1_555
Na11 O129 2.577201 1_555
Na11 O43 2.663146 1_555
Na11 O15 2.788090 1_555
Na11 O29 2.804001 1_555
Na11 O57 2.841169 1_555
Na12 O26 2.379797 1_565
Na12 O88 2.381534 1_555
Na12 O128 2.435473 1_555
Na12 O126 2.616775 1_555
Na12 O12 2.786427 1_565
Na12 O54 2.917521 1_555
Na12 O84 2.924438 1_565
Na13 O89 2.478606 1_555
Na13 O85 2.506962 1_565
Na13 O27 2.547505 1_565
Na13 O127 2.603302 1_555
Na13 O13 2.629818 1_555
Na13 O129 2.681994 1_555
Na13 O47 2.719341 1_565
Na13 O55 2.903908 1_555
Na14 O36 2.488646 1_565
Na14 O122 2.500922 1_555
Na14 O91 2.561982 1_555
Na14 O52 2.567609 1_554
Na14 O124 2.578035 1_555
Na14 O94 2.667592 1_565
Na14 O32 2.917215 1_565
Na15 O123 2.423797 1_555
Na15 O53 2.520475 1_554
Na15 O90 2.597582 1_555
Na15 O37 2.635504 1_565
Na15 O95 2.738657 1_565
Na15 O125 2.812813 1_555
Na16 O90 2.515071 1_555
Na16 O92 2.539611 1_555
Na16 O120 2.622047 1_555
Na16 O34 2.628755 1_555
Na16 O38 2.629532 1_555
Na16 O124 2.663369 1_555
Na16 O18 2.723108 1_555
Na16 O48 2.764329 1_554
Na17 O125 2.324114 1_555
Na17 O121 2.482079 1_555
Na17 O35 2.500858 1_555
Na17 O93 2.538175 1_555
Na17 O49 2.594939 1_554
Na17 O39 2.925787 1_555
Na18 O8 2.286011 1_555
Na18 O81 2.358907 1_555
Na18 O38 2.451070 1_556
Na18 O110 2.460604 1_555
Na18 O108 2.469613 1_555
Na18 O82 2.648945 1_555
Na19 O80 2.335678 1_655
Na19 O111 2.416763 1_555
Na19 O9 2.546066 1_555
Na19 O109 2.603301 1_555
Na19 O83 2.651723 1_555
Na19 O39 2.711235 1_556
Na20 O112 2.299186 1_555
Na20 O82 2.407119 1_545
Na20 O40 2.587095 1_556
Na20 O10 2.632623 1_555
Na20 O110 2.647852 1_555
Na20 O79 2.738607 1_555
Na21 O113 2.257418 1_555
Na21 O83 2.366268 1_545
Na21 O11 2.484906 1_555
Na21 O78 2.592146 1_655
Na21 O41 2.757503 1_556
Na21 O111 2.810843 1_555
Na22 O112 2.358897 1_555
Na22 O6 2.377617 1_555
Na22 O36 2.447234 1_556
Na22 O80 2.481055 1_545
Na22 O108 2.632265 1_555
Na22 O78 2.742732 1_555
Na23 O7 2.423516 1_555
Na23 O81 2.423969 1_545
Na23 O113 2.464889 1_555
Na23 O37 2.552697 1_556
Na23 O79 2.579810 1_555
Na23 O109 2.592622 1_555
Na24 O77 2.315381 1_555
Na24 O118 2.442822 1_555
Na24 O46 2.489587 1_555
Na24 O114 2.634950 1_555
Na24 O4 2.640916 1_555
Na24 O74 2.696850 1_545
Na25 O47 2.243294 1_555
Na25 O76 2.283527 1_655
Na25 O119 2.442698 1_555
Na25 O115 2.524579 1_555
Na25 O75 2.649960 1_545
Na25 O5 2.834458 1_555
Na26 O42 2.357220 1_555
Na26 O76 2.437481 1_555
Na26 O116 2.469375 1_555
Na26 O0 2.493099 1_555
Na26 O72 2.578308 1_545
Na26 O114 2.607379 1_555
Na27 O43 2.313600 1_555
Na27 O117 2.410490 1_555
Na27 O1 2.427739 1_555
Na27 O77 2.451785 1_555
Na27 O115 2.670922 1_555
Na27 O73 2.679160 1_545
Na28 O116 2.285792 1_555
Na28 O74 2.396573 1_555
Na28 O44 2.462488 1_555
Na28 O73 2.513719 1_555
Na28 O2 2.576148 1_555
Na28 O118 2.652806 1_555
Na29 O117 2.315053 1_555
Na29 O45 2.380242 1_555
Na29 O75 2.427608 1_555
Na29 O119 2.746287 1_555
Na29 O72 2.794316 1_655
Na29 O3 2.823765 1_555
Na30 O86 2.359808 1_545
Na30 O85 2.468115 1_455
Na30 O76 2.537315 1_555
Na30 O75 2.755306 1_445
Na30 O72 2.775788 1_545
Na30 O89 2.793215 1_445
Na31 O87 2.381633 1_555
Na31 O84 2.389665 1_555
Na31 O77 2.397930 1_555
Na31 O73 2.494619 1_545
Na31 O88 2.506765 1_545
Na32 O80 2.346947 1_544
Na32 O78 2.411286 1_554
Na32 O94 2.484792 1_555
Na32 O91 2.506807 1_545
Na32 O93 2.527806 1_445
Na33 O81 2.394838 1_544
Na33 O95 2.419362 1_555
Na33 O90 2.572953 1_545
Na33 O82 2.656029 1_544
Na33 O79 2.675868 1_554
Na33 O92 2.867312 1_545
Na34 O98 2.365252 1_555
Na34 O100 2.540891 1_555
Na34 O96 2.629644 1_555
Na34 O112 2.643886 1_555
Na34 O108 2.707266 1_555
Na34 O110 2.739710 1_555
Na35 O99 2.411531 1_555
Na35 O109 2.530288 1_555
Na35 O97 2.538612 1_555
Na35 O113 2.567583 1_555
Na35 O101 2.690107 1_555
Na35 O7 2.789326 1_555
Na36 O106 2.489116 1_555
Na36 O102 2.496034 1_555
Na36 O114 2.502307 1_555
Na36 O116 2.525744 1_555
Na36 O104 2.639583 1_555
Na36 O0 2.921875 1_555
Na37 O117 2.311667 1_555
Na37 O107 2.361603 1_555
Na37 O115 2.579767 1_555
Na37 O103 2.747712 1_555
Na37 O119 2.816066 1_555
Na38 O124 2.396021 1_555
Na38 O120 2.440655 1_555
Na38 O136 2.508044 1_555
Na38 O132 2.513034 1_555
Na38 O134 2.545106 1_555
Na38 O122 2.619039 1_555
Na39 O123 2.349817 1_555
Na39 O133 2.405172 1_555
Na39 O121 2.416885 1_555
Na39 O137 2.439162 1_555
Na39 O125 2.547786 1_555
Na39 O135 2.754399 1_555
Na40 O138 2.332664 1_555
Na40 O130 2.377347 1_555
Na40 O140 2.418858 1_555
Na40 O126 2.449682 1_555
Na40 O128 2.545500 1_555
Na40 O142 2.707819 1_555
Na41 O141 2.406556 1_555
Na41 O127 2.483116 1_555
Na41 O139 2.503346 1_555
Na41 O129 2.556867 1_555
Na41 O143 2.557753 1_555
Na41 O131 2.661732 1_555
Ca0 O0 2.200592 1_555
Ca0 O76 2.216961 1_555
Ca0 O5 2.264286 1_455
Ca0 O3 2.305340 1_445
Ca0 O72 2.355560 1_545
Ca0 O75 2.541326 1_445
Ca1 O1 2.127968 1_555
Ca1 O4 2.289303 1_555
Ca1 O77 2.327597 1_555
Ca1 O74 2.378129 1_545
Ca1 O2 2.411349 1_545
Ca1 O73 2.451945 1_545
Ca2 O6 2.121922 1_565
Ca2 O9 2.287448 1_455
Ca2 O80 2.354532 1_555
Ca2 O83 2.378964 1_455
Ca2 O11 2.395697 1_465
Ca2 O78 2.478437 1_565
Ca3 O8 2.162927 1_545
Ca3 O7 2.237296 1_555
Ca3 O81 2.273875 1_545
Ca3 O10 2.328353 1_555
Ca3 O79 2.452668 1_555
Ca3 O82 2.655470 1_545
Ca4 O98 2.212137 1_555
Ca4 O100 2.234867 1_555
Ca4 O26 2.261320 1_555
Ca4 O28 2.285164 1_555
Ca4 O24 2.342266 1_555
Ca4 O96 2.344193 1_555
Ca5 O35 2.190338 1_555
Ca5 O107 2.192544 1_555
Ca5 O33 2.281834 1_555
Ca5 O31 2.359994 1_555
Ca5 O103 2.369819 1_555
Ca5 O105 2.428519 1_555
Ca6 O36 2.227984 1_556
Ca6 O38 2.230770 1_556
Ca6 O112 2.264116 1_555
Ca6 O40 2.360387 1_556
Ca6 O108 2.370856 1_555
Ca6 O110 2.549182 1_555
Ca7 O37 2.149359 1_556
Ca7 O113 2.238954 1_555
Ca7 O111 2.299233 1_555
Ca7 O41 2.326052 1_556
Ca7 O109 2.417932 1_555
Ca7 O39 2.502039 1_556
Ca8 O42 2.158828 1_555
Ca8 O44 2.287594 1_555
Ca8 O116 2.299468 1_555
Ca8 O118 2.342871 1_555
Ca8 O114 2.424851 1_555
Ca8 O46 2.434013 1_555
Ca9 O43 2.205833 1_555
Ca9 O47 2.211425 1_555
Ca9 O117 2.263341 1_555
Ca9 O45 2.354571 1_555
Ca9 O115 2.424745 1_555
Ca9 O119 2.640876 1_555
Ca10 O65 2.135732 1_555
Ca10 O61 2.250421 1_555
Ca10 O133 2.258060 1_555
Ca10 O63 2.275545 1_555
Ca10 O137 2.452756 1_555
Ca10 O135 2.480939 1_555
Ca11 O68 2.136262 1_555
Ca11 O138 2.241121 1_555
Ca11 O70 2.259847 1_555
Ca11 O66 2.262733 1_555
Ca11 O142 2.441993 1_555
Ca11 O140 2.443288 1_555
Al0 O14 1.758519 1_555
Al0 O86 1.777605 1_545
Al0 O85 1.822980 1_455
Al0 O16 1.951082 1_445
Al0 O89 2.243713 1_445
Al0 O13 2.359477 1_445
Al1 O17 1.724740 1_545
Al1 O15 1.771496 1_555
Al1 O87 1.781526 1_555
Al1 O12 2.130808 1_555
Al2 O94 1.772820 1_555
Al2 O22 1.794685 1_545
Al2 O20 1.959299 1_555
Al2 O19 1.988046 1_445
Al2 O91 2.066447 1_545
Al2 O93 2.299137 1_445
Al3 O95 1.768868 1_555
Al3 O23 1.771582 1_555
Al3 O90 1.813339 1_545
Al3 O21 1.988911 1_555
Al3 O92 2.169920 1_545
Al3 O18 2.454795 1_545
Al4 O99 1.816776 1_555
Al4 O27 1.824308 1_555
Al4 O25 1.827207 1_555
Al4 O29 2.044268 1_555
Al4 O97 2.147278 1_555
Al4 O101 2.335732 1_555
Al5 O34 1.825905 1_555
Al5 O30 1.831222 1_555
Al5 O106 1.845481 1_555
Al5 O32 1.944848 1_555
Al5 O104 2.296688 1_555
Al5 O102 2.303303 1_555
Al6 O52 1.778692 1_554
Al6 O120 1.841070 1_555
Al6 O50 1.874025 1_554
Al6 O48 1.925406 1_554
Al6 O122 2.147337 1_555
Al6 O124 2.439761 1_555
Al7 O53 1.762038 1_554
Al7 O121 1.763349 1_555
Al7 O123 1.816187 1_555
Al7 O51 1.856648 1_554
Al7 O125 2.519805 1_555
Al8 O126 1.764468 1_555
Al8 O56 1.769353 1_555
Al8 O130 1.817260 1_555
Al8 O58 1.946474 1_555
Al8 O128 2.191529 1_555
Al8 O54 2.496793 1_555
Al9 O57 1.783193 1_555
Al9 O127 1.835891 1_555
Al9 O59 1.927943 1_555
Al9 O131 1.980058 1_555
Al9 O55 2.055446 1_555
Al9 O129 2.291701 1_555
Al10 O64 1.777488 1_555
Al10 O62 1.836308 1_555
Al10 O132 1.844072 1_555
Al10 O60 2.034458 1_555
Al10 O134 2.041022 1_555
Al11 O69 1.805295 1_555
Al11 O141 1.851528 1_555
Al11 O139 1.875385 1_555
Al11 O67 2.040068 1_555
Al11 O71 2.103966 1_555
Al11 O143 2.126864 1_555
O0 Si0 1.633207 1_555
O1 Si1 1.628263 1_555
O2 S0 1.478530 1_555
O3 S1 1.477155 1_555
O4 S3 1.489250 1_555
O5 S2 1.487094 1_655
O6 Si2 1.630037 1_555
O7 Si3 1.635018 1_555
O8 Si4 1.618365 1_555
O9 S4 1.487642 1_555
O10 S5 1.481170 1_545
O11 S6 1.482421 1_555
O12 S5 1.512954 1_545
O13 S6 1.470408 1_565
O14 Si2 1.654342 1_555
O15 Si3 1.673326 1_555
O16 S4 1.476347 1_555
O17 Si4 1.660302 1_555
O18 S0 1.459404 1_555
O19 S1 1.509103 1_555
O20 S2 1.490194 1_555
O21 S3 1.470475 1_555
O22 Si0 1.665316 1_565
O23 Si1 1.648843 1_555
O24 S7 1.463403 1_555
O25 Si5 1.651690 1_555
O26 Si6 1.639025 1_545
O27 Si7 1.660239 1_555
O28 S8 1.477532 1_555
O29 S9 1.484182 1_555
O30 Si8 1.660763 1_555
O31 S10 1.470609 1_555
O32 S11 1.495072 1_555
O33 S12 1.480210 1_555
O34 Si9 1.662017 1_555
O35 Si10 1.645372 1_555
O36 Si9 1.620436 1_555
O37 Si10 1.638519 1_555
O38 Si8 1.615813 1_555
O39 S10 1.479026 1_555
O40 S11 1.485833 1_555
O41 S12 1.480192 1_555
O42 Si6 1.645473 1_545
O43 Si7 1.618602 1_555
O44 S8 1.487079 1_555
O45 S9 1.493255 1_555
O46 S7 1.484745 1_555
O47 Si5 1.616807 1_555
O48 S13 1.515650 1_555
O49 S14 1.467511 1_555
O50 S15 1.505631 1_555
O51 S16 1.478048 1_555
O52 Si11 1.687478 1_555
O53 Si12 1.660273 1_555
O54 S17 1.449101 1_555
O55 S18 1.498229 1_555
O56 Si13 1.641925 1_555
O57 Si14 1.671813 1_555
O58 S19 1.471600 1_555
O59 S20 1.491792 1_555
O60 S19 1.504556 1_555
O61 S20 1.467646 1_555
O62 S17 1.509456 1_555
O63 S18 1.481527 1_555
O64 Si13 1.666072 1_555
O65 Si14 1.632273 1_555
O66 S15 1.462343 1_555
O67 S16 1.486553 1_555
O68 Si11 1.622901 1_555
O69 Si12 1.644803 1_555
O70 S13 1.470689 1_555
O71 S14 1.481641 1_555
O72 S19 1.490749 1_555
O73 S20 1.490068 1_555
O74 S17 1.488187 1_555
O75 S18 1.494903 1_555
O76 Si13 1.649628 1_555
O77 Si14 1.658152 1_555
O78 S15 1.482944 1_555
O79 S16 1.487971 1_555
O80 Si11 1.661471 1_555
O81 Si12 1.645081 1_555
O82 S13 1.483429 1_555
O83 S14 1.503690 1_555
O84 S7 1.489919 1_555
O85 Si5 1.663837 1_555
O86 Si6 1.644262 1_555
O87 Si7 1.658317 1_555
O88 S8 1.477955 1_555
O89 S9 1.477653 1_555
O90 Si8 1.666407 1_555
O91 S10 1.515275 1_455
O92 S11 1.474903 1_565
O93 S12 1.506457 1_565
O94 Si9 1.654410 1_555
O95 Si10 1.639761 1_555
O96 S5 1.477900 1_545
O97 S6 1.520349 1_555
O98 Si2 1.637611 1_555
O99 Si3 1.652627 1_555
O100 Si4 1.617544 1_555
O101 S4 1.480405 1_555
O102 S0 1.514939 1_555
O103 S1 1.481460 1_555
O104 S3 1.486332 1_555
O105 S2 1.474929 1_655
O106 Si0 1.650396 1_555
O107 Si1 1.653512 1_555
O108 S13 1.478462 1_555
O109 S14 1.512931 1_555
O110 S16 1.485610 1_555
O111 S15 1.478700 1_655
O112 Si11 1.649366 1_545
O113 Si12 1.656948 1_545
O114 S17 1.498879 1_545
O115 S18 1.482445 1_545
O116 Si13 1.650182 1_555
O117 Si14 1.649214 1_555
O118 S20 1.486498 1_555
O119 S19 1.484136 1_655
O120 Si9 1.675384 1_555
O121 Si10 1.643310 1_555
O122 S10 1.497305 1_455
O123 Si8 1.652600 1_555
O124 S11 1.500668 1_565
O125 S12 1.486578 1_565
O126 Si6 1.643151 1_555
O127 Si7 1.666134 1_565
O128 S8 1.508062 1_555
O129 S9 1.509542 1_555
O130 Si5 1.654374 1_455
O131 S7 1.514833 1_555
O132 Si0 1.685866 1_565
O133 Si1 1.645765 1_565
O134 S0 1.522749 1_555
O135 S1 1.482513 1_555
O136 S2 1.496538 1_555
O137 S3 1.509077 1_555
O138 Si2 1.641527 1_555
O139 Si3 1.653159 1_555
O140 S4 1.506449 1_455
O141 Si4 1.671767 1_555
O142 S5 1.485011 1_555
O143 S6 1.496021 1_565
