# generated using pymatgen
data_MgCo(WO4)2
_symmetry_space_group_name_H-M   'P 1'
_cell_length_a   4.97480690
_cell_length_b   6.38499570
_cell_length_c   6.21363197
_cell_angle_alpha   89.94629584
_cell_angle_beta   89.67433185
_cell_angle_gamma   129.06445574
_symmetry_Int_Tables_number   1
_chemical_formula_structural   MgCo(WO4)2
_chemical_formula_sum   'Mg1 Co1 W2 O8'
_cell_volume   153.24083044
_cell_formula_units_Z   1
loop_
 _symmetry_equiv_pos_site_id
 _symmetry_equiv_pos_as_xyz
  1  'x, y, z'
loop_
 _atom_site_type_symbol
 _atom_site_label
 _atom_site_symmetry_multiplicity
 _atom_site_fract_x
 _atom_site_fract_y
 _atom_site_fract_z
 _atom_site_occupancy
  Mg  Mg0  1  0.25755778  0.01756031  0.65950508  1
  Co  Co0  1  0.56346336  0.91539672  0.12578807  1
  W  W0  1  0.25905987  0.51051889  0.66022771  1
  W  W1  1  0.75058637  0.51433597  0.31975399  1
  O  O0  1  0.74901001  0.72886658  0.58536140  1
  O  O1  1  0.24991449  0.74741220  0.39405825  1
  O  O2  1  0.32285984  0.77529656  0.83919117  1
  O  O3  1  0.20643525  0.26722167  0.84039791  1
  O  O4  1  0.27462522  0.29148621  0.41332867  1
  O  O5  1  0.77884922  0.31350350  0.58844877  1
  O  O6  1  0.77796307  0.74697725  0.13385269  1
  O  O7  1  0.72217953  0.27857114  0.13800128  1
loop_
_geom_bond_atom_site_label_1
_geom_bond_atom_site_label_2
_geom_bond_distance
_geom_bond_site_symmetry_2
Mg0 O0 2.036581 1_445
Mg0 O5 2.073629 1_555
Mg0 O2 2.092636 1_545
Mg0 O3 2.092908 1_555
Mg0 O4 2.283074 1_555
Mg0 O1 2.370774 1_545
Co0 O7 1.923451 1_565
Co0 O6 1.935048 1_555
Co0 O2 2.020364 1_554
Co0 O1 2.054408 1_555
O0 W0 1.950376 1_555
O0 W1 2.148897 1_555
O1 W1 1.988319 1_455
O1 W0 2.260118 1_555
O2 W0 1.877947 1_555
O3 W0 1.793287 1_555
O4 W1 1.924995 1_555
O4 W0 2.110595 1_555
O5 W0 1.927157 1_655
O5 W1 2.162744 1_555
O6 W1 1.816404 1_555
O7 W1 1.816140 1_555
