# generated using pymatgen
data_MgFe12(OF)12
_symmetry_space_group_name_H-M   'P 1'
_cell_length_a   9.59866987
_cell_length_b   14.68127287
_cell_length_c   3.09906200
_cell_angle_alpha   90.00000000
_cell_angle_beta   90.00000000
_cell_angle_gamma   87.10232686
_symmetry_Int_Tables_number   1
_chemical_formula_structural   MgFe12(OF)12
_chemical_formula_sum   'Mg1 Fe12 O12 F12'
_cell_volume   436.16357212
_cell_formula_units_Z   1
loop_
 _symmetry_equiv_pos_site_id
 _symmetry_equiv_pos_as_xyz
  1  'x, y, z'
loop_
 _atom_site_type_symbol
 _atom_site_label
 _atom_site_symmetry_multiplicity
 _atom_site_fract_x
 _atom_site_fract_y
 _atom_site_fract_z
 _atom_site_occupancy
  Mg  Mg0  1  0.10657200  0.06439900  0.50000000  1
  Fe  Fe0  1  0.94141200  0.96760800  0.00000000  1
  Fe  Fe1  1  0.02018700  0.33286600  0.00000000  1
  Fe  Fe2  1  0.00375900  0.67145400  0.00000000  1
  Fe  Fe3  1  0.27824200  0.19390300  0.50000000  1
  Fe  Fe4  1  0.24272500  0.48358900  0.50000000  1
  Fe  Fe5  1  0.25532900  0.85503400  0.50000000  1
  Fe  Fe6  1  0.52018300  0.35848700  0.00000000  1
  Fe  Fe7  1  0.51470100  0.99451900  0.00000000  1
  Fe  Fe8  1  0.49585800  0.65589100  0.00000000  1
  Fe  Fe9  1  0.74577800  0.14999500  0.50000000  1
  Fe  Fe10  1  0.73626400  0.50337000  0.50000000  1
  Fe  Fe11  1  0.69454700  0.81382900  0.50000000  1
  O  O0  1  0.11640500  0.27666300  0.50000000  1
  O  O1  1  0.08825900  0.93234900  0.50000000  1
  O  O2  1  0.19323500  0.12572100  0.00000000  1
  O  O3  1  0.14787900  0.43637800  0.00000000  1
  O  O4  1  0.35024100  0.90783300  0.00000000  1
  O  O5  1  0.41305500  0.40325500  0.50000000  1
  O  O6  1  0.60240000  0.93516000  0.50000000  1
  O  O7  1  0.58497200  0.59617700  0.50000000  1
  O  O8  1  0.64824600  0.10434400  0.00000000  1
  O  O9  1  0.67173500  0.43736500  0.00000000  1
  O  O10  1  0.61492600  0.75851600  0.00000000  1
  O  O11  1  0.90188700  0.06411100  0.50000000  1
  F  F0  1  0.10768800  0.60134900  0.50000000  1
  F  F1  1  0.15609000  0.77488800  0.00000000  1
  F  F2  1  0.38709900  0.24518900  0.00000000  1
  F  F3  1  0.33625700  0.56286600  0.00000000  1
  F  F4  1  0.41230600  0.07577500  0.50000000  1
  F  F5  1  0.37965400  0.72332000  0.50000000  1
  F  F6  1  0.61511400  0.27665600  0.50000000  1
  F  F7  1  0.86072000  0.23497800  0.00000000  1
  F  F8  1  0.81870100  0.86180700  0.00000000  1
  F  F9  1  0.84979100  0.56273500  0.00000000  1
  F  F10  1  0.90874100  0.39892400  0.50000000  1
  F  F11  1  0.87904300  0.72350800  0.50000000  1
loop_
_geom_bond_atom_site_label_1
_geom_bond_atom_site_label_2
_geom_bond_distance
_geom_bond_site_symmetry_2
Mg0 O1 1.955445 1_545
Mg0 O11 1.964922 1_455
Mg0 O2 1.994806 1_555
Mg0 O2 1.994806 1_556
Fe0 O11 2.120830 1_565
Fe0 O11 2.120830 1_564
Fe0 O1 2.140567 1_655
Fe0 O1 2.140567 1_654
Fe1 O0 1.964131 1_554
Fe1 O0 1.964131 1_555
Fe1 O3 2.000012 1_555
Fe3 O0 1.923165 1_555
Fe3 O2 2.037500 1_555
Fe3 O2 2.037500 1_556
Fe4 O3 1.942698 1_556
Fe4 O3 1.942698 1_555
Fe4 O5 1.966996 1_555
Fe5 O1 1.917307 1_555
Fe5 O4 1.975674 1_555
Fe5 O4 1.975674 1_556
Fe6 O9 1.904599 1_555
Fe6 O5 1.955011 1_554
Fe6 O5 1.955011 1_555
Fe7 O6 1.948062 1_554
Fe7 O6 1.948062 1_555
Fe7 O4 2.077199 1_555
Fe7 O8 2.109942 1_565
Fe8 O10 1.936581 1_555
Fe8 O7 1.955878 1_554
Fe8 O7 1.955878 1_555
Fe9 O11 1.908960 1_555
Fe9 O8 1.946818 1_555
Fe9 O8 1.946818 1_556
Fe10 O7 1.940441 1_555
Fe10 O9 1.945356 1_556
Fe10 O9 1.945356 1_555
Fe11 O10 1.925443 1_555
Fe11 O10 1.925443 1_556
Fe11 O6 1.948341 1_555
F0 Fe2 2.086078 1_556
F0 Fe2 2.086078 1_555
F0 Fe4 2.107720 1_555
F1 Fe2 2.160652 1_555
F1 Fe5 2.192313 1_555
F1 Fe5 2.192313 1_554
F2 Fe3 2.034525 1_555
F2 Fe3 2.034525 1_554
F2 Fe6 2.147887 1_555
F3 Fe8 2.103244 1_555
F3 Fe4 2.160403 1_554
F3 Fe4 2.160403 1_555
F4 Fe3 2.106656 1_555
F4 Fe7 2.161392 1_546
F4 Fe7 2.161392 1_545
F5 Fe8 2.124505 1_555
F5 Fe8 2.124505 1_556
F5 Fe5 2.220381 1_555
F6 Fe6 2.136350 1_555
F6 Fe6 2.136350 1_556
F6 Fe9 2.189777 1_555
F7 Fe1 2.151900 1_655
F7 Fe9 2.305238 1_555
F7 Fe9 2.305238 1_554
F8 Fe0 1.996261 1_555
F8 Fe11 2.098153 1_554
F8 Fe11 2.098153 1_555
F9 Fe10 2.108113 1_554
F9 Fe10 2.108113 1_555
F9 Fe2 2.229415 1_655
F10 Fe1 2.093090 1_655
F10 Fe1 2.093090 1_656
F10 Fe10 2.198976 1_555
F11 Fe2 2.079819 1_655
F11 Fe2 2.079819 1_656
F11 Fe11 2.158025 1_555
