# generated using pymatgen
data_MgMn(CoO3)2
_symmetry_space_group_name_H-M   'P 1'
_cell_length_a   6.64172943
_cell_length_b   2.92546078
_cell_length_c   5.93359932
_cell_angle_alpha   89.99999966
_cell_angle_beta   104.30121207
_cell_angle_gamma   77.27726155
_symmetry_Int_Tables_number   1
_chemical_formula_structural   MgMn(CoO3)2
_chemical_formula_sum   'Mg1 Mn1 Co2 O6'
_cell_volume   108.79412101
_cell_formula_units_Z   1
loop_
 _symmetry_equiv_pos_site_id
 _symmetry_equiv_pos_as_xyz
  1  'x, y, z'
loop_
 _atom_site_type_symbol
 _atom_site_label
 _atom_site_symmetry_multiplicity
 _atom_site_fract_x
 _atom_site_fract_y
 _atom_site_fract_z
 _atom_site_occupancy
  Mg  Mg0  1  0.99390400  0.00304800  0.50085700  1
  Mn  Mn0  1  0.33712600  0.33143700  0.32452300  1
  Co  Co0  1  0.00519600  0.99740100  0.99075500  1
  Co  Co1  1  0.65605400  0.67197300  0.68745200  1
  O  O0  1  0.02602300  0.48698900  0.25008400  1
  O  O1  1  0.32749100  0.83625500  0.53645700  1
  O  O2  1  0.70760400  0.14619800  0.90250200  1
  O  O3  1  0.31028300  0.84485800  0.10222200  1
  O  O4  1  0.64456300  0.17771900  0.46063400  1
  O  O5  1  0.99175600  0.50412200  0.74451200  1
loop_
_geom_bond_atom_site_label_1
_geom_bond_atom_site_label_2
_geom_bond_distance
_geom_bond_site_symmetry_2
Mg0 O5 2.059165 1_545
Mg0 O5 2.059165 1_555
Mg0 O1 2.117586 1_645
Mg0 O0 2.133964 1_645
Mg0 O0 2.133966 1_655
Mg0 O4 2.214888 1_555
Mn0 O1 1.940261 1_545
Mn0 O1 1.940264 1_555
Mn0 O3 1.947696 1_555
Mn0 O3 1.947698 1_545
Mn0 O4 1.950570 1_555
Mn0 O0 1.951042 1_555
Co0 O2 1.865488 1_465
Co0 O3 1.918881 1_556
Co0 O5 2.053668 1_455
Co0 O5 2.053672 1_465
Co0 O0 2.102470 1_556
Co0 O0 2.102476 1_566
Co1 O2 1.914030 1_555
Co1 O2 1.914030 1_565
Co1 O4 1.976279 1_555
Co1 O4 1.976281 1_565
Co1 O1 2.089960 1_555
Co1 O5 2.114679 1_555
