# generated using pymatgen
data_MnAs2F12
_symmetry_space_group_name_H-M   'P 1'
_cell_length_a   9.25468626
_cell_length_b   9.25452117
_cell_length_c   9.25487161
_cell_angle_alpha   132.56582358
_cell_angle_beta   132.56685170
_cell_angle_gamma   69.33577217
_symmetry_Int_Tables_number   1
_chemical_formula_structural   MnAs2F12
_chemical_formula_sum   'Mn2 As4 F24'
_cell_volume   421.87394015
_cell_formula_units_Z   2
loop_
 _symmetry_equiv_pos_site_id
 _symmetry_equiv_pos_as_xyz
  1  'x, y, z'
loop_
 _atom_site_type_symbol
 _atom_site_label
 _atom_site_symmetry_multiplicity
 _atom_site_fract_x
 _atom_site_fract_y
 _atom_site_fract_z
 _atom_site_occupancy
  Mn  Mn0  1  0.74997492  0.24994891  0.49992120  1
  Mn  Mn1  1  0.00001774  0.00004077  0.00005759  1
  As  As0  1  0.78093928  0.78091703  -0.00002139  1
  As  As1  1  0.21903933  0.21909066  0.00002394  1
  As  As2  1  0.96903432  0.46909646  0.49997911  1
  As  As3  1  0.53095287  0.03092757  0.50001180  1
  F  F0  1  0.86739972  0.75190763  0.20832167  1
  F  F1  1  0.54360524  0.65903299  0.79165928  1
  F  F2  1  0.40908599  0.79359285  0.29169803  1
  F  F3  1  0.34096806  0.13264499  0.88458582  1
  F  F4  1  0.24804377  0.45642570  0.11545561  1
  F  F5  1  0.20636523  0.49807124  0.61543138  1
  F  F6  1  0.65985801  0.26982843  0.69488638  1
  F  F7  1  0.73012774  0.42507046  0.38998856  1
  F  F8  1  0.03501888  0.34014332  0.60997418  1
  F  F9  1  0.09013624  0.28506989  0.11000760  1
  F  F10  1  0.17504591  0.98015512  0.89001645  1
  F  F11  1  0.57495661  0.96492467  0.30508911  1
  F  F12  1  0.71494550  0.82495012  0.80508205  1
  F  F13  1  0.01986941  0.90983894  0.19489409  1
  F  F14  1  0.30423077  0.10024967  0.33652337  1
  F  F15  1  0.89970864  0.23626596  0.20393875  1
  F  F16  1  0.03231067  0.69580089  0.79607725  1
  F  F17  1  0.44578353  0.28233973  0.29608652  1
  F  F18  1  0.98625373  0.14973759  0.70396239  1
  F  F19  1  0.76378619  0.96766839  0.66348837  1
  F  F20  1  0.71769546  0.01373102  0.16345836  1
  F  F21  1  0.85027384  0.55419410  0.83650135  1
  F  F22  1  0.50195748  0.11735460  0.70831920  1
  F  F23  1  0.88261394  0.59098030  0.38458199  1
loop_
_geom_bond_atom_site_label_1
_geom_bond_atom_site_label_2
_geom_bond_distance
_geom_bond_site_symmetry_2
As0 F1 1.700351 1_554
As0 F0 1.700474 1_555
As0 F13 1.766598 1_655
As0 F12 1.766609 1_554
As0 F21 1.780943 1_554
As0 F20 1.780948 1_565
As1 F4 1.700383 1_555
As1 F3 1.700672 1_554
As1 F9 1.766334 1_555
As1 F10 1.766576 1_544
As1 F18 1.780859 1_454
As1 F17 1.781024 1_555
As2 F23 1.700008 1_555
As2 F5 1.700249 1_655
As2 F7 1.766496 1_555
As2 F8 1.766805 1_655
As2 F15 1.780969 1_555
As2 F16 1.781045 1_655
As3 F22 1.700205 1_555
As3 F2 1.700303 1_545
As3 F6 1.766413 1_555
As3 F11 1.766609 1_545
As3 F14 1.780891 1_555
As3 F19 1.781085 1_545
F6 Mn0 2.337459 1_555
F7 Mn0 2.337356 1_555
F8 Mn0 2.337092 1_455
F9 Mn1 2.337151 1_555
F10 Mn1 2.337257 1_566
F11 Mn0 2.337130 1_565
F12 Mn1 2.337291 1_666
F13 Mn1 2.337107 1_565
F14 Mn1 2.134993 1_555
F15 Mn1 2.135001 1_655
F16 Mn1 2.135224 1_566
F17 Mn0 2.135048 1_555
F18 Mn0 2.135210 1_555
F19 Mn1 2.135101 1_666
F20 Mn0 2.134877 1_555
F21 Mn0 2.135365 1_555
