# generated using pymatgen
data_InAgS2
_symmetry_space_group_name_H-M   'P 1'
_cell_length_a   6.75210035
_cell_length_b   7.06196916
_cell_length_c   8.26838009
_cell_angle_alpha   90.00000000
_cell_angle_beta   90.00000000
_cell_angle_gamma   90.00000000
_symmetry_Int_Tables_number   1
_chemical_formula_structural   InAgS2
_chemical_formula_sum   'In4 Ag4 S8'
_cell_volume   394.26219672
_cell_formula_units_Z   4
loop_
 _symmetry_equiv_pos_site_id
 _symmetry_equiv_pos_as_xyz
  1  'x, y, z'
loop_
 _atom_site_type_symbol
 _atom_site_label
 _atom_site_symmetry_multiplicity
 _atom_site_fract_x
 _atom_site_fract_y
 _atom_site_fract_z
 _atom_site_occupancy
  In  In0  1  0.61417617  0.07657420  0.12656045  1
  In  In1  1  0.11417617  0.92342580  0.87343955  1
  In  In2  1  0.11417617  0.42342580  0.62656045  1
  In  In3  1  0.61417617  0.57657420  0.37343955  1
  Ag  Ag0  1  0.12084974  0.91342741  0.37276619  1
  Ag  Ag1  1  0.62084974  0.58657259  0.87276619  1
  Ag  Ag2  1  0.62084974  0.08657259  0.62723381  1
  Ag  Ag3  1  0.12084974  0.41342741  0.12723381  1
  S  S0  1  0.98204754  0.57528036  0.37956859  1
  S  S1  1  0.48204754  0.42471964  0.62043141  1
  S  S2  1  0.48204754  0.92471964  0.87956859  1
  S  S3  1  0.98204754  0.07528036  0.12043141  1
  S  S4  1  0.99792756  0.59017616  0.87291582  1
  S  S5  1  0.99792756  0.09017616  0.62708418  1
  S  S6  1  0.49792756  0.90982384  0.37291582  1
  S  S7  1  0.49792756  0.40982384  0.12708418  1
loop_
_geom_bond_atom_site_label_1
_geom_bond_atom_site_label_2
_geom_bond_distance
_geom_bond_site_symmetry_2
In0 S2 2.473181 1_544
In0 S6 2.480326 1_545
In0 S7 2.480848 1_555
In0 S3 2.484438 1_555
In1 S3 2.473181 1_466
In1 S5 2.480326 1_465
In1 S4 2.480848 1_455
In1 S2 2.484438 1_555
In2 S0 2.473181 1_455
In2 S4 2.480326 1_455
In2 S5 2.480848 1_455
In2 S1 2.484438 1_555
In3 S1 2.473181 1_555
In3 S7 2.480326 1_555
In3 S6 2.480848 1_555
In3 S0 2.484438 1_555
Ag0 S6 2.546195 1_555
Ag0 S3 2.556926 1_465
Ag0 S0 2.565928 1_455
Ag0 S5 2.582367 1_465
Ag1 S4 2.546195 1_555
Ag1 S1 2.556926 1_555
Ag1 S2 2.565928 1_555
Ag1 S7 2.582367 1_556
Ag2 S5 2.546195 1_555
Ag2 S2 2.556926 1_545
Ag2 S1 2.565928 1_555
Ag2 S6 2.582367 1_545
Ag3 S7 2.546195 1_555
Ag3 S0 2.556926 1_455
Ag3 S3 2.565928 1_455
Ag3 S4 2.582367 1_454
