# generated using pymatgen
data_MgMn2O4
_symmetry_space_group_name_H-M   'P 1'
_cell_length_a   4.08377000
_cell_length_b   6.34190700
_cell_length_c   3.00682600
_cell_angle_alpha   90.00000000
_cell_angle_beta   90.00000000
_cell_angle_gamma   90.00000000
_symmetry_Int_Tables_number   1
_chemical_formula_structural   MgMn2O4
_chemical_formula_sum   'Mg1 Mn2 O4'
_cell_volume   77.87345447
_cell_formula_units_Z   1
loop_
 _symmetry_equiv_pos_site_id
 _symmetry_equiv_pos_as_xyz
  1  'x, y, z'
loop_
 _atom_site_type_symbol
 _atom_site_label
 _atom_site_symmetry_multiplicity
 _atom_site_fract_x
 _atom_site_fract_y
 _atom_site_fract_z
 _atom_site_occupancy
  Mg  Mg0  1  0.75000000  0.91374400  0.75000000  1
  Mn  Mn0  1  0.25000000  0.63603000  0.25000000  1
  Mn  Mn1  1  0.75000000  0.35220500  0.75000000  1
  O  O0  1  0.25000000  0.42645300  0.75000000  1
  O  O1  1  0.25000000  0.83272000  0.75000000  1
  O  O2  1  0.75000000  0.13129200  0.25000000  1
  O  O3  1  0.75000000  0.63463900  0.25000000  1
loop_
_geom_bond_atom_site_label_1
_geom_bond_atom_site_label_2
_geom_bond_distance
_geom_bond_site_symmetry_2
Mg0 O2 2.040524 1_566
Mg0 O2 2.040524 1_565
Mg0 O1 2.105548 1_555
Mg0 O1 2.105548 1_655
Mg0 O3 2.322360 1_556
Mg0 O3 2.322360 1_555
Mn0 O1 1.953518 1_555
Mn0 O1 1.953518 1_554
Mn0 O0 2.006690 1_555
Mn0 O0 2.006690 1_554
Mn0 O3 2.041904 1_455
Mn0 O3 2.041904 1_555
Mn1 O2 2.055013 1_555
Mn1 O2 2.055013 1_556
Mn1 O0 2.095475 1_555
Mn1 O0 2.095475 1_655
Mn1 O3 2.338491 1_556
Mn1 O3 2.338491 1_555
