# generated using pymatgen
data_Na3Zr3ScSi3(SO8)3
_symmetry_space_group_name_H-M   'P 1'
_cell_length_a   9.08524280
_cell_length_b   9.09569874
_cell_length_c   23.09942384
_cell_angle_alpha   89.98275267
_cell_angle_beta   90.04248552
_cell_angle_gamma   120.20918148
_symmetry_Int_Tables_number   1
_chemical_formula_structural   Na3Zr3ScSi3(SO8)3
_chemical_formula_sum   'Na9 Zr9 Sc3 Si9 S9 O72'
_cell_volume   1649.62401852
_cell_formula_units_Z   3
loop_
 _symmetry_equiv_pos_site_id
 _symmetry_equiv_pos_as_xyz
  1  'x, y, z'
loop_
 _atom_site_type_symbol
 _atom_site_label
 _atom_site_symmetry_multiplicity
 _atom_site_fract_x
 _atom_site_fract_y
 _atom_site_fract_z
 _atom_site_occupancy
  Na  Na0  1  0.35321060  0.35768443  0.23729925  1
  Na  Na1  1  0.63835288  0.62566107  0.75516981  1
  Na  Na2  1  0.97255540  0.29280634  0.41652484  1
  Na  Na3  1  0.99178010  0.00729993  0.49604507  1
  Na  Na4  1  0.99348206  0.97691896  0.00358190  1
  Na  Na5  1  0.65881079  0.33944338  0.82968159  1
  Na  Na6  1  0.66713857  0.31177338  0.32788256  1
  Na  Na7  1  0.29084605  0.64916999  0.16304957  1
  Na  Na8  1  0.27681988  0.63561770  0.66684721  1
  Zr  Zr0  1  0.00638891  0.99230053  0.85263438  1
  Zr  Zr1  1  0.01527419  0.01667325  0.64650082  1
  Zr  Zr2  1  0.00779880  0.01128941  0.14435986  1
  Zr  Zr3  1  0.66489737  0.35577541  0.98177502  1
  Zr  Zr4  1  0.66247926  0.32061572  0.47870243  1
  Zr  Zr5  1  0.34128119  0.66002814  0.02416902  1
  Zr  Zr6  1  0.33498299  0.65532237  0.51899741  1
  Zr  Zr7  1  0.34046656  0.66470735  0.31445939  1
  Zr  Zr8  1  0.32647069  0.65542111  0.81162615  1
  Sc  Sc0  1  0.99371721  0.01183363  0.35441912  1
  Sc  Sc1  1  0.68161657  0.33956025  0.68758761  1
  Sc  Sc2  1  0.69007118  0.34869591  0.18306470  1
  Si  Si0  1  0.99306324  0.29559332  0.25311506  1
  Si  Si1  1  0.29939583  0.29234390  0.75079465  1
  Si  Si2  1  0.00357660  0.70988328  0.74715816  1
  Si  Si3  1  0.96067569  0.33356689  0.58271215  1
  Si  Si4  1  0.96399990  0.63307015  0.08359384  1
  Si  Si5  1  0.38028095  0.33574014  0.08904095  1
  Si  Si6  1  0.63073009  0.67315599  0.91442346  1
  Si  Si7  1  0.62624115  0.95550152  0.41740627  1
  Si  Si8  1  0.33627212  0.36932766  0.41468135  1
  S  S0  1  0.28742107  0.99672515  0.25125819  1
  S  S1  1  0.71013091  0.70804929  0.25094330  1
  S  S2  1  0.71120894  0.00166943  0.75064626  1
  S  S3  1  0.37529411  0.03922762  0.58455893  1
  S  S4  1  0.66887953  0.62498134  0.58487121  1
  S  S5  1  0.66727582  0.04813885  0.08232088  1
  S  S6  1  0.03808562  0.37099492  0.91767321  1
  S  S7  1  0.33953513  0.95834996  0.91694258  1
  S  S8  1  0.04416341  0.66926370  0.41707402  1
  O  O0  1  0.19606905  0.00937414  0.30192900  1
  O  O1  1  0.80772626  0.79044326  0.30331179  1
  O  O2  1  0.98069297  0.19454519  0.31323085  1
  O  O3  1  0.19824103  0.18119372  0.80777993  1
  O  O4  1  0.96899184  0.79963502  0.80418421  1
  O  O5  1  0.81417723  0.02370195  0.80314975  1
  O  O6  1  0.79162244  0.97487584  0.69859821  1
  O  O7  1  0.18003002  0.20747044  0.69307428  1
  O  O8  1  0.01957480  0.82619811  0.69109474  1
  O  O9  1  0.79330311  0.80437115  0.19828378  1
  O  O10  1  0.02381109  0.19228600  0.19950616  1
  O  O11  1  0.18733682  0.97612887  0.19707345  1
  O  O12  1  0.86015901  0.34879035  0.63830969  1
  O  O13  1  0.47238871  0.12530227  0.63632848  1
  O  O14  1  0.64645209  0.52979107  0.63909213  1
  O  O15  1  0.88273910  0.51323150  0.13992398  1
  O  O16  1  0.64506160  0.12649347  0.13455872  1
  O  O17  1  0.48047100  0.35240619  0.14841537  1
  O  O18  1  0.47306486  0.31149517  0.03161227  1
  O  O19  1  0.84898563  0.53946502  0.02549628  1
  O  O20  1  0.69119392  0.14751538  0.02947457  1
  O  O21  1  0.45869122  0.14227927  0.53122811  1
  O  O22  1  0.68114617  0.53310197  0.53404460  1
  O  O23  1  0.85509875  0.31926900  0.52271226  1
  O  O24  1  0.52431281  0.68544483  0.96941634  1
  O  O25  1  0.14032608  0.45983871  0.96958155  1
  O  O26  1  0.31558105  0.85625703  0.96933389  1
  O  O27  1  0.52539914  0.84711979  0.47478928  1
  O  O28  1  0.29756658  0.46489834  0.46878644  1
  O  O29  1  0.14528421  0.69133353  0.47006190  1
  O  O30  1  0.12522147  0.63747901  0.36575604  1
  O  O31  1  0.50864087  0.86701872  0.36005578  1
  O  O32  1  0.35657809  0.48231991  0.35618863  1
  O  O33  1  0.12106110  0.47784155  0.86471863  1
  O  O34  1  0.34742523  0.87029470  0.86440883  1
  O  O35  1  0.52307948  0.65606163  0.85494348  1
  O  O36  1  0.02331974  0.81669314  0.40960355  1
  O  O37  1  0.81484715  0.97588444  0.41450914  1
  O  O38  1  0.16755970  0.18118919  0.41162196  1
  O  O39  1  0.02929946  0.20526604  0.91305345  1
  O  O40  1  0.18583106  0.98175572  0.91326114  1
  O  O41  1  0.82045899  0.84471614  0.91314296  1
  O  O42  1  0.97680390  0.16047973  0.58572215  1
  O  O43  1  0.20123646  0.02139426  0.58540609  1
  O  O44  1  0.82187820  0.79683247  0.58636363  1
  O  O45  1  0.97035193  0.81533388  0.09029620  1
  O  O46  1  0.81979327  0.02537162  0.08820110  1
  O  O47  1  0.18534264  0.16934312  0.08956031  1
  O  O48  1  0.68774054  0.14973240  0.74549450  1
  O  O49  1  0.48810719  0.31716939  0.74553853  1
  O  O50  1  0.83236975  0.52237353  0.74442733  1
  O  O51  1  0.67778706  0.53019887  0.24868059  1
  O  O52  1  0.82413506  0.31221538  0.24698935  1
  O  O53  1  0.45589021  0.15561616  0.24830246  1
  O  O54  1  0.64579066  0.49930435  0.91805576  1
  O  O55  1  0.86479347  0.34658363  0.92074980  1
  O  O56  1  0.49603354  0.12703602  0.91980991  1
  O  O57  1  0.65694654  0.15205362  0.42078855  1
  O  O58  1  0.51102136  0.36438549  0.42405635  1
  O  O59  1  0.87318728  0.50919275  0.42179399  1
  O  O60  1  0.36000464  0.50532831  0.08071348  1
  O  O61  1  0.15625300  0.66341023  0.07391062  1
  O  O62  1  0.51323533  0.87476539  0.07735671  1
  O  O63  1  0.35580594  0.86862990  0.58003806  1
  O  O64  1  0.51308948  0.64362043  0.57934939  1
  O  O65  1  0.15126181  0.50582445  0.57953757  1
  O  O66  1  0.30872979  0.84521275  0.25463933  1
  O  O67  1  0.53494466  0.69333440  0.25281614  1
  O  O68  1  0.17290063  0.48462433  0.25341275  1
  O  O69  1  0.32190079  0.48582916  0.75490533  1
  O  O70  1  0.17648738  0.69886932  0.75526564  1
  O  O71  1  0.54071823  0.84234351  0.75524763  1
loop_
_geom_bond_atom_site_label_1
_geom_bond_atom_site_label_2
_geom_bond_distance
_geom_bond_site_symmetry_2
Na0 O17 2.369391 1_555
Na0 O53 2.457169 1_555
Na0 O68 2.461660 1_555
Na0 O51 2.563156 1_555
Na0 O67 2.665036 1_555
Na0 O10 2.729055 1_555
Na0 O32 2.965632 1_555
Na1 O50 2.391341 1_555
Na1 O49 2.435503 1_555
Na1 O69 2.490736 1_555
Na1 O71 2.535839 1_555
Na1 O35 2.603912 1_555
Na1 O14 2.832242 1_555
Na1 O4 2.832329 1_555
Na2 O38 2.447999 1_655
Na2 O57 2.485320 1_555
Na2 O37 2.491642 1_545
Na2 O59 2.547933 1_555
Na2 O2 2.562313 1_555
Na2 O23 2.734220 1_555
Na2 O28 2.823334 1_655
Na2 O30 2.958372 1_655
Na3 O37 2.397199 1_545
Na3 O38 2.513149 1_655
Na3 O42 2.538450 1_555
Na3 O44 2.725587 1_545
Na3 O36 2.752761 1_645
Na3 O43 2.765395 1_655
Na4 O45 2.429922 1_555
Na4 O41 2.525024 1_554
Na4 O47 2.640638 1_665
Na4 O46 2.685131 1_565
Na4 O40 2.708634 1_654
Na4 O39 2.847966 1_664
Na5 O49 2.429745 1_555
Na5 O54 2.543769 1_555
Na5 O50 2.548631 1_555
Na5 O48 2.699546 1_555
Na5 O56 2.716789 1_555
Na5 O55 2.793480 1_555
Na6 O52 2.350380 1_555
Na6 O53 2.516585 1_555
Na6 O57 2.566667 1_555
Na6 O51 2.666133 1_555
Na6 O58 2.804359 1_555
Na6 O59 2.836948 1_555
Na7 O61 2.430484 1_555
Na7 O68 2.476439 1_555
Na7 O60 2.560147 1_555
Na7 O66 2.718875 1_555
Na7 O62 2.835915 1_555
Na7 O67 2.911420 1_555
Na8 O65 2.324928 1_555
Na8 O70 2.421688 1_555
Na8 O69 2.592322 1_555
Na8 O63 2.738049 1_555
Na8 O64 2.923560 1_555
Na8 O71 2.985315 1_555
O0 S0 1.472979 1_545
O0 Sc0 2.212491 1_455
O1 S1 1.463362 1_555
O1 Sc0 2.208688 1_565
O2 Si0 1.637443 1_555
O2 Sc0 1.969228 1_555
O3 Si1 1.632610 1_555
O3 Zr0 2.012847 1_545
O4 Si2 1.661250 1_655
O4 Zr0 1.959702 1_655
O5 S2 1.481889 1_555
O5 Zr0 2.221817 1_645
O6 S2 1.489719 1_565
O6 Zr1 2.224292 1_665
O7 Si1 1.644911 1_555
O7 Zr1 1.947901 1_555
O8 Si2 1.631636 1_555
O8 Zr1 2.032530 1_565
O9 S1 1.467215 1_555
O9 Zr2 2.280939 1_665
O10 Si0 1.661271 1_455
O10 Zr2 2.028325 1_555
O11 S0 1.501842 1_555
O11 Zr2 2.183431 1_565
O12 Si3 1.622218 1_555
O12 Sc1 1.949258 1_555
O13 S3 1.457792 1_555
O13 Sc1 2.254647 1_555
O14 S4 1.477174 1_555
O14 Sc1 2.214816 1_555
O15 Si4 1.617729 1_555
O15 Sc2 1.913713 1_555
O16 S5 1.466397 1_555
O16 Sc2 2.162506 1_555
O17 Si5 1.609971 1_555
O17 Sc2 2.080956 1_555
O18 Si5 1.645573 1_555
O18 Zr3 1.954821 1_554
O19 Si4 1.649582 1_555
O19 Zr3 1.948127 1_554
O20 S5 1.468495 1_555
O20 Zr3 2.305026 1_554
O21 S3 1.502091 1_555
O21 Zr4 2.123950 1_555
O22 S4 1.477757 1_555
O22 Zr4 2.251597 1_555
O23 Si3 1.652411 1_555
O23 Zr4 2.028555 1_555
O24 Si6 1.634496 1_555
O24 Zr5 2.008564 1_556
O25 S6 1.482272 1_555
O25 Zr5 2.211641 1_556
O26 S7 1.473304 1_555
O26 Zr5 2.293943 1_556
O27 Si7 1.631048 1_555
O27 Zr6 2.010847 1_555
O28 Si8 1.658378 1_555
O28 Zr6 1.966946 1_555
O29 S8 1.481676 1_555
O29 Zr6 2.218182 1_555
O30 S8 1.498958 1_555
O30 Zr7 2.192135 1_555
O31 Si7 1.636302 1_555
O31 Zr7 1.999864 1_555
O32 Si8 1.650644 1_555
O32 Zr7 1.986416 1_555
O33 S6 1.507461 1_555
O33 Zr8 2.136475 1_555
O34 S7 1.475699 1_555
O34 Zr8 2.229182 1_555
O35 Si6 1.647293 1_555
O35 Zr8 2.044205 1_555
O36 S8 1.455749 1_555
O36 Sc0 2.307852 1_465
O37 Si7 1.629574 1_555
O37 Sc0 2.035389 1_565
O38 Si8 1.625785 1_555
O38 Sc0 2.040386 1_455
O39 S6 1.472776 1_555
O39 Zr0 2.310594 1_545
O40 S7 1.517095 1_555
O40 Zr0 2.186807 1_555
O41 Si6 1.643291 1_555
O41 Zr0 2.080751 1_655
O42 Si3 1.654371 1_555
O42 Zr1 2.064554 1_655
O43 S3 1.506419 1_555
O43 Zr1 2.185960 1_555
O44 S4 1.479914 1_555
O44 Zr1 2.340468 1_665
O45 Si4 1.636923 1_555
O45 Zr2 2.059763 1_665
O46 S5 1.506601 1_555
O46 Zr2 2.198528 1_655
O47 Si5 1.652292 1_555
O47 Zr2 1.984769 1_555
O48 S2 1.470424 1_555
O48 Sc1 2.206511 1_555
O49 Si1 1.617376 1_555
O49 Sc1 2.137118 1_555
O50 Si2 1.631730 1_655
O50 Sc1 2.017804 1_555
O51 S1 1.492521 1_555
O51 Sc2 2.285256 1_555
O52 Si0 1.622195 1_555
O52 Sc2 2.043964 1_555
O53 S0 1.486643 1_545
O53 Sc2 2.474848 1_555
O54 Si6 1.656477 1_555
O54 Zr3 2.031599 1_555
O55 S6 1.476977 1_655
O55 Zr3 2.334308 1_555
O56 S7 1.478078 1_545
O56 Zr3 2.348956 1_555
O57 Si7 1.666809 1_545
O57 Zr4 2.016538 1_555
O58 Si8 1.625060 1_555
O58 Zr4 2.047864 1_555
O59 S8 1.506276 1_655
O59 Zr4 2.243404 1_555
O60 Si5 1.654096 1_555
O60 Zr5 1.988548 1_555
O61 Si4 1.640887 1_455
O61 Zr5 2.049860 1_555
O62 S5 1.495830 1_565
O62 Zr5 2.166329 1_555
O63 S3 1.474328 1_565
O63 Zr6 2.328109 1_555
O64 S4 1.513121 1_555
O64 Zr6 2.177865 1_555
O65 Si3 1.651800 1_455
O65 Zr6 2.075818 1_555
O66 S0 1.486998 1_555
O66 Zr7 2.272124 1_555
O67 S1 1.529292 1_555
O67 Zr7 2.181229 1_555
O68 Si0 1.672968 1_455
O68 Zr7 2.116116 1_555
O69 Si1 1.669125 1_555
O69 Zr8 2.008623 1_555
O70 Si2 1.634280 1_555
O70 Zr8 2.060787 1_555
O71 S2 1.500643 1_565
O71 Zr8 2.246687 1_555
