# generated using pymatgen
data_Na8Hf2Ga2Si5SO24
_symmetry_space_group_name_H-M   'P 1'
_cell_length_a   9.08267897
_cell_length_b   9.07098179
_cell_length_c   22.38674786
_cell_angle_alpha   89.90446489
_cell_angle_beta   89.70271848
_cell_angle_gamma   119.77212225
_symmetry_Int_Tables_number   1
_chemical_formula_structural   Na8Hf2Ga2Si5SO24
_chemical_formula_sum   'Na24 Hf6 Ga6 Si15 S3 O72'
_cell_volume   1600.92702832
_cell_formula_units_Z   3
loop_
 _symmetry_equiv_pos_site_id
 _symmetry_equiv_pos_as_xyz
  1  'x, y, z'
loop_
 _atom_site_type_symbol
 _atom_site_label
 _atom_site_symmetry_multiplicity
 _atom_site_fract_x
 _atom_site_fract_y
 _atom_site_fract_z
 _atom_site_occupancy
  Na  Na0  1  0.63942136  0.00162044  0.25207578  1
  Na  Na1  1  0.36045020  0.36217784  0.24750410  1
  Na  Na2  1  0.00006784  0.63644243  0.24982710  1
  Na  Na3  1  0.63606114  0.63583364  0.74793531  1
  Na  Na4  1  0.99798956  0.36250951  0.75025708  1
  Na  Na5  1  0.36629218  0.00351981  0.75018846  1
  Na  Na6  1  0.30236268  0.33843603  0.58460928  1
  Na  Na7  1  0.03656495  0.69920771  0.58213519  1
  Na  Na8  1  0.66319681  0.96297308  0.58244477  1
  Na  Na9  1  0.28836718  0.96461680  0.08162952  1
  Na  Na10  1  0.66897392  0.69510981  0.08554117  1
  Na  Na11  1  0.04212423  0.33583936  0.08543375  1
  Na  Na12  1  0.97264495  0.66880757  0.91661213  1
  Na  Na13  1  0.70362656  0.04177674  0.91237891  1
  Na  Na14  1  0.32326915  0.28746670  0.91818404  1
  Na  Na15  1  0.96215751  0.29460010  0.41284528  1
  Na  Na16  1  0.32720412  0.02221827  0.41561493  1
  Na  Na17  1  0.71249200  0.68072290  0.41709291  1
  Na  Na18  1  0.99379263  0.99218987  0.49927423  1
  Na  Na19  1  0.01327227  0.00498552  0.99983460  1
  Na  Na20  1  0.66704201  0.32728941  0.83387375  1
  Na  Na21  1  0.67304344  0.33160757  0.33231113  1
  Na  Na22  1  0.32737332  0.65880023  0.16481451  1
  Na  Na23  1  0.33470579  0.66683996  0.66348206  1
  Hf  Hf0  1  0.99931326  -0.00021141  0.64803787  1
  Hf  Hf1  1  0.66802832  0.33414772  0.68520476  1
  Hf  Hf2  1  0.66908889  0.34399042  0.18617125  1
  Hf  Hf3  1  0.67481619  0.33256185  0.48341718  1
  Hf  Hf4  1  0.32990940  0.67322164  0.31228339  1
  Hf  Hf5  1  0.32433326  0.67044742  0.81451936  1
  Ga  Ga0  1  0.98607512  0.98449001  0.34626415  1
  Ga  Ga1  1  0.01478077  0.01309503  0.84742165  1
  Ga  Ga2  1  0.01434213  0.99930089  0.15300193  1
  Ga  Ga3  1  0.66416692  0.33312356  0.98349869  1
  Ga  Ga4  1  0.29444215  0.64417427  0.01634004  1
  Ga  Ga5  1  0.33822778  0.68772235  0.52117947  1
  Si  Si0  1  0.28645769  0.00299477  0.25134997  1
  Si  Si1  1  0.71394821  0.71608498  0.24829747  1
  Si  Si2  1  0.99966023  0.28102496  0.24980241  1
  Si  Si3  1  0.29345079  0.29328839  0.75114415  1
  Si  Si4  1  0.99668936  0.71207761  0.75307726  1
  Si  Si5  1  0.71144261  0.99910387  0.75328411  1
  Si  Si6  1  0.97056206  0.33905763  0.58262820  1
  Si  Si7  1  0.37233122  0.03882487  0.58255277  1
  Si  Si8  1  0.66060033  0.62814274  0.58161869  1
  Si  Si9  1  0.95789617  0.62959382  0.08065433  1
  Si  Si10  1  0.37170539  0.33631573  0.08003212  1
  Si  Si11  1  0.03076323  0.36392375  0.91818141  1
  Si  Si12  1  0.33514685  0.96327388  0.92035449  1
  Si  Si13  1  0.62906433  0.95744329  0.41745612  1
  Si  Si14  1  0.04215498  0.67204788  0.41800555  1
  S  S0  1  0.66664855  0.03999064  0.08223679  1
  S  S1  1  0.62435265  0.66752260  0.91842274  1
  S  S2  1  0.33177519  0.37455932  0.41735722  1
  O  O0  1  0.20578513  0.04135811  0.31046818  1
  O  O1  1  0.82709083  0.78499459  0.30855342  1
  O  O2  1  0.96567776  0.16725412  0.31038604  1
  O  O3  1  0.21528631  0.17365544  0.80989884  1
  O  O4  1  0.96087617  0.79659675  0.81144874  1
  O  O5  1  0.83154263  0.03387534  0.81125116  1
  O  O6  1  0.79139086  0.96388549  0.69287265  1
  O  O7  1  0.17308786  0.21169353  0.69244719  1
  O  O8  1  0.03656066  0.82841322  0.69292414  1
  O  O9  1  0.79486362  0.83599094  0.18948039  1
  O  O10  1  0.03424023  0.20087272  0.18965331  1
  O  O11  1  0.17236959  0.95788544  0.19137443  1
  O  O12  1  0.88088873  0.37295542  0.64059770  1
  O  O13  1  0.49430915  0.12623690  0.64056584  1
  O  O14  1  0.62969153  0.50745317  0.64049988  1
  O  O15  1  0.87485790  0.50444280  0.13955485  1
  O  O16  1  0.63705893  0.11970188  0.13633945  1
  O  O17  1  0.49252035  0.36737643  0.13951817  1
  O  O18  1  0.46207807  0.29695843  0.02339910  1
  O  O19  1  0.83474594  0.53736453  0.02328080  1
  O  O20  1  0.69609450  0.14911123  0.02886291  1
  O  O21  1  0.45764180  0.16143081  0.52389987  1
  O  O22  1  0.69829710  0.54013592  0.52384213  1
  O  O23  1  0.84279451  0.29765261  0.52527871  1
  O  O24  1  0.54411253  0.69502325  0.97155680  1
  O  O25  1  0.15845239  0.44622128  0.97513703  1
  O  O26  1  0.30555815  0.83675350  0.97778997  1
  O  O27  1  0.54093049  0.83393014  0.47532746  1
  O  O28  1  0.30601519  0.45434740  0.47092513  1
  O  O29  1  0.16260628  0.70037106  0.47565673  1
  O  O30  1  0.12460576  0.62950756  0.35934394  1
  O  O31  1  0.50737862  0.86978632  0.35892160  1
  O  O32  1  0.36154976  0.48174797  0.36314405  1
  O  O33  1  0.12227856  0.49114689  0.86046938  1
  O  O34  1  0.37293433  0.87828080  0.86106302  1
  O  O35  1  0.51739875  0.63940545  0.86416921  1
  O  O36  1  0.02758340  0.84498944  0.41114616  1
  O  O37  1  0.82100590  0.98263955  0.41139553  1
  O  O38  1  0.18164238  0.20481417  0.41198479  1
  O  O39  1  0.01308029  0.17509632  0.91146389  1
  O  O40  1  0.15951122  0.97275514  0.91297286  1
  O  O41  1  0.79462090  0.81898700  0.91247498  1
  O  O42  1  0.98067412  0.16514862  0.58729218  1
  O  O43  1  0.18548806  0.02187628  0.58734922  1
  O  O44  1  0.83347858  0.81305143  0.58738916  1
  O  O45  1  0.97266202  0.81717067  0.08816017  1
  O  O46  1  0.82045410  0.02471899  0.08756072  1
  O  O47  1  0.18222695  0.16627082  0.08779345  1
  O  O48  1  0.69058378  0.16825983  0.74639804  1
  O  O49  1  0.48171560  0.31158676  0.74526260  1
  O  O50  1  0.83096333  0.52188515  0.74660359  1
  O  O51  1  0.69170586  0.52316926  0.24405758  1
  O  O52  1  0.83018701  0.30420516  0.24385888  1
  O  O53  1  0.47949913  0.16671298  0.24379219  1
  O  O54  1  0.63979236  0.51115784  0.92153245  1
  O  O55  1  0.84533143  0.35537822  0.92568717  1
  O  O56  1  0.50743524  0.15321069  0.92500367  1
  O  O57  1  0.63996149  0.14559918  0.42084339  1
  O  O58  1  0.48850347  0.35900707  0.42093637  1
  O  O59  1  0.85020265  0.50096168  0.42102775  1
  O  O60  1  0.36403636  0.51605986  0.07439247  1
  O  O61  1  0.14914938  0.64795580  0.07843375  1
  O  O62  1  0.51394781  0.87030964  0.07746284  1
  O  O63  1  0.35717387  0.85260765  0.57926719  1
  O  O64  1  0.48885195  0.64115545  0.57554438  1
  O  O65  1  0.15572381  0.50682432  0.57420336  1
  O  O66  1  0.30866271  0.83232877  0.25555190  1
  O  O67  1  0.52062400  0.68646974  0.25578249  1
  O  O68  1  0.16905120  0.47281356  0.25573023  1
  O  O69  1  0.31569219  0.48331157  0.75791685  1
  O  O70  1  0.16796274  0.69205762  0.75639645  1
  O  O71  1  0.52257391  0.82871053  0.75773353  1
loop_
_geom_bond_atom_site_label_1
_geom_bond_atom_site_label_2
_geom_bond_distance
_geom_bond_site_symmetry_2
Na0 O52 2.416952 1_555
Na0 O67 2.505680 1_545
Na0 O53 2.559094 1_555
Na0 O66 2.608634 1_545
Na0 O31 2.669481 1_545
Na0 O16 2.806237 1_555
Na0 O9 2.882227 1_545
Na0 O2 2.892682 1_555
Na1 O68 2.406877 1_555
Na1 O53 2.494660 1_555
Na1 O67 2.560995 1_555
Na1 O51 2.612386 1_555
Na1 O17 2.683017 1_555
Na1 O32 2.806647 1_555
Na1 O0 2.887055 1_555
Na1 O10 2.887479 1_555
Na2 O51 2.462301 1_455
Na2 O66 2.467443 1_555
Na2 O68 2.615349 1_555
Na2 O52 2.620416 1_455
Na2 O30 2.719066 1_555
Na2 O15 2.740047 1_455
Na2 O11 2.845652 1_555
Na2 O1 2.845960 1_455
Na3 O71 2.441628 1_555
Na3 O50 2.453506 1_555
Na3 O69 2.534808 1_555
Na3 O49 2.554674 1_555
Na3 O14 2.662334 1_555
Na3 O35 2.817698 1_555
Na3 O6 2.857521 1_555
Na3 O4 2.937652 1_555
Na4 O48 2.454607 1_555
Na4 O69 2.534238 1_655
Na4 O50 2.564585 1_555
Na4 O70 2.599760 1_655
Na4 O12 2.700596 1_555
Na4 O33 2.730170 1_655
Na4 O7 2.867217 1_655
Na4 O5 2.919922 1_555
Na5 O49 2.451255 1_555
Na5 O70 2.487613 1_545
Na5 O48 2.557676 1_555
Na5 O71 2.606664 1_545
Na5 O13 2.699918 1_555
Na5 O34 2.741417 1_545
Na5 O3 2.853008 1_555
Na5 O8 2.908258 1_545
Na6 O64 2.413712 1_555
Na6 O65 2.486689 1_555
Na6 O43 2.519470 1_555
Na6 O42 2.539316 1_455
Na6 O7 2.673803 1_555
Na6 O28 2.745776 1_555
Na6 O14 2.876331 1_555
Na6 O21 2.941162 1_555
Na7 O65 2.474464 1_555
Na7 O44 2.524389 1_455
Na7 O63 2.528586 1_555
Na7 O43 2.545808 1_565
Na7 O29 2.636725 1_555
Na7 O8 2.744956 1_555
Na7 O12 2.877959 1_455
Na7 O22 2.978219 1_455
Na8 O63 2.443731 1_555
Na8 O44 2.518683 1_555
Na8 O42 2.538123 1_565
Na8 O64 2.542921 1_555
Na8 O27 2.664565 1_555
Na8 O6 2.736333 1_555
Na8 O13 2.912217 1_565
Na8 O23 2.926183 1_565
Na9 O47 2.458678 1_565
Na9 O45 2.493748 1_455
Na9 O61 2.499882 1_555
Na9 O62 2.584053 1_555
Na9 O26 2.637916 1_554
Na9 O11 2.656786 1_555
Na9 O18 2.918701 1_565
Na9 O16 3.021709 1_565
Na10 O45 2.409671 1_555
Na10 O60 2.431531 1_555
Na10 O46 2.598120 1_565
Na10 O62 2.600954 1_555
Na10 O9 2.634613 1_555
Na10 O24 2.797616 1_554
Na10 O17 2.846558 1_555
Na10 O19 2.895107 1_555
Na11 O47 2.435615 1_555
Na11 O61 2.499795 1_555
Na11 O46 2.525117 1_455
Na11 O60 2.554733 1_555
Na11 O10 2.617097 1_555
Na11 O25 2.670174 1_554
Na11 O15 2.899936 1_455
Na11 O20 3.018653 1_455
Na12 O40 2.416507 1_655
Na12 O55 2.488450 1_555
Na12 O41 2.582151 1_555
Na12 O54 2.626670 1_555
Na12 O4 2.648441 1_555
Na12 O19 2.677524 1_556
Na12 O33 2.861473 1_655
Na12 O26 2.968979 1_655
Na13 O39 2.446731 1_655
Na13 O56 2.462004 1_555
Na13 O55 2.491634 1_555
Na13 O41 2.534937 1_545
Na13 O5 2.556609 1_555
Na13 O20 2.797407 1_556
Na13 O34 2.856286 1_545
Na14 O39 2.480329 1_555
Na14 O40 2.482251 1_545
Na14 O56 2.515850 1_555
Na14 O54 2.568531 1_555
Na14 O3 2.632815 1_555
Na14 O18 2.658689 1_556
Na14 O25 2.840336 1_555
Na15 O37 2.459724 1_545
Na15 O38 2.499969 1_655
Na15 O59 2.541866 1_555
Na15 O57 2.547239 1_555
Na15 O2 2.577081 1_555
Na15 O23 2.741027 1_555
Na15 O30 2.891138 1_655
Na16 O36 2.378839 1_545
Na16 O57 2.486419 1_555
Na16 O38 2.583275 1_555
Na16 O0 2.646293 1_555
Na16 O58 2.655519 1_555
Na16 O21 2.725615 1_555
Na16 O29 2.862970 1_545
Na16 O31 2.903820 1_545
Na17 O37 2.409347 1_555
Na17 O36 2.487721 1_655
Na17 O59 2.501448 1_555
Na17 O58 2.600750 1_555
Na17 O1 2.621175 1_555
Na17 O22 2.679041 1_555
Na17 O27 2.862629 1_555
Na18 O36 2.485741 1_655
Na18 O37 2.497668 1_555
Na18 O44 2.502318 1_555
Na18 O42 2.559648 1_565
Na18 O43 2.561913 1_665
Na18 O38 2.671027 1_665
Na19 O40 2.447800 1_545
Na19 O47 2.486777 1_556
Na19 O39 2.507469 1_555
Na19 O45 2.511068 1_446
Na19 O46 2.689393 1_456
Na19 O41 2.709073 1_445
Na20 O48 2.504597 1_555
Na20 O56 2.538153 1_555
Na20 O50 2.549077 1_555
Na20 O55 2.557033 1_555
Na20 O49 2.566372 1_555
Na20 O54 2.666430 1_555
Na21 O57 2.518829 1_555
Na21 O52 2.518848 1_555
Na21 O59 2.545992 1_555
Na21 O51 2.577628 1_555
Na21 O53 2.586353 1_555
Na21 O58 2.681113 1_555
Na22 O61 2.498906 1_555
Na22 O60 2.512952 1_555
Na22 O68 2.570105 1_555
Na22 O67 2.625333 1_555
Na22 O66 2.627845 1_555
Na22 O62 2.664771 1_555
Na23 O63 2.465653 1_555
Na23 O64 2.487339 1_555
Na23 O65 2.538550 1_555
Na23 O69 2.640010 1_555
Na23 O70 2.643012 1_555
Na23 O71 2.660663 1_555
Hf0 O6 2.012048 1_545
Hf0 O8 2.015291 1_645
Hf0 O7 2.045499 1_655
Hf0 O42 2.091815 1_555
Hf0 O43 2.093837 1_655
Hf0 O44 2.115775 1_545
Hf1 O13 2.027924 1_555
Hf1 O14 2.033756 1_555
Hf1 O12 2.040063 1_555
Hf1 O49 2.084398 1_555
Hf1 O48 2.117818 1_555
Hf1 O50 2.122629 1_555
Hf2 O15 1.993403 1_555
Hf2 O51 2.010329 1_555
Hf2 O17 2.015489 1_555
Hf2 O53 2.105980 1_555
Hf2 O52 2.116952 1_555
Hf2 O16 2.211682 1_555
Hf3 O23 1.949332 1_555
Hf3 O22 2.004665 1_555
Hf3 O21 2.014394 1_555
Hf3 O59 2.091645 1_555
Hf3 O57 2.101918 1_555
Hf3 O58 2.303087 1_555
Hf4 O30 1.997050 1_555
Hf4 O66 2.001560 1_555
Hf4 O31 2.009215 1_555
Hf4 O67 2.094012 1_555
Hf4 O68 2.105089 1_555
Hf4 O32 2.210919 1_555
Hf5 O34 2.004889 1_555
Hf5 O70 2.010837 1_555
Hf5 O33 2.020393 1_555
Hf5 O71 2.078975 1_555
Hf5 O69 2.090273 1_555
Hf5 O35 2.213415 1_555
Ga0 O1 1.869558 1_555
Ga0 O2 1.931329 1_565
Ga0 O0 1.962201 1_665
Ga0 O37 2.079984 1_555
Ga0 O36 2.080016 1_655
Ga0 O38 2.413595 1_665
Ga1 O3 1.867973 1_555
Ga1 O5 1.945793 1_455
Ga1 O4 1.949219 1_445
Ga1 O39 2.060224 1_555
Ga1 O40 2.123991 1_545
Ga1 O41 2.384188 1_445
Ga2 O11 1.867194 1_555
Ga2 O10 1.930675 1_565
Ga2 O9 1.970181 1_455
Ga2 O45 2.091043 1_455
Ga2 O47 2.103828 1_565
Ga2 O46 2.393640 1_465
Ga3 O18 1.912748 1_556
Ga3 O19 1.948116 1_556
Ga3 O55 2.017529 1_555
Ga3 O56 2.030756 1_555
Ga3 O20 2.092771 1_556
Ga3 O54 2.220861 1_555
Ga4 O25 1.848100 1_554
Ga4 O26 1.904073 1_554
Ga4 O61 1.923808 1_555
Ga4 O60 2.042562 1_555
Ga4 O24 2.301375 1_554
Ga4 O62 2.455842 1_555
Ga5 O63 1.926364 1_555
Ga5 O27 1.937301 1_555
Ga5 O29 1.947913 1_555
Ga5 O64 2.029957 1_555
Ga5 O65 2.030075 1_555
Ga5 O28 2.286699 1_555
O0 Si0 1.629183 1_555
O1 Si1 1.626549 1_555
O2 Si2 1.635371 1_555
O3 Si3 1.622399 1_555
O4 Si4 1.627198 1_555
O5 Si5 1.627197 1_545
O6 Si5 1.637071 1_555
O7 Si3 1.638358 1_555
O8 Si4 1.633663 1_455
O9 Si1 1.627339 1_555
O10 Si2 1.632818 1_455
O11 Si0 1.624534 1_565
O12 Si6 1.637419 1_555
O13 Si7 1.639748 1_555
O14 Si8 1.643474 1_555
O15 Si9 1.652475 1_555
O16 S0 1.501510 1_555
O17 Si10 1.663220 1_555
O18 Si10 1.640224 1_555
O19 Si9 1.640093 1_555
O20 S0 1.486216 1_555
O21 Si7 1.640164 1_555
O22 Si8 1.642492 1_555
O23 Si6 1.649332 1_555
O24 S1 1.476761 1_555
O25 Si11 1.639145 1_555
O26 Si12 1.651609 1_555
O27 Si13 1.633471 1_555
O28 S2 1.478115 1_555
O29 Si14 1.632549 1_555
O30 Si14 1.647056 1_555
O31 Si13 1.648234 1_555
O32 S2 1.490974 1_555
O33 Si11 1.650208 1_555
O34 Si12 1.653934 1_555
O35 S1 1.500367 1_555
O36 Si14 1.645500 1_555
O37 Si13 1.646704 1_555
O38 S2 1.470345 1_555
O39 Si11 1.646261 1_555
O40 Si12 1.648770 1_555
O41 S1 1.477899 1_555
O42 Si6 1.628300 1_555
O43 Si7 1.629125 1_555
O44 Si8 1.637940 1_555
O45 Si9 1.648002 1_555
O46 S0 1.476065 1_555
O47 Si10 1.652548 1_555
O48 Si5 1.643862 1_545
O49 Si3 1.638455 1_555
O50 Si4 1.639296 1_555
O51 Si1 1.661855 1_555
O52 Si2 1.659738 1_555
O53 Si0 1.648780 1_555
O54 S1 1.494532 1_555
O55 Si11 1.654750 1_655
O56 Si12 1.659152 1_545
O57 Si13 1.661722 1_545
O58 S2 1.501097 1_555
O59 Si14 1.662536 1_655
O60 Si10 1.670739 1_555
O61 Si9 1.661156 1_455
O62 S0 1.478559 1_565
O63 Si7 1.627035 1_565
O64 Si8 1.628138 1_555
O65 Si6 1.622924 1_455
O66 Si0 1.660104 1_565
O67 Si1 1.646749 1_555
O68 Si2 1.660127 1_455
O69 Si3 1.640217 1_555
O70 Si4 1.655345 1_455
O71 Si5 1.645049 1_555
