# generated using pymatgen
data_MgZn2Mo3O8
_symmetry_space_group_name_H-M   'P 1'
_cell_length_a   5.48731441
_cell_length_b   6.22252731
_cell_length_c   7.20569638
_cell_angle_alpha   115.57772155
_cell_angle_beta   119.65934548
_cell_angle_gamma   90.00018413
_symmetry_Int_Tables_number   1
_chemical_formula_structural   MgZn2Mo3O8
_chemical_formula_sum   'Mg1 Zn2 Mo3 O8'
_cell_volume   185.54850763
_cell_formula_units_Z   1
loop_
 _symmetry_equiv_pos_site_id
 _symmetry_equiv_pos_as_xyz
  1  'x, y, z'
loop_
 _atom_site_type_symbol
 _atom_site_label
 _atom_site_symmetry_multiplicity
 _atom_site_fract_x
 _atom_site_fract_y
 _atom_site_fract_z
 _atom_site_occupancy
  Mg  Mg0  1  0.49999700  0.50000000  0.00000100  1
  Zn  Zn0  1  0.80118100  0.72196500  0.44390700  1
  Zn  Zn1  1  0.19883300  0.27803500  0.55609400  1
  Mo  Mo0  1  0.50000000  0.00000000  0.00000100  1
  Mo  Mo1  1  0.99999500  0.74073000  0.99998500  1
  Mo  Mo2  1  0.99999900  0.25926800  0.00001300  1
  O  O0  1  0.05381200  0.39431500  0.78859500  1
  O  O1  1  0.94618700  0.60568400  0.21140400  1
  O  O2  1  0.03604400  0.89644700  0.79284900  1
  O  O3  1  0.96395400  0.10355300  0.20715100  1
  O  O4  1  0.48037200  0.35207300  0.20442100  1
  O  O5  1  0.48038800  0.85228900  0.20441800  1
  O  O6  1  0.51961000  0.14771100  0.79558200  1
  O  O7  1  0.51962600  0.64792500  0.79557900  1
loop_
_geom_bond_atom_site_label_1
_geom_bond_atom_site_label_2
_geom_bond_distance
_geom_bond_site_symmetry_2
Mg0 O0 2.047256 1_554
Mg0 O1 2.047279 1_555
Mg0 O5 2.086961 1_555
Mg0 O6 2.086974 1_554
Mg0 O4 2.087176 1_555
Mg0 O7 2.087189 1_554
Mo0 O4 2.086007 1_555
Mo0 O7 2.086016 1_544
Mo0 O5 2.086125 1_545
Mo0 O6 2.086134 1_554
Mo0 O3 2.129139 1_555
Mo0 O2 2.129148 1_544
Mo1 O0 2.159621 1_655
Mo1 O1 2.159791 1_556
Mo1 O2 2.178692 1_655
Mo1 O3 2.178693 1_566
Mo1 O7 2.207760 1_555
Mo1 O5 2.207858 1_656
Mo2 O1 2.159614 1_555
Mo2 O0 2.159802 1_654
Mo2 O3 2.178687 1_555
Mo2 O2 2.178689 1_644
Mo2 O4 2.207779 1_655
Mo2 O6 2.207840 1_554
O0 Zn1 2.058221 1_555
O1 Zn0 2.058168 1_555
O2 Zn0 1.896723 1_455
O3 Zn1 1.896730 1_655
O4 Zn0 2.222246 1_555
O5 Zn0 2.221768 1_555
O6 Zn1 2.221728 1_555
O7 Zn1 2.222202 1_555
