# generated using pymatgen
data_Na10Y4Ta4Si9(SO16)3
_symmetry_space_group_name_H-M   'P 1'
_cell_length_a   18.52418148
_cell_length_b   9.22019804
_cell_length_c   22.97078474
_cell_angle_alpha   90.11267985
_cell_angle_beta   88.95372326
_cell_angle_gamma   119.87108298
_symmetry_Int_Tables_number   1
_chemical_formula_structural   Na10Y4Ta4Si9(SO16)3
_chemical_formula_sum   'Na30 Y12 Ta12 Si27 S9 O144'
_cell_volume   3401.42857631
_cell_formula_units_Z   3
loop_
 _symmetry_equiv_pos_site_id
 _symmetry_equiv_pos_as_xyz
  1  'x, y, z'
loop_
 _atom_site_type_symbol
 _atom_site_label
 _atom_site_symmetry_multiplicity
 _atom_site_fract_x
 _atom_site_fract_y
 _atom_site_fract_z
 _atom_site_occupancy
  Na  Na0  1  0.18195585  0.35666186  0.24209402  1
  Na  Na1  1  0.68189137  0.35733136  0.24142111  1
  Na  Na2  1  0.18220625  0.00770744  0.74086715  1
  Na  Na3  1  0.68032276  0.00482189  0.74109397  1
  Na  Na4  1  0.65425365  0.34690943  0.58024088  1
  Na  Na5  1  0.01982857  0.70146701  0.57430657  1
  Na  Na6  1  0.51556182  0.67853398  0.58064176  1
  Na  Na7  1  0.32425900  0.97937002  0.58725784  1
  Na  Na8  1  0.15503708  0.96622063  0.08041813  1
  Na  Na9  1  0.65502535  0.96608106  0.08005747  1
  Na  Na10  1  0.32467806  0.67526245  0.08533557  1
  Na  Na11  1  0.82491629  0.67605444  0.08513193  1
  Na  Na12  1  0.01913483  0.35494670  0.08073149  1
  Na  Na13  1  0.51904441  0.35521108  0.08054569  1
  Na  Na14  1  0.49217545  0.68109655  0.91243906  1
  Na  Na15  1  0.99201384  0.68087594  0.91376044  1
  Na  Na16  1  0.34959542  0.66194383  0.40858094  1
  Na  Na17  1  0.84914491  0.67221280  0.40754465  1
  Na  Na18  1  0.02026623  0.02880996  0.49523191  1
  Na  Na19  1  0.51714413  0.01170692  0.49373167  1
  Na  Na20  1  0.01386664  0.03466619  0.99215679  1
  Na  Na21  1  0.51415167  0.03512486  0.99171559  1
  Na  Na22  1  0.34630915  0.33056611  0.82972163  1
  Na  Na23  1  0.84509985  0.32812965  0.83152001  1
  Na  Na24  1  0.34964420  0.34288769  0.33206336  1
  Na  Na25  1  0.85154554  0.34248861  0.32857816  1
  Na  Na26  1  0.16698267  0.67843318  0.16319299  1
  Na  Na27  1  0.66715284  0.67835917  0.16224000  1
  Na  Na28  1  0.17799002  0.65676888  0.66523018  1
  Na  Na29  1  0.67443167  0.67340580  0.65966188  1
  Y  Y0  1  0.00220218  0.99881978  0.35355158  1
  Y  Y1  1  0.50063110  0.99746686  0.35347061  1
  Y  Y2  1  0.99692192  0.00863192  0.85269354  1
  Y  Y3  1  0.49776450  0.01008845  0.85210520  1
  Y  Y4  1  0.33841177  0.34035073  0.68620510  1
  Y  Y5  1  0.83595092  0.33398261  0.68773091  1
  Y  Y6  1  0.33899302  0.34009271  0.18693911  1
  Y  Y7  1  0.83892166  0.34005877  0.18644540  1
  Y  Y8  1  0.16561370  0.66462002  0.01509406  1
  Y  Y9  1  0.66570500  0.66476534  0.01481222  1
  Y  Y10  1  0.16518543  0.66272865  0.51712368  1
  Y  Y11  1  0.66586872  0.67229329  0.51824933  1
  Ta  Ta0  1  0.99427518  0.98123253  0.64791793  1
  Ta  Ta1  1  0.49149377  0.98194994  0.64339087  1
  Ta  Ta2  1  0.99288779  0.00021954  0.14526921  1
  Ta  Ta3  1  0.49253530  0.00033174  0.14499586  1
  Ta  Ta4  1  0.33425319  0.32317913  0.98168679  1
  Ta  Ta5  1  0.83411022  0.32307282  0.98174269  1
  Ta  Ta6  1  0.33430670  0.33958013  0.48297448  1
  Ta  Ta7  1  0.82885354  0.34241543  0.47834432  1
  Ta  Ta8  1  0.16069890  0.64162897  0.31403026  1
  Ta  Ta9  1  0.65975061  0.64550254  0.31311051  1
  Ta  Ta10  1  0.16301643  0.68089109  0.81438613  1
  Ta  Ta11  1  0.66147077  0.68012038  0.81324130  1
  Si  Si0  1  0.34806935  0.70941831  0.25416246  1
  Si  Si1  1  0.84846260  0.70925311  0.25460479  1
  Si  Si2  1  0.00068153  0.29370833  0.25108557  1
  Si  Si3  1  0.50040658  0.29346750  0.25130633  1
  Si  Si4  1  0.00061732  0.70368624  0.75481086  1
  Si  Si5  1  0.49928538  0.70705001  0.75367120  1
  Si  Si6  1  0.34820326  0.98882109  0.75066637  1
  Si  Si7  1  0.84805056  0.98782778  0.75154160  1
  Si  Si8  1  0.47877053  0.32411816  0.58135722  1
  Si  Si9  1  0.18376721  0.04684160  0.58654134  1
  Si  Si10  1  0.68472844  0.04416928  0.58753458  1
  Si  Si11  1  0.33170061  0.62664743  0.58429524  1
  Si  Si12  1  0.83564738  0.63201180  0.58374600  1
  Si  Si13  1  0.47921617  0.63338208  0.08009899  1
  Si  Si14  1  0.97924205  0.63361676  0.08003029  1
  Si  Si15  1  0.33400463  0.03954099  0.08421595  1
  Si  Si16  1  0.83410879  0.03930905  0.08423999  1
  Si  Si17  1  0.18532824  0.32457806  0.08685668  1
  Si  Si18  1  0.68526757  0.32474779  0.08692508  1
  Si  Si19  1  0.01563104  0.37321537  0.91995547  1
  Si  Si20  1  0.51581748  0.37364861  0.91992091  1
  Si  Si21  1  0.17141344  0.97690505  0.91924209  1
  Si  Si22  1  0.67131205  0.97645666  0.91898297  1
  Si  Si23  1  0.17125482  0.36421967  0.41820062  1
  Si  Si24  1  0.66724494  0.36893786  0.41906106  1
  Si  Si25  1  0.01654681  0.65602317  0.42056294  1
  Si  Si26  1  0.51549126  0.65621078  0.42018281  1
  S  S0  1  0.14255684  0.98278630  0.24694684  1
  S  S1  1  0.64273025  0.98328746  0.24746711  1
  S  S2  1  0.14123297  0.29850366  0.74788372  1
  S  S3  1  0.64365487  0.30343004  0.74790403  1
  S  S4  1  0.97620536  0.31708024  0.58144019  1
  S  S5  1  0.31094041  0.65180552  0.91509044  1
  S  S6  1  0.81112644  0.65163684  0.91533970  1
  S  S7  1  0.30893069  0.96614342  0.41513546  1
  S  S8  1  0.81001074  0.96883920  0.41470363  1
  O  O0  1  0.10275242  0.00390587  0.29918572  1
  O  O1  1  0.60286188  0.00394710  0.29962561  1
  O  O2  1  0.39850909  0.78521630  0.31217522  1
  O  O3  1  0.89846414  0.78479465  0.31283463  1
  O  O4  1  0.50257733  0.19483734  0.30643798  1
  O  O5  1  0.00140161  0.19291670  0.30609823  1
  O  O6  1  0.10471169  0.19982000  0.80113576  1
  O  O7  1  0.60533265  0.19887599  0.79948669  1
  O  O8  1  0.50077815  0.79855688  0.81259658  1
  O  O9  1  0.99752843  0.79283120  0.81294187  1
  O  O10  1  0.40453492  0.01644805  0.80474427  1
  O  O11  1  0.90352408  0.01754580  0.80638813  1
  O  O12  1  0.40008329  0.97122671  0.69036784  1
  O  O13  1  0.90443803  0.97566983  0.69283784  1
  O  O14  1  0.08780340  0.20997261  0.69649251  1
  O  O15  1  0.59391907  0.22300505  0.69463388  1
  O  O16  1  0.01462891  0.83520951  0.69592372  1
  O  O17  1  0.51419340  0.83690620  0.69510091  1
  O  O18  1  0.40401409  0.83550369  0.19527118  1
  O  O19  1  0.90431670  0.83510568  0.19569958  1
  O  O20  1  0.01595131  0.19937291  0.19131778  1
  O  O21  1  0.51601496  0.19938843  0.19153127  1
  O  O22  1  0.09213056  0.96656384  0.19381381  1
  O  O23  1  0.59268916  0.96576760  0.19425185  1
  O  O24  1  0.44006270  0.36642145  0.63664728  1
  O  O25  1  0.93934058  0.34125060  0.63497147  1
  O  O26  1  0.23675535  0.11374577  0.64457199  1
  O  O27  1  0.73258061  0.12153505  0.64646712  1
  O  O28  1  0.31674172  0.51882351  0.64073594  1
  O  O29  1  0.82605271  0.51536034  0.63701622  1
  O  O30  1  0.43894722  0.50831121  0.13395263  1
  O  O31  1  0.93894064  0.50855272  0.13387577  1
  O  O32  1  0.30964395  0.11396771  0.13815222  1
  O  O33  1  0.80954540  0.11370449  0.13814157  1
  O  O34  1  0.23633090  0.35871458  0.14553453  1
  O  O35  1  0.73611218  0.35868883  0.14572213  1
  O  O36  1  0.24034157  0.30209251  0.03084033  1
  O  O37  1  0.74037659  0.30218036  0.03101645  1
  O  O38  1  0.41740508  0.54022423  0.02253281  1
  O  O39  1  0.91752385  0.54013136  0.02243937  1
  O  O40  1  0.35257835  0.17043186  0.02613811  1
  O  O41  1  0.85257762  0.17042630  0.02620492  1
  O  O42  1  0.23878596  0.17158734  0.52925772  1
  O  O43  1  0.74171475  0.17622281  0.53043572  1
  O  O44  1  0.34847310  0.53350225  0.52544295  1
  O  O45  1  0.85147063  0.53583340  0.52354204  1
  O  O46  1  0.41406165  0.29792785  0.52591562  1
  O  O47  1  0.92503118  0.30049001  0.53004168  1
  O  O48  1  0.27759974  0.67231661  0.97120886  1
  O  O49  1  0.77775194  0.67170988  0.97149537  1
  O  O50  1  0.06125465  0.44990510  0.98018348  1
  O  O51  1  0.56126966  0.44943843  0.98031059  1
  O  O52  1  0.16074160  0.87040831  0.97668408  1
  O  O53  1  0.66121637  0.87092897  0.97665238  1
  O  O54  1  0.27341052  0.87564047  0.47091877  1
  O  O55  1  0.77449496  0.87108942  0.46811396  1
  O  O56  1  0.16569543  0.46646510  0.47209827  1
  O  O57  1  0.66679683  0.46108518  0.47710782  1
  O  O58  1  0.06380858  0.68087115  0.48052921  1
  O  O59  1  0.56461369  0.68293050  0.47918284  1
  O  O60  1  0.07492432  0.64417941  0.36409938  1
  O  O61  1  0.57473618  0.64683984  0.36292389  1
  O  O62  1  0.25541466  0.87054601  0.36555130  1
  O  O63  1  0.75760256  0.88303154  0.36362945  1
  O  O64  1  0.18129775  0.49255046  0.35791541  1
  O  O65  1  0.68104474  0.49919946  0.36065115  1
  O  O66  1  0.07510143  0.50868726  0.86442459  1
  O  O67  1  0.57501972  0.50921064  0.86448360  1
  O  O68  1  0.18104273  0.86579393  0.86037004  1
  O  O69  1  0.68056792  0.86583893  0.86001124  1
  O  O70  1  0.25782405  0.64385711  0.86603014  1
  O  O71  1  0.75869902  0.64393873  0.86619278  1
  O  O72  1  0.99116135  0.79919476  0.41416820  1
  O  O73  1  0.49245290  0.80328995  0.41421486  1
  O  O74  1  0.39217942  0.98173161  0.41028573  1
  O  O75  1  0.89430741  0.98941970  0.40881164  1
  O  O76  1  0.09393423  0.17990587  0.41373848  1
  O  O77  1  0.59299693  0.18219838  0.41388183  1
  O  O78  1  0.99832694  0.18604411  0.91507813  1
  O  O79  1  0.49839066  0.18650048  0.91486665  1
  O  O80  1  0.08777140  0.98631821  0.91229574  1
  O  O81  1  0.58783899  0.98702451  0.91274723  1
  O  O82  1  0.39710300  0.79402755  0.90980686  1
  O  O83  1  0.89755795  0.79386868  0.91057998  1
  O  O84  1  0.47960824  0.14428004  0.58925938  1
  O  O85  1  0.98496077  0.16501955  0.58642104  1
  O  O86  1  0.09053343  0.03629506  0.59316131  1
  O  O87  1  0.59391673  0.04746648  0.59103692  1
  O  O88  1  0.42703225  0.80679942  0.58981419  1
  O  O89  1  0.92674273  0.81425573  0.59091576  1
  O  O90  1  0.48014686  0.81499666  0.09082034  1
  O  O91  1  0.97997501  0.81490342  0.09070102  1
  O  O92  1  0.42610171  0.04478845  0.09153235  1
  O  O93  1  0.92601059  0.04426368  0.09167576  1
  O  O94  1  0.09388080  0.14444848  0.09172119  1
  O  O95  1  0.59393924  0.14447906  0.09184608  1
  O  O96  1  0.32261325  0.13219164  0.74658093  1
  O  O97  1  0.82307031  0.13195638  0.74638540  1
  O  O98  1  0.22413079  0.31487080  0.74174843  1
  O  O99  1  0.72781756  0.32220481  0.74319675  1
  O  O100  1  0.42276856  0.52149822  0.75035366  1
  O  O101  1  0.92618279  0.51762267  0.74766774  1
  O  O102  1  0.32436326  0.51640028  0.24712745  1
  O  O103  1  0.82454063  0.51573313  0.24771280  1
  O  O104  1  0.42349460  0.32469751  0.24937210  1
  O  O105  1  0.92368244  0.32482196  0.24872578  1
  O  O106  1  0.22545125  0.13448443  0.24276263  1
  O  O107  1  0.72589527  0.13427512  0.24335777  1
  O  O108  1  0.31534591  0.49395907  0.91642033  1
  O  O109  1  0.81587088  0.49384172  0.91680492  1
  O  O110  1  0.42674105  0.38180316  0.92143739  1
  O  O111  1  0.92669314  0.38156432  0.92126677  1
  O  O112  1  0.25887885  0.15954586  0.92359355  1
  O  O113  1  0.75893607  0.15969983  0.92352079  1
  O  O114  1  0.31579551  0.13338549  0.41759664  1
  O  O115  1  0.81716736  0.13749912  0.42063878  1
  O  O116  1  0.26198256  0.36682126  0.42164449  1
  O  O117  1  0.76037447  0.36894230  0.42200908  1
  O  O118  1  0.42434560  0.47640278  0.42288307  1
  O  O119  1  0.92493612  0.47223659  0.42486448  1
  O  O120  1  0.16884210  0.47965826  0.07775402  1
  O  O121  1  0.66888523  0.47992553  0.07789369  1
  O  O122  1  0.07521066  0.67465947  0.07702231  1
  O  O123  1  0.57521157  0.67446514  0.07696519  1
  O  O124  1  0.26447278  0.84683009  0.07574360  1
  O  O125  1  0.76434687  0.84669151  0.07581975  1
  O  O126  1  0.16540034  0.85554714  0.57829258  1
  O  O127  1  0.66144652  0.85217173  0.58122324  1
  O  O128  1  0.26534800  0.68998917  0.57762136  1
  O  O129  1  0.75754411  0.65816657  0.57806868  1
  O  O130  1  0.06046128  0.46836537  0.57692529  1
  O  O131  1  0.57365649  0.47515629  0.57618662  1
  O  O132  1  0.14979573  0.82983422  0.25185223  1
  O  O133  1  0.65031265  0.82990275  0.25256285  1
  O  O134  1  0.25627299  0.70770637  0.25902876  1
  O  O135  1  0.75643607  0.70679119  0.25952436  1
  O  O136  1  0.09198447  0.48325668  0.25599956  1
  O  O137  1  0.59221247  0.48354764  0.25608384  1
  O  O138  1  0.14802681  0.46625474  0.75294710  1
  O  O139  1  0.65102857  0.47108136  0.75498569  1
  O  O140  1  0.09348685  0.70436028  0.75696272  1
  O  O141  1  0.59216599  0.70253190  0.75659831  1
  O  O142  1  0.25650656  0.80529920  0.75849940  1
  O  O143  1  0.75665209  0.80634618  0.75839197  1
loop_
_geom_bond_atom_site_label_1
_geom_bond_atom_site_label_2
_geom_bond_distance
_geom_bond_site_symmetry_2
Na0 O102 2.298230 1_555
Na0 O34 2.415416 1_555
Na0 O136 2.481739 1_555
Na0 O106 2.547649 1_555
Na0 O134 2.845854 1_555
Na0 O20 2.932906 1_555
Na0 O64 2.940949 1_555
Na1 O103 2.303345 1_555
Na1 O35 2.397573 1_555
Na1 O137 2.476113 1_555
Na1 O107 2.562752 1_555
Na2 O96 2.266642 1_555
Na2 O26 2.410929 1_555
Na2 O140 2.462437 1_545
Na2 O98 2.536501 1_555
Na3 O97 2.303191 1_555
Na3 O27 2.390520 1_555
Na3 O141 2.451702 1_545
Na3 O99 2.603124 1_555
Na4 O131 2.323782 1_555
Na4 O87 2.419127 1_555
Na4 O129 2.535139 1_555
Na4 O57 2.553558 1_555
Na4 O84 2.820655 1_555
Na4 O15 2.844603 1_555
Na4 O43 2.979177 1_555
Na5 O58 2.329916 1_555
Na5 O126 2.343244 1_555
Na5 O89 2.441514 1_455
Na5 O130 2.608250 1_555
Na5 O86 2.724244 1_565
Na6 O127 2.357515 1_555
Na6 O88 2.459815 1_555
Na6 O59 2.478967 1_555
Na6 O131 2.586549 1_555
Na6 O24 2.798619 1_555
Na7 O128 2.337748 1_555
Na7 O84 2.498268 1_565
Na7 O126 2.584598 1_555
Na7 O26 2.794976 1_565
Na7 O12 2.795641 1_555
Na7 O54 2.850997 1_555
Na7 O46 2.905760 1_565
Na8 O122 2.337330 1_555
Na8 O94 2.427589 1_565
Na8 O52 2.558334 1_554
Na8 O124 2.747237 1_555
Na8 O91 2.825804 1_455
Na8 O22 2.834718 1_555
Na8 O32 2.839402 1_565
Na8 O36 2.908239 1_565
Na9 O123 2.337451 1_555
Na9 O95 2.429082 1_565
Na9 O53 2.550873 1_554
Na9 O125 2.745017 1_555
Na9 O90 2.823633 1_555
Na9 O33 2.842083 1_565
Na9 O23 2.846107 1_555
Na9 O37 2.905205 1_565
Na10 O124 2.358469 1_555
Na10 O90 2.507278 1_555
Na10 O120 2.539170 1_555
Na10 O48 2.773729 1_554
Na10 O34 2.878241 1_555
Na10 O38 2.935069 1_555
Na10 O18 2.945825 1_555
Na10 O92 2.964803 1_565
Na11 O125 2.355502 1_555
Na11 O91 2.501107 1_555
Na11 O121 2.542021 1_555
Na11 O49 2.761650 1_554
Na11 O35 2.888471 1_555
Na11 O39 2.937951 1_555
Na11 O93 2.954773 1_565
Na11 O19 2.955988 1_555
Na12 O120 2.415479 1_555
Na12 O50 2.443680 1_554
Na12 O93 2.511863 1_455
Na12 O122 2.592975 1_555
Na12 O31 2.779498 1_455
Na12 O20 2.904915 1_555
Na12 O94 2.905033 1_555
Na12 O41 2.981050 1_455
Na13 O121 2.417679 1_555
Na13 O51 2.435820 1_554
Na13 O92 2.509641 1_555
Na13 O123 2.588651 1_555
Na13 O30 2.777078 1_555
Na13 O95 2.909921 1_555
Na13 O21 2.914746 1_555
Na13 O40 2.978705 1_555
Na14 O110 2.405885 1_555
Na14 O82 2.453615 1_555
Na14 O81 2.473480 1_555
Na14 O8 2.506545 1_555
Na14 O108 2.841662 1_555
Na14 O38 2.844995 1_556
Na14 O67 2.904171 1_555
Na15 O111 2.403718 1_555
Na15 O83 2.443967 1_555
Na15 O80 2.470010 1_655
Na15 O9 2.516944 1_555
Na15 O39 2.814877 1_556
Na15 O109 2.830643 1_555
Na15 O66 2.921815 1_655
Na16 O73 2.301019 1_555
Na16 O116 2.390564 1_555
Na16 O2 2.434688 1_555
Na16 O74 2.646006 1_555
Na16 O118 2.707448 1_555
Na16 O44 2.931707 1_555
Na16 O64 2.964508 1_555
Na17 O72 2.293592 1_555
Na17 O3 2.374214 1_555
Na17 O117 2.456990 1_555
Na17 O75 2.611123 1_555
Na17 O119 2.851482 1_555
Na17 O65 2.927329 1_555
Na17 O45 2.958748 1_555
Na18 O76 2.308805 1_555
Na18 O86 2.603113 1_555
Na18 O72 2.669152 1_445
Na18 O85 2.674030 1_455
Na18 O89 2.865294 1_445
Na18 O75 2.973065 1_445
Na19 O77 2.350914 1_555
Na19 O73 2.525759 1_545
Na19 O87 2.602568 1_555
Na19 O84 2.751928 1_555
Na19 O88 2.822678 1_545
Na19 O74 2.938005 1_545
Na20 O78 2.365239 1_455
Na20 O80 2.439508 1_545
Na20 O94 2.659404 1_556
Na20 O93 2.808768 1_456
Na20 O91 2.884946 1_446
Na20 O83 2.906709 1_445
Na21 O79 2.363025 1_555
Na21 O81 2.420701 1_545
Na21 O95 2.668718 1_556
Na21 O92 2.816541 1_556
Na21 O90 2.896720 1_546
Na21 O82 2.917927 1_545
Na22 O100 2.421504 1_555
Na22 O110 2.508229 1_555
Na22 O96 2.530339 1_555
Na22 O112 2.664791 1_555
Na22 O108 2.715142 1_555
Na22 O98 3.011076 1_555
Na23 O111 2.478963 1_555
Na23 O101 2.512413 1_555
Na23 O97 2.557837 1_555
Na23 O113 2.616507 1_555
Na23 O109 2.690555 1_555
Na23 O99 2.980195 1_555
Na24 O104 2.374875 1_555
Na24 O118 2.486165 1_555
Na24 O114 2.597733 1_555
Na24 O116 2.674523 1_555
Na24 O102 2.716109 1_555
Na24 O106 2.991023 1_555
Na25 O105 2.302792 1_555
Na25 O119 2.578893 1_555
Na25 O103 2.663415 1_555
Na25 O115 2.686520 1_555
Na25 O117 2.791731 1_555
Na25 O107 2.938682 1_555
Na26 O132 2.570116 1_555
Na26 O124 2.606538 1_555
Na26 O122 2.621635 1_555
Na26 O136 2.670179 1_555
Na26 O120 2.694105 1_555
Na26 O134 2.709405 1_555
Na27 O125 2.586378 1_555
Na27 O133 2.598756 1_555
Na27 O123 2.607609 1_555
Na27 O121 2.672946 1_555
Na27 O137 2.687476 1_555
Na27 O135 2.738389 1_555
Na28 O128 2.480362 1_555
Na28 O138 2.540762 1_555
Na28 O142 2.588293 1_555
Na28 O140 2.764623 1_555
Na28 O126 2.803342 1_555
Na28 O130 2.872670 1_555
Na29 O129 2.451937 1_555
Na29 O127 2.538408 1_555
Na29 O131 2.687158 1_555
Na29 O143 2.687225 1_555
Na29 O141 2.762968 1_555
Na29 O139 2.763761 1_555
O0 S0 1.459900 1_545
O0 Y0 2.204396 1_545
O1 S1 1.457437 1_545
O1 Y1 2.218490 1_545
O2 Si0 1.590164 1_555
O2 Y1 2.163063 1_555
O3 Si1 1.590955 1_555
O3 Y0 2.177785 1_655
O4 Si3 1.573288 1_555
O4 Y1 2.102647 1_545
O5 Si2 1.574259 1_555
O5 Y0 2.103763 1_545
O6 S2 1.463861 1_555
O6 Y2 2.216465 1_455
O7 S3 1.459223 1_555
O7 Y3 2.219619 1_555
O8 Si5 1.586940 1_555
O8 Y3 2.174928 1_565
O9 Si4 1.581662 1_655
O9 Y2 2.192642 1_565
O10 Si6 1.574226 1_545
O10 Y3 2.083093 1_555
O11 Si7 1.575996 1_545
O11 Y2 2.083423 1_555
O12 Si6 1.724592 1_555
O12 Ta1 1.951520 1_555
O13 Si7 1.728175 1_555
O13 Ta0 1.920740 1_555
O14 S2 1.507843 1_555
O14 Ta0 2.261925 1_445
O15 S3 1.501037 1_555
O15 Ta1 2.407495 1_545
O16 Si4 1.745794 1_555
O16 Ta0 1.922896 1_455
O17 Si5 1.727228 1_555
O17 Ta1 1.990181 1_555
O18 Si0 1.735048 1_555
O18 Ta3 1.946185 1_565
O19 Si1 1.734073 1_555
O19 Ta2 1.949615 1_565
O20 Si2 1.716866 1_555
O20 Ta2 1.974990 1_455
O21 Si3 1.718144 1_555
O21 Ta3 1.978491 1_555
O22 S0 1.512054 1_555
O22 Ta2 2.316013 1_465
O23 S1 1.507007 1_555
O23 Ta3 2.343242 1_565
O24 Si8 1.588297 1_555
O24 Y4 2.090768 1_555
O25 S4 1.465573 1_555
O25 Y5 2.220133 1_555
O26 Si9 1.600725 1_555
O26 Y4 2.228190 1_555
O27 Si10 1.592902 1_555
O27 Y5 2.173662 1_555
O28 Si11 1.569572 1_555
O28 Y4 2.154053 1_555
O29 Si12 1.578783 1_555
O29 Y5 2.123290 1_555
O30 Si13 1.591110 1_555
O30 Y6 2.092819 1_555
O31 Si14 1.590991 1_555
O31 Y7 2.088782 1_555
O32 Si15 1.579324 1_555
O32 Y6 2.186857 1_555
O33 Si16 1.580374 1_555
O33 Y7 2.182808 1_555
O34 Si17 1.599087 1_555
O34 Y6 2.223194 1_555
O35 Si18 1.600119 1_555
O35 Y7 2.218804 1_555
O36 Si17 1.702561 1_555
O36 Ta4 1.982729 1_554
O37 Si18 1.702182 1_555
O37 Ta5 1.982169 1_554
O38 Si13 1.693682 1_555
O38 Ta4 2.057341 1_554
O39 Si14 1.693894 1_555
O39 Ta5 2.057140 1_554
O40 Si15 1.711902 1_555
O40 Ta4 1.906790 1_554
O41 Si16 1.712727 1_555
O41 Ta5 1.907621 1_554
O42 Si9 1.697766 1_555
O42 Ta6 1.966760 1_555
O43 Si10 1.729898 1_555
O43 Ta7 1.964248 1_555
O44 Si11 1.705161 1_555
O44 Ta6 1.937159 1_555
O45 Si12 1.738991 1_555
O45 Ta7 1.923057 1_555
O46 Si8 1.698014 1_555
O46 Ta6 1.980665 1_555
O47 S4 1.487185 1_555
O47 Ta7 2.344970 1_555
O48 S5 1.471480 1_555
O48 Y8 2.258732 1_556
O49 S6 1.471165 1_555
O49 Y9 2.257131 1_556
O50 Si19 1.603703 1_555
O50 Y8 2.130178 1_556
O51 Si20 1.604467 1_555
O51 Y9 2.129858 1_556
O52 Si21 1.595779 1_555
O52 Y8 2.137017 1_556
O53 Si22 1.597281 1_555
O53 Y9 2.134299 1_556
O54 S7 1.482466 1_555
O54 Y10 2.238220 1_555
O55 S8 1.461023 1_555
O55 Y11 2.232656 1_555
O56 Si23 1.587329 1_555
O56 Y10 2.086558 1_555
O57 Si24 1.581766 1_555
O57 Y11 2.170537 1_555
O58 Si25 1.599812 1_555
O58 Y10 2.152279 1_555
O59 Si26 1.595589 1_555
O59 Y11 2.139651 1_555
O60 Si25 1.711559 1_555
O60 Ta8 1.954056 1_555
O61 Si26 1.727180 1_555
O61 Ta9 1.934686 1_555
O62 S7 1.491262 1_555
O62 Ta8 2.304586 1_555
O63 S8 1.489202 1_555
O63 Ta9 2.353975 1_555
O64 Si23 1.769207 1_555
O64 Ta8 1.895548 1_555
O65 Si24 1.730908 1_555
O65 Ta9 1.928564 1_555
O66 Si19 1.727776 1_555
O66 Ta10 1.964047 1_555
O67 Si20 1.725246 1_555
O67 Ta11 1.964188 1_555
O68 Si21 1.754404 1_555
O68 Ta10 1.890096 1_555
O69 Si22 1.750691 1_555
O69 Ta11 1.901258 1_555
O70 S5 1.487236 1_555
O70 Ta10 2.298542 1_555
O71 S6 1.481146 1_555
O71 Ta11 2.348347 1_555
O72 Si25 1.614594 1_655
O72 Y0 2.234522 1_655
O73 Si26 1.618418 1_555
O73 Y1 2.215225 1_555
O74 S7 1.477903 1_555
O74 Y1 2.318396 1_555
O75 S8 1.479838 1_555
O75 Y0 2.312723 1_655
O76 Si23 1.590625 1_555
O76 Y0 2.199374 1_545
O77 Si24 1.586394 1_555
O77 Y1 2.220093 1_545
O78 Si19 1.594698 1_655
O78 Y2 2.163268 1_555
O79 Si20 1.594022 1_555
O79 Y3 2.167221 1_555
O80 Si21 1.605200 1_555
O80 Y2 2.275768 1_465
O81 Si22 1.605984 1_555
O81 Y3 2.282373 1_565
O82 S5 1.480041 1_555
O82 Y3 2.328591 1_565
O83 S6 1.482524 1_555
O83 Y2 2.316787 1_565
O84 Si8 1.676170 1_555
O84 Ta1 2.044590 1_545
O85 S4 1.494287 1_555
O85 Ta0 2.281746 1_545
O86 Si9 1.684803 1_555
O86 Ta0 2.009516 1_445
O87 Si10 1.698006 1_555
O87 Ta1 2.046661 1_545
O88 Si11 1.726023 1_555
O88 Ta1 1.916627 1_555
O89 Si12 1.697877 1_555
O89 Ta0 1.945027 1_555
O90 Si13 1.683672 1_555
O90 Ta3 2.032944 1_565
O91 Si14 1.682284 1_555
O91 Ta2 2.035513 1_565
O92 Si15 1.693907 1_555
O92 Ta3 1.936577 1_555
O93 Si16 1.691912 1_555
O93 Ta2 1.942681 1_555
O94 Si17 1.682796 1_555
O94 Ta2 2.055629 1_455
O95 Si18 1.682353 1_555
O95 Ta3 2.054578 1_555
O96 Si6 1.614696 1_545
O96 Y4 2.264692 1_555
O97 Si7 1.615323 1_545
O97 Y5 2.213007 1_555
O98 S2 1.470406 1_555
O98 Y4 2.360448 1_555
O99 S3 1.482352 1_555
O99 Y5 2.310436 1_555
O100 Si5 1.590512 1_555
O100 Y4 2.208492 1_555
O101 Si4 1.588121 1_655
O101 Y5 2.193646 1_555
O102 Si0 1.615288 1_555
O102 Y6 2.245840 1_555
O103 Si1 1.618328 1_555
O103 Y7 2.254414 1_555
O104 Si3 1.589263 1_555
O104 Y6 2.198007 1_555
O105 Si2 1.590649 1_655
O105 Y7 2.198698 1_555
O106 S0 1.476225 1_545
O106 Y6 2.366700 1_555
O107 S1 1.476206 1_545
O107 Y7 2.376024 1_555
O108 S5 1.498094 1_555
O108 Ta4 2.329719 1_555
O109 S6 1.501088 1_555
O109 Ta5 2.318602 1_555
O110 Si20 1.688508 1_555
O110 Ta4 2.033894 1_555
O111 Si19 1.686891 1_655
O111 Ta5 2.038774 1_555
O112 Si21 1.660838 1_545
O112 Ta4 1.992061 1_555
O113 Si22 1.665487 1_545
O113 Ta5 1.991856 1_555
O114 S7 1.483827 1_545
O114 Ta6 2.312039 1_555
O115 S8 1.499634 1_545
O115 Ta7 2.228645 1_555
O116 Si23 1.672164 1_555
O116 Ta6 2.061122 1_555
O117 Si24 1.727692 1_555
O117 Ta7 1.927124 1_555
O118 Si26 1.676727 1_555
O118 Ta6 2.026221 1_555
O119 Si25 1.700350 1_655
O119 Ta7 1.978275 1_555
O120 Si17 1.618638 1_555
O120 Y8 2.257880 1_555
O121 Si18 1.618086 1_555
O121 Y9 2.262852 1_555
O122 Si14 1.622911 1_455
O122 Y8 2.214387 1_555
O123 Si13 1.623350 1_555
O123 Y9 2.217612 1_555
O124 Si15 1.606900 1_565
O124 Y8 2.266350 1_555
O125 Si16 1.607218 1_565
O125 Y9 2.268836 1_555
O126 Si9 1.632741 1_565
O126 Y10 2.262367 1_555
O127 Si10 1.606736 1_565
O127 Y11 2.229683 1_555
O128 Si11 1.611712 1_555
O128 Y10 2.250612 1_555
O129 Si12 1.588377 1_555
O129 Y11 2.257274 1_555
O130 S4 1.489467 1_455
O130 Y10 2.304624 1_555
O131 Si8 1.611744 1_555
O131 Y11 2.196954 1_555
O132 S0 1.486279 1_555
O132 Ta8 2.336964 1_555
O133 S1 1.494194 1_555
O133 Ta9 2.273750 1_555
O134 Si0 1.694288 1_555
O134 Ta8 1.987153 1_555
O135 Si1 1.695220 1_555
O135 Ta9 1.989048 1_555
O136 Si2 1.729018 1_555
O136 Ta8 1.931906 1_555
O137 Si3 1.735773 1_555
O137 Ta9 1.924122 1_555
O138 S2 1.492506 1_555
O138 Ta10 2.332646 1_555
O139 S3 1.491327 1_555
O139 Ta11 2.273956 1_555
O140 Si4 1.718860 1_555
O140 Ta10 1.945873 1_555
O141 Si5 1.744172 1_555
O141 Ta11 1.926172 1_555
O142 Si6 1.705253 1_555
O142 Ta10 1.977084 1_555
O143 Si7 1.691312 1_555
O143 Ta11 1.982744 1_555
