# generated using pymatgen
data_LiNiPO4
_symmetry_space_group_name_H-M   'P 1'
_cell_length_a   9.94973314
_cell_length_b   7.01701709
_cell_length_c   4.91855200
_cell_angle_alpha   90.00271227
_cell_angle_beta   90.00259972
_cell_angle_gamma   90.01864242
_symmetry_Int_Tables_number   1
_chemical_formula_structural   LiNiPO4
_chemical_formula_sum   'Li4 Ni4 P4 O16'
_cell_volume   343.40072727
_cell_formula_units_Z   4
loop_
 _symmetry_equiv_pos_site_id
 _symmetry_equiv_pos_as_xyz
  1  'x, y, z'
loop_
 _atom_site_type_symbol
 _atom_site_label
 _atom_site_symmetry_multiplicity
 _atom_site_fract_x
 _atom_site_fract_y
 _atom_site_fract_z
 _atom_site_occupancy
  Li  Li0  1  0.65277200  0.21317500  0.80427800  1
  Li  Li1  1  0.34718700  0.71311200  0.19574200  1
  Li  Li2  1  0.84719200  0.71311500  0.30432200  1
  Li  Li3  1  0.15278400  0.21313400  0.69561100  1
  Ni  Ni0  1  0.64831300  0.71247600  0.79835400  1
  Ni  Ni1  1  0.85192200  0.21240100  0.29869600  1
  Ni  Ni2  1  0.14807000  0.71236800  0.70162500  1
  Ni  Ni3  1  0.35171200  0.21244200  0.20135900  1
  P  P0  1  0.90328200  0.46337200  0.80972500  1
  P  P1  1  0.40325700  0.46344800  0.69035400  1
  P  P2  1  0.09672300  0.96337800  0.19032000  1
  P  P3  1  0.59673800  0.96343000  0.30959900  1
  O  O0  1  0.94474600  0.96356900  0.26344900  1
  O  O1  1  0.44474600  0.96362400  0.23653800  1
  O  O2  1  0.11870700  0.96273100  0.87683300  1
  O  O3  1  0.66321900  0.14741700  0.19475300  1
  O  O4  1  0.55524700  0.46364600  0.76345100  1
  O  O5  1  0.33679800  0.64739600  0.80523600  1
  O  O6  1  0.33888300  0.27909400  0.80873400  1
  O  O7  1  0.16312900  0.14744700  0.30513600  1
  O  O8  1  0.83697000  0.64740400  0.69491400  1
  O  O9  1  0.66108900  0.77911100  0.19122300  1
  O  O10  1  0.61872600  0.96276800  0.62312400  1
  O  O11  1  0.38128100  0.46276200  0.37684700  1
  O  O12  1  0.88129200  0.46273800  0.12318500  1
  O  O13  1  0.16108000  0.77910800  0.30879100  1
  O  O14  1  0.83888600  0.27908700  0.69124300  1
  O  O15  1  0.05525200  0.46355000  0.73655800  1
loop_
_geom_bond_atom_site_label_1
_geom_bond_atom_site_label_2
_geom_bond_distance
_geom_bond_site_symmetry_2
Li0 O3 1.977981 1_556
Li0 O14 1.987883 1_555
Li0 O10 1.998883 1_545
Li0 O4 2.017929 1_555
Li1 O5 1.977972 1_554
Li1 O13 1.988243 1_555
Li1 O11 1.998773 1_555
Li1 O1 2.017761 1_555
Li2 O8 1.978340 1_555
Li2 O9 1.988240 1_555
Li2 O12 1.998959 1_555
Li2 O0 2.017446 1_555
Li3 O7 1.977779 1_555
Li3 O6 1.987884 1_555
Li3 O2 1.999147 1_545
Li3 O15 2.017678 1_555
Ni0 O10 1.978523 1_555
Ni0 O4 1.983555 1_555
Ni0 O9 1.992136 1_556
Ni0 O8 1.997855 1_555
Ni1 O12 1.978928 1_555
Ni1 O0 1.983129 1_545
Ni1 O14 1.990882 1_555
Ni1 O3 1.998453 1_555
Ni2 O2 1.978526 1_555
Ni2 O15 1.982365 1_555
Ni2 O13 1.992346 1_555
Ni2 O5 1.998540 1_555
Ni3 O11 1.978981 1_555
Ni3 O1 1.983995 1_545
Ni3 O6 1.991096 1_554
Ni3 O7 1.997194 1_555
O0 P2 1.554338 1_655
O1 P3 1.554374 1_555
O2 P2 1.557356 1_556
O3 P3 1.556585 1_545
O4 P1 1.554395 1_555
O5 P1 1.556642 1_555
O6 P1 1.556366 1_555
O7 P2 1.556626 1_545
O8 P0 1.556406 1_555
O9 P3 1.556361 1_555
O10 P3 1.557528 1_555
O11 P1 1.557423 1_555
O12 P0 1.557233 1_554
O13 P2 1.556299 1_555
O14 P0 1.556174 1_555
O15 P0 1.554313 1_455
