# generated using pymatgen
data_CeGeAu
_symmetry_space_group_name_H-M   'P 1'
_cell_length_a   4.48078677
_cell_length_b   7.54920723
_cell_length_c   7.65075206
_cell_angle_alpha   90.00000000
_cell_angle_beta   90.00000000
_cell_angle_gamma   90.00000000
_symmetry_Int_Tables_number   1
_chemical_formula_structural   CeGeAu
_chemical_formula_sum   'Ce4 Ge4 Au4'
_cell_volume   258.79730676
_cell_formula_units_Z   4
loop_
 _symmetry_equiv_pos_site_id
 _symmetry_equiv_pos_as_xyz
  1  'x, y, z'
loop_
 _atom_site_type_symbol
 _atom_site_label
 _atom_site_symmetry_multiplicity
 _atom_site_fract_x
 _atom_site_fract_y
 _atom_site_fract_z
 _atom_site_occupancy
  Ce  Ce0  1  0.75000000  0.49990659  0.20860228  1
  Ce  Ce1  1  0.25000000  0.00009341  0.70860228  1
  Ce  Ce2  1  0.75000000  0.99990659  0.29139772  1
  Ce  Ce3  1  0.25000000  0.50009341  0.79139772  1
  Ge  Ge0  1  0.25000000  0.70445335  0.40841500  1
  Ge  Ge1  1  0.25000000  0.20445335  0.09158500  1
  Ge  Ge2  1  0.75000000  0.29554665  0.59158500  1
  Ge  Ge3  1  0.75000000  0.79554665  0.90841500  1
  Au  Au0  1  0.25000000  0.79618385  0.08072643  1
  Au  Au1  1  0.25000000  0.29618385  0.41927357  1
  Au  Au2  1  0.75000000  0.70381615  0.58072643  1
  Au  Au3  1  0.75000000  0.20381615  0.91927357  1
loop_
_geom_bond_atom_site_label_1
_geom_bond_atom_site_label_2
_geom_bond_distance
_geom_bond_site_symmetry_2
Ce0 Ge0 3.121024 1_655
Ce0 Ge0 3.121024 1_555
Ce0 Ge3 3.202466 1_554
Ce0 Ge1 3.285685 1_655
Ce0 Ge1 3.285685 1_555
Ce0 Ge2 3.311437 1_555
Ce1 Ge3 3.121024 1_545
Ce1 Ge3 3.121024 1_445
Ce1 Ge0 3.202466 1_545
Ce1 Ge2 3.285685 1_455
Ce1 Ge2 3.285685 1_555
Ce1 Ge1 3.311437 1_556
Ce2 Ge1 3.121024 1_665
Ce2 Ge1 3.121024 1_565
Ce2 Ge2 3.202466 1_565
Ce2 Ge0 3.285685 1_655
Ce2 Ge0 3.285685 1_555
Ce2 Ge3 3.311437 1_554
Ce3 Ge2 3.121024 1_555
Ce3 Ge2 3.121024 1_455
Ce3 Ge1 3.202466 1_556
Ce3 Ge3 3.285685 1_555
Ce3 Ge3 3.285685 1_455
Ce3 Ge0 3.311437 1_555
Au0 Ge3 2.599487 1_554
Au0 Ge3 2.599487 1_454
Au0 Ge0 2.600945 1_555
Au0 Ge1 3.083230 1_565
Au0 Ce3 3.145835 1_554
Au0 Ce2 3.159512 1_555
Au0 Ce2 3.159512 1_455
Au0 Ce1 3.236540 1_564
Au0 Ce0 3.313482 1_455
Au0 Ce0 3.313482 1_555
Au1 Ge2 2.599487 1_555
Au1 Ge2 2.599487 1_455
Au1 Ge1 2.600945 1_555
Au1 Ge0 3.083230 1_555
Au1 Ce1 3.145835 1_555
Au1 Ce0 3.159512 1_555
Au1 Ce0 3.159512 1_455
Au1 Ce3 3.236540 1_555
Au1 Ce2 3.313482 1_545
Au1 Ce2 3.313482 1_445
Au2 Ge0 2.599487 1_555
Au2 Ge0 2.599487 1_655
Au2 Ge3 2.600945 1_555
Au2 Ge2 3.083230 1_555
Au2 Ce2 3.145835 1_555
Au2 Ce3 3.159512 1_655
Au2 Ce3 3.159512 1_555
Au2 Ce0 3.236540 1_555
Au2 Ce1 3.313482 1_565
Au2 Ce1 3.313482 1_665
Au3 Ge1 2.599487 1_556
Au3 Ge1 2.599487 1_656
Au3 Ge2 2.600945 1_555
Au3 Ge3 3.083230 1_545
Au3 Ce0 3.145835 1_556
Au3 Ce1 3.159512 1_555
Au3 Ce1 3.159512 1_655
Au3 Ce2 3.236540 1_546
Au3 Ce3 3.313482 1_655
Au3 Ce3 3.313482 1_555
