# generated using pymatgen
data_Na5Sc2Ta2Si3(PO8)3
_symmetry_space_group_name_H-M   'P 1'
_cell_length_a   9.00961494
_cell_length_b   9.02539104
_cell_length_c   22.52226853
_cell_angle_alpha   90.07342987
_cell_angle_beta   90.00864030
_cell_angle_gamma   119.70603638
_symmetry_Int_Tables_number   1
_chemical_formula_structural   Na5Sc2Ta2Si3(PO8)3
_chemical_formula_sum   'Na15 Sc6 Ta6 Si9 P9 O72'
_cell_volume   1590.71851422
_cell_formula_units_Z   3
loop_
 _symmetry_equiv_pos_site_id
 _symmetry_equiv_pos_as_xyz
  1  'x, y, z'
loop_
 _atom_site_type_symbol
 _atom_site_label
 _atom_site_symmetry_multiplicity
 _atom_site_fract_x
 _atom_site_fract_y
 _atom_site_fract_z
 _atom_site_occupancy
  Na  Na0  1  0.98998469  0.62778613  0.24516487  1
  Na  Na1  1  0.36932272  0.01046780  0.74569392  1
  Na  Na2  1  0.03789796  0.69510332  0.57851577  1
  Na  Na3  1  0.64772600  0.96144297  0.58150978  1
  Na  Na4  1  0.30252211  0.96073462  0.07827067  1
  Na  Na5  1  0.03625295  0.35244021  0.08319278  1
  Na  Na6  1  0.97946935  0.67895908  0.91593841  1
  Na  Na7  1  0.97284473  0.29840317  0.41038659  1
  Na  Na8  1  0.32518576  0.02200484  0.41548977  1
  Na  Na9  1  0.99126403  0.98814427  0.49344191  1
  Na  Na10  1  0.99583633  0.00242619  0.99195630  1
  Na  Na11  1  0.67220906  0.32708079  0.82752009  1
  Na  Na12  1  0.66193472  0.32872676  0.32583908  1
  Na  Na13  1  0.35312678  0.65885147  0.16181843  1
  Na  Na14  1  0.33819240  0.64383435  0.66137169  1
  Sc  Sc0  1  0.98995254  0.99581632  0.35240810  1
  Sc  Sc1  1  0.99898966  0.00787180  0.85321002  1
  Sc  Sc2  1  0.66708794  0.33512244  0.68697671  1
  Sc  Sc3  1  0.66552476  0.33225631  0.18625427  1
  Sc  Sc4  1  0.33556646  0.66635594  0.01891075  1
  Sc  Sc5  1  0.33977220  0.66983898  0.51943013  1
  Ta  Ta0  1  0.99745693  0.00066695  0.64695584  1
  Ta  Ta1  1  0.99877532  0.00176350  0.14672452  1
  Ta  Ta2  1  0.65842036  0.33083627  0.97903459  1
  Ta  Ta3  1  0.66501828  0.33839929  0.47959429  1
  Ta  Ta4  1  0.33472464  0.66667305  0.31295563  1
  Ta  Ta5  1  0.34002341  0.66965612  0.81291385  1
  Si  Si0  1  0.00234239  0.29676446  0.25275678  1
  Si  Si1  1  0.70631086  0.99978920  0.75170829  1
  Si  Si2  1  0.37193995  0.04424024  0.58529693  1
  Si  Si3  1  0.66529630  0.62439607  0.58635905  1
  Si  Si4  1  0.95492427  0.62661415  0.08416689  1
  Si  Si5  1  0.37497627  0.33455058  0.08585887  1
  Si  Si6  1  0.33631581  0.96255537  0.91826824  1
  Si  Si7  1  0.62758042  0.96116021  0.41933729  1
  Si  Si8  1  0.03901428  0.66543658  0.41847975  1
  P  P0  1  0.29129197  0.99827471  0.25205172  1
  P  P1  1  0.70631357  0.71190254  0.24996591  1
  P  P2  1  0.28570705  0.29169196  0.75124283  1
  P  P3  1  0.00228670  0.70911113  0.75274050  1
  P  P4  1  0.95458893  0.32915633  0.58323376  1
  P  P5  1  0.67056521  0.04637631  0.08321003  1
  P  P6  1  0.62240342  0.66201869  0.91719779  1
  P  P7  1  0.04043501  0.37673972  0.91804098  1
  P  P8  1  0.33961994  0.38178000  0.41647037  1
  O  O0  1  0.20546891  0.01249530  0.30822741  1
  O  O1  1  0.81869663  0.79385274  0.30432844  1
  O  O2  1  0.98776877  0.19146281  0.31177123  1
  O  O3  1  0.20529378  0.17855678  0.80482917  1
  O  O4  1  0.98862252  0.79501445  0.80856730  1
  O  O5  1  0.82109011  0.01575492  0.80723758  1
  O  O6  1  0.80157180  0.97757743  0.69051829  1
  O  O7  1  0.16973987  0.19831901  0.69510887  1
  O  O8  1  0.03179397  0.83097243  0.69676085  1
  O  O9  1  0.80071928  0.82719835  0.19435470  1
  O  O10  1  0.01947842  0.19243555  0.19307345  1
  O  O11  1  0.16954636  0.97005599  0.19634218  1
  O  O12  1  0.86958411  0.35620594  0.63683888  1
  O  O13  1  0.49044528  0.12449452  0.64281457  1
  O  O14  1  0.65247220  0.51417286  0.64270837  1
  O  O15  1  0.87630261  0.50839073  0.14198598  1
  O  O16  1  0.64091072  0.12581750  0.13801147  1
  O  O17  1  0.48643795  0.35103361  0.14244046  1
  O  O18  1  0.46974915  0.29890939  0.02675251  1
  O  O19  1  0.83477670  0.52724304  0.02445519  1
  O  O20  1  0.70230191  0.16653490  0.02795440  1
  O  O21  1  0.47249080  0.16557434  0.52556749  1
  O  O22  1  0.70025021  0.53086929  0.52694731  1
  O  O23  1  0.83847257  0.29844319  0.52605501  1
  O  O24  1  0.53701322  0.68179470  0.97224093  1
  O  O25  1  0.13773866  0.45730852  0.97570982  1
  O  O26  1  0.30970137  0.85002384  0.97694296  1
  O  O27  1  0.54424949  0.85815801  0.47937612  1
  O  O28  1  0.30583701  0.46035914  0.47032027  1
  O  O29  1  0.14882870  0.68811511  0.47731903  1
  O  O30  1  0.13829369  0.63423630  0.35942705  1
  O  O31  1  0.49699436  0.85633458  0.36208607  1
  O  O32  1  0.36297617  0.49448442  0.36013501  1
  O  O33  1  0.13987184  0.49834069  0.86430391  1
  O  O34  1  0.35786477  0.85650963  0.85942235  1
  O  O35  1  0.50733865  0.63860486  0.86104125  1
  O  O36  1  0.02735720  0.83668640  0.41077441  1
  O  O37  1  0.82326280  0.00260282  0.41377267  1
  O  O38  1  0.19040073  0.19905811  0.40902945  1
  O  O39  1  0.01355847  0.19783607  0.91195050  1
  O  O40  1  0.16582020  0.97713667  0.91124238  1
  O  O41  1  0.80446199  0.80934995  0.91081480  1
  O  O42  1  0.96104539  0.15858888  0.58877416  1
  O  O43  1  0.18117631  0.02943647  0.59086449  1
  O  O44  1  0.84773499  0.81494609  0.59060461  1
  O  O45  1  0.97135021  0.81784819  0.09103140  1
  O  O46  1  0.84124433  0.03947350  0.08872315  1
  O  O47  1  0.18461742  0.15211786  0.09079939  1
  O  O48  1  0.66475309  0.15405511  0.74823094  1
  O  O49  1  0.46396970  0.31339050  0.74363656  1
  O  O50  1  0.85202244  0.53028327  0.74546461  1
  O  O51  1  0.68656275  0.53490627  0.24323653  1
  O  O52  1  0.84382573  0.33278246  0.24832449  1
  O  O53  1  0.46965682  0.14765996  0.24500888  1
  O  O54  1  0.63587604  0.49388645  0.92122768  1
  O  O55  1  0.86437654  0.37548189  0.92009154  1
  O  O56  1  0.51555272  0.14945714  0.92247225  1
  O  O57  1  0.63052288  0.14873620  0.42134136  1
  O  O58  1  0.50634332  0.36855115  0.42186783  1
  O  O59  1  0.85342784  0.48435641  0.42241050  1
  O  O60  1  0.33350725  0.48729971  0.07855959  1
  O  O61  1  0.14947649  0.65937695  0.07813110  1
  O  O62  1  0.51678938  0.86878770  0.07507991  1
  O  O63  1  0.33813842  0.85003613  0.57952322  1
  O  O64  1  0.50989920  0.66228619  0.58063528  1
  O  O65  1  0.13195325  0.48279549  0.57596895  1
  O  O66  1  0.29522502  0.82439618  0.25477201  1
  O  O67  1  0.52952357  0.70270820  0.25512891  1
  O  O68  1  0.18211616  0.48832672  0.25496154  1
  O  O69  1  0.29433772  0.46845185  0.75694822  1
  O  O70  1  0.17512577  0.70202488  0.75554357  1
  O  O71  1  0.51396790  0.81773913  0.75654557  1
loop_
_geom_bond_atom_site_label_1
_geom_bond_atom_site_label_2
_geom_bond_distance
_geom_bond_site_symmetry_2
Na0 O52 2.313820 1_555
Na0 O51 2.430318 1_555
Na0 O66 2.433292 1_655
Na0 O15 2.551350 1_555
Na0 O68 2.605653 1_655
Na0 O30 2.886682 1_655
Na0 O11 2.902618 1_655
Na0 O1 2.948141 1_555
Na1 O48 2.312680 1_555
Na1 O49 2.427705 1_555
Na1 O70 2.456514 1_545
Na1 O13 2.551987 1_555
Na1 O71 2.651682 1_545
Na1 O8 2.863307 1_545
Na1 O34 2.892988 1_545
Na1 O3 2.911494 1_555
Na2 O63 2.350351 1_555
Na2 O65 2.449917 1_555
Na2 O44 2.452646 1_455
Na2 O29 2.502063 1_555
Na2 O43 2.643132 1_565
Na2 O22 2.885440 1_455
Na2 O8 2.942386 1_555
Na2 O12 2.965545 1_455
Na3 O64 2.347195 1_555
Na3 O63 2.452191 1_555
Na3 O27 2.482328 1_555
Na3 O42 2.486450 1_565
Na3 O44 2.720173 1_555
Na3 O6 2.787127 1_555
Na3 O13 2.853446 1_565
Na3 O23 2.931595 1_565
Na4 O61 2.362625 1_555
Na4 O62 2.451156 1_555
Na4 O47 2.451334 1_565
Na4 O26 2.503792 1_554
Na4 O45 2.614565 1_455
Na4 O18 2.895510 1_565
Na4 O11 2.935005 1_555
Na4 O16 2.969304 1_565
Na5 O60 2.331207 1_555
Na5 O61 2.434714 1_555
Na5 O46 2.482618 1_455
Na5 O25 2.596298 1_554
Na5 O47 2.735127 1_555
Na5 O15 2.795949 1_455
Na5 O10 2.832965 1_555
Na5 O20 2.899282 1_455
Na6 O40 2.365398 1_655
Na6 O41 2.392430 1_555
Na6 O55 2.402478 1_555
Na6 O4 2.621598 1_555
Na6 O54 2.695014 1_555
Na6 O19 2.790724 1_556
Na6 O33 2.903242 1_655
Na6 O26 2.926481 1_655
Na7 O37 2.320362 1_555
Na7 O59 2.415808 1_555
Na7 O2 2.450692 1_555
Na7 O38 2.527575 1_655
Na7 O57 2.696255 1_555
Na7 O23 2.872918 1_555
Na7 O30 2.873651 1_655
Na7 O28 2.933750 1_655
Na8 O36 2.358037 1_545
Na8 O57 2.403005 1_555
Na8 O38 2.444005 1_555
Na8 O0 2.629398 1_555
Na8 O58 2.721482 1_555
Na8 O21 2.805921 1_555
Na8 O31 2.892812 1_545
Na8 O29 2.968293 1_545
Na9 O37 2.392334 1_565
Na9 O36 2.423857 1_655
Na9 O44 2.628823 1_555
Na9 O38 2.661275 1_665
Na9 O43 2.691789 1_665
Na9 O42 2.730828 1_565
Na10 O40 2.459349 1_645
Na10 O39 2.472242 1_655
Na10 O41 2.522355 1_545
Na10 O46 2.694841 1_556
Na10 O47 2.718031 1_656
Na10 O45 2.729179 1_546
Na11 O48 2.349683 1_555
Na11 O50 2.543290 1_555
Na11 O55 2.604283 1_555
Na11 O49 2.621653 1_555
Na11 O56 2.627280 1_555
Na11 O54 2.703402 1_555
Na12 O52 2.382500 1_555
Na12 O53 2.484230 1_555
Na12 O51 2.563756 1_555
Na12 O57 2.626600 1_555
Na12 O59 2.696191 1_555
Na12 O58 2.696335 1_555
Na13 O60 2.380345 1_555
Na13 O67 2.544092 1_555
Na13 O68 2.608137 1_555
Na13 O62 2.611904 1_555
Na13 O61 2.631869 1_555
Na13 O66 2.766252 1_555
Na14 O64 2.339599 1_555
Na14 O65 2.565145 1_555
Na14 O69 2.585439 1_555
Na14 O63 2.621331 1_555
Na14 O71 2.663281 1_555
Na14 O70 2.774091 1_555
O0 P0 1.520967 1_545
O0 Sc0 2.119984 1_445
O1 P1 1.525259 1_555
O1 Sc0 2.020610 1_555
O2 Si0 1.602093 1_655
O2 Sc0 1.998652 1_545
O3 P2 1.514702 1_555
O3 Sc1 2.045079 1_455
O4 P3 1.513053 1_655
O4 Sc1 2.127803 1_565
O5 Si1 1.582952 1_545
O5 Sc1 1.938768 1_555
O6 Si1 1.687081 1_555
O6 Ta0 1.938367 1_565
O7 P2 1.588839 1_555
O7 Ta0 2.004491 1_455
O8 P3 1.607417 1_555
O8 Ta0 2.042922 1_465
O9 P1 1.581602 1_555
O9 Ta1 2.008906 1_565
O10 Si0 1.690635 1_555
O10 Ta1 1.939883 1_455
O11 P0 1.601309 1_555
O11 Ta1 2.033377 1_465
O12 P4 1.512802 1_555
O12 Sc2 2.072902 1_555
O13 Si2 1.604196 1_555
O13 Sc2 2.032757 1_555
O14 Si3 1.582089 1_555
O14 Sc2 1.959042 1_555
O15 Si4 1.609594 1_555
O15 Sc3 2.034723 1_555
O16 P5 1.515428 1_555
O16 Sc3 2.070375 1_555
O17 Si5 1.582916 1_555
O17 Sc3 1.968964 1_555
O18 Si5 1.695922 1_555
O18 Ta2 1.908780 1_554
O19 Si4 1.678990 1_555
O19 Ta2 1.979074 1_554
O20 P5 1.582031 1_555
O20 Ta2 2.038207 1_554
O21 Si2 1.688342 1_555
O21 Ta3 1.958840 1_555
O22 Si3 1.692005 1_555
O22 Ta3 1.924682 1_555
O23 P4 1.594045 1_555
O23 Ta3 2.055779 1_555
O24 P6 1.515385 1_555
O24 Sc4 2.041721 1_556
O25 P7 1.532876 1_555
O25 Sc4 2.084494 1_556
O26 Si6 1.611683 1_555
O26 Sc4 2.020500 1_556
O27 Si7 1.602546 1_555
O27 Sc5 1.999409 1_555
O28 P8 1.509438 1_555
O28 Sc5 2.076777 1_555
O29 Si8 1.604718 1_555
O29 Sc5 2.041426 1_555
O30 Si8 1.702148 1_555
O30 Ta4 1.949638 1_555
O31 Si7 1.683791 1_555
O31 Ta4 1.950977 1_555
O32 P8 1.574826 1_555
O32 Ta4 2.001302 1_555
O33 P7 1.581500 1_555
O33 Ta5 2.055232 1_555
O34 Si6 1.700373 1_555
O34 Ta5 1.921934 1_555
O35 P6 1.581400 1_555
O35 Ta5 1.986163 1_555
O36 Si8 1.609839 1_555
O36 Sc0 2.094920 1_455
O37 Si7 1.615698 1_545
O37 Sc0 2.064190 1_545
O38 P8 1.535256 1_555
O38 Sc0 2.227684 1_445
O39 P7 1.515434 1_555
O39 Sc1 2.116148 1_455
O40 Si6 1.613163 1_555
O40 Sc1 2.111415 1_465
O41 P6 1.522563 1_555
O41 Sc1 2.204445 1_565
O42 P4 1.574187 1_555
O42 Ta0 2.079495 1_555
O43 Si2 1.661338 1_555
O43 Ta0 1.994664 1_455
O44 Si3 1.693057 1_555
O44 Ta0 1.998277 1_565
O45 Si4 1.664603 1_555
O45 Ta1 1.994437 1_565
O46 P5 1.574451 1_555
O46 Ta1 2.077509 1_555
O47 Si5 1.693112 1_555
O47 Ta1 1.996140 1_455
O48 Si1 1.613007 1_545
O48 Sc2 2.132143 1_555
O49 P2 1.528275 1_555
O49 Sc2 2.159048 1_555
O50 P3 1.516015 1_655
O50 Sc2 2.167633 1_555
O51 P1 1.524517 1_555
O51 Sc3 2.162986 1_555
O52 Si0 1.617249 1_655
O52 Sc3 2.127595 1_555
O53 P0 1.509525 1_545
O53 Sc3 2.175642 1_555
O54 P6 1.583843 1_555
O54 Ta2 2.050114 1_555
O55 P7 1.581306 1_655
O55 Ta2 2.151505 1_555
O56 Si6 1.661919 1_545
O56 Ta2 1.966034 1_555
O57 Si7 1.680515 1_545
O57 Ta3 2.053036 1_555
O58 P8 1.569430 1_555
O58 Ta3 2.047945 1_555
O59 Si8 1.663334 1_655
O59 Ta3 2.016011 1_555
O60 Si5 1.605700 1_555
O60 Sc4 2.095859 1_555
O61 Si4 1.632435 1_455
O61 Sc4 2.118994 1_555
O62 P5 1.523262 1_565
O62 Sc4 2.154342 1_555
O63 Si2 1.628563 1_565
O63 Sc5 2.120165 1_555
O64 Si3 1.602603 1_555
O64 Sc5 2.087443 1_555
O65 P4 1.519099 1_455
O65 Sc5 2.202413 1_555
O66 P0 1.588440 1_555
O66 Ta4 2.092124 1_555
O67 P1 1.557733 1_555
O67 Ta4 2.078050 1_555
O68 Si0 1.685052 1_555
O68 Ta4 1.997016 1_555
O69 P2 1.563378 1_555
O69 Ta5 2.075824 1_555
O70 P3 1.591125 1_555
O70 Ta5 2.095862 1_555
O71 Si1 1.700924 1_555
O71 Ta5 1.945012 1_555
