# generated using pymatgen
data_Zr5P7Pd9
_symmetry_space_group_name_H-M   'P 1'
_cell_length_a   13.63646145
_cell_length_b   13.63646145
_cell_length_c   3.83168234
_cell_angle_alpha   90.00000000
_cell_angle_beta   90.00000000
_cell_angle_gamma   152.33494622
_symmetry_Int_Tables_number   1
_chemical_formula_structural   Zr5P7Pd9
_chemical_formula_sum   'Zr5 P7 Pd9'
_cell_volume   330.82122739
_cell_formula_units_Z   1
loop_
 _symmetry_equiv_pos_site_id
 _symmetry_equiv_pos_as_xyz
  1  'x, y, z'
loop_
 _atom_site_type_symbol
 _atom_site_label
 _atom_site_symmetry_multiplicity
 _atom_site_fract_x
 _atom_site_fract_y
 _atom_site_fract_z
 _atom_site_occupancy
  Zr  Zr0  1  0.91181592  0.45436237  0.50000000  1
  Zr  Zr1  1  0.45436237  0.91181592  0.50000000  1
  Zr  Zr2  1  0.47351808  0.47351808  0.00000000  1
  Zr  Zr3  1  0.17821896  0.00088213  0.00000000  1
  Zr  Zr4  1  0.00088213  0.17821896  0.00000000  1
  P  P0  1  0.74146224  0.02984807  0.50000000  1
  P  P1  1  0.87212500  0.87212500  -0.00000000  1
  P  P2  1  0.61073789  0.18278379  0.00000000  1
  P  P3  1  0.18278379  0.61073789  0.00000000  1
  P  P4  1  0.44284263  0.30640989  0.50000000  1
  P  P5  1  0.02984807  0.74146224  0.50000000  1
  P  P6  1  0.30640989  0.44284263  0.50000000  1
  Pd  Pd0  1  0.78029038  0.50124588  0.00000000  1
  Pd  Pd1  1  0.50124588  0.78029038  0.00000000  1
  Pd  Pd2  1  0.11759680  0.11759680  0.50000000  1
  Pd  Pd3  1  0.21019034  0.81646024  -0.00000000  1
  Pd  Pd4  1  0.13881046  0.45525699  0.50000000  1
  Pd  Pd5  1  0.45525699  0.13881046  0.50000000  1
  Pd  Pd6  1  0.68142471  0.79891623  0.50000000  1
  Pd  Pd7  1  0.79891623  0.68142471  0.50000000  1
  Pd  Pd8  1  0.81646024  0.21019034  -0.00000000  1
loop_
_geom_bond_atom_site_label_1
_geom_bond_atom_site_label_2
_geom_bond_distance
_geom_bond_site_symmetry_2
P0 Pd6 2.453614 1_545
P0 Pd1 2.497099 1_546
P0 Pd1 2.497099 1_545
P0 Pd8 2.511794 1_556
P0 Pd8 2.511794 1_555
P0 Zr1 2.599241 1_545
P0 Pd4 2.708020 1_655
P0 Zr4 2.756830 1_656
P0 Zr4 2.756830 1_655
P1 Pd2 2.496477 1_665
P1 Pd2 2.496477 1_664
P1 Zr2 2.599132 1_555
P1 Pd7 2.613613 1_555
P1 Pd6 2.613613 1_555
P1 Pd6 2.613613 1_554
P1 Pd7 2.613613 1_554
P1 Zr4 2.742919 1_665
P1 Zr3 2.742919 1_665
P2 Pd8 2.480399 1_555
P2 Pd5 2.504649 1_555
P2 Pd5 2.504649 1_554
P2 Pd0 2.533596 1_555
P2 Pd3 2.540942 1_545
P2 Zr0 2.703472 1_555
P2 Zr0 2.703472 1_554
P2 Zr1 2.813157 1_544
P2 Zr1 2.813157 1_545
P3 Pd3 2.480399 1_555
P3 Pd4 2.504649 1_555
P3 Pd4 2.504649 1_554
P3 Pd1 2.533596 1_555
P3 Pd8 2.540942 1_455
P3 Zr1 2.703472 1_554
P3 Zr1 2.703472 1_555
P3 Zr0 2.813157 1_454
P3 Zr0 2.813157 1_455
P4 Pd7 2.396704 1_555
P4 Pd5 2.436666 1_555
P4 Pd2 2.464211 1_555
P4 Zr2 2.711034 1_556
P4 Zr2 2.711034 1_555
P4 Zr3 2.723803 1_556
P4 Zr3 2.723803 1_555
P5 Pd7 2.453614 1_455
P5 Pd0 2.497099 1_455
P5 Pd0 2.497099 1_456
P5 Pd3 2.511794 1_556
P5 Pd3 2.511794 1_555
P5 Zr0 2.599241 1_455
P5 Pd5 2.708020 1_565
P5 Zr3 2.756830 1_565
P5 Zr3 2.756830 1_566
P6 Pd6 2.396704 1_555
P6 Pd4 2.436666 1_555
P6 Pd2 2.464211 1_555
P6 Zr2 2.711034 1_556
P6 Zr2 2.711034 1_555
P6 Zr4 2.723803 1_555
P6 Zr4 2.723803 1_556
Pd0 Pd3 2.864850 1_655
Pd0 Pd7 2.943874 1_555
Pd0 Pd7 2.943874 1_554
Pd0 Pd5 2.989864 1_555
Pd0 Pd5 2.989864 1_554
Pd0 Zr0 3.054033 1_555
Pd0 Zr0 3.054033 1_554
Pd0 Zr3 3.221316 1_665
Pd1 Pd8 2.864850 1_565
Pd1 Pd6 2.943874 1_555
Pd1 Pd6 2.943874 1_554
Pd1 Pd4 2.989864 1_554
Pd1 Pd4 2.989864 1_555
Pd1 Zr1 3.054033 1_555
Pd1 Zr1 3.054033 1_554
Pd1 Zr4 3.221316 1_665
Pd2 Pd7 2.911503 1_445
Pd2 Pd6 2.911503 1_445
Pd2 Zr2 3.009411 1_556
Pd2 Zr2 3.009411 1_555
Pd2 Zr4 3.036039 1_555
Pd2 Zr4 3.036039 1_556
Pd2 Zr3 3.036039 1_555
Pd2 Zr3 3.036039 1_556
Pd3 Pd5 2.853044 1_564
Pd3 Pd5 2.853044 1_565
Pd3 Zr3 2.908050 1_565
Pd3 Zr1 2.962864 1_555
Pd3 Zr1 2.962864 1_554
Pd3 Zr0 3.003191 1_454
Pd3 Zr0 3.003191 1_455
Pd4 Pd8 2.853044 1_456
Pd4 Pd8 2.853044 1_455
Pd4 Zr4 2.982209 1_555
Pd4 Zr4 2.982209 1_556
Pd4 Zr0 3.084603 1_455
Pd4 Zr1 3.134119 1_555
Pd5 Zr3 2.982209 1_555
Pd5 Zr3 2.982209 1_556
Pd5 Zr1 3.084603 1_545
Pd5 Zr0 3.134119 1_555
Pd6 Zr2 3.018907 1_555
Pd6 Zr2 3.018907 1_556
Pd6 Zr4 3.080311 1_665
Pd6 Zr4 3.080311 1_666
Pd7 Zr2 3.018907 1_555
Pd7 Zr2 3.018907 1_556
Pd7 Zr3 3.080311 1_665
Pd7 Zr3 3.080311 1_666
Pd8 Zr4 2.908050 1_655
Pd8 Zr0 2.962864 1_555
Pd8 Zr0 2.962864 1_554
Pd8 Zr1 3.003191 1_545
Pd8 Zr1 3.003191 1_544
