# generated using pymatgen
data_Mg3Si2H4O9
_symmetry_space_group_name_H-M   'P 1'
_cell_length_a   5.37139430
_cell_length_b   5.37139430
_cell_length_c   14.80712700
_cell_angle_alpha   90.00000000
_cell_angle_beta   90.00000000
_cell_angle_gamma   120.00000365
_symmetry_Int_Tables_number   1
_chemical_formula_structural   Mg3Si2H4O9
_chemical_formula_sum   'Mg6 Si4 H8 O18'
_cell_volume   369.97764562
_cell_formula_units_Z   2
loop_
 _symmetry_equiv_pos_site_id
 _symmetry_equiv_pos_as_xyz
  1  'x, y, z'
loop_
 _atom_site_type_symbol
 _atom_site_label
 _atom_site_symmetry_multiplicity
 _atom_site_fract_x
 _atom_site_fract_y
 _atom_site_fract_z
 _atom_site_occupancy
  Mg  Mg0  1  0.33125200  0.00000000  0.22241900  1
  Mg  Mg1  1  0.33125200  0.33125200  0.72241900  1
  Mg  Mg2  1  0.00000000  0.66874800  0.72241900  1
  Mg  Mg3  1  0.00000000  0.33125200  0.22241900  1
  Mg  Mg4  1  0.66874800  0.00000000  0.72241900  1
  Mg  Mg5  1  0.66874800  0.66874800  0.22241900  1
  Si  Si0  1  0.33333300  0.66666700  0.03215100  1
  Si  Si1  1  0.66666700  0.33333300  0.53215100  1
  Si  Si2  1  0.33333300  0.66666700  0.53215100  1
  Si  Si3  1  0.66666700  0.33333300  0.03215100  1
  H  H0  1  0.00000000  0.00000000  0.58249100  1
  H  H1  1  0.00000000  0.00000000  0.08249100  1
  H  H2  1  0.35116700  0.00000000  0.85393100  1
  H  H3  1  0.35116700  0.35116700  0.35393100  1
  H  H4  1  0.00000000  0.64883300  0.35393100  1
  H  H5  1  0.00000000  0.35116700  0.85393100  1
  H  H6  1  0.64883300  0.64883300  0.85393100  1
  H  H7  1  0.64883300  0.00000000  0.35393100  1
  O  O0  1  0.00000000  0.00000000  0.64778700  1
  O  O1  1  0.00000000  0.00000000  0.14778700  1
  O  O2  1  0.33333300  0.66666700  0.14086700  1
  O  O3  1  0.66666700  0.33333300  0.64086700  1
  O  O4  1  0.33333300  0.66666700  0.64086700  1
  O  O5  1  0.66666700  0.33333300  0.14086700  1
  O  O6  1  0.48816500  0.00000000  0.99076400  1
  O  O7  1  0.48816500  0.48816500  0.49076400  1
  O  O8  1  0.00000000  0.51183500  0.49076400  1
  O  O9  1  0.00000000  0.48816500  0.99076400  1
  O  O10  1  0.51183500  0.51183500  0.99076400  1
  O  O11  1  0.51183500  0.00000000  0.49076400  1
  O  O12  1  0.66385300  0.00000000  0.28854700  1
  O  O13  1  0.66385300  0.66385300  0.78854700  1
  O  O14  1  0.00000000  0.33614700  0.78854700  1
  O  O15  1  0.00000000  0.66385300  0.28854700  1
  O  O16  1  0.33614700  0.33614700  0.28854700  1
  O  O17  1  0.33614700  0.00000000  0.78854700  1
loop_
_geom_bond_atom_site_label_1
_geom_bond_atom_site_label_2
_geom_bond_distance
_geom_bond_site_symmetry_2
Mg0 O12 2.037268 1_555
Mg0 O15 2.042571 1_545
Mg0 O16 2.042571 1_555
Mg0 O1 2.094533 1_555
Mg0 O2 2.164272 1_545
Mg0 O5 2.164275 1_555
Mg1 O13 2.037267 1_555
Mg1 O17 2.042571 1_555
Mg1 O14 2.042571 1_555
Mg1 O0 2.094533 1_555
Mg1 O3 2.164277 1_555
Mg1 O4 2.164277 1_555
Mg2 O14 2.037268 1_555
Mg2 O17 2.042571 1_565
Mg2 O13 2.042571 1_455
Mg2 O0 2.094533 1_565
Mg2 O4 2.164272 1_555
Mg2 O3 2.164275 1_455
Mg3 O15 2.037268 1_555
Mg3 O12 2.042571 1_455
Mg3 O16 2.042571 1_555
Mg3 O1 2.094533 1_555
Mg3 O5 2.164272 1_455
Mg3 O2 2.164275 1_555
Mg4 O17 2.037268 1_555
Mg4 O14 2.042571 1_655
Mg4 O13 2.042571 1_545
Mg4 O0 2.094533 1_655
Mg4 O3 2.164272 1_555
Mg4 O4 2.164275 1_545
Mg5 O16 2.037267 1_555
Mg5 O15 2.042571 1_655
Mg5 O12 2.042571 1_565
Mg5 O1 2.094533 1_665
Mg5 O2 2.164277 1_555
Mg5 O5 2.164277 1_555
H0 O0 0.966846 1_555
H1 O1 0.966846 1_555
H2 O17 0.971505 1_555
H3 O16 0.971505 1_555
H4 O15 0.971505 1_555
H5 O14 0.971505 1_555
H6 O13 0.971505 1_555
H7 O12 0.971505 1_555
O2 Si0 1.609772 1_555
O3 Si1 1.609772 1_555
O4 Si2 1.609772 1_555
O5 Si3 1.609772 1_555
O6 Si0 1.668505 1_546
O6 Si3 1.668506 1_556
O7 Si1 1.668510 1_555
O7 Si2 1.668510 1_555
O8 Si2 1.668505 1_555
O8 Si1 1.668506 1_455
O9 Si3 1.668505 1_456
O9 Si0 1.668506 1_556
O10 Si3 1.668510 1_556
O10 Si0 1.668510 1_556
O11 Si1 1.668505 1_555
O11 Si2 1.668506 1_545
