# generated using pymatgen
data_LaTiP(SO6)2
_symmetry_space_group_name_H-M   'P 1'
_cell_length_a   9.15037860
_cell_length_b   9.20784679
_cell_length_c   22.52335802
_cell_angle_alpha   89.33691229
_cell_angle_beta   90.00000000
_cell_angle_gamma   119.79375599
_symmetry_Int_Tables_number   1
_chemical_formula_structural   LaTiP(SO6)2
_chemical_formula_sum   'La6 Ti6 P6 S12 O72'
_cell_volume   1646.72518150
_cell_formula_units_Z   6
loop_
 _symmetry_equiv_pos_site_id
 _symmetry_equiv_pos_as_xyz
  1  'x, y, z'
loop_
 _atom_site_type_symbol
 _atom_site_label
 _atom_site_symmetry_multiplicity
 _atom_site_fract_x
 _atom_site_fract_y
 _atom_site_fract_z
 _atom_site_occupancy
  La  La0  1  0.00604930  0.00174334  0.37082874  1
  La  La1  1  0.99569405  0.00174334  0.87082874  1
  La  La2  1  0.67331168  0.33483767  0.70413664  1
  La  La3  1  0.66152699  0.33483767  0.20413664  1
  La  La4  1  0.33027709  0.65582286  0.03761695  1
  La  La5  1  0.32554477  0.65582286  0.53761695  1
  Ti  Ti0  1  0.99386081  0.99314059  0.64243955  1
  Ti  Ti1  1  0.99927978  0.99314059  0.14243955  1
  Ti  Ti2  1  0.65559189  0.32302178  0.97621920  1
  Ti  Ti3  1  0.66743089  0.32302178  0.47621920  1
  Ti  Ti4  1  0.35211033  0.65818225  0.30901782  1
  Ti  Ti5  1  0.30607091  0.65818225  0.80901782  1
  P  P0  1  0.71272914  0.74887495  0.24947591  1
  P  P1  1  0.03614581  0.74887495  0.74947591  1
  P  P2  1  0.91663020  0.28234246  0.58203987  1
  P  P3  1  0.36571326  0.28234246  0.08203987  1
  P  P4  1  0.02818794  0.41009707  0.91658302  1
  P  P5  1  0.38190814  0.41009707  0.41658302  1
  S  S0  1  0.25622694  0.94506434  0.24871309  1
  S  S1  1  0.04932562  0.30677893  0.24808722  1
  S  S2  1  0.25745331  0.30677893  0.74808722  1
  S  S3  1  0.68883740  0.94506434  0.74871309  1
  S  S4  1  0.36160075  0.07388856  0.58317135  1
  S  S5  1  0.71204168  0.63780523  0.58230094  1
  S  S6  1  0.92576455  0.63780523  0.08230094  1
  S  S7  1  0.71228881  0.07388856  0.08317135  1
  S  S8  1  0.59102702  0.61983194  0.91614608  1
  S  S9  1  0.37714977  0.96959269  0.91602178  1
  S  S10  1  0.59244192  0.96959269  0.41602178  1
  S  S11  1  0.02880392  0.61983194  0.41614608  1
  O  O0  1  0.19453998  0.98707824  0.30208989  1
  O  O1  1  0.81278773  0.81823903  0.30520507  1
  O  O2  1  0.00827037  0.20519397  0.30233395  1
  O  O3  1  0.19692360  0.20519397  0.80233395  1
  O  O4  1  0.00545130  0.81823903  0.80520507  1
  O  O5  1  0.79253826  0.98707824  0.80208989  1
  O  O6  1  0.78322641  0.92864537  0.69685157  1
  O  O7  1  0.14840704  0.22261362  0.69654055  1
  O  O8  1  0.06177045  0.86806045  0.69510364  1
  O  O9  1  0.80629000  0.86806045  0.19510364  1
  O  O10  1  0.07420658  0.22261362  0.19654055  1
  O  O11  1  0.14541896  0.92864537  0.19685157  1
  O  O12  1  0.84991404  0.32385075  0.63687789  1
  O  O13  1  0.46119094  0.13794778  0.63686219  1
  O  O14  1  0.66760318  0.53573904  0.63663778  1
  O  O15  1  0.86813686  0.53573904  0.13663778  1
  O  O16  1  0.67675784  0.13794778  0.13686219  1
  O  O17  1  0.47393771  0.32385075  0.13687789  1
  O  O18  1  0.46557809  0.26072062  0.02832893  1
  O  O19  1  0.81710433  0.55251173  0.03097408  1
  O  O20  1  0.73326624  0.18336395  0.03037446  1
  O  O21  1  0.45009870  0.18336395  0.53037446  1
  O  O22  1  0.73540840  0.55251173  0.53097408  1
  O  O23  1  0.79514353  0.26072062  0.52832893  1
  O  O24  1  0.53293876  0.66319716  0.97016801  1
  O  O25  1  0.14182550  0.48336935  0.96934823  1
  O  O26  1  0.34464892  0.87051707  0.97055496  1
  O  O27  1  0.52586715  0.87051707  0.47055496  1
  O  O28  1  0.34154286  0.48336935  0.46934823  1
  O  O29  1  0.13025739  0.66319716  0.47016801  1
  O  O30  1  0.11713204  0.60041177  0.36463582  1
  O  O31  1  0.48788609  0.88376246  0.36350781  1
  O  O32  1  0.40638345  0.53120727  0.36071455  1
  O  O33  1  0.12482282  0.53120727  0.86071455  1
  O  O34  1  0.39587537  0.88376246  0.86350781  1
  O  O35  1  0.48327874  0.60041177  0.86463582  1
  O  O36  1  0.97748566  0.74613897  0.40596797  1
  O  O37  1  0.76979708  0.01620564  0.40762337  1
  O  O38  1  0.24590750  0.23409714  0.40205739  1
  O  O39  1  0.98818964  0.23409714  0.90205739  1
  O  O40  1  0.24640856  0.01620564  0.90762337  1
  O  O41  1  0.76865331  0.74613897  0.90596797  1
  O  O42  1  0.92094010  0.11499569  0.59435406  1
  O  O43  1  0.19745460  0.07553748  0.59100357  1
  O  O44  1  0.87777458  0.79905701  0.59198940  1
  O  O45  1  0.92128243  0.79905701  0.09198940  1
  O  O46  1  0.87808287  0.07553748  0.09100357  1
  O  O47  1  0.19405559  0.11499569  0.09435406  1
  O  O48  1  0.64733418  0.07799304  0.73691170  1
  O  O49  1  0.43367600  0.35411989  0.73713090  1
  O  O50  1  0.90153976  0.57030193  0.73765389  1
  O  O51  1  0.66876317  0.57030193  0.23765389  1
  O  O52  1  0.92044489  0.35411989  0.23713090  1
  O  O53  1  0.43065986  0.07799304  0.23691170  1
  O  O54  1  0.58651156  0.45416573  0.92692024  1
  O  O55  1  0.85679609  0.40549709  0.92891771  1
  O  O56  1  0.54384613  0.13309762  0.92311749  1
  O  O57  1  0.58925249  0.13309762  0.42311749  1
  O  O58  1  0.54870199  0.40549709  0.42891771  1
  O  O59  1  0.86765517  0.45416573  0.42692024  1
  O  O60  1  0.32029922  0.41662479  0.06746166  1
  O  O61  1  0.10393406  0.68888009  0.07149641  1
  O  O62  1  0.58039790  0.90033579  0.07295847  1
  O  O63  1  0.31993689  0.90033579  0.57295847  1
  O  O64  1  0.58494503  0.68888009  0.57149641  1
  O  O65  1  0.09632457  0.41662479  0.56746166  1
  O  O66  1  0.25466494  0.78352415  0.25772392  1
  O  O67  1  0.53601750  0.74283564  0.25901958  1
  O  O68  1  0.21439319  0.46913800  0.25778471  1
  O  O69  1  0.25474381  0.46913800  0.75778471  1
  O  O70  1  0.20681714  0.74283564  0.75901958  1
  O  O71  1  0.52885821  0.78352415  0.75772392  1
loop_
_geom_bond_atom_site_label_1
_geom_bond_atom_site_label_2
_geom_bond_distance
_geom_bond_site_symmetry_2
La0 O1 2.292463 1_445
La0 O38 2.292956 1_555
La0 O36 2.362110 1_445
La0 O0 2.371990 1_545
La0 O37 2.380451 1_455
La0 O2 2.405228 1_555
La1 O4 2.292463 1_645
La1 O39 2.292956 1_555
La1 O41 2.362110 1_545
La1 O5 2.371990 1_545
La1 O40 2.380451 1_655
La1 O3 2.405228 1_655
La2 O12 2.254447 1_555
La2 O50 2.273818 1_555
La2 O48 2.365490 1_555
La2 O14 2.401456 1_555
La2 O49 2.404560 1_555
La2 O13 2.432445 1_555
La3 O17 2.254447 1_555
La3 O51 2.273818 1_555
La3 O53 2.365490 1_555
La3 O15 2.401456 1_555
La3 O52 2.404560 1_555
La3 O16 2.432445 1_555
La4 O60 2.253240 1_555
La4 O25 2.279209 1_554
La4 O61 2.365663 1_555
La4 O24 2.371477 1_554
La4 O62 2.421059 1_555
La4 O26 2.424736 1_554
La5 O65 2.253240 1_555
La5 O28 2.279209 1_555
La5 O64 2.365663 1_555
La5 O29 2.371477 1_555
La5 O63 2.421059 1_555
La5 O27 2.424736 1_555
O0 S0 1.463347 1_555
O1 P0 1.503059 1_555
O2 S1 1.460565 1_555
O3 S2 1.460565 1_555
O4 P1 1.503059 1_555
O5 S3 1.463347 1_555
O6 S3 1.505696 1_555
O6 Ti0 2.101222 1_555
O7 S2 1.482068 1_555
O7 Ti0 2.244868 1_445
O8 P1 1.572352 1_555
O8 Ti0 1.949150 1_455
O9 P0 1.572352 1_555
O9 Ti1 1.949150 1_555
O10 S1 1.482068 1_555
O10 Ti1 2.244868 1_445
O11 S0 1.505696 1_555
O11 Ti1 2.101222 1_455
O12 P2 1.512323 1_555
O13 S4 1.457090 1_555
O14 S5 1.462875 1_555
O15 S6 1.462875 1_555
O16 S7 1.457090 1_555
O17 P3 1.512323 1_555
O18 P3 1.588878 1_555
O18 Ti2 1.929486 1_554
O19 S6 1.478807 1_555
O19 Ti2 2.264332 1_554
O20 S7 1.499018 1_555
O20 Ti2 2.125703 1_554
O21 S4 1.499018 1_555
O21 Ti3 2.125704 1_555
O22 S5 1.478807 1_555
O22 Ti3 2.264332 1_555
O23 P2 1.588878 1_555
O23 Ti3 1.929486 1_555
O24 S8 1.464452 1_555
O25 P4 1.506729 1_555
O26 S9 1.460749 1_555
O27 S10 1.460749 1_555
O28 P5 1.506729 1_555
O29 S11 1.464452 1_555
O30 S11 1.476372 1_555
O30 Ti4 2.307227 1_555
O31 S10 1.486322 1_555
O31 Ti4 2.204247 1_555
O32 P5 1.611369 1_555
O32 Ti4 1.874798 1_555
O33 P4 1.611369 1_555
O33 Ti5 1.874798 1_555
O34 S9 1.486322 1_555
O34 Ti5 2.204247 1_555
O35 S8 1.476372 1_555
O35 Ti5 2.307228 1_555
O36 S11 1.470448 1_655
O37 S10 1.469565 1_545
O38 P5 1.513310 1_555
O39 P4 1.513313 1_655
O40 S9 1.469556 1_545
O41 S8 1.470454 1_555
O42 P2 1.582202 1_555
O42 Ti0 1.895527 1_545
O43 S4 1.519894 1_555
O43 Ti0 1.990840 1_445
O44 S5 1.523771 1_555
O44 Ti0 1.942620 1_555
O45 S6 1.523776 1_555
O45 Ti1 1.942620 1_555
O46 S7 1.519885 1_555
O46 Ti1 1.990840 1_545
O47 P3 1.582207 1_555
O47 Ti1 1.895527 1_445
O48 S3 1.472218 1_545
O49 S2 1.466314 1_555
O50 P1 1.512990 1_655
O51 P0 1.512993 1_555
O52 S1 1.466305 1_655
O53 S0 1.472224 1_545
O54 S8 1.521949 1_555
O54 Ti2 1.954021 1_555
O55 P4 1.572342 1_655
O55 Ti2 1.921779 1_555
O56 S9 1.530448 1_545
O56 Ti2 1.950821 1_555
O57 S10 1.530439 1_545
O57 Ti3 1.950821 1_555
O58 P5 1.572360 1_555
O58 Ti3 1.921779 1_555
O59 S11 1.521940 1_655
O59 Ti3 1.954021 1_555
O60 P3 1.520040 1_555
O61 S6 1.474363 1_455
O62 S7 1.468025 1_565
O63 S4 1.468020 1_565
O64 S5 1.474380 1_555
O65 P2 1.520028 1_455
O66 S0 1.491895 1_555
O66 Ti4 2.110362 1_555
O67 P0 1.604457 1_555
O67 Ti4 1.839506 1_555
O68 S1 1.525666 1_555
O68 Ti4 1.953516 1_555
O69 S2 1.525671 1_555
O69 Ti5 1.953516 1_555
O70 P1 1.604448 1_555
O70 Ti5 1.839506 1_555
O71 S3 1.491899 1_555
O71 Ti5 2.110362 1_555
