# generated using pymatgen
data_MgTi3Zn2O8
_symmetry_space_group_name_H-M   'P 1'
_cell_length_a   6.08667090
_cell_length_b   5.97685452
_cell_length_c   5.97264239
_cell_angle_alpha   59.97667373
_cell_angle_beta   60.74026889
_cell_angle_gamma   60.59505272
_symmetry_Int_Tables_number   1
_chemical_formula_structural   MgTi3Zn2O8
_chemical_formula_sum   'Mg1 Ti3 Zn2 O8'
_cell_volume   155.14376635
_cell_formula_units_Z   1
loop_
 _symmetry_equiv_pos_site_id
 _symmetry_equiv_pos_as_xyz
  1  'x, y, z'
loop_
 _atom_site_type_symbol
 _atom_site_label
 _atom_site_symmetry_multiplicity
 _atom_site_fract_x
 _atom_site_fract_y
 _atom_site_fract_z
 _atom_site_occupancy
  Mg  Mg0  1  0.11981100  0.61652000  0.64714900  1
  Ti  Ti0  1  0.61952800  0.11599400  0.64853900  1
  Ti  Ti1  1  0.62063200  0.61570300  0.14796100  1
  Ti  Ti2  1  0.61952800  0.61594000  0.64853900  1
  Zn  Zn0  1  0.99011900  0.99233400  0.02521300  1
  Zn  Zn1  1  0.24936800  0.23970700  0.27121700  1
  O  O0  1  0.39042300  0.37276500  0.40342400  1
  O  O1  1  0.39011400  0.37221100  0.86546300  1
  O  O2  1  0.39042300  0.83338900  0.40342400  1
  O  O3  1  0.84796700  0.37267200  0.40669100  1
  O  O4  1  0.39153300  0.85914100  0.89018400  1
  O  O5  1  0.84817000  0.86036400  0.43110200  1
  O  O6  1  0.84973400  0.39860700  0.89200700  1
  O  O7  1  0.84973400  0.85965300  0.89200700  1
loop_
_geom_bond_atom_site_label_1
_geom_bond_atom_site_label_2
_geom_bond_distance
_geom_bond_site_symmetry_2
Mg0 O5 2.088121 1_455
Mg0 O1 2.090912 1_555
Mg0 O0 2.092032 1_555
Mg0 O2 2.092036 1_555
Mg0 O6 2.093714 1_455
Mg0 O7 2.093718 1_455
O0 Zn1 1.988632 1_555
O0 Ti0 2.022110 1_555
O0 Ti1 2.022533 1_555
O1 Zn1 1.987517 1_556
O1 Ti0 2.022552 1_555
O1 Ti2 2.022561 1_555
O2 Zn1 1.988622 1_565
O2 Ti2 2.022110 1_555
O2 Ti1 2.022541 1_555
O3 Zn1 2.014914 1_655
O3 Ti1 2.069514 1_555
O3 Ti2 2.070519 1_555
O3 Ti0 2.070524 1_555
O4 Zn0 2.014963 1_456
O4 Ti2 2.069396 1_555
O4 Ti0 2.069405 1_565
O4 Ti1 2.072817 1_556
O5 Zn0 1.988404 1_555
O5 Ti2 2.022027 1_555
O5 Ti0 2.022031 1_565
O6 Zn0 1.988287 1_546
O6 Ti2 2.019771 1_555
O6 Ti1 2.022262 1_556
O7 Zn0 1.988282 1_556
O7 Ti0 2.019771 1_565
O7 Ti1 2.022270 1_556
