# generated using pymatgen
data_Pr12C6I17
_symmetry_space_group_name_H-M   'P 1'
_cell_length_a   11.91008363
_cell_length_b   11.91008363
_cell_length_c   19.44568692
_cell_angle_alpha   89.24069160
_cell_angle_beta   89.24069160
_cell_angle_gamma   64.18540848
_symmetry_Int_Tables_number   1
_chemical_formula_structural   Pr12C6I17
_chemical_formula_sum   'Pr24 C12 I34'
_cell_volume   2482.80489512
_cell_formula_units_Z   2
loop_
 _symmetry_equiv_pos_site_id
 _symmetry_equiv_pos_as_xyz
  1  'x, y, z'
loop_
 _atom_site_type_symbol
 _atom_site_label
 _atom_site_symmetry_multiplicity
 _atom_site_fract_x
 _atom_site_fract_y
 _atom_site_fract_z
 _atom_site_occupancy
  Pr  Pr0  1  0.71276334  0.29498779  0.02073077  1
  Pr  Pr1  1  0.70501221  0.28723666  0.47926923  1
  Pr  Pr2  1  0.28723666  0.70501221  0.97926923  1
  Pr  Pr3  1  0.29498779  0.71276334  0.52073077  1
  Pr  Pr4  1  0.53386936  0.54975941  0.12790906  1
  Pr  Pr5  1  0.45024059  0.46613064  0.37209094  1
  Pr  Pr6  1  0.46613064  0.45024059  0.87209094  1
  Pr  Pr7  1  0.54975941  0.53386936  0.62790906  1
  Pr  Pr8  1  0.90098771  0.42632304  0.11649286  1
  Pr  Pr9  1  0.57367696  0.09901229  0.38350714  1
  Pr  Pr10  1  0.09901229  0.57367696  0.88350714  1
  Pr  Pr11  1  0.42632304  0.90098771  0.61649286  1
  Pr  Pr12  1  0.64164440  0.64275920  0.94916598  1
  Pr  Pr13  1  0.35724080  0.35835560  0.55083402  1
  Pr  Pr14  1  0.35835560  0.35724080  0.05083402  1
  Pr  Pr15  1  0.64275920  0.64164440  0.44916598  1
  Pr  Pr16  1  0.02110203  0.07557370  0.15204907  1
  Pr  Pr17  1  0.92442630  0.97889797  0.34795093  1
  Pr  Pr18  1  0.97889797  0.92442630  0.84795093  1
  Pr  Pr19  1  0.07557370  0.02110203  0.65204907  1
  Pr  Pr20  1  0.80832839  0.33882972  0.28809734  1
  Pr  Pr21  1  0.66117028  0.19167161  0.21190266  1
  Pr  Pr22  1  0.19167161  0.66117028  0.71190266  1
  Pr  Pr23  1  0.33882972  0.80832839  0.78809734  1
  C  C0  1  0.72154790  0.36685452  0.14913375  1
  C  C1  1  0.63314548  0.27845210  0.35086625  1
  C  C2  1  0.27845210  0.63314548  0.85086625  1
  C  C3  1  0.36685452  0.72154790  0.64913375  1
  C  C4  1  0.83240523  0.25715174  0.15201103  1
  C  C5  1  0.74284826  0.16759477  0.34798897  1
  C  C6  1  0.16759477  0.74284826  0.84798897  1
  C  C7  1  0.25715174  0.83240523  0.65201103  1
  C  C8  1  0.53293718  0.53224888  0.98824907  1
  C  C9  1  0.46775112  0.46706282  0.51175093  1
  C  C10  1  0.46706282  0.46775112  0.01175093  1
  C  C11  1  0.53224888  0.53293718  0.48824907  1
  I  I0  1  0.18369060  0.20990699  0.10041123  1
  I  I1  1  0.79009301  0.81630940  0.39958877  1
  I  I2  1  0.81630940  0.79009301  0.89958877  1
  I  I3  1  0.20990699  0.18369060  0.60041123  1
  I  I4  1  0.28187762  0.80680681  0.13934311  1
  I  I5  1  0.19319319  0.71812238  0.36065689  1
  I  I6  1  0.71812238  0.19319319  0.86065689  1
  I  I7  1  0.80680681  0.28187762  0.63934311  1
  I  I8  1  0.00000000  -0.00000000  -0.00000000  1
  I  I9  1  0.00000000  -0.00000000  0.50000000  1
  I  I10  1  0.89801696  0.39570846  0.44008864  1
  I  I11  1  0.60429154  0.10198304  0.05991136  1
  I  I12  1  0.10198304  0.60429154  0.55991136  1
  I  I13  1  0.39570846  0.89801696  0.94008864  1
  I  I14  1  0.39796572  0.90789778  0.44981784  1
  I  I15  1  0.09210222  0.60203428  0.05018216  1
  I  I16  1  0.60203428  0.09210222  0.55018216  1
  I  I17  1  0.90789778  0.39796572  0.94981784  1
  I  I18  1  0.96624363  0.50295762  0.25392794  1
  I  I19  1  0.49704238  0.03375637  0.24607206  1
  I  I20  1  0.03375637  0.49704238  0.74607206  1
  I  I21  1  0.50295762  0.96624363  0.75392794  1
  I  I22  1  0.09550997  0.11273949  0.30279429  1
  I  I23  1  0.88726051  0.90449003  0.19720571  1
  I  I24  1  0.90449003  0.88726051  0.69720571  1
  I  I25  1  0.11273949  0.09550997  0.80279429  1
  I  I26  1  0.68878373  0.71283440  0.09980384  1
  I  I27  1  0.28716560  0.31121627  0.40019616  1
  I  I28  1  0.31121627  0.28716560  0.90019616  1
  I  I29  1  0.71283440  0.68878373  0.59980384  1
  I  I30  1  0.57486118  0.62795911  0.29131218  1
  I  I31  1  0.37204089  0.42513882  0.20868782  1
  I  I32  1  0.42513882  0.37204089  0.70868782  1
  I  I33  1  0.62795911  0.57486118  0.79131218  1
loop_
_geom_bond_atom_site_label_1
_geom_bond_atom_site_label_2
_geom_bond_distance
_geom_bond_site_symmetry_2
C0 C4 1.396819 1_555
C0 Pr4 2.381609 1_555
C0 Pr8 2.596602 1_555
C0 Pr0 2.668252 1_555
C0 Pr21 2.752475 1_555
C0 Pr20 2.869049 1_555
C1 C5 1.396819 1_555
C1 Pr5 2.381609 1_555
C1 Pr9 2.596602 1_555
C1 Pr1 2.668252 1_555
C1 Pr20 2.752475 1_555
C1 Pr21 2.869049 1_555
C2 C6 1.396819 1_555
C2 Pr6 2.381609 1_555
C2 Pr10 2.596602 1_555
C2 Pr2 2.668252 1_555
C2 Pr23 2.752475 1_555
C2 Pr22 2.869049 1_555
C3 C7 1.396819 1_555
C3 Pr7 2.381609 1_555
C3 Pr11 2.596602 1_555
C3 Pr3 2.668252 1_555
C3 Pr22 2.752475 1_555
C3 Pr23 2.869049 1_555
C4 Pr16 2.344096 1_655
C4 Pr8 2.566190 1_555
C4 Pr21 2.724333 1_555
C4 Pr20 2.799390 1_555
C4 Pr0 2.873532 1_555
C5 Pr17 2.344096 1_545
C5 Pr9 2.566190 1_555
C5 Pr20 2.724333 1_555
C5 Pr21 2.799390 1_555
C5 Pr1 2.873532 1_555
C6 Pr18 2.344096 1_455
C6 Pr10 2.566190 1_555
C6 Pr23 2.724333 1_555
C6 Pr22 2.799390 1_555
C6 Pr2 2.873532 1_555
C7 Pr19 2.344096 1_565
C7 Pr11 2.566190 1_555
C7 Pr22 2.724333 1_555
C7 Pr23 2.799390 1_555
C7 Pr3 2.873532 1_555
C8 Pr12 2.327607 1_555
C8 Pr4 2.727073 1_556
C8 Pr6 2.733513 1_555
C8 Pr2 2.754562 1_555
C8 Pr0 2.772865 1_556
C9 Pr13 2.327607 1_555
C9 Pr5 2.727073 1_555
C9 Pr7 2.733513 1_555
C9 Pr3 2.754562 1_555
C9 Pr1 2.772865 1_555
C10 C8 1.385850 1_554
C10 Pr14 2.327607 1_555
C10 Pr6 2.727073 1_554
C10 Pr4 2.733513 1_555
C10 Pr0 2.754562 1_555
C10 Pr2 2.772865 1_554
C11 C9 1.385850 1_555
C11 Pr15 2.327607 1_555
C11 Pr7 2.727073 1_555
C11 Pr5 2.733513 1_555
C11 Pr1 2.754562 1_555
C11 Pr3 2.772865 1_555
I0 Pr16 3.149917 1_555
I0 Pr8 3.242430 1_455
I0 Pr14 3.378955 1_555
I1 Pr17 3.149917 1_555
I1 Pr9 3.242430 1_565
I1 Pr15 3.378955 1_555
I2 Pr18 3.149917 1_555
I2 Pr10 3.242430 1_655
I2 Pr12 3.378955 1_555
I3 Pr19 3.149917 1_555
I3 Pr11 3.242430 1_545
I3 Pr13 3.378955 1_555
I4 Pr4 3.229178 1_555
I4 Pr2 3.345220 1_554
I4 Pr16 3.360952 1_565
I5 Pr5 3.229178 1_555
I5 Pr3 3.345220 1_555
I5 Pr17 3.360952 1_455
I6 Pr6 3.229178 1_555
I6 Pr0 3.345220 1_556
I6 Pr18 3.360952 1_545
I7 Pr7 3.229178 1_555
I7 Pr1 3.345220 1_555
I7 Pr19 3.360952 1_655
I8 Pr16 3.146846 1_555
I8 Pr18 3.146846 1_444
I8 Pr2 3.707099 1_544
I8 Pr0 3.707099 1_455
I9 Pr19 3.146846 1_555
I9 Pr17 3.146846 1_445
I9 Pr1 3.707099 1_455
I9 Pr3 3.707099 1_545
I10 Pr1 3.169767 1_555
I10 Pr15 3.177631 1_555
I10 Pr20 3.332019 1_555
I11 Pr0 3.169767 1_555
I11 Pr14 3.177631 1_555
I11 Pr21 3.332019 1_555
I12 Pr3 3.169767 1_555
I12 Pr13 3.177631 1_555
I12 Pr22 3.332019 1_555
I13 Pr2 3.169767 1_555
I13 Pr12 3.177631 1_555
I13 Pr23 3.332019 1_555
I14 Pr15 3.241039 1_555
I14 Pr11 3.259351 1_555
I14 Pr3 3.340622 1_555
I14 Pr9 3.901611 1_565
I15 Pr14 3.241039 1_555
I15 Pr10 3.259351 1_554
I15 Pr2 3.340622 1_554
I15 Pr8 3.901611 1_455
I16 Pr13 3.241039 1_555
I16 Pr9 3.259351 1_555
I16 Pr1 3.340622 1_555
I16 Pr11 3.901611 1_545
I17 Pr12 3.241039 1_555
I17 Pr8 3.259351 1_556
I17 Pr0 3.340622 1_556
I17 Pr10 3.901611 1_655
I18 Pr8 3.052373 1_555
I18 Pr20 3.306720 1_555
I19 Pr9 3.052373 1_555
I19 Pr21 3.306720 1_555
I20 Pr10 3.052373 1_555
I20 Pr22 3.306720 1_555
I21 Pr11 3.052373 1_555
I21 Pr23 3.306720 1_555
I22 Pr16 3.165274 1_555
I22 Pr17 3.195045 1_445
I22 Pr20 3.318978 1_455
I23 Pr17 3.165274 1_555
I23 Pr16 3.195045 1_665
I23 Pr21 3.318978 1_565
I24 Pr18 3.165274 1_555
I24 Pr19 3.195045 1_665
I24 Pr22 3.318978 1_655
I25 Pr19 3.165274 1_555
I25 Pr18 3.195045 1_445
I25 Pr23 3.318978 1_545
I26 Pr12 3.179432 1_554
I26 Pr4 3.246729 1_555
I26 Pr8 3.258602 1_555
I27 Pr13 3.179432 1_555
I27 Pr5 3.246729 1_555
I27 Pr9 3.258602 1_555
I28 Pr14 3.179432 1_556
I28 Pr6 3.246729 1_555
I28 Pr10 3.258602 1_555
I29 Pr15 3.179432 1_555
I29 Pr7 3.246729 1_555
I29 Pr11 3.258602 1_555
I30 Pr15 3.208840 1_555
I30 Pr5 3.276375 1_555
I30 Pr20 3.354945 1_555
I30 Pr4 3.423124 1_555
I31 Pr14 3.208840 1_555
I31 Pr4 3.276375 1_555
I31 Pr21 3.354945 1_555
I31 Pr5 3.423124 1_555
I32 Pr13 3.208840 1_555
I32 Pr7 3.276375 1_555
I32 Pr22 3.354945 1_555
I32 Pr6 3.423124 1_555
I33 Pr12 3.208840 1_555
I33 Pr6 3.276375 1_555
I33 Pr23 3.354945 1_555
I33 Pr7 3.423124 1_555
