# generated using pymatgen
data_Na2MgMn4O8
_symmetry_space_group_name_H-M   'P 1'
_cell_length_a   3.06285310
_cell_length_b   6.12623887
_cell_length_c   11.06060291
_cell_angle_alpha   82.80201244
_cell_angle_beta   98.74724535
_cell_angle_gamma   61.27508061
_symmetry_Int_Tables_number   1
_chemical_formula_structural   Na2MgMn4O8
_chemical_formula_sum   'Na2 Mg1 Mn4 O8'
_cell_volume   175.10606806
_cell_formula_units_Z   1
loop_
 _symmetry_equiv_pos_site_id
 _symmetry_equiv_pos_as_xyz
  1  'x, y, z'
loop_
 _atom_site_type_symbol
 _atom_site_label
 _atom_site_symmetry_multiplicity
 _atom_site_fract_x
 _atom_site_fract_y
 _atom_site_fract_z
 _atom_site_occupancy
  Na  Na0  1  0.22355068  0.25005983  0.21007061  1
  Na  Na1  1  0.78985862  0.86893324  0.80957910  1
  Mg  Mg0  1  0.59057330  0.55118588  0.65663529  1
  Mn  Mn0  1  0.51948347  0.30179415  0.94480711  1
  Mn  Mn1  1  0.22218913  0.74830058  0.33896242  1
  Mn  Mn2  1  0.43080185  0.14335384  0.53678483  1
  Mn  Mn3  1  0.50212253  0.81378848  0.07417950  1
  O  O0  1  0.17834694  0.93711210  0.62307745  1
  O  O1  1  0.16546342  0.05217258  0.91555274  1
  O  O2  1  0.57596233  0.93020468  0.39585606  1
  O  O3  1  0.86534599  0.03470265  0.11920690  1
  O  O4  1  0.79415262  0.62008052  0.25270324  1
  O  O5  1  0.23669439  0.46204676  0.76430465  1
  O  O6  1  0.66156616  0.39923055  0.49973959  1
  O  O7  1  0.91114759  0.52453316  0.00224050  1
loop_
_geom_bond_atom_site_label_1
_geom_bond_atom_site_label_2
_geom_bond_distance
_geom_bond_site_symmetry_2
Na0 O4 2.163662 1_455
Na0 O3 2.248344 1_555
Na0 O3 2.311406 1_455
Na0 O2 2.347481 1_545
Na0 O7 2.417224 1_455
Na1 O1 2.262401 1_665
Na1 O1 2.288977 1_565
Na1 O5 2.362075 1_655
Na1 O0 2.407221 1_555
Na1 O0 2.617986 1_655
Na1 O7 2.647579 1_556
Mg0 O5 1.920879 1_555
Mg0 O5 1.927230 1_655
Mg0 O0 2.022359 1_555
Mg0 O6 2.061648 1_555
Mn0 O1 1.941216 1_655
Mn0 O5 1.966071 1_555
Mn0 O7 1.967378 1_456
Mn0 O3 2.107578 1_556
Mn0 O1 2.286952 1_555
Mn0 O7 2.294229 1_556
Mn1 O2 1.985183 1_555
Mn1 O4 1.992408 1_555
Mn1 O2 1.997470 1_455
Mn1 O4 2.010790 1_455
Mn1 O6 2.258184 1_555
Mn1 O3 2.541853 1_465
Mn2 O0 1.991631 1_545
Mn2 O0 2.000543 1_645
Mn2 O6 2.028990 1_555
Mn2 O6 2.042439 1_455
Mn2 O2 2.120219 1_545
Mn3 O1 1.906435 1_564
Mn3 O3 1.952102 1_465
Mn3 O7 1.966059 1_555
Mn3 O4 1.990630 1_555
Mn3 O3 2.182870 1_565
