# generated using pymatgen
data_Sr(FeO2)2
_symmetry_space_group_name_H-M   'P 1'
_cell_length_a   10.89774557
_cell_length_b   8.04855398
_cell_length_c   12.02060341
_cell_angle_alpha   49.25272592
_cell_angle_beta   90.00000000
_cell_angle_gamma   90.00000000
_symmetry_Int_Tables_number   1
_chemical_formula_structural   Sr(FeO2)2
_chemical_formula_sum   'Sr8 Fe16 O32'
_cell_volume   798.76401241
_cell_formula_units_Z   8
loop_
 _symmetry_equiv_pos_site_id
 _symmetry_equiv_pos_as_xyz
  1  'x, y, z'
loop_
 _atom_site_type_symbol
 _atom_site_label
 _atom_site_symmetry_multiplicity
 _atom_site_fract_x
 _atom_site_fract_y
 _atom_site_fract_z
 _atom_site_occupancy
  Sr  Sr0  1  0.39349561  0.72791298  0.26123122  1
  Sr  Sr1  1  0.89349561  0.27208702  0.23876878  1
  Sr  Sr2  1  0.60650439  0.27208702  0.73876878  1
  Sr  Sr3  1  0.10650439  0.72791298  0.76123122  1
  Sr  Sr4  1  0.84686892  0.71571997  0.29027827  1
  Sr  Sr5  1  0.34686892  0.28428003  0.20972173  1
  Sr  Sr6  1  0.15313108  0.28428003  0.70972173  1
  Sr  Sr7  1  0.65313108  0.71571997  0.79027827  1
  Fe  Fe0  1  0.61373382  0.66539309  0.09230376  1
  Fe  Fe1  1  0.11373382  0.33460691  0.40769624  1
  Fe  Fe2  1  0.38626618  0.33460691  0.90769624  1
  Fe  Fe3  1  0.88626618  0.66539309  0.59230376  1
  Fe  Fe4  1  0.38623978  0.74805723  0.56759918  1
  Fe  Fe5  1  0.88623978  0.25194277  0.93240082  1
  Fe  Fe6  1  0.61376022  0.25194277  0.43240082  1
  Fe  Fe7  1  0.11376022  0.74805723  0.06759918  1
  Fe  Fe8  1  0.63659871  0.11472874  0.09048782  1
  Fe  Fe9  1  0.13659871  0.88527126  0.40951218  1
  Fe  Fe10  1  0.36340129  0.88527126  0.90951218  1
  Fe  Fe11  1  0.86340129  0.11472874  0.59048782  1
  Fe  Fe12  1  0.63821827  0.84402198  0.43231228  1
  Fe  Fe13  1  0.13821827  0.15597802  0.06768772  1
  Fe  Fe14  1  0.36178173  0.15597802  0.56768772  1
  Fe  Fe15  1  0.86178173  0.84402198  0.93231228  1
  O  O0  1  0.48152744  0.75174204  0.43738412  1
  O  O1  1  0.98152744  0.24825796  0.06261588  1
  O  O2  1  0.51847256  0.24825796  0.56261588  1
  O  O3  1  0.01847256  0.75174204  0.93738412  1
  O  O4  1  0.52270414  0.79830128  0.92193760  1
  O  O5  1  0.02270414  0.20169872  0.57806240  1
  O  O6  1  0.47729586  0.20169872  0.07806240  1
  O  O7  1  0.97729586  0.79830128  0.42193760  1
  O  O8  1  0.21981135  0.67013333  0.58744861  1
  O  O9  1  0.71981135  0.32986667  0.91255139  1
  O  O10  1  0.78018865  0.32986667  0.41255139  1
  O  O11  1  0.28018865  0.67013333  0.08744861  1
  O  O12  1  0.75965097  0.59783468  0.04997563  1
  O  O13  1  0.25965097  0.40216532  0.45002437  1
  O  O14  1  0.24034903  0.40216532  0.95002437  1
  O  O15  1  0.74034903  0.59783468  0.54997563  1
  O  O16  1  0.52297603  0.43226880  0.25427637  1
  O  O17  1  0.02297603  0.56773120  0.24572363  1
  O  O18  1  0.47702397  0.56773120  0.74572363  1
  O  O19  1  0.97702397  0.43226880  0.75427637  1
  O  O20  1  0.72755452  0.03602147  0.25236942  1
  O  O21  1  0.22755452  0.96397853  0.24763058  1
  O  O22  1  0.27244548  0.96397853  0.74763058  1
  O  O23  1  0.77244548  0.03602147  0.75236942  1
  O  O24  1  0.86741582  0.96576215  0.01694621  1
  O  O25  1  0.36741582  0.03423785  0.48305379  1
  O  O26  1  0.13258418  0.03423785  0.98305379  1
  O  O27  1  0.63258418  0.96576215  0.51694621  1
  O  O28  1  0.88130890  0.84549267  0.63771077  1
  O  O29  1  0.38130890  0.15450733  0.86228923  1
  O  O30  1  0.11869110  0.15450733  0.36228923  1
  O  O31  1  0.61869110  0.84549267  0.13771077  1
loop_
_geom_bond_atom_site_label_1
_geom_bond_atom_site_label_2
_geom_bond_distance
_geom_bond_site_symmetry_2
Fe0 O31 1.853338 1_555
Fe0 O12 1.855897 1_555
Fe0 O4 1.860777 1_554
Fe0 O16 1.876317 1_555
Fe1 O30 1.853338 1_555
Fe1 O13 1.855897 1_555
Fe1 O5 1.860777 1_555
Fe1 O17 1.876317 1_555
Fe2 O29 1.853338 1_555
Fe2 O14 1.855897 1_555
Fe2 O6 1.860777 1_556
Fe2 O18 1.876317 1_555
Fe3 O28 1.853338 1_555
Fe3 O15 1.855897 1_555
Fe3 O7 1.860777 1_555
Fe3 O19 1.876317 1_555
Fe4 O25 1.823303 1_565
Fe4 O0 1.862430 1_555
Fe4 O8 1.882661 1_555
Fe4 O18 1.900794 1_555
Fe5 O24 1.823303 1_546
Fe5 O1 1.862430 1_556
Fe5 O9 1.882661 1_555
Fe5 O19 1.900794 1_555
Fe6 O27 1.823303 1_545
Fe6 O2 1.862430 1_555
Fe6 O10 1.882661 1_555
Fe6 O16 1.900794 1_555
Fe7 O26 1.823303 1_564
Fe7 O3 1.862430 1_554
Fe7 O11 1.882661 1_555
Fe7 O17 1.900794 1_555
Fe8 O6 1.841098 1_555
Fe8 O31 1.857481 1_545
Fe8 O9 1.886964 1_554
Fe8 O20 1.887104 1_555
Fe9 O7 1.841098 1_455
Fe9 O30 1.857481 1_565
Fe9 O8 1.886964 1_555
Fe9 O21 1.887104 1_555
Fe10 O4 1.841098 1_555
Fe10 O29 1.857481 1_565
Fe10 O11 1.886964 1_556
Fe10 O22 1.887104 1_555
Fe11 O5 1.841098 1_655
Fe11 O28 1.857481 1_545
Fe11 O10 1.886964 1_555
Fe11 O23 1.887104 1_555
Fe12 O27 1.816634 1_555
Fe12 O0 1.847175 1_555
Fe12 O15 1.872653 1_555
Fe12 O20 1.910750 1_565
Fe13 O26 1.816634 1_554
Fe13 O1 1.847175 1_455
Fe13 O14 1.872653 1_554
Fe13 O21 1.910750 1_545
Fe14 O25 1.816634 1_555
Fe14 O2 1.847175 1_555
Fe14 O13 1.872653 1_555
Fe14 O22 1.910750 1_545
Fe15 O24 1.816634 1_556
Fe15 O3 1.847175 1_655
Fe15 O12 1.872653 1_556
Fe15 O23 1.910750 1_565
O0 Sr0 2.443550 1_555
O1 Sr1 2.443550 1_555
O2 Sr2 2.443550 1_555
O3 Sr3 2.443550 1_555
O4 Sr7 2.517925 1_555
O4 Sr2 3.043424 1_565
O5 Sr6 2.517925 1_555
O5 Sr3 3.043424 1_545
O6 Sr5 2.517925 1_555
O6 Sr0 3.043424 1_545
O7 Sr4 2.517925 1_555
O7 Sr1 3.043424 1_565
O8 Sr6 2.524694 1_555
O8 Sr3 2.715321 1_555
O9 Sr7 2.524694 1_555
O9 Sr2 2.715321 1_555
O10 Sr4 2.524694 1_555
O10 Sr1 2.715321 1_555
O11 Sr5 2.524694 1_555
O11 Sr0 2.715321 1_555
O12 Sr1 2.526706 1_555
O12 Sr7 2.850661 1_554
O13 Sr0 2.526706 1_555
O13 Sr6 2.850661 1_555
O14 Sr3 2.526706 1_555
O14 Sr5 2.850661 1_556
O15 Sr2 2.526706 1_555
O15 Sr4 2.850661 1_555
O16 Sr5 2.494300 1_555
O16 Sr0 2.814212 1_555
O17 Sr4 2.494300 1_455
O17 Sr1 2.814212 1_455
O18 Sr7 2.494300 1_555
O18 Sr2 2.814212 1_555
O19 Sr6 2.494300 1_655
O19 Sr3 2.814212 1_655
O20 Sr1 2.549789 1_555
O20 Sr4 2.647763 1_545
O21 Sr0 2.549789 1_555
O21 Sr5 2.647763 1_565
O22 Sr3 2.549789 1_555
O22 Sr6 2.647763 1_565
O23 Sr2 2.549789 1_555
O23 Sr7 2.647763 1_545
O24 Sr4 2.502711 1_555
O25 Sr5 2.502711 1_555
O26 Sr6 2.502711 1_555
O27 Sr7 2.502711 1_555
O28 Sr3 2.699736 1_655
O28 Sr7 2.852543 1_555
O29 Sr2 2.699736 1_555
O29 Sr6 2.852543 1_555
O30 Sr1 2.699736 1_455
O30 Sr5 2.852543 1_555
O31 Sr0 2.699736 1_555
O31 Sr4 2.852543 1_555
