# generated using pymatgen
data_BaMg(FeS2)2
_symmetry_space_group_name_H-M   'P 1'
_cell_length_a   6.50673067
_cell_length_b   6.01433064
_cell_length_c   6.01751798
_cell_angle_alpha   73.20455750
_cell_angle_beta   57.44288224
_cell_angle_gamma   57.41987226
_symmetry_Int_Tables_number   1
_chemical_formula_structural   BaMg(FeS2)2
_chemical_formula_sum   'Ba1 Mg1 Fe2 S4'
_cell_volume   167.24840088
_cell_formula_units_Z   1
loop_
 _symmetry_equiv_pos_site_id
 _symmetry_equiv_pos_as_xyz
  1  'x, y, z'
loop_
 _atom_site_type_symbol
 _atom_site_label
 _atom_site_symmetry_multiplicity
 _atom_site_fract_x
 _atom_site_fract_y
 _atom_site_fract_z
 _atom_site_occupancy
  Ba  Ba0  1  0.75000731  0.00025764  0.99974905  1
  Mg  Mg0  1  0.25000861  0.00113226  0.99887430  1
  Fe  Fe0  1  0.24989712  0.50030299  0.49970166  1
  Fe  Fe1  1  0.75008936  0.49993896  0.50004151  1
  S  S0  1  0.16666016  0.49919614  0.16536205  1
  S  S1  1  0.33326423  0.83478343  0.50079338  1
  S  S2  1  0.66574595  0.16547081  0.50108720  1
  S  S3  1  0.83432726  0.49891777  0.83439085  1
loop_
_geom_bond_atom_site_label_1
_geom_bond_atom_site_label_2
_geom_bond_distance
_geom_bond_site_symmetry_2
Ba0 S3 3.121802 1_555
Ba0 S3 3.122087 1_545
Ba0 S2 3.122982 1_555
Ba0 S2 3.123229 1_556
Ba0 S0 3.129779 1_556
Ba0 S0 3.130189 1_646
Ba0 S1 3.131047 1_645
Ba0 S1 3.131584 1_546
Ba0 Mg0 3.253363 1_555
Ba0 Mg0 3.253380 1_655
Mg0 S0 3.109815 1_556
Mg0 S1 3.111180 1_545
Mg0 S3 3.115515 1_455
Mg0 S2 3.116809 1_555
Mg0 S0 3.137133 1_546
Mg0 S1 3.138097 1_546
Mg0 S3 3.141352 1_545
Mg0 S2 3.142714 1_456
Fe0 S3 2.349719 1_455
Fe0 S2 2.350140 1_555
Fe0 S0 2.350634 1_555
Fe0 S1 2.351130 1_555
Fe1 S0 2.349427 1_655
Fe1 S1 2.349748 1_555
Fe1 S3 2.350437 1_555
Fe1 S2 2.350672 1_555
