# generated using pymatgen
data_MgMn6(O2F)4
_symmetry_space_group_name_H-M   'P 1'
_cell_length_a   8.40688426
_cell_length_b   5.77497134
_cell_length_c   5.95882120
_cell_angle_alpha   66.09451173
_cell_angle_beta   63.27275131
_cell_angle_gamma   64.94574821
_symmetry_Int_Tables_number   1
_chemical_formula_structural   MgMn6(O2F)4
_chemical_formula_sum   'Mg1 Mn6 O8 F4'
_cell_volume   225.67909090
_cell_formula_units_Z   1
loop_
 _symmetry_equiv_pos_site_id
 _symmetry_equiv_pos_as_xyz
  1  'x, y, z'
loop_
 _atom_site_type_symbol
 _atom_site_label
 _atom_site_symmetry_multiplicity
 _atom_site_fract_x
 _atom_site_fract_y
 _atom_site_fract_z
 _atom_site_occupancy
  Mg  Mg0  1  0.83902340  0.65464110  0.16786950  1
  Mn  Mn0  1  0.82578058  0.67547619  0.66729618  1
  Mn  Mn1  1  0.64075870  0.30697298  0.33458292  1
  Mn  Mn2  1  0.33442412  0.65959037  0.65886265  1
  Mn  Mn3  1  0.20015736  0.35333652  0.35014397  1
  Mn  Mn4  1  0.47852825  0.99913110  0.00020450  1
  Mn  Mn5  1  0.01922571  0.04408196  0.00682622  1
  O  O0  1  0.65248450  0.02585884  0.64675369  1
  O  O1  1  0.33160894  0.36653768  0.97819502  1
  O  O2  1  0.90757803  0.25746508  0.22909566  1
  O  O3  1  0.37588615  0.44193356  0.45575062  1
  O  O4  1  0.32207269  0.97600898  0.36437620  1
  O  O5  1  0.66051768  0.63834914  0.03292459  1
  O  O6  1  0.00820649  0.32611695  0.69894852  1
  O  O7  1  -0.00033416  0.70937221  0.30283450  1
  F  F0  1  0.30518560  0.88313674  0.87003889  1
  F  F1  1  0.64893622  0.58552221  0.52897459  1
  F  F2  1  0.70781228  0.05010474  0.11045615  1
  F  F3  1  0.02548345  0.78445866  0.82205562  1
loop_
_geom_bond_atom_site_label_1
_geom_bond_atom_site_label_2
_geom_bond_distance
_geom_bond_site_symmetry_2
Mg0 O7 2.028555 1_655
Mg0 O2 2.029176 1_555
Mg0 O5 2.042989 1_555
Mn0 O0 1.922173 1_565
Mn0 O6 1.946598 1_655
Mn0 O5 1.968252 1_556
Mn0 O7 1.983428 1_655
Mn1 O3 1.904524 1_555
Mn1 O0 1.920260 1_555
Mn1 O2 1.960271 1_555
Mn1 O5 2.033139 1_555
Mn2 O3 1.910159 1_555
Mn2 O4 1.957947 1_555
Mn2 O1 1.966972 1_555
Mn3 O4 1.960307 1_545
Mn3 O1 1.967401 1_554
Mn3 O6 1.970257 1_555
Mn3 O7 2.042157 1_555
Mn3 O3 2.139546 1_555
Mn4 O1 1.935261 1_564
Mn4 O0 1.937936 1_564
Mn4 O4 1.950243 1_555
Mn4 O5 1.989741 1_555
Mn5 O2 1.838112 1_455
Mn5 O6 1.905380 1_554
Mn5 O7 2.029680 1_545
F0 Mn2 2.019931 1_555
F0 Mn5 2.065577 1_566
F0 Mn4 2.332065 1_556
F1 Mg0 2.023439 1_555
F1 Mn2 2.289709 1_555
F1 Mn0 2.294100 1_555
F1 Mn1 2.368453 1_555
F2 Mg0 2.030297 1_545
F2 Mn1 2.126528 1_555
F2 Mn5 2.392209 1_655
F2 Mn4 2.451561 1_545
F3 Mg0 2.025659 1_456
F3 Mn5 2.163777 1_566
F3 Mn2 2.218450 1_555
F3 Mn0 2.612105 1_455
