# generated using pymatgen
data_Cr3(P2O7)2
_symmetry_space_group_name_H-M   'P 1'
_cell_length_a   8.01831100
_cell_length_b   7.35900400
_cell_length_c   9.41767442
_cell_angle_alpha   69.03601128
_cell_angle_beta   90.00000000
_cell_angle_gamma   90.00000000
_symmetry_Int_Tables_number   1
_chemical_formula_structural   Cr3(P2O7)2
_chemical_formula_sum   'Cr6 P8 O28'
_cell_volume   518.92193313
_cell_formula_units_Z   2
loop_
 _symmetry_equiv_pos_site_id
 _symmetry_equiv_pos_as_xyz
  1  'x, y, z'
loop_
 _atom_site_type_symbol
 _atom_site_label
 _atom_site_symmetry_multiplicity
 _atom_site_fract_x
 _atom_site_fract_y
 _atom_site_fract_z
 _atom_site_occupancy
  Cr  Cr0  1  0.00000000  0.00000000  0.50000000  1
  Cr  Cr1  1  0.36760900  0.80466700  0.52885900  1
  Cr  Cr2  1  0.63239100  0.19533300  0.47114100  1
  Cr  Cr3  1  0.50000000  0.00000000  0.00000000  1
  Cr  Cr4  1  0.13239100  0.80466700  0.02885900  1
  Cr  Cr5  1  0.86760900  0.19533300  0.97114100  1
  P  P0  1  0.79197500  0.89035100  0.80417500  1
  P  P1  1  0.70802500  0.89035100  0.30417500  1
  P  P2  1  0.29197500  0.10964900  0.69582500  1
  P  P3  1  0.20802500  0.10964900  0.19582500  1
  P  P4  1  0.03836700  0.60177000  0.79271600  1
  P  P5  1  0.46163300  0.60177000  0.29271600  1
  P  P6  1  0.53836700  0.39823000  0.70728400  1
  P  P7  1  0.96163300  0.39823000  0.20728400  1
  O  O0  1  0.29430600  0.99619800  0.87170700  1
  O  O1  1  0.20569400  0.99619800  0.37170700  1
  O  O2  1  0.79430600  0.00380200  0.62829300  1
  O  O3  1  0.70569400  0.00380200  0.12829300  1
  O  O4  1  0.92056900  0.97101900  0.88955900  1
  O  O5  1  0.57943100  0.97101900  0.38955900  1
  O  O6  1  0.42056900  0.02898100  0.61044100  1
  O  O7  1  0.07943100  0.02898100  0.11044100  1
  O  O8  1  0.62128600  0.87416700  0.87414400  1
  O  O9  1  0.87871400  0.87416700  0.37414400  1
  O  O10  1  0.12128600  0.12583300  0.62585600  1
  O  O11  1  0.37871400  0.12583300  0.12585600  1
  O  O12  1  0.85270800  0.68068900  0.81454200  1
  O  O13  1  0.64729200  0.68068900  0.31454200  1
  O  O14  1  0.35270800  0.31931100  0.68545800  1
  O  O15  1  0.14729200  0.31931100  0.18545800  1
  O  O16  1  0.15256700  0.62835100  0.91203600  1
  O  O17  1  0.34743300  0.62835100  0.41203600  1
  O  O18  1  0.65256700  0.37164900  0.58796400  1
  O  O19  1  0.84743300  0.37164900  0.08796400  1
  O  O20  1  0.09843000  0.73645400  0.63100600  1
  O  O21  1  0.40157000  0.73645400  0.13100600  1
  O  O22  1  0.59843000  0.26354600  0.86899400  1
  O  O23  1  0.90157000  0.26354600  0.36899400  1
  O  O24  1  0.50746700  0.60751200  0.69189300  1
  O  O25  1  0.00746700  0.39248800  0.80810700  1
  O  O26  1  0.99253300  0.60751200  0.19189300  1
  O  O27  1  0.49253300  0.39248800  0.30810700  1
loop_
_geom_bond_atom_site_label_1
_geom_bond_atom_site_label_2
_geom_bond_distance
_geom_bond_site_symmetry_2
Cr0 O10 1.998375 1_555
Cr0 O9 1.998375 1_445
Cr0 O23 2.047998 1_455
Cr0 O20 2.047998 1_545
Cr0 O2 2.050615 1_455
Cr0 O1 2.050615 1_545
Cr1 O17 1.985353 1_555
Cr1 O24 2.031263 1_555
Cr1 O1 2.090431 1_555
Cr1 O6 2.098348 1_565
Cr1 O5 2.226034 1_555
Cr1 O20 2.343156 1_555
Cr2 O18 1.985353 1_555
Cr2 O27 2.031263 1_555
Cr2 O2 2.090431 1_555
Cr2 O5 2.098348 1_545
Cr2 O6 2.226034 1_555
Cr2 O23 2.343156 1_555
Cr3 O11 1.998375 1_555
Cr3 O8 1.998375 1_544
Cr3 O22 2.047998 1_554
Cr3 O21 2.047998 1_545
Cr3 O3 2.050615 1_555
Cr3 O0 2.050615 1_544
Cr4 O16 1.985353 1_554
Cr4 O26 2.031263 1_455
Cr4 O0 2.090431 1_554
Cr4 O7 2.098348 1_565
Cr4 O4 2.226034 1_454
Cr4 O21 2.343156 1_555
Cr5 O19 1.985353 1_556
Cr5 O25 2.031263 1_655
Cr5 O3 2.090431 1_556
Cr5 O4 2.098348 1_545
Cr5 O7 2.226034 1_656
Cr5 O22 2.343156 1_555
O0 P2 1.565723 1_565
O1 P3 1.565723 1_565
O2 P0 1.565723 1_545
O3 P1 1.565723 1_545
O4 P0 1.550409 1_555
O5 P1 1.550409 1_555
O6 P2 1.550409 1_555
O7 P3 1.550409 1_555
O8 P0 1.505126 1_555
O9 P1 1.505126 1_555
O10 P2 1.505126 1_555
O11 P3 1.505126 1_555
O12 P0 1.587274 1_555
O12 P4 1.637408 1_655
O13 P1 1.587274 1_555
O13 P5 1.637408 1_555
O14 P2 1.587274 1_555
O14 P6 1.637408 1_555
O15 P3 1.587274 1_555
O15 P7 1.637408 1_455
O16 P4 1.515513 1_555
O17 P5 1.515513 1_555
O18 P6 1.515513 1_555
O19 P7 1.515513 1_555
O20 P4 1.566373 1_555
O21 P5 1.566373 1_555
O22 P6 1.566373 1_555
O23 P7 1.566373 1_555
O24 P6 1.514790 1_555
O25 P4 1.514790 1_555
O26 P7 1.514790 1_555
O27 P5 1.514790 1_555
