# generated using pymatgen
data_MgMn6(O2F)4
_symmetry_space_group_name_H-M   'P 1'
_cell_length_a   8.38099945
_cell_length_b   5.74984358
_cell_length_c   5.91788858
_cell_angle_alpha   66.69186468
_cell_angle_beta   64.16650479
_cell_angle_gamma   65.26708605
_symmetry_Int_Tables_number   1
_chemical_formula_structural   MgMn6(O2F)4
_chemical_formula_sum   'Mg1 Mn6 O8 F4'
_cell_volume   225.05413032
_cell_formula_units_Z   1
loop_
 _symmetry_equiv_pos_site_id
 _symmetry_equiv_pos_as_xyz
  1  'x, y, z'
loop_
 _atom_site_type_symbol
 _atom_site_label
 _atom_site_symmetry_multiplicity
 _atom_site_fract_x
 _atom_site_fract_y
 _atom_site_fract_z
 _atom_site_occupancy
  Mg  Mg0  1  0.84222700  0.64859300  0.16980100  1
  Mn  Mn0  1  0.84764200  0.67813200  0.66527200  1
  Mn  Mn1  1  0.63559400  0.30443300  0.33874600  1
  Mn  Mn2  1  0.31948500  0.65720800  0.66314500  1
  Mn  Mn3  1  0.20476600  0.34477700  0.33956500  1
  Mn  Mn4  1  0.48277700  0.98637400  0.99501300  1
  Mn  Mn5  1  0.01873200  0.01535600  0.97494600  1
  O  O0  1  0.66116100  0.02285900  0.64389300  1
  O  O1  1  0.33950200  0.35663400  0.97127400  1
  O  O2  1  0.02567700  0.77932700  0.81371400  1
  O  O3  1  0.37607600  0.43716500  0.45192100  1
  O  O4  1  0.33170000  0.96786000  0.35970300  1
  O  O5  1  0.67015700  0.62407700  0.03034900  1
  O  O6  1  0.01869900  0.32044300  0.68544900  1
  O  O7  1  0.00782800  0.70370300  0.29653300  1
  F  F0  1  0.31176400  0.87532400  0.87011700  1
  F  F1  1  0.66202300  0.56505700  0.51897300  1
  F  F2  1  0.93118600  0.24640300  0.21364800  1
  F  F3  1  0.71300200  0.04960800  0.11698500  1
loop_
_geom_bond_atom_site_label_1
_geom_bond_atom_site_label_2
_geom_bond_distance
_geom_bond_site_symmetry_2
Mg0 O7 2.013057 1_655
Mg0 O5 2.019903 1_555
Mg0 O2 2.063853 1_654
Mn0 O0 1.941426 1_565
Mn0 O6 1.946024 1_655
Mn0 O7 1.985920 1_655
Mn0 O5 2.007891 1_556
Mn0 O2 2.368539 1_655
Mn1 O3 1.872877 1_555
Mn1 O0 1.913482 1_555
Mn1 O5 2.030510 1_555
Mn2 O3 1.902874 1_555
Mn2 O1 1.967274 1_555
Mn2 O4 1.969812 1_555
Mn2 O2 2.118148 1_555
Mn3 O6 1.953271 1_555
Mn3 O4 1.954387 1_545
Mn3 O1 1.957535 1_554
Mn3 O7 2.036748 1_555
Mn3 O3 2.129643 1_555
Mn4 O1 1.940412 1_565
Mn4 O0 1.951121 1_565
Mn4 O4 1.954934 1_556
Mn4 O5 2.013333 1_556
Mn5 O6 1.906321 1_555
Mn5 O2 1.914634 1_545
Mn5 O7 2.031753 1_546
F0 Mn2 2.038598 1_555
F0 Mn5 2.115992 1_565
F0 Mn4 2.251831 1_555
F1 Mg0 1.970607 1_555
F1 Mn1 2.276120 1_555
F1 Mn0 2.461307 1_555
F1 Mn2 2.490081 1_555
F2 Mn5 2.016143 1_654
F2 Mg0 2.054754 1_555
F2 Mn1 2.168434 1_555
F3 Mg0 2.054828 1_545
F3 Mn1 2.067423 1_555
F3 Mn5 2.267709 1_654
F3 Mn4 2.526811 1_544
