# generated using pymatgen
data_Mn2Co2C
_symmetry_space_group_name_H-M   'P 1'
_cell_length_a   3.75919100
_cell_length_b   3.75919100
_cell_length_c   3.82436900
_cell_angle_alpha   90.00000000
_cell_angle_beta   90.00000000
_cell_angle_gamma   90.00000000
_symmetry_Int_Tables_number   1
_chemical_formula_structural   Mn2Co2C
_chemical_formula_sum   'Mn2 Co2 C1'
_cell_volume   54.04413544
_cell_formula_units_Z   1
loop_
 _symmetry_equiv_pos_site_id
 _symmetry_equiv_pos_as_xyz
  1  'x, y, z'
loop_
 _atom_site_type_symbol
 _atom_site_label
 _atom_site_symmetry_multiplicity
 _atom_site_fract_x
 _atom_site_fract_y
 _atom_site_fract_z
 _atom_site_occupancy
  Mn  Mn0  1  0.00000000  0.00000000  0.00000000  1
  Mn  Mn1  1  0.50000000  0.50000000  0.00000000  1
  Co  Co0  1  0.50000000  0.00000000  0.50000000  1
  Co  Co1  1  0.00000000  0.50000000  0.50000000  1
  C  C0  1  0.50000000  0.50000000  0.50000000  1
loop_
_geom_bond_atom_site_label_1
_geom_bond_atom_site_label_2
_geom_bond_distance
_geom_bond_site_symmetry_2
Mn0 Mn1 2.658149 1_445
Mn0 Mn1 2.658149 1_545
Mn0 Mn1 2.658149 1_555
Mn0 Mn1 2.658149 1_455
Co0 Mn0 2.681292 1_555
Co0 Mn0 2.681292 1_556
Co0 Mn0 2.681292 1_655
Co0 Mn0 2.681292 1_656
Co1 Mn0 2.681292 1_555
Co1 Mn0 2.681292 1_556
Co1 Mn0 2.681292 1_565
Co1 Mn0 2.681292 1_566
C0 Co0 1.879595 1_565
C0 Co0 1.879595 1_555
C0 Co1 1.879595 1_555
C0 Co1 1.879595 1_655
C0 Mn1 1.912184 1_556
C0 Mn1 1.912184 1_555
