# generated using pymatgen
data_Na2Mg2Zr2SiS5O24
_symmetry_space_group_name_H-M   'P 1'
_cell_length_a   8.83326696
_cell_length_b   8.82538780
_cell_length_c   23.28614020
_cell_angle_alpha   90.00674754
_cell_angle_beta   90.01290764
_cell_angle_gamma   119.95950210
_symmetry_Int_Tables_number   1
_chemical_formula_structural   Na2Mg2Zr2SiS5O24
_chemical_formula_sum   'Na6 Mg6 Zr6 Si3 S15 O72'
_cell_volume   1572.75238058
_cell_formula_units_Z   3
loop_
 _symmetry_equiv_pos_site_id
 _symmetry_equiv_pos_as_xyz
  1  'x, y, z'
loop_
 _atom_site_type_symbol
 _atom_site_label
 _atom_site_symmetry_multiplicity
 _atom_site_fract_x
 _atom_site_fract_y
 _atom_site_fract_z
 _atom_site_occupancy
  Na  Na0  1  0.00455932  0.00225063  0.49671788  1
  Na  Na1  1  0.99797875  0.99189989  0.99536302  1
  Na  Na2  1  0.66912913  0.31820318  0.82053493  1
  Na  Na3  1  0.65191880  0.32294199  0.34071034  1
  Na  Na4  1  0.31783800  0.67282819  0.16196545  1
  Na  Na5  1  0.34147368  0.67517997  0.65984519  1
  Mg  Mg0  1  0.01392281  0.00623564  0.35466126  1
  Mg  Mg1  1  0.99624461  0.00323426  0.84770436  1
  Mg  Mg2  1  0.66524758  0.32168412  0.68313950  1
  Mg  Mg3  1  0.66297952  0.33135904  0.48453283  1
  Mg  Mg4  1  0.32387977  0.66681903  0.01804482  1
  Mg  Mg5  1  0.33403120  0.66696253  0.51823198  1
  Zr  Zr0  1  0.98622727  0.99644552  0.64702191  1
  Zr  Zr1  1  0.00890953  0.98700067  0.14729507  1
  Zr  Zr2  1  0.67095581  0.33358811  0.18712115  1
  Zr  Zr3  1  0.67671800  0.34451576  0.97920748  1
  Zr  Zr4  1  0.33052197  0.67484511  0.31749635  1
  Zr  Zr5  1  0.34265725  0.67625445  0.80959775  1
  Si  Si0  1  0.29289020  0.00153223  0.25448518  1
  Si  Si1  1  0.71551468  0.01737379  0.75329932  1
  Si  Si2  1  0.97142411  0.62769231  0.08327656  1
  S  S0  1  0.71006660  0.71178815  0.25268571  1
  S  S1  1  0.00130889  0.28645046  0.25209194  1
  S  S2  1  0.29304747  0.28705719  0.75126828  1
  S  S3  1  0.99311225  0.70689110  0.75133083  1
  S  S4  1  0.95983960  0.34110864  0.58200015  1
  S  S5  1  0.37804596  0.04070869  0.58223732  1
  S  S6  1  0.66083342  0.61638007  0.58269971  1
  S  S7  1  0.66375451  0.03766224  0.08216161  1
  S  S8  1  0.37634814  0.33965180  0.08208809  1
  S  S9  1  0.62493128  0.67257462  0.91851480  1
  S  S10  1  0.04786672  0.37114480  0.91783174  1
  S  S11  1  0.32665486  0.95611025  0.91757750  1
  S  S12  1  0.63150989  0.96313361  0.41913737  1
  S  S13  1  0.33352099  0.37408990  0.41903847  1
  S  S14  1  0.03482048  0.66489757  0.42009660  1
  O  O0  1  0.20262788  0.02896528  0.30807958  1
  O  O1  1  0.81389987  0.79381006  0.30310473  1
  O  O2  1  0.97273565  0.18118649  0.30281611  1
  O  O3  1  0.21527646  0.18282178  0.80294731  1
  O  O4  1  0.97868606  0.79151675  0.80323856  1
  O  O5  1  0.82212561  0.02865466  0.80940645  1
  O  O6  1  0.80050630  0.97564582  0.69498008  1
  O  O7  1  0.18311851  0.20608899  0.69907310  1
  O  O8  1  0.03036255  0.81924474  0.69898403  1
  O  O9  1  0.78625205  0.81580533  0.19875783  1
  O  O10  1  0.02088221  0.20755472  0.19820240  1
  O  O11  1  0.17872344  0.96987987  0.19381780  1
  O  O12  1  0.87955711  0.36141319  0.63432014  1
  O  O13  1  0.48023262  0.12236072  0.63428643  1
  O  O14  1  0.64316415  0.51742097  0.63530488  1
  O  O15  1  0.86475997  0.50963774  0.13905697  1
  O  O16  1  0.63719039  0.11982580  0.13435094  1
  O  O17  1  0.47925123  0.35491075  0.13443641  1
  O  O18  1  0.45531576  0.30410338  0.03083115  1
  O  O19  1  0.84139160  0.53046544  0.02730538  1
  O  O20  1  0.68595741  0.14854531  0.03093143  1
  O  O21  1  0.45575862  0.14674300  0.53037743  1
  O  O22  1  0.68887098  0.53923870  0.53086589  1
  O  O23  1  0.85266236  0.30924860  0.53038850  1
  O  O24  1  0.53876222  0.68918850  0.96972777  1
  O  O25  1  0.14886020  0.45823962  0.96930467  1
  O  O26  1  0.30818336  0.85210533  0.96867062  1
  O  O27  1  0.54468483  0.85236316  0.46879590  1
  O  O28  1  0.31417277  0.46379865  0.46894574  1
  O  O29  1  0.14760360  0.68915589  0.46922343  1
  O  O30  1  0.12220406  0.64282537  0.36588683  1
  O  O31  1  0.51956874  0.87626474  0.36534124  1
  O  O32  1  0.35526589  0.48098251  0.36512592  1
  O  O33  1  0.12355169  0.47904561  0.86567804  1
  O  O34  1  0.35489392  0.87423204  0.86523548  1
  O  O35  1  0.51705520  0.64581190  0.86612600  1
  O  O36  1  0.01681754  0.82085204  0.41221480  1
  O  O37  1  0.80339029  0.97753585  0.40952828  1
  O  O38  1  0.17351761  0.20130429  0.41293150  1
  O  O39  1  0.02748460  0.19642410  0.91281112  1
  O  O40  1  0.17304387  0.97668518  0.90981699  1
  O  O41  1  0.80236757  0.82075256  0.91258144  1
  O  O42  1  0.98167852  0.17930751  0.58848676  1
  O  O43  1  0.19792667  0.02095684  0.58906565  1
  O  O44  1  0.82589595  0.79812273  0.58791505  1
  O  O45  1  0.97320851  0.81654562  0.08591542  1
  O  O46  1  0.82744316  0.03201624  0.08872968  1
  O  O47  1  0.19787135  0.18353704  0.08811424  1
  O  O48  1  0.68220927  0.17687292  0.74357795  1
  O  O49  1  0.46989159  0.31846814  0.74245672  1
  O  O50  1  0.83875276  0.53587509  0.74260146  1
  O  O51  1  0.69137050  0.53494294  0.24460712  1
  O  O52  1  0.84673319  0.31258741  0.24530569  1
  O  O53  1  0.48845223  0.16940818  0.24245956  1
  O  O54  1  0.63482280  0.50504933  0.92204078  1
  O  O55  1  0.86553081  0.35054891  0.92328391  1
  O  O56  1  0.48819131  0.13335650  0.92278932  1
  O  O57  1  0.64499400  0.13643081  0.42281431  1
  O  O58  1  0.49182028  0.35693895  0.42269508  1
  O  O59  1  0.86268876  0.50388084  0.42346643  1
  O  O60  1  0.36660621  0.49805814  0.07501250  1
  O  O61  1  0.15973940  0.64834532  0.07848546  1
  O  O62  1  0.51284343  0.86379321  0.07519808  1
  O  O63  1  0.35587844  0.86284178  0.57593144  1
  O  O64  1  0.50975007  0.64481826  0.57677409  1
  O  O65  1  0.13792560  0.49403988  0.57565975  1
  O  O66  1  0.31469772  0.82533296  0.25705362  1
  O  O67  1  0.53027029  0.68560203  0.25695966  1
  O  O68  1  0.15974737  0.46376923  0.25701224  1
  O  O69  1  0.30151412  0.46243477  0.75757203  1
  O  O70  1  0.15257090  0.68510494  0.75695825  1
  O  O71  1  0.51755502  0.82986252  0.75623597  1
loop_
_geom_bond_atom_site_label_1
_geom_bond_atom_site_label_2
_geom_bond_distance
_geom_bond_site_symmetry_2
Na0 O38 2.550224 1_555
Na0 O36 2.572776 1_545
Na0 O37 2.634111 1_445
Na0 O43 2.699201 1_555
Na0 O42 2.713655 1_455
Na0 O44 2.721889 1_445
Na1 O41 2.524688 1_555
Na1 O45 2.559665 1_556
Na1 O39 2.559774 1_665
Na1 O40 2.566378 1_655
Na1 O46 2.766846 1_566
Na1 O47 2.767258 1_666
Na2 O48 2.219002 1_555
Na2 O50 2.521110 1_555
Na2 O49 2.530933 1_555
Na2 O56 2.878182 1_555
Na2 O55 2.884312 1_555
Na2 O54 2.982696 1_555
Na3 O58 2.481840 1_555
Na3 O57 2.503738 1_555
Na3 O59 2.599633 1_555
Na3 O53 2.683100 1_555
Na3 O51 2.824933 1_555
Na3 O52 2.839708 1_555
Na4 O61 2.339471 1_555
Na4 O66 2.598405 1_555
Na4 O62 2.644370 1_555
Na4 O60 2.706975 1_555
Na4 O68 2.771606 1_555
Na4 O67 2.865973 1_555
Na5 O63 2.523444 1_555
Na5 O64 2.534202 1_555
Na5 O65 2.599665 1_555
Na5 O71 2.682886 1_555
Na5 O70 2.837870 1_555
Na5 O69 2.857970 1_555
Mg0 O0 1.913695 1_555
Mg0 O38 2.089710 1_555
Mg0 O36 2.125050 1_545
Mg0 O2 2.129584 1_455
Mg0 O37 2.164638 1_445
Mg0 O1 2.183558 1_445
Mg1 O5 1.885545 1_555
Mg1 O3 2.068847 1_655
Mg1 O4 2.073032 1_545
Mg1 O39 2.193375 1_655
Mg1 O40 2.224939 1_645
Mg1 O41 2.248534 1_545
Mg2 O48 1.956543 1_555
Mg2 O13 2.046169 1_555
Mg2 O12 2.082561 1_555
Mg2 O14 2.144714 1_555
Mg2 O49 2.199700 1_555
Mg2 O50 2.223575 1_555
Mg3 O22 2.040231 1_555
Mg3 O21 2.041419 1_555
Mg3 O23 2.076399 1_555
Mg3 O58 2.179513 1_555
Mg3 O59 2.184328 1_555
Mg3 O57 2.185538 1_555
Mg4 O61 1.968378 1_555
Mg4 O25 2.055024 1_554
Mg4 O26 2.059584 1_554
Mg4 O24 2.129425 1_554
Mg4 O62 2.163255 1_555
Mg4 O60 2.163819 1_555
Mg5 O28 2.061091 1_555
Mg5 O29 2.091395 1_555
Mg5 O27 2.103661 1_555
Mg5 O65 2.116402 1_555
Mg5 O63 2.120630 1_555
Mg5 O64 2.146597 1_555
O0 Si0 1.563655 1_555
O1 S0 1.442170 1_555
O2 S1 1.445028 1_655
O3 S2 1.461442 1_555
O4 S3 1.459442 1_555
O5 Si1 1.584146 1_555
O6 Si1 1.679278 1_565
O6 Zr0 1.916316 1_555
O7 S2 1.495665 1_555
O7 Zr0 2.168347 1_445
O8 S3 1.500639 1_455
O8 Zr0 2.161234 1_455
O9 S0 1.502061 1_555
O9 Zr1 2.149568 1_655
O10 S1 1.486458 1_555
O10 Zr1 2.235845 1_545
O11 Si0 1.675913 1_565
O11 Zr1 1.916287 1_555
O12 S4 1.465129 1_555
O13 S5 1.467204 1_555
O14 S6 1.466920 1_555
O15 Si2 1.637323 1_555
O15 Zr2 1.985463 1_555
O16 S7 1.492532 1_555
O16 Zr2 2.143656 1_555
O17 S8 1.485767 1_555
O17 Zr2 2.173805 1_555
O18 S8 1.492807 1_555
O18 Zr3 2.168311 1_554
O19 Si2 1.664031 1_555
O19 Zr3 1.917833 1_554
O20 S7 1.492623 1_555
O20 Zr3 2.142432 1_554
O21 S5 1.471161 1_555
O22 S6 1.466303 1_555
O23 S4 1.467411 1_555
O24 S9 1.461120 1_555
O25 S10 1.462104 1_555
O26 S11 1.461310 1_555
O27 S12 1.460437 1_555
O28 S13 1.463430 1_555
O29 S14 1.460622 1_555
O30 S14 1.542011 1_555
O30 Zr4 2.053610 1_555
O31 S12 1.541698 1_555
O31 Zr4 2.055146 1_555
O32 S13 1.523914 1_555
O32 Zr4 2.139848 1_555
O33 S10 1.481033 1_555
O33 Zr5 2.262224 1_555
O34 S11 1.499974 1_555
O34 Zr5 2.133968 1_555
O35 S9 1.492198 1_555
O35 Zr5 2.142566 1_555
O36 S14 1.473768 1_555
O37 S12 1.476066 1_555
O38 S13 1.479995 1_555
O39 S10 1.465076 1_555
O40 S11 1.467226 1_555
O41 S9 1.462462 1_555
O42 S4 1.540863 1_555
O42 Zr0 2.128201 1_545
O43 S5 1.519933 1_555
O43 Zr0 2.227605 1_445
O44 S6 1.541882 1_555
O44 Zr0 2.118109 1_555
O45 Si2 1.660019 1_555
O45 Zr1 1.982629 1_655
O46 S7 1.479317 1_555
O46 Zr1 2.285230 1_645
O47 S8 1.494693 1_555
O47 Zr1 2.191738 1_545
O48 Si1 1.591512 1_555
O49 S2 1.458352 1_555
O50 S3 1.456983 1_555
O51 S0 1.497002 1_555
O51 Zr2 2.159066 1_555
O52 S1 1.502333 1_655
O52 Zr2 2.137162 1_555
O53 Si0 1.643674 1_555
O53 Zr2 2.006801 1_555
O54 S9 1.526209 1_555
O54 Zr3 2.107167 1_555
O55 S10 1.533284 1_655
O55 Zr3 2.095864 1_555
O56 S11 1.506073 1_545
O56 Zr3 2.207015 1_555
O57 S12 1.476025 1_545
O58 S13 1.482142 1_555
O59 S14 1.476292 1_655
O60 S8 1.452292 1_555
O61 Si2 1.584286 1_455
O62 S7 1.454204 1_565
O63 S5 1.488938 1_565
O64 S6 1.482410 1_555
O65 S4 1.482434 1_455
O66 Si0 1.660720 1_565
O66 Zr4 1.987507 1_555
O67 S0 1.489681 1_555
O67 Zr4 2.223339 1_555
O68 S1 1.494382 1_555
O68 Zr4 2.218376 1_555
O69 S2 1.518906 1_555
O69 Zr5 2.115416 1_555
O70 S3 1.519388 1_455
O70 Zr5 2.111403 1_555
O71 Si1 1.706116 1_565
O71 Zr5 1.917824 1_555
