# generated using pymatgen
data_Ba2YbMg(CuO2)4
_symmetry_space_group_name_H-M   'P 1'
_cell_length_a   3.70673111
_cell_length_b   3.94901849
_cell_length_c   14.78361093
_cell_angle_alpha   96.83456782
_cell_angle_beta   90.00000000
_cell_angle_gamma   90.00000000
_symmetry_Int_Tables_number   1
_chemical_formula_structural   Ba2YbMg(CuO2)4
_chemical_formula_sum   'Ba2 Yb1 Mg1 Cu4 O8'
_cell_volume   214.86397923
_cell_formula_units_Z   1
loop_
 _symmetry_equiv_pos_site_id
 _symmetry_equiv_pos_as_xyz
  1  'x, y, z'
loop_
 _atom_site_type_symbol
 _atom_site_label
 _atom_site_symmetry_multiplicity
 _atom_site_fract_x
 _atom_site_fract_y
 _atom_site_fract_z
 _atom_site_occupancy
  Ba  Ba0  1  0.50000000  0.39046208  0.75410124  1
  Ba  Ba1  1  0.50000000  0.60953792  0.24589876  1
  Yb  Yb0  1  0.50000000  0.50000000  0.00000000  1
  Mg  Mg0  1  0.50000000  0.50000000  0.50000000  1
  Cu  Cu0  1  0.00000000  0.95487323  0.89517982  1
  Cu  Cu1  1  0.00000000  0.04512677  0.10482018  1
  Cu  Cu2  1  0.00000000  0.83960594  0.59081461  1
  Cu  Cu3  1  0.00000000  0.16039406  0.40918539  1
  O  O0  1  0.00000000  0.29901762  0.55398561  1
  O  O1  1  0.00000000  0.70098238  0.44601439  1
  O  O2  1  0.00000000  0.45856045  0.90406849  1
  O  O3  1  0.00000000  0.54143955  0.09593151  1
  O  O4  1  0.50000000  0.95957513  0.90730746  1
  O  O5  1  0.50000000  0.04042487  0.09269254  1
  O  O6  1  0.00000000  0.87377752  0.71646825  1
  O  O7  1  0.00000000  0.12622248  0.28353175  1
loop_
_geom_bond_atom_site_label_1
_geom_bond_atom_site_label_2
_geom_bond_distance
_geom_bond_site_symmetry_2
Ba0 O6 2.763608 1_545
Ba0 O6 2.763608 1_645
Ba0 O6 2.764065 1_555
Ba0 O6 2.764065 1_655
Ba0 O2 2.877625 1_655
Ba0 O2 2.877625 1_555
Ba0 O4 2.990419 1_545
Ba0 O4 2.994897 1_555
Ba1 O7 2.763608 1_565
Ba1 O7 2.763608 1_665
Ba1 O7 2.764065 1_555
Ba1 O7 2.764065 1_655
Ba1 O3 2.877625 1_555
Ba1 O3 2.877625 1_655
Ba1 O5 2.990419 1_565
Ba1 O5 2.994897 1_555
Mg0 O0 2.202868 1_555
Mg0 O0 2.202868 1_655
Mg0 O1 2.202868 1_555
Mg0 O1 2.202868 1_655
Cu0 O4 1.861897 1_455
Cu0 O4 1.861897 1_555
Cu0 O2 1.977741 1_565
Cu0 O2 1.979890 1_555
Cu0 O6 2.623235 1_555
Cu1 O5 1.861897 1_455
Cu1 O5 1.861897 1_555
Cu1 O3 1.977741 1_545
Cu1 O3 1.979890 1_555
Cu1 O7 2.623235 1_555
Cu2 O6 1.846423 1_555
Cu2 O0 1.955238 1_565
Cu2 O0 2.139426 1_555
Cu2 O1 2.145515 1_555
Cu3 O7 1.846423 1_555
Cu3 O1 1.955238 1_545
Cu3 O1 2.139426 1_555
Cu3 O0 2.145515 1_555
O2 Yb0 2.327625 1_456
O2 Yb0 2.327625 1_556
O3 Yb0 2.327625 1_555
O3 Yb0 2.327625 1_455
O4 Yb0 2.395067 1_566
O4 Yb0 2.400724 1_556
O5 Yb0 2.395067 1_545
O5 Yb0 2.400724 1_555
