# generated using pymatgen
data_Cu2GeP2(H5O7)2
_symmetry_space_group_name_H-M   'P 1'
_cell_length_a   8.41415139
_cell_length_b   5.08013100
_cell_length_c   13.23879997
_cell_angle_alpha   68.94665261
_cell_angle_beta   90.00000000
_cell_angle_gamma   90.00000000
_symmetry_Int_Tables_number   1
_chemical_formula_structural   Cu2GeP2(H5O7)2
_chemical_formula_sum   'Cu4 Ge2 P4 H20 O28'
_cell_volume   528.11700705
_cell_formula_units_Z   2
loop_
 _symmetry_equiv_pos_site_id
 _symmetry_equiv_pos_as_xyz
  1  'x, y, z'
loop_
 _atom_site_type_symbol
 _atom_site_label
 _atom_site_symmetry_multiplicity
 _atom_site_fract_x
 _atom_site_fract_y
 _atom_site_fract_z
 _atom_site_occupancy
  Cu  Cu0  1  0.94862225  0.47070155  0.26656574  1
  Cu  Cu1  1  0.44862225  0.52929845  0.23343426  1
  Cu  Cu2  1  0.05137775  0.52929845  0.73343426  1
  Cu  Cu3  1  0.55137775  0.47070155  0.76656574  1
  Ge  Ge0  1  0.00000000  0.50000000  0.00000000  1
  Ge  Ge1  1  0.50000000  0.50000000  0.50000000  1
  P  P0  1  0.17491973  0.89995116  0.09824193  1
  P  P1  1  0.32508027  0.89995116  0.59824193  1
  P  P2  1  0.67491973  0.10004884  0.40175807  1
  P  P3  1  0.82508027  0.10004884  0.90175807  1
  H  H0  1  0.76296769  0.76165963  0.61303529  1
  H  H1  1  0.95990918  0.14367720  0.16944907  1
  H  H2  1  0.23703231  0.23834037  0.38696471  1
  H  H3  1  0.12977162  0.50760979  0.55793532  1
  H  H4  1  0.41829646  0.20014444  0.12908951  1
  H  H5  1  0.62977162  0.49239021  0.94206468  1
  H  H6  1  0.45990918  0.85632280  0.33055093  1
  H  H7  1  0.37022838  0.50760979  0.05793532  1
  H  H8  1  0.73703231  0.76165963  0.11303529  1
  H  H9  1  0.69962478  0.95635855  0.17715561  1
  H  H10  1  0.91829646  0.79985556  0.37091049  1
  H  H11  1  0.04009082  0.85632280  0.83055093  1
  H  H12  1  0.08170354  0.20014444  0.62908951  1
  H  H13  1  0.54009082  0.14367720  0.66944907  1
  H  H14  1  0.80037522  0.95635855  0.67715561  1
  H  H15  1  0.26296769  0.23834037  0.88696471  1
  H  H16  1  0.87022838  0.49239021  0.44206468  1
  H  H17  1  0.19962478  0.04364145  0.32284439  1
  H  H18  1  0.30037522  0.04364145  0.82284439  1
  H  H19  1  0.58170354  0.79985556  0.87091049  1
  O  O0  1  0.84213923  0.11666843  0.35494938  1
  O  O1  1  0.85043191  0.79646043  0.98380371  1
  O  O2  1  0.65786077  0.11666843  0.85494938  1
  O  O3  1  0.54549548  0.16679744  0.31577091  1
  O  O4  1  0.15786077  0.88333157  0.64505062  1
  O  O5  1  0.83010247  0.30205642  0.96536557  1
  O  O6  1  0.14956809  0.20353957  0.01619629  1
  O  O7  1  0.69501870  0.76161377  0.18192013  1
  O  O8  1  0.94961053  0.59941075  0.38942753  1
  O  O9  1  0.43458203  0.65271932  0.35671968  1
  O  O10  1  0.66989753  0.30205642  0.46536557  1
  O  O11  1  0.95450452  0.16679744  0.81577091  1
  O  O12  1  0.56541797  0.34728068  0.64328032  1
  O  O13  1  0.34213923  0.88333157  0.14505062  1
  O  O14  1  0.33010247  0.69794358  0.53463443  1
  O  O15  1  0.35043191  0.20353957  0.51619629  1
  O  O16  1  0.04549548  0.83320256  0.18422909  1
  O  O17  1  0.93458203  0.34728068  0.14328032  1
  O  O18  1  0.44961053  0.40058925  0.11057247  1
  O  O19  1  0.55038947  0.59941075  0.88942753  1
  O  O20  1  0.64956809  0.79646043  0.48380371  1
  O  O21  1  0.80498130  0.76161377  0.68192013  1
  O  O22  1  0.19501870  0.23838623  0.31807987  1
  O  O23  1  0.30498130  0.23838623  0.81807987  1
  O  O24  1  0.06541797  0.65271932  0.85671968  1
  O  O25  1  0.45450452  0.83320256  0.68422909  1
  O  O26  1  0.16989753  0.69794358  0.03463443  1
  O  O27  1  0.05038947  0.40058925  0.61057247  1
loop_
_geom_bond_atom_site_label_1
_geom_bond_atom_site_label_2
_geom_bond_distance
_geom_bond_site_symmetry_2
Cu0 O16 1.949784 1_655
Cu0 O17 1.950960 1_555
Cu0 O8 1.958918 1_555
Cu0 O0 1.973475 1_555
Cu0 O22 2.361759 1_655
Cu0 O7 2.608322 1_555
Cu1 O3 1.949784 1_555
Cu1 O9 1.950960 1_555
Cu1 O18 1.958918 1_555
Cu1 O13 1.973475 1_555
Cu1 O7 2.361759 1_555
Cu1 O22 2.608322 1_555
Cu2 O11 1.949784 1_455
Cu2 O24 1.950960 1_555
Cu2 O27 1.958918 1_555
Cu2 O4 1.973475 1_555
Cu2 O21 2.361759 1_455
Cu2 O23 2.608322 1_555
Cu3 O25 1.949784 1_555
Cu3 O12 1.950960 1_555
Cu3 O19 1.958918 1_555
Cu3 O2 1.973475 1_555
Cu3 O23 2.361759 1_555
Cu3 O21 2.608322 1_555
Ge0 O17 1.856242 1_455
Ge0 O24 1.856242 1_554
Ge0 O5 1.896390 1_454
Ge0 O26 1.896390 1_555
Ge0 O1 1.914671 1_454
Ge0 O6 1.914671 1_555
Ge1 O9 1.856242 1_555
Ge1 O12 1.856242 1_555
Ge1 O10 1.896390 1_555
Ge1 O14 1.896390 1_555
Ge1 O15 1.914671 1_555
Ge1 O20 1.914671 1_555
H0 O21 0.977995 1_555
H1 O17 0.988850 1_555
H1 O16 1.680140 1_645
H2 O22 0.977995 1_555
H3 O27 0.977303 1_555
H4 O18 0.993516 1_555
H4 O13 1.673697 1_545
H5 O19 0.977303 1_555
H6 O9 0.988850 1_555
H6 O3 1.680140 1_565
H7 O18 0.977303 1_555
H8 O7 0.977995 1_555
H9 O7 0.969235 1_555
H10 O8 0.993516 1_555
H10 O0 1.673697 1_565
H11 O24 0.988850 1_555
H11 O11 1.680140 1_465
H12 O27 0.993516 1_555
H12 O4 1.673697 1_545
H13 O12 0.988850 1_555
H13 O25 1.680140 1_545
H14 O21 0.969235 1_555
H15 O23 0.977995 1_555
H16 O8 0.977303 1_555
H17 O22 0.969235 1_555
H18 O23 0.969235 1_555
H19 O19 0.993516 1_555
H19 O2 1.673697 1_565
O0 P2 1.527492 1_555
O1 P3 1.549295 1_565
O2 P3 1.527492 1_555
O3 P2 1.522969 1_555
O4 P1 1.527492 1_555
O5 P3 1.544318 1_555
O6 P0 1.549295 1_545
O10 P2 1.544318 1_555
O11 P3 1.522969 1_555
O13 P0 1.527492 1_555
O14 P1 1.544318 1_555
O15 P1 1.549295 1_545
O16 P0 1.522969 1_555
O20 P2 1.549295 1_565
O25 P1 1.522969 1_555
O26 P0 1.544318 1_555
