# generated using pymatgen
data_Re3(SBr)7
_symmetry_space_group_name_H-M   'P 1'
_cell_length_a   9.97513721
_cell_length_b   9.97513721
_cell_length_c   26.02257900
_cell_angle_alpha   90.00000000
_cell_angle_beta   90.00000000
_cell_angle_gamma   119.99999475
_symmetry_Int_Tables_number   1
_chemical_formula_structural   Re3(SBr)7
_chemical_formula_sum   'Re12 S28 Br28'
_cell_volume   2242.42923405
_cell_formula_units_Z   4
loop_
 _symmetry_equiv_pos_site_id
 _symmetry_equiv_pos_as_xyz
  1  'x, y, z'
loop_
 _atom_site_type_symbol
 _atom_site_label
 _atom_site_symmetry_multiplicity
 _atom_site_fract_x
 _atom_site_fract_y
 _atom_site_fract_z
 _atom_site_occupancy
  Re  Re0  1  0.63262300  0.47154100  0.66918400  1
  Re  Re1  1  0.52845900  0.16108100  0.66918400  1
  Re  Re2  1  0.83891900  0.36737700  0.66918400  1
  Re  Re3  1  0.47154100  0.63262300  0.16918400  1
  Re  Re4  1  0.16108100  0.52845900  0.16918400  1
  Re  Re5  1  0.36737700  0.83891900  0.16918400  1
  Re  Re6  1  0.85749300  0.02738900  0.42505800  1
  Re  Re7  1  0.97261100  0.83010400  0.42505800  1
  Re  Re8  1  0.16989600  0.14250700  0.42505800  1
  Re  Re9  1  0.02738900  0.85749300  0.92505800  1
  Re  Re10  1  0.83010400  0.97261100  0.92505800  1
  Re  Re11  1  0.14250700  0.16989600  0.92505800  1
  S  S0  1  0.03212200  0.19748900  0.36131100  1
  S  S1  1  0.35695100  0.27220300  0.66287200  1
  S  S2  1  0.72779700  0.08474800  0.66287200  1
  S  S3  1  0.91525200  0.64304900  0.66287200  1
  S  S4  1  0.27220300  0.35695100  0.16287200  1
  S  S5  1  0.08474800  0.72779700  0.16287200  1
  S  S6  1  0.64304900  0.91525200  0.16287200  1
  S  S7  1  0.46678600  0.29381100  0.73288200  1
  S  S8  1  0.70618900  0.17297500  0.73288200  1
  S  S9  1  0.82702500  0.53321400  0.73288200  1
  S  S10  1  0.29381100  0.46678600  0.23288200  1
  S  S11  1  0.17297500  0.70618900  0.23288200  1
  S  S12  1  0.00000000  0.00000000  0.99233700  1
  S  S13  1  0.00000000  0.00000000  0.49233700  1
  S  S14  1  0.19748900  0.03212200  0.86131100  1
  S  S15  1  0.96787800  0.16536700  0.86131100  1
  S  S16  1  0.83463300  0.80251100  0.86131100  1
  S  S17  1  0.53321400  0.82702500  0.23288200  1
  S  S18  1  0.16536700  0.96787800  0.36131100  1
  S  S19  1  0.80251100  0.83463300  0.36131100  1
  S  S20  1  0.30573300  0.04957300  0.93130600  1
  S  S21  1  0.95042700  0.25616000  0.93130600  1
  S  S22  1  0.74384000  0.69426700  0.93130600  1
  S  S23  1  0.04957300  0.30573300  0.43130600  1
  S  S24  1  0.25616000  0.95042700  0.43130600  1
  S  S25  1  0.69426700  0.74384000  0.43130600  1
  S  S26  1  0.33333300  0.66666700  0.10170100  1
  S  S27  1  0.66666700  0.33333300  0.60170100  1
  Br  Br0  1  0.98294500  0.38682600  0.09364200  1
  Br  Br1  1  0.61317400  0.59612000  0.09364200  1
  Br  Br2  1  0.01705500  0.40388000  0.59364200  1
  Br  Br3  1  0.38682600  0.98294500  0.59364200  1
  Br  Br4  1  0.59612000  0.61317400  0.59364200  1
  Br  Br5  1  0.41640200  0.07898100  0.22050200  1
  Br  Br6  1  0.92101900  0.33742100  0.22050200  1
  Br  Br7  1  0.66257900  0.58359800  0.22050200  1
  Br  Br8  1  0.07898100  0.41640200  0.72050200  1
  Br  Br9  1  0.33742100  0.92101900  0.72050200  1
  Br  Br10  1  0.58359800  0.66257900  0.72050200  1
  Br  Br11  1  0.33333300  0.66666700  0.31504800  1
  Br  Br12  1  0.33599600  0.41081500  0.87505100  1
  Br  Br13  1  0.58918500  0.92518100  0.87505100  1
  Br  Br14  1  0.07481900  0.66400400  0.87505100  1
  Br  Br15  1  0.41081500  0.33599600  0.37505100  1
  Br  Br16  1  0.92518100  0.58918500  0.37505100  1
  Br  Br17  1  0.66400400  0.07481900  0.37505100  1
  Br  Br18  1  0.29367100  0.33893400  0.00161100  1
  Br  Br19  1  0.66106600  0.95473600  0.00161100  1
  Br  Br20  1  0.04526400  0.70632900  0.00161100  1
  Br  Br21  1  0.33893400  0.29367100  0.50161100  1
  Br  Br22  1  0.95473600  0.66106600  0.50161100  1
  Br  Br23  1  0.70632900  0.04526400  0.50161100  1
  Br  Br24  1  0.00000000  0.00000000  0.77888600  1
  Br  Br25  1  0.00000000  0.00000000  0.27888600  1
  Br  Br26  1  0.40388000  0.01705500  0.09364200  1
  Br  Br27  1  0.66666700  0.33333300  0.81504800  1
loop_
_geom_bond_atom_site_label_1
_geom_bond_atom_site_label_2
_geom_bond_distance
_geom_bond_site_symmetry_2
Re0 S27 2.359658 1_555
Re0 S9 2.386110 1_555
Re0 S7 2.386305 1_555
Re0 S1 2.464685 1_555
Re0 S3 2.465538 1_555
Re1 S27 2.359658 1_555
Re1 S7 2.386117 1_555
Re1 S8 2.386301 1_555
Re1 S2 2.464678 1_555
Re1 S1 2.465545 1_555
Re2 S27 2.359658 1_555
Re2 S8 2.386112 1_555
Re2 S9 2.386308 1_555
Re2 S3 2.464688 1_555
Re2 S2 2.465536 1_555
Re3 S26 2.359658 1_555
Re3 S17 2.386110 1_555
Re3 S10 2.386305 1_555
Re3 S4 2.464685 1_555
Re3 S6 2.465538 1_555
Re4 S26 2.359658 1_555
Re4 S10 2.386117 1_555
Re4 S11 2.386301 1_555
Re4 S5 2.464678 1_555
Re4 S4 2.465545 1_555
Re5 S26 2.359658 1_555
Re5 S11 2.386112 1_555
Re5 S17 2.386308 1_555
Re5 S6 2.464688 1_555
Re5 S5 2.465536 1_555
Re6 S13 2.355624 1_655
Re6 S19 2.386443 1_545
Re6 S0 2.389466 1_655
Re6 S25 2.464200 1_545
Re6 S23 2.467137 1_655
Re7 S13 2.355624 1_665
Re7 S18 2.386443 1_655
Re7 S19 2.389466 1_555
Re7 S24 2.464200 1_655
Re7 S25 2.467137 1_555
Re8 S13 2.355624 1_555
Re8 S0 2.386443 1_555
Re8 S18 2.389466 1_545
Re8 S23 2.464199 1_555
Re8 S24 2.467137 1_545
Re9 S12 2.355624 1_565
Re9 S16 2.386443 1_455
Re9 S14 2.389466 1_565
Re9 S22 2.464200 1_455
Re9 S20 2.467137 1_565
Re10 S12 2.355624 1_665
Re10 S15 2.386443 1_565
Re10 S16 2.389466 1_555
Re10 S21 2.464200 1_565
Re10 S22 2.467137 1_555
Re11 S12 2.355624 1_555
Re11 S14 2.386443 1_555
Re11 S15 2.389466 1_455
Re11 S20 2.464199 1_555
Re11 S21 2.467137 1_455
S0 S23 2.079876 1_555
S1 S7 2.080815 1_555
S2 S8 2.080815 1_555
S3 S9 2.080815 1_555
S10 S4 2.080815 1_555
S11 S5 2.080815 1_555
S14 S20 2.079876 1_555
S15 S21 2.079876 1_555
S16 S22 2.079876 1_555
S17 S6 2.080815 1_555
S18 S24 2.079876 1_555
S19 S25 2.079876 1_555
Br0 Re4 2.550962 1_655
Br1 Re3 2.550962 1_555
Br2 Re2 2.550962 1_455
Br3 Re1 2.550962 1_565
Br4 Re0 2.550962 1_555
Br5 Re5 2.566284 1_545
Br6 Re4 2.566287 1_655
Br7 Re3 2.566292 1_555
Br8 Re2 2.566284 1_455
Br9 Re1 2.566287 1_565
Br10 Re0 2.566292 1_555
Br11 S11 2.813630 1_555
Br11 S17 2.813635 1_555
Br11 S10 2.813637 1_555
Br12 Re11 2.560395 1_555
Br13 Re10 2.560395 1_555
Br14 Re9 2.560395 1_555
Br15 Re8 2.560395 1_555
Br16 Re7 2.560395 1_555
Br17 Re6 2.560395 1_555
Br18 Re11 2.557896 1_554
Br19 Re10 2.557894 1_554
Br20 Re9 2.557900 1_554
Br21 Re8 2.557896 1_555
Br22 Re7 2.557894 1_555
Br23 Re6 2.557900 1_555
Br24 S15 2.820090 1_455
Br24 S14 2.820091 1_555
Br24 S16 2.820091 1_445
Br25 S18 2.820090 1_545
Br25 S0 2.820091 1_555
Br25 S19 2.820091 1_445
Br26 Re5 2.550962 1_545
Br27 S8 2.813630 1_555
Br27 S9 2.813635 1_555
Br27 S7 2.813637 1_555
