# generated using pymatgen
data_MgMn2Co5O12
_symmetry_space_group_name_H-M   'P 1'
_cell_length_a   5.15740411
_cell_length_b   5.15896967
_cell_length_c   10.01553070
_cell_angle_alpha   84.37468657
_cell_angle_beta   95.58280251
_cell_angle_gamma   58.05481444
_symmetry_Int_Tables_number   1
_chemical_formula_structural   MgMn2Co5O12
_chemical_formula_sum   'Mg1 Mn2 Co5 O12'
_cell_volume   221.49799251
_cell_formula_units_Z   1
loop_
 _symmetry_equiv_pos_site_id
 _symmetry_equiv_pos_as_xyz
  1  'x, y, z'
loop_
 _atom_site_type_symbol
 _atom_site_label
 _atom_site_symmetry_multiplicity
 _atom_site_fract_x
 _atom_site_fract_y
 _atom_site_fract_z
 _atom_site_occupancy
  Mg  Mg0  1  0.91955600  0.91958400  0.75002000  1
  Mn  Mn0  1  0.24891400  0.24822900  0.75005600  1
  Mn  Mn1  1  0.75476500  0.75477800  0.25001500  1
  Co  Co0  1  0.08458600  0.08458800  0.24993100  1
  Co  Co1  1  0.00977200  0.49433300  0.99847900  1
  Co  Co2  1  0.49402800  0.01003200  0.50145400  1
  Co  Co3  1  0.42138000  0.42132200  0.25000700  1
  Co  Co4  1  0.58017500  0.57984400  0.74990200  1
  O  O0  1  0.94931600  0.24300800  0.85474300  1
  O  O1  1  0.24295700  0.94926100  0.64536300  1
  O  O2  1  0.13042200  0.37858200  0.35987900  1
  O  O3  1  0.37856600  0.13064100  0.14011100  1
  O  O4  1  0.28278900  0.51587000  0.85592300  1
  O  O5  1  0.51585700  0.28262100  0.64388600  1
  O  O6  1  0.46699900  0.73981600  0.35519300  1
  O  O7  1  0.73985100  0.46715700  0.14478800  1
  O  O8  1  0.61621300  0.85561400  0.85891300  1
  O  O9  1  0.85489900  0.61594000  0.64131600  1
  O  O10  1  0.77105000  0.04130700  0.35588600  1
  O  O11  1  0.04148100  0.77105000  0.14413300  1
loop_
_geom_bond_atom_site_label_1
_geom_bond_atom_site_label_2
_geom_bond_distance
_geom_bond_site_symmetry_2
Mg0 O4 2.005927 1_655
Mg0 O5 2.006292 1_565
Mg0 O1 2.117311 1_655
Mg0 O0 2.119065 1_565
Mg0 O8 2.133937 1_555
Mg0 O9 2.137032 1_555
Mn0 O5 1.887836 1_555
Mn0 O4 1.888785 1_555
Mn0 O1 1.959653 1_545
Mn0 O0 1.959916 1_455
Mn0 O8 1.996157 1_545
Mn0 O9 1.999803 1_455
Mn1 O6 1.930736 1_555
Mn1 O7 1.931310 1_555
Mn1 O11 1.933191 1_655
Mn1 O10 1.933339 1_565
Mn1 O2 1.979529 1_655
Mn1 O3 1.980112 1_565
Co0 O7 1.918403 1_455
Co0 O6 1.918470 1_545
Co0 O3 2.054131 1_555
Co0 O2 2.055502 1_555
Co0 O11 2.111717 1_545
Co0 O10 2.111939 1_455
Co1 O3 2.080164 1_556
Co1 O8 2.116961 1_455
Co1 O0 2.134749 1_455
Co1 O4 2.135211 1_555
Co1 O7 2.160561 1_456
Co1 O11 2.191284 1_556
Co2 O2 2.079255 1_555
Co2 O9 2.118927 1_545
Co2 O5 2.134212 1_555
Co2 O1 2.134607 1_545
Co2 O6 2.162152 1_545
Co2 O10 2.189966 1_555
Co3 O11 1.923119 1_555
Co3 O10 1.923341 1_555
Co3 O2 2.033513 1_555
Co3 O3 2.033660 1_555
Co3 O7 2.136148 1_555
Co3 O6 2.136632 1_555
Co4 O0 1.870613 1_555
Co4 O1 1.870853 1_555
Co4 O9 1.940167 1_555
Co4 O8 1.948198 1_555
Co4 O4 2.091090 1_555
Co4 O5 2.092267 1_555
