# generated using pymatgen
data_MgMnV5O12
_symmetry_space_group_name_H-M   'P 1'
_cell_length_a   7.12413054
_cell_length_b   7.02886668
_cell_length_c   5.59354019
_cell_angle_alpha   71.35494727
_cell_angle_beta   107.62715593
_cell_angle_gamma   102.59534207
_symmetry_Int_Tables_number   1
_chemical_formula_structural   MgMnV5O12
_chemical_formula_sum   'Mg1 Mn1 V5 O12'
_cell_volume   250.64262381
_cell_formula_units_Z   1
loop_
 _symmetry_equiv_pos_site_id
 _symmetry_equiv_pos_as_xyz
  1  'x, y, z'
loop_
 _atom_site_type_symbol
 _atom_site_label
 _atom_site_symmetry_multiplicity
 _atom_site_fract_x
 _atom_site_fract_y
 _atom_site_fract_z
 _atom_site_occupancy
  Mg  Mg0  1  0.27787628  0.27068450  0.25388593  1
  Mn  Mn0  1  0.90244998  0.89774465  0.25045966  1
  V  V0  1  0.08463233  0.08475073  0.75111421  1
  V  V1  1  0.18603037  0.61819560  0.76631309  1
  V  V2  1  0.38747991  0.81393016  0.26675688  1
  V  V3  1  0.60745515  0.14696460  0.78186277  1
  V  V4  1  0.79465907  0.36951395  0.23372893  1
  O  O0  1  0.03340075  0.81643600  0.66672055  1
  O  O1  1  0.13952419  0.34990345  0.83103155  1
  O  O2  1  0.20112272  0.99082851  0.15426814  1
  O  O3  1  0.39784918  0.72582509  0.60988554  1
  O  O4  1  0.34184259  0.13513768  0.65922893  1
  O  O5  1  0.30876675  0.59418567  0.12669763  1
  O  O6  1  0.69694257  0.38539998  0.90083463  1
  O  O7  1  0.60097184  0.95758611  0.14876025  1
  O  O8  1  0.60029816  0.28529623  0.39352611  1
  O  O9  1  0.82098718  0.03246668  0.82409924  1
  O  O10  1  0.91305877  0.59686598  0.28520530  1
  O  O11  1  0.98242821  0.20605942  0.34562065  1
loop_
_geom_bond_atom_site_label_1
_geom_bond_atom_site_label_2
_geom_bond_distance
_geom_bond_site_symmetry_2
Mg0 O4 2.106754 1_555
Mg0 O2 2.127455 1_545
Mg0 O5 2.137092 1_555
Mg0 O8 2.181408 1_555
Mg0 O1 2.204829 1_554
Mg0 O11 2.233373 1_455
Mn0 O10 2.077022 1_555
Mn0 O7 2.148132 1_555
Mn0 O0 2.164343 1_655
Mn0 O9 2.208738 1_564
Mn0 O2 2.259682 1_655
Mn0 O11 2.306444 1_565
O0 V1 1.797734 1_555
O0 V0 2.019296 1_565
O1 V1 1.777827 1_555
O1 V0 1.983732 1_555
O2 V2 1.848869 1_555
O2 V0 2.088884 1_564
O3 V2 1.801883 1_555
O3 V1 1.869120 1_555
O4 V3 1.799949 1_555
O4 V0 1.979455 1_555
O5 V2 1.855738 1_555
O5 V1 1.906805 1_554
O6 V4 1.755058 1_556
O6 V3 1.910035 1_555
O7 V2 1.811223 1_555
O7 V3 2.066306 1_564
O8 V4 1.766463 1_555
O8 V3 2.066503 1_555
O9 V3 1.792302 1_555
O9 V0 1.974068 1_655
O10 V4 1.705089 1_555
O11 V4 1.790124 1_555
O11 V0 2.106095 1_655
