# generated using pymatgen
data_Mn9(NbGe4)2
_symmetry_space_group_name_H-M   'P 1'
_cell_length_a   5.07321300
_cell_length_b   13.20019100
_cell_length_c   16.03740800
_cell_angle_alpha   90.00000000
_cell_angle_beta   90.00000000
_cell_angle_gamma   90.00000000
_symmetry_Int_Tables_number   1
_chemical_formula_structural   Mn9(NbGe4)2
_chemical_formula_sum   'Mn36 Nb8 Ge32'
_cell_volume   1073.98320511
_cell_formula_units_Z   4
loop_
 _symmetry_equiv_pos_site_id
 _symmetry_equiv_pos_as_xyz
  1  'x, y, z'
loop_
 _atom_site_type_symbol
 _atom_site_label
 _atom_site_symmetry_multiplicity
 _atom_site_fract_x
 _atom_site_fract_y
 _atom_site_fract_z
 _atom_site_occupancy
  Mn  Mn0  1  0.49409200  0.86571500  0.17465900  1
  Mn  Mn1  1  0.99409200  0.13428500  0.82534100  1
  Mn  Mn2  1  0.00590800  0.36571500  0.32534100  1
  Mn  Mn3  1  0.50590800  0.63428500  0.67465900  1
  Mn  Mn4  1  0.50590800  0.13428500  0.82534100  1
  Mn  Mn5  1  0.00590800  0.86571500  0.17465900  1
  Mn  Mn6  1  0.99409200  0.63428500  0.67465900  1
  Mn  Mn7  1  0.49409200  0.36571500  0.32534100  1
  Mn  Mn8  1  0.49855900  0.56057000  0.12190600  1
  Mn  Mn9  1  0.99855900  0.43943000  0.87809400  1
  Mn  Mn10  1  0.00144100  0.06057000  0.37809400  1
  Mn  Mn11  1  0.50144100  0.93943000  0.62190600  1
  Mn  Mn12  1  0.50144100  0.43943000  0.87809400  1
  Mn  Mn13  1  0.00144100  0.56057000  0.12190600  1
  Mn  Mn14  1  0.99855900  0.93943000  0.62190600  1
  Mn  Mn15  1  0.49855900  0.06057000  0.37809400  1
  Mn  Mn16  1  0.75000000  0.56614600  0.30405700  1
  Mn  Mn17  1  0.25000000  0.43385400  0.69594300  1
  Mn  Mn18  1  0.75000000  0.06614600  0.19594300  1
  Mn  Mn19  1  0.25000000  0.93385400  0.80405700  1
  Mn  Mn20  1  0.75000000  0.63541300  0.84181400  1
  Mn  Mn21  1  0.25000000  0.36458700  0.15818600  1
  Mn  Mn22  1  0.75000000  0.13541300  0.65818600  1
  Mn  Mn23  1  0.25000000  0.86458700  0.34181400  1
  Mn  Mn24  1  0.75000000  0.95404400  0.90750200  1
  Mn  Mn25  1  0.25000000  0.04595600  0.09249800  1
  Mn  Mn26  1  0.75000000  0.45404400  0.59249800  1
  Mn  Mn27  1  0.25000000  0.54595600  0.40750200  1
  Mn  Mn28  1  0.75000000  0.62557300  0.50463900  1
  Mn  Mn29  1  0.25000000  0.37442700  0.49536100  1
  Mn  Mn30  1  0.75000000  0.12557300  0.99536100  1
  Mn  Mn31  1  0.25000000  0.87442700  0.00463900  1
  Mn  Mn32  1  0.75000000  0.81124000  0.75135800  1
  Mn  Mn33  1  0.25000000  0.18876000  0.24864200  1
  Mn  Mn34  1  0.75000000  0.31124000  0.74864200  1
  Mn  Mn35  1  0.25000000  0.68876000  0.25135800  1
  Nb  Nb0  1  0.75000000  0.86372000  0.45786300  1
  Nb  Nb1  1  0.25000000  0.13628000  0.54213700  1
  Nb  Nb2  1  0.75000000  0.36372000  0.04213700  1
  Nb  Nb3  1  0.25000000  0.63628000  0.95786300  1
  Nb  Nb4  1  0.75000000  0.75029500  0.02778500  1
  Nb  Nb5  1  0.25000000  0.24970500  0.97221500  1
  Nb  Nb6  1  0.75000000  0.25029500  0.47221500  1
  Nb  Nb7  1  0.25000000  0.74970500  0.52778500  1
  Ge  Ge0  1  0.50402200  0.70901800  0.38102800  1
  Ge  Ge1  1  0.00402200  0.29098200  0.61897200  1
  Ge  Ge2  1  0.99597800  0.20901800  0.11897200  1
  Ge  Ge3  1  0.49597800  0.79098200  0.88102800  1
  Ge  Ge4  1  0.49597800  0.29098200  0.61897200  1
  Ge  Ge5  1  0.99597800  0.70901800  0.38102800  1
  Ge  Ge6  1  0.00402200  0.79098200  0.88102800  1
  Ge  Ge7  1  0.50402200  0.20901800  0.11897200  1
  Ge  Ge8  1  0.75000000  0.70519200  0.19687400  1
  Ge  Ge9  1  0.25000000  0.29480800  0.80312600  1
  Ge  Ge10  1  0.75000000  0.20519200  0.30312600  1
  Ge  Ge11  1  0.25000000  0.79480800  0.69687400  1
  Ge  Ge12  1  0.75000000  0.91697300  0.30005600  1
  Ge  Ge13  1  0.25000000  0.08302700  0.69994400  1
  Ge  Ge14  1  0.75000000  0.41697300  0.19994400  1
  Ge  Ge15  1  0.25000000  0.58302700  0.80005600  1
  Ge  Ge16  1  0.75000000  0.55407300  0.98264000  1
  Ge  Ge17  1  0.25000000  0.44592700  0.01736000  1
  Ge  Ge18  1  0.75000000  0.05407300  0.51736000  1
  Ge  Ge19  1  0.25000000  0.94592700  0.48264000  1
  Ge  Ge20  1  0.75000000  0.95363000  0.06432500  1
  Ge  Ge21  1  0.25000000  0.04637000  0.93567500  1
  Ge  Ge22  1  0.75000000  0.45363000  0.43567500  1
  Ge  Ge23  1  0.25000000  0.54637000  0.56432500  1
  Ge  Ge24  1  0.75000000  0.77120100  0.60257200  1
  Ge  Ge25  1  0.25000000  0.22879900  0.39742800  1
  Ge  Ge26  1  0.75000000  0.27120100  0.89742800  1
  Ge  Ge27  1  0.25000000  0.72879900  0.10257200  1
  Ge  Ge28  1  0.75000000  0.99339700  0.75622900  1
  Ge  Ge29  1  0.25000000  0.00660300  0.24377100  1
  Ge  Ge30  1  0.75000000  0.49339700  0.74377100  1
  Ge  Ge31  1  0.25000000  0.50660300  0.25622900  1
loop_
_geom_bond_atom_site_label_1
_geom_bond_atom_site_label_2
_geom_bond_distance
_geom_bond_site_symmetry_2
Ge0 Mn35 2.461075 1_555
Ge0 Ge5 2.495798 1_555
Ge0 Mn23 2.504656 1_555
Ge0 Mn27 2.544419 1_555
Ge0 Mn16 2.576392 1_555
Ge0 Ge5 2.577415 1_455
Ge0 Mn28 2.588521 1_555
Ge0 Nb0 2.691804 1_555
Ge0 Nb7 2.736542 1_555
Ge1 Mn34 2.461075 1_455
Ge1 Ge4 2.495798 1_555
Ge1 Mn22 2.504656 1_455
Ge1 Mn26 2.544419 1_455
Ge1 Mn17 2.576392 1_555
Ge1 Ge4 2.577415 1_455
Ge1 Mn29 2.588521 1_555
Ge1 Nb1 2.691804 1_555
Ge1 Nb6 2.736542 1_455
Ge2 Mn33 2.461075 1_655
Ge2 Ge7 2.495798 1_555
Ge2 Mn21 2.504656 1_655
Ge2 Mn25 2.544419 1_655
Ge2 Mn18 2.576392 1_555
Ge2 Ge7 2.577415 1_655
Ge2 Mn30 2.588521 1_554
Ge2 Nb2 2.691804 1_555
Ge2 Nb5 2.736542 1_654
Ge3 Mn32 2.461075 1_555
Ge3 Ge6 2.495798 1_555
Ge3 Mn20 2.504656 1_555
Ge3 Mn24 2.544419 1_555
Ge3 Mn19 2.576392 1_555
Ge3 Ge6 2.577415 1_655
Ge3 Mn31 2.588521 1_556
Ge3 Nb3 2.691804 1_555
Ge3 Nb4 2.736542 1_556
Ge4 Mn34 2.461075 1_555
Ge4 Mn22 2.504656 1_555
Ge4 Mn26 2.544419 1_555
Ge4 Mn17 2.576392 1_555
Ge4 Mn29 2.588521 1_555
Ge4 Nb1 2.691804 1_555
Ge4 Nb6 2.736542 1_555
Ge5 Mn35 2.461075 1_655
Ge5 Mn23 2.504656 1_655
Ge5 Mn27 2.544419 1_655
Ge5 Mn16 2.576392 1_555
Ge5 Mn28 2.588521 1_555
Ge5 Nb0 2.691804 1_555
Ge5 Nb7 2.736542 1_655
Ge6 Mn32 2.461075 1_455
Ge6 Mn20 2.504656 1_455
Ge6 Mn24 2.544419 1_455
Ge6 Mn19 2.576392 1_555
Ge6 Mn31 2.588521 1_556
Ge6 Nb3 2.691804 1_555
Ge6 Nb4 2.736542 1_456
Ge7 Mn33 2.461075 1_555
Ge7 Mn21 2.504656 1_555
Ge7 Mn25 2.544419 1_555
Ge7 Mn18 2.576392 1_555
Ge7 Mn30 2.588521 1_554
Ge7 Nb2 2.691804 1_555
Ge7 Nb5 2.736542 1_554
Ge8 Mn5 2.510444 1_655
Ge8 Mn0 2.510444 1_555
Ge8 Mn16 2.514670 1_555
Ge8 Mn8 2.591741 1_555
Ge8 Mn13 2.591741 1_655
Ge8 Mn35 2.691638 1_555
Ge8 Mn35 2.691638 1_655
Ge8 Nb4 2.776337 1_555
Ge9 Mn4 2.510444 1_555
Ge9 Mn1 2.510444 1_455
Ge9 Mn17 2.514670 1_555
Ge9 Mn9 2.591741 1_455
Ge9 Mn12 2.591741 1_555
Ge9 Mn34 2.691638 1_455
Ge9 Mn34 2.691638 1_555
Ge9 Nb5 2.776337 1_555
Ge10 Mn2 2.510444 1_655
Ge10 Mn7 2.510444 1_555
Ge10 Mn18 2.514670 1_555
Ge10 Mn15 2.591741 1_555
Ge10 Mn10 2.591741 1_655
Ge10 Mn33 2.691638 1_655
Ge10 Mn33 2.691638 1_555
Ge10 Nb6 2.776337 1_555
Ge11 Mn6 2.510444 1_455
Ge11 Mn3 2.510444 1_555
Ge11 Mn19 2.514670 1_555
Ge11 Mn11 2.591741 1_555
Ge11 Mn14 2.591741 1_455
Ge11 Mn32 2.691638 1_555
Ge11 Mn32 2.691638 1_455
Ge11 Nb7 2.776337 1_555
Ge12 Mn5 2.487493 1_655
Ge12 Mn0 2.487493 1_555
Ge12 Mn18 2.581726 1_565
Ge12 Mn10 2.605084 1_665
Ge12 Mn15 2.605084 1_565
Ge12 Nb0 2.626626 1_555
Ge12 Mn23 2.713123 1_555
Ge12 Mn23 2.713123 1_655
Ge13 Mn1 2.487493 1_455
Ge13 Mn4 2.487493 1_555
Ge13 Mn19 2.581726 1_545
Ge13 Mn11 2.605084 1_545
Ge13 Mn14 2.605084 1_445
Ge13 Nb1 2.626626 1_555
Ge13 Mn22 2.713123 1_455
Ge13 Mn22 2.713123 1_555
Ge14 Mn2 2.487493 1_655
Ge14 Mn7 2.487493 1_555
Ge14 Mn16 2.581726 1_555
Ge14 Mn8 2.605084 1_555
Ge14 Mn13 2.605084 1_655
Ge14 Nb2 2.626626 1_555
Ge14 Mn21 2.713123 1_555
Ge14 Mn21 2.713123 1_655
Ge15 Mn6 2.487493 1_455
Ge15 Mn3 2.487493 1_555
Ge15 Mn17 2.581726 1_555
Ge15 Mn12 2.605084 1_555
Ge15 Mn9 2.605084 1_455
Ge15 Nb3 2.626626 1_555
Ge15 Mn20 2.713123 1_555
Ge15 Mn20 2.713123 1_455
Ge16 Mn20 2.500718 1_555
Ge16 Mn8 2.573502 1_556
Ge16 Mn13 2.573502 1_656
Ge16 Mn9 2.586765 1_555
Ge16 Mn12 2.586765 1_555
Ge16 Nb2 2.687768 1_556
Ge16 Nb4 2.689453 1_556
Ge16 Nb3 2.787438 1_655
Ge16 Nb3 2.787438 1_555
Ge17 Mn21 2.500718 1_555
Ge17 Mn12 2.573502 1_554
Ge17 Mn9 2.573502 1_454
Ge17 Mn13 2.586765 1_555
Ge17 Mn8 2.586765 1_555
Ge17 Nb3 2.687768 1_554
Ge17 Nb5 2.689453 1_554
Ge17 Nb2 2.787438 1_555
Ge17 Nb2 2.787438 1_455
Ge18 Mn22 2.500718 1_555
Ge18 Mn10 2.573502 1_655
Ge18 Mn15 2.573502 1_555
Ge18 Mn14 2.586765 1_545
Ge18 Mn11 2.586765 1_545
Ge18 Nb0 2.687768 1_545
Ge18 Nb6 2.689453 1_555
Ge18 Nb1 2.787438 1_655
Ge18 Nb1 2.787438 1_555
Ge19 Mn23 2.500718 1_555
Ge19 Mn14 2.573502 1_455
Ge19 Mn11 2.573502 1_555
Ge19 Mn15 2.586765 1_565
Ge19 Mn10 2.586765 1_565
Ge19 Nb1 2.687768 1_565
Ge19 Nb7 2.689453 1_555
Ge19 Nb0 2.787438 1_555
Ge19 Nb0 2.787438 1_455
Ge20 Mn5 2.482599 1_655
Ge20 Mn0 2.482599 1_555
Ge20 Mn24 2.515040 1_554
Ge20 Mn30 2.524816 1_564
Ge20 Mn18 2.580977 1_565
Ge20 Nb4 2.747287 1_555
Ge20 Mn25 2.850227 1_665
Ge20 Mn25 2.850227 1_565
Ge20 Mn31 2.905801 1_555
Ge20 Mn31 2.905801 1_655
Ge21 Mn1 2.482599 1_455
Ge21 Mn4 2.482599 1_555
Ge21 Mn25 2.515040 1_556
Ge21 Mn31 2.524816 1_546
Ge21 Mn19 2.580977 1_545
Ge21 Nb5 2.747287 1_555
Ge21 Mn24 2.850227 1_545
Ge21 Mn24 2.850227 1_445
Ge21 Mn30 2.905801 1_455
Ge21 Mn30 2.905801 1_555
Ge22 Mn2 2.482599 1_655
Ge22 Mn7 2.482599 1_555
Ge22 Mn26 2.515040 1_555
Ge22 Mn28 2.524816 1_555
Ge22 Mn16 2.580977 1_555
Ge22 Nb6 2.747287 1_555
Ge22 Mn27 2.850227 1_655
Ge22 Mn27 2.850227 1_555
Ge22 Mn29 2.905801 1_555
Ge22 Mn29 2.905801 1_655
Ge23 Mn6 2.482599 1_455
Ge23 Mn3 2.482599 1_555
Ge23 Mn27 2.515040 1_555
Ge23 Mn29 2.524816 1_555
Ge23 Mn17 2.580977 1_555
Ge23 Nb7 2.747287 1_555
Ge23 Mn26 2.850227 1_555
Ge23 Mn26 2.850227 1_455
Ge23 Mn28 2.905801 1_455
Ge23 Mn28 2.905801 1_555
Ge24 Mn32 2.443974 1_555
Ge24 Mn3 2.477176 1_555
Ge24 Mn6 2.477176 1_555
Ge24 Mn28 2.482350 1_555
Ge24 Mn14 2.572460 1_555
Ge24 Mn11 2.572460 1_555
Ge24 Nb0 2.622482 1_555
Ge24 Nb7 2.820181 1_655
Ge24 Nb7 2.820181 1_555
Ge25 Mn33 2.443974 1_555
Ge25 Mn7 2.477176 1_555
Ge25 Mn2 2.477176 1_555
Ge25 Mn29 2.482350 1_555
Ge25 Mn15 2.572460 1_555
Ge25 Mn10 2.572460 1_555
Ge25 Nb1 2.622482 1_555
Ge25 Nb6 2.820181 1_555
Ge25 Nb6 2.820181 1_455
Ge26 Mn34 2.443974 1_555
Ge26 Mn1 2.477176 1_555
Ge26 Mn4 2.477176 1_555
Ge26 Mn30 2.482350 1_555
Ge26 Mn9 2.572460 1_555
Ge26 Mn12 2.572460 1_555
Ge26 Nb2 2.622482 1_556
Ge26 Nb5 2.820181 1_655
Ge26 Nb5 2.820181 1_555
Ge27 Mn35 2.443974 1_555
Ge27 Mn5 2.477176 1_555
Ge27 Mn0 2.477176 1_555
Ge27 Mn31 2.482350 1_555
Ge27 Mn13 2.572460 1_555
Ge27 Mn8 2.572460 1_555
Ge27 Nb3 2.622482 1_554
Ge27 Nb4 2.820181 1_455
Ge27 Nb4 2.820181 1_555
Ge28 Mn32 2.405776 1_555
Ge28 Mn22 2.446747 1_565
Ge28 Mn24 2.481018 1_555
Ge28 Mn1 2.494119 1_565
Ge28 Mn4 2.494119 1_565
Ge28 Mn14 2.595790 1_555
Ge28 Mn11 2.595790 1_555
Ge28 Mn19 2.764142 1_555
Ge28 Mn19 2.764142 1_655
Ge29 Mn33 2.405776 1_555
Ge29 Mn23 2.446747 1_545
Ge29 Mn25 2.481018 1_555
Ge29 Mn0 2.494119 1_545
Ge29 Mn5 2.494119 1_545
Ge29 Mn10 2.595790 1_555
Ge29 Mn15 2.595790 1_555
Ge29 Mn18 2.764142 1_555
Ge29 Mn18 2.764142 1_455
Ge30 Mn34 2.405776 1_555
Ge30 Mn20 2.446747 1_555
Ge30 Mn26 2.481018 1_555
Ge30 Mn6 2.494119 1_555
Ge30 Mn3 2.494119 1_555
Ge30 Mn9 2.595790 1_555
Ge30 Mn12 2.595790 1_555
Ge30 Mn17 2.764142 1_655
Ge30 Mn17 2.764142 1_555
Ge31 Mn35 2.405776 1_555
Ge31 Mn21 2.446747 1_555
Ge31 Mn27 2.481018 1_555
Ge31 Mn7 2.494119 1_555
Ge31 Mn2 2.494119 1_555
Ge31 Mn13 2.595790 1_555
Ge31 Mn8 2.595790 1_555
Ge31 Mn16 2.764142 1_555
Ge31 Mn16 2.764142 1_455
