# generated using pymatgen
data_Na3TiCl6
_symmetry_space_group_name_H-M   'P 1'
_cell_length_a   6.76136300
_cell_length_b   7.12282700
_cell_length_c   9.92561046
_cell_angle_alpha   90.00000000
_cell_angle_beta   89.86278708
_cell_angle_gamma   90.00000000
_symmetry_Int_Tables_number   1
_chemical_formula_structural   Na3TiCl6
_chemical_formula_sum   'Na6 Ti2 Cl12'
_cell_volume   478.01621704
_cell_formula_units_Z   2
loop_
 _symmetry_equiv_pos_site_id
 _symmetry_equiv_pos_as_xyz
  1  'x, y, z'
loop_
 _atom_site_type_symbol
 _atom_site_label
 _atom_site_symmetry_multiplicity
 _atom_site_fract_x
 _atom_site_fract_y
 _atom_site_fract_z
 _atom_site_occupancy
  Na  Na0  1  0.52427900  0.08095000  0.75614200  1
  Na  Na1  1  0.97572100  0.58095000  0.74385800  1
  Na  Na2  1  0.00000000  0.00000000  0.50000000  1
  Na  Na3  1  0.50000000  0.50000000  0.00000000  1
  Na  Na4  1  0.47572100  0.91905000  0.24385800  1
  Na  Na5  1  0.02427900  0.41905000  0.25614200  1
  Ti  Ti0  1  0.50000000  0.50000000  0.50000000  1
  Ti  Ti1  1  0.00000000  0.00000000  0.00000000  1
  Cl  Cl0  1  0.37064300  0.45060000  0.72994500  1
  Cl  Cl1  1  0.20362200  0.67672000  0.43688200  1
  Cl  Cl2  1  0.29637800  0.17672000  0.06311800  1
  Cl  Cl3  1  0.79637800  0.32328000  0.56311800  1
  Cl  Cl4  1  0.84166100  0.28791300  0.93024700  1
  Cl  Cl5  1  0.65833900  0.78791300  0.56975300  1
  Cl  Cl6  1  0.15833900  0.71208700  0.06975300  1
  Cl  Cl7  1  0.34166100  0.21208700  0.43024700  1
  Cl  Cl8  1  0.62935700  0.54940000  0.27005500  1
  Cl  Cl9  1  0.87064300  0.04940000  0.22994500  1
  Cl  Cl10  1  0.70362200  0.82328000  0.93688200  1
  Cl  Cl11  1  0.12935700  0.95060000  0.77005500  1
loop_
_geom_bond_atom_site_label_1
_geom_bond_atom_site_label_2
_geom_bond_distance
_geom_bond_site_symmetry_2
Cl0 Ti0 2.467453 1_555
Cl0 Na1 2.830083 1_455
Cl0 Na0 2.842609 1_555
Cl0 Na3 2.843393 1_556
Cl1 Ti0 2.449210 1_555
Cl1 Na2 2.754288 1_565
Cl1 Na5 2.840346 1_555
Cl1 Na4 3.165086 1_555
Cl2 Ti1 2.449210 1_555
Cl2 Na3 2.754288 1_555
Cl2 Na4 2.840346 1_545
Cl2 Na5 3.165086 1_555
Cl3 Ti0 2.449210 1_555
Cl3 Na2 2.754288 1_655
Cl3 Na1 2.840346 1_555
Cl3 Na0 3.165086 1_555
Cl4 Ti1 2.415499 1_656
Cl4 Na3 2.844345 1_556
Cl4 Na1 2.931346 1_555
Cl4 Na0 3.127663 1_555
Cl5 Ti0 2.415499 1_555
Cl5 Na2 2.844345 1_665
Cl5 Na0 2.931346 1_565
Cl5 Na1 3.127663 1_555
Cl6 Ti1 2.415499 1_565
Cl6 Na3 2.844345 1_555
Cl6 Na5 2.931346 1_555
Cl6 Na4 3.127663 1_555
Cl7 Ti0 2.415499 1_555
Cl7 Na2 2.844345 1_555
Cl7 Na4 2.931346 1_545
Cl7 Na5 3.127663 1_555
Cl8 Ti0 2.467453 1_555
Cl8 Na5 2.830083 1_655
Cl8 Na4 2.842609 1_555
Cl8 Na3 2.843393 1_555
Cl9 Ti1 2.467453 1_655
Cl9 Na4 2.830083 1_545
Cl9 Na5 2.842609 1_655
Cl9 Na2 2.843393 1_655
Cl10 Ti1 2.449210 1_666
Cl10 Na3 2.754288 1_556
Cl10 Na0 2.840346 1_565
Cl10 Na1 3.165086 1_555
Cl11 Ti1 2.467453 1_566
Cl11 Na0 2.830083 1_565
Cl11 Na1 2.842609 1_455
Cl11 Na2 2.843393 1_565
