# generated using pymatgen
data_TiSnP2SO12
_symmetry_space_group_name_H-M   'P 1'
_cell_length_a   8.67546427
_cell_length_b   8.68025117
_cell_length_c   22.45163614
_cell_angle_alpha   90.00340728
_cell_angle_beta   89.98866638
_cell_angle_gamma   119.95253172
_symmetry_Int_Tables_number   1
_chemical_formula_structural   TiSnP2SO12
_chemical_formula_sum   'Ti6 Sn6 P12 S6 O72'
_cell_volume   1464.91076192
_cell_formula_units_Z   6
loop_
 _symmetry_equiv_pos_site_id
 _symmetry_equiv_pos_as_xyz
  1  'x, y, z'
loop_
 _atom_site_type_symbol
 _atom_site_label
 _atom_site_symmetry_multiplicity
 _atom_site_fract_x
 _atom_site_fract_y
 _atom_site_fract_z
 _atom_site_occupancy
  Ti  Ti0  1  0.99848541  0.00413859  0.35531652  1
  Ti  Ti1  1  0.98971730  0.00786726  0.64381931  1
  Ti  Ti2  1  0.01777567  0.00576573  0.14475492  1
  Ti  Ti3  1  0.66355106  0.33480100  0.68826116  1
  Ti  Ti4  1  0.68364210  0.34016434  0.47753464  1
  Ti  Ti5  1  0.32342332  0.67340068  0.31071709  1
  Sn  Sn0  1  0.00121988  0.99872269  0.85337804  1
  Sn  Sn1  1  0.66924528  0.33655946  0.18874875  1
  Sn  Sn2  1  0.66016861  0.33628221  0.97917964  1
  Sn  Sn3  1  0.33367717  0.66867064  0.02115531  1
  Sn  Sn4  1  0.33587336  0.66823395  0.52101370  1
  Sn  Sn5  1  0.34264643  0.67077318  0.81114186  1
  P  P0  1  0.28606882  0.00134708  0.25116203  1
  P  P1  1  0.00307327  0.28688632  0.25003243  1
  P  P2  1  0.28817037  0.28712818  0.74846566  1
  P  P3  1  0.71273838  0.00518141  0.74898207  1
  P  P4  1  0.95249400  0.33502428  0.58428094  1
  P  P5  1  0.66983241  0.62031975  0.58349620  1
  P  P6  1  0.95669119  0.62579705  0.08367465  1
  P  P7  1  0.37609745  0.33440749  0.08418327  1
  P  P8  1  0.62482002  0.66852617  0.91683078  1
  P  P9  1  0.33361298  0.95682591  0.91659307  1
  P  P10  1  0.62187205  0.95647344  0.41547664  1
  P  P11  1  0.04505409  0.67060267  0.41600053  1
  S  S0  1  0.71173189  0.71628891  0.25031392  1
  S  S1  1  0.99852803  0.70935160  0.74782434  1
  S  S2  1  0.37817301  0.04900819  0.58342545  1
  S  S3  1  0.67154643  0.04314285  0.08373900  1
  S  S4  1  0.04147399  0.37568759  0.91637728  1
  S  S5  1  0.33511363  0.37661818  0.41519471  1
  O  O0  1  0.19582436  0.02788694  0.30534407  1
  O  O1  1  0.82463704  0.79439171  0.30365071  1
  O  O2  1  0.97203733  0.16769220  0.30532441  1
  O  O3  1  0.21331450  0.17473277  0.80548638  1
  O  O4  1  0.96264480  0.78027785  0.80344234  1
  O  O5  1  0.82645787  0.03931414  0.80529377  1
  O  O6  1  0.80315605  0.97079035  0.69468291  1
  O  O7  1  0.16739890  0.19464579  0.69432078  1
  O  O8  1  0.03144075  0.82367138  0.69634898  1
  O  O9  1  0.79176766  0.82396110  0.19652210  1
  O  O10  1  0.02951195  0.19685555  0.19465346  1
  O  O11  1  0.16910392  0.96728407  0.19484509  1
  O  O12  1  0.86252942  0.36130042  0.63863037  1
  O  O13  1  0.49126502  0.12747380  0.63695564  1
  O  O14  1  0.63885266  0.50083623  0.63866707  1
  O  O15  1  0.87762719  0.50744575  0.13899410  1
  O  O16  1  0.63107449  0.11837357  0.13680287  1
  O  O17  1  0.49141798  0.36874607  0.13961397  1
  O  O18  1  0.44878278  0.29046381  0.02846399  1
  O  O19  1  0.84202911  0.54500270  0.02750289  1
  O  O20  1  0.70431213  0.15369923  0.02945646  1
  O  O21  1  0.45901524  0.15759361  0.52982509  1
  O  O22  1  0.69628171  0.52973101  0.52789201  1
  O  O23  1  0.83502639  0.30082836  0.52796388  1
  O  O24  1  0.54440049  0.70332302  0.97283222  1
  O  O25  1  0.15197536  0.45060549  0.97024416  1
  O  O26  1  0.29631525  0.84074714  0.97248073  1
  O  O27  1  0.54692709  0.84152694  0.47189463  1
  O  O28  1  0.29508603  0.44803921  0.47002219  1
  O  O29  1  0.15850864  0.70393472  0.47208164  1
  O  O30  1  0.13245990  0.63403772  0.36150537  1
  O  O31  1  0.50084036  0.86380119  0.36117695  1
  O  O32  1  0.36534073  0.49061908  0.36316903  1
  O  O33  1  0.11707334  0.48652152  0.86263318  1
  O  O34  1  0.36696540  0.87565289  0.86044654  1
  O  O35  1  0.50717930  0.62780921  0.86131228  1
  O  O36  1  0.02189207  0.83112825  0.40419480  1
  O  O37  1  0.80726357  0.97700340  0.40419284  1
  O  O38  1  0.17480403  0.19871640  0.40722277  1
  O  O39  1  0.02496549  0.19957827  0.91027763  1
  O  O40  1  0.16850397  0.97609191  0.90947977  1
  O  O41  1  0.80810862  0.83417291  0.90918781  1
  O  O42  1  0.97296083  0.16848069  0.59318857  1
  O  O43  1  0.20022929  0.02637383  0.59271621  1
  O  O44  1  0.83492512  0.80488076  0.59482516  1
  O  O45  1  0.97344668  0.80905351  0.09482812  1
  O  O46  1  0.82710153  0.02415297  0.09235169  1
  O  O47  1  0.19073114  0.16794901  0.09409666  1
  O  O48  1  0.69251604  0.16804046  0.73742717  1
  O  O49  1  0.47376590  0.30823266  0.73761889  1
  O  O50  1  0.84073700  0.53168255  0.74081821  1
  O  O51  1  0.69392884  0.53679997  0.24461696  1
  O  O52  1  0.83762725  0.30693734  0.24300060  1
  O  O53  1  0.47121886  0.16288969  0.24235837  1
  O  O54  1  0.64427120  0.50345039  0.92291052  1
  O  O55  1  0.86472493  0.35729166  0.92371761  1
  O  O56  1  0.50161667  0.13908883  0.92409103  1
  O  O57  1  0.64050145  0.14068496  0.42713682  1
  O  O58  1  0.49186678  0.35690176  0.42522290  1
  O  O59  1  0.86024215  0.50235645  0.42606827  1
  O  O60  1  0.35423854  0.49684732  0.07585801  1
  O  O61  1  0.14083219  0.64472657  0.07596490  1
  O  O62  1  0.50952294  0.86736076  0.07719200  1
  O  O63  1  0.36065016  0.86968222  0.57762748  1
  O  O64  1  0.50442594  0.64042212  0.57626067  1
  O  O65  1  0.13789781  0.49670200  0.57563692  1
  O  O66  1  0.30628841  0.83462539  0.26008085  1
  O  O67  1  0.53315865  0.69299263  0.25939533  1
  O  O68  1  0.16813387  0.47184396  0.26157113  1
  O  O69  1  0.30447883  0.47064233  0.75637809  1
  O  O70  1  0.15793639  0.69049660  0.75635393  1
  O  O71  1  0.52938810  0.83810606  0.75457513  1
loop_
_geom_bond_atom_site_label_1
_geom_bond_atom_site_label_2
_geom_bond_distance
_geom_bond_site_symmetry_2
O0 P0 1.524968 1_555
O0 Ti0 1.969549 1_455
O1 S0 1.479971 1_555
O1 Ti0 2.047804 1_565
O2 P1 1.551087 1_655
O2 Ti0 1.911418 1_555
O3 P2 1.542613 1_555
O3 Sn0 2.016997 1_545
O4 S1 1.492103 1_555
O4 Sn0 2.081009 1_655
O5 P3 1.538862 1_555
O5 Sn0 2.030378 1_645
O6 P3 1.556936 1_565
O6 Ti1 1.872539 1_565
O7 P2 1.542885 1_555
O7 Ti1 1.948124 1_455
O8 S1 1.455666 1_455
O8 Ti1 2.157923 1_465
O9 S0 1.471731 1_555
O9 Ti2 2.143650 1_665
O10 P1 1.545320 1_555
O10 Ti2 1.961617 1_555
O11 P0 1.554568 1_565
O11 Ti2 1.881064 1_565
O12 P4 1.525614 1_555
O12 Ti3 1.969060 1_555
O13 S2 1.484591 1_555
O13 Ti3 2.028310 1_555
O14 P5 1.550452 1_555
O14 Ti3 1.916120 1_555
O15 P6 1.537736 1_555
O15 Sn1 2.009471 1_555
O16 S3 1.482491 1_555
O16 Sn1 2.104842 1_555
O17 P7 1.530111 1_555
O17 Sn1 2.026365 1_555
O18 P7 1.532291 1_555
O18 Sn2 2.004138 1_554
O19 P6 1.541305 1_555
O19 Sn2 2.023570 1_554
O20 S3 1.488172 1_555
O20 Sn2 2.130518 1_554
O21 S2 1.472477 1_555
O21 Ti4 2.145416 1_555
O22 P5 1.552234 1_555
O22 Ti4 1.953860 1_555
O23 P4 1.556850 1_555
O23 Ti4 1.889910 1_555
O24 P8 1.539118 1_555
O24 Sn3 2.014881 1_556
O25 S4 1.477295 1_555
O25 Sn3 2.096488 1_556
O26 P9 1.539096 1_555
O26 Sn3 2.003535 1_556
O27 P10 1.541028 1_555
O27 Sn4 2.020031 1_555
O28 S5 1.494966 1_555
O28 Sn4 2.100871 1_555
O29 P11 1.534256 1_555
O29 Sn4 2.036539 1_555
O30 P11 1.553260 1_555
O30 Ti5 1.896227 1_555
O31 P10 1.546870 1_555
O31 Ti5 1.960694 1_555
O32 S5 1.467396 1_555
O32 Ti5 2.147757 1_555
O33 S4 1.476977 1_555
O33 Sn5 2.144302 1_555
O34 P9 1.540320 1_555
O34 Sn5 2.014403 1_555
O35 P8 1.536388 1_555
O35 Sn5 1.994392 1_555
O36 P11 1.527042 1_555
O36 Ti0 1.950805 1_465
O37 P10 1.548028 1_555
O37 Ti0 1.902857 1_565
O38 S5 1.485393 1_555
O38 Ti0 1.992794 1_455
O39 S4 1.468833 1_555
O39 Sn0 2.086940 1_545
O40 P9 1.531186 1_555
O40 Sn0 2.004178 1_555
O41 P8 1.530420 1_555
O41 Sn0 2.006692 1_655
O42 P4 1.554917 1_555
O42 Ti1 1.860012 1_555
O43 S2 1.470466 1_555
O43 Ti1 2.093748 1_455
O44 P5 1.546427 1_555
O44 Ti1 1.937916 1_565
O45 P6 1.543785 1_555
O45 Ti2 1.914214 1_665
O46 S3 1.451890 1_555
O46 Ti2 2.100115 1_655
O47 P7 1.550167 1_555
O47 Ti2 1.848533 1_555
O48 P3 1.531086 1_555
O48 Ti3 1.934034 1_555
O49 P2 1.546184 1_555
O49 Ti3 1.900587 1_555
O50 S1 1.472757 1_555
O50 Ti3 2.013242 1_555
O51 S0 1.492415 1_555
O51 Sn1 2.066036 1_555
O52 P1 1.537827 1_655
O52 Sn1 2.014812 1_555
O53 P0 1.528459 1_555
O53 Sn1 2.021376 1_555
O54 P8 1.530292 1_555
O54 Sn2 1.980086 1_555
O55 S4 1.469461 1_655
O55 Sn2 2.099781 1_555
O56 P9 1.533996 1_545
O56 Sn2 2.000252 1_555
O57 P10 1.547053 1_545
O57 Ti4 1.942012 1_555
O58 S5 1.470326 1_555
O58 Ti4 2.100170 1_555
O59 P11 1.554447 1_655
O59 Ti4 1.873549 1_555
O60 P7 1.525157 1_555
O60 Sn3 2.007650 1_555
O61 P6 1.531919 1_455
O61 Sn3 2.002118 1_555
O62 S3 1.477817 1_565
O62 Sn3 2.063459 1_555
O63 S2 1.492224 1_565
O63 Sn4 2.084232 1_555
O64 P5 1.538223 1_555
O64 Sn4 2.021963 1_555
O65 P4 1.529767 1_455
O65 Sn4 2.028945 1_555
O66 P0 1.555235 1_565
O66 Ti5 1.865764 1_555
O67 S0 1.472941 1_555
O67 Ti5 2.087483 1_555
O68 P1 1.549072 1_555
O68 Ti5 1.933950 1_555
O69 P2 1.537526 1_555
O69 Sn5 2.016117 1_555
O70 S1 1.483951 1_455
O70 Sn5 2.094037 1_555
O71 P3 1.531529 1_565
O71 Sn5 1.999236 1_555
