# generated using pymatgen
data_VCdO3
_symmetry_space_group_name_H-M   'P 1'
_cell_length_a   5.32223400
_cell_length_b   5.40324600
_cell_length_c   7.60305900
_cell_angle_alpha   90.00000000
_cell_angle_beta   90.00000000
_cell_angle_gamma   90.00000000
_symmetry_Int_Tables_number   1
_chemical_formula_structural   VCdO3
_chemical_formula_sum   'V4 Cd4 O12'
_cell_volume   218.64374945
_cell_formula_units_Z   4
loop_
 _symmetry_equiv_pos_site_id
 _symmetry_equiv_pos_as_xyz
  1  'x, y, z'
loop_
 _atom_site_type_symbol
 _atom_site_label
 _atom_site_symmetry_multiplicity
 _atom_site_fract_x
 _atom_site_fract_y
 _atom_site_fract_z
 _atom_site_occupancy
  V  V0  1  0.50000000  0.00000000  0.50000000  1
  V  V1  1  0.00000000  0.50000000  0.50000000  1
  V  V2  1  0.00000000  0.50000000  0.00000000  1
  V  V3  1  0.50000000  0.00000000  0.00000000  1
  Cd  Cd0  1  0.00887300  0.96509300  0.75000000  1
  Cd  Cd1  1  0.50887300  0.53490700  0.25000000  1
  Cd  Cd2  1  0.49112700  0.46509300  0.75000000  1
  Cd  Cd3  1  0.99112700  0.03490700  0.25000000  1
  O  O0  1  0.70668700  0.28889700  0.45567800  1
  O  O1  1  0.20668700  0.21110300  0.54432200  1
  O  O2  1  0.79331300  0.78889700  0.04432200  1
  O  O3  1  0.29331300  0.71110300  0.95567800  1
  O  O4  1  0.29331300  0.71110300  0.54432200  1
  O  O5  1  0.79331300  0.78889700  0.45567800  1
  O  O6  1  0.20668700  0.21110300  0.95567800  1
  O  O7  1  0.70668700  0.28889700  0.04432200  1
  O  O8  1  0.08697700  0.47898800  0.25000000  1
  O  O9  1  0.58697700  0.02101200  0.75000000  1
  O  O10  1  0.41302300  0.97898800  0.25000000  1
  O  O11  1  0.91302300  0.52101200  0.75000000  1
loop_
_geom_bond_atom_site_label_1
_geom_bond_atom_site_label_2
_geom_bond_distance
_geom_bond_site_symmetry_2
Cd0 O9 2.265666 1_465
Cd0 O6 2.306673 1_565
Cd0 O1 2.306673 1_565
Cd0 O11 2.453108 1_455
Cd0 O4 2.573048 1_555
Cd0 O3 2.573048 1_555
Cd0 O5 2.688881 1_455
Cd0 O2 2.688881 1_456
Cd1 O8 2.265666 1_555
Cd1 O7 2.306673 1_555
Cd1 O0 2.306673 1_555
Cd1 O10 2.453108 1_555
Cd1 O5 2.573048 1_555
Cd1 O2 2.573048 1_555
Cd1 O4 2.688881 1_555
Cd1 O3 2.688881 1_554
Cd2 O11 2.265666 1_555
Cd2 O3 2.306673 1_555
Cd2 O4 2.306673 1_555
Cd2 O9 2.453108 1_555
Cd2 O1 2.573048 1_555
Cd2 O6 2.573048 1_555
Cd2 O0 2.688881 1_555
Cd2 O7 2.688881 1_556
Cd3 O10 2.265666 1_645
Cd3 O2 2.306673 1_545
Cd3 O5 2.306673 1_545
Cd3 O8 2.453108 1_655
Cd3 O7 2.573048 1_555
Cd3 O0 2.573048 1_555
Cd3 O1 2.688881 1_655
Cd3 O6 2.688881 1_654
O0 V0 1.939150 1_555
O0 V1 1.962547 1_655
O1 V1 1.939150 1_555
O1 V0 1.962547 1_555
O2 V2 1.939150 1_655
O2 V3 1.962547 1_565
O3 V3 1.939150 1_566
O3 V2 1.962547 1_556
O4 V0 1.939150 1_565
O4 V1 1.962547 1_555
O5 V1 1.939150 1_655
O5 V0 1.962547 1_565
O6 V2 1.939150 1_556
O6 V3 1.962547 1_556
O7 V3 1.939150 1_555
O7 V2 1.962547 1_655
O8 V1 1.959613 1_555
O8 V2 1.959613 1_555
O9 V0 1.959613 1_555
O9 V3 1.959613 1_556
O10 V3 1.959613 1_565
O10 V0 1.959613 1_565
O11 V1 1.959613 1_655
O11 V2 1.959613 1_656
