# generated using pymatgen
data_BRh2
_symmetry_space_group_name_H-M   'P 1'
_cell_length_a   3.84564400
_cell_length_b   5.39987800
_cell_length_c   6.78834000
_cell_angle_alpha   90.00000000
_cell_angle_beta   90.00000000
_cell_angle_gamma   90.00000000
_symmetry_Int_Tables_number   1
_chemical_formula_structural   BRh2
_chemical_formula_sum   'B4 Rh8'
_cell_volume   140.96672568
_cell_formula_units_Z   4
loop_
 _symmetry_equiv_pos_site_id
 _symmetry_equiv_pos_as_xyz
  1  'x, y, z'
loop_
 _atom_site_type_symbol
 _atom_site_label
 _atom_site_symmetry_multiplicity
 _atom_site_fract_x
 _atom_site_fract_y
 _atom_site_fract_z
 _atom_site_occupancy
  B  B0  1  0.25000000  0.23274500  0.10084700  1
  B  B1  1  0.25000000  0.73274500  0.39915300  1
  B  B2  1  0.75000000  0.26725500  0.60084700  1
  B  B3  1  0.75000000  0.76725500  0.89915300  1
  Rh  Rh0  1  0.25000000  0.00691700  0.85068300  1
  Rh  Rh1  1  0.25000000  0.12492600  0.40348600  1
  Rh  Rh2  1  0.75000000  0.87507400  0.59651400  1
  Rh  Rh3  1  0.25000000  0.50691700  0.64931700  1
  Rh  Rh4  1  0.75000000  0.99308300  0.14931700  1
  Rh  Rh5  1  0.75000000  0.49308300  0.35068300  1
  Rh  Rh6  1  0.75000000  0.37507400  0.90348600  1
  Rh  Rh7  1  0.25000000  0.62492600  0.09651400  1
loop_
_geom_bond_atom_site_label_1
_geom_bond_atom_site_label_2
_geom_bond_distance
_geom_bond_site_symmetry_2
B0 Rh0 2.090675 1_554
B0 Rh7 2.117934 1_555
B0 Rh1 2.135321 1_555
B0 Rh4 2.341008 1_545
B0 Rh4 2.341008 1_445
B0 Rh6 2.466347 1_454
B0 Rh6 2.466347 1_554
B1 Rh3 2.090675 1_555
B1 Rh1 2.117934 1_565
B1 Rh7 2.135321 1_555
B1 Rh5 2.341008 1_555
B1 Rh5 2.341008 1_455
B1 Rh2 2.466347 1_555
B1 Rh2 2.466347 1_455
B2 Rh5 2.090675 1_555
B2 Rh2 2.117934 1_545
B2 Rh6 2.135321 1_555
B2 Rh3 2.341008 1_555
B2 Rh3 2.341008 1_655
B2 Rh1 2.466347 1_655
B2 Rh1 2.466347 1_555
B3 Rh4 2.090675 1_556
B3 Rh6 2.117934 1_555
B3 Rh2 2.135321 1_555
B3 Rh0 2.341008 1_565
B3 Rh0 2.341008 1_665
B3 Rh7 2.466347 1_656
B3 Rh7 2.466347 1_556
