# generated using pymatgen
data_Ba2SrI6
_symmetry_space_group_name_H-M   'P 1'
_cell_length_a   8.24545158
_cell_length_b   8.24545158
_cell_length_c   24.79273656
_cell_angle_alpha   90.00000000
_cell_angle_beta   90.00000000
_cell_angle_gamma   90.00000000
_symmetry_Int_Tables_number   1
_chemical_formula_structural   Ba2SrI6
_chemical_formula_sum   'Ba8 Sr4 I24'
_cell_volume   1685.59547668
_cell_formula_units_Z   4
loop_
 _symmetry_equiv_pos_site_id
 _symmetry_equiv_pos_as_xyz
  1  'x, y, z'
loop_
 _atom_site_type_symbol
 _atom_site_label
 _atom_site_symmetry_multiplicity
 _atom_site_fract_x
 _atom_site_fract_y
 _atom_site_fract_z
 _atom_site_occupancy
  Ba  Ba0  1  0.00000000  0.50000000  0.16505344  1
  Ba  Ba1  1  0.00000000  -0.00000000  0.33458181  1
  Ba  Ba2  1  0.00000000  -0.00000000  0.66541819  1
  Ba  Ba3  1  0.00000000  0.50000000  0.83494656  1
  Ba  Ba4  1  0.50000000  0.50000000  0.33458181  1
  Ba  Ba5  1  0.50000000  -0.00000000  0.16505344  1
  Ba  Ba6  1  0.50000000  -0.00000000  0.83494656  1
  Ba  Ba7  1  0.50000000  0.50000000  0.66541819  1
  Sr  Sr0  1  0.00000000  -0.00000000  -0.00000000  1
  Sr  Sr1  1  0.00000000  0.50000000  0.50000000  1
  Sr  Sr2  1  0.50000000  -0.00000000  0.50000000  1
  Sr  Sr3  1  0.50000000  0.50000000  -0.00000000  1
  I  I0  1  0.25046355  0.75010747  0.58044451  1
  I  I1  1  0.24032573  0.75977542  0.08013923  1
  I  I2  1  0.24022458  0.24032573  0.91986077  1
  I  I3  1  0.25010747  0.75046355  0.41955549  1
  I  I4  1  0.24818329  0.24985074  0.24989980  1
  I  I5  1  0.25014926  0.25181671  0.75010020  1
  I  I6  1  0.24985074  0.75181671  0.75010020  1
  I  I7  1  0.25181671  0.74985074  0.24989980  1
  I  I8  1  0.25977542  0.74032573  0.91986077  1
  I  I9  1  0.24989253  0.25046355  0.41955549  1
  I  I10  1  0.25967427  0.25977542  0.08013923  1
  I  I11  1  0.24953645  0.25010747  0.58044451  1
  I  I12  1  0.75046355  0.74989253  0.58044451  1
  I  I13  1  0.74032573  0.74022458  0.08013923  1
  I  I14  1  0.75010747  0.74953645  0.41955549  1
  I  I15  1  0.74022458  0.25967427  0.91986077  1
  I  I16  1  0.74818329  0.25014926  0.24989980  1
  I  I17  1  0.75014926  0.24818329  0.75010020  1
  I  I18  1  0.74985074  0.74818329  0.75010020  1
  I  I19  1  0.75181671  0.75014926  0.24989980  1
  I  I20  1  0.74989253  0.24953645  0.41955549  1
  I  I21  1  0.75977542  0.75967427  0.91986077  1
  I  I22  1  0.75967427  0.24022458  0.08013923  1
  I  I23  1  0.74953645  0.24989253  0.58044451  1
loop_
_geom_bond_atom_site_label_1
_geom_bond_atom_site_label_2
_geom_bond_distance
_geom_bond_site_symmetry_2
Ba0 I4 3.587060 1_555
Ba0 I19 3.587060 1_455
Ba0 I10 3.597215 1_555
Ba0 I13 3.597215 1_455
Ba0 I1 3.598171 1_555
Ba0 I22 3.598171 1_455
Ba0 I16 3.602827 1_455
Ba0 I7 3.602827 1_555
Ba1 I19 3.583256 1_445
Ba1 I4 3.583256 1_555
Ba1 I20 3.595088 1_455
Ba1 I3 3.595088 1_545
Ba1 I9 3.598453 1_555
Ba1 I14 3.598453 1_445
Ba1 I16 3.601859 1_455
Ba1 I7 3.601859 1_545
Ba2 I17 3.583256 1_455
Ba2 I6 3.583256 1_545
Ba2 I11 3.595088 1_555
Ba2 I12 3.595088 1_445
Ba2 I0 3.598453 1_545
Ba2 I23 3.598453 1_455
Ba2 I18 3.601859 1_445
Ba2 I5 3.601859 1_555
Ba3 I18 3.587060 1_455
Ba3 I5 3.587060 1_555
Ba3 I21 3.597215 1_455
Ba3 I2 3.597215 1_555
Ba3 I15 3.598171 1_455
Ba3 I8 3.598171 1_555
Ba3 I17 3.602827 1_455
Ba3 I6 3.602827 1_555
Ba4 I7 3.583256 1_555
Ba4 I16 3.583256 1_555
Ba4 I14 3.595088 1_555
Ba4 I9 3.595088 1_555
Ba4 I20 3.598453 1_555
Ba4 I3 3.598453 1_555
Ba4 I4 3.601859 1_555
Ba4 I19 3.601859 1_555
Ba5 I7 3.587060 1_545
Ba5 I16 3.587060 1_555
Ba5 I22 3.597215 1_555
Ba5 I1 3.597215 1_545
Ba5 I13 3.598171 1_545
Ba5 I10 3.598171 1_555
Ba5 I19 3.602827 1_545
Ba5 I4 3.602827 1_555
Ba6 I6 3.587060 1_545
Ba6 I17 3.587060 1_555
Ba6 I15 3.597215 1_555
Ba6 I8 3.597215 1_545
Ba6 I2 3.598171 1_555
Ba6 I21 3.598171 1_545
Ba6 I5 3.602827 1_555
Ba6 I18 3.602827 1_545
Ba7 I5 3.583256 1_555
Ba7 I18 3.583256 1_555
Ba7 I23 3.595088 1_555
Ba7 I0 3.595088 1_555
Ba7 I11 3.598453 1_555
Ba7 I12 3.598453 1_555
Ba7 I6 3.601859 1_555
Ba7 I17 3.601859 1_555
I0 Sr2 3.529423 1_565
I0 Sr1 3.534919 1_555
I1 Sr0 3.434790 1_565
I1 Sr3 3.622170 1_555
I2 Sr0 3.434790 1_556
I2 Sr3 3.622170 1_556
I3 Sr2 3.529423 1_565
I3 Sr1 3.534919 1_555
I8 Sr3 3.434790 1_556
I8 Sr0 3.622170 1_566
I9 Sr1 3.529423 1_555
I9 Sr2 3.534919 1_555
I10 Sr3 3.434790 1_555
I10 Sr0 3.622170 1_555
I11 Sr1 3.529423 1_555
I11 Sr2 3.534919 1_555
I12 Sr1 3.529423 1_655
I12 Sr2 3.534919 1_565
I13 Sr3 3.434790 1_555
I13 Sr0 3.622170 1_665
I14 Sr1 3.529423 1_655
I14 Sr2 3.534919 1_565
I15 Sr3 3.434790 1_556
I15 Sr0 3.622170 1_656
I20 Sr2 3.529423 1_555
I20 Sr1 3.534919 1_655
I21 Sr0 3.434790 1_666
I21 Sr3 3.622170 1_556
I22 Sr0 3.434790 1_655
I22 Sr3 3.622170 1_555
I23 Sr2 3.529423 1_555
I23 Sr1 3.534919 1_655
