# generated using pymatgen
data_MgCo6O7F5
_symmetry_space_group_name_H-M   'P 1'
_cell_length_a   8.18747883
_cell_length_b   5.75926940
_cell_length_c   5.94630885
_cell_angle_alpha   66.71948260
_cell_angle_beta   61.57847572
_cell_angle_gamma   65.26327178
_symmetry_Int_Tables_number   1
_chemical_formula_structural   MgCo6O7F5
_chemical_formula_sum   'Mg1 Co6 O7 F5'
_cell_volume   217.11613774
_cell_formula_units_Z   1
loop_
 _symmetry_equiv_pos_site_id
 _symmetry_equiv_pos_as_xyz
  1  'x, y, z'
loop_
 _atom_site_type_symbol
 _atom_site_label
 _atom_site_symmetry_multiplicity
 _atom_site_fract_x
 _atom_site_fract_y
 _atom_site_fract_z
 _atom_site_occupancy
  Mg  Mg0  1  0.80885995  0.70430167  0.20431897  1
  Co  Co0  1  0.88447925  0.70411584  0.69308934  1
  Co  Co1  1  0.31320348  0.65146257  0.68100307  1
  Co  Co2  1  0.66276763  0.31071221  0.35529655  1
  Co  Co3  1  0.13427761  0.27201209  0.31884434  1
  Co  Co4  1  0.48143050  0.97575280  0.99526794  1
  Co  Co5  1  0.02530757  0.08415538  0.95918702  1
  O  O0  1  0.31751055  0.32658940  0.98364469  1
  O  O1  1  0.67381430  0.01892402  0.65294812  1
  O  O2  1  0.93951616  0.28908354  0.22847479  1
  O  O3  1  0.02322958  0.76877201  0.81089576  1
  O  O4  1  0.31451974  0.94891325  0.35668606  1
  O  O5  1  0.66848115  0.63774959  0.04425228  1
  O  O6  1  0.00822789  0.34431338  0.64577015  1
  F  F0  1  0.60954696  0.58725863  0.54640609  1
  F  F1  1  0.30252193  0.88302881  0.88927998  1
  F  F2  1  0.38999709  0.39491806  0.46983143  1
  F  F3  1  0.71627944  0.08749691  0.12122555  1
  F  F4  1  0.99388522  0.74853383  0.29357888  1
loop_
_geom_bond_atom_site_label_1
_geom_bond_atom_site_label_2
_geom_bond_distance
_geom_bond_site_symmetry_2
Mg0 O5 2.017983 1_555
Mg0 O2 2.148814 1_555
Mg0 O3 2.154412 1_654
Co0 O3 1.799348 1_655
Co0 O1 1.936964 1_565
Co0 O6 1.957590 1_655
Co0 O5 2.013323 1_556
Co0 F4 2.048686 1_555
Co1 O3 2.003539 1_555
Co1 O4 2.009503 1_555
Co1 O0 2.020933 1_555
Co1 F2 2.023033 1_555
Co1 F0 2.073363 1_555
Co1 F1 2.103570 1_555
Co2 F2 1.895645 1_555
Co2 O1 1.907597 1_555
Co2 O2 1.982389 1_555
Co2 F3 2.035784 1_555
Co2 O5 2.051416 1_555
Co2 F0 2.096783 1_555
Co3 O0 1.837192 1_554
Co3 O4 1.837928 1_545
Co3 O6 1.840668 1_555
Co3 O2 1.866521 1_455
Co3 F4 2.464557 1_455
Co4 O1 1.887309 1_565
Co4 O0 1.896597 1_565
Co4 O4 1.904886 1_556
Co4 O5 1.923832 1_556
Co4 F1 2.151168 1_555
Co5 O6 1.898222 1_555
Co5 F1 1.987025 1_545
Co5 O2 2.044461 1_456
Co5 F4 2.155751 1_446
Co5 F3 2.232428 1_456
Co5 O3 2.320186 1_545
F0 Mg0 1.982942 1_555
F3 Mg0 1.945191 1_545
F4 Mg0 1.958759 1_555
