# generated using pymatgen
data_Na2Nb2Al6Si3(S3O16)3
_symmetry_space_group_name_H-M   'P 1'
_cell_length_a   17.04106952
_cell_length_b   8.49965353
_cell_length_c   21.99759013
_cell_angle_alpha   89.99466367
_cell_angle_beta   90.23049426
_cell_angle_gamma   120.07959739
_symmetry_Int_Tables_number   1
_chemical_formula_structural   Na2Nb2Al6Si3(S3O16)3
_chemical_formula_sum   'Na6 Nb6 Al18 Si9 S27 O144'
_cell_volume   2757.08607918
_cell_formula_units_Z   3
loop_
 _symmetry_equiv_pos_site_id
 _symmetry_equiv_pos_as_xyz
  1  'x, y, z'
loop_
 _atom_site_type_symbol
 _atom_site_label
 _atom_site_symmetry_multiplicity
 _atom_site_fract_x
 _atom_site_fract_y
 _atom_site_fract_z
 _atom_site_occupancy
  Na  Na0  1  0.99726603  0.98656227  0.49821495  1
  Na  Na1  1  0.50046077  0.01054563  0.99592636  1
  Na  Na2  1  0.34075389  0.33860762  0.83501226  1
  Na  Na3  1  0.83605464  0.34726778  0.82984546  1
  Na  Na4  1  0.33765060  0.32706890  0.33369271  1
  Na  Na5  1  0.83863663  0.33784114  0.33955887  1
  Nb  Nb0  1  0.49578076  0.00978101  0.35812400  1
  Nb  Nb1  1  0.99431676  0.97932700  0.85504572  1
  Nb  Nb2  1  0.50394989  0.99420894  0.63591650  1
  Nb  Nb3  1  0.99812550  0.00369364  0.13979048  1
  Nb  Nb4  1  0.66721531  0.65707834  0.02302051  1
  Nb  Nb5  1  0.16687163  0.67734121  0.52490892  1
  Al  Al0  1  0.99992149  0.99206214  0.35620545  1
  Al  Al1  1  0.50100636  0.01011972  0.85266630  1
  Al  Al2  1  0.99721811  0.99240110  0.64901942  1
  Al  Al3  1  0.50023071  0.00357821  0.15094383  1
  Al  Al4  1  0.33400732  0.33721796  0.68734963  1
  Al  Al5  1  0.83270137  0.33581161  0.68551464  1
  Al  Al6  1  0.33515205  0.32853245  0.18866816  1
  Al  Al7  1  0.83149527  0.32735789  0.18774276  1
  Al  Al8  1  0.33919003  0.33691325  0.97882770  1
  Al  Al9  1  0.83427849  0.33041208  0.97676759  1
  Al  Al10  1  0.33513228  0.33676777  0.47874488  1
  Al  Al11  1  0.83742239  0.34335229  0.48189746  1
  Al  Al12  1  0.17022788  0.67040186  0.02023465  1
  Al  Al13  1  0.67140845  0.67817044  0.52461526  1
  Al  Al14  1  0.16136197  0.67483018  0.31790892  1
  Al  Al15  1  0.66343727  0.66370351  0.31087365  1
  Al  Al16  1  0.16458934  0.66487219  0.80808442  1
  Al  Al17  1  0.66214616  0.64767513  0.81536058  1
  Si  Si0  1  0.50268774  0.30351132  0.24403164  1
  Si  Si1  1  0.00070058  0.69762869  0.74228201  1
  Si  Si2  1  0.70660520  0.05693376  0.58042640  1
  Si  Si3  1  0.32811724  0.59343962  0.58297108  1
  Si  Si4  1  0.82783496  0.06252988  0.08268750  1
  Si  Si5  1  0.80583116  0.64718236  0.91438466  1
  Si  Si6  1  0.51576027  0.36833974  0.91234843  1
  Si  Si7  1  0.30399652  0.96329236  0.41515281  1
  Si  Si8  1  0.01499986  0.65894775  0.41332513  1
  S  S0  1  0.14475059  -0.00028501  0.25126785  1
  S  S1  1  0.64832358  0.00258065  0.24891517  1
  S  S2  1  0.35027055  0.70434038  0.24730524  1
  S  S3  1  0.85510299  0.70674906  0.25151165  1
  S  S4  1  0.00123339  0.29372724  0.25398255  1
  S  S5  1  0.14853961  0.29345878  0.74880504  1
  S  S6  1  0.64407476  0.29145047  0.75181385  1
  S  S7  1  0.50150192  0.71027364  0.75394641  1
  S  S8  1  0.35463553  0.00235770  0.75158258  1
  S  S9  1  0.84980364  0.99477179  0.74802047  1
  S  S10  1  0.47699212  0.34425619  0.58258740  1
  S  S11  1  0.97255539  0.31808409  0.58617681  1
  S  S12  1  0.18868280  0.05927525  0.58647343  1
  S  S13  1  0.83471784  0.62569401  0.58249241  1
  S  S14  1  0.46975686  0.62304591  0.08594834  1
  S  S15  1  0.97936327  0.60987493  0.08258896  1
  S  S16  1  0.33154919  0.04293968  0.08252941  1
  S  S17  1  0.19896598  0.34654909  0.08112663  1
  S  S18  1  0.68838837  0.31846470  0.08616558  1
  S  S19  1  0.30696098  0.66265028  0.91628788  1
  S  S20  1  0.02854755  0.39317441  0.91770834  1
  S  S21  1  0.17221538  0.95298708  0.91944925  1
  S  S22  1  0.66542110  0.95482946  0.91268540  1
  S  S23  1  0.80812246  0.94862194  0.41349128  1
  S  S24  1  0.16549534  0.37643819  0.41250300  1
  S  S25  1  0.67279627  0.39788556  0.41859508  1
  S  S26  1  0.52687955  0.66131948  0.41706702  1
  O  O0  1  0.10271376  0.03405063  0.30415024  1
  O  O1  1  0.60594226  0.03331075  0.30318876  1
  O  O2  1  0.41103735  0.78149783  0.30270428  1
  O  O3  1  0.91691870  0.79277761  0.30327821  1
  O  O4  1  0.48334344  0.16485486  0.30605367  1
  O  O5  1  0.98358689  0.16939077  0.30520535  1
  O  O6  1  0.10582329  0.17849674  0.80400626  1
  O  O7  1  0.60162937  0.17357147  0.80569569  1
  O  O8  1  0.48340607  0.79780341  0.80640868  1
  O  O9  1  0.98035819  0.79448202  0.80593026  1
  O  O10  1  0.41486612  0.03996664  0.80522381  1
  O  O11  1  0.91117337  0.03084750  0.80428164  1
  O  O12  1  0.39335457  0.97141841  0.69632074  1
  O  O13  1  0.89532894  0.97119036  0.69506312  1
  O  O14  1  0.09028913  0.21363772  0.69502943  1
  O  O15  1  0.58650457  0.20510245  0.69730337  1
  O  O16  1  0.01660790  0.83876344  0.68923070  1
  O  O17  1  0.51232721  0.81844484  0.69780461  1
  O  O18  1  0.39637452  0.82048895  0.19399984  1
  O  O19  1  0.89612545  0.81830586  0.19450475  1
  O  O20  1  0.01188474  0.20334519  0.19676094  1
  O  O21  1  0.51711279  0.19716273  0.18893359  1
  O  O22  1  0.08764683  0.97144418  0.19549059  1
  O  O23  1  0.59076126  0.96651163  0.19420925  1
  O  O24  1  0.43738947  0.36994355  0.63858886  1
  O  O25  1  0.93497452  0.35581982  0.64001805  1
  O  O26  1  0.24470862  0.13582651  0.64107717  1
  O  O27  1  0.75762641  0.14640785  0.64286937  1
  O  O28  1  0.31923195  0.49140647  0.64502727  1
  O  O29  1  0.82035459  0.51713432  0.63762844  1
  O  O30  1  0.42769777  0.50798809  0.13922658  1
  O  O31  1  0.93882059  0.50828290  0.13866709  1
  O  O32  1  0.31425053  0.12304511  0.13700240  1
  O  O33  1  0.82203802  0.14852307  0.14501474  1
  O  O34  1  0.25156411  0.37196068  0.13676182  1
  O  O35  1  0.74483325  0.35408014  0.14078759  1
  O  O36  1  0.23730665  0.30783245  0.02764306  1
  O  O37  1  0.73010872  0.30108773  0.03026025  1
  O  O38  1  0.41469030  0.54507417  0.02993125  1
  O  O39  1  0.92130293  0.53953197  0.02880553  1
  O  O40  1  0.34887551  0.16109167  0.02872932  1
  O  O41  1  0.84940980  0.17810477  0.02210379  1
  O  O42  1  0.22994303  0.15793927  0.53017886  1
  O  O43  1  0.74318045  0.18417635  0.52181321  1
  O  O44  1  0.34759251  0.51994697  0.52174774  1
  O  O45  1  0.85783247  0.55291222  0.52851550  1
  O  O46  1  0.41875119  0.30196170  0.52878460  1
  O  O47  1  0.91965098  0.28672934  0.52984314  1
  O  O48  1  0.26858014  0.70021740  0.97160825  1
  O  O49  1  0.76558569  0.69046157  0.97701517  1
  O  O50  1  0.08210180  0.47581812  0.97379568  1
  O  O51  1  0.57869712  0.46285679  0.97520773  1
  O  O52  1  0.15480004  0.83995065  0.97420573  1
  O  O53  1  0.64890949  0.84572084  0.96948691  1
  O  O54  1  0.26504721  0.83997264  0.47701756  1
  O  O55  1  0.77051562  0.83419501  0.46798507  1
  O  O56  1  0.14833737  0.45068066  0.46868755  1
  O  O57  1  0.65606207  0.47514898  0.47305688  1
  O  O58  1  0.07904326  0.69150182  0.47480939  1
  O  O59  1  0.58068469  0.68500085  0.47166794  1
  O  O60  1  0.05939674  0.61856748  0.35508113  1
  O  O61  1  0.56811341  0.63672379  0.36164206  1
  O  O62  1  0.24851135  0.86946297  0.35487447  1
  O  O63  1  0.75164013  0.86156391  0.35858079  1
  O  O64  1  0.18238230  0.49330343  0.35887490  1
  O  O65  1  0.68356340  0.50360564  0.36316964  1
  O  O66  1  0.07193863  0.50570644  0.86391864  1
  O  O67  1  0.56231765  0.50048832  0.85585857  1
  O  O68  1  0.18834377  0.87441895  0.86504263  1
  O  O69  1  0.68291868  0.87339080  0.85956646  1
  O  O70  1  0.25045187  0.63419304  0.86197147  1
  O  O71  1  0.74872328  0.63031766  0.85552298  1
  O  O72  1  0.00860349  0.84318958  0.40811103  1
  O  O73  1  0.51990775  0.82846273  0.40953588  1
  O  O74  1  0.40469332  0.97329817  0.41072250  1
  O  O75  1  0.90060407  0.97344631  0.40499504  1
  O  O76  1  0.08207376  0.19564938  0.40439962  1
  O  O77  1  0.58998037  0.21014507  0.41161609  1
  O  O78  1  0.02126455  0.21298916  0.91118332  1
  O  O79  1  0.50872582  0.17083237  0.90802132  1
  O  O80  1  0.09011468  0.97178580  0.91190343  1
  O  O81  1  0.58253053  0.96893067  0.90545326  1
  O  O82  1  0.39928382  0.82027053  0.90874028  1
  O  O83  1  0.90638910  0.83776717  0.91142535  1
  O  O84  1  0.48543060  0.17727257  0.59072961  1
  O  O85  1  0.98301816  0.15548155  0.59460815  1
  O  O86  1  0.09848763  0.04478956  0.59108703  1
  O  O87  1  0.60175092  0.03540160  0.59190646  1
  O  O88  1  0.41610828  0.80362683  0.59136335  1
  O  O89  1  0.91399303  0.81459102  0.58975123  1
  O  O90  1  0.48029130  0.80658056  0.09377210  1
  O  O91  1  0.99191042  0.79995371  0.09130745  1
  O  O92  1  0.41204263  0.02019765  0.08937991  1
  O  O93  1  0.91796162  0.02949029  0.09161658  1
  O  O94  1  0.10583483  0.18017903  0.08935692  1
  O  O95  1  0.59811182  0.15127402  0.09107250  1
  O  O96  1  0.34413976  0.16606101  0.74360169  1
  O  O97  1  0.84357356  0.16031514  0.74475063  1
  O  O98  1  0.23779828  0.30271815  0.74422554  1
  O  O99  1  0.73414194  0.30885386  0.74529790  1
  O  O100  1  0.42072442  0.52458167  0.74782551  1
  O  O101  1  0.90839054  0.50482384  0.73831367  1
  O  O102  1  0.33899778  0.52084446  0.23928001  1
  O  O103  1  0.84651719  0.52524433  0.24166736  1
  O  O104  1  0.40970945  0.31123995  0.24033645  1
  O  O105  1  0.92095446  0.31687723  0.24666248  1
  O  O106  1  0.23381530  0.16633099  0.24142024  1
  O  O107  1  0.73797447  0.17384349  0.24359278  1
  O  O108  1  0.31081844  0.49329310  0.92528112  1
  O  O109  1  0.82146203  0.47931381  0.92563146  1
  O  O110  1  0.41870064  0.35489829  0.92474615  1
  O  O111  1  0.93743109  0.37281313  0.92220367  1
  O  O112  1  0.25015357  0.13653182  0.92840438  1
  O  O113  1  0.74595919  0.13802744  0.92093341  1
  O  O114  1  0.32070695  0.16324986  0.42563377  1
  O  O115  1  0.81473485  0.12700083  0.41965864  1
  O  O116  1  0.24522272  0.35313628  0.41949269  1
  O  O117  1  0.75239702  0.37666948  0.42329168  1
  O  O118  1  0.43483182  0.50150129  0.42107559  1
  O  O119  1  0.91805040  0.47953396  0.42601773  1
  O  O120  1  0.18632599  0.50373004  0.07227068  1
  O  O121  1  0.67600020  0.48114963  0.08256991  1
  O  O122  1  0.06995676  0.63262404  0.07422810  1
  O  O123  1  0.56014993  0.64222131  0.07921417  1
  O  O124  1  0.24972611  0.86160729  0.07288729  1
  O  O125  1  0.74155981  0.85811887  0.07634763  1
  O  O126  1  0.17588345  0.87063523  0.58321940  1
  O  O127  1  0.68479255  0.85297740  0.57133849  1
  O  O128  1  0.23996162  0.61950719  0.57528248  1
  O  O129  1  0.75168248  0.63464153  0.57211693  1
  O  O130  1  0.06449944  0.47863822  0.57874936  1
  O  O131  1  0.56770683  0.49972544  0.57355551  1
  O  O132  1  0.15292462  0.83776768  0.25665564  1
  O  O133  1  0.66218547  0.84796209  0.25841383  1
  O  O134  1  0.26242831  0.69062637  0.25642539  1
  O  O135  1  0.76757692  0.69220660  0.26002127  1
  O  O136  1  0.08546999  0.46722464  0.25831539  1
  O  O137  1  0.59025190  0.49086690  0.26145071  1
  O  O138  1  0.16208880  0.47622803  0.75918369  1
  O  O139  1  0.65094288  0.46966734  0.75724633  1
  O  O140  1  0.08788218  0.68679833  0.76195116  1
  O  O141  1  0.58500372  0.70326640  0.76036328  1
  O  O142  1  0.26594595  0.84154434  0.76295365  1
  O  O143  1  0.76196101  0.83252370  0.75759903  1
loop_
_geom_bond_atom_site_label_1
_geom_bond_atom_site_label_2
_geom_bond_distance
_geom_bond_site_symmetry_2
Na0 O72 2.385475 1_655
Na0 O89 2.479516 1_555
Na0 O86 2.551488 1_665
Na0 O75 2.592215 1_555
Na0 O76 2.637162 1_665
Na0 O85 2.640202 1_565
Na1 O79 2.329049 1_555
Na1 O82 2.538781 1_545
Na1 O95 2.560798 1_556
Na1 O81 2.561315 1_545
Na1 O92 2.579143 1_556
Na1 O90 2.676616 1_546
Na2 O110 2.339771 1_555
Na2 O100 2.428020 1_555
Na2 O96 2.506766 1_555
Na2 O98 2.568080 1_555
Na2 O108 2.571539 1_555
Na2 O112 2.630782 1_555
Na3 O101 2.394098 1_555
Na3 O99 2.446931 1_555
Na3 O109 2.458786 1_555
Na3 O97 2.500392 1_555
Na3 O111 2.599056 1_555
Na3 O113 2.611904 1_555
Na4 O114 2.390347 1_555
Na4 O104 2.435007 1_555
Na4 O118 2.479782 1_555
Na4 O116 2.542833 1_555
Na4 O106 2.581833 1_555
Na4 O102 2.643554 1_555
Na5 O119 2.290194 1_555
Na5 O115 2.399076 1_555
Na5 O117 2.483833 1_555
Na5 O105 2.539512 1_555
Na5 O107 2.629932 1_555
Na5 O103 2.641882 1_555
Nb0 O4 1.836308 1_555
Nb0 O74 1.837444 1_545
Nb0 O77 2.026469 1_555
Nb0 O73 2.110517 1_545
Nb0 O2 2.124624 1_545
Nb0 O1 2.160170 1_555
Nb1 O9 1.820971 1_555
Nb1 O83 1.854310 1_555
Nb1 O11 2.013788 1_565
Nb1 O80 2.078928 1_655
Nb1 O6 2.128237 1_665
Nb1 O78 2.182176 1_665
Nb2 O87 1.807067 1_565
Nb2 O88 1.839328 1_555
Nb2 O84 1.999530 1_565
Nb2 O17 2.077845 1_555
Nb2 O15 2.114971 1_565
Nb2 O12 2.238122 1_555
Nb3 O93 1.823675 1_555
Nb3 O91 1.990752 1_545
Nb3 O20 2.025933 1_655
Nb3 O94 2.026352 1_655
Nb3 O19 2.055192 1_545
Nb3 O22 2.075514 1_645
Nb4 O49 1.857840 1_554
Nb4 O51 1.896896 1_554
Nb4 O125 1.928576 1_555
Nb4 O121 2.048618 1_555
Nb4 O53 2.133784 1_554
Nb4 O123 2.158691 1_555
Nb5 O54 1.874923 1_555
Nb5 O128 1.903523 1_555
Nb5 O58 1.906935 1_555
Nb5 O126 2.028299 1_555
Nb5 O130 2.088377 1_555
Nb5 O56 2.174434 1_555
Al0 O72 1.764305 1_655
Al0 O76 1.907415 1_665
Al0 O75 1.946156 1_555
Al0 O3 1.952132 1_555
Al0 O0 1.973935 1_665
Al0 O5 2.006384 1_565
Al1 O79 1.784628 1_555
Al1 O7 1.887854 1_555
Al1 O10 1.915519 1_555
Al1 O8 1.958914 1_545
Al1 O81 1.968614 1_545
Al1 O82 2.084026 1_545
Al2 O16 1.739787 1_655
Al2 O85 1.935484 1_565
Al2 O13 1.942535 1_555
Al2 O89 1.957603 1_555
Al2 O86 2.011910 1_665
Al2 O14 2.018348 1_665
Al3 O21 1.735597 1_555
Al3 O18 1.924438 1_545
Al3 O23 1.964800 1_545
Al3 O90 1.981769 1_545
Al3 O95 2.002772 1_555
Al3 O92 2.075770 1_555
Al4 O28 1.725207 1_555
Al4 O26 1.912759 1_555
Al4 O24 1.963555 1_555
Al4 O98 1.968201 1_555
Al4 O96 1.981693 1_555
Al4 O100 2.028598 1_555
Al5 O27 1.741988 1_555
Al5 O101 1.790863 1_555
Al5 O25 1.945496 1_555
Al5 O29 1.962671 1_555
Al5 O97 2.057191 1_555
Al5 O99 2.057868 1_555
Al6 O104 1.761597 1_555
Al6 O30 1.897046 1_555
Al6 O102 1.951425 1_555
Al6 O32 1.960249 1_555
Al6 O106 1.964362 1_555
Al6 O34 1.995715 1_555
Al7 O33 1.724355 1_555
Al7 O35 1.903515 1_555
Al7 O107 1.919052 1_555
Al7 O103 1.966714 1_555
Al7 O31 2.017804 1_555
Al7 O105 2.032742 1_555
Al8 O110 1.754952 1_555
Al8 O40 1.926397 1_556
Al8 O38 1.938133 1_556
Al8 O36 1.952781 1_556
Al8 O112 1.956947 1_555
Al8 O108 2.006789 1_555
Al9 O41 1.751929 1_556
Al9 O109 1.785960 1_555
Al9 O113 1.991509 1_555
Al9 O39 2.003342 1_556
Al9 O111 2.010565 1_555
Al9 O37 2.042354 1_556
Al10 O44 1.741067 1_555
Al10 O114 1.798649 1_555
Al10 O46 1.933797 1_555
Al10 O42 2.021997 1_555
Al10 O118 2.022070 1_555
Al10 O116 2.064775 1_555
Al11 O43 1.736001 1_555
Al11 O119 1.777001 1_555
Al11 O45 1.929166 1_555
Al11 O47 1.992878 1_555
Al11 O117 2.058586 1_555
Al11 O115 2.165424 1_555
Al12 O50 1.879482 1_554
Al12 O52 1.883743 1_554
Al12 O124 1.897039 1_555
Al12 O48 1.898969 1_554
Al12 O120 1.944006 1_555
Al12 O122 1.974795 1_555
Al13 O127 1.724729 1_555
Al13 O129 1.896263 1_555
Al13 O59 1.955916 1_555
Al13 O57 1.969279 1_555
Al13 O131 1.977528 1_555
Al13 O55 1.983527 1_555
Al14 O60 1.759255 1_555
Al14 O62 1.769553 1_555
Al14 O64 1.967774 1_555
Al14 O132 1.987940 1_555
Al14 O136 2.050367 1_555
Al14 O134 2.144857 1_555
Al15 O137 1.745946 1_555
Al15 O61 1.892003 1_555
Al15 O63 1.908558 1_555
Al15 O65 1.938322 1_555
Al15 O133 1.953939 1_555
Al15 O135 2.011060 1_555
Al16 O140 1.734007 1_555
Al16 O142 1.907208 1_555
Al16 O138 1.913460 1_555
Al16 O66 1.925028 1_555
Al16 O70 1.995622 1_555
Al16 O68 2.044402 1_555
Al17 O67 1.769569 1_555
Al17 O71 1.785127 1_555
Al17 O139 1.915389 1_555
Al17 O141 2.006187 1_555
Al17 O69 2.017026 1_555
Al17 O143 2.077101 1_555
O0 S0 1.472378 1_555
O1 S1 1.487040 1_555
O2 S2 1.515506 1_555
O3 S3 1.469507 1_555
O4 Si0 1.724210 1_555
O5 S4 1.469986 1_655
O6 S5 1.501027 1_555
O7 S6 1.487326 1_555
O8 S7 1.487750 1_555
O9 Si1 1.745951 1_655
O10 S8 1.486423 1_555
O11 S9 1.545193 1_545
O12 S8 1.470613 1_565
O13 S9 1.470475 1_555
O14 S5 1.469898 1_555
O15 S6 1.485902 1_555
O16 Si1 1.597099 1_555
O17 S7 1.495376 1_555
O18 S2 1.482076 1_555
O19 S3 1.517467 1_555
O20 S4 1.532748 1_555
O21 Si0 1.603699 1_555
O22 S0 1.505384 1_565
O23 S1 1.481043 1_565
O24 S10 1.474833 1_555
O25 S11 1.458710 1_555
O26 S12 1.464876 1_555
O27 Si2 1.596512 1_555
O28 Si3 1.583767 1_555
O29 S13 1.469060 1_555
O30 S14 1.465466 1_555
O31 S15 1.467422 1_555
O32 S16 1.480045 1_555
O33 Si4 1.580323 1_555
O34 S17 1.464582 1_555
O35 S18 1.469514 1_555
O36 S17 1.463262 1_555
O37 S18 1.466960 1_555
O38 S14 1.485147 1_555
O39 S15 1.460780 1_555
O40 S16 1.483802 1_555
O41 Si4 1.586794 1_555
O42 S12 1.465228 1_555
O43 Si2 1.597209 1_555
O44 Si3 1.589242 1_555
O45 S13 1.481835 1_555
O46 S10 1.465604 1_555
O47 S11 1.472980 1_555
O48 S19 1.492127 1_555
O49 Si5 1.662643 1_555
O50 S20 1.482238 1_555
O51 Si6 1.682933 1_555
O52 S21 1.476090 1_555
O53 S22 1.497164 1_555
O54 Si7 1.643416 1_555
O55 S23 1.474707 1_555
O56 S24 1.482974 1_555
O57 S25 1.462356 1_555
O58 Si8 1.668054 1_555
O59 S26 1.459457 1_555
O60 Si8 1.612426 1_555
O61 S26 1.475847 1_555
O62 Si7 1.588236 1_555
O63 S23 1.486566 1_555
O64 S24 1.475510 1_555
O65 S25 1.471039 1_555
O66 S20 1.469543 1_555
O67 Si6 1.596753 1_555
O68 S21 1.463094 1_555
O69 S22 1.463990 1_555
O70 S19 1.473350 1_555
O71 Si5 1.579314 1_555
O72 Si8 1.627371 1_555
O73 S26 1.492924 1_555
O74 Si7 1.678207 1_555
O75 S23 1.494059 1_555
O76 S24 1.490721 1_555
O77 S25 1.517395 1_555
O78 S20 1.480169 1_555
O79 Si6 1.624755 1_555
O80 S21 1.494233 1_555
O81 S22 1.484201 1_555
O82 S19 1.478803 1_555
O83 Si5 1.668267 1_555
O84 S10 1.507154 1_555
O85 S11 1.490969 1_555
O86 S12 1.483054 1_555
O87 Si2 1.722162 1_555
O88 Si3 1.669338 1_555
O89 S13 1.500810 1_555
O90 S14 1.488110 1_555
O91 S15 1.531708 1_555
O92 S16 1.485172 1_555
O93 Si4 1.704758 1_555
O94 S17 1.517826 1_555
O95 S18 1.485815 1_555
O96 S8 1.499345 1_555
O97 S9 1.464899 1_545
O98 S5 1.487013 1_555
O99 S6 1.473888 1_555
O100 S7 1.491569 1_555
O101 Si1 1.607032 1_655
O102 S2 1.483250 1_555
O103 S3 1.490589 1_555
O104 Si0 1.620092 1_555
O105 S4 1.484665 1_655
O106 S0 1.484614 1_555
O107 S1 1.496283 1_555
O108 S19 1.486690 1_555
O109 Si5 1.596360 1_555
O110 Si6 1.623991 1_555
O111 S20 1.477342 1_655
O112 S21 1.468864 1_545
O113 S22 1.482230 1_545
O114 Si7 1.592855 1_545
O115 S23 1.469184 1_545
O116 S24 1.475405 1_555
O117 S25 1.458529 1_555
O118 S26 1.476041 1_555
O119 Si8 1.615894 1_655
O120 S17 1.468767 1_555
O121 S18 1.501773 1_555
O122 S15 1.468881 1_455
O123 S14 1.473598 1_555
O124 S16 1.485983 1_565
O125 Si4 1.624036 1_565
O126 S12 1.507595 1_565
O127 Si2 1.592763 1_565
O128 Si3 1.632819 1_555
O129 S13 1.471531 1_555
O130 S11 1.484122 1_455
O131 S10 1.459497 1_555
O132 S0 1.456100 1_565
O133 S1 1.461962 1_565
O134 S2 1.456752 1_555
O135 S3 1.446527 1_555
O136 S4 1.456473 1_555
O137 Si0 1.588371 1_555
O138 S5 1.469290 1_555
O139 S6 1.464495 1_555
O140 Si1 1.592106 1_555
O141 S7 1.460008 1_555
O142 S8 1.465360 1_565
O143 S9 1.456077 1_555
