# generated using pymatgen
data_ZrNiSb
_symmetry_space_group_name_H-M   'P 1'
_cell_length_a   4.14918075
_cell_length_b   6.76339791
_cell_length_c   7.61342646
_cell_angle_alpha   90.00000000
_cell_angle_beta   90.00000000
_cell_angle_gamma   90.00000000
_symmetry_Int_Tables_number   1
_chemical_formula_structural   ZrNiSb
_chemical_formula_sum   'Zr4 Ni4 Sb4'
_cell_volume   213.65223998
_cell_formula_units_Z   4
loop_
 _symmetry_equiv_pos_site_id
 _symmetry_equiv_pos_as_xyz
  1  'x, y, z'
loop_
 _atom_site_type_symbol
 _atom_site_label
 _atom_site_symmetry_multiplicity
 _atom_site_fract_x
 _atom_site_fract_y
 _atom_site_fract_z
 _atom_site_occupancy
  Zr  Zr0  1  0.75000000  0.00055722  0.19312021  1
  Zr  Zr1  1  0.25000000  0.99944278  0.80687979  1
  Zr  Zr2  1  0.75000000  0.50055722  0.30687979  1
  Zr  Zr3  1  0.25000000  0.49944278  0.69312021  1
  Ni  Ni0  1  0.25000000  0.68127175  0.08955084  1
  Ni  Ni1  1  0.75000000  0.31872825  0.91044916  1
  Ni  Ni2  1  0.25000000  0.18127175  0.41044916  1
  Ni  Ni3  1  0.75000000  0.81872825  0.58955084  1
  Sb  Sb0  1  0.25000000  0.79443413  0.40797033  1
  Sb  Sb1  1  0.75000000  0.20556587  0.59202967  1
  Sb  Sb2  1  0.25000000  0.29443413  0.09202967  1
  Sb  Sb3  1  0.75000000  0.70556587  0.90797033  1
loop_
_geom_bond_atom_site_label_1
_geom_bond_atom_site_label_2
_geom_bond_distance
_geom_bond_site_symmetry_2
Ni0 Sb3 2.498418 1_454
Ni0 Sb3 2.498418 1_554
Ni0 Sb0 2.542210 1_555
Ni0 Sb2 2.616405 1_555
Ni0 Zr2 2.921569 1_555
Ni0 Zr2 2.921569 1_455
Ni0 Zr1 3.043396 1_554
Ni0 Zr0 3.096600 1_465
Ni0 Zr0 3.096600 1_565
Ni0 Zr3 3.259121 1_554
Ni1 Sb2 2.498418 1_556
Ni1 Sb2 2.498418 1_656
Ni1 Sb1 2.542210 1_555
Ni1 Sb3 2.616405 1_555
Ni1 Zr3 2.921569 1_555
Ni1 Zr3 2.921569 1_655
Ni1 Zr0 3.043396 1_556
Ni1 Zr1 3.096600 1_545
Ni1 Zr1 3.096600 1_645
Ni1 Zr2 3.259121 1_556
Ni2 Sb1 2.498418 1_555
Ni2 Sb1 2.498418 1_455
Ni2 Sb2 2.542210 1_555
Ni2 Sb0 2.616405 1_545
Ni2 Zr0 2.921569 1_455
Ni2 Zr0 2.921569 1_555
Ni2 Zr3 3.043396 1_555
Ni2 Zr2 3.096600 1_555
Ni2 Zr2 3.096600 1_455
Ni2 Zr1 3.259121 1_545
Ni3 Sb0 2.498418 1_555
Ni3 Sb0 2.498418 1_655
Ni3 Sb3 2.542210 1_555
Ni3 Sb1 2.616405 1_565
Ni3 Zr1 2.921569 1_555
Ni3 Zr1 2.921569 1_655
Ni3 Zr2 3.043396 1_555
Ni3 Zr3 3.096600 1_655
Ni3 Zr3 3.096600 1_555
Ni3 Zr0 3.259121 1_565
Sb0 Zr3 2.948508 1_555
Sb0 Zr2 2.974367 1_555
Sb0 Zr2 2.974367 1_455
Sb0 Zr0 2.987153 1_565
Sb0 Zr0 2.987153 1_465
Sb0 Zr1 3.338610 1_555
Sb1 Zr2 2.948508 1_555
Sb1 Zr3 2.974367 1_655
Sb1 Zr3 2.974367 1_555
Sb1 Zr1 2.987153 1_545
Sb1 Zr1 2.987153 1_645
Sb1 Zr0 3.338610 1_555
Sb2 Zr1 2.948508 1_544
Sb2 Zr0 2.974367 1_455
Sb2 Zr0 2.974367 1_555
Sb2 Zr2 2.987153 1_455
Sb2 Zr2 2.987153 1_555
Sb2 Zr3 3.338610 1_554
Sb3 Zr0 2.948508 1_566
Sb3 Zr1 2.974367 1_655
Sb3 Zr1 2.974367 1_555
Sb3 Zr3 2.987153 1_655
Sb3 Zr3 2.987153 1_555
Sb3 Zr2 3.338610 1_556
