# generated using pymatgen
data_Eu(SiAu)2
_symmetry_space_group_name_H-M   'P 1'
_cell_length_a   4.35696217
_cell_length_b   4.35696194
_cell_length_c   5.93087233
_cell_angle_alpha   111.54994044
_cell_angle_beta   111.54993996
_cell_angle_gamma   90.00001124
_symmetry_Int_Tables_number   1
_chemical_formula_structural   Eu(SiAu)2
_chemical_formula_sum   'Eu1 Si2 Au2'
_cell_volume   96.20468808
_cell_formula_units_Z   1
loop_
 _symmetry_equiv_pos_site_id
 _symmetry_equiv_pos_as_xyz
  1  'x, y, z'
loop_
 _atom_site_type_symbol
 _atom_site_label
 _atom_site_symmetry_multiplicity
 _atom_site_fract_x
 _atom_site_fract_y
 _atom_site_fract_z
 _atom_site_occupancy
  Eu  Eu0  1  -0.00000000  -0.00000000  -0.00000000  1
  Si  Si0  1  0.61529006  0.61529006  0.23058212  1
  Si  Si1  1  0.38470994  0.38470994  0.76941788  1
  Au  Au0  1  0.25000000  0.75000000  0.50000000  1
  Au  Au1  1  0.75000000  0.25000000  0.50000000  1
loop_
_geom_bond_atom_site_label_1
_geom_bond_atom_site_label_2
_geom_bond_distance
_geom_bond_site_symmetry_2
Eu0 Si0 3.295007 1_555
Eu0 Si1 3.295007 1_444
Eu0 Si0 3.295014 1_455
Eu0 Si1 3.295014 1_544
Eu0 Si0 3.295014 1_545
Eu0 Si1 3.295014 1_454
Eu0 Si0 3.295019 1_445
Eu0 Si1 3.295019 1_554
Si0 Si1 2.337138 1_554
Au0 Si1 2.570999 1_555
Au0 Si0 2.570999 1_555
Au0 Si1 2.571006 1_565
Au0 Si0 2.571007 1_455
Au0 Eu0 3.341661 1_555
Au0 Eu0 3.341661 1_666
Au0 Eu0 3.341662 1_565
Au0 Eu0 3.341662 1_566
Au1 Si0 2.570999 1_555
Au1 Si1 2.570999 1_555
Au1 Si0 2.571006 1_545
Au1 Si1 2.571007 1_655
Au1 Eu0 3.341661 1_666
Au1 Eu0 3.341661 1_555
Au1 Eu0 3.341662 1_656
Au1 Eu0 3.341662 1_655
