# generated using pymatgen
data_Sr2MgZrMnO6
_symmetry_space_group_name_H-M   'P 1'
_cell_length_a   6.55049477
_cell_length_b   6.55049477
_cell_length_c   6.55049477
_cell_angle_alpha   53.88035123
_cell_angle_beta   53.88035123
_cell_angle_gamma   53.88035123
_symmetry_Int_Tables_number   1
_chemical_formula_structural   Sr2MgZrMnO6
_chemical_formula_sum   'Sr2 Mg1 Zr1 Mn1 O6'
_cell_volume   170.32834189
_cell_formula_units_Z   1
loop_
 _symmetry_equiv_pos_site_id
 _symmetry_equiv_pos_as_xyz
  1  'x, y, z'
loop_
 _atom_site_type_symbol
 _atom_site_label
 _atom_site_symmetry_multiplicity
 _atom_site_fract_x
 _atom_site_fract_y
 _atom_site_fract_z
 _atom_site_occupancy
  Sr  Sr0  1  0.31560666  0.31560666  0.31560666  1
  Sr  Sr1  1  0.71203450  0.71203450  0.71203450  1
  Mg  Mg0  1  0.13303945  0.13303945  0.13303945  1
  Zr  Zr0  1  0.97167505  0.97167505  0.97167505  1
  Mn  Mn0  1  0.50402696  0.50402696  0.50402696  1
  O  O0  1  0.75200628  0.23825357  0.23825357  1
  O  O1  1  0.74736394  0.27132808  0.74736394  1
  O  O2  1  0.74736394  0.74736394  0.27132808  1
  O  O3  1  0.27132808  0.74736394  0.74736394  1
  O  O4  1  0.23825357  0.75200628  0.23825357  1
  O  O5  1  0.23825357  0.23825357  0.75200628  1
loop_
_geom_bond_atom_site_label_1
_geom_bond_atom_site_label_2
_geom_bond_distance
_geom_bond_site_symmetry_2
Mg0 O0 1.919296 1_455
Mg0 O4 1.919296 1_545
Mg0 O5 1.919296 1_554
Mn0 O1 2.161360 1_555
Mn0 O3 2.161360 1_555
Mn0 O2 2.161360 1_555
Mn0 O0 2.367623 1_555
Mn0 O4 2.367623 1_555
Mn0 O5 2.367623 1_555
O0 Sr0 2.360640 1_555
O0 Zr0 2.416481 1_544
O0 Sr1 3.012640 1_554
O0 Sr1 3.012640 1_545
O1 Zr0 1.978804 1_545
O1 Sr1 2.632271 1_555
O1 Sr0 3.135719 1_655
O1 Sr0 3.135719 1_556
O2 Zr0 1.978804 1_554
O2 Sr1 2.632271 1_555
O2 Sr0 3.135719 1_565
O2 Sr0 3.135719 1_655
O3 Zr0 1.978804 1_455
O3 Sr1 2.632271 1_555
O3 Sr0 3.135719 1_556
O3 Sr0 3.135719 1_565
O4 Sr0 2.360640 1_555
O4 Zr0 2.416481 1_454
O4 Sr1 3.012640 1_455
O4 Sr1 3.012640 1_554
O5 Sr0 2.360640 1_555
O5 Zr0 2.416481 1_445
O5 Sr1 3.012640 1_455
O5 Sr1 3.012640 1_545
