# generated using pymatgen
data_Na4Hf2Ta2Si5SO24
_symmetry_space_group_name_H-M   'P 1'
_cell_length_a   9.01752160
_cell_length_b   9.02711538
_cell_length_c   22.74660437
_cell_angle_alpha   89.75115287
_cell_angle_beta   90.23491952
_cell_angle_gamma   119.93832797
_symmetry_Int_Tables_number   1
_chemical_formula_structural   Na4Hf2Ta2Si5SO24
_chemical_formula_sum   'Na12 Hf6 Ta6 Si15 S3 O72'
_cell_volume   1604.52973736
_cell_formula_units_Z   3
loop_
 _symmetry_equiv_pos_site_id
 _symmetry_equiv_pos_as_xyz
  1  'x, y, z'
loop_
 _atom_site_type_symbol
 _atom_site_label
 _atom_site_symmetry_multiplicity
 _atom_site_fract_x
 _atom_site_fract_y
 _atom_site_fract_z
 _atom_site_occupancy
  Na  Na0  1  0.64816472  0.00070838  0.25126508  1
  Na  Na1  1  0.99244945  0.35648887  0.74965366  1
  Na  Na2  1  0.29760366  0.33677561  0.58009553  1
  Na  Na3  1  0.66746663  0.96735615  0.57860003  1
  Na  Na4  1  0.02325231  0.33231874  0.08550030  1
  Na  Na5  1  0.96007016  0.66433088  0.91207993  1
  Na  Na6  1  0.99841637  0.00066243  0.49142870  1
  Na  Na7  1  0.96886709  0.98802980  0.00205568  1
  Na  Na8  1  0.64604575  0.33032122  0.83262792  1
  Na  Na9  1  0.65464419  0.34068560  0.33448483  1
  Na  Na10  1  0.32587022  0.68165748  0.16735186  1
  Na  Na11  1  0.32820634  0.68217173  0.66384573  1
  Hf  Hf0  1  0.00132018  0.00577497  0.35182878  1
  Hf  Hf1  1  0.99188973  0.00502711  0.85307378  1
  Hf  Hf2  1  0.99339593  0.98931074  0.14891859  1
  Hf  Hf3  1  0.68089443  0.34042885  0.97751746  1
  Hf  Hf4  1  0.34315563  0.67132372  0.02312134  1
  Hf  Hf5  1  0.33487142  0.66464278  0.52115031  1
  Ta  Ta0  1  0.99644855  0.99368911  0.64607217  1
  Ta  Ta1  1  0.66618724  0.33678369  0.68793426  1
  Ta  Ta2  1  0.67594649  0.33367774  0.18969602  1
  Ta  Ta3  1  0.65609582  0.32434008  0.47867970  1
  Ta  Ta4  1  0.34339834  0.66672180  0.31247742  1
  Ta  Ta5  1  0.33705801  0.65542139  0.80857566  1
  Si  Si0  1  0.29071245  0.00023528  0.25091838  1
  Si  Si1  1  0.71267268  0.70526647  0.25191082  1
  Si  Si2  1  0.01052195  0.29677972  0.24743530  1
  Si  Si3  1  0.28956767  0.28092583  0.74950795  1
  Si  Si4  1  0.00102393  0.71184110  0.75278851  1
  Si  Si5  1  0.70401565  0.99706297  0.74769183  1
  Si  Si6  1  0.95356152  0.33478667  0.58457556  1
  Si  Si7  1  0.37550153  0.04489038  0.58462208  1
  Si  Si8  1  0.67472722  0.62269568  0.58141785  1
  Si  Si9  1  0.95930283  0.62986680  0.08185680  1
  Si  Si10  1  0.66635451  0.04172701  0.08426238  1
  Si  Si11  1  0.62339972  0.66490826  0.91696886  1
  Si  Si12  1  0.04912099  0.37567146  0.91791106  1
  Si  Si13  1  0.62862937  0.95929328  0.41833233  1
  Si  Si14  1  0.33271607  0.37264659  0.41922033  1
  S  S0  1  0.38057008  0.33149744  0.08298304  1
  S  S1  1  0.33500690  0.95237582  0.91523271  1
  S  S2  1  0.04187274  0.66217772  0.41677444  1
  O  O0  1  0.20577795  0.03233942  0.30801627  1
  O  O1  1  0.82861798  0.78847615  0.30921612  1
  O  O2  1  0.95951323  0.16182205  0.30145966  1
  O  O3  1  0.20103377  0.16697568  0.80651737  1
  O  O4  1  0.97331587  0.79074714  0.81227341  1
  O  O5  1  0.83188056  0.03892299  0.80332548  1
  O  O6  1  0.79501034  0.97083767  0.68874118  1
  O  O7  1  0.16581340  0.19881650  0.69114627  1
  O  O8  1  0.02347861  0.83670090  0.69587818  1
  O  O9  1  0.78936674  0.83474444  0.19572022  1
  O  O10  1  0.03925917  0.22018525  0.18693450  1
  O  O11  1  0.17240977  0.96869851  0.19333570  1
  O  O12  1  0.86424340  0.35558073  0.64414989  1
  O  O13  1  0.50263252  0.14438284  0.63991080  1
  O  O14  1  0.64511361  0.50117084  0.63892726  1
  O  O15  1  0.84537453  0.49921862  0.13633315  1
  O  O16  1  0.64957114  0.13924620  0.14336567  1
  O  O17  1  0.48069796  0.34754405  0.13640497  1
  O  O18  1  0.46481703  0.31877166  0.02931908  1
  O  O19  1  0.85147457  0.54286846  0.02073807  1
  O  O20  1  0.68268734  0.16202716  0.02767346  1
  O  O21  1  0.46522454  0.16825350  0.52605869  1
  O  O22  1  0.69691995  0.52748122  0.52434481  1
  O  O23  1  0.82603850  0.30191633  0.52828750  1
  O  O24  1  0.53202472  0.69093158  0.97410456  1
  O  O25  1  0.15471489  0.47475020  0.97663761  1
  O  O26  1  0.31364696  0.84843091  0.96877725  1
  O  O27  1  0.53053148  0.85206174  0.47756342  1
  O  O28  1  0.31262287  0.45985006  0.47944021  1
  O  O29  1  0.14360154  0.67830187  0.47062123  1
  O  O30  1  0.12752179  0.64474068  0.36399939  1
  O  O31  1  0.50674830  0.86297948  0.36036580  1
  O  O32  1  0.34847201  0.49944711  0.36384470  1
  O  O33  1  0.14607705  0.49890016  0.85902525  1
  O  O34  1  0.35551572  0.86912811  0.86198121  1
  O  O35  1  0.50698236  0.65618367  0.85834731  1
  O  O36  1  0.02286880  0.81355234  0.41379722  1
  O  O37  1  0.81461943  0.97515820  0.41369472  1
  O  O38  1  0.17079187  0.18202082  0.41279135  1
  O  O39  1  0.03140082  0.18859665  0.91344265  1
  O  O40  1  0.17669958  0.96238890  0.91149635  1
  O  O41  1  0.81931714  0.82587671  0.91264213  1
  O  O42  1  0.96749562  0.15847804  0.59010577  1
  O  O43  1  0.19166288  0.03780540  0.59173921  1
  O  O44  1  0.84087869  0.81503497  0.58895992  1
  O  O45  1  0.98257545  0.81860784  0.08740595  1
  O  O46  1  0.84675438  0.04008884  0.08672579  1
  O  O47  1  0.20661593  0.18154354  0.08575502  1
  O  O48  1  0.68966173  0.17016612  0.74108837  1
  O  O49  1  0.48250081  0.31420619  0.74144686  1
  O  O50  1  0.83755836  0.51803251  0.74208026  1
  O  O51  1  0.67855973  0.51296900  0.23955660  1
  O  O52  1  0.83525605  0.31526858  0.24117509  1
  O  O53  1  0.48734144  0.16484035  0.24088977  1
  O  O54  1  0.63238801  0.48801163  0.91763473  1
  O  O55  1  0.85942316  0.36371687  0.91793164  1
  O  O56  1  0.48598843  0.12463256  0.91997690  1
  O  O57  1  0.64542101  0.15151499  0.42386467  1
  O  O58  1  0.51483180  0.36804190  0.42243210  1
  O  O59  1  0.87125861  0.50306267  0.42115561  1
  O  O60  1  0.36203367  0.48792092  0.08044178  1
  O  O61  1  0.14056310  0.62764010  0.08157585  1
  O  O62  1  0.49776282  0.85209069  0.08193322  1
  O  O63  1  0.36238901  0.86034642  0.57998854  1
  O  O64  1  0.50393455  0.64342320  0.57862936  1
  O  O65  1  0.14651195  0.49647567  0.58022519  1
  O  O66  1  0.32304741  0.83574013  0.26013549  1
  O  O67  1  0.52099634  0.68837383  0.26067719  1
  O  O68  1  0.16870237  0.48830523  0.26099916  1
  O  O69  1  0.30148950  0.47144327  0.75639679  1
  O  O70  1  0.16922000  0.68496757  0.75669614  1
  O  O71  1  0.51448487  0.82959210  0.75594803  1
loop_
_geom_bond_atom_site_label_1
_geom_bond_atom_site_label_2
_geom_bond_distance
_geom_bond_site_symmetry_2
Na0 O67 2.465746 1_545
Na0 O52 2.485549 1_555
Na0 O53 2.548131 1_555
Na0 O66 2.549121 1_545
Na0 O2 2.685861 1_555
Na0 O9 2.719526 1_545
Na0 O16 2.746948 1_555
Na0 O31 2.783397 1_545
Na1 O48 2.395128 1_555
Na1 O69 2.444973 1_655
Na1 O50 2.477089 1_555
Na1 O70 2.577460 1_655
Na1 O12 2.657798 1_555
Na1 O5 2.765144 1_555
Na1 O33 2.825429 1_655
Na1 O7 2.914691 1_655
Na2 O43 2.385148 1_555
Na2 O65 2.428009 1_555
Na2 O64 2.446316 1_555
Na2 O28 2.514966 1_555
Na2 O42 2.592998 1_455
Na2 O7 2.804307 1_555
Na2 O21 2.904550 1_555
Na2 O14 3.025589 1_555
Na3 O42 2.388296 1_565
Na3 O63 2.418739 1_555
Na3 O64 2.534031 1_555
Na3 O44 2.555750 1_555
Na3 O27 2.569947 1_555
Na3 O6 2.746174 1_555
Na3 O23 2.854545 1_565
Na4 O46 2.302582 1_455
Na4 O61 2.327634 1_555
Na4 O10 2.547910 1_555
Na4 O47 2.613944 1_555
Na4 O60 2.652816 1_555
Na4 O25 2.768640 1_554
Na4 O15 2.936366 1_455
Na4 O20 2.965965 1_455
Na5 O41 2.363373 1_555
Na5 O55 2.396878 1_555
Na5 O40 2.410239 1_655
Na5 O4 2.512825 1_555
Na5 O54 2.566629 1_555
Na5 O19 2.682273 1_556
Na6 O37 2.350546 1_545
Na6 O38 2.398603 1_655
Na6 O36 2.533898 1_645
Na6 O44 2.713907 1_545
Na6 O42 2.752229 1_555
Na6 O43 2.783200 1_655
Na7 O46 2.384212 1_565
Na7 O41 2.476063 1_554
Na7 O45 2.506872 1_555
Na7 O39 2.572436 1_664
Na7 O47 2.744068 1_665
Na7 O40 2.877151 1_654
Na8 O54 2.445652 1_555
Na8 O49 2.502245 1_555
Na8 O56 2.606737 1_555
Na8 O55 2.636987 1_555
Na8 O50 2.678407 1_555
Na8 O48 2.679718 1_555
Na9 O58 2.447089 1_555
Na9 O51 2.601472 1_555
Na9 O57 2.624109 1_555
Na9 O53 2.634577 1_555
Na9 O59 2.643180 1_555
Na9 O52 2.759656 1_555
Na10 O61 2.450535 1_555
Na10 O62 2.482594 1_555
Na10 O66 2.539853 1_555
Na10 O68 2.667591 1_555
Na10 O67 2.733155 1_555
Na10 O60 2.770862 1_555
Na11 O63 2.409091 1_555
Na11 O65 2.524504 1_555
Na11 O70 2.564783 1_555
Na11 O71 2.597271 1_555
Na11 O64 2.641036 1_555
Na11 O69 2.760538 1_555
Hf0 O2 1.987870 1_455
Hf0 O0 2.005398 1_555
Hf0 O1 2.041478 1_445
Hf0 O38 2.089151 1_555
Hf0 O37 2.107784 1_445
Hf0 O36 2.312722 1_545
Hf1 O5 1.969861 1_555
Hf1 O3 2.016556 1_655
Hf1 O39 2.045732 1_655
Hf1 O4 2.078928 1_545
Hf1 O41 2.087895 1_545
Hf1 O40 2.304153 1_645
Hf2 O9 1.976360 1_555
Hf2 O11 1.986464 1_655
Hf2 O45 2.051674 1_555
Hf2 O10 2.101142 1_665
Hf2 O46 2.131676 1_565
Hf2 O47 2.333048 1_665
Hf3 O19 1.967137 1_556
Hf3 O20 1.976183 1_556
Hf3 O55 2.037298 1_555
Hf3 O54 2.093466 1_555
Hf3 O18 2.204501 1_556
Hf3 O56 2.276579 1_555
Hf4 O24 1.971825 1_554
Hf4 O62 2.032001 1_555
Hf4 O25 2.036214 1_554
Hf4 O61 2.134771 1_555
Hf4 O26 2.135341 1_554
Hf4 O60 2.175026 1_555
Hf5 O27 1.994651 1_555
Hf5 O28 2.000380 1_555
Hf5 O64 2.084054 1_555
Hf5 O65 2.102982 1_555
Hf5 O29 2.122710 1_555
Hf5 O63 2.134029 1_555
O0 Si0 1.609473 1_555
O1 Si1 1.603099 1_555
O2 Si2 1.624254 1_655
O3 Si3 1.598218 1_555
O4 Si4 1.609161 1_655
O5 Si5 1.622032 1_545
O6 Si5 1.653209 1_555
O6 Ta0 1.980620 1_555
O7 Si3 1.651627 1_555
O7 Ta0 1.998356 1_445
O8 Si4 1.657968 1_555
O8 Ta0 1.918280 1_455
O9 Si1 1.632641 1_555
O10 Si2 1.621465 1_555
O11 Si0 1.619676 1_565
O12 Si6 1.637787 1_555
O12 Ta1 1.980162 1_555
O13 Si7 1.634872 1_555
O13 Ta1 1.957426 1_555
O14 Si8 1.638291 1_555
O14 Ta1 1.935513 1_555
O15 Si9 1.664406 1_555
O15 Ta2 1.939409 1_555
O16 Si10 1.658374 1_555
O16 Ta2 1.960893 1_555
O17 S0 1.474733 1_555
O17 Ta2 2.187726 1_555
O18 S0 1.475233 1_555
O19 Si9 1.652632 1_555
O20 Si10 1.639413 1_555
O21 Si7 1.663104 1_555
O21 Ta3 1.921101 1_555
O22 Si8 1.627173 1_555
O22 Ta3 1.979094 1_555
O23 Si6 1.643285 1_555
O23 Ta3 1.989015 1_555
O24 Si11 1.621059 1_555
O25 Si12 1.625102 1_555
O26 S1 1.487470 1_555
O27 Si13 1.636617 1_555
O28 Si14 1.637871 1_555
O29 S2 1.490629 1_555
O30 S2 1.480867 1_555
O30 Ta4 2.198524 1_555
O31 Si13 1.657319 1_555
O31 Ta4 1.973289 1_555
O32 Si14 1.656388 1_555
O32 Ta4 1.923705 1_555
O33 Si12 1.679843 1_555
O33 Ta5 1.962778 1_555
O34 S1 1.488161 1_555
O34 Ta5 2.218845 1_555
O35 Si11 1.671301 1_555
O35 Ta5 1.898692 1_555
O36 S2 1.460837 1_555
O37 Si13 1.614345 1_555
O38 Si14 1.614645 1_555
O39 Si12 1.618561 1_555
O40 S1 1.476819 1_555
O41 Si11 1.637116 1_555
O42 Si6 1.662050 1_555
O42 Ta0 2.066434 1_545
O43 Si7 1.635475 1_555
O43 Ta0 2.024519 1_445
O44 Si8 1.640979 1_555
O44 Ta0 2.000409 1_555
O45 Si9 1.614814 1_555
O46 Si10 1.634920 1_555
O47 S0 1.475672 1_555
O48 Si5 1.637312 1_545
O48 Ta1 2.017130 1_555
O49 Si3 1.622081 1_555
O49 Ta1 1.986015 1_555
O50 Si4 1.649148 1_655
O50 Ta1 2.014996 1_555
O51 Si1 1.630170 1_555
O51 Ta2 1.970791 1_555
O52 Si2 1.675481 1_655
O52 Ta2 1.919728 1_555
O53 Si0 1.665677 1_555
O53 Ta2 1.996251 1_555
O54 Si11 1.638825 1_555
O55 Si12 1.659386 1_655
O56 S1 1.473216 1_545
O57 Si13 1.670089 1_545
O57 Ta3 1.965676 1_555
O58 Si14 1.664668 1_555
O58 Ta3 1.974627 1_555
O59 S2 1.494775 1_655
O59 Ta3 2.226559 1_555
O60 S0 1.503321 1_555
O61 Si9 1.644681 1_455
O62 Si10 1.626964 1_565
O63 Si7 1.614039 1_565
O64 Si8 1.642484 1_555
O65 Si6 1.622610 1_455
O66 Si0 1.662202 1_565
O66 Ta4 2.010229 1_555
O67 Si1 1.670335 1_555
O67 Ta4 1.921552 1_555
O68 Si2 1.630480 1_555
O68 Ta4 1.978779 1_555
O69 Si3 1.676771 1_555
O69 Ta5 1.937041 1_555
O70 Si4 1.653217 1_555
O70 Ta5 2.034675 1_555
O71 Si5 1.631860 1_555
O71 Ta5 1.988316 1_555
