# generated using pymatgen
data_NaZn2P2HO8
_symmetry_space_group_name_H-M   'P 1'
_cell_length_a   5.18248700
_cell_length_b   8.73823331
_cell_length_c   8.97027693
_cell_angle_alpha   96.98878830
_cell_angle_beta   100.24835858
_cell_angle_gamma   106.33672147
_symmetry_Int_Tables_number   1
_chemical_formula_structural   NaZn2P2HO8
_chemical_formula_sum   'Na2 Zn4 P4 H2 O16'
_cell_volume   377.20955244
_cell_formula_units_Z   2
loop_
 _symmetry_equiv_pos_site_id
 _symmetry_equiv_pos_as_xyz
  1  'x, y, z'
loop_
 _atom_site_type_symbol
 _atom_site_label
 _atom_site_symmetry_multiplicity
 _atom_site_fract_x
 _atom_site_fract_y
 _atom_site_fract_z
 _atom_site_occupancy
  Na  Na0  1  0.40765200  0.18661200  0.68837400  1
  Na  Na1  1  0.59234800  0.81338800  0.31162600  1
  Zn  Zn0  1  0.77765300  0.88676700  0.74236100  1
  Zn  Zn1  1  0.22234700  0.11323300  0.25763900  1
  Zn  Zn2  1  0.32394200  0.61759800  0.89236400  1
  Zn  Zn3  1  0.67605800  0.38240200  0.10763600  1
  P  P0  1  0.90726200  0.74921800  0.06039600  1
  P  P1  1  0.84217800  0.24580700  0.41686300  1
  P  P2  1  0.09273800  0.25078200  0.93960400  1
  P  P3  1  0.15782200  0.75419300  0.58313700  1
  H  H0  1  0.92199400  0.43085300  0.62143800  1
  H  H1  1  0.07800600  0.56914700  0.37856200  1
  O  O0  1  0.18930100  0.72891300  0.04914400  1
  O  O1  1  0.81069900  0.27108700  0.95085600  1
  O  O2  1  0.72554600  0.61462400  0.12911100  1
  O  O3  1  0.27445400  0.38537600  0.87088900  1
  O  O4  1  0.94023700  0.91068500  0.16353900  1
  O  O5  1  0.05976300  0.08931500  0.83646100  1
  O  O6  1  0.41232900  0.90303800  0.65423600  1
  O  O7  1  0.58767100  0.09696200  0.34576400  1
  O  O8  1  0.86693700  0.38332200  0.32100600  1
  O  O9  1  0.13306300  0.61667800  0.67899400  1
  O  O10  1  0.79793900  0.31533500  0.58048300  1
  O  O11  1  0.20206100  0.68466500  0.41951700  1
  O  O12  1  0.10733000  0.19660600  0.44311500  1
  O  O13  1  0.89267000  0.80339400  0.55688500  1
  O  O14  1  0.27542600  0.26150300  0.10531500  1
  O  O15  1  0.72457400  0.73849700  0.89468500  1
loop_
_geom_bond_atom_site_label_1
_geom_bond_atom_site_label_2
_geom_bond_distance
_geom_bond_site_symmetry_2
Na0 O10 2.444296 1_555
Na0 O5 2.450044 1_555
Na0 O6 2.467043 1_545
Na0 O12 2.484960 1_555
Na0 O3 2.560906 1_555
Na0 O1 2.722386 1_555
Na1 O11 2.444296 1_555
Na1 O4 2.450044 1_555
Na1 O7 2.467043 1_565
Na1 O13 2.484960 1_555
Na1 O2 2.560906 1_555
Na1 O0 2.722386 1_555
H0 O10 1.013836 1_555
H0 O9 1.641819 1_655
H1 O11 1.013836 1_555
H1 O8 1.641819 1_455
O0 P0 1.540183 1_455
O0 Zn2 1.951664 1_554
O1 P2 1.540183 1_655
O1 Zn3 1.951664 1_556
O2 P0 1.552397 1_555
O2 Zn3 1.953227 1_555
O3 P2 1.552397 1_555
O3 Zn2 1.953227 1_555
O4 P0 1.538310 1_555
O4 Zn1 1.929822 1_665
O5 P2 1.538310 1_555
O5 Zn0 1.929822 1_445
O6 P3 1.540082 1_555
O6 Zn0 1.968725 1_555
O7 P1 1.540082 1_555
O7 Zn1 1.968725 1_555
O8 P1 1.550395 1_555
O8 Zn3 1.989987 1_555
O9 P3 1.550395 1_555
O9 Zn2 1.989987 1_555
O10 P1 1.599054 1_555
O11 P3 1.599054 1_555
O12 P1 1.539617 1_455
O12 Zn1 1.989075 1_555
O13 P3 1.539617 1_655
O13 Zn0 1.989075 1_555
O14 P2 1.590661 1_554
O14 Zn1 1.996339 1_555
O14 Zn3 2.042721 1_555
O15 P0 1.590661 1_556
O15 Zn0 1.996339 1_555
O15 Zn2 2.042721 1_555
