# generated using pymatgen
data_Te6Br2O11
_symmetry_space_group_name_H-M   'P 1'
_cell_length_a   6.89558496
_cell_length_b   6.89558496
_cell_length_c   15.64651048
_cell_angle_alpha   90.00000000
_cell_angle_beta   90.00000000
_cell_angle_gamma   119.80796028
_symmetry_Int_Tables_number   1
_chemical_formula_structural   Te6Br2O11
_chemical_formula_sum   'Te12 Br4 O22'
_cell_volume   645.54648088
_cell_formula_units_Z   2
loop_
 _symmetry_equiv_pos_site_id
 _symmetry_equiv_pos_as_xyz
  1  'x, y, z'
loop_
 _atom_site_type_symbol
 _atom_site_label
 _atom_site_symmetry_multiplicity
 _atom_site_fract_x
 _atom_site_fract_y
 _atom_site_fract_z
 _atom_site_occupancy
  Te  Te0  1  0.07005642  0.07005642  0.85937171  1
  Te  Te1  1  0.92994358  0.92994358  0.35937171  1
  Te  Te2  1  0.07005642  0.07005642  0.64062829  1
  Te  Te3  1  0.92994358  0.92994358  0.14062829  1
  Te  Te4  1  0.21642426  0.52565524  0.08544876  1
  Te  Te5  1  0.78357574  0.47434476  0.58544876  1
  Te  Te6  1  0.52565524  0.21642426  0.41455124  1
  Te  Te7  1  0.47434476  0.78357574  0.91455124  1
  Te  Te8  1  0.78357574  0.47434476  0.91455124  1
  Te  Te9  1  0.21642426  0.52565524  0.41455124  1
  Te  Te10  1  0.47434476  0.78357574  0.58544876  1
  Te  Te11  1  0.52565524  0.21642426  0.08544876  1
  Br  Br0  1  0.14183357  0.47727058  0.75000000  1
  Br  Br1  1  0.85816643  0.52272942  0.25000000  1
  Br  Br2  1  0.47727058  0.14183357  0.75000000  1
  Br  Br3  1  0.52272942  0.85816643  0.25000000  1
  O  O0  1  0.93193590  0.93193590  0.75000000  1
  O  O1  1  0.06806410  0.06806410  0.25000000  1
  O  O2  1  0.96531158  0.20154669  0.09543974  1
  O  O3  1  0.03468842  0.79845331  0.59543974  1
  O  O4  1  0.20154669  0.96531158  0.40456026  1
  O  O5  1  0.79845331  0.03468842  0.90456026  1
  O  O6  1  0.03468842  0.79845331  0.90456026  1
  O  O7  1  0.96531158  0.20154669  0.40456026  1
  O  O8  1  0.79845331  0.03468842  0.59543974  1
  O  O9  1  0.20154669  0.96531158  0.09543974  1
  O  O10  1  0.81511839  0.51392283  0.03514575  1
  O  O11  1  0.18488161  0.48607717  0.53514575  1
  O  O12  1  0.51392283  0.81511839  0.46485425  1
  O  O13  1  0.48607717  0.18488161  0.96485425  1
  O  O14  1  0.18488161  0.48607717  0.96485425  1
  O  O15  1  0.81511839  0.51392283  0.46485425  1
  O  O16  1  0.42552306  0.42552306  0.11034192  1
  O  O17  1  0.57447694  0.57447694  0.61034192  1
  O  O18  1  0.42552306  0.42552306  0.38965808  1
  O  O19  1  0.57447694  0.57447694  0.88965808  1
  O  O20  1  0.51392283  0.81511839  0.03514575  1
  O  O21  1  0.48607717  0.18488161  0.53514575  1
loop_
_geom_bond_atom_site_label_1
_geom_bond_atom_site_label_2
_geom_bond_distance
_geom_bond_site_symmetry_2
Br0 Te0 3.110707 1_555
Br0 Te2 3.110707 1_555
Br1 Te3 3.110707 1_555
Br1 Te1 3.110707 1_555
Br2 Te0 3.110707 1_555
Br2 Te2 3.110707 1_555
Br3 Te1 3.110707 1_555
Br3 Te3 3.110707 1_555
O0 Te2 1.959816 1_665
O0 Te0 1.959816 1_665
O1 Te3 1.959816 1_445
O1 Te1 1.959816 1_445
O2 Te3 1.900762 1_545
O2 Te4 2.042107 1_655
O3 Te2 1.900762 1_565
O3 Te5 2.042107 1_455
O4 Te1 1.900762 1_455
O4 Te6 2.042107 1_565
O5 Te0 1.900762 1_655
O5 Te7 2.042107 1_545
O6 Te0 1.900762 1_565
O6 Te8 2.042107 1_455
O7 Te1 1.900762 1_545
O7 Te9 2.042107 1_655
O8 Te2 1.900762 1_655
O8 Te10 2.042107 1_545
O9 Te3 1.900762 1_455
O9 Te11 2.042107 1_565
O10 Te8 1.903445 1_554
O10 Te11 2.177389 1_555
O11 Te9 1.903445 1_555
O11 Te10 2.177389 1_555
O12 Te10 1.903445 1_555
O12 Te9 2.177389 1_555
O13 Te11 1.903445 1_556
O13 Te8 2.177389 1_555
O14 Te4 1.903445 1_556
O14 Te7 2.177389 1_555
O15 Te5 1.903445 1_555
O15 Te6 2.177389 1_555
O16 Te4 1.922806 1_555
O16 Te11 1.922806 1_555
O17 Te5 1.922806 1_555
O17 Te10 1.922806 1_555
O18 Te9 1.922806 1_555
O18 Te6 1.922806 1_555
O19 Te8 1.922806 1_555
O19 Te7 1.922806 1_555
O20 Te7 1.903445 1_554
O20 Te4 2.177389 1_555
O21 Te6 1.903445 1_555
O21 Te5 2.177389 1_555
