# generated using pymatgen
data_Na3AlIn(PO4)3
_symmetry_space_group_name_H-M   'P 1'
_cell_length_a   8.84793511
_cell_length_b   8.82878909
_cell_length_c   22.05939794
_cell_angle_alpha   89.97683568
_cell_angle_beta   89.97667574
_cell_angle_gamma   119.89615713
_symmetry_Int_Tables_number   1
_chemical_formula_structural   Na3AlIn(PO4)3
_chemical_formula_sum   'Na18 Al6 In6 P18 O72'
_cell_volume   1493.89717556
_cell_formula_units_Z   6
loop_
 _symmetry_equiv_pos_site_id
 _symmetry_equiv_pos_as_xyz
  1  'x, y, z'
loop_
 _atom_site_type_symbol
 _atom_site_label
 _atom_site_symmetry_multiplicity
 _atom_site_fract_x
 _atom_site_fract_y
 _atom_site_fract_z
 _atom_site_occupancy
  Na  Na0  1  0.00030637  0.00025219  0.50028693  1
  Na  Na1  1  0.99868140  0.99829475  0.00117032  1
  Na  Na2  1  0.63862400  0.31764361  0.83183786  1
  Na  Na3  1  0.68277046  0.36139767  0.33349987  1
  Na  Na4  1  0.33235356  0.66671050  0.16980206  1
  Na  Na5  1  0.33329463  0.66618857  0.66515812  1
  Na  Na6  1  0.63942289  0.00063326  0.24994520  1
  Na  Na7  1  0.36248135  0.36008154  0.24981022  1
  Na  Na8  1  0.63637793  0.63289373  0.74746425  1
  Na  Na9  1  0.99850476  0.36253315  0.74728284  1
  Na  Na10  1  0.03652398  0.70347460  0.58372280  1
  Na  Na11  1  0.66360525  0.96486165  0.58347853  1
  Na  Na12  1  0.30017287  0.96935586  0.08523358  1
  Na  Na13  1  0.02874946  0.33337131  0.08518553  1
  Na  Na14  1  0.96987226  0.66524387  0.91719402  1
  Na  Na15  1  0.69563788  0.02809463  0.91655744  1
  Na  Na16  1  0.97316121  0.30149825  0.41713160  1
  Na  Na17  1  0.33245698  0.03169518  0.41789167  1
  Al  Al0  1  0.00757266  0.00657037  0.64615558  1
  Al  Al1  1  0.99513998  0.99370110  0.15249212  1
  Al  Al2  1  0.66133181  0.32970864  0.68227199  1
  Al  Al3  1  0.67049505  0.33867215  0.18438916  1
  Al  Al4  1  0.66365783  0.33848901  0.48213959  1
  Al  Al5  1  0.32786636  0.66409734  0.31607797  1
  In  In0  1  0.99196270  0.98940395  0.34591049  1
  In  In1  1  0.01119114  0.00851789  0.84521361  1
  In  In2  1  0.66223893  0.33819743  0.98822960  1
  In  In3  1  0.34134580  0.66469346  0.02121182  1
  In  In4  1  0.33524507  0.65909558  0.51975710  1
  In  In5  1  0.33409234  0.67094179  0.81176170  1
  P  P0  1  0.29951096  0.99772852  0.24829419  1
  P  P1  1  0.70221378  0.69872193  0.24755245  1
  P  P2  1  0.99889432  0.30272576  0.24834991  1
  P  P3  1  0.30038694  0.28809043  0.74331645  1
  P  P4  1  0.99257903  0.70115342  0.74336833  1
  P  P5  1  0.70924480  0.00896724  0.74333257  1
  P  P6  1  0.94614648  0.32481487  0.58434993  1
  P  P7  1  0.37718353  0.05681915  0.58321595  1
  P  P8  1  0.67441575  0.62114142  0.58534173  1
  P  P9  1  0.95521288  0.63515926  0.08778742  1
  P  P10  1  0.67707205  0.04230718  0.08920598  1
  P  P11  1  0.36409505  0.32203092  0.09125967  1
  P  P12  1  0.63304059  0.66593363  0.91320059  1
  P  P13  1  0.03405582  0.36611943  0.91758160  1
  P  P14  1  0.33381422  0.96611065  0.91922383  1
  P  P15  1  0.62428481  0.96324041  0.41655730  1
  P  P16  1  0.34328217  0.37819454  0.41372932  1
  P  P17  1  0.03719340  0.65932079  0.41789138  1
  O  O0  1  0.23471414  0.04710413  0.30631313  1
  O  O1  1  0.80480293  0.75830780  0.30727688  1
  O  O2  1  0.95079878  0.18897528  0.30671711  1
  O  O3  1  0.23903275  0.19547279  0.80509583  1
  O  O4  1  0.95815632  0.76841551  0.80411805  1
  O  O5  1  0.81177238  0.04550646  0.80408167  1
  O  O6  1  0.81007658  0.98204626  0.69077900  1
  O  O7  1  0.16882855  0.18969884  0.69264357  1
  O  O8  1  0.01472216  0.82261880  0.69001450  1
  O  O9  1  0.79901560  0.83364212  0.19693197  1
  O  O10  1  0.03445926  0.20680530  0.19581587  1
  O  O11  1  0.17732160  0.97120358  0.19458333  1
  O  O12  1  0.85755213  0.35212279  0.64034536  1
  O  O13  1  0.49867636  0.14745325  0.63667792  1
  O  O14  1  0.65437784  0.51522674  0.64278440  1
  O  O15  1  0.84986916  0.50021992  0.13660563  1
  O  O16  1  0.64943850  0.14317922  0.14123736  1
  O  O17  1  0.48324998  0.34373374  0.14464225  1
  O  O18  1  0.43036201  0.28212555  0.03195104  1
  O  O19  1  0.86815540  0.57452873  0.02466401  1
  O  O20  1  0.71370434  0.14475093  0.02841524  1
  O  O21  1  0.45959731  0.15790679  0.52319656  1
  O  O22  1  0.69877444  0.53131004  0.52898568  1
  O  O23  1  0.83420077  0.29791580  0.52624039  1
  O  O24  1  0.55046970  0.70091156  0.96899019  1
  O  O25  1  0.13600438  0.44875607  0.97648991  1
  O  O26  1  0.30496879  0.85988317  0.97849618  1
  O  O27  1  0.55402196  0.86352697  0.47657378  1
  O  O28  1  0.29262647  0.44498928  0.47023675  1
  O  O29  1  0.14249219  0.69849143  0.47769049  1
  O  O30  1  0.13477230  0.63002963  0.36442149  1
  O  O31  1  0.50461227  0.86666232  0.36119803  1
  O  O32  1  0.36332543  0.48984783  0.35657233  1
  O  O33  1  0.11535247  0.47545399  0.85953110  1
  O  O34  1  0.36647672  0.88099131  0.86350221  1
  O  O35  1  0.53424206  0.64371239  0.85351069  1
  O  O36  1  0.02225246  0.82506178  0.41055735  1
  O  O37  1  0.81282869  0.99630226  0.41127305  1
  O  O38  1  0.18180629  0.18982434  0.40797781  1
  O  O39  1  0.00828876  0.18089817  0.91454535  1
  O  O40  1  0.16497486  0.97425344  0.91394256  1
  O  O41  1  0.81695553  0.83304018  0.91104498  1
  O  O42  1  0.96406406  0.15836579  0.59011520  1
  O  O43  1  0.18900606  0.02859417  0.58990278  1
  O  O44  1  0.84127246  0.80946848  0.58896079  1
  O  O45  1  0.98256173  0.82030562  0.09747971  1
  O  O46  1  0.84090855  0.02545290  0.09840520  1
  O  O47  1  0.17803143  0.15864196  0.09836937  1
  O  O48  1  0.68848916  0.17143449  0.73590613  1
  O  O49  1  0.48711366  0.31819097  0.73558974  1
  O  O50  1  0.82884240  0.51470823  0.73781661  1
  O  O51  1  0.67090764  0.51110592  0.23676154  1
  O  O52  1  0.83674667  0.32272611  0.23730870  1
  O  O53  1  0.48699827  0.15952974  0.23914682  1
  O  O54  1  0.65623792  0.50567097  0.91856183  1
  O  O55  1  0.85137347  0.35134859  0.92015400  1
  O  O56  1  0.50102349  0.14570871  0.92230185  1
  O  O57  1  0.63562214  0.14656531  0.42093279  1
  O  O58  1  0.50899202  0.36252869  0.42254477  1
  O  O59  1  0.85705838  0.48926498  0.42433009  1
  O  O60  1  0.34170845  0.48519034  0.08816227  1
  O  O61  1  0.13928664  0.64900504  0.08734663  1
  O  O62  1  0.50573802  0.86404898  0.08706763  1
  O  O63  1  0.35667875  0.86883745  0.58221808  1
  O  O64  1  0.51504586  0.65093732  0.58359544  1
  O  O65  1  0.12774133  0.49324605  0.58259274  1
  O  O66  1  0.31925795  0.83323710  0.25750915  1
  O  O67  1  0.51862940  0.68613736  0.25451968  1
  O  O68  1  0.16981453  0.48094948  0.25706917  1
  O  O69  1  0.31357550  0.47211350  0.74553037  1
  O  O70  1  0.15425515  0.67698529  0.74568344  1
  O  O71  1  0.53182480  0.83720138  0.74562428  1
loop_
_geom_bond_atom_site_label_1
_geom_bond_atom_site_label_2
_geom_bond_distance
_geom_bond_site_symmetry_2
Na0 O44 2.505165 1_445
Na0 O43 2.518895 1_555
Na0 O42 2.534962 1_455
Na0 O37 2.559988 1_445
Na0 O36 2.578672 1_545
Na0 O38 2.615694 1_555
Na1 O39 2.473579 1_664
Na1 O40 2.494353 1_654
Na1 O41 2.516544 1_554
Na1 O45 2.603263 1_555
Na1 O47 2.624020 1_665
Na1 O46 2.634128 1_565
Na2 O56 2.433542 1_555
Na2 O54 2.486935 1_555
Na2 O49 2.512717 1_555
Na2 O55 2.621546 1_555
Na2 O48 2.628389 1_555
Na2 O50 2.690089 1_555
Na3 O59 2.436404 1_555
Na3 O58 2.497098 1_555
Na3 O51 2.539317 1_555
Na3 O57 2.588265 1_555
Na3 O52 2.633834 1_555
Na3 O53 2.727164 1_555
Na4 O60 2.439869 1_555
Na4 O67 2.441167 1_555
Na4 O61 2.446949 1_555
Na4 O62 2.459788 1_555
Na4 O66 2.467843 1_555
Na4 O68 2.471402 1_555
Na5 O69 2.410192 1_555
Na5 O70 2.412947 1_555
Na5 O71 2.424215 1_555
Na5 O64 2.460709 1_555
Na5 O65 2.488592 1_555
Na5 O63 2.493860 1_555
Na6 O53 2.393662 1_555
Na6 O67 2.429711 1_545
Na6 O66 2.462265 1_545
Na6 O52 2.502440 1_555
Na6 O16 2.688578 1_555
Na6 O2 2.713178 1_555
Na6 O31 2.726462 1_545
Na6 O9 2.758719 1_545
Na7 O51 2.383195 1_555
Na7 O68 2.425637 1_555
Na7 O67 2.498413 1_555
Na7 O53 2.519717 1_555
Na7 O17 2.587810 1_555
Na7 O32 2.617792 1_555
Na7 O0 2.710906 1_555
Na7 O10 2.786092 1_555
Na8 O71 2.403009 1_555
Na8 O50 2.409387 1_555
Na8 O49 2.423948 1_555
Na8 O69 2.476470 1_555
Na8 O35 2.526402 1_555
Na8 O14 2.569717 1_555
Na8 O4 2.776256 1_555
Na8 O6 2.949680 1_555
Na9 O70 2.407040 1_655
Na9 O48 2.412695 1_555
Na9 O69 2.453615 1_655
Na9 O50 2.472383 1_555
Na9 O12 2.648939 1_555
Na9 O33 2.677799 1_655
Na9 O5 2.742150 1_555
Na9 O7 2.888711 1_655
Na10 O44 2.342025 1_455
Na10 O65 2.364381 1_555
Na10 O63 2.456431 1_555
Na10 O43 2.493606 1_565
Na10 O29 2.528124 1_555
Na10 O8 2.616365 1_555
Na10 O22 2.859226 1_455
Na10 O12 2.964582 1_455
Na11 O42 2.341042 1_565
Na11 O64 2.403692 1_555
Na11 O63 2.408188 1_555
Na11 O27 2.537858 1_555
Na11 O44 2.553014 1_555
Na11 O6 2.666824 1_555
Na11 O23 2.844280 1_565
Na11 O13 2.907001 1_565
Na12 O47 2.417679 1_565
Na12 O62 2.420725 1_555
Na12 O61 2.452396 1_555
Na12 O45 2.452461 1_455
Na12 O26 2.553929 1_554
Na12 O11 2.648778 1_555
Na12 O18 2.675636 1_565
Na12 O16 2.950975 1_565
Na13 O46 2.394309 1_455
Na13 O60 2.401838 1_555
Na13 O61 2.451036 1_555
Na13 O47 2.498018 1_555
Na13 O25 2.592308 1_554
Na13 O10 2.694643 1_555
Na13 O20 2.736559 1_455
Na13 O15 2.878472 1_455
Na14 O40 2.394382 1_655
Na14 O54 2.406050 1_555
Na14 O55 2.426319 1_555
Na14 O41 2.457994 1_555
Na14 O19 2.519908 1_556
Na14 O4 2.674868 1_555
Na14 O33 2.869328 1_655
Na14 O26 2.915226 1_655
Na15 O39 2.398766 1_655
Na15 O56 2.416966 1_555
Na15 O41 2.444459 1_545
Na15 O55 2.475895 1_555
Na15 O20 2.648246 1_556
Na15 O5 2.660026 1_555
Na15 O24 2.762109 1_545
Na15 O34 2.787826 1_545
Na16 O37 2.340838 1_545
Na16 O59 2.350816 1_555
Na16 O38 2.497026 1_655
Na16 O57 2.593218 1_555
Na16 O2 2.600962 1_555
Na16 O23 2.695275 1_555
Na16 O28 2.720517 1_655
Na16 O30 2.769689 1_655
Na17 O57 2.348742 1_555
Na17 O38 2.372488 1_555
Na17 O36 2.428313 1_545
Na17 O58 2.536555 1_555
Na17 O21 2.580296 1_555
Na17 O0 2.635041 1_555
Na17 O31 2.866980 1_545
Na17 O29 2.878423 1_545
Al0 O7 1.845089 1_555
Al0 O8 1.918034 1_545
Al0 O6 1.921104 1_445
Al0 O43 1.960024 1_555
Al0 O42 1.996453 1_455
Al0 O44 2.058133 1_445
Al1 O9 1.876753 1_555
Al1 O45 1.913220 1_555
Al1 O46 1.935651 1_565
Al1 O47 1.952583 1_665
Al1 O11 1.954516 1_655
Al1 O10 1.980778 1_665
Al2 O13 1.834660 1_555
Al2 O14 1.882716 1_555
Al2 O12 1.888071 1_555
Al2 O49 1.900524 1_555
Al2 O48 1.934890 1_555
Al2 O50 1.988884 1_555
Al3 O15 1.845289 1_555
Al3 O17 1.894856 1_555
Al3 O16 1.897554 1_555
Al3 O51 1.910044 1_555
Al3 O52 1.937545 1_555
Al3 O53 2.008385 1_555
Al4 O22 1.880674 1_555
Al4 O21 1.936490 1_555
Al4 O23 1.972665 1_555
Al4 O58 1.984132 1_555
Al4 O59 2.013097 1_555
Al4 O57 2.082985 1_555
Al5 O30 1.905952 1_555
Al5 O32 1.934776 1_555
Al5 O31 1.961978 1_555
Al5 O68 2.003421 1_555
Al5 O66 2.004219 1_555
Al5 O67 2.097915 1_555
In0 O1 2.065396 1_555
In0 O0 2.131465 1_665
In0 O36 2.144064 1_655
In0 O2 2.150222 1_565
In0 O37 2.165461 1_555
In0 O38 2.206368 1_665
In1 O3 2.062021 1_555
In1 O4 2.132118 1_445
In1 O5 2.149103 1_455
In1 O40 2.157125 1_545
In1 O39 2.167208 1_555
In1 O41 2.191939 1_445
In2 O18 2.090455 1_556
In2 O19 2.128841 1_556
In2 O56 2.150588 1_555
In2 O54 2.151134 1_555
In2 O20 2.164365 1_556
In2 O55 2.207524 1_555
In3 O24 2.064250 1_554
In3 O25 2.111612 1_554
In3 O26 2.124398 1_554
In3 O60 2.167017 1_555
In3 O62 2.185339 1_555
In3 O61 2.257138 1_555
In4 O28 2.049433 1_555
In4 O27 2.103900 1_555
In4 O29 2.117324 1_555
In4 O64 2.152937 1_555
In4 O65 2.180038 1_555
In4 O63 2.239572 1_555
In5 O34 2.072726 1_555
In5 O35 2.113676 1_555
In5 O33 2.121792 1_555
In5 O70 2.178513 1_555
In5 O71 2.186367 1_555
In5 O69 2.221181 1_555
O0 P0 1.551054 1_545
O1 P1 1.536866 1_555
O2 P2 1.555610 1_555
O3 P3 1.541620 1_555
O4 P4 1.556244 1_555
O5 P5 1.559632 1_555
O6 P5 1.551505 1_565
O7 P3 1.533921 1_555
O8 P4 1.537198 1_455
O9 P1 1.542897 1_555
O10 P2 1.557344 1_455
O11 P0 1.541548 1_555
O12 P6 1.544740 1_555
O13 P7 1.526764 1_555
O14 P8 1.531374 1_555
O15 P9 1.529379 1_555
O16 P10 1.545306 1_555
O17 P11 1.527986 1_555
O18 P11 1.544428 1_555
O19 P9 1.552183 1_555
O20 P10 1.558148 1_555
O21 P7 1.559073 1_555
O22 P8 1.546588 1_555
O23 P6 1.564425 1_555
O24 P12 1.538889 1_555
O25 P13 1.542818 1_555
O26 P14 1.553845 1_555
O27 P15 1.538537 1_555
O28 P16 1.538206 1_555
O29 P17 1.551744 1_555
O30 P17 1.557411 1_555
O31 P15 1.562500 1_555
O32 P16 1.554820 1_555
O33 P13 1.547615 1_555
O34 P14 1.541468 1_555
O35 P12 1.538374 1_555
O36 P17 1.541926 1_555
O37 P15 1.547953 1_555
O38 P16 1.566809 1_555
O39 P13 1.535921 1_555
O40 P14 1.535452 1_555
O41 P12 1.559983 1_555
O42 P6 1.559799 1_555
O43 P7 1.562752 1_555
O44 P8 1.582316 1_555
O45 P9 1.543459 1_555
O46 P10 1.542709 1_555
O47 P11 1.564602 1_555
O48 P5 1.542874 1_555
O49 P3 1.546388 1_555
O50 P4 1.564123 1_555
O51 P1 1.555673 1_555
O52 P2 1.549701 1_555
O53 P0 1.571764 1_545
O54 P12 1.532159 1_555
O55 P13 1.556485 1_655
O56 P14 1.539252 1_545
O57 P15 1.573952 1_545
O58 P16 1.552102 1_555
O59 P17 1.558468 1_655
O60 P11 1.550260 1_555
O61 P9 1.571347 1_455
O62 P10 1.548869 1_565
O63 P7 1.577250 1_565
O64 P8 1.558482 1_555
O65 P6 1.553231 1_455
O66 P0 1.560013 1_555
O67 P1 1.579345 1_555
O68 P2 1.558296 1_455
O69 P3 1.570583 1_555
O70 P4 1.548803 1_455
O71 P5 1.547038 1_565
