# generated using pymatgen
data_Na3Ti2Si2PO12
_symmetry_space_group_name_H-M   'P 1'
_cell_length_a   15.44386933
_cell_length_b   8.90033046
_cell_length_c   8.89397826
_cell_angle_alpha   90.00000000
_cell_angle_beta   125.08724139
_cell_angle_gamma   90.00000000
_symmetry_Int_Tables_number   1
_chemical_formula_structural   Na3Ti2Si2PO12
_chemical_formula_sum   'Na12 Ti8 Si8 P4 O48'
_cell_volume   1000.36629432
_cell_formula_units_Z   4
loop_
 _symmetry_equiv_pos_site_id
 _symmetry_equiv_pos_as_xyz
  1  'x, y, z'
loop_
 _atom_site_type_symbol
 _atom_site_label
 _atom_site_symmetry_multiplicity
 _atom_site_fract_x
 _atom_site_fract_y
 _atom_site_fract_z
 _atom_site_occupancy
  Na  Na0  1  0.24503175  0.77024598  0.99635582  1
  Na  Na1  1  0.74503175  0.72975402  0.49635582  1
  Na  Na2  1  0.74503175  0.27024598  0.99635582  1
  Na  Na3  1  0.24503175  0.22975402  0.49635582  1
  Na  Na4  1  0.50325474  0.11893091  0.75311438  1
  Na  Na5  1  0.50325474  0.88106909  0.25311438  1
  Na  Na6  1  0.00325474  0.61893091  0.75311438  1
  Na  Na7  1  0.00325474  0.38106909  0.25311438  1
  Na  Na8  1  0.81028906  0.93755887  0.22307270  1
  Na  Na9  1  0.81028906  0.06244113  0.72307270  1
  Na  Na10  1  0.31028906  0.43755887  0.22307270  1
  Na  Na11  1  0.31028906  0.56244113  0.72307270  1
  Ti  Ti0  1  0.10633795  0.74841997  0.56163550  1
  Ti  Ti1  1  0.89358620  0.74192817  0.93436507  1
  Ti  Ti2  1  0.89358620  0.25807183  0.43436507  1
  Ti  Ti3  1  0.10633795  0.25158003  0.06163550  1
  Ti  Ti4  1  0.60633795  0.24841997  0.56163550  1
  Ti  Ti5  1  0.39358620  0.24192817  0.93436507  1
  Ti  Ti6  1  0.39358620  0.75807183  0.43436507  1
  Ti  Ti7  1  0.60633795  0.75158003  0.06163550  1
  Si  Si0  1  0.35556129  0.89444642  0.75547146  1
  Si  Si1  1  0.64598709  0.89139570  0.74400215  1
  Si  Si2  1  0.64598709  0.10860430  0.24400215  1
  Si  Si3  1  0.35556129  0.10555358  0.25547146  1
  Si  Si4  1  0.85556129  0.39444642  0.75547146  1
  Si  Si5  1  0.14598709  0.39139570  0.74400215  1
  Si  Si6  1  0.14598709  0.60860430  0.24400215  1
  Si  Si7  1  0.85556129  0.60555358  0.25547146  1
  P  P0  1  0.00214762  0.96398810  0.74662429  1
  P  P1  1  0.00214762  0.03601190  0.24662429  1
  P  P2  1  0.50214762  0.46398810  0.74662429  1
  P  P3  1  0.50214762  0.53601190  0.24662429  1
  O  O0  1  0.15071163  0.57660698  0.74041503  1
  O  O1  1  0.85285458  0.57762936  0.75631722  1
  O  O2  1  0.85285458  0.42237064  0.25631722  1
  O  O3  1  0.15071163  0.42339302  0.24041503  1
  O  O4  1  0.65071163  0.07660698  0.74041503  1
  O  O5  1  0.35285458  0.07762936  0.75631722  1
  O  O6  1  0.35285458  0.92237064  0.25631722  1
  O  O7  1  0.65071163  0.92339302  0.24041503  1
  O  O8  1  0.43441229  0.55879016  0.56949271  1
  O  O9  1  0.56324350  0.56910555  0.91612259  1
  O  O10  1  0.56324350  0.43089445  0.41612259  1
  O  O11  1  0.43441229  0.44120984  0.06949271  1
  O  O12  1  0.93441229  0.05879016  0.56949271  1
  O  O13  1  0.06324350  0.06910555  0.91612259  1
  O  O14  1  0.06324350  0.93089445  0.41612259  1
  O  O15  1  0.93441229  0.94120984  0.06949271  1
  O  O16  1  0.25549679  0.81505970  0.73762096  1
  O  O17  1  0.74973034  0.82787504  0.75861378  1
  O  O18  1  0.74973034  0.17212496  0.25861378  1
  O  O19  1  0.25549679  0.18494030  0.23762096  1
  O  O20  1  0.75549679  0.31505970  0.73762096  1
  O  O21  1  0.24973034  0.32787504  0.75861378  1
  O  O22  1  0.24973034  0.67212496  0.25861378  1
  O  O23  1  0.75549679  0.68494030  0.23762096  1
  O  O24  1  0.36074109  0.84685380  0.58054662  1
  O  O25  1  0.64516534  0.85513266  0.92525919  1
  O  O26  1  0.64516534  0.14486734  0.42525919  1
  O  O27  1  0.36074109  0.15314620  0.08054662  1
  O  O28  1  0.86074109  0.34685380  0.58054662  1
  O  O29  1  0.14516534  0.35513266  0.92525919  1
  O  O30  1  0.14516534  0.64486734  0.42525919  1
  O  O31  1  0.86074109  0.65314620  0.08054662  1
  O  O32  1  0.46431816  0.82813542  0.93941607  1
  O  O33  1  0.53723488  0.82582252  0.56079024  1
  O  O34  1  0.53723488  0.17417748  0.06079024  1
  O  O35  1  0.46431816  0.17186458  0.43941607  1
  O  O36  1  0.96431816  0.32813542  0.93941607  1
  O  O37  1  0.03723488  0.32582252  0.56079024  1
  O  O38  1  0.03723488  0.67417748  0.06079024  1
  O  O39  1  0.96431816  0.67186458  0.43941607  1
  O  O40  1  0.08163357  0.85978883  0.74554384  1
  O  O41  1  0.92226215  0.86452292  0.75522038  1
  O  O42  1  0.92226215  0.13547708  0.25522038  1
  O  O43  1  0.08163357  0.14021117  0.24554384  1
  O  O44  1  0.58163357  0.35978883  0.74554384  1
  O  O45  1  0.42226215  0.36452292  0.75522038  1
  O  O46  1  0.42226215  0.63547708  0.25522038  1
  O  O47  1  0.58163357  0.64021117  0.24554384  1
loop_
_geom_bond_atom_site_label_1
_geom_bond_atom_site_label_2
_geom_bond_distance
_geom_bond_site_symmetry_2
Na0 O40 2.346847 1_555
Na0 O6 2.350663 1_556
Na0 O16 2.430684 1_555
Na0 O22 2.452342 1_556
Na0 O0 2.542004 1_555
Na0 O46 2.643208 1_556
Na1 O47 2.346847 1_555
Na1 O1 2.350663 1_555
Na1 O23 2.430684 1_555
Na1 O17 2.452342 1_555
Na1 O7 2.542004 1_555
Na1 O41 2.643208 1_555
Na2 O44 2.346847 1_555
Na2 O2 2.350663 1_556
Na2 O20 2.430684 1_555
Na2 O18 2.452342 1_556
Na2 O4 2.542004 1_555
Na2 O42 2.643208 1_556
Na3 O43 2.346847 1_555
Na3 O5 2.350663 1_555
Na3 O19 2.430684 1_555
Na3 O21 2.452342 1_555
Na3 O3 2.542004 1_555
Na3 O45 2.643208 1_555
Na4 O5 2.367958 1_555
Na4 O4 2.374128 1_555
Na4 O44 2.481732 1_555
Na4 O34 2.520804 1_556
Na4 O45 2.523851 1_555
Na4 O35 2.537520 1_555
Na5 O6 2.367958 1_555
Na5 O7 2.374128 1_555
Na5 O47 2.481732 1_555
Na5 O33 2.520804 1_555
Na5 O46 2.523851 1_555
Na5 O32 2.537520 1_554
Na6 O1 2.367958 1_455
Na6 O0 2.374128 1_555
Na6 O40 2.481732 1_555
Na6 O38 2.520804 1_556
Na6 O41 2.523851 1_455
Na6 O39 2.537520 1_455
Na7 O2 2.367958 1_455
Na7 O3 2.374128 1_555
Na7 O43 2.481732 1_555
Na7 O37 2.520804 1_555
Na7 O42 2.523851 1_455
Na7 O36 2.537520 1_454
Na8 O42 2.367869 1_565
Na8 O18 2.381820 1_565
Na8 O23 2.431858 1_555
Na8 O25 2.508347 1_554
Na8 O7 2.559380 1_555
Na8 O12 2.746224 1_565
Na8 O15 2.924341 1_555
Na9 O41 2.367869 1_545
Na9 O17 2.381820 1_545
Na9 O20 2.431858 1_555
Na9 O26 2.508347 1_555
Na9 O4 2.559380 1_555
Na9 O15 2.746224 1_546
Na9 O12 2.924341 1_555
Na10 O46 2.367869 1_555
Na10 O22 2.381820 1_555
Na10 O19 2.431858 1_555
Na10 O29 2.508347 1_554
Na10 O3 2.559380 1_555
Na10 O8 2.746224 1_555
Na10 O11 2.924341 1_555
Na11 O45 2.367869 1_555
Na11 O21 2.381820 1_555
Na11 O16 2.431858 1_555
Na11 O30 2.508347 1_555
Na11 O0 2.559380 1_555
Na11 O11 2.746224 1_556
Na11 O8 2.924341 1_555
O0 Si5 1.651175 1_555
O0 Ti0 2.020798 1_555
O1 Si4 1.631053 1_555
O1 Ti1 1.973956 1_555
O2 Si7 1.631053 1_555
O2 Ti2 1.973956 1_555
O3 Si6 1.651175 1_555
O3 Ti3 2.020798 1_555
O4 Si1 1.651175 1_545
O4 Ti4 2.020798 1_555
O5 Si0 1.631053 1_545
O5 Ti5 1.973956 1_555
O6 Si3 1.631053 1_565
O6 Ti6 1.973956 1_555
O7 Si2 1.651175 1_565
O7 Ti7 2.020798 1_555
O8 P2 1.547100 1_555
O8 Ti6 2.028960 1_555
O9 P2 1.550136 1_555
O9 Ti7 1.940434 1_556
O10 P3 1.550136 1_555
O10 Ti4 1.940434 1_555
O11 P3 1.547100 1_555
O11 Ti5 2.028960 1_554
O12 P0 1.547100 1_645
O12 Ti2 2.028960 1_555
O13 P0 1.550136 1_545
O13 Ti3 1.940434 1_556
O14 P1 1.550136 1_565
O14 Ti0 1.940434 1_555
O15 P1 1.547100 1_665
O15 Ti1 2.028960 1_554
O16 Si0 1.621909 1_555
O16 Ti0 1.990736 1_555
O17 Si1 1.632231 1_555
O17 Ti1 1.992978 1_555
O18 Si2 1.632231 1_555
O18 Ti2 1.992978 1_555
O19 Si3 1.621909 1_555
O19 Ti3 1.990736 1_555
O20 Si4 1.621909 1_555
O20 Ti4 1.990736 1_555
O21 Si5 1.632231 1_555
O21 Ti5 1.992978 1_555
O22 Si6 1.632231 1_555
O22 Ti6 1.992978 1_555
O23 Si7 1.621909 1_555
O23 Ti7 1.990736 1_555
O24 Si0 1.658117 1_555
O24 Ti6 1.824898 1_555
O25 Si1 1.651274 1_555
O25 Ti7 1.875201 1_556
O26 Si2 1.651274 1_555
O26 Ti4 1.875201 1_555
O27 Si3 1.658117 1_555
O27 Ti5 1.824898 1_554
O28 Si4 1.658117 1_555
O28 Ti2 1.824898 1_555
O29 Si5 1.651274 1_555
O29 Ti3 1.875201 1_556
O30 Si6 1.651274 1_555
O30 Ti0 1.875201 1_555
O31 Si7 1.658117 1_555
O31 Ti1 1.824898 1_554
O32 Si0 1.639173 1_555
O32 Ti7 1.927592 1_556
O33 Si1 1.634129 1_555
O33 Ti6 1.918809 1_555
O34 Si2 1.634129 1_555
O34 Ti5 1.918809 1_554
O35 Si3 1.639173 1_555
O35 Ti4 1.927592 1_555
O36 Si4 1.639173 1_555
O36 Ti3 1.927592 1_656
O37 Si5 1.634129 1_555
O37 Ti2 1.918809 1_455
O38 Si6 1.634129 1_555
O38 Ti1 1.918809 1_454
O39 Si7 1.639173 1_555
O39 Ti0 1.927592 1_655
O40 P0 1.542942 1_555
O40 Ti0 2.126258 1_555
O41 P0 1.555670 1_655
O41 Ti1 2.176363 1_555
O42 P1 1.555670 1_655
O42 Ti2 2.176363 1_555
O43 P1 1.542942 1_555
O43 Ti3 2.126258 1_555
O44 P2 1.542942 1_555
O44 Ti4 2.126258 1_555
O45 P2 1.555670 1_555
O45 Ti5 2.176363 1_555
O46 P3 1.555670 1_555
O46 Ti6 2.176363 1_555
O47 P3 1.542942 1_555
O47 Ti7 2.126258 1_555
