# generated using pymatgen
data_Yb2MgCu(GeO3)4
_symmetry_space_group_name_H-M   'P 1'
_cell_length_a   5.14346342
_cell_length_b   7.12208581
_cell_length_c   8.13951632
_cell_angle_alpha   66.86983768
_cell_angle_beta   83.07828707
_cell_angle_gamma   76.06517802
_symmetry_Int_Tables_number   1
_chemical_formula_structural   Yb2MgCu(GeO3)4
_chemical_formula_sum   'Yb2 Mg1 Cu1 Ge4 O12'
_cell_volume   266.01816339
_cell_formula_units_Z   1
loop_
 _symmetry_equiv_pos_site_id
 _symmetry_equiv_pos_as_xyz
  1  'x, y, z'
loop_
 _atom_site_type_symbol
 _atom_site_label
 _atom_site_symmetry_multiplicity
 _atom_site_fract_x
 _atom_site_fract_y
 _atom_site_fract_z
 _atom_site_occupancy
  Yb  Yb0  1  0.00968467  0.76859303  0.43832865  1
  Yb  Yb1  1  0.01493051  0.20851972  0.57381295  1
  Mg  Mg0  1  0.13394330  0.57156599  0.07028635  1
  Cu  Cu0  1  0.00460291  0.03788129  0.99724211  1
  Ge  Ge0  1  0.55324080  0.83295796  0.79570299  1
  Ge  Ge1  1  0.43760813  0.13712221  0.22580750  1
  Ge  Ge2  1  0.57933007  0.60600077  0.21506887  1
  Ge  Ge3  1  0.41381668  0.37466849  0.80100559  1
  O  O0  1  0.77380725  0.92035570  0.62266888  1
  O  O1  1  0.23737489  0.02116482  0.40288156  1
  O  O2  1  0.84515518  0.52762023  0.35272954  1
  O  O3  1  0.24410973  0.45045975  0.60797397  1
  O  O4  1  0.37191775  0.62957830  0.83233072  1
  O  O5  1  0.44563165  0.38227777  0.24181593  1
  O  O6  1  0.75625902  0.69364666  0.99822140  1
  O  O7  1  0.75157159  0.24854962  0.81053996  1
  O  O8  1  0.25560337  0.77004886  0.17422169  1
  O  O9  1  0.74629074  0.98992037  0.19436382  1
  O  O10  1  0.28788525  0.03357212  0.81437646  1
  O  O11  1  0.23445849  0.27764032  0.02228905  1
loop_
_geom_bond_atom_site_label_1
_geom_bond_atom_site_label_2
_geom_bond_distance
_geom_bond_site_symmetry_2
Mg0 O6 1.983487 1_454
Mg0 O5 2.087257 1_555
Mg0 O4 2.112757 1_554
Mg0 O8 2.144466 1_555
Mg0 O11 2.207864 1_555
Mg0 O2 2.534762 1_455
Cu0 O9 1.931437 1_446
Cu0 O10 1.957299 1_555
Cu0 O7 1.999806 1_455
Cu0 O8 2.117502 1_546
Cu0 O11 2.378876 1_556
Ge0 O0 1.710076 1_555
Ge0 O10 1.763161 1_565
Ge0 O4 1.816906 1_555
Ge0 O6 1.850132 1_555
Ge1 O1 1.713704 1_555
Ge1 O9 1.731060 1_545
Ge1 O5 1.811630 1_555
Ge1 O11 1.857033 1_555
Ge2 O2 1.716612 1_555
Ge2 O8 1.771824 1_555
Ge2 O5 1.810595 1_555
Ge2 O6 1.831393 1_554
Ge3 O3 1.720240 1_555
Ge3 O7 1.748421 1_555
Ge3 O11 1.871200 1_556
Ge3 O4 1.889297 1_555
O0 Yb0 2.257278 1_655
O0 Yb1 2.524710 1_665
O1 Yb0 2.283861 1_545
O1 Yb1 2.316209 1_555
O2 Yb1 2.318545 1_655
O2 Yb0 2.434765 1_655
O3 Yb0 2.263128 1_555
O3 Yb1 2.422738 1_555
O7 Yb1 2.290278 1_655
O8 Yb0 2.356834 1_555
O9 Yb0 2.328954 1_655
O10 Yb1 2.293656 1_555
