# generated using pymatgen
data_MgFe(SbO3)4
_symmetry_space_group_name_H-M   'P 1'
_cell_length_a   5.52916654
_cell_length_b   10.85880317
_cell_length_c   9.50522523
_cell_angle_alpha   29.22107948
_cell_angle_beta   52.94252094
_cell_angle_gamma   58.37984411
_symmetry_Int_Tables_number   1
_chemical_formula_structural   MgFe(SbO3)4
_chemical_formula_sum   'Mg1 Fe1 Sb4 O12'
_cell_volume   222.33140953
_cell_formula_units_Z   1
loop_
 _symmetry_equiv_pos_site_id
 _symmetry_equiv_pos_as_xyz
  1  'x, y, z'
loop_
 _atom_site_type_symbol
 _atom_site_label
 _atom_site_symmetry_multiplicity
 _atom_site_fract_x
 _atom_site_fract_y
 _atom_site_fract_z
 _atom_site_occupancy
  Mg  Mg0  1  0.68336200  0.99872900  0.70669800  1
  Fe  Fe0  1  0.27681900  0.02629000  0.21884100  1
  Sb  Sb0  1  0.99205400  0.99458800  0.99305200  1
  Sb  Sb1  1  0.97927800  0.50337300  0.98239300  1
  Sb  Sb2  1  0.47500800  0.99889900  0.48703200  1
  Sb  Sb3  1  0.49741500  0.50194900  0.48174700  1
  O  O0  1  0.33505600  0.28887200  0.12430900  1
  O  O1  1  0.28032900  0.11193400  0.62271000  1
  O  O2  1  0.14675100  0.26684000  0.79689300  1
  O  O3  1  0.84458200  0.17612800  0.26274500  1
  O  O4  1  0.36247300  0.80494000  0.12112900  1
  O  O5  1  0.74975600  0.36731900  0.36581100  1
  O  O6  1  0.21833200  0.63210100  0.60550600  1
  O  O7  1  0.64348400  0.19919500  0.83753600  1
  O  O8  1  0.09885000  0.82271800  0.72523200  1
  O  O9  1  0.85320900  0.70717300  0.21076500  1
  O  O10  1  0.68960000  0.87956200  0.35988900  1
  O  O11  1  0.62342100  0.71344200  0.84451500  1
loop_
_geom_bond_atom_site_label_1
_geom_bond_atom_site_label_2
_geom_bond_distance
_geom_bond_site_symmetry_2
Mg0 O4 2.028805 1_556
Mg0 O5 2.030660 1_565
Mg0 O8 2.063399 1_655
Mg0 O1 2.161744 1_565
Mg0 O11 2.211919 1_555
Mg0 O3 2.321799 1_565
Fe0 O7 2.007231 1_554
Fe0 O3 2.106870 1_455
Fe0 O6 2.119837 1_545
Fe0 O0 2.276647 1_555
Fe0 O10 2.385662 1_545
Fe0 O2 2.578043 1_554
Fe0 O8 2.650165 1_545
O0 Sb1 2.005996 1_454
O0 Sb2 2.027765 1_545
O1 Sb2 2.008223 1_545
O1 Sb0 2.023303 1_445
O2 Sb0 2.013937 1_445
O2 Sb3 2.022856 1_555
O3 Sb2 2.033716 1_545
O3 Sb1 2.034108 1_554
O4 Sb3 1.988548 1_555
O4 Sb0 2.030804 1_454
O5 Sb1 2.017143 1_554
O5 Sb3 2.029392 1_555
O6 Sb1 2.006080 1_455
O6 Sb3 2.046888 1_555
O7 Sb3 1.999658 1_555
O7 Sb0 2.011695 1_545
O8 Sb2 2.011998 1_555
O8 Sb1 2.024330 1_455
O9 Sb0 1.984083 1_554
O9 Sb3 1.985300 1_555
O10 Sb2 1.985118 1_555
O10 Sb0 2.018748 1_554
O11 Sb1 1.993951 1_555
O11 Sb2 2.033841 1_555
