# generated using pymatgen
data_Na10Hf4Zr4Si9(SO16)3
_symmetry_space_group_name_H-M   'P 1'
_cell_length_a   18.24450240
_cell_length_b   9.14802080
_cell_length_c   23.13385272
_cell_angle_alpha   90.05198368
_cell_angle_beta   89.85345069
_cell_angle_gamma   119.96703870
_symmetry_Int_Tables_number   1
_chemical_formula_structural   Na10Hf4Zr4Si9(SO16)3
_chemical_formula_sum   'Na30 Hf12 Zr12 Si27 S9 O144'
_cell_volume   3344.87933066
_cell_formula_units_Z   3
loop_
 _symmetry_equiv_pos_site_id
 _symmetry_equiv_pos_as_xyz
  1  'x, y, z'
loop_
 _atom_site_type_symbol
 _atom_site_label
 _atom_site_symmetry_multiplicity
 _atom_site_fract_x
 _atom_site_fract_y
 _atom_site_fract_z
 _atom_site_occupancy
  Na  Na0  1  0.32144600  0.99904792  0.24947553  1
  Na  Na1  1  0.82211687  0.99945773  0.24946400  1
  Na  Na2  1  0.18373794  0.98874799  0.74765949  1
  Na  Na3  1  0.68381600  0.99487531  0.74683566  1
  Na  Na4  1  0.01792668  0.70564403  0.58043383  1
  Na  Na5  1  0.51782696  0.70632552  0.58002064  1
  Na  Na6  1  0.01798717  0.33099428  0.08019509  1
  Na  Na7  1  0.51651829  0.32606326  0.08041817  1
  Na  Na8  1  0.48426091  0.66464284  0.91368274  1
  Na  Na9  1  0.34895238  0.03106003  0.91573921  1
  Na  Na10  1  0.85189886  0.04326396  0.91357084  1
  Na  Na11  1  0.16445505  0.30583705  0.91971916  1
  Na  Na12  1  0.48490196  0.30577914  0.41449795  1
  Na  Na13  1  0.98527915  0.30682426  0.41417271  1
  Na  Na14  1  0.16559358  0.02769075  0.41884182  1
  Na  Na15  1  0.66561051  0.02725472  0.41902768  1
  Na  Na16  1  0.34890803  0.66609395  0.41626209  1
  Na  Na17  1  0.84953056  0.66693685  0.41583055  1
  Na  Na18  1  0.00219086  0.00198345  0.50115908  1
  Na  Na19  1  0.50220344  0.00184218  0.50116999  1
  Na  Na20  1  0.00696679  0.00127275  0.00180491  1
  Na  Na21  1  0.50680693  0.01203703  0.99859501  1
  Na  Na22  1  0.34307527  0.34266449  0.83207212  1
  Na  Na23  1  0.84571128  0.34639546  0.83240474  1
  Na  Na24  1  0.33999301  0.35139704  0.33148396  1
  Na  Na25  1  0.84012639  0.35171686  0.33108829  1
  Na  Na26  1  0.17278030  0.65945504  0.16562500  1
  Na  Na27  1  0.67337182  0.65839560  0.16781597  1
  Na  Na28  1  0.17720575  0.67725952  0.66709524  1
  Na  Na29  1  0.67776816  0.67572778  0.66499016  1
  Hf  Hf0  1  0.99504644  0.99591382  0.35154556  1
  Hf  Hf1  1  0.99706128  0.99469017  0.85157844  1
  Hf  Hf2  1  0.49615620  0.99817553  0.85425926  1
  Hf  Hf3  1  0.99421932  0.98238513  0.64802723  1
  Hf  Hf4  1  0.99538774  0.00737860  0.14684128  1
  Hf  Hf5  1  0.83107635  0.33863506  0.18561131  1
  Hf  Hf6  1  0.82887626  0.31836070  0.98143821  1
  Hf  Hf7  1  0.17295016  0.67191408  0.01751648  1
  Hf  Hf8  1  0.66821522  0.66801689  0.02012962  1
  Hf  Hf9  1  0.17341385  0.67625305  0.51842520  1
  Hf  Hf10  1  0.16532878  0.66965211  0.81608509  1
  Hf  Hf11  1  0.66291836  0.67354996  0.81292050  1
  Zr  Zr0  1  0.49455529  0.99524623  0.35160031  1
  Zr  Zr1  1  0.49363409  0.98325322  0.64798107  1
  Zr  Zr2  1  0.49633231  0.00911534  0.14671730  1
  Zr  Zr3  1  0.33301245  0.33274744  0.68639123  1
  Zr  Zr4  1  0.83396503  0.33432187  0.68684041  1
  Zr  Zr5  1  0.32964161  0.33658161  0.18546953  1
  Zr  Zr6  1  0.32668939  0.31843415  0.97955422  1
  Zr  Zr7  1  0.32757118  0.33266748  0.48173946  1
  Zr  Zr8  1  0.82860961  0.33428488  0.48181807  1
  Zr  Zr9  1  0.67488760  0.67813873  0.51836904  1
  Zr  Zr10  1  0.16431792  0.65072513  0.31408407  1
  Zr  Zr11  1  0.66564864  0.65248629  0.31431097  1
  Si  Si0  1  0.35241072  0.70376557  0.24987743  1
  Si  Si1  1  0.85417805  0.70531501  0.24976549  1
  Si  Si2  1  0.99901498  0.29535275  0.24930348  1
  Si  Si3  1  0.49976613  0.29953739  0.24968192  1
  Si  Si4  1  -0.00030168  0.70443504  0.75037747  1
  Si  Si5  1  0.49781133  0.70476462  0.75159058  1
  Si  Si6  1  0.35180371  0.99806257  0.75171989  1
  Si  Si7  1  0.85316557  0.99822757  0.75139571  1
  Si  Si8  1  0.18382614  0.03626064  0.58488548  1
  Si  Si9  1  0.68459252  0.03808384  0.58506879  1
  Si  Si10  1  0.32969325  0.62311906  0.58346119  1
  Si  Si11  1  0.83123684  0.62477734  0.58407435  1
  Si  Si12  1  0.32904690  0.03513192  0.08432704  1
  Si  Si13  1  0.83037716  0.03903197  0.08486628  1
  Si  Si14  1  0.18391794  0.33278420  0.08266668  1
  Si  Si15  1  0.68762219  0.33408435  0.08278294  1
  Si  Si16  1  0.31225768  0.66539704  0.91486055  1
  Si  Si17  1  0.02008718  0.37774535  0.91766666  1
  Si  Si18  1  0.52348593  0.37656959  0.91796330  1
  Si  Si19  1  0.16158392  0.95063396  0.91670624  1
  Si  Si20  1  0.66599699  0.95792416  0.91676168  1
  Si  Si21  1  0.31165967  0.95960749  0.41417262  1
  Si  Si22  1  0.81354233  0.96222676  0.41333581  1
  Si  Si23  1  0.16422796  0.37292350  0.41815825  1
  Si  Si24  1  0.66504042  0.37276098  0.41813129  1
  Si  Si25  1  0.02207101  0.66784020  0.41816306  1
  Si  Si26  1  0.52151824  0.66595056  0.41806553  1
  S  S0  1  0.14369419  0.99900868  0.24948797  1
  S  S1  1  0.64646512  0.00107799  0.24915305  1
  S  S2  1  0.14299845  0.29003951  0.74986968  1
  S  S3  1  0.64407780  0.29186737  0.75068435  1
  S  S4  1  0.47955116  0.33207970  0.58305434  1
  S  S5  1  0.98017989  0.33193224  0.58315213  1
  S  S6  1  0.47984218  0.62653599  0.08234747  1
  S  S7  1  0.97703914  0.62310409  0.08303881  1
  S  S8  1  0.81091271  0.66408683  0.91631052  1
  O  O0  1  0.10504023  0.02093540  0.30325085  1
  O  O1  1  0.60881244  0.02463838  0.30291392  1
  O  O2  1  0.40800007  0.78922108  0.30914030  1
  O  O3  1  0.90974641  0.79245149  0.30896670  1
  O  O4  1  0.48632256  0.17925537  0.30680181  1
  O  O5  1  0.98571439  0.17520846  0.30652352  1
  O  O6  1  0.10345321  0.18504587  0.80302501  1
  O  O7  1  0.60382076  0.18330631  0.80187910  1
  O  O8  1  0.49033795  0.80193311  0.80831904  1
  O  O9  1  0.98980576  0.80786505  0.80518936  1
  O  O10  1  0.41028532  0.02635580  0.80895027  1
  O  O11  1  0.90899507  0.02338142  0.81015270  1
  O  O12  1  0.40258433  0.98243563  0.69567974  1
  O  O13  1  0.90426987  0.98308774  0.69592798  1
  O  O14  1  0.09135872  0.20564227  0.69836942  1
  O  O15  1  0.59403011  0.21672394  0.69812798  1
  O  O16  1  0.01635674  0.82581781  0.69294288  1
  O  O17  1  0.51814467  0.82613260  0.69397622  1
  O  O18  1  0.40389773  0.82930058  0.19590504  1
  O  O19  1  0.90504566  0.83075771  0.19570387  1
  O  O20  1  0.01151575  0.20172634  0.19240133  1
  O  O21  1  0.51277252  0.20751165  0.19242290  1
  O  O22  1  0.09227349  0.98116530  0.19863980  1
  O  O23  1  0.59433608  0.98062005  0.19858744  1
  O  O24  1  0.43685022  0.35615201  0.63386675  1
  O  O25  1  0.93809919  0.35776027  0.63380339  1
  O  O26  1  0.24261329  0.12715311  0.64173585  1
  O  O27  1  0.74286593  0.12876535  0.64212628  1
  O  O28  1  0.32327230  0.50604222  0.63846438  1
  O  O29  1  0.82456390  0.50598458  0.63850962  1
  O  O30  1  0.43966237  0.51670835  0.13343497  1
  O  O31  1  0.93617840  0.51446319  0.13485783  1
  O  O32  1  0.32278735  0.13288366  0.14189123  1
  O  O33  1  0.82141903  0.13359881  0.14192074  1
  O  O34  1  0.24629290  0.36083348  0.13739991  1
  O  O35  1  0.74722799  0.36073615  0.13886807  1
  O  O36  1  0.22940903  0.31125981  0.02429683  1
  O  O37  1  0.73728518  0.31739168  0.02661622  1
  O  O38  1  0.43005811  0.55074580  0.02947755  1
  O  O39  1  0.92514605  0.54478382  0.03112698  1
  O  O40  1  0.34995421  0.15949759  0.02741720  1
  O  O41  1  0.84970020  0.16160171  0.02755288  1
  O  O42  1  0.23012685  0.14851796  0.52651973  1
  O  O43  1  0.73155404  0.14914892  0.52656825  1
  O  O44  1  0.35033852  0.54411446  0.52552002  1
  O  O45  1  0.85150805  0.54631869  0.52574988  1
  O  O46  1  0.42930709  0.30799300  0.52977766  1
  O  O47  1  0.92966856  0.30551129  0.52997783  1
  O  O48  1  0.26992671  0.70337158  0.97119131  1
  O  O49  1  0.77170782  0.69428318  0.96799175  1
  O  O50  1  0.07886625  0.45810610  0.97547433  1
  O  O51  1  0.57857807  0.46547993  0.97638819  1
  O  O52  1  0.15029534  0.83547990  0.97264841  1
  O  O53  1  0.65294896  0.83213746  0.97088511  1
  O  O54  1  0.26795108  0.83417458  0.46962574  1
  O  O55  1  0.77143875  0.83706267  0.46909940  1
  O  O56  1  0.14578913  0.46149593  0.47283547  1
  O  O57  1  0.64596009  0.45956587  0.47290259  1
  O  O58  1  0.07911258  0.69937911  0.47634954  1
  O  O59  1  0.57829278  0.69912862  0.47648522  1
  O  O60  1  0.06686335  0.63358065  0.36288522  1
  O  O61  1  0.56726548  0.63353037  0.36289739  1
  O  O62  1  0.25361090  0.88091080  0.35686741  1
  O  O63  1  0.75410158  0.88215722  0.35677858  1
  O  O64  1  0.18613758  0.49575508  0.36183720  1
  O  O65  1  0.68650142  0.49576804  0.36187314  1
  O  O66  1  0.06760647  0.49204011  0.86119622  1
  O  O67  1  0.57211970  0.50171584  0.86315691  1
  O  O68  1  0.18201528  0.87351446  0.85886317  1
  O  O69  1  0.68543686  0.87470227  0.85919777  1
  O  O70  1  0.25007301  0.62866256  0.86013906  1
  O  O71  1  0.75970836  0.64014291  0.86425867  1
  O  O72  1  0.01347349  0.83774234  0.40986112  1
  O  O73  1  0.51305359  0.83592288  0.41060206  1
  O  O74  1  0.40627407  0.97751132  0.41143335  1
  O  O75  1  0.90765470  0.97896886  0.40951627  1
  O  O76  1  0.08291901  0.18372903  0.40902258  1
  O  O77  1  0.58395875  0.18344666  0.40986480  1
  O  O78  1  0.00851651  0.18490738  0.90988842  1
  O  O79  1  0.50828228  0.18578387  0.91076085  1
  O  O80  1  0.08362996  0.99062530  0.90939759  1
  O  O81  1  0.58077651  0.96969999  0.90945461  1
  O  O82  1  0.40617158  0.83542509  0.90996761  1
  O  O83  1  0.89550951  0.82373648  0.91090210  1
  O  O84  1  0.49031357  0.18435554  0.58987881  1
  O  O85  1  0.99108414  0.18353999  0.59101302  1
  O  O86  1  0.08999700  0.02000378  0.59032730  1
  O  O87  1  0.59067053  0.02133162  0.58906818  1
  O  O88  1  0.41751572  0.80890789  0.58873823  1
  O  O89  1  0.91854661  0.81090707  0.58987427  1
  O  O90  1  0.49212324  0.79592318  0.09003368  1
  O  O91  1  0.98802135  0.79302108  0.09085130  1
  O  O92  1  0.41756162  0.02517996  0.08823588  1
  O  O93  1  0.91816876  0.02744696  0.08919939  1
  O  O94  1  0.09076817  0.16100472  0.08964426  1
  O  O95  1  0.59300723  0.16520564  0.08825686  1
  O  O96  1  0.33629263  0.16107183  0.74562797  1
  O  O97  1  0.83613711  0.15877401  0.74570484  1
  O  O98  1  0.22693203  0.29904075  0.74564470  1
  O  O99  1  0.72877533  0.30254166  0.74573025  1
  O  O100  1  0.41553848  0.51795654  0.74441485  1
  O  O101  1  0.91549074  0.51881131  0.74436720  1
  O  O102  1  0.34196689  0.51667314  0.24456693  1
  O  O103  1  0.84318761  0.51765003  0.24348760  1
  O  O104  1  0.40987466  0.29867168  0.24429509  1
  O  O105  1  0.90966094  0.29712331  0.24305255  1
  O  O106  1  0.23015934  0.15163540  0.24534721  1
  O  O107  1  0.73306310  0.15424279  0.24386499  1
  O  O108  1  0.32540837  0.50212694  0.92282538  1
  O  O109  1  0.82369410  0.51931116  0.92391176  1
  O  O110  1  0.42977131  0.36315667  0.92276692  1
  O  O111  1  0.92442184  0.35222904  0.92379046  1
  O  O112  1  0.24869657  0.14020615  0.92162733  1
  O  O113  1  0.75293076  0.14247326  0.92358226  1
  O  O114  1  0.32541293  0.14893492  0.42363300  1
  O  O115  1  0.82679916  0.15091338  0.42327145  1
  O  O116  1  0.24935514  0.35431652  0.42315516  1
  O  O117  1  0.75055503  0.35539663  0.42290136  1
  O  O118  1  0.42737365  0.49668701  0.42323953  1
  O  O119  1  0.92797743  0.49863236  0.42375820  1
  O  O120  1  0.16702772  0.49291768  0.07827800  1
  O  O121  1  0.67100802  0.49563713  0.07676975  1
  O  O122  1  0.06063066  0.63257322  0.07794055  1
  O  O123  1  0.56458242  0.63603009  0.07733199  1
  O  O124  1  0.24526068  0.85050963  0.07863740  1
  O  O125  1  0.74839400  0.85220333  0.07556313  1
  O  O126  1  0.16789429  0.84263869  0.57861594  1
  O  O127  1  0.66839120  0.84409192  0.58023206  1
  O  O128  1  0.24567097  0.64006888  0.57836352  1
  O  O129  1  0.74703209  0.64107188  0.58011295  1
  O  O130  1  0.06331597  0.48934501  0.57803050  1
  O  O131  1  0.56259138  0.49011372  0.57886688  1
  O  O132  1  0.15530519  0.85032017  0.25386989  1
  O  O133  1  0.65858052  0.85298366  0.25375149  1
  O  O134  1  0.26324919  0.70663868  0.25369080  1
  O  O135  1  0.76439620  0.70687104  0.25378268  1
  O  O136  1  0.08215647  0.48230612  0.25349788  1
  O  O137  1  0.58312037  0.48619313  0.25322976  1
  O  O138  1  0.15328904  0.45824354  0.75531854  1
  O  O139  1  0.65671886  0.46301095  0.75863668  1
  O  O140  1  0.08659464  0.69488285  0.75572908  1
  O  O141  1  0.58603486  0.69460186  0.75667815  1
  O  O142  1  0.25742497  0.82989713  0.75559060  1
  O  O143  1  0.75911743  0.82755795  0.75668563  1
loop_
_geom_bond_atom_site_label_1
_geom_bond_atom_site_label_2
_geom_bond_distance
_geom_bond_site_symmetry_2
Na0 O134 2.335569 1_555
Na0 O104 2.389983 1_565
Na0 O132 2.632125 1_555
Na0 O106 2.656114 1_565
Na0 O62 2.743136 1_555
Na0 O32 2.769331 1_565
Na0 O18 2.920731 1_555
Na0 O4 2.930438 1_565
Na1 O135 2.338200 1_555
Na1 O105 2.375426 1_565
Na1 O133 2.590790 1_555
Na1 O107 2.638421 1_565
Na1 O63 2.741067 1_555
Na1 O33 2.777932 1_565
Na1 O5 2.908332 1_565
Na1 O19 2.921832 1_555
Na2 O140 2.375356 1_555
Na2 O96 2.418717 1_565
Na2 O142 2.430258 1_555
Na2 O98 2.538895 1_565
Na2 O26 2.719368 1_565
Na2 O68 2.775205 1_555
Na2 O16 2.935760 1_555
Na3 O97 2.410151 1_565
Na3 O141 2.425579 1_555
Na3 O99 2.507743 1_565
Na3 O143 2.526880 1_555
Na3 O27 2.683719 1_565
Na3 O69 2.829171 1_555
Na3 O17 2.892847 1_555
Na4 O126 2.373287 1_555
Na4 O89 2.450358 1_455
Na4 O130 2.498128 1_555
Na4 O86 2.504828 1_565
Na4 O58 2.664053 1_555
Na4 O16 2.830138 1_555
Na4 O45 2.922111 1_455
Na4 O25 3.023417 1_455
Na5 O127 2.382378 1_555
Na5 O88 2.446259 1_555
Na5 O131 2.488654 1_555
Na5 O87 2.507695 1_565
Na5 O59 2.648948 1_555
Na5 O17 2.852972 1_555
Na5 O44 2.935231 1_555
Na6 O120 2.359176 1_555
Na6 O93 2.453157 1_455
Na6 O122 2.464763 1_555
Na6 O94 2.508817 1_555
Na6 O50 2.675046 1_554
Na6 O20 2.831053 1_555
Na6 O41 2.928113 1_455
Na6 O31 3.022065 1_455
Na7 O92 2.429654 1_555
Na7 O121 2.447241 1_555
Na7 O95 2.489772 1_555
Na7 O123 2.516064 1_555
Na7 O51 2.692472 1_554
Na7 O21 2.797283 1_555
Na7 O40 2.906846 1_555
Na7 O30 2.990384 1_555
Na8 O110 2.428977 1_555
Na8 O81 2.447157 1_555
Na8 O108 2.519422 1_555
Na8 O82 2.588917 1_555
Na8 O8 2.719555 1_555
Na8 O38 2.863841 1_556
Na8 O67 2.920805 1_555
Na8 O53 2.979413 1_555
Na9 O82 2.485126 1_545
Na9 O112 2.486795 1_555
Na9 O79 2.520897 1_555
Na9 O110 2.637312 1_555
Na9 O10 2.718609 1_555
Na9 O40 2.833515 1_556
Na9 O48 2.896613 1_545
Na9 O68 2.952367 1_545
Na10 O113 2.402534 1_555
Na10 O111 2.461626 1_555
Na10 O78 2.480156 1_655
Na10 O83 2.503140 1_545
Na10 O11 2.649115 1_555
Na10 O41 2.857296 1_556
Na10 O69 2.919084 1_545
Na11 O78 2.495662 1_555
Na11 O80 2.509798 1_545
Na11 O108 2.566280 1_555
Na11 O112 2.643271 1_555
Na11 O36 2.686162 1_556
Na11 O50 2.863874 1_555
Na11 O70 2.906740 1_555
Na11 O6 2.920413 1_555
Na12 O118 2.453971 1_555
Na12 O114 2.529194 1_555
Na12 O77 2.559152 1_555
Na12 O74 2.603353 1_545
Na12 O4 2.751719 1_555
Na12 O46 2.854464 1_555
Na12 O61 2.858151 1_555
Na12 O57 2.885509 1_555
Na13 O119 2.460009 1_555
Na13 O115 2.513229 1_555
Na13 O76 2.541310 1_655
Na13 O75 2.601829 1_545
Na13 O5 2.766865 1_555
Na13 O60 2.847977 1_655
Na13 O47 2.860184 1_555
Na13 O56 2.880428 1_655
Na14 O72 2.439199 1_545
Na14 O114 2.552470 1_555
Na14 O76 2.552962 1_555
Na14 O116 2.590740 1_555
Na14 O42 2.742807 1_555
Na14 O0 2.884711 1_555
Na14 O58 2.922711 1_545
Na14 O62 2.928478 1_545
Na15 O73 2.446182 1_545
Na15 O77 2.536596 1_555
Na15 O115 2.572066 1_555
Na15 O117 2.602614 1_555
Na15 O43 2.747767 1_555
Na15 O1 2.877357 1_555
Na15 O59 2.921328 1_545
Na15 O63 2.927057 1_545
Na16 O74 2.499028 1_555
Na16 O116 2.506643 1_555
Na16 O118 2.587490 1_555
Na16 O73 2.598022 1_555
Na16 O2 2.711173 1_555
Na16 O44 2.769285 1_555
Na16 O64 2.867923 1_555
Na16 O54 2.885457 1_555
Na17 O117 2.503594 1_555
Na17 O75 2.503972 1_555
Na17 O119 2.579887 1_555
Na17 O72 2.595441 1_655
Na17 O3 2.714414 1_555
Na17 O45 2.780339 1_555
Na17 O55 2.858898 1_555
Na17 O65 2.866987 1_555
Na18 O86 2.569268 1_555
Na18 O89 2.630954 1_445
Na18 O76 2.649673 1_555
Na18 O72 2.657380 1_545
Na18 O75 2.677478 1_445
Na18 O85 2.729149 1_455
Na19 O87 2.549582 1_555
Na19 O88 2.621525 1_545
Na19 O77 2.638389 1_555
Na19 O73 2.650486 1_545
Na19 O74 2.655344 1_545
Na19 O84 2.720202 1_555
Na20 O94 2.526003 1_555
Na20 O80 2.579951 1_544
Na20 O93 2.671971 1_455
Na20 O78 2.702419 1_554
Na20 O91 2.708879 1_445
Na20 O83 2.812734 1_444
Na21 O95 2.559111 1_556
Na21 O79 2.572678 1_555
Na21 O81 2.594269 1_545
Na21 O92 2.672798 1_556
Na21 O82 2.689773 1_545
Na21 O90 2.816123 1_546
Na22 O100 2.511124 1_555
Na22 O96 2.562023 1_555
Na22 O110 2.580533 1_555
Na22 O108 2.664654 1_555
Na22 O112 2.736810 1_555
Na22 O98 2.796848 1_555
Na23 O101 2.498604 1_555
Na23 O111 2.544258 1_555
Na23 O97 2.587528 1_555
Na23 O113 2.762015 1_555
Na23 O109 2.787333 1_555
Na23 O99 2.810406 1_555
Na24 O102 2.506204 1_555
Na24 O104 2.554589 1_555
Na24 O118 2.590205 1_555
Na24 O116 2.694203 1_555
Na24 O114 2.749113 1_555
Na24 O106 2.771507 1_555
Na25 O103 2.516843 1_555
Na25 O105 2.573806 1_555
Na25 O119 2.613723 1_555
Na25 O117 2.687024 1_555
Na25 O115 2.745824 1_555
Na25 O107 2.763845 1_555
Na26 O120 2.500182 1_555
Na26 O134 2.522921 1_555
Na26 O124 2.556721 1_555
Na26 O136 2.608520 1_555
Na26 O132 2.804304 1_555
Na26 O122 2.807035 1_555
Na27 O135 2.487818 1_555
Na27 O137 2.548518 1_555
Na27 O121 2.566252 1_555
Na27 O125 2.671911 1_555
Na27 O133 2.768487 1_555
Na27 O123 2.824497 1_555
Na28 O142 2.500300 1_555
Na28 O128 2.509942 1_555
Na28 O126 2.602215 1_555
Na28 O140 2.685431 1_555
Na28 O138 2.738540 1_555
Na28 O130 2.822236 1_555
Na29 O129 2.437067 1_555
Na29 O127 2.552757 1_555
Na29 O143 2.565757 1_555
Na29 O141 2.756765 1_555
Na29 O131 2.778329 1_555
Na29 O139 2.807899 1_555
Hf0 O3 1.991812 1_555
Hf0 O5 2.021631 1_565
Hf0 O75 2.026633 1_555
Hf0 O72 2.125679 1_655
Hf0 O76 2.131954 1_665
Hf0 O0 2.204065 1_665
Hf1 O9 1.965078 1_555
Hf1 O11 1.999622 1_565
Hf1 O80 2.086764 1_655
Hf1 O78 2.127242 1_665
Hf1 O6 2.162733 1_665
Hf1 O83 2.204127 1_555
Hf2 O10 2.007971 1_565
Hf2 O82 2.030668 1_555
Hf2 O8 2.042143 1_555
Hf2 O79 2.078712 1_565
Hf2 O81 2.119959 1_555
Hf2 O7 2.205260 1_565
Hf3 O16 1.969003 1_655
Hf3 O13 1.980496 1_555
Hf3 O89 2.004690 1_555
Hf3 O86 2.083697 1_665
Hf3 O14 2.249158 1_665
Hf3 O85 2.288905 1_565
Hf4 O20 1.958045 1_655
Hf4 O19 1.984534 1_545
Hf4 O93 2.016206 1_555
Hf4 O94 2.074255 1_655
Hf4 O22 2.247835 1_645
Hf4 O91 2.296538 1_545
Hf5 O35 1.966784 1_555
Hf5 O103 2.039451 1_555
Hf5 O33 2.058665 1_555
Hf5 O105 2.126076 1_555
Hf5 O31 2.133865 1_555
Hf5 O107 2.199449 1_555
Hf6 O37 1.964952 1_556
Hf6 O41 1.971803 1_556
Hf6 O113 2.019545 1_555
Hf6 O111 2.088663 1_555
Hf6 O39 2.251268 1_556
Hf6 O109 2.310421 1_555
Hf7 O48 1.960588 1_554
Hf7 O52 2.027315 1_554
Hf7 O124 2.064251 1_555
Hf7 O50 2.090229 1_554
Hf7 O120 2.120248 1_555
Hf7 O122 2.352075 1_555
Hf8 O53 2.012960 1_554
Hf8 O51 2.027160 1_554
Hf8 O125 2.041265 1_555
Hf8 O121 2.071370 1_555
Hf8 O49 2.147872 1_554
Hf8 O123 2.201552 1_555
Hf9 O54 1.959630 1_555
Hf9 O128 2.053355 1_555
Hf9 O56 2.058103 1_555
Hf9 O58 2.079620 1_555
Hf9 O126 2.101045 1_555
Hf9 O130 2.327816 1_555
Hf10 O68 1.995251 1_555
Hf10 O66 2.001843 1_555
Hf10 O70 2.039032 1_555
Hf10 O140 2.099603 1_555
Hf10 O142 2.112278 1_555
Hf10 O138 2.310177 1_555
Hf11 O69 1.986070 1_555
Hf11 O67 1.989444 1_555
Hf11 O141 1.994288 1_555
Hf11 O143 2.068603 1_555
Hf11 O139 2.253454 1_555
Hf11 O71 2.274374 1_555
O0 S0 1.490250 1_545
O1 S1 1.486000 1_555
O1 Zr0 2.261607 1_545
O2 Si0 1.653004 1_555
O2 Zr0 2.010479 1_555
O3 Si1 1.654296 1_555
O4 Si3 1.657825 1_555
O4 Zr0 2.046147 1_545
O5 Si2 1.659415 1_555
O6 S2 1.503503 1_555
O7 S3 1.482352 1_555
O8 Si5 1.627586 1_555
O9 Si4 1.644060 1_655
O10 Si6 1.639817 1_545
O11 Si7 1.646345 1_545
O12 Si6 1.638696 1_555
O12 Zr1 1.988803 1_555
O13 Si7 1.630221 1_555
O14 S2 1.476669 1_555
O15 S3 1.470252 1_555
O15 Zr1 2.315309 1_545
O16 Si4 1.659594 1_555
O17 Si5 1.653931 1_555
O17 Zr1 2.011329 1_555
O18 Si0 1.636797 1_555
O18 Zr2 2.016672 1_565
O19 Si1 1.635553 1_555
O20 Si2 1.646204 1_455
O21 Si3 1.647904 1_555
O21 Zr2 1.989029 1_555
O22 S0 1.463827 1_555
O23 S1 1.461306 1_565
O23 Zr2 2.276417 1_565
O24 S4 1.484395 1_555
O24 Zr3 2.166746 1_555
O25 S5 1.481346 1_555
O25 Zr4 2.177730 1_555
O26 Si8 1.638810 1_555
O26 Zr3 2.056943 1_555
O27 Si9 1.638566 1_555
O27 Zr4 2.061908 1_555
O28 Si10 1.629807 1_555
O28 Zr3 2.014867 1_555
O29 Si11 1.628232 1_555
O29 Zr4 2.004704 1_555
O30 S6 1.485102 1_555
O30 Zr5 2.209159 1_555
O31 S7 1.495985 1_555
O32 Si12 1.638645 1_555
O32 Zr5 2.066107 1_555
O33 Si13 1.629506 1_555
O34 Si14 1.636823 1_555
O34 Zr5 1.986043 1_555
O35 Si15 1.633168 1_555
O36 Si14 1.645606 1_555
O36 Zr6 2.024861 1_554
O37 Si15 1.632315 1_555
O38 S6 1.475350 1_555
O38 Zr6 2.325876 1_554
O39 S7 1.475977 1_555
O40 Si12 1.655222 1_555
O40 Zr6 2.035193 1_554
O41 Si13 1.656773 1_555
O42 Si8 1.649646 1_555
O42 Zr7 2.018296 1_555
O43 Si9 1.650710 1_555
O43 Zr8 2.018273 1_555
O44 Si10 1.651822 1_555
O44 Zr7 2.033679 1_555
O45 Si11 1.653280 1_555
O45 Zr8 2.039332 1_555
O46 S4 1.487076 1_555
O46 Zr7 2.271718 1_555
O47 S5 1.484464 1_555
O47 Zr8 2.281648 1_555
O48 Si16 1.636273 1_555
O49 S8 1.486527 1_555
O50 Si17 1.642209 1_555
O51 Si18 1.639169 1_555
O52 Si19 1.615967 1_555
O53 Si20 1.635826 1_555
O54 Si21 1.637556 1_555
O55 Si22 1.638357 1_555
O55 Zr9 1.987480 1_555
O56 Si23 1.624169 1_555
O57 Si24 1.621515 1_555
O57 Zr9 2.080309 1_555
O58 Si25 1.638510 1_555
O59 Si26 1.638253 1_555
O59 Zr9 2.104429 1_555
O60 Si25 1.628237 1_555
O60 Zr10 2.042532 1_555
O61 Si26 1.629279 1_555
O61 Zr11 2.048014 1_555
O62 Si21 1.625157 1_555
O62 Zr10 2.155259 1_555
O63 Si22 1.623709 1_555
O63 Zr11 2.144984 1_555
O64 Si23 1.634409 1_555
O64 Zr10 1.989357 1_555
O65 Si24 1.635010 1_555
O65 Zr11 1.990144 1_555
O66 Si17 1.625604 1_555
O67 Si18 1.639379 1_555
O68 Si19 1.638816 1_555
O69 Si20 1.656576 1_555
O70 Si16 1.621213 1_555
O71 S8 1.473621 1_555
O72 Si25 1.649694 1_555
O73 Si26 1.646791 1_555
O73 Zr0 2.144437 1_555
O74 Si21 1.651545 1_555
O74 Zr0 2.065038 1_555
O75 Si22 1.648030 1_555
O76 Si23 1.636094 1_555
O77 Si24 1.632689 1_555
O77 Zr0 2.154776 1_545
O78 Si17 1.678252 1_555
O79 Si18 1.633061 1_555
O80 Si19 1.645085 1_555
O81 Si20 1.620587 1_555
O82 Si16 1.644638 1_555
O83 S8 1.509393 1_555
O84 S4 1.468111 1_555
O84 Zr1 2.304571 1_545
O85 S5 1.478469 1_555
O86 Si8 1.647134 1_555
O87 Si9 1.644751 1_555
O87 Zr1 2.117894 1_545
O88 Si10 1.658597 1_555
O88 Zr1 2.035613 1_555
O89 Si11 1.657027 1_555
O90 S6 1.461438 1_555
O90 Zr2 2.318471 1_565
O91 S7 1.475642 1_555
O92 Si12 1.664941 1_555
O92 Zr2 2.034351 1_555
O93 Si13 1.660479 1_555
O94 Si14 1.647661 1_555
O95 Si15 1.648521 1_555
O95 Zr2 2.110494 1_555
O96 Si6 1.657053 1_545
O96 Zr3 2.108594 1_555
O97 Si7 1.651444 1_545
O97 Zr4 2.121968 1_555
O98 S2 1.494849 1_555
O98 Zr3 2.260707 1_555
O99 S3 1.502958 1_555
O99 Zr4 2.248010 1_555
O100 Si5 1.624573 1_555
O100 Zr3 2.096938 1_555
O101 Si4 1.630209 1_655
O101 Zr4 2.080877 1_555
O102 Si0 1.629314 1_555
O102 Zr5 2.064279 1_555
O103 Si1 1.632292 1_555
O104 Si3 1.641141 1_555
O104 Zr5 2.152476 1_555
O105 Si2 1.645108 1_555
O106 S0 1.498759 1_545
O106 Zr5 2.235885 1_555
O107 S1 1.504059 1_555
O108 Si16 1.637399 1_555
O108 Zr6 2.142440 1_555
O109 S8 1.465786 1_555
O110 Si18 1.655358 1_555
O110 Zr6 2.156349 1_555
O111 Si17 1.647013 1_655
O112 Si19 1.671375 1_545
O112 Zr6 2.041313 1_555
O113 Si20 1.648178 1_545
O114 Si21 1.635855 1_545
O114 Zr7 2.136259 1_555
O115 Si22 1.635016 1_545
O115 Zr8 2.142482 1_555
O116 Si23 1.649097 1_555
O116 Zr7 2.050631 1_555
O117 Si24 1.649255 1_555
O117 Zr8 2.051370 1_555
O118 Si26 1.644536 1_555
O118 Zr7 2.158714 1_555
O119 Si25 1.644508 1_655
O119 Zr8 2.149273 1_555
O120 Si14 1.643961 1_555
O121 Si15 1.656352 1_555
O122 S7 1.488093 1_455
O123 S6 1.508712 1_555
O124 Si12 1.621104 1_565
O125 Si13 1.628424 1_565
O126 Si8 1.651754 1_565
O127 Si9 1.650763 1_565
O127 Zr9 2.131170 1_555
O128 Si10 1.620582 1_555
O129 Si11 1.618726 1_555
O129 Zr9 2.084250 1_555
O130 S5 1.485153 1_455
O131 S4 1.485311 1_555
O131 Zr9 2.363058 1_555
O132 S0 1.481055 1_555
O132 Zr10 2.367928 1_555
O133 S1 1.481593 1_565
O133 Zr11 2.363335 1_555
O134 Si0 1.642141 1_555
O134 Zr10 2.130150 1_555
O135 Si1 1.647567 1_555
O135 Zr11 2.132351 1_555
O136 Si2 1.626065 1_455
O136 Zr10 2.069984 1_555
O137 Si3 1.625217 1_555
O137 Zr11 2.072856 1_555
O138 S2 1.459454 1_555
O139 S3 1.475531 1_555
O140 Si4 1.635792 1_555
O141 Si5 1.662460 1_555
O142 Si6 1.640952 1_555
O143 Si7 1.649172 1_555
