# generated using pymatgen
data_Na4HfZn3SiS5O24
_symmetry_space_group_name_H-M   'P 1'
_cell_length_a   8.90193761
_cell_length_b   8.90631556
_cell_length_c   22.64418181
_cell_angle_alpha   89.96948087
_cell_angle_beta   90.66385048
_cell_angle_gamma   120.01045051
_symmetry_Int_Tables_number   1
_chemical_formula_structural   Na4HfZn3SiS5O24
_chemical_formula_sum   'Na12 Hf3 Zn9 Si3 S15 O72'
_cell_volume   1554.48657062
_cell_formula_units_Z   3
loop_
 _symmetry_equiv_pos_site_id
 _symmetry_equiv_pos_as_xyz
  1  'x, y, z'
loop_
 _atom_site_type_symbol
 _atom_site_label
 _atom_site_symmetry_multiplicity
 _atom_site_fract_x
 _atom_site_fract_y
 _atom_site_fract_z
 _atom_site_occupancy
  Na  Na0  1  0.36379913  0.36425973  0.24932409  1
  Na  Na1  1  0.31217824  0.34299131  0.58827235  1
  Na  Na2  1  0.02728406  0.70006830  0.58249177  1
  Na  Na3  1  0.98899668  0.67914548  0.91695416  1
  Na  Na4  1  0.70063077  0.02937948  0.91072312  1
  Na  Na5  1  0.30797322  0.28686962  0.91832375  1
  Na  Na6  1  0.97411328  0.98598722  0.49818286  1
  Na  Na7  1  0.01526379  0.01267130  0.00281448  1
  Na  Na8  1  0.66644502  0.32389393  0.82467607  1
  Na  Na9  1  0.68043104  0.32895461  0.32740120  1
  Na  Na10  1  0.33156890  0.67819755  0.16498805  1
  Na  Na11  1  0.36356769  0.67905924  0.66163808  1
  Hf  Hf0  1  0.66700816  0.32594691  0.98469299  1
  Hf  Hf1  1  0.67026350  0.34320200  0.48025789  1
  Hf  Hf2  1  0.32516477  0.66941693  0.81466514  1
  Zn  Zn0  1  0.99505525  0.99620773  0.34662343  1
  Zn  Zn1  1  0.01251783  0.01496894  0.84851733  1
  Zn  Zn2  1  0.97288913  0.98392436  0.65018457  1
  Zn  Zn3  1  0.99571348  0.99494144  0.15251461  1
  Zn  Zn4  1  0.66173806  0.34191346  0.68145624  1
  Zn  Zn5  1  0.67496696  0.33295068  0.18292563  1
  Zn  Zn6  1  0.30768421  0.65840184  0.01525030  1
  Zn  Zn7  1  0.35976703  0.67708406  0.51348411  1
  Zn  Zn8  1  0.33320342  0.67793428  0.31730731  1
  Si  Si0  1  0.66476269  0.63401630  0.58566470  1
  Si  Si1  1  0.04029960  0.36972597  0.91870647  1
  Si  Si2  1  0.33006483  0.95966038  0.91842981  1
  S  S0  1  0.29351073  0.99951464  0.24996569  1
  S  S1  1  0.70313147  0.70334928  0.24998510  1
  S  S2  1  0.00039864  0.29444227  0.25032809  1
  S  S3  1  0.29840995  0.29543075  0.74853580  1
  S  S4  1  0.99612541  0.70352340  0.74987024  1
  S  S5  1  0.70342164  0.00286703  0.75043747  1
  S  S6  1  0.95897801  0.33252568  0.58441846  1
  S  S7  1  0.37725588  0.04035243  0.58394449  1
  S  S8  1  0.96209132  0.63305014  0.08646982  1
  S  S9  1  0.66723078  0.03175411  0.08629625  1
  S  S10  1  0.36975199  0.33567580  0.08624835  1
  S  S11  1  0.62400708  0.66572355  0.91837955  1
  S  S12  1  0.63268118  0.96308410  0.41509929  1
  S  S13  1  0.32591544  0.36551600  0.41524821  1
  S  S14  1  0.04454264  0.67015819  0.41759835  1
  O  O0  1  0.21422382  0.02971347  0.30288854  1
  O  O1  1  0.80780565  0.78294015  0.30410961  1
  O  O2  1  0.97592820  0.19082703  0.30415951  1
  O  O3  1  0.21650391  0.19927297  0.80339077  1
  O  O4  1  0.98043167  0.78651649  0.80416871  1
  O  O5  1  0.79993501  0.01950899  0.80646721  1
  O  O6  1  0.78564094  0.97931383  0.69834517  1
  O  O7  1  0.19268663  0.21442430  0.69457283  1
  O  O8  1  0.02102516  0.80606947  0.69587783  1
  O  O9  1  0.78250000  0.80692411  0.19656619  1
  O  O10  1  0.02952917  0.21418912  0.19729627  1
  O  O11  1  0.18914048  0.97505278  0.19569205  1
  O  O12  1  0.87693929  0.35347400  0.63728205  1
  O  O13  1  0.48266405  0.11208438  0.63766132  1
  O  O14  1  0.62166890  0.50516842  0.64084885  1
  O  O15  1  0.87015292  0.52376231  0.13701326  1
  O  O16  1  0.64634874  0.12224533  0.13680142  1
  O  O17  1  0.47393982  0.35006458  0.13985122  1
  O  O18  1  0.46251200  0.31831145  0.03176234  1
  O  O19  1  0.85896517  0.54607430  0.02970809  1
  O  O20  1  0.68618324  0.14022048  0.02994995  1
  O  O21  1  0.46918514  0.15029307  0.53098585  1
  O  O22  1  0.69503077  0.53220275  0.52796548  1
  O  O23  1  0.84735045  0.30515160  0.53035449  1
  O  O24  1  0.55112779  0.69931011  0.97067455  1
  O  O25  1  0.17184909  0.44200562  0.97407718  1
  O  O26  1  0.29720855  0.84268277  0.97548249  1
  O  O27  1  0.55501323  0.86333151  0.46929205  1
  O  O28  1  0.30680115  0.44655641  0.46965827  1
  O  O29  1  0.14168105  0.68730454  0.47340054  1
  O  O30  1  0.12325220  0.64142885  0.36533094  1
  O  O31  1  0.52424090  0.88552812  0.36184033  1
  O  O32  1  0.35749782  0.47230360  0.36179287  1
  O  O33  1  0.12985293  0.49996004  0.86119870  1
  O  O34  1  0.38171917  0.87756417  0.86125248  1
  O  O35  1  0.51012330  0.62945746  0.86437438  1
  O  O36  1  0.01811438  0.82079623  0.41206705  1
  O  O37  1  0.80820305  0.98451420  0.41010665  1
  O  O38  1  0.17440452  0.18955228  0.40977163  1
  O  O39  1  0.99576791  0.17132221  0.90895172  1
  O  O40  1  0.15996321  0.97950457  0.90861243  1
  O  O41  1  0.79901395  0.81212527  0.90842537  1
  O  O42  1  0.98887081  0.18272582  0.58702195  1
  O  O43  1  0.20892181  0.03961866  0.58621773  1
  O  O44  1  0.84918485  0.81796521  0.58653301  1
  O  O45  1  0.97285218  0.80447870  0.08808101  1
  O  O46  1  0.83059355  0.02600680  0.08840726  1
  O  O47  1  0.19826413  0.17527186  0.08662858  1
  O  O48  1  0.68154107  0.15671745  0.74514871  1
  O  O49  1  0.47199593  0.31133484  0.74657658  1
  O  O50  1  0.84642325  0.52540231  0.74628616  1
  O  O51  1  0.67923805  0.52358774  0.24533182  1
  O  O52  1  0.84500984  0.31567776  0.24402368  1
  O  O53  1  0.46884677  0.16159200  0.24525579  1
  O  O54  1  0.63692598  0.50356721  0.92431556  1
  O  O55  1  0.85272876  0.36749535  0.92552575  1
  O  O56  1  0.50234535  0.15825862  0.92396905  1
  O  O57  1  0.64989771  0.14040416  0.42198756  1
  O  O58  1  0.48782360  0.34720328  0.42243148  1
  O  O59  1  0.86507527  0.50552742  0.42179292  1
  O  O60  1  0.35956217  0.49470838  0.08113131  1
  O  O61  1  0.13397424  0.64722875  0.08327582  1
  O  O62  1  0.51333163  0.85979483  0.07924472  1
  O  O63  1  0.33923935  0.85948971  0.57574784  1
  O  O64  1  0.48694446  0.64287091  0.57705972  1
  O  O65  1  0.12857604  0.49493454  0.57718073  1
  O  O66  1  0.31430022  0.84416052  0.25579666  1
  O  O67  1  0.52340485  0.67916473  0.25473201  1
  O  O68  1  0.16257808  0.46951151  0.25613188  1
  O  O69  1  0.31909066  0.47489977  0.75373978  1
  O  O70  1  0.16095588  0.69041904  0.75391867  1
  O  O71  1  0.52720824  0.83945534  0.75384892  1
loop_
_geom_bond_atom_site_label_1
_geom_bond_atom_site_label_2
_geom_bond_distance
_geom_bond_site_symmetry_2
Na0 O68 2.407761 1_555
Na0 O53 2.414889 1_555
Na0 O67 2.431035 1_555
Na0 O51 2.434462 1_555
Na0 O17 2.702408 1_555
Na0 O32 2.734051 1_555
Na0 O10 2.823281 1_555
Na0 O0 2.861285 1_555
Na1 O64 2.338826 1_555
Na1 O43 2.379557 1_555
Na1 O42 2.492033 1_455
Na1 O65 2.601595 1_555
Na1 O14 2.653158 1_555
Na1 O7 2.659832 1_555
Na1 O28 2.847067 1_555
Na2 O44 2.300705 1_455
Na2 O65 2.411648 1_555
Na2 O63 2.411738 1_555
Na2 O43 2.621595 1_565
Na2 O29 2.706779 1_555
Na2 O8 2.746842 1_555
Na2 O22 2.828725 1_455
Na2 O12 2.959907 1_455
Na3 O40 2.332725 1_655
Na3 O55 2.418725 1_555
Na3 O41 2.509191 1_555
Na3 O26 2.706666 1_655
Na3 O54 2.721225 1_555
Na3 O4 2.740198 1_555
Na3 O33 2.784532 1_655
Na3 O19 2.820710 1_556
Na4 O39 2.276487 1_555
Na4 O41 2.491992 1_545
Na4 O5 2.547318 1_555
Na4 O56 2.561741 1_555
Na4 O55 2.631709 1_555
Na4 O34 2.689013 1_545
Na4 O24 2.894827 1_545
Na4 O20 2.901353 1_556
Na5 O40 2.379948 1_545
Na5 O39 2.440035 1_455
Na5 O56 2.509900 1_555
Na5 O54 2.579915 1_555
Na5 O25 2.585239 1_555
Na5 O3 2.713412 1_555
Na5 O18 2.846545 1_556
Na5 O35 2.931727 1_555
Na6 O44 2.421209 1_555
Na6 O37 2.464051 1_555
Na6 O36 2.591869 1_655
Na6 O42 2.627124 1_565
Na6 O38 2.705421 1_665
Na6 O43 2.734406 1_665
Na7 O47 2.434018 1_555
Na7 O45 2.573220 1_445
Na7 O40 2.596472 1_544
Na7 O46 2.596635 1_455
Na7 O39 2.603411 1_454
Na7 O41 2.816670 1_444
Na8 O48 2.384654 1_555
Na8 O49 2.423214 1_555
Na8 O50 2.474863 1_555
Na8 O56 2.698596 1_555
Na8 O55 2.717506 1_555
Na8 O54 2.856341 1_555
Na9 O52 2.441853 1_555
Na9 O53 2.518498 1_555
Na9 O51 2.544241 1_555
Na9 O57 2.652245 1_555
Na9 O59 2.660803 1_555
Na9 O58 2.821599 1_555
Na10 O61 2.456323 1_555
Na10 O62 2.540737 1_555
Na10 O66 2.583532 1_555
Na10 O60 2.600016 1_555
Na10 O67 2.636473 1_555
Na10 O68 2.692228 1_555
Na11 O64 2.319837 1_555
Na11 O71 2.524622 1_555
Na11 O63 2.597497 1_555
Na11 O69 2.665997 1_555
Na11 O65 2.683620 1_555
Na11 O70 2.810685 1_555
Hf0 O56 2.008850 1_555
Hf0 O20 2.022900 1_556
Hf0 O55 2.025861 1_555
Hf0 O18 2.091794 1_556
Hf0 O19 2.100770 1_556
Hf0 O54 2.203737 1_555
Hf1 O22 1.916854 1_555
Hf1 O58 2.088551 1_555
Hf1 O23 2.092688 1_555
Hf1 O59 2.096057 1_555
Hf1 O21 2.108228 1_555
Hf1 O57 2.169248 1_555
Hf2 O33 1.956250 1_555
Hf2 O34 1.964482 1_555
Hf2 O70 2.071371 1_555
Hf2 O35 2.155783 1_555
Hf2 O71 2.180677 1_555
Hf2 O69 2.194234 1_555
O0 S0 1.488788 1_545
O0 Zn0 2.082879 1_445
O1 S1 1.478710 1_555
O1 Zn0 2.027496 1_555
O2 S2 1.479466 1_655
O2 Zn0 2.060999 1_545
O3 S3 1.484323 1_555
O3 Zn1 2.023751 1_555
O4 S4 1.478480 1_555
O4 Zn1 2.155028 1_665
O5 S5 1.489093 1_555
O5 Zn1 2.127022 1_655
O6 S5 1.464574 1_565
O6 Zn2 1.985716 1_555
O7 S3 1.481382 1_555
O7 Zn2 2.234209 1_445
O8 S4 1.476697 1_455
O8 Zn2 2.104829 1_455
O9 S1 1.476480 1_555
O9 Zn3 2.065033 1_555
O10 S2 1.487863 1_555
O10 Zn3 2.083012 1_445
O11 S0 1.480685 1_555
O11 Zn3 2.053793 1_455
O12 S6 1.468973 1_555
O12 Zn4 2.127934 1_555
O13 S7 1.463868 1_555
O13 Zn4 2.101438 1_555
O14 Si0 1.610830 1_555
O14 Zn4 1.896480 1_555
O15 S8 1.466561 1_555
O15 Zn5 2.018459 1_555
O16 S9 1.465539 1_555
O16 Zn5 2.048198 1_555
O17 S10 1.484961 1_555
O17 Zn5 2.099827 1_555
O18 S10 1.542584 1_555
O19 S8 1.535331 1_555
O20 S9 1.558939 1_555
O21 S7 1.512115 1_555
O22 Si0 1.689899 1_555
O23 S6 1.508449 1_555
O24 S11 1.457725 1_555
O24 Zn6 2.260194 1_556
O25 Si1 1.603301 1_555
O25 Zn6 1.921050 1_556
O26 Si2 1.594527 1_555
O26 Zn6 1.913882 1_556
O27 S12 1.475561 1_555
O27 Zn7 1.982012 1_555
O28 S13 1.482081 1_555
O28 Zn7 2.108451 1_555
O29 S14 1.486784 1_555
O29 Zn7 2.176459 1_555
O30 S14 1.468360 1_555
O30 Zn8 2.054312 1_555
O31 S12 1.473207 1_555
O31 Zn8 2.035776 1_555
O32 S13 1.479183 1_555
O32 Zn8 2.191976 1_555
O33 Si1 1.665579 1_555
O34 Si2 1.665386 1_555
O35 S11 1.507223 1_555
O36 S14 1.478472 1_555
O36 Zn0 2.233871 1_455
O37 S12 1.482000 1_555
O37 Zn0 2.173939 1_555
O38 S13 1.473938 1_555
O38 Zn0 2.181413 1_445
O39 Si1 1.620515 1_655
O39 Zn1 2.012112 1_655
O40 Si2 1.622784 1_555
O40 Zn1 2.011766 1_565
O41 S11 1.467601 1_555
O41 Zn1 2.310577 1_665
O42 S6 1.486262 1_555
O42 Zn2 2.225067 1_545
O43 S7 1.496724 1_555
O43 Zn2 2.405442 1_445
O44 Si0 1.639655 1_555
O44 Zn2 1.952471 1_555
O45 S8 1.481652 1_555
O45 Zn3 2.167525 1_555
O46 S9 1.480737 1_555
O46 Zn3 2.168265 1_545
O47 S10 1.479916 1_555
O47 Zn3 2.284615 1_445
O48 S5 1.481926 1_555
O48 Zn4 2.261460 1_555
O49 S3 1.480698 1_555
O49 Zn4 2.167650 1_555
O50 S4 1.477176 1_555
O50 Zn4 2.188080 1_555
O51 S1 1.509505 1_555
O51 Zn5 2.194975 1_555
O52 S2 1.492199 1_655
O52 Zn5 2.100783 1_555
O53 S0 1.510363 1_545
O53 Zn5 2.223634 1_555
O54 S11 1.510837 1_555
O55 Si1 1.668854 1_655
O56 Si2 1.666914 1_545
O57 S12 1.516410 1_545
O58 S13 1.536256 1_555
O59 S14 1.539935 1_655
O60 S10 1.468308 1_555
O60 Zn6 2.284624 1_555
O61 S8 1.473645 1_455
O61 Zn6 2.162175 1_555
O62 S9 1.464344 1_565
O62 Zn6 2.307623 1_555
O63 S7 1.482321 1_565
O63 Zn7 2.228411 1_555
O64 Si0 1.633264 1_555
O64 Zn7 1.937500 1_555
O65 S6 1.489785 1_455
O65 Zn7 2.382070 1_555
O66 S0 1.490472 1_555
O66 Zn8 2.098027 1_555
O67 S1 1.508945 1_555
O67 Zn8 2.216241 1_555
O68 S2 1.508904 1_555
O68 Zn8 2.192118 1_555
O69 S3 1.519219 1_555
O70 S4 1.530753 1_455
O71 S5 1.517812 1_565
