# generated using pymatgen
data_BiSbO4
_symmetry_space_group_name_H-M   'P 1'
_cell_length_a   4.91983925
_cell_length_b   5.49144798
_cell_length_c   6.49561198
_cell_angle_alpha   104.15499391
_cell_angle_beta   112.25347074
_cell_angle_gamma   89.99999483
_symmetry_Int_Tables_number   1
_chemical_formula_structural   BiSbO4
_chemical_formula_sum   'Bi2 Sb2 O8'
_cell_volume   156.64881274
_cell_formula_units_Z   2
loop_
 _symmetry_equiv_pos_site_id
 _symmetry_equiv_pos_as_xyz
  1  'x, y, z'
loop_
 _atom_site_type_symbol
 _atom_site_label
 _atom_site_symmetry_multiplicity
 _atom_site_fract_x
 _atom_site_fract_y
 _atom_site_fract_z
 _atom_site_occupancy
  Bi  Bi0  1  0.75848714  0.25000000  0.50000000  1
  Bi  Bi1  1  0.24151286  0.75000000  0.50000000  1
  Sb  Sb0  1  -0.00000000  0.00000000  -0.00000000  1
  Sb  Sb1  1  0.50000000  0.50000000  -0.00000000  1
  O  O0  1  0.81080192  0.53790753  0.30772523  1
  O  O1  1  0.00307568  0.96209247  0.69227477  1
  O  O2  1  0.18919808  0.46209247  0.69227477  1
  O  O3  1  0.99692432  0.03790753  0.30772523  1
  O  O4  1  0.35580893  0.82067700  0.12599627  1
  O  O5  1  0.72981266  0.67932300  0.87400373  1
  O  O6  1  0.64419107  0.17932300  0.87400373  1
  O  O7  1  0.27018734  0.32067700  0.12599627  1
loop_
_geom_bond_atom_site_label_1
_geom_bond_atom_site_label_2
_geom_bond_distance
_geom_bond_site_symmetry_2
Bi0 O2 2.165799 1_655
Bi0 O3 2.165802 1_555
Bi0 O1 2.309759 1_645
Bi0 O0 2.309761 1_555
Bi1 O0 2.165799 1_455
Bi1 O1 2.165802 1_555
Bi1 O3 2.309759 1_465
Bi1 O2 2.309761 1_555
O0 Sb1 1.964288 1_555
O1 Sb0 1.964286 1_566
O2 Sb1 1.964288 1_556
O3 Sb0 1.964286 1_655
O4 Sb1 2.002240 1_555
O4 Sb0 2.003229 1_565
O5 Sb0 2.002240 1_666
O5 Sb1 2.003229 1_556
O6 Sb1 2.002240 1_556
O6 Sb0 2.003229 1_656
O7 Sb0 2.002240 1_555
O7 Sb1 2.003229 1_555
