# generated using pymatgen
data_Pu(SiNi)2
_symmetry_space_group_name_H-M   'P 1'
_cell_length_a   3.94418616
_cell_length_b   3.94418626
_cell_length_c   5.55599063
_cell_angle_alpha   110.79030754
_cell_angle_beta   110.79031516
_cell_angle_gamma   90.00000264
_symmetry_Int_Tables_number   1
_chemical_formula_structural   Pu(SiNi)2
_chemical_formula_sum   'Pu1 Si2 Ni2'
_cell_volume   74.75386927
_cell_formula_units_Z   1
loop_
 _symmetry_equiv_pos_site_id
 _symmetry_equiv_pos_as_xyz
  1  'x, y, z'
loop_
 _atom_site_type_symbol
 _atom_site_label
 _atom_site_symmetry_multiplicity
 _atom_site_fract_x
 _atom_site_fract_y
 _atom_site_fract_z
 _atom_site_occupancy
  Pu  Pu0  1  0.00000000  0.00000000  0.00000000  1
  Si  Si0  1  0.62704675  0.62704675  0.25409250  1
  Si  Si1  1  0.37295325  0.37295325  0.74590750  1
  Ni  Ni0  1  0.75000000  0.25000000  0.50000000  1
  Ni  Ni1  1  0.25000000  0.75000000  0.50000000  1
loop_
_geom_bond_atom_site_label_1
_geom_bond_atom_site_label_2
_geom_bond_distance
_geom_bond_site_symmetry_2
Pu0 Si1 3.044518 1_554
Pu0 Si0 3.044518 1_445
Pu0 Si1 3.044521 1_454
Pu0 Si0 3.044521 1_545
Pu0 Si1 3.044521 1_544
Pu0 Si0 3.044521 1_455
Pu0 Si1 3.044524 1_444
Pu0 Si0 3.044524 1_555
Si0 Si1 2.441972 1_554
Ni0 Si1 2.299011 1_655
Ni0 Si0 2.299011 1_545
Ni0 Si0 2.299014 1_555
Ni0 Si1 2.299014 1_555
Ni0 Ni1 2.788961 1_655
Ni0 Ni1 2.788961 1_545
Ni0 Ni1 2.788961 1_645
Ni0 Ni1 2.788961 1_555
Ni0 Pu0 3.108349 1_656
Ni0 Pu0 3.108349 1_555
Ni0 Pu0 3.108349 1_655
Ni0 Pu0 3.108349 1_666
Ni1 Si0 2.299011 1_455
Ni1 Si1 2.299011 1_565
Ni1 Si1 2.299014 1_555
Ni1 Si0 2.299014 1_555
Ni1 Pu0 3.108349 1_565
Ni1 Pu0 3.108349 1_666
Ni1 Pu0 3.108349 1_566
Ni1 Pu0 3.108349 1_555
