# generated using pymatgen
data_Ba2TbMgBiO6
_symmetry_space_group_name_H-M   'P 1'
_cell_length_a   6.28600212
_cell_length_b   6.44252279
_cell_length_c   6.68686280
_cell_angle_alpha   57.12553307
_cell_angle_beta   61.96396609
_cell_angle_gamma   60.80042371
_symmetry_Int_Tables_number   1
_chemical_formula_structural   Ba2TbMgBiO6
_chemical_formula_sum   'Ba2 Tb1 Mg1 Bi1 O6'
_cell_volume   190.59862569
_cell_formula_units_Z   1
loop_
 _symmetry_equiv_pos_site_id
 _symmetry_equiv_pos_as_xyz
  1  'x, y, z'
loop_
 _atom_site_type_symbol
 _atom_site_label
 _atom_site_symmetry_multiplicity
 _atom_site_fract_x
 _atom_site_fract_y
 _atom_site_fract_z
 _atom_site_occupancy
  Ba  Ba0  1  0.79846900  0.21962100  0.18343900  1
  Ba  Ba1  1  0.20153000  0.78037900  0.81656100  1
  Tb  Tb0  1  0.00000000  0.50000000  0.50000000  1
  Mg  Mg0  1  0.50000000  0.50000000  0.50000000  1
  Bi  Bi0  1  0.50000000  0.00000000  0.00000000  1
  O  O0  1  0.67191500  0.34454400  0.76844700  1
  O  O1  1  0.78490400  0.65545600  0.23155400  1
  O  O2  1  0.21509600  0.34454400  0.76844600  1
  O  O3  1  0.75050700  0.85782900  0.64115700  1
  O  O4  1  0.24949300  0.14217100  0.35884300  1
  O  O5  1  0.32808500  0.65545600  0.23155300  1
loop_
_geom_bond_atom_site_label_1
_geom_bond_atom_site_label_2
_geom_bond_distance
_geom_bond_site_symmetry_2
Ba0 O3 2.639154 1_545
Ba0 O0 2.829693 1_554
Ba0 O2 2.829710 1_654
Ba0 O5 2.952331 1_555
Ba0 O1 2.952337 1_555
Ba0 O4 3.282219 1_555
Ba0 O4 3.282231 1_655
Ba1 O4 2.639154 1_565
Ba1 O5 2.829697 1_556
Ba1 O1 2.829706 1_456
Ba1 O2 2.952334 1_555
Ba1 O0 2.952334 1_555
Ba1 O3 3.282225 1_555
Ba1 O3 3.282225 1_455
Mg0 O2 2.051573 1_555
Mg0 O1 2.051573 1_555
Mg0 O0 2.051584 1_555
Mg0 O5 2.051584 1_555
Bi0 O2 2.351347 1_554
Bi0 O1 2.351347 1_545
Bi0 O5 2.351352 1_545
Bi0 O0 2.351352 1_554
Bi0 O4 2.550103 1_555
Bi0 O3 2.550103 1_544
O0 Tb0 2.249906 1_655
O1 Tb0 2.249911 1_655
O2 Tb0 2.249911 1_555
O3 Tb0 2.471455 1_655
O4 Tb0 2.471455 1_555
O5 Tb0 2.249906 1_555
