# generated using pymatgen
data_Na10Ta2Ga6Si7S5O48
_symmetry_space_group_name_H-M   'P 1'
_cell_length_a   17.76506055
_cell_length_b   8.82434877
_cell_length_c   22.22900717
_cell_angle_alpha   90.09401152
_cell_angle_beta   90.17245849
_cell_angle_gamma   119.83317229
_symmetry_Int_Tables_number   1
_chemical_formula_structural   Na10Ta2Ga6Si7S5O48
_chemical_formula_sum   'Na30 Ta6 Ga18 Si21 S15 O144'
_cell_volume   3022.89367048
_cell_formula_units_Z   3
loop_
 _symmetry_equiv_pos_site_id
 _symmetry_equiv_pos_as_xyz
  1  'x, y, z'
loop_
 _atom_site_type_symbol
 _atom_site_label
 _atom_site_symmetry_multiplicity
 _atom_site_fract_x
 _atom_site_fract_y
 _atom_site_fract_z
 _atom_site_occupancy
  Na  Na0  1  0.31803785  0.00215163  0.24688582  1
  Na  Na1  1  0.81534232  0.00505161  0.24839880  1
  Na  Na2  1  0.18595526  0.36567445  0.24680190  1
  Na  Na3  1  0.31554626  0.62550371  0.74885674  1
  Na  Na4  1  0.81762281  0.63318262  0.74681455  1
  Na  Na5  1  0.68498062  0.00527744  0.74709945  1
  Na  Na6  1  0.15764364  0.33748398  0.58336711  1
  Na  Na7  1  0.65423689  0.33583611  0.57978964  1
  Na  Na8  1  0.01774237  0.69837881  0.57643243  1
  Na  Na9  1  0.15549481  0.97507316  0.08148170  1
  Na  Na10  1  0.65702133  0.97692218  0.08326838  1
  Na  Na11  1  0.51707186  0.33595758  0.07587710  1
  Na  Na12  1  0.85132123  0.02979583  0.91950337  1
  Na  Na13  1  0.66547715  0.30658017  0.91855497  1
  Na  Na14  1  0.48443974  0.29625316  0.41903743  1
  Na  Na15  1  0.16695268  0.02623788  0.41906947  1
  Na  Na16  1  0.66663497  0.04591901  0.41599750  1
  Na  Na17  1  0.84912414  0.65999377  0.41649182  1
  Na  Na18  1  0.99755293  0.99695418  0.49725135  1
  Na  Na19  1  0.49053027  0.98359598  0.49564901  1
  Na  Na20  1  0.99855037  0.99870959  0.99584329  1
  Na  Na21  1  0.49129974  0.99742373  0.99514983  1
  Na  Na22  1  0.33396769  0.32970253  0.83310896  1
  Na  Na23  1  0.83953684  0.34060190  0.83234459  1
  Na  Na24  1  0.33588480  0.34724330  0.33261965  1
  Na  Na25  1  0.83517223  0.33928353  0.33142513  1
  Na  Na26  1  0.16627350  0.65619027  0.16201585  1
  Na  Na27  1  0.67232093  0.66777408  0.16512480  1
  Na  Na28  1  0.17305109  0.67746043  0.66522753  1
  Na  Na29  1  0.66616909  0.67605503  0.66194109  1
  Ta  Ta0  1  0.00003605  0.00533306  0.64832175  1
  Ta  Ta1  1  0.50286670  0.98837451  0.64309672  1
  Ta  Ta2  1  0.00332973  0.01737699  0.14267881  1
  Ta  Ta3  1  0.49905941  0.99325313  0.14792360  1
  Ta  Ta4  1  0.16366116  0.67425627  0.31201272  1
  Ta  Ta5  1  0.66191313  0.64891643  0.81241067  1
  Ga  Ga0  1  0.00411455  0.00200925  0.34774867  1
  Ga  Ga1  1  0.49971977  0.99364130  0.35283158  1
  Ga  Ga2  1  0.99904238  0.00643102  0.84966244  1
  Ga  Ga3  1  0.49912092  0.00671155  0.84843907  1
  Ga  Ga4  1  0.32214533  0.33765160  0.68663935  1
  Ga  Ga5  1  0.82081680  0.31335853  0.68362227  1
  Ga  Ga6  1  0.32122621  0.32724146  0.18356705  1
  Ga  Ga7  1  0.82188599  0.30683430  0.18659699  1
  Ga  Ga8  1  0.33218212  0.31418437  0.98074369  1
  Ga  Ga9  1  0.83114313  0.34053073  0.98782783  1
  Ga  Ga10  1  0.32746907  0.32568535  0.48699808  1
  Ga  Ga11  1  0.82917473  0.35032749  0.47985217  1
  Ga  Ga12  1  0.17570761  0.66744444  0.02060145  1
  Ga  Ga13  1  0.68145682  0.65355383  0.01827920  1
  Ga  Ga14  1  0.18132997  0.70644576  0.51951634  1
  Ga  Ga15  1  0.67165315  0.66689872  0.52114739  1
  Ga  Ga16  1  0.66367895  0.66512383  0.31570219  1
  Ga  Ga17  1  0.16418218  0.65426205  0.81699564  1
  Si  Si0  1  0.14455944  0.00195659  0.24966931  1
  Si  Si1  1  0.64503804  0.99410399  0.25557331  1
  Si  Si2  1  0.35830313  0.70234014  0.25290806  1
  Si  Si3  1  0.99509913  0.28998680  0.25337562  1
  Si  Si4  1  0.14517355  0.29300434  0.75575385  1
  Si  Si5  1  0.64371464  0.28446411  0.75020256  1
  Si  Si6  1  0.49506069  0.70090201  0.75392306  1
  Si  Si7  1  0.85662132  0.01329251  0.75274421  1
  Si  Si8  1  0.19244942  0.04330583  0.58526534  1
  Si  Si9  1  0.69212363  0.03610401  0.57905946  1
  Si  Si10  1  0.32980500  0.61909408  0.58004832  1
  Si  Si11  1  0.83263739  0.62228611  0.58496360  1
  Si  Si12  1  0.33211139  0.04341022  0.08393644  1
  Si  Si13  1  0.82988860  0.03986710  0.07918717  1
  Si  Si14  1  0.19361685  0.34495856  0.07900379  1
  Si  Si15  1  0.69251635  0.34063479  0.08528939  1
  Si  Si16  1  0.82180839  0.66943071  0.91646326  1
  Si  Si17  1  0.51413868  0.36885783  0.92057413  1
  Si  Si18  1  0.31809873  0.96705038  0.41711935  1
  Si  Si19  1  0.66485791  0.38079243  0.41561118  1
  Si  Si20  1  0.01785718  0.66123645  0.42027172  1
  S  S0  1  0.85533813  0.70634809  0.25016731  1
  S  S1  1  0.50201756  0.29735151  0.25033574  1
  S  S2  1  0.00294936  0.70911468  0.75146853  1
  S  S3  1  0.35428830  0.00312988  0.75067601  1
  S  S4  1  0.47690717  0.33530800  0.58445969  1
  S  S5  1  0.97519126  0.33180947  0.58283076  1
  S  S6  1  0.47556087  0.61889907  0.08283634  1
  S  S7  1  0.97813649  0.61979782  0.08389089  1
  S  S8  1  0.31289771  0.66740671  0.91632617  1
  S  S9  1  0.02335026  0.38250023  0.91780920  1
  S  S10  1  0.16508996  0.94914134  0.91582802  1
  S  S11  1  0.66440915  0.95417073  0.91782338  1
  S  S12  1  0.81420003  0.96052881  0.41646454  1
  S  S13  1  0.16561140  0.37597752  0.41773753  1
  S  S14  1  0.52113687  0.66406952  0.41775570  1
  O  O0  1  0.10545738  0.04105940  0.30960596  1
  O  O1  1  0.60122227  0.02682419  0.31375314  1
  O  O2  1  0.41658881  0.80093450  0.30996485  1
  O  O3  1  0.90552337  0.78448224  0.30704107  1
  O  O4  1  0.48583792  0.18756521  0.30408355  1
  O  O5  1  0.97566436  0.15642311  0.30892364  1
  O  O6  1  0.09799450  0.16332900  0.81092519  1
  O  O7  1  0.60378474  0.16614061  0.80956671  1
  O  O8  1  0.47646949  0.79723365  0.80925442  1
  O  O9  1  0.98452663  0.78831896  0.80372038  1
  O  O10  1  0.40671244  0.02887232  0.80597993  1
  O  O11  1  0.91132759  0.03454202  0.81287544  1
  O  O12  1  0.39529383  0.96709486  0.69741747  1
  O  O13  1  0.90106086  0.96453053  0.69529343  1
  O  O14  1  0.08437785  0.20263699  0.69325725  1
  O  O15  1  0.58353185  0.19893366  0.69007815  1
  O  O16  1  0.01630841  0.81940795  0.69525619  1
  O  O17  1  0.51533909  0.83370864  0.69401753  1
  O  O18  1  0.40004594  0.83540834  0.19384633  1
  O  O19  1  0.89906552  0.82535053  0.19776381  1
  O  O20  1  0.01506471  0.19652362  0.19379654  1
  O  O21  1  0.51473931  0.21004056  0.19527691  1
  O  O22  1  0.08388581  0.96851920  0.19000981  1
  O  O23  1  0.58381830  0.96535676  0.19383410  1
  O  O24  1  0.43598377  0.35848989  0.63720645  1
  O  O25  1  0.93717238  0.36200928  0.63757013  1
  O  O26  1  0.25348370  0.13558385  0.64217970  1
  O  O27  1  0.74206799  0.11162696  0.64271172  1
  O  O28  1  0.31303560  0.51054458  0.64248688  1
  O  O29  1  0.81933531  0.50498762  0.64513889  1
  O  O30  1  0.43726719  0.51200869  0.13758495  1
  O  O31  1  0.93966687  0.51573164  0.13759557  1
  O  O32  1  0.31696767  0.12745921  0.14559620  1
  O  O33  1  0.81379969  0.11865881  0.14092241  1
  O  O34  1  0.24192735  0.37028470  0.14348784  1
  O  O35  1  0.75398908  0.37259502  0.14232846  1
  O  O36  1  0.23505763  0.29327189  0.02335932  1
  O  O37  1  0.72482490  0.28879816  0.02336076  1
  O  O38  1  0.42306671  0.54941922  0.02897897  1
  O  O39  1  0.92534272  0.54864597  0.02822850  1
  O  O40  1  0.36003321  0.17359571  0.02712774  1
  O  O41  1  0.85172722  0.16428959  0.01946385  1
  O  O42  1  0.22313422  0.15758893  0.52281562  1
  O  O43  1  0.73233053  0.16634747  0.52163343  1
  O  O44  1  0.35320507  0.53589106  0.52257851  1
  O  O45  1  0.85889342  0.55240964  0.52510945  1
  O  O46  1  0.42696144  0.30398228  0.52713167  1
  O  O47  1  0.92224593  0.29762914  0.52888680  1
  O  O48  1  0.27133746  0.69898351  0.96938753  1
  O  O49  1  0.77814666  0.71883181  0.97148395  1
  O  O50  1  0.07759935  0.46888581  0.97140549  1
  O  O51  1  0.58103457  0.46001361  0.97787069  1
  O  O52  1  0.15319605  0.84442498  0.97180209  1
  O  O53  1  0.65273953  0.85000665  0.97190591  1
  O  O54  1  0.27481321  0.84423621  0.47389994  1
  O  O55  1  0.77292042  0.84479208  0.46905061  1
  O  O56  1  0.15289799  0.45513503  0.47184787  1
  O  O57  1  0.64638277  0.46548064  0.47629348  1
  O  O58  1  0.08231329  0.70433796  0.47805159  1
  O  O59  1  0.57769400  0.69600449  0.47065554  1
  O  O60  1  0.06874787  0.63978861  0.36038927  1
  O  O61  1  0.55974304  0.63343220  0.36236779  1
  O  O62  1  0.25162244  0.87393697  0.35760884  1
  O  O63  1  0.76007936  0.88576529  0.36065913  1
  O  O64  1  0.17709767  0.48271456  0.36237921  1
  O  O65  1  0.68512788  0.51349906  0.35840984  1
  O  O66  1  0.06217331  0.48785072  0.86227355  1
  O  O67  1  0.56770434  0.49631450  0.86092516  1
  O  O68  1  0.17798659  0.86202121  0.86159097  1
  O  O69  1  0.67813769  0.87052342  0.86284897  1
  O  O70  1  0.25968179  0.64210574  0.86018114  1
  O  O71  1  0.75378269  0.63275901  0.85739772  1
  O  O72  1  0.00819113  0.83974600  0.40971542  1
  O  O73  1  0.51351258  0.82362362  0.41333442  1
  O  O74  1  0.41425424  0.99468906  0.40771793  1
  O  O75  1  0.89994865  0.96994648  0.41118649  1
  O  O76  1  0.08737739  0.19749172  0.41230356  1
  O  O77  1  0.57943226  0.18511453  0.41096539  1
  O  O78  1  0.01475744  0.20589634  0.91431230  1
  O  O79  1  0.51158540  0.17963305  0.90970886  1
  O  O80  1  0.08675225  0.96520200  0.91082293  1
  O  O81  1  0.58749198  0.97733063  0.91218693  1
  O  O82  1  0.39923997  0.82669519  0.91165652  1
  O  O83  1  0.91599287  0.84736682  0.90798632  1
  O  O84  1  0.48753189  0.17461718  0.58941672  1
  O  O85  1  0.98635604  0.17019230  0.58934564  1
  O  O86  1  0.09259993  0.02584804  0.59303181  1
  O  O87  1  0.59427263  0.02914717  0.58780257  1
  O  O88  1  0.41514149  0.81942805  0.59007626  1
  O  O89  1  0.92165269  0.81704147  0.59246240  1
  O  O90  1  0.48713542  0.80290939  0.08964382  1
  O  O91  1  0.98789704  0.80089767  0.08936249  1
  O  O92  1  0.42054282  0.02454088  0.09237376  1
  O  O93  1  0.91546209  0.01167834  0.08960023  1
  O  O94  1  0.09460137  0.15759793  0.08744197  1
  O  O95  1  0.59277694  0.15965611  0.09308007  1
  O  O96  1  0.34656142  0.15863044  0.74358517  1
  O  O97  1  0.84546065  0.18236962  0.74291614  1
  O  O98  1  0.24126577  0.31672648  0.74812242  1
  O  O99  1  0.74241386  0.31676790  0.74602908  1
  O  O100  1  0.41259690  0.51102931  0.74220897  1
  O  O101  1  0.92535180  0.53702159  0.74303580  1
  O  O102  1  0.34557198  0.50937675  0.24311792  1
  O  O103  1  0.84748721  0.53573940  0.24371165  1
  O  O104  1  0.42377493  0.31216185  0.24223900  1
  O  O105  1  0.91231210  0.31402691  0.24201289  1
  O  O106  1  0.24273214  0.16816251  0.24598755  1
  O  O107  1  0.74126494  0.16369266  0.24766555  1
  O  O108  1  0.31915489  0.50892076  0.92233436  1
  O  O109  1  0.82183875  0.48369710  0.92341325  1
  O  O110  1  0.42042530  0.35974627  0.92262967  1
  O  O111  1  0.93480923  0.35989615  0.92109753  1
  O  O112  1  0.24437218  0.12371697  0.91922222  1
  O  O113  1  0.74497871  0.12907707  0.91904787  1
  O  O114  1  0.32473672  0.16293827  0.42306293  1
  O  O115  1  0.82225501  0.13350725  0.42332128  1
  O  O116  1  0.24429534  0.35664266  0.41919417  1
  O  O117  1  0.75170954  0.35903465  0.41951527  1
  O  O118  1  0.43507252  0.50422160  0.42237987  1
  O  O119  1  0.92219232  0.48855284  0.42272672  1
  O  O120  1  0.17266076  0.50285904  0.07372436  1
  O  O121  1  0.67028954  0.49848795  0.08148135  1
  O  O122  1  0.06726446  0.64952854  0.07628512  1
  O  O123  1  0.56447885  0.64790731  0.07823169  1
  O  O124  1  0.24266030  0.85522355  0.07594450  1
  O  O125  1  0.73973673  0.85050042  0.07314885  1
  O  O126  1  0.16915928  0.84037641  0.58232188  1
  O  O127  1  0.67236148  0.83773502  0.57182285  1
  O  O128  1  0.23962294  0.62809631  0.57404476  1
  O  O129  1  0.74427905  0.63338321  0.57916978  1
  O  O130  1  0.06405720  0.48044674  0.57789551  1
  O  O131  1  0.56582067  0.48675726  0.57943507  1
  O  O132  1  0.15524951  0.82644645  0.25346754  1
  O  O133  1  0.65889194  0.82020887  0.25937376  1
  O  O134  1  0.25997836  0.68360955  0.25879359  1
  O  O135  1  0.76930915  0.69876398  0.25368495  1
  O  O136  1  0.08856474  0.47236711  0.25823378  1
  O  O137  1  0.58145658  0.46902262  0.25384166  1
  O  O138  1  0.15775803  0.49346693  0.75873903  1
  O  O139  1  0.65502159  0.48217729  0.75387472  1
  O  O140  1  0.08287892  0.69847314  0.75681344  1
  O  O141  1  0.58846250  0.70400174  0.75887787  1
  O  O142  1  0.26731691  0.84017776  0.75644936  1
  O  O143  1  0.75907393  0.83505964  0.75852266  1
loop_
_geom_bond_atom_site_label_1
_geom_bond_atom_site_label_2
_geom_bond_distance
_geom_bond_site_symmetry_2
Na0 O106 2.426114 1_555
Na0 O104 2.431503 1_555
Na0 O134 2.480860 1_545
Na0 O32 2.514249 1_555
Na0 O132 2.516100 1_545
Na0 O62 2.725517 1_545
Na0 O18 2.795545 1_545
Na0 O4 2.880529 1_555
Na1 O107 2.350474 1_555
Na1 O105 2.398157 1_555
Na1 O135 2.406268 1_545
Na1 O133 2.437145 1_545
Na1 O33 2.597758 1_555
Na1 O63 2.700781 1_545
Na1 O5 2.809278 1_555
Na1 O19 2.888695 1_545
Na2 O136 2.359441 1_555
Na2 O106 2.409265 1_555
Na2 O134 2.448721 1_555
Na2 O102 2.465661 1_555
Na2 O34 2.497682 1_555
Na2 O64 2.801338 1_555
Na2 O0 2.854633 1_555
Na2 O20 2.880438 1_555
Na3 O98 2.363937 1_555
Na3 O100 2.397646 1_555
Na3 O142 2.442518 1_555
Na3 O138 2.453219 1_555
Na3 O28 2.562888 1_555
Na3 O70 2.699712 1_555
Na3 O8 2.816310 1_555
Na3 O12 2.858820 1_555
Na4 O99 2.422710 1_555
Na4 O101 2.450776 1_555
Na4 O143 2.483297 1_555
Na4 O139 2.513576 1_555
Na4 O29 2.532817 1_555
Na4 O71 2.709496 1_555
Na4 O13 2.786960 1_555
Na4 O9 2.863375 1_555
Na5 O141 2.354999 1_545
Na5 O99 2.409761 1_555
Na5 O143 2.453492 1_545
Na5 O97 2.479502 1_555
Na5 O27 2.523494 1_555
Na5 O69 2.813750 1_545
Na5 O7 2.840189 1_555
Na5 O17 2.863541 1_545
Na6 O128 2.242328 1_555
Na6 O86 2.405330 1_555
Na6 O130 2.540977 1_555
Na6 O85 2.643870 1_455
Na6 O56 2.706378 1_555
Na6 O28 2.730741 1_555
Na6 O42 2.743236 1_555
Na6 O14 2.750412 1_555
Na7 O129 2.296616 1_555
Na7 O87 2.371720 1_555
Na7 O131 2.514382 1_555
Na7 O84 2.579384 1_555
Na7 O57 2.605116 1_555
Na7 O15 2.750640 1_555
Na7 O43 2.811004 1_555
Na7 O29 2.924380 1_555
Na8 O126 2.338106 1_555
Na8 O89 2.432757 1_455
Na8 O130 2.439415 1_555
Na8 O58 2.461026 1_555
Na8 O86 2.534780 1_565
Na8 O45 2.698778 1_455
Na8 O16 2.852393 1_555
Na8 O25 2.916160 1_455
Na9 O124 2.271926 1_555
Na9 O94 2.348567 1_565
Na9 O122 2.498090 1_555
Na9 O91 2.590127 1_455
Na9 O52 2.686694 1_554
Na9 O22 2.717983 1_555
Na9 O36 2.761432 1_565
Na9 O32 2.863448 1_565
Na10 O125 2.255348 1_555
Na10 O95 2.404527 1_565
Na10 O123 2.528537 1_555
Na10 O90 2.622759 1_555
Na10 O53 2.700567 1_554
Na10 O33 2.733376 1_565
Na10 O37 2.742585 1_565
Na10 O23 2.762287 1_555
Na11 O121 2.365292 1_555
Na11 O92 2.438307 1_555
Na11 O123 2.445874 1_555
Na11 O51 2.453751 1_554
Na11 O95 2.540861 1_555
Na11 O40 2.647613 1_555
Na11 O21 2.871467 1_555
Na11 O30 2.915668 1_555
Na12 O83 2.411972 1_545
Na12 O113 2.446079 1_555
Na12 O41 2.515693 1_556
Na12 O78 2.524219 1_655
Na12 O111 2.527241 1_555
Na12 O11 2.593697 1_555
Na12 O49 2.650500 1_545
Na12 O69 2.948818 1_545
Na13 O79 2.390958 1_555
Na13 O109 2.418373 1_555
Na13 O81 2.524563 1_545
Na13 O113 2.578630 1_555
Na13 O37 2.591304 1_556
Na13 O7 2.688728 1_555
Na13 O51 2.801603 1_555
Na13 O71 2.850778 1_555
Na14 O74 2.322520 1_545
Na14 O77 2.343022 1_555
Na14 O118 2.396639 1_555
Na14 O114 2.474340 1_555
Na14 O46 2.627625 1_555
Na14 O4 2.732425 1_555
Na14 O57 2.797111 1_555
Na14 O61 2.879509 1_555
Na15 O114 2.440082 1_555
Na15 O72 2.466471 1_545
Na15 O116 2.530371 1_555
Na15 O76 2.535705 1_555
Na15 O42 2.546453 1_555
Na15 O0 2.694174 1_555
Na15 O58 2.796996 1_545
Na15 O62 2.820093 1_545
Na16 O117 2.401755 1_555
Na16 O77 2.411185 1_555
Na16 O73 2.437339 1_545
Na16 O115 2.477455 1_555
Na16 O1 2.516422 1_555
Na16 O43 2.597440 1_555
Na16 O63 2.933774 1_545
Na16 O59 2.945631 1_545
Na17 O117 2.341152 1_555
Na17 O75 2.419647 1_555
Na17 O119 2.438518 1_555
Na17 O72 2.463269 1_655
Na17 O45 2.632482 1_555
Na17 O3 2.656762 1_555
Na17 O65 2.837370 1_555
Na17 O55 2.838428 1_555
Na18 O72 2.449632 1_655
Na18 O75 2.508154 1_555
Na18 O76 2.542268 1_665
Na18 O89 2.591580 1_555
Na18 O85 2.619569 1_565
Na18 O86 2.645262 1_665
Na19 O74 2.404774 1_555
Na19 O73 2.465154 1_555
Na19 O88 2.528785 1_555
Na19 O77 2.536669 1_565
Na19 O87 2.644232 1_565
Na19 O84 2.695785 1_565
Na20 O83 2.402932 1_555
Na20 O78 2.490066 1_665
Na20 O80 2.567371 1_655
Na20 O94 2.571521 1_666
Na20 O93 2.592538 1_566
Na20 O91 2.662698 1_556
Na21 O79 2.399998 1_565
Na21 O82 2.431080 1_555
Na21 O92 2.573322 1_566
Na21 O81 2.583025 1_555
Na21 O90 2.692633 1_556
Na21 O95 2.727012 1_566
Na22 O110 2.442131 1_555
Na22 O98 2.467212 1_555
Na22 O100 2.529461 1_555
Na22 O96 2.572548 1_555
Na22 O112 2.579305 1_555
Na22 O108 2.628897 1_555
Na23 O97 2.459845 1_555
Na23 O109 2.486328 1_555
Na23 O99 2.514032 1_555
Na23 O111 2.545189 1_555
Na23 O101 2.582639 1_555
Na23 O113 2.632889 1_555
Na24 O102 2.408580 1_555
Na24 O106 2.512612 1_555
Na24 O114 2.533561 1_555
Na24 O116 2.551564 1_555
Na24 O118 2.558539 1_555
Na24 O104 2.658543 1_555
Na25 O107 2.459792 1_555
Na25 O119 2.488024 1_555
Na25 O105 2.489340 1_555
Na25 O117 2.517278 1_555
Na25 O103 2.547779 1_555
Na25 O115 2.668935 1_555
Na26 O120 2.416800 1_555
Na26 O124 2.498433 1_555
Na26 O122 2.570116 1_555
Na26 O132 2.591000 1_555
Na26 O136 2.629215 1_555
Na26 O134 2.652101 1_555
Na27 O121 2.372075 1_555
Na27 O125 2.513685 1_555
Na27 O135 2.535337 1_555
Na27 O133 2.562935 1_555
Na27 O137 2.604711 1_555
Na27 O123 2.659779 1_555
Na28 O126 2.361079 1_555
Na28 O128 2.494165 1_555
Na28 O142 2.560385 1_555
Na28 O138 2.570295 1_555
Na28 O140 2.656912 1_555
Na28 O130 2.675317 1_555
Na29 O127 2.432108 1_555
Na29 O129 2.446547 1_555
Na29 O131 2.517821 1_555
Na29 O139 2.611378 1_555
Na29 O141 2.639048 1_555
Na29 O143 2.639444 1_555
Ga0 O0 1.863284 1_555
Ga0 O5 1.882396 1_455
Ga0 O72 2.015423 1_545
Ga0 O3 2.052028 1_445
Ga0 O76 2.159442 1_555
Ga0 O75 2.233627 1_445
Ga1 O2 1.862330 1_555
Ga1 O1 1.891238 1_565
Ga1 O74 1.954219 1_555
Ga1 O77 2.032564 1_565
Ga1 O73 2.118993 1_555
Ga1 O4 2.141914 1_565
Ga2 O6 1.827575 1_655
Ga2 O11 1.880422 1_555
Ga2 O83 1.945469 1_545
Ga2 O9 2.076546 1_545
Ga2 O78 2.177545 1_655
Ga2 O80 2.227443 1_645
Ga3 O8 1.894762 1_545
Ga3 O7 1.895820 1_555
Ga3 O79 1.971699 1_555
Ga3 O10 1.983614 1_555
Ga3 O82 2.205569 1_545
Ga3 O81 2.220964 1_545
Ga4 O26 1.861993 1_555
Ga4 O28 1.888583 1_555
Ga4 O98 1.927471 1_555
Ga4 O100 1.996114 1_555
Ga4 O96 2.229603 1_555
Ga4 O24 2.230515 1_555
Ga5 O27 1.860723 1_555
Ga5 O29 1.908104 1_555
Ga5 O97 1.941652 1_555
Ga5 O99 1.979524 1_555
Ga5 O25 2.153197 1_555
Ga5 O101 2.327725 1_555
Ga6 O34 1.857019 1_555
Ga6 O32 1.920461 1_555
Ga6 O102 1.954613 1_555
Ga6 O106 1.977568 1_555
Ga6 O30 2.150999 1_555
Ga6 O104 2.294571 1_555
Ga7 O35 1.857723 1_555
Ga7 O33 1.888140 1_555
Ga7 O107 1.925345 1_555
Ga7 O105 1.997110 1_555
Ga7 O103 2.230012 1_555
Ga7 O31 2.268329 1_555
Ga8 O40 1.859801 1_556
Ga8 O36 1.897929 1_556
Ga8 O110 1.916964 1_555
Ga8 O112 2.121214 1_555
Ga8 O38 2.170966 1_556
Ga8 O108 2.256884 1_555
Ga9 O37 1.884661 1_556
Ga9 O41 1.901270 1_556
Ga9 O109 1.971272 1_555
Ga9 O39 1.976723 1_556
Ga9 O113 2.301550 1_555
Ga9 O111 2.307660 1_555
Ga10 O44 1.850556 1_555
Ga10 O42 1.883342 1_555
Ga10 O114 2.002055 1_555
Ga10 O46 2.069891 1_555
Ga10 O116 2.217912 1_555
Ga10 O118 2.286264 1_555
Ga11 O45 1.877491 1_555
Ga11 O43 1.921925 1_555
Ga11 O117 1.947585 1_555
Ga11 O119 1.960413 1_555
Ga11 O47 2.212224 1_555
Ga11 O115 2.238771 1_555
Ga12 O120 1.853248 1_555
Ga12 O124 1.922876 1_555
Ga12 O48 1.949847 1_554
Ga12 O50 2.060939 1_554
Ga12 O52 2.097625 1_554
Ga12 O122 2.231700 1_555
Ga13 O49 1.841905 1_554
Ga13 O121 1.903536 1_555
Ga13 O125 1.942977 1_555
Ga13 O51 1.964734 1_554
Ga13 O53 2.282713 1_554
Ga13 O123 2.451730 1_555
Ga14 O54 1.808248 1_555
Ga14 O126 1.908736 1_555
Ga14 O128 1.930598 1_555
Ga14 O58 1.975287 1_555
Ga14 O56 2.273874 1_555
Ga14 O130 2.427458 1_555
Ga15 O127 1.875410 1_555
Ga15 O57 1.884768 1_555
Ga15 O129 1.945897 1_555
Ga15 O55 2.061673 1_555
Ga15 O59 2.127939 1_555
Ga15 O131 2.188235 1_555
Ga16 O65 1.829185 1_555
Ga16 O133 1.889096 1_555
Ga16 O61 2.015509 1_555
Ga16 O63 2.094801 1_555
Ga16 O137 2.117593 1_555
Ga16 O135 2.229941 1_555
Ga17 O138 1.880237 1_555
Ga17 O66 1.954884 1_555
Ga17 O68 1.987262 1_555
Ga17 O70 1.995736 1_555
Ga17 O140 2.139810 1_555
Ga17 O142 2.211617 1_555
O0 Si0 1.618413 1_555
O1 Si1 1.609434 1_545
O2 Si2 1.590560 1_555
O3 S0 1.499103 1_555
O4 S1 1.475614 1_555
O5 Si3 1.623415 1_555
O6 Si4 1.603907 1_555
O7 Si5 1.614926 1_555
O8 Si6 1.619520 1_555
O9 S2 1.473745 1_655
O10 S3 1.487266 1_555
O11 Si7 1.605107 1_555
O12 S3 1.505918 1_565
O12 Ta1 2.191568 1_555
O13 Si7 1.667810 1_565
O13 Ta0 1.921944 1_665
O14 Si4 1.691977 1_555
O14 Ta0 1.914116 1_555
O15 Si5 1.638352 1_555
O15 Ta1 1.982927 1_545
O16 S2 1.529998 1_555
O16 Ta0 2.083156 1_565
O17 Si6 1.692461 1_555
O17 Ta1 1.870167 1_555
O18 Si2 1.672412 1_555
O18 Ta3 1.911540 1_555
O19 S0 1.503651 1_555
O19 Ta2 2.167769 1_665
O20 Si3 1.688286 1_455
O20 Ta2 1.870428 1_555
O21 S1 1.521330 1_555
O21 Ta3 2.075243 1_545
O22 Si0 1.637460 1_565
O22 Ta2 1.986742 1_565
O23 Si1 1.687017 1_555
O23 Ta3 1.931257 1_555
O24 S4 1.448266 1_555
O25 S5 1.480124 1_555
O26 Si8 1.596632 1_555
O27 Si9 1.623090 1_555
O28 Si10 1.629604 1_555
O29 Si11 1.636946 1_555
O30 S6 1.484558 1_555
O31 S7 1.455888 1_555
O32 Si12 1.642715 1_555
O33 Si13 1.626442 1_555
O34 Si14 1.625395 1_555
O35 Si15 1.601196 1_555
O36 Si14 1.617933 1_555
O37 Si15 1.642450 1_555
O38 S6 1.449430 1_555
O39 S7 1.486397 1_555
O40 Si12 1.613080 1_555
O41 Si13 1.643949 1_555
O42 Si8 1.644216 1_555
O43 Si9 1.629155 1_555
O44 Si10 1.627166 1_555
O45 Si11 1.629482 1_555
O46 S4 1.495210 1_555
O47 S5 1.457158 1_555
O48 S8 1.490918 1_555
O49 Si16 1.621088 1_555
O50 S9 1.479346 1_555
O51 Si17 1.648618 1_555
O52 S10 1.502587 1_555
O53 S11 1.465841 1_555
O54 Si18 1.593766 1_555
O55 S12 1.486994 1_555
O56 S13 1.463403 1_555
O57 Si19 1.652016 1_555
O58 Si20 1.631477 1_555
O59 S14 1.477083 1_555
O60 Si20 1.673839 1_555
O60 Ta4 1.895709 1_555
O61 S14 1.499281 1_555
O62 Si18 1.685622 1_555
O62 Ta4 1.954230 1_555
O63 S12 1.502504 1_555
O64 S13 1.502383 1_555
O64 Ta4 2.138546 1_555
O65 Si19 1.644960 1_555
O66 S9 1.494950 1_555
O67 Si17 1.695953 1_555
O67 Ta5 1.884324 1_555
O68 S10 1.506962 1_555
O69 S11 1.508515 1_555
O69 Ta5 2.143440 1_555
O70 S8 1.511026 1_555
O71 Si16 1.699703 1_555
O71 Ta5 1.976405 1_555
O72 Si20 1.684043 1_555
O73 S14 1.483399 1_555
O74 Si18 1.615219 1_555
O75 S12 1.488743 1_555
O76 S13 1.499104 1_555
O77 Si19 1.639077 1_555
O78 S9 1.490247 1_555
O79 Si17 1.664881 1_555
O80 S10 1.471251 1_555
O81 S11 1.483753 1_555
O82 S8 1.481751 1_555
O83 Si16 1.639954 1_555
O84 S4 1.524844 1_555
O84 Ta1 2.156154 1_545
O85 S5 1.541496 1_555
O85 Ta0 2.061603 1_655
O86 Si8 1.711743 1_555
O86 Ta0 1.991001 1_555
O87 Si9 1.720240 1_555
O87 Ta1 1.925935 1_545
O88 Si10 1.674312 1_555
O88 Ta1 1.926641 1_555
O89 Si11 1.665989 1_555
O89 Ta0 1.980503 1_665
O90 S6 1.539032 1_555
O90 Ta3 2.044909 1_555
O91 S7 1.523902 1_555
O91 Ta2 2.144417 1_665
O92 Si12 1.670181 1_555
O92 Ta3 1.980033 1_545
O93 Si13 1.673568 1_555
O93 Ta2 1.934402 1_655
O94 Si14 1.724030 1_555
O94 Ta2 1.920565 1_555
O95 Si15 1.705088 1_555
O95 Ta3 2.000006 1_545
O96 S3 1.454161 1_555
O97 Si7 1.614999 1_555
O98 Si4 1.622667 1_555
O99 Si5 1.633412 1_555
O100 Si6 1.604792 1_555
O101 S2 1.468428 1_655
O102 Si2 1.616563 1_555
O103 S0 1.448054 1_555
O104 S1 1.469982 1_555
O105 Si3 1.606290 1_555
O106 Si0 1.629639 1_555
O107 Si1 1.627909 1_545
O108 S8 1.463316 1_555
O109 Si16 1.646763 1_555
O110 Si17 1.627108 1_555
O111 S9 1.485879 1_655
O112 S10 1.484186 1_545
O113 S11 1.494403 1_545
O114 Si18 1.678006 1_545
O115 S12 1.468146 1_545
O116 S13 1.490338 1_555
O117 Si19 1.648940 1_555
O118 S14 1.481060 1_555
O119 Si20 1.624026 1_655
O120 Si14 1.615622 1_555
O121 Si15 1.628135 1_555
O122 S7 1.480847 1_455
O123 S6 1.473089 1_555
O124 Si12 1.638973 1_565
O125 Si13 1.646384 1_565
O126 Si8 1.626170 1_565
O127 Si9 1.612634 1_565
O128 Si10 1.648085 1_555
O129 Si11 1.625382 1_555
O130 S5 1.471738 1_455
O131 S4 1.481474 1_555
O132 Si0 1.653733 1_565
O132 Ta4 1.929717 1_555
O133 Si1 1.672870 1_555
O134 Si2 1.676230 1_555
O134 Ta4 2.050881 1_555
O135 S0 1.498431 1_555
O136 Si3 1.642671 1_455
O136 Ta4 2.000366 1_555
O137 S1 1.471198 1_555
O138 Si4 1.670216 1_555
O139 Si5 1.655809 1_555
O139 Ta5 1.920037 1_555
O140 S2 1.473394 1_555
O141 Si6 1.649197 1_555
O141 Ta5 1.994647 1_555
O142 S3 1.504213 1_565
O143 Si7 1.668367 1_565
O143 Ta5 2.076130 1_555
