# generated using pymatgen
data_HoNi3
_symmetry_space_group_name_H-M   'P 1'
_cell_length_a   8.48230014
_cell_length_b   8.48229614
_cell_length_c   8.48229851
_cell_angle_alpha   33.59818930
_cell_angle_beta   33.59820029
_cell_angle_gamma   33.59818615
_symmetry_Int_Tables_number   1
_chemical_formula_structural   HoNi3
_chemical_formula_sum   'Ho3 Ni9'
_cell_volume   166.47021971
_cell_formula_units_Z   3
loop_
 _symmetry_equiv_pos_site_id
 _symmetry_equiv_pos_as_xyz
  1  'x, y, z'
loop_
 _atom_site_type_symbol
 _atom_site_label
 _atom_site_symmetry_multiplicity
 _atom_site_fract_x
 _atom_site_fract_y
 _atom_site_fract_z
 _atom_site_occupancy
  Ho  Ho0  1  0.86119635  0.86119635  0.86119635  1
  Ho  Ho1  1  0.13880365  0.13880365  0.13880365  1
  Ho  Ho2  1  0.00000000  0.00000000  0.00000000  1
  Ni  Ni0  1  0.41750741  0.41750741  0.91986405  1
  Ni  Ni1  1  0.91986405  0.41750641  0.41750741  1
  Ni  Ni2  1  0.41750741  0.91986405  0.41750741  1
  Ni  Ni3  1  0.50000000  0.50000000  0.50000000  1
  Ni  Ni4  1  0.33328179  0.33328179  0.33328279  1
  Ni  Ni5  1  0.66671821  0.66671821  0.66671721  1
  Ni  Ni6  1  0.08013595  0.58249359  0.58249259  1
  Ni  Ni7  1  0.58249259  0.58249259  0.08013595  1
  Ni  Ni8  1  0.58249259  0.08013595  0.58249259  1
loop_
_geom_bond_atom_site_label_1
_geom_bond_atom_site_label_2
_geom_bond_distance
_geom_bond_site_symmetry_2
Ho0 Ni1 2.808181 1_565
Ho0 Ni1 2.808186 1_556
Ho0 Ni0 2.808187 1_565
Ho0 Ni2 2.808189 1_556
Ho0 Ni0 2.808189 1_655
Ho0 Ni2 2.808189 1_655
Ho0 Ni3 2.908613 1_565
Ho0 Ni3 2.908614 1_655
Ho0 Ni3 2.908614 1_556
Ho0 Ni6 3.051063 1_655
Ho0 Ni7 3.051072 1_556
Ho0 Ni8 3.051072 1_565
Ho1 Ni6 2.808181 1_545
Ho1 Ni6 2.808186 1_554
Ho1 Ni7 2.808187 1_545
Ho1 Ni8 2.808189 1_554
Ho1 Ni7 2.808189 1_455
Ho1 Ni8 2.808189 1_455
Ho1 Ni3 2.908613 1_545
Ho1 Ni3 2.908614 1_455
Ho1 Ni3 2.908614 1_554
Ho1 Ni1 3.051063 1_455
Ho1 Ni0 3.051072 1_554
Ho1 Ni2 3.051072 1_545
Ho2 Ni5 2.830776 1_445
Ho2 Ni4 2.830776 1_554
Ho2 Ni5 2.830779 1_454
Ho2 Ni4 2.830779 1_545
Ho2 Ni5 2.830780 1_544
Ho2 Ni4 2.830780 1_455
Ho2 Ni7 3.138722 1_455
Ho2 Ni0 3.138722 1_544
Ho2 Ni2 3.138723 1_544
Ho2 Ni8 3.138723 1_455
Ho2 Ni7 3.138724 1_545
Ho2 Ni0 3.138724 1_454
Ho2 Ni8 3.138724 1_554
Ho2 Ni2 3.138724 1_445
Ho2 Ni1 3.138726 1_454
Ho2 Ni6 3.138726 1_545
Ho2 Ni1 3.138729 1_445
Ho2 Ni6 3.138729 1_554
Ni0 Ni4 2.412725 1_556
Ni0 Ni5 2.422528 1_555
Ni0 Ni2 2.439971 1_546
Ni0 Ni1 2.439972 1_456
Ni0 Ni2 2.463080 1_555
Ni0 Ni1 2.463081 1_555
Ni0 Ni3 2.485106 1_555
Ni1 Ni4 2.412729 1_655
Ni1 Ni5 2.422532 1_555
Ni1 Ni2 2.439968 1_645
Ni1 Ni2 2.463083 1_555
Ni1 Ni3 2.485101 1_555
Ni2 Ni4 2.412721 1_565
Ni2 Ni5 2.422525 1_555
Ni2 Ni3 2.485105 1_555
Ni3 Ni6 2.485101 1_555
Ni3 Ni8 2.485105 1_555
Ni3 Ni7 2.485106 1_555
Ni4 Ni8 2.422525 1_555
Ni4 Ni7 2.422528 1_555
Ni4 Ni6 2.422532 1_555
Ni5 Ni8 2.412721 1_565
Ni5 Ni7 2.412725 1_556
Ni5 Ni6 2.412729 1_655
Ni6 Ni8 2.439968 1_465
Ni6 Ni7 2.439972 1_456
Ni6 Ni7 2.463081 1_555
Ni6 Ni8 2.463083 1_555
Ni7 Ni8 2.439971 1_564
Ni7 Ni8 2.463080 1_555
