# generated using pymatgen
data_Na5Y2Zn2P3(SO8)3
_symmetry_space_group_name_H-M   'P 1'
_cell_length_a   9.17279848
_cell_length_b   9.15334024
_cell_length_c   23.05915548
_cell_angle_alpha   89.33418446
_cell_angle_beta   90.17496567
_cell_angle_gamma   119.87803788
_symmetry_Int_Tables_number   1
_chemical_formula_structural   Na5Y2Zn2P3(SO8)3
_chemical_formula_sum   'Na15 Y6 Zn6 P9 S9 O72'
_cell_volume   1678.63559187
_cell_formula_units_Z   3
loop_
 _symmetry_equiv_pos_site_id
 _symmetry_equiv_pos_as_xyz
  1  'x, y, z'
loop_
 _atom_site_type_symbol
 _atom_site_label
 _atom_site_symmetry_multiplicity
 _atom_site_fract_x
 _atom_site_fract_y
 _atom_site_fract_z
 _atom_site_occupancy
  Na  Na0  1  0.63849850  0.01822588  0.25237308  1
  Na  Na1  1  0.99853122  0.63149289  0.24026098  1
  Na  Na2  1  0.63021362  0.62827070  0.74119604  1
  Na  Na3  1  0.99321040  0.35049965  0.74339521  1
  Na  Na4  1  0.30465899  0.34992942  0.58527768  1
  Na  Na5  1  0.66663666  0.96441933  0.57576920  1
  Na  Na6  1  0.29871873  0.95519809  0.07861478  1
  Na  Na7  1  0.69344390  0.02623691  0.90842578  1
  Na  Na8  1  0.96233671  0.28464173  0.41172156  1
  Na  Na9  1  0.97803895  0.96351577  0.49054950  1
  Na  Na10  1  0.00815772  0.98275906  0.99077643  1
  Na  Na11  1  0.62421823  0.30280500  0.82435740  1
  Na  Na12  1  0.63238112  0.31173412  0.32635189  1
  Na  Na13  1  0.31307985  0.63039299  0.15780690  1
  Na  Na14  1  0.32445284  0.66774492  0.65850769  1
  Y  Y0  1  0.00046554  0.99967376  0.65044293  1
  Y  Y1  1  0.00335125  0.00816705  0.14920131  1
  Y  Y2  1  0.67364467  0.34800332  0.98297864  1
  Y  Y3  1  0.67121107  0.33901756  0.48279001  1
  Y  Y4  1  0.33902989  0.67211577  0.31746620  1
  Y  Y5  1  0.33483842  0.67489900  0.81724242  1
  Zn  Zn0  1  0.00661962  0.00986047  0.34285851  1
  Zn  Zn1  1  0.03282777  0.01182302  0.84699008  1
  Zn  Zn2  1  0.66335904  0.32756923  0.67922320  1
  Zn  Zn3  1  0.67450433  0.33578996  0.18047382  1
  Zn  Zn4  1  0.29448739  0.65912217  0.01296712  1
  Zn  Zn5  1  0.34461875  0.66961118  0.51343063  1
  P  P0  1  0.30248978  0.01047670  0.24992630  1
  P  P1  1  0.99035730  0.29914387  0.25313201  1
  P  P2  1  0.30820960  0.30112897  0.74858020  1
  P  P3  1  0.70798010  0.00910454  0.75308996  1
  P  P4  1  0.97390225  0.34503826  0.58494005  1
  P  P5  1  0.65795030  0.62931997  0.58641153  1
  P  P6  1  0.97296553  0.63129046  0.08788576  1
  P  P7  1  0.32684686  0.96731121  0.92110058  1
  P  P8  1  0.64443693  0.96546167  0.41839611  1
  S  S0  1  0.70806086  0.70083828  0.25192509  1
  S  S1  1  0.99053901  0.69542451  0.75279702  1
  S  S2  1  0.37323363  0.03238203  0.58458228  1
  S  S3  1  0.65738563  0.02852050  0.08385575  1
  S  S4  1  0.37648276  0.34465744  0.08473148  1
  S  S5  1  0.63336533  0.67764714  0.91748083  1
  S  S6  1  0.03549209  0.35852885  0.91727346  1
  S  S7  1  0.32359641  0.35980257  0.41978633  1
  S  S8  1  0.04230697  0.67599309  0.41731891  1
  O  O0  1  0.20801728  0.02333254  0.30277360  1
  O  O1  1  0.81239766  0.78388280  0.30337333  1
  O  O2  1  0.96742471  0.19599654  0.30984468  1
  O  O3  1  0.21849046  0.19124450  0.80186362  1
  O  O4  1  0.97655927  0.78370268  0.80376539  1
  O  O5  1  0.81599321  0.02720849  0.80751090  1
  O  O6  1  0.79117901  0.98229072  0.69839510  1
  O  O7  1  0.20704293  0.22514502  0.69187052  1
  O  O8  1  0.01668996  0.79481099  0.69883118  1
  O  O9  1  0.78560976  0.80552291  0.19900097  1
  O  O10  1  0.00775184  0.20725667  0.20051960  1
  O  O11  1  0.19770758  0.97873499  0.19362984  1
  O  O12  1  0.88715549  0.35755242  0.64073401  1
  O  O13  1  0.47769152  0.11404576  0.63642335  1
  O  O14  1  0.63849303  0.52670597  0.64278054  1
  O  O15  1  0.88936369  0.53683817  0.14530142  1
  O  O16  1  0.64019893  0.11448905  0.13610270  1
  O  O17  1  0.47504562  0.35837952  0.13732426  1
  O  O18  1  0.45635305  0.31836348  0.03274732  1
  O  O19  1  0.86587966  0.53965128  0.03493133  1
  O  O20  1  0.67569872  0.13063299  0.03057077  1
  O  O21  1  0.45146224  0.13752120  0.53197150  1
  O  O22  1  0.67087369  0.53667176  0.53329183  1
  O  O23  1  0.86147175  0.31481177  0.53086521  1
  O  O24  1  0.53595728  0.68752464  0.96660745  1
  O  O25  1  0.13975878  0.44873460  0.96766120  1
  O  O26  1  0.30861081  0.86963764  0.97894855  1
  O  O27  1  0.55243910  0.86490831  0.47424837  1
  O  O28  1  0.30773354  0.44218160  0.47304365  1
  O  O29  1  0.14541095  0.68685684  0.46821889  1
  O  O30  1  0.11720193  0.65208257  0.36316503  1
  O  O31  1  0.54251044  0.88188954  0.36273066  1
  O  O32  1  0.34062680  0.46490746  0.36789651  1
  O  O33  1  0.11003468  0.45250222  0.86225375  1
  O  O34  1  0.35447765  0.87496684  0.86992738  1
  O  O35  1  0.54037498  0.65649876  0.86175189  1
  O  O36  1  0.02092275  0.82452375  0.41269447  1
  O  O37  1  0.82303225  0.98586362  0.41484060  1
  O  O38  1  0.16788176  0.19350466  0.41550799  1
  O  O39  1  0.01179864  0.18626501  0.91604079  1
  O  O40  1  0.16916489  0.98461132  0.91305790  1
  O  O41  1  0.79907073  0.83531576  0.91455056  1
  O  O42  1  0.99295306  0.18280771  0.58759904  1
  O  O43  1  0.20453151  0.01760480  0.58879794  1
  O  O44  1  0.81323700  0.81094489  0.58706676  1
  O  O45  1  0.00058956  0.81467348  0.08711021  1
  O  O46  1  0.80929906  0.01041236  0.08676916  1
  O  O47  1  0.20652257  0.18648247  0.08732405  1
  O  O48  1  0.69556685  0.17139684  0.74598803  1
  O  O49  1  0.48992505  0.33252786  0.74451689  1
  O  O50  1  0.83521498  0.52834115  0.74931229  1
  O  O51  1  0.69151175  0.53204971  0.24687429  1
  O  O52  1  0.82815809  0.31460546  0.24731067  1
  O  O53  1  0.48294179  0.16405256  0.24430109  1
  O  O54  1  0.65903882  0.52926554  0.92092756  1
  O  O55  1  0.86284914  0.33972275  0.92116242  1
  O  O56  1  0.49373370  0.14180714  0.92244666  1
  O  O57  1  0.66764366  0.14781898  0.41977020  1
  O  O58  1  0.47482153  0.34040160  0.42101531  1
  O  O59  1  0.87309893  0.51744976  0.42072327  1
  O  O60  1  0.35553429  0.49353537  0.07794909  1
  O  O61  1  0.15181219  0.64927671  0.08310242  1
  O  O62  1  0.50294931  0.86135023  0.08065134  1
  O  O63  1  0.35870116  0.86428735  0.57948180  1
  O  O64  1  0.49711958  0.64828736  0.58156774  1
  O  O65  1  0.15298314  0.49925184  0.57775746  1
  O  O66  1  0.32343940  0.84957652  0.25538389  1
  O  O67  1  0.53824497  0.68604540  0.25577326  1
  O  O68  1  0.14530927  0.48052852  0.25497499  1
  O  O69  1  0.31720444  0.47773403  0.75325824  1
  O  O70  1  0.13675541  0.66488123  0.75622609  1
  O  O71  1  0.53108128  0.84715701  0.75595965  1
loop_
_geom_bond_atom_site_label_1
_geom_bond_atom_site_label_2
_geom_bond_distance
_geom_bond_site_symmetry_2
Na0 O52 2.385695 1_555
Na0 O53 2.396361 1_555
Na0 O66 2.508729 1_545
Na0 O67 2.702949 1_545
Na0 O31 2.766496 1_545
Na0 O16 2.810084 1_555
Na0 O2 2.939670 1_555
Na1 O68 2.382680 1_655
Na1 O15 2.390490 1_555
Na1 O51 2.495665 1_555
Na1 O52 2.521194 1_555
Na1 O66 2.659168 1_655
Na2 O49 2.348398 1_555
Na2 O50 2.472906 1_555
Na2 O14 2.478010 1_555
Na2 O69 2.504789 1_555
Na2 O71 2.605728 1_555
Na2 O35 2.952391 1_555
Na2 O6 2.970256 1_555
Na3 O48 2.384246 1_555
Na3 O70 2.518820 1_655
Na3 O12 2.568953 1_555
Na3 O69 2.606544 1_655
Na3 O50 2.669397 1_555
Na3 O33 2.928589 1_655
Na3 O5 2.950509 1_555
Na3 O7 2.977186 1_655
Na4 O65 2.391970 1_555
Na4 O64 2.402954 1_555
Na4 O42 2.481812 1_455
Na4 O7 2.660278 1_555
Na4 O43 2.704512 1_555
Na4 O28 2.708804 1_555
Na5 O44 2.391888 1_555
Na5 O63 2.499245 1_555
Na5 O64 2.513645 1_555
Na5 O27 2.547767 1_555
Na5 O42 2.660100 1_565
Na6 O45 2.379956 1_555
Na6 O62 2.418982 1_555
Na6 O61 2.429477 1_555
Na6 O26 2.453018 1_554
Na6 O47 2.651792 1_565
Na6 O11 2.857619 1_555
Na7 O41 2.386017 1_545
Na7 O55 2.511770 1_555
Na7 O39 2.538735 1_655
Na7 O56 2.553771 1_555
Na7 O5 2.585391 1_555
Na7 O34 2.845214 1_545
Na7 O24 2.991973 1_545
Na7 O20 3.015451 1_556
Na8 O57 2.352603 1_555
Na8 O37 2.373079 1_545
Na8 O38 2.413024 1_655
Na8 O2 2.502391 1_555
Na8 O59 2.646389 1_555
Na8 O23 2.961072 1_555
Na9 O37 2.318957 1_555
Na9 O36 2.356340 1_655
Na9 O38 2.596108 1_665
Na9 O44 2.652135 1_555
Na9 O43 2.943900 1_665
Na9 O42 2.980744 1_565
Na10 O40 2.320280 1_555
Na10 O41 2.458660 1_455
Na10 O39 2.510907 1_565
Na10 O45 2.668623 1_556
Na10 O47 2.904440 1_566
Na10 O46 2.964574 1_466
Na11 O49 2.299859 1_555
Na11 O48 2.445993 1_555
Na11 O56 2.627167 1_555
Na11 O50 2.637968 1_555
Na11 O54 2.966625 1_555
Na11 O55 3.023107 1_555
Na12 O53 2.341695 1_555
Na12 O52 2.553327 1_555
Na12 O51 2.559318 1_555
Na12 O58 2.707939 1_555
Na12 O57 2.720337 1_555
Na13 O61 2.327622 1_555
Na13 O60 2.378214 1_555
Na13 O62 2.632677 1_555
Na13 O68 2.667723 1_555
Na13 O67 2.928913 1_555
Na13 O66 3.001745 1_555
Na14 O65 2.439607 1_555
Na14 O64 2.448160 1_555
Na14 O63 2.453580 1_555
Na14 O69 2.756876 1_555
Na14 O70 2.831909 1_555
Na14 O71 2.880563 1_555
O0 P0 1.536621 1_555
O0 Zn0 2.015740 1_555
O1 S0 1.480005 1_555
O1 Zn0 2.154955 1_665
O2 P1 1.555946 1_555
O2 Zn0 2.046971 1_655
O3 P2 1.533403 1_555
O3 Zn1 1.965920 1_555
O4 S1 1.475432 1_555
O4 Zn1 2.142741 1_665
O5 P3 1.554846 1_555
O5 Zn1 2.251590 1_655
O6 P3 1.559815 1_565
O6 Y0 2.153586 1_655
O7 P2 1.557430 1_555
O7 Y0 2.213821 1_545
O8 S1 1.480464 1_455
O8 Y0 2.238713 1_555
O9 S0 1.487462 1_555
O9 Y1 2.240953 1_665
O10 P1 1.537308 1_455
O10 Y1 2.167811 1_555
O11 P0 1.554454 1_565
O11 Y1 2.182072 1_565
O12 P4 1.549840 1_555
O12 Zn2 2.126342 1_555
O13 S2 1.485273 1_555
O13 Zn2 2.100634 1_555
O14 P5 1.552297 1_555
O14 Zn2 2.111427 1_555
O15 P6 1.551594 1_555
O15 Zn3 2.071282 1_555
O16 S3 1.497440 1_555
O16 Zn3 2.158758 1_555
O17 S4 1.479062 1_555
O17 Zn3 2.177427 1_555
O18 S4 1.489743 1_555
O18 Y2 2.198035 1_554
O19 P6 1.534630 1_555
O19 Y2 2.139129 1_554
O20 S3 1.493214 1_555
O20 Y2 2.269352 1_554
O21 S2 1.484248 1_555
O21 Y3 2.238812 1_555
O22 P5 1.535833 1_555
O22 Y3 2.164231 1_555
O23 P4 1.552683 1_555
O23 Y3 2.166000 1_555
O24 S5 1.476093 1_555
O24 Zn4 2.355991 1_556
O25 S6 1.474863 1_555
O25 Zn4 2.031974 1_556
O26 P7 1.559260 1_555
O26 Zn4 2.015422 1_556
O27 P8 1.556668 1_555
O27 Zn5 2.055164 1_555
O28 S7 1.493263 1_555
O28 Zn5 2.157965 1_555
O29 S8 1.477893 1_555
O29 Zn5 2.173187 1_555
O30 S8 1.496869 1_555
O30 Y4 2.218394 1_555
O31 P8 1.552370 1_555
O31 Y4 2.173502 1_555
O32 S7 1.485367 1_555
O32 Y4 2.219481 1_555
O33 S6 1.486942 1_555
O33 Y5 2.292412 1_555
O34 P7 1.552281 1_555
O34 Y5 2.140950 1_555
O35 S5 1.500338 1_555
O35 Y5 2.221896 1_555
O36 S8 1.469839 1_555
O36 Zn0 2.376001 1_565
O37 P8 1.555963 1_555
O37 Zn0 2.297671 1_665
O38 S7 1.484379 1_555
O38 Zn0 2.322307 1_555
O39 S6 1.481177 1_555
O39 Zn1 2.343040 1_555
O40 P7 1.541874 1_555
O40 Zn1 2.058365 1_565
O41 S5 1.486790 1_555
O41 Zn1 2.478979 1_665
O42 P4 1.579789 1_555
O42 Y0 2.229951 1_645
O43 S2 1.488114 1_555
O43 Y0 2.292625 1_545
O44 P5 1.560174 1_555
O44 Y0 2.270883 1_655
O45 P6 1.567699 1_455
O45 Y1 2.280670 1_565
O46 S3 1.484262 1_555
O46 Y1 2.293792 1_655
O47 S4 1.509967 1_555
O47 Y1 2.259335 1_555
O48 P3 1.552192 1_555
O48 Zn2 2.206304 1_555
O49 P2 1.546859 1_555
O49 Zn2 2.210879 1_555
O50 S1 1.485455 1_555
O50 Zn2 2.375193 1_555
O51 S0 1.481208 1_555
O51 Zn3 2.319297 1_555
O52 P1 1.568370 1_555
O52 Zn3 2.156731 1_555
O53 P0 1.552926 1_555
O53 Zn3 2.221470 1_555
O54 S5 1.490804 1_555
O54 Y2 2.232305 1_555
O55 S6 1.508123 1_655
O55 Y2 2.279990 1_555
O56 P7 1.568538 1_545
O56 Y2 2.275498 1_555
O57 P8 1.574692 1_545
O57 Y3 2.275399 1_555
O58 S7 1.483784 1_555
O58 Y3 2.298069 1_555
O59 S8 1.508369 1_655
O59 Y3 2.256933 1_555
O60 S4 1.474507 1_555
O60 Zn4 2.375671 1_555
O61 P6 1.569135 1_455
O61 Zn4 2.056323 1_555
O62 S3 1.481888 1_565
O62 Zn4 2.457882 1_555
O63 S2 1.482815 1_565
O63 Zn5 2.311777 1_555
O64 P5 1.572501 1_555
O64 Zn5 2.171405 1_555
O65 P4 1.550603 1_455
O65 Zn5 2.225536 1_555
O66 P0 1.580933 1_565
O66 Y4 2.210095 1_555
O67 S0 1.497672 1_555
O67 Y4 2.271295 1_555
O68 P1 1.558426 1_455
O68 Y4 2.290805 1_555
O69 P2 1.581997 1_555
O69 Y5 2.286837 1_555
O70 S1 1.501895 1_455
O70 Y5 2.260709 1_555
O71 P3 1.560985 1_565
O71 Y5 2.204387 1_555
