# generated using pymatgen
data_Ba2As2Se5
_symmetry_space_group_name_H-M   'P 1'
_cell_length_a   12.55397498
_cell_length_b   9.61102357
_cell_length_c   10.21009389
_cell_angle_alpha   62.58424326
_cell_angle_beta   90.00000000
_cell_angle_gamma   90.00000000
_symmetry_Int_Tables_number   1
_chemical_formula_structural   Ba2As2Se5
_chemical_formula_sum   'Ba8 As8 Se20'
_cell_volume   1093.55687200
_cell_formula_units_Z   4
loop_
 _symmetry_equiv_pos_site_id
 _symmetry_equiv_pos_as_xyz
  1  'x, y, z'
loop_
 _atom_site_type_symbol
 _atom_site_label
 _atom_site_symmetry_multiplicity
 _atom_site_fract_x
 _atom_site_fract_y
 _atom_site_fract_z
 _atom_site_occupancy
  Ba  Ba0  1  0.06897539  0.82420766  0.34597142  1
  Ba  Ba1  1  0.56897539  0.17579234  0.65402858  1
  Ba  Ba2  1  0.06514702  0.33164832  0.35443072  1
  Ba  Ba3  1  0.56514702  0.66835168  0.64556928  1
  Ba  Ba4  1  0.21918445  0.58487405  0.83955758  1
  Ba  Ba5  1  0.71918445  0.41512595  0.16044242  1
  Ba  Ba6  1  0.22660650  0.07706984  0.85820720  1
  Ba  Ba7  1  0.72660650  0.92293016  0.14179280  1
  As  As0  1  0.37594428  0.23120697  0.24912023  1
  As  As1  1  0.48947395  0.21871096  0.99127074  1
  As  As2  1  0.98947395  0.78128904  0.00872926  1
  As  As3  1  0.87594428  0.76879303  0.75087977  1
  As  As4  1  0.91770429  0.40385193  0.73716278  1
  As  As5  1  0.41770429  0.59614807  0.26283722  1
  As  As6  1  0.30181228  0.96471235  0.51204268  1
  As  As7  1  0.80181228  0.03528765  0.48795732  1
  Se  Se0  1  0.83557660  0.66412054  0.57211851  1
  Se  Se1  1  0.33557660  0.33587946  0.42788149  1
  Se  Se2  1  0.44678962  0.50464250  0.07557415  1
  Se  Se3  1  0.94678962  0.49535750  0.92442585  1
  Se  Se4  1  0.62130240  0.04549889  0.39699993  1
  Se  Se5  1  0.16803517  0.70187112  0.10037262  1
  Se  Se6  1  0.12130240  0.95450111  0.60300007  1
  Se  Se7  1  0.66803517  0.29812888  0.89962738  1
  Se  Se8  1  0.89537154  0.62918271  0.23568844  1
  Se  Se9  1  0.39537154  0.37081729  0.76431156  1
  Se  Se10  1  0.39562604  0.88625490  0.73687220  1
  Se  Se11  1  0.89562604  0.11374510  0.26312780  1
  Se  Se12  1  0.21010961  0.21685219  0.14040375  1
  Se  Se13  1  0.71010961  0.78314781  0.85959625  1
  Se  Se14  1  0.59183431  0.56293436  0.36673239  1
  Se  Se15  1  0.09183431  0.43706564  0.63326761  1
  Se  Se16  1  0.81657948  0.25848388  0.52549407  1
  Se  Se17  1  0.31657948  0.74151612  0.47450593  1
  Se  Se18  1  0.47922907  0.96194508  0.01446546  1
  Se  Se19  1  0.97922907  0.03805492  0.98553454  1
loop_
_geom_bond_atom_site_label_1
_geom_bond_atom_site_label_2
_geom_bond_distance
_geom_bond_site_symmetry_2
Ba0 Se11 3.320775 1_465
Ba0 Se17 3.325005 1_555
Ba0 Se8 3.387428 1_455
Ba0 Se6 3.451498 1_555
Ba0 Se5 3.454286 1_555
Ba0 Se19 3.474395 1_464
Ba0 Se15 3.532758 1_555
Ba0 Se0 3.607288 1_455
Ba0 Se12 3.806772 1_565
Ba1 Se10 3.320775 1_545
Ba1 Se16 3.325005 1_555
Ba1 Se9 3.387428 1_555
Ba1 Se4 3.451498 1_555
Ba1 Se7 3.454286 1_555
Ba1 Se18 3.474395 1_546
Ba1 Se14 3.532758 1_555
Ba1 Se1 3.607288 1_555
Ba1 Se13 3.806772 1_545
Ba2 Se8 3.316212 1_455
Ba2 Se12 3.394801 1_555
Ba2 Se11 3.403223 1_455
Ba2 Se6 3.406668 1_545
Ba2 Se15 3.449657 1_555
Ba2 Se1 3.481083 1_555
Ba2 Se16 3.485910 1_455
Ba2 Se5 3.543761 1_555
Ba3 Se9 3.316212 1_555
Ba3 Se13 3.394801 1_555
Ba3 Se10 3.403223 1_555
Ba3 Se4 3.406668 1_565
Ba3 Se14 3.449657 1_555
Ba3 Se0 3.481083 1_555
Ba3 Se17 3.485910 1_555
Ba3 Se7 3.543761 1_555
Ba4 Se9 3.342235 1_555
Ba4 Se5 3.394924 1_556
Ba4 Se10 3.405757 1_555
Ba4 Se15 3.430119 1_555
Ba4 Se12 3.457427 1_556
Ba4 Se6 3.473081 1_555
Ba4 Se17 3.533586 1_555
Ba4 Se3 3.535313 1_455
Ba4 Se2 3.585357 1_556
Ba5 Se8 3.342235 1_555
Ba5 Se7 3.394924 1_554
Ba5 Se11 3.405757 1_555
Ba5 Se14 3.430119 1_555
Ba5 Se13 3.457427 1_554
Ba5 Se4 3.473081 1_555
Ba5 Se16 3.533586 1_555
Ba5 Se2 3.535313 1_555
Ba5 Se3 3.585357 1_554
Ba6 Se9 3.299384 1_555
Ba6 Se19 3.320591 1_455
Ba6 Se5 3.383334 1_546
Ba6 Se10 3.390065 1_545
Ba6 Se18 3.493119 1_546
Ba6 Se6 3.570947 1_545
Ba6 Se15 3.576413 1_555
Ba6 Se12 3.703238 1_556
Ba7 Se8 3.299384 1_555
Ba7 Se18 3.320591 1_555
Ba7 Se7 3.383334 1_564
Ba7 Se11 3.390065 1_565
Ba7 Se19 3.493119 1_564
Ba7 Se4 3.570947 1_565
Ba7 Se14 3.576413 1_555
Ba7 Se13 3.703238 1_554
As0 Se12 2.392993 1_555
As0 Se1 2.508186 1_555
As0 Se2 2.559077 1_555
As1 Se18 2.371580 1_546
As1 Se9 2.404766 1_555
As1 Se7 2.413593 1_555
As2 Se19 2.371580 1_564
As2 Se8 2.404766 1_555
As2 Se5 2.413593 1_655
As3 Se13 2.392993 1_555
As3 Se0 2.508186 1_555
As3 Se3 2.559077 1_555
As4 Se15 2.386215 1_655
As4 Se3 2.472024 1_555
As4 Se0 2.505619 1_555
As5 Se14 2.386215 1_555
As5 Se2 2.472024 1_555
As5 Se1 2.505619 1_555
As6 Se17 2.353718 1_555
As6 Se10 2.372995 1_555
As6 Se6 2.433811 1_555
As7 Se16 2.353718 1_555
As7 Se11 2.372995 1_555
As7 Se4 2.433811 1_555
