# generated using pymatgen
data_Na4Ca3SiSnS5O24
_symmetry_space_group_name_H-M   'P 1'
_cell_length_a   9.24324327
_cell_length_b   9.27143853
_cell_length_c   23.62116019
_cell_angle_alpha   90.36619983
_cell_angle_beta   89.76910456
_cell_angle_gamma   120.11965227
_symmetry_Int_Tables_number   1
_chemical_formula_structural   Na4Ca3SiSnS5O24
_chemical_formula_sum   'Na12 Ca9 Si3 Sn3 S15 O72'
_cell_volume   1750.93250558
_cell_formula_units_Z   3
loop_
 _symmetry_equiv_pos_site_id
 _symmetry_equiv_pos_as_xyz
  1  'x, y, z'
loop_
 _atom_site_type_symbol
 _atom_site_label
 _atom_site_symmetry_multiplicity
 _atom_site_fract_x
 _atom_site_fract_y
 _atom_site_fract_z
 _atom_site_occupancy
  Na  Na0  1  0.36006921  0.35979360  0.25192785  1
  Na  Na1  1  0.32072742  0.34843283  0.59059851  1
  Na  Na2  1  0.01716347  0.69211752  0.57865659  1
  Na  Na3  1  0.00104468  0.68258422  0.92023486  1
  Na  Na4  1  0.69213632  0.02630058  0.91018443  1
  Na  Na5  1  0.30690268  0.29268279  0.92163801  1
  Na  Na6  1  0.95915794  0.97468642  0.50107696  1
  Na  Na7  1  0.02048534  0.02217995  0.99929953  1
  Na  Na8  1  0.66713689  0.32328788  0.82985487  1
  Na  Na9  1  0.68497783  0.33300395  0.33270892  1
  Na  Na10  1  0.33470623  0.68616846  0.16799674  1
  Na  Na11  1  0.38356723  0.68295381  0.66625652  1
  Ca  Ca0  1  0.99326893  0.99219062  0.35177566  1
  Ca  Ca1  1  0.00319089  0.00377618  0.84598214  1
  Ca  Ca2  1  0.97985537  0.99078260  0.65236045  1
  Ca  Ca3  1  0.99580278  0.99412613  0.14757032  1
  Ca  Ca4  1  0.66328351  0.33497008  0.68654374  1
  Ca  Ca5  1  0.67688542  0.33126262  0.18535501  1
  Ca  Ca6  1  0.32422542  0.66032268  0.01801273  1
  Ca  Ca7  1  0.34670392  0.67223121  0.51329053  1
  Ca  Ca8  1  0.33705515  0.67961733  0.32104208  1
  Si  Si0  1  0.66661461  0.62786214  0.58292691  1
  Si  Si1  1  0.03510479  0.37047648  0.91751622  1
  Si  Si2  1  0.33774772  0.96706813  0.91861101  1
  Sn  Sn0  1  0.67011041  0.32456217  0.98311766  1
  Sn  Sn1  1  0.66848587  0.34062577  0.48392963  1
  Sn  Sn2  1  0.32003928  0.67264021  0.82094520  1
  S  S0  1  0.29896707  0.00018234  0.24972318  1
  S  S1  1  0.69123230  0.69423024  0.25016552  1
  S  S2  1  0.00767601  0.30182503  0.25160068  1
  S  S3  1  0.30709546  0.32469757  0.75405050  1
  S  S4  1  0.01229569  0.69376682  0.75214179  1
  S  S5  1  0.67446950  0.98360685  0.75642051  1
  S  S6  1  0.95778466  0.32998742  0.57979422  1
  S  S7  1  0.37104662  0.04199271  0.58130474  1
  S  S8  1  0.95344493  0.62858466  0.07949527  1
  S  S9  1  0.67332754  0.03826207  0.07992016  1
  S  S10  1  0.37667409  0.33039616  0.08162905  1
  S  S11  1  0.62241055  0.65628657  0.91619362  1
  S  S12  1  0.64177364  0.99174959  0.42057594  1
  S  S13  1  0.34273856  0.35757972  0.41815857  1
  S  S14  1  0.01698362  0.65532941  0.42161655  1
  O  O0  1  0.21087259  0.01076280  0.30065285  1
  O  O1  1  0.78455267  0.77895464  0.30185773  1
  O  O2  1  0.99544928  0.20444798  0.30244584  1
  O  O3  1  0.21760363  0.22866179  0.80465574  1
  O  O4  1  0.00073321  0.77623295  0.80415517  1
  O  O5  1  0.76509550  -0.00510131  0.80898008  1
  O  O6  1  0.76138487  0.97072155  0.70569236  1
  O  O7  1  0.21369013  0.24586594  0.70102669  1
  O  O8  1  0.02343960  0.78911800  0.70061491  1
  O  O9  1  0.77709529  0.78766443  0.19877218  1
  O  O10  1  0.01956515  0.21729225  0.19965113  1
  O  O11  1  0.20441783  0.98763539  0.19774629  1
  O  O12  1  0.87119231  0.33916780  0.63035503  1
  O  O13  1  0.47559484  0.11302297  0.63136159  1
  O  O14  1  0.63765056  0.50572190  0.63504031  1
  O  O15  1  0.85533114  0.53069853  0.12783848  1
  O  O16  1  0.66669365  0.13412483  0.12820327  1
  O  O17  1  0.46845951  0.33049610  0.13225068  1
  O  O18  1  0.46663768  0.32118514  0.02653925  1
  O  O19  1  0.85950800  0.54401616  0.02356405  1
  O  O20  1  0.68292651  0.13056086  0.02408081  1
  O  O21  1  0.45813405  0.14171460  0.52826632  1
  O  O22  1  0.70567512  0.54104772  0.52432744  1
  O  O23  1  0.85140854  0.29826063  0.52698186  1
  O  O24  1  0.55662063  0.69434156  0.96672309  1
  O  O25  1  0.16871544  0.43834593  0.96764026  1
  O  O26  1  0.29858470  0.84457197  0.97041479  1
  O  O27  1  0.55856435  0.89659478  0.47149695  1
  O  O28  1  0.33164659  0.44161380  0.46987868  1
  O  O29  1  0.10462046  0.66680470  0.47503248  1
  O  O30  1  0.10829965  0.64514514  0.37196417  1
  O  O31  1  0.54505243  0.91427911  0.36880644  1
  O  O32  1  0.36219457  0.45667272  0.36667295  1
  O  O33  1  0.11457641  0.50161280  0.86122785  1
  O  O34  1  0.39235366  0.89050916  0.86173721  1
  O  O35  1  0.51179181  0.62462818  0.86524106  1
  O  O36  1  -0.01317922  0.79714867  0.41774024  1
  O  O37  1  0.81250361  0.01708509  0.41712685  1
  O  O38  1  0.19616521  0.18834272  0.41454961  1
  O  O39  1  0.98037401  0.17665867  0.90665427  1
  O  O40  1  0.18030052  0.99680493  0.90922646  1
  O  O41  1  0.79489537  0.79476341  0.90587160  1
  O  O42  1  0.99669396  0.19272010  0.58267605  1
  O  O43  1  0.21274536  0.04858244  0.58583504  1
  O  O44  1  0.84236697  0.80774745  0.58383613  1
  O  O45  1  0.97118537  0.79590989  0.07813700  1
  O  O46  1  0.82727783  0.02705753  0.07955372  1
  O  O47  1  0.20867751  0.17950013  0.07904087  1
  O  O48  1  0.64794800  0.12758351  0.75273363  1
  O  O49  1  0.47587561  0.34399917  0.75304270  1
  O  O50  1  0.86973455  0.52132562  0.74986839  1
  O  O51  1  0.66676733  0.52081433  0.24888973  1
  O  O52  1  0.86091490  0.32672874  0.24987088  1
  O  O53  1  0.46540561  0.15971656  0.24848897  1
  O  O54  1  0.62837082  0.49623805  0.92237479  1
  O  O55  1  0.85542199  0.37788422  0.92561653  1
  O  O56  1  0.51270170  0.15891531  0.92404586  1
  O  O57  1  0.65442868  0.16421004  0.42388030  1
  O  O58  1  0.50137090  0.34303639  0.42088549  1
  O  O59  1  0.84807013  0.49125898  0.42072156  1
  O  O60  1  0.36787479  0.48403962  0.08030202  1
  O  O61  1  0.11722646  0.63844809  0.07984682  1
  O  O62  1  0.52307945  0.87209980  0.07924841  1
  O  O63  1  0.32606242  0.86534563  0.57411562  1
  O  O64  1  0.49552905  0.63847828  0.57785332  1
  O  O65  1  0.11851622  0.49120053  0.57413814  1
  O  O66  1  0.32472020  0.85434728  0.25229742  1
  O  O67  1  0.51794483  0.67148418  0.25177500  1
  O  O68  1  0.16652731  0.46857399  0.25436144  1
  O  O69  1  0.32204486  0.49674886  0.75743409  1
  O  O70  1  0.17578725  0.68922561  0.75344511  1
  O  O71  1  0.50580154  0.82066614  0.75708355  1
loop_
_geom_bond_atom_site_label_1
_geom_bond_atom_site_label_2
_geom_bond_distance
_geom_bond_site_symmetry_2
Na0 O51 2.454120 1_555
Na0 O68 2.455614 1_555
Na0 O53 2.491127 1_555
Na0 O67 2.499672 1_555
Na0 O32 2.846946 1_555
Na1 O64 2.361882 1_555
Na1 O43 2.439185 1_555
Na1 O42 2.598349 1_455
Na1 O14 2.743693 1_555
Na1 O7 2.784562 1_555
Na1 O65 2.809299 1_555
Na1 O28 2.971448 1_555
Na2 O44 2.347299 1_455
Na2 O65 2.471254 1_555
Na2 O63 2.478055 1_555
Na2 O29 2.620500 1_555
Na2 O22 2.803182 1_455
Na2 O43 2.866806 1_565
Na2 O8 3.004501 1_555
Na3 O55 2.448580 1_455
Na3 O40 2.542022 1_555
Na3 O41 2.612745 1_455
Na3 O26 2.661287 1_555
Na3 O33 2.754021 1_555
Na3 O19 2.765296 1_456
Na3 O4 2.881858 1_555
Na4 O39 2.306671 1_555
Na4 O56 2.531177 1_555
Na4 O5 2.535647 1_555
Na4 O34 2.660605 1_545
Na4 O41 2.750194 1_545
Na4 O55 2.843947 1_555
Na4 O20 2.868310 1_556
Na4 O24 2.999167 1_545
Na5 O40 2.398188 1_545
Na5 O25 2.517421 1_555
Na5 O54 2.600619 1_555
Na5 O39 2.671548 1_455
Na5 O56 2.743982 1_555
Na5 O18 2.831831 1_556
Na5 O3 2.859183 1_555
Na6 O44 2.393164 1_555
Na6 O37 2.547701 1_565
Na6 O36 2.650802 1_655
Na6 O42 2.678356 1_565
Na6 O43 2.894911 1_665
Na6 O38 2.925923 1_665
Na7 O47 2.479140 1_556
Na7 O46 2.614898 1_456
Na7 O40 2.661084 1_545
Na7 O45 2.675856 1_446
Na7 O39 2.749065 1_455
Na8 O48 2.505924 1_555
Na8 O49 2.612524 1_555
Na8 O50 2.648178 1_555
Na8 O56 2.672978 1_555
Na8 O55 2.744942 1_555
Na8 O54 2.828646 1_555
Na9 O59 2.552225 1_555
Na9 O52 2.558252 1_555
Na9 O57 2.600269 1_555
Na9 O51 2.705791 1_555
Na9 O58 2.711925 1_555
Na9 O53 2.716085 1_555
Na10 O66 2.551133 1_555
Na10 O67 2.658064 1_555
Na10 O62 2.720734 1_555
Na10 O68 2.743689 1_555
Na10 O61 2.775185 1_555
Na10 O60 2.901510 1_555
Na11 O64 2.449778 1_555
Na11 O71 2.458940 1_555
Na11 O69 2.644745 1_555
Na11 O70 2.830570 1_555
Na11 O63 2.972814 1_555
Ca0 O0 2.273538 1_665
Ca0 O1 2.276274 1_555
Ca0 O2 2.284783 1_565
Ca0 O38 2.363933 1_665
Ca0 O37 2.364245 1_565
Ca0 O36 2.372453 1_655
Ca1 O39 2.230482 1_455
Ca1 O40 2.245675 1_545
Ca1 O3 2.256385 1_555
Ca1 O4 2.313599 1_545
Ca1 O5 2.333859 1_455
Ca1 O41 2.394162 1_445
Ca2 O44 2.220775 1_555
Ca2 O6 2.303261 1_555
Ca2 O8 2.396718 1_655
Ca2 O42 2.446186 1_565
Ca2 O43 2.493228 1_665
Ca2 O7 2.537989 1_665
Ca3 O11 2.293994 1_655
Ca3 O9 2.310815 1_555
Ca3 O10 2.314359 1_665
Ca3 O46 2.367432 1_565
Ca3 O45 2.379876 1_555
Ca3 O47 2.462064 1_665
Ca4 O14 2.108512 1_555
Ca4 O13 2.311765 1_555
Ca4 O12 2.315439 1_555
Ca4 O50 2.354813 1_555
Ca4 O49 2.365799 1_555
Ca4 O48 2.434076 1_555
Ca5 O15 2.222288 1_555
Ca5 O16 2.229058 1_555
Ca5 O17 2.300148 1_555
Ca5 O52 2.304590 1_555
Ca5 O53 2.336933 1_555
Ca5 O51 2.340868 1_555
Ca6 O26 2.161348 1_554
Ca6 O25 2.175084 1_554
Ca6 O61 2.329626 1_555
Ca6 O24 2.342110 1_554
Ca6 O62 2.385169 1_555
Ca6 O60 2.386675 1_555
Ca7 O64 2.184285 1_555
Ca7 O27 2.249210 1_555
Ca7 O28 2.305876 1_555
Ca7 O63 2.369417 1_555
Ca7 O29 2.393523 1_555
Ca7 O65 2.405221 1_555
Ca8 O30 2.307817 1_555
Ca8 O31 2.343251 1_555
Ca8 O66 2.344078 1_555
Ca8 O67 2.362467 1_555
Ca8 O68 2.383114 1_555
Ca8 O32 2.449668 1_555
O0 S0 1.480097 1_555
O1 S1 1.472483 1_555
O2 S2 1.476714 1_655
O3 S3 1.473894 1_555
O4 S4 1.474600 1_555
O5 S5 1.474021 1_545
O6 S5 1.477243 1_555
O7 S3 1.487287 1_555
O8 S4 1.481515 1_555
O9 S1 1.472992 1_555
O10 S2 1.484985 1_555
O11 S0 1.479688 1_565
O12 S6 1.460688 1_555
O13 S7 1.458142 1_555
O14 Si0 1.606314 1_555
O15 S8 1.459094 1_555
O16 S9 1.461377 1_555
O17 S10 1.468655 1_555
O18 S10 1.566285 1_555
O18 Sn0 2.125077 1_554
O19 S8 1.557849 1_555
O19 Sn0 2.128650 1_554
O20 S9 1.554730 1_555
O20 Sn0 2.102977 1_554
O21 S7 1.527128 1_555
O21 Sn1 2.165149 1_555
O22 Si0 1.722663 1_555
O22 Sn1 1.954626 1_555
O23 S6 1.524624 1_555
O23 Sn1 2.175487 1_555
O24 S11 1.457046 1_555
O25 Si1 1.595409 1_555
O26 Si2 1.587398 1_555
O27 S12 1.463470 1_555
O28 S13 1.475483 1_555
O29 S14 1.476323 1_555
O30 S14 1.472246 1_555
O31 S12 1.470941 1_555
O32 S13 1.483960 1_555
O33 Si1 1.703556 1_555
O33 Sn2 2.002227 1_555
O34 Si2 1.704491 1_555
O34 Sn2 2.020076 1_555
O35 S11 1.511412 1_555
O35 Sn2 2.290659 1_555
O36 S14 1.478057 1_555
O37 S12 1.476275 1_545
O38 S13 1.473264 1_555
O39 Si1 1.622853 1_655
O40 Si2 1.627632 1_555
O41 S11 1.481959 1_555
O42 S6 1.488062 1_555
O43 S7 1.498187 1_555
O44 Si0 1.643695 1_555
O45 S8 1.476441 1_555
O46 S9 1.477851 1_555
O47 S10 1.480427 1_555
O48 S5 1.476360 1_545
O49 S3 1.478510 1_555
O50 S4 1.476646 1_655
O51 S1 1.507200 1_555
O52 S2 1.486648 1_655
O53 S0 1.507264 1_555
O54 S11 1.520241 1_555
O54 Sn0 2.321844 1_555
O55 Si1 1.706314 1_655
O55 Sn0 2.040382 1_555
O56 Si2 1.705095 1_545
O56 Sn0 2.041795 1_555
O57 S12 1.545058 1_545
O57 Sn1 2.112500 1_555
O58 S13 1.539999 1_555
O58 Sn1 2.158195 1_555
O59 S14 1.538942 1_655
O59 Sn1 2.148278 1_555
O60 S10 1.467534 1_555
O61 S8 1.470167 1_455
O62 S9 1.467966 1_565
O63 S7 1.482428 1_565
O64 Si0 1.637902 1_555
O65 S6 1.493811 1_455
O66 S0 1.487524 1_565
O67 S1 1.507344 1_555
O68 S2 1.507171 1_555
O69 S3 1.532080 1_555
O69 Sn2 2.215672 1_555
O70 S4 1.533190 1_555
O70 Sn2 2.137694 1_555
O71 S5 1.532777 1_555
O71 Sn2 2.178960 1_555
