# generated using pymatgen
data_MgTi6(N2O3)2
_symmetry_space_group_name_H-M   'P 1'
_cell_length_a   3.86934801
_cell_length_b   5.32390185
_cell_length_c   9.98485800
_cell_angle_alpha   90.00000000
_cell_angle_beta   90.00000000
_cell_angle_gamma   111.31512455
_symmetry_Int_Tables_number   1
_chemical_formula_structural   MgTi6(N2O3)2
_chemical_formula_sum   'Mg1 Ti6 N4 O6'
_cell_volume   191.61831497
_cell_formula_units_Z   1
loop_
 _symmetry_equiv_pos_site_id
 _symmetry_equiv_pos_as_xyz
  1  'x, y, z'
loop_
 _atom_site_type_symbol
 _atom_site_label
 _atom_site_symmetry_multiplicity
 _atom_site_fract_x
 _atom_site_fract_y
 _atom_site_fract_z
 _atom_site_occupancy
  Mg  Mg0  1  0.49633100  0.99109700  0.25000000  1
  Ti  Ti0  1  0.20846600  0.41548700  0.25000000  1
  Ti  Ti1  1  0.14683200  0.29330000  0.95128200  1
  Ti  Ti2  1  0.14683200  0.29330000  0.54871800  1
  Ti  Ti3  1  0.79744500  0.59446300  0.75000000  1
  Ti  Ti4  1  0.85626000  0.71176700  0.03817900  1
  Ti  Ti5  1  0.85626000  0.71176700  0.46182100  1
  N  N0  1  0.32844000  0.65604200  0.40923400  1
  N  N1  1  0.32844000  0.65604200  0.09076600  1
  N  N2  1  0.69042500  0.38033100  0.57629100  1
  N  N3  1  0.69042500  0.38033100  0.92370900  1
  O  O0  1  0.25023500  0.50014800  0.75000000  1
  O  O1  1  0.04363500  0.08636900  0.12380700  1
  O  O2  1  0.04363500  0.08636900  0.37619300  1
  O  O3  1  0.95640700  0.91236300  0.87910000  1
  O  O4  1  0.70352400  0.40596200  0.25000000  1
  O  O5  1  0.95640700  0.91236300  0.62090000  1
loop_
_geom_bond_atom_site_label_1
_geom_bond_atom_site_label_2
_geom_bond_distance
_geom_bond_site_symmetry_2
Mg0 O4 2.057615 1_565
Mg0 N1 2.299867 1_555
Mg0 N0 2.299867 1_555
Mg0 O1 2.355572 1_665
Mg0 O2 2.355572 1_665
Mg0 O1 2.357767 1_565
Mg0 O2 2.357767 1_565
N0 Ti0 1.987795 1_555
N0 Ti5 2.023437 1_555
N0 Ti5 2.023810 1_455
N0 Ti2 2.275181 1_555
N1 Ti0 1.987795 1_555
N1 Ti4 2.023437 1_555
N1 Ti4 2.023810 1_455
N1 Ti1 2.275181 1_554
N2 Ti2 2.001026 1_655
N2 Ti2 2.001514 1_555
N2 Ti5 2.002137 1_555
N2 Ti3 2.033782 1_555
N3 Ti1 2.001026 1_655
N3 Ti1 2.001514 1_555
N3 Ti4 2.002137 1_556
N3 Ti3 2.033782 1_555
O0 Ti3 1.990274 1_455
O0 Ti3 1.990569 1_555
O0 Ti1 2.256474 1_555
O0 Ti2 2.256474 1_555
O1 Ti1 2.005197 1_554
O1 Ti4 2.045207 1_445
O1 Ti0 2.062077 1_555
O2 Ti2 2.005197 1_555
O2 Ti5 2.045207 1_445
O2 Ti0 2.062077 1_555
O3 Ti4 1.874242 1_556
O3 Ti1 2.022142 1_665
O3 Ti3 2.036567 1_555
O4 Ti0 1.934562 1_555
O4 Ti0 1.935940 1_655
O4 Ti5 2.602622 1_555
O4 Ti4 2.602622 1_555
O5 Ti5 1.874242 1_555
O5 Ti2 2.022142 1_665
O5 Ti3 2.036567 1_555
