# generated using pymatgen
data_MgTi6(H2O7)2
_symmetry_space_group_name_H-M   'P 1'
_cell_length_a   8.50977381
_cell_length_b   7.71854794
_cell_length_c   9.37179598
_cell_angle_alpha   76.14005730
_cell_angle_beta   102.25716531
_cell_angle_gamma   152.82325563
_symmetry_Int_Tables_number   1
_chemical_formula_structural   MgTi6(H2O7)2
_chemical_formula_sum   'Mg1 Ti6 H4 O14'
_cell_volume   272.96643869
_cell_formula_units_Z   1
loop_
 _symmetry_equiv_pos_site_id
 _symmetry_equiv_pos_as_xyz
  1  'x, y, z'
loop_
 _atom_site_type_symbol
 _atom_site_label
 _atom_site_symmetry_multiplicity
 _atom_site_fract_x
 _atom_site_fract_y
 _atom_site_fract_z
 _atom_site_occupancy
  Mg  Mg0  1  0.30668800  0.39987400  0.42669300  1
  Ti  Ti0  1  0.77535500  0.23976900  0.78155600  1
  Ti  Ti1  1  0.28091300  0.81259900  0.21018400  1
  Ti  Ti2  1  0.78866900  0.13985700  0.49286500  1
  Ti  Ti3  1  0.26753500  0.93566300  0.51092100  1
  Ti  Ti4  1  0.80301900  0.06227700  0.17231000  1
  Ti  Ti5  1  0.25050000  0.99862300  0.81764200  1
  H  H0  1  0.63176300  0.54669100  0.15813500  1
  H  H1  1  0.01490300  0.89973200  0.21665700  1
  H  H2  1  0.04643800  0.03903100  0.95892900  1
  H  H3  1  0.02291300  0.12102700  0.78982200  1
  O  O0  1  0.79206900  0.13307300  0.97057100  1
  O  O1  1  0.26769800  0.92062300  0.02367600  1
  O  O2  1  0.80498100  0.06337100  0.68837500  1
  O  O3  1  0.26322200  0.00546800  0.30626800  1
  O  O4  1  0.80223300  0.94802600  0.40532300  1
  O  O5  1  0.26586300  0.13263100  0.57659500  1
  O  O6  1  0.84787200  0.82641700  0.15065400  1
  O  O7  1  0.15301200  0.15098200  0.86172900  1
  O  O8  1  0.75378400  0.47195200  0.79819600  1
  O  O9  1  0.30159200  0.55374100  0.20166400  1
  O  O10  1  0.77066100  0.36769600  0.53196000  1
  O  O11  1  0.28790900  0.66560800  0.45760100  1
  O  O12  1  0.78301900  0.26958800  0.24820200  1
  O  O13  1  0.27218100  0.79125400  0.73799500  1
loop_
_geom_bond_atom_site_label_1
_geom_bond_atom_site_label_2
_geom_bond_distance
_geom_bond_site_symmetry_2
Mg0 O5 1.973076 1_555
Mg0 O4 1.983011 1_555
Mg0 O4 1.990907 1_445
Mg0 O9 2.170888 1_555
Mg0 O11 2.281194 1_555
H0 O6 0.982987 1_555
H1 O6 1.042354 1_455
H1 O3 1.530741 1_565
H2 O7 0.989110 1_555
H3 O7 1.017707 1_555
H3 O2 1.589643 1_455
O0 Ti0 1.799679 1_555
O0 Ti4 1.844636 1_556
O1 Ti1 1.774313 1_555
O1 Ti5 1.895287 1_554
O2 Ti2 1.801280 1_555
O2 Ti0 1.988416 1_555
O3 Ti3 1.865594 1_545
O3 Ti1 2.036714 1_545
O4 Ti2 1.950653 1_565
O4 Ti4 2.149316 1_565
O5 Ti3 1.783498 1_545
O5 Ti5 2.226111 1_545
O6 Ti4 2.224252 1_565
O7 Ti5 2.087110 1_545
O8 Ti5 1.970079 1_655
O8 Ti5 1.973979 1_545
O8 Ti0 2.000262 1_555
O9 Ti4 1.958459 1_455
O9 Ti4 1.967666 1_565
O9 Ti1 2.176543 1_555
O10 Ti3 2.011044 1_545
O10 Ti2 2.015532 1_555
O10 Ti3 2.023783 1_655
O10 Ti0 2.317796 1_555
O11 Ti2 1.973827 1_565
O11 Ti2 1.976278 1_455
O11 Ti1 2.338483 1_555
O11 Ti3 2.409032 1_555
O12 Ti1 1.991524 1_545
O12 Ti1 1.993869 1_655
O12 Ti4 2.043644 1_555
O12 Ti2 2.280649 1_555
O13 Ti0 2.010321 1_455
O13 Ti0 2.011697 1_565
O13 Ti5 2.075903 1_555
O13 Ti3 2.163094 1_555
