# generated using pymatgen
data_Na4Mg3SiGeS5O24
_symmetry_space_group_name_H-M   'P 1'
_cell_length_a   8.74726936
_cell_length_b   8.76776535
_cell_length_c   22.25681322
_cell_angle_alpha   90.76402590
_cell_angle_beta   89.57968086
_cell_angle_gamma   120.37678439
_symmetry_Int_Tables_number   1
_chemical_formula_structural   Na4Mg3SiGeS5O24
_chemical_formula_sum   'Na12 Mg9 Si3 Ge3 S15 O72'
_cell_volume   1472.49851104
_cell_formula_units_Z   3
loop_
 _symmetry_equiv_pos_site_id
 _symmetry_equiv_pos_as_xyz
  1  'x, y, z'
loop_
 _atom_site_type_symbol
 _atom_site_label
 _atom_site_symmetry_multiplicity
 _atom_site_fract_x
 _atom_site_fract_y
 _atom_site_fract_z
 _atom_site_occupancy
  Na  Na0  1  0.36162069  0.36173677  0.25061251  1
  Na  Na1  1  0.31272300  0.34218136  0.58693871  1
  Na  Na2  1  0.02318295  0.69669630  0.58241494  1
  Na  Na3  1  0.98205812  0.67544503  0.91876877  1
  Na  Na4  1  0.69951443  0.03146171  0.91331151  1
  Na  Na5  1  0.31645568  0.29168648  0.91899405  1
  Na  Na6  1  0.97771992  0.98629898  0.49894195  1
  Na  Na7  1  0.01203482  0.01094897  0.00060528  1
  Na  Na8  1  0.66632702  0.32777969  0.82889544  1
  Na  Na9  1  0.67651831  0.33095836  0.33247704  1
  Na  Na10  1  0.33119998  0.67584861  0.16645647  1
  Na  Na11  1  0.35908732  0.67505971  0.66578333  1
  Mg  Mg0  1  0.99710540  0.99822832  0.35116383  1
  Mg  Mg1  1  0.00469142  0.00615836  0.84992235  1
  Mg  Mg2  1  0.98283649  0.99038148  0.64940683  1
  Mg  Mg3  1  0.99858012  0.99643360  0.14843075  1
  Mg  Mg4  1  0.66198723  0.33723129  0.68572716  1
  Mg  Mg5  1  0.67272064  0.33291462  0.18619994  1
  Mg  Mg6  1  0.32519945  0.66381699  0.01918212  1
  Mg  Mg7  1  0.34641488  0.67236822  0.51643805  1
  Mg  Mg8  1  0.33441404  0.67627840  0.31705101  1
  Si  Si0  1  0.66410471  0.62732120  0.58449110  1
  Si  Si1  1  0.04419300  0.37640449  0.91899219  1
  Si  Si2  1  0.33298372  0.95814197  0.91972316  1
  Ge  Ge0  1  0.67091795  0.31907501  0.98368035  1
  Ge  Ge1  1  0.67329823  0.34401210  0.48238225  1
  Ge  Ge2  1  0.31835216  0.67537481  0.81845720  1
  S  S0  1  0.29179693  0.99766862  0.24951323  1
  S  S1  1  0.70595228  0.70695930  0.24997782  1
  S  S2  1  0.99934708  0.29261898  0.25044725  1
  S  S3  1  0.29685738  0.30385468  0.75138789  1
  S  S4  1  0.00434765  0.70417604  0.75097190  1
  S  S5  1  0.69534128  0.99269061  0.75246120  1
  S  S6  1  0.95228809  0.33005401  0.58229374  1
  S  S7  1  0.38163363  0.04500875  0.58296707  1
  S  S8  1  0.95348346  0.62169579  0.08339371  1
  S  S9  1  0.66768018  0.03933644  0.08400345  1
  S  S10  1  0.38021118  0.33560914  0.08369707  1
  S  S11  1  0.61971248  0.66383794  0.91674329  1
  S  S12  1  0.63018095  0.97163625  0.41860153  1
  S  S13  1  0.33584286  0.36791179  0.41706429  1
  S  S14  1  0.03535981  0.66218833  0.41872275  1
  O  O0  1  0.21129856  0.03024029  0.30333983  1
  O  O1  1  0.81282167  0.78874872  0.30423903  1
  O  O2  1  0.97447509  0.18603401  0.30425587  1
  O  O3  1  0.21061322  0.19917900  0.80540135  1
  O  O4  1  0.98246466  0.78694967  0.80585924  1
  O  O5  1  0.79744719  0.01480314  0.80763028  1
  O  O6  1  0.77838069  0.96692605  0.69871284  1
  O  O7  1  0.19106093  0.22262664  0.69613092  1
  O  O8  1  0.03231531  0.80981921  0.69674047  1
  O  O9  1  0.78671155  0.81215948  0.19574147  1
  O  O10  1  0.03150374  0.21211635  0.19620179  1
  O  O11  1  0.18535045  0.97227515  0.19508033  1
  O  O12  1  0.87086317  0.35716779  0.63558158  1
  O  O13  1  0.49083504  0.11933485  0.63616696  1
  O  O14  1  0.62437878  0.49470630  0.63867612  1
  O  O15  1  0.86240108  0.51114777  0.13446357  1
  O  O16  1  0.64276605  0.13025614  0.13460190  1
  O  O17  1  0.48556043  0.35452163  0.13702836  1
  O  O18  1  0.46480565  0.30623750  0.02562290  1
  O  O19  1  0.84161679  0.53907270  0.02477612  1
  O  O20  1  0.70009416  0.14803303  0.02500186  1
  O  O21  1  0.46206513  0.15793473  0.52725330  1
  O  O22  1  0.71300400  0.53400976  0.52272969  1
  O  O23  1  0.83925844  0.29000996  0.52624333  1
  O  O24  1  0.54819365  0.70079930  0.97068268  1
  O  O25  1  0.17534029  0.45259125  0.97402197  1
  O  O26  1  0.29849352  0.83614197  0.97533763  1
  O  O27  1  0.54780979  0.86677534  0.47222244  1
  O  O28  1  0.31230617  0.45078818  0.47160822  1
  O  O29  1  0.13556249  0.68421205  0.47435222  1
  O  O30  1  0.11867824  0.63555509  0.36539235  1
  O  O31  1  0.52300869  0.89565367  0.36422961  1
  O  O32  1  0.36594678  0.47545835  0.36286508  1
  O  O33  1  0.12374300  0.50993764  0.85784127  1
  O  O34  1  0.39282508  0.88315662  0.85818994  1
  O  O35  1  0.50365011  0.62308824  0.86219490  1
  O  O36  1  0.00918910  0.81484990  0.41283584  1
  O  O37  1  0.80907182  0.99616687  0.41203457  1
  O  O38  1  0.17906911  0.18924428  0.41102029  1
  O  O39  1  0.99901341  0.17650183  0.90758274  1
  O  O40  1  0.16493451  0.98226591  0.90826879  1
  O  O41  1  0.79925030  0.81782800  0.90727730  1
  O  O42  1  0.98479565  0.18070773  0.58749497  1
  O  O43  1  0.20718498  0.03661600  0.58876900  1
  O  O44  1  0.84873123  0.81583369  0.58569637  1
  O  O45  1  0.96868885  0.79708357  0.08604721  1
  O  O46  1  0.82966050  0.02794197  0.08743178  1
  O  O47  1  0.20311441  0.17453655  0.08579778  1
  O  O48  1  0.67358036  0.14815554  0.74653790  1
  O  O49  1  0.47317712  0.32073916  0.74758448  1
  O  O50  1  0.85171505  0.52364496  0.74611893  1
  O  O51  1  0.68103625  0.52515262  0.24426635  1
  O  O52  1  0.84280751  0.31303113  0.24417530  1
  O  O53  1  0.47026628  0.16217989  0.24388486  1
  O  O54  1  0.63803736  0.50288190  0.92232119  1
  O  O55  1  0.84636701  0.36787681  0.92696193  1
  O  O56  1  0.51371022  0.16368667  0.92675896  1
  O  O57  1  0.64535969  0.15560527  0.42535724  1
  O  O58  1  0.50165024  0.35090250  0.42229461  1
  O  O59  1  0.85374549  0.48896498  0.42150817  1
  O  O60  1  0.37012057  0.49680738  0.07796389  1
  O  O61  1  0.12756771  0.63605849  0.07838601  1
  O  O62  1  0.50911546  0.86438557  0.07707681  1
  O  O63  1  0.34623141  0.86279106  0.57382731  1
  O  O64  1  0.48647207  0.63846393  0.57612012  1
  O  O65  1  0.12638416  0.49550405  0.57414109  1
  O  O66  1  0.31240447  0.84148373  0.25581612  1
  O  O67  1  0.52374022  0.68208170  0.25607961  1
  O  O68  1  0.16384466  0.47108506  0.25681317  1
  O  O69  1  0.31428071  0.48583978  0.75709383  1
  O  O70  1  0.17580787  0.69500575  0.75480790  1
  O  O71  1  0.51458072  0.82140569  0.75640269  1
loop_
_geom_bond_atom_site_label_1
_geom_bond_atom_site_label_2
_geom_bond_distance
_geom_bond_site_symmetry_2
Na0 O68 2.366765 1_555
Na0 O53 2.378982 1_555
Na0 O51 2.414583 1_555
Na0 O67 2.424823 1_555
Na0 O32 2.671016 1_555
Na0 O17 2.755926 1_555
Na0 O10 2.775537 1_555
Na0 O0 2.785130 1_555
Na1 O64 2.265923 1_555
Na1 O43 2.352141 1_555
Na1 O42 2.474946 1_455
Na1 O65 2.603479 1_555
Na1 O14 2.619933 1_555
Na1 O7 2.653171 1_555
Na1 O28 2.750369 1_555
Na1 O21 2.851735 1_555
Na2 O44 2.243546 1_455
Na2 O65 2.357959 1_555
Na2 O63 2.445395 1_555
Na2 O43 2.575580 1_565
Na2 O29 2.613440 1_555
Na2 O22 2.692405 1_455
Na2 O8 2.705597 1_555
Na2 O12 2.845488 1_455
Na3 O55 2.342423 1_555
Na3 O40 2.347213 1_655
Na3 O41 2.492859 1_555
Na3 O54 2.597290 1_555
Na3 O19 2.655683 1_556
Na3 O33 2.687459 1_655
Na3 O26 2.700267 1_655
Na3 O4 2.707929 1_555
Na4 O39 2.264238 1_555
Na4 O41 2.435545 1_545
Na4 O56 2.442207 1_555
Na4 O5 2.524974 1_555
Na4 O55 2.567566 1_555
Na4 O34 2.621168 1_545
Na4 O20 2.674209 1_556
Na4 O24 2.824983 1_545
Na5 O40 2.350409 1_545
Na5 O39 2.441748 1_455
Na5 O54 2.465454 1_555
Na5 O56 2.496893 1_555
Na5 O25 2.589775 1_555
Na5 O3 2.669657 1_555
Na5 O18 2.683659 1_556
Na5 O35 2.824503 1_555
Na6 O44 2.361069 1_555
Na6 O37 2.469937 1_555
Na6 O36 2.518364 1_655
Na6 O42 2.568897 1_565
Na6 O38 2.640117 1_665
Na6 O43 2.712985 1_665
Na7 O47 2.448573 1_555
Na7 O40 2.522221 1_544
Na7 O46 2.547364 1_455
Na7 O45 2.577138 1_445
Na7 O39 2.580159 1_454
Na7 O41 2.724266 1_444
Na8 O48 2.422118 1_555
Na8 O49 2.463703 1_555
Na8 O50 2.489397 1_555
Na8 O56 2.587424 1_555
Na8 O55 2.614907 1_555
Na8 O54 2.652079 1_555
Na9 O59 2.459438 1_555
Na9 O52 2.486768 1_555
Na9 O57 2.522723 1_555
Na9 O58 2.565707 1_555
Na9 O53 2.570393 1_555
Na9 O51 2.602890 1_555
Na10 O66 2.500256 1_555
Na10 O61 2.557585 1_555
Na10 O62 2.559752 1_555
Na10 O67 2.602258 1_555
Na10 O68 2.608746 1_555
Na10 O60 2.628221 1_555
Na11 O64 2.374643 1_555
Na11 O71 2.402173 1_555
Na11 O69 2.541020 1_555
Na11 O70 2.598939 1_555
Na11 O63 2.681622 1_555
Na11 O65 2.741590 1_555
Mg0 O1 2.010424 1_555
Mg0 O0 2.041813 1_665
Mg0 O2 2.054050 1_565
Mg0 O38 2.094930 1_665
Mg0 O37 2.116359 1_555
Mg0 O36 2.170993 1_655
Mg1 O39 1.975608 1_455
Mg1 O40 2.006470 1_545
Mg1 O3 2.006485 1_555
Mg1 O4 2.065952 1_445
Mg1 O5 2.084224 1_455
Mg1 O41 2.146389 1_445
Mg2 O44 1.969708 1_555
Mg2 O6 2.012535 1_555
Mg2 O8 2.132512 1_655
Mg2 O42 2.171590 1_565
Mg2 O7 2.183033 1_665
Mg2 O43 2.237876 1_665
Mg3 O9 2.035242 1_555
Mg3 O11 2.042715 1_655
Mg3 O10 2.046842 1_665
Mg3 O45 2.128281 1_555
Mg3 O46 2.134254 1_565
Mg3 O47 2.185993 1_665
Mg4 O14 1.901104 1_555
Mg4 O13 2.045307 1_555
Mg4 O12 2.065610 1_555
Mg4 O49 2.091519 1_555
Mg4 O50 2.112610 1_555
Mg4 O48 2.195951 1_555
Mg5 O15 1.979528 1_555
Mg5 O16 2.005957 1_555
Mg5 O52 2.050710 1_555
Mg5 O17 2.063814 1_555
Mg5 O51 2.082238 1_555
Mg5 O53 2.088581 1_555
Mg6 O25 1.916468 1_554
Mg6 O26 1.920754 1_554
Mg6 O61 2.081750 1_555
Mg6 O24 2.100930 1_554
Mg6 O62 2.109429 1_555
Mg6 O60 2.156563 1_555
Mg7 O64 1.938164 1_555
Mg7 O27 1.989886 1_555
Mg7 O28 2.055560 1_555
Mg7 O63 2.089214 1_555
Mg7 O29 2.124048 1_555
Mg7 O65 2.180996 1_555
Mg8 O30 2.035987 1_555
Mg8 O31 2.070283 1_555
Mg8 O66 2.081148 1_555
Mg8 O67 2.114329 1_555
Mg8 O68 2.123805 1_555
Mg8 O32 2.181563 1_555
Ge0 O56 1.853888 1_555
Ge0 O55 1.858444 1_555
Ge0 O20 1.893998 1_556
Ge0 O19 1.961335 1_556
Ge0 O18 1.976739 1_556
Ge0 O54 2.253478 1_555
Ge1 O22 1.755460 1_555
Ge1 O59 1.981916 1_555
Ge1 O57 1.984873 1_555
Ge1 O23 2.003216 1_555
Ge1 O21 2.010162 1_555
Ge1 O58 2.042031 1_555
Ge2 O33 1.812433 1_555
Ge2 O34 1.813976 1_555
Ge2 O70 1.959752 1_555
Ge2 O71 2.069495 1_555
Ge2 O69 2.123312 1_555
Ge2 O35 2.138108 1_555
O0 S0 1.481374 1_545
O1 S1 1.470409 1_555
O2 S2 1.474893 1_555
O3 S3 1.473944 1_555
O4 S4 1.472790 1_655
O5 S5 1.475677 1_545
O6 S5 1.468227 1_555
O7 S3 1.484222 1_555
O8 S4 1.473431 1_555
O9 S1 1.471445 1_555
O10 S2 1.485950 1_455
O11 S0 1.477829 1_555
O12 S6 1.456632 1_555
O13 S7 1.451056 1_555
O14 Si0 1.596784 1_555
O15 S8 1.449584 1_555
O16 S9 1.448916 1_555
O17 S10 1.463516 1_555
O18 S10 1.566642 1_555
O19 S8 1.568754 1_555
O20 S9 1.570903 1_555
O21 S7 1.525896 1_555
O22 Si0 1.748474 1_555
O23 S6 1.520659 1_555
O24 S11 1.456462 1_555
O25 Si1 1.576743 1_555
O26 Si2 1.571881 1_555
O27 S12 1.461296 1_555
O28 S13 1.472494 1_555
O29 S14 1.475428 1_555
O30 S14 1.465133 1_555
O31 S12 1.466499 1_555
O32 S13 1.479255 1_555
O33 Si1 1.706454 1_555
O34 Si2 1.701585 1_555
O35 S11 1.507310 1_555
O36 S14 1.475185 1_555
O37 S12 1.474226 1_555
O38 S13 1.475493 1_555
O39 Si1 1.606763 1_655
O40 Si2 1.609949 1_555
O41 S11 1.480512 1_555
O42 S6 1.479855 1_555
O43 S7 1.494794 1_555
O44 Si0 1.624977 1_555
O45 S8 1.475371 1_555
O46 S9 1.472521 1_555
O47 S10 1.477997 1_555
O48 S5 1.476201 1_545
O49 S3 1.474897 1_555
O50 S4 1.469649 1_655
O51 S1 1.499418 1_555
O52 S2 1.475737 1_555
O53 S0 1.502628 1_545
O54 S11 1.505459 1_555
O55 Si1 1.701900 1_655
O56 Si2 1.698881 1_545
O57 S12 1.555386 1_545
O58 S13 1.536567 1_555
O59 S14 1.547624 1_655
O60 S10 1.467232 1_555
O61 S8 1.466639 1_455
O62 S9 1.464775 1_565
O63 S7 1.477032 1_565
O64 Si0 1.617657 1_555
O65 S6 1.491678 1_455
O66 S0 1.477347 1_555
O67 S1 1.500804 1_555
O68 S2 1.502970 1_455
O69 S3 1.527822 1_555
O70 S4 1.545057 1_555
O71 S5 1.537220 1_555
