# generated using pymatgen
data_Na7Sc3Zn(PO4)6
_symmetry_space_group_name_H-M   'P 1'
_cell_length_a   9.07254980
_cell_length_b   9.07481548
_cell_length_c   22.39972679
_cell_angle_alpha   90.02371311
_cell_angle_beta   90.01680081
_cell_angle_gamma   120.04612874
_symmetry_Int_Tables_number   1
_chemical_formula_structural   Na7Sc3Zn(PO4)6
_chemical_formula_sum   'Na21 Sc9 Zn3 P18 O72'
_cell_volume   1596.38761282
_cell_formula_units_Z   3
loop_
 _symmetry_equiv_pos_site_id
 _symmetry_equiv_pos_as_xyz
  1  'x, y, z'
loop_
 _atom_site_type_symbol
 _atom_site_label
 _atom_site_symmetry_multiplicity
 _atom_site_fract_x
 _atom_site_fract_y
 _atom_site_fract_z
 _atom_site_occupancy
  Na  Na0  1  0.63717533  0.00832693  0.24592031  1
  Na  Na1  1  0.37086869  0.36172084  0.24619671  1
  Na  Na2  1  0.99071494  0.62931974  0.24546032  1
  Na  Na3  1  0.63611024  0.62784917  0.74643429  1
  Na  Na4  1  0.99153520  0.36372100  0.74740252  1
  Na  Na5  1  0.37383378  0.00837838  0.74683238  1
  Na  Na6  1  0.02891929  0.69665796  0.58433403  1
  Na  Na7  1  0.66460991  0.96965263  0.58412037  1
  Na  Na8  1  0.30607203  0.97071843  0.08432704  1
  Na  Na9  1  0.66737877  0.69536267  0.08465078  1
  Na  Na10  1  0.69688897  0.03158943  0.91892878  1
  Na  Na11  1  0.33211580  0.30127027  0.91837266  1
  Na  Na12  1  0.96837253  0.29381816  0.41305860  1
  Na  Na13  1  0.32512404  0.03119479  0.41337768  1
  Na  Na14  1  0.70764764  0.67569928  0.41300151  1
  Na  Na15  1  0.00997992  0.01057216  0.49810501  1
  Na  Na16  1  0.00003695  0.99968706  0.00140498  1
  Na  Na17  1  0.67714815  0.34447315  0.83250083  1
  Na  Na18  1  0.66678570  0.33341465  0.32799874  1
  Na  Na19  1  0.32142219  0.65405066  0.16429647  1
  Na  Na20  1  0.33275356  0.65448768  0.66446626  1
  Sc  Sc0  1  0.99935936  0.99357752  0.85192071  1
  Sc  Sc1  1  0.00579943  0.00625967  0.64805516  1
  Sc  Sc2  1  0.00058171  0.00672691  0.14943847  1
  Sc  Sc3  1  0.67595342  0.34003591  0.98347957  1
  Sc  Sc4  1  0.66319327  0.33318081  0.48390521  1
  Sc  Sc5  1  0.32470644  0.66084395  0.01763119  1
  Sc  Sc6  1  0.33285155  0.66071959  0.51821342  1
  Sc  Sc7  1  0.33355951  0.66694539  0.31591569  1
  Sc  Sc8  1  0.32987760  0.66632091  0.81644226  1
  Zn  Zn0  1  0.00053994  0.00024379  0.34496439  1
  Zn  Zn1  1  0.66368996  0.33358031  0.67864790  1
  Zn  Zn2  1  0.67028176  0.33393997  0.17825196  1
  P  P0  1  0.29647405  0.00101290  0.25105667  1
  P  P1  1  0.70427045  0.70356252  0.25131428  1
  P  P2  1  0.99885414  0.29563925  0.25278323  1
  P  P3  1  0.29574785  0.29538871  0.75151630  1
  P  P4  1  -0.00038160  0.70410943  0.74853139  1
  P  P5  1  0.70488167  0.00028989  0.75009312  1
  P  P6  1  0.96136635  0.33418876  0.58450483  1
  P  P7  1  0.37040592  0.03642283  0.58403430  1
  P  P8  1  0.66588349  0.62961666  0.58516098  1
  P  P9  1  0.96341549  0.62966543  0.08632961  1
  P  P10  1  0.66608133  0.03660998  0.08357786  1
  P  P11  1  0.37305530  0.33414515  0.08386886  1
  P  P12  1  0.62756617  0.66637091  0.91688955  1
  P  P13  1  0.03690290  0.37023424  0.91470193  1
  P  P14  1  0.33333402  0.96348888  0.91720226  1
  P  P15  1  0.62959521  0.96307349  0.41738097  1
  P  P16  1  0.33310847  0.37045559  0.41568091  1
  P  P17  1  0.03738864  0.66668544  0.41744316  1
  O  O0  1  0.21684087  0.02770609  0.30818905  1
  O  O1  1  0.81094515  0.78378774  0.30842197  1
  O  O2  1  0.97142084  0.19266086  0.31082239  1
  O  O3  1  0.21178441  0.18923388  0.80854858  1
  O  O4  1  0.97701541  0.79751712  0.80241984  1
  O  O5  1  0.81535957  0.02201749  0.80595962  1
  O  O6  1  0.78953721  0.97329929  0.69397219  1
  O  O7  1  0.17811777  0.20557680  0.69742097  1
  O  O8  1  0.02715813  0.81178320  0.69144188  1
  O  O9  1  0.79186257  0.81724319  0.19597115  1
  O  O10  1  0.02688979  0.20388615  0.19947355  1
  O  O11  1  0.18284350  0.97476665  0.19564169  1
  O  O12  1  0.88260329  0.36342889  0.64093795  1
  O  O13  1  0.47827603  0.11343716  0.64056489  1
  O  O14  1  0.64355522  0.52861156  0.64243003  1
  O  O15  1  0.88945943  0.53233191  0.14457107  1
  O  O16  1  0.63543429  0.11403708  0.14002114  1
  O  O17  1  0.48175283  0.36381776  0.14026070  1
  O  O18  1  0.46040449  0.30834394  0.02806275  1
  O  O19  1  0.84447439  0.53877790  0.03262930  1
  O  O20  1  0.68616065  0.14377435  0.02705500  1
  O  O21  1  0.45771354  0.14362062  0.52760175  1
  O  O22  1  0.69202691  0.54326304  0.52934921  1
  O  O23  1  0.84804391  0.30864183  0.52881625  1
  O  O24  1  0.54078243  0.69137048  0.97227698  1
  O  O25  1  0.15388799  0.46000157  0.96823588  1
  O  O26  1  0.31496407  0.85758210  0.97318538  1
  O  O27  1  0.54027038  0.85285653  0.47299624  1
  O  O28  1  0.30989076  0.46329066  0.46940774  1
  O  O29  1  0.14760639  0.68872751  0.47322781  1
  O  O30  1  0.12258149  0.64014885  0.36152456  1
  O  O31  1  0.51822728  0.87769729  0.36132677  1
  O  O32  1  0.36096740  0.47789493  0.35856778  1
  O  O33  1  0.11650340  0.47193377  0.85669199  1
  O  O34  1  0.35872497  0.87848706  0.86092288  1
  O  O35  1  0.51585786  0.64058774  0.86075683  1
  O  O36  1  0.01842796  0.82646324  0.41324313  1
  O  O37  1  0.80842270  0.98197943  0.41359727  1
  O  O38  1  0.17448119  0.19083555  0.41235125  1
  O  O39  1  0.01834696  0.18945618  0.91186653  1
  O  O40  1  0.17797673  0.99072488  0.91267826  1
  O  O41  1  0.80439422  0.82972163  0.91162345  1
  O  O42  1  0.97392553  0.16980864  0.58862897  1
  O  O43  1  0.18783289  0.01026571  0.58783199  1
  O  O44  1  0.83038871  0.81039480  0.58771310  1
  O  O45  1  0.98005573  0.81021242  0.08877830  1
  O  O46  1  0.82200579  0.00952635  0.08796527  1
  O  O47  1  0.19611356  0.16947695  0.08854746  1
  O  O48  1  0.68537470  0.15957213  0.74603557  1
  O  O49  1  0.47418278  0.31446996  0.74628573  1
  O  O50  1  0.84090586  0.52498876  0.74540783  1
  O  O51  1  0.68069354  0.52322505  0.24540054  1
  O  O52  1  0.84128908  0.31718986  0.24533705  1
  O  O53  1  0.47692490  0.15792971  0.24484307  1
  O  O54  1  0.64116575  0.50361214  0.92238785  1
  O  O55  1  0.85553759  0.34365352  0.92139266  1
  O  O56  1  0.49710509  0.14274465  0.92123137  1
  O  O57  1  0.64550308  0.14219311  0.42200450  1
  O  O58  1  0.49602508  0.35467339  0.42201563  1
  O  O59  1  0.85786111  0.50385416  0.42239803  1
  O  O60  1  0.35551358  0.49497645  0.07652247  1
  O  O61  1  0.14672063  0.66009981  0.07829951  1
  O  O62  1  0.50415815  0.85458938  0.07780098  1
  O  O63  1  0.35018643  0.85473762  0.57838579  1
  O  O64  1  0.51298272  0.66063201  0.57853762  1
  O  O65  1  0.13979074  0.49497313  0.57742831  1
  O  O66  1  0.31159170  0.83626955  0.25495931  1
  O  O67  1  0.52429163  0.68864584  0.25495385  1
  O  O68  1  0.16275356  0.47616927  0.25570143  1
  O  O69  1  0.31352424  0.47555995  0.75520379  1
  O  O70  1  0.16321024  0.68870904  0.75447396  1
  O  O71  1  0.52518681  0.83688985  0.75500496  1
loop_
_geom_bond_atom_site_label_1
_geom_bond_atom_site_label_2
_geom_bond_distance
_geom_bond_site_symmetry_2
Na0 O53 2.435990 1_555
Na0 O52 2.467369 1_555
Na0 O67 2.555634 1_545
Na0 O16 2.562120 1_555
Na0 O66 2.566386 1_545
Na0 O31 2.824105 1_545
Na0 O9 2.943567 1_545
Na0 O2 3.003864 1_555
Na1 O51 2.433952 1_555
Na1 O53 2.475645 1_555
Na1 O17 2.574005 1_555
Na1 O67 2.577169 1_555
Na1 O68 2.579315 1_555
Na1 O32 2.747362 1_555
Na1 O10 2.899438 1_555
Na1 O0 2.971816 1_555
Na2 O15 2.431696 1_555
Na2 O52 2.452692 1_555
Na2 O51 2.475148 1_555
Na2 O66 2.563514 1_655
Na2 O68 2.567630 1_655
Na2 O30 2.842565 1_655
Na2 O11 2.939916 1_655
Na2 O1 2.983819 1_555
Na3 O50 2.461878 1_555
Na3 O49 2.462123 1_555
Na3 O14 2.510417 1_555
Na3 O69 2.542481 1_555
Na3 O71 2.561208 1_555
Na3 O35 2.808734 1_555
Na3 O4 2.955779 1_555
Na3 O6 2.963164 1_555
Na4 O48 2.448529 1_555
Na4 O50 2.452368 1_555
Na4 O70 2.558983 1_655
Na4 O69 2.573897 1_655
Na4 O12 2.580674 1_555
Na4 O33 2.669123 1_655
Na5 O48 2.447112 1_555
Na5 O49 2.452016 1_555
Na5 O71 2.545767 1_545
Na5 O70 2.558467 1_545
Na5 O13 2.563492 1_555
Na5 O34 2.789298 1_545
Na6 O43 2.464755 1_565
Na6 O44 2.485350 1_455
Na6 O65 2.495799 1_555
Na6 O63 2.526755 1_555
Na6 O8 2.619637 1_555
Na6 O29 2.727190 1_555
Na6 O12 2.915239 1_455
Na6 O22 2.921038 1_455
Na7 O64 2.430775 1_555
Na7 O42 2.465756 1_565
Na7 O63 2.502434 1_555
Na7 O44 2.556179 1_555
Na7 O6 2.702083 1_555
Na7 O27 2.718579 1_555
Na7 O13 2.892710 1_565
Na7 O23 2.940288 1_565
Na8 O61 2.443909 1_555
Na8 O47 2.461558 1_565
Na8 O62 2.501658 1_555
Na8 O45 2.562452 1_455
Na8 O26 2.709127 1_554
Na8 O11 2.740636 1_555
Na8 O16 2.877783 1_565
Na8 O18 2.940160 1_565
Na9 O46 2.469062 1_565
Na9 O45 2.486194 1_555
Na9 O60 2.488495 1_555
Na9 O62 2.539102 1_555
Na9 O9 2.731628 1_555
Na9 O24 2.759176 1_554
Na9 O19 2.871332 1_555
Na9 O17 2.893175 1_555
Na10 O55 2.452056 1_555
Na10 O41 2.474484 1_545
Na10 O56 2.477176 1_555
Na10 O39 2.529733 1_655
Na10 O20 2.647511 1_556
Na10 O5 2.767857 1_555
Na10 O24 2.931095 1_545
Na10 O34 2.959540 1_545
Na11 O40 2.442730 1_545
Na11 O54 2.466880 1_555
Na11 O39 2.502308 1_555
Na11 O56 2.543754 1_555
Na11 O3 2.676216 1_555
Na11 O18 2.705394 1_556
Na11 O25 2.875626 1_555
Na11 O35 2.964881 1_555
Na12 O37 2.449884 1_545
Na12 O2 2.472159 1_555
Na12 O38 2.473915 1_655
Na12 O57 2.545259 1_555
Na12 O59 2.568167 1_555
Na12 O23 2.842824 1_555
Na12 O30 2.961141 1_655
Na12 O28 2.963613 1_655
Na13 O38 2.439251 1_555
Na13 O36 2.453027 1_545
Na13 O0 2.546609 1_555
Na13 O58 2.549549 1_555
Na13 O57 2.562850 1_555
Na13 O21 2.793089 1_555
Na14 O36 2.441076 1_655
Na14 O37 2.452872 1_555
Na14 O1 2.531922 1_555
Na14 O59 2.542014 1_555
Na14 O58 2.571699 1_555
Na14 O22 2.844080 1_555
Na15 O38 2.480439 1_555
Na15 O37 2.552826 1_445
Na15 O36 2.556627 1_545
Na15 O43 2.577941 1_555
Na15 O42 2.603471 1_455
Na15 O44 2.650384 1_445
Na16 O45 2.551590 1_455
Na16 O46 2.553896 1_465
Na16 O47 2.568949 1_565
Na16 O40 2.587663 1_554
Na16 O39 2.594697 1_564
Na16 O41 2.613006 1_454
Na17 O50 2.502766 1_555
Na17 O55 2.567935 1_555
Na17 O49 2.586477 1_555
Na17 O48 2.587480 1_555
Na17 O54 2.591564 1_555
Na17 O56 2.642011 1_555
Na18 O51 2.488211 1_555
Na18 O52 2.488275 1_555
Na18 O53 2.494267 1_555
Na18 O57 2.673998 1_555
Na18 O58 2.678293 1_555
Na18 O59 2.679325 1_555
Na19 O61 2.512229 1_555
Na19 O60 2.547602 1_555
Na19 O68 2.558814 1_555
Na19 O62 2.607247 1_555
Na19 O66 2.647945 1_555
Na19 O67 2.651141 1_555
Na20 O64 2.508424 1_555
Na20 O65 2.533622 1_555
Na20 O69 2.552893 1_555
Na20 O63 2.600093 1_555
Na20 O71 2.646156 1_555
Na20 O70 2.647070 1_555
O0 P0 1.547239 1_555
O0 Zn0 2.025606 1_555
O1 P1 1.547887 1_555
O1 Zn0 2.025235 1_665
O2 P2 1.547157 1_555
O2 Zn0 2.041235 1_655
O3 P3 1.551469 1_555
O3 Sc0 2.094402 1_445
O4 P4 1.546286 1_655
O4 Sc0 2.018216 1_555
O5 P5 1.552629 1_555
O5 Sc0 2.084198 1_545
O6 P5 1.555268 1_565
O6 Sc1 2.100174 1_665
O7 P3 1.548829 1_555
O7 Sc1 2.025864 1_555
O8 P4 1.552171 1_555
O8 Sc1 2.107242 1_565
O9 P1 1.553461 1_555
O9 Sc2 2.090685 1_665
O10 P2 1.547693 1_455
O10 Sc2 2.021094 1_555
O11 P0 1.553518 1_565
O11 Sc2 2.090227 1_565
O12 P6 1.539182 1_555
O12 Zn1 2.047907 1_555
O13 P7 1.537293 1_555
O13 Zn1 2.044732 1_555
O14 P8 1.530355 1_555
O14 Zn1 2.036870 1_555
O15 P9 1.529816 1_555
O15 Zn2 2.044903 1_555
O16 P10 1.537728 1_555
O16 Zn2 2.045061 1_555
O17 P11 1.540674 1_555
O17 Zn2 2.046228 1_555
O18 P11 1.559359 1_555
O18 Sc3 2.083862 1_554
O19 P9 1.548800 1_555
O19 Sc3 2.009599 1_554
O20 P10 1.551027 1_555
O20 Sc3 2.073632 1_554
O21 P7 1.549717 1_555
O21 Sc4 2.045396 1_555
O22 P8 1.555239 1_555
O22 Sc4 2.058646 1_555
O23 P6 1.557927 1_555
O23 Sc4 2.060909 1_555
O24 P12 1.545913 1_555
O24 Sc5 2.099864 1_556
O25 P13 1.536447 1_555
O25 Sc5 2.028953 1_556
O26 P14 1.537762 1_555
O26 Sc5 2.084693 1_556
O27 P15 1.548876 1_555
O27 Sc6 2.079454 1_555
O28 P16 1.542549 1_555
O28 Sc6 2.018168 1_555
O29 P17 1.549222 1_555
O29 Sc6 2.081235 1_555
O30 P17 1.552742 1_555
O30 Sc7 2.074104 1_555
O31 P15 1.553135 1_555
O31 Sc7 2.070776 1_555
O32 P16 1.550999 1_555
O32 Sc7 2.084778 1_555
O33 P13 1.547858 1_555
O33 Sc8 2.062727 1_555
O34 P14 1.553903 1_555
O34 Sc8 2.064440 1_555
O35 P12 1.557042 1_555
O35 Sc8 2.068979 1_555
O36 P17 1.546184 1_555
O36 Zn0 2.260671 1_565
O37 P15 1.546033 1_555
O37 Zn0 2.267477 1_665
O38 P16 1.544152 1_555
O38 Zn0 2.241308 1_555
O39 P13 1.564304 1_555
O39 Sc0 2.164182 1_445
O40 P14 1.551388 1_555
O40 Sc0 2.125953 1_455
O41 P12 1.550441 1_555
O41 Sc0 2.120717 1_555
O42 P6 1.554690 1_555
O42 Sc1 2.118847 1_655
O43 P7 1.553583 1_555
O43 Sc1 2.118909 1_555
O44 P8 1.571656 1_555
O44 Sc1 2.164026 1_665
O45 P9 1.569229 1_555
O45 Sc2 2.174051 1_665
O46 P10 1.555429 1_555
O46 Sc2 2.135770 1_655
O47 P11 1.555331 1_555
O47 Sc2 2.137296 1_555
O48 P5 1.544408 1_555
O48 Zn1 2.263541 1_555
O49 P3 1.543967 1_555
O49 Zn1 2.232646 1_555
O50 P4 1.541588 1_655
O50 Zn1 2.244597 1_555
O51 P1 1.546217 1_555
O51 Zn2 2.248811 1_555
O52 P2 1.545778 1_555
O52 Zn2 2.218834 1_555
O53 P0 1.546978 1_555
O53 Zn2 2.247478 1_555
O54 P12 1.547440 1_555
O54 Sc3 2.155535 1_555
O55 P13 1.546238 1_655
O55 Sc3 2.130161 1_555
O56 P14 1.562508 1_545
O56 Sc3 2.206805 1_555
O57 P15 1.561621 1_545
O57 Sc4 2.161374 1_555
O58 P16 1.561158 1_555
O58 Sc4 2.134317 1_555
O59 P17 1.561671 1_655
O59 Sc4 2.163381 1_555
O60 P11 1.554148 1_555
O60 Sc5 2.122892 1_555
O61 P9 1.553904 1_455
O61 Sc5 2.108247 1_555
O62 P10 1.572597 1_565
O62 Sc5 2.165347 1_555
O63 P7 1.570034 1_565
O63 Sc6 2.159173 1_555
O64 P8 1.554494 1_555
O64 Sc6 2.120529 1_555
O65 P6 1.552286 1_455
O65 Sc6 2.110554 1_555
O66 P0 1.570656 1_565
O66 Sc7 2.138552 1_555
O67 P1 1.571613 1_555
O67 Sc7 2.134992 1_555
O68 P2 1.568347 1_455
O68 Sc7 2.127942 1_555
O69 P3 1.562673 1_555
O69 Sc8 2.154330 1_555
O70 P4 1.564512 1_555
O70 Sc8 2.135674 1_555
O71 P5 1.564659 1_565
O71 Sc8 2.164767 1_555
