# generated using pymatgen
data_Na3Ta3GaSi3(PO8)3
_symmetry_space_group_name_H-M   'P 1'
_cell_length_a   8.79357629
_cell_length_b   8.81451164
_cell_length_c   22.62534492
_cell_angle_alpha   89.98712135
_cell_angle_beta   90.07466746
_cell_angle_gamma   119.90237305
_symmetry_Int_Tables_number   1
_chemical_formula_structural   Na3Ta3GaSi3(PO8)3
_chemical_formula_sum   'Na9 Ta9 Ga3 Si9 P9 O72'
_cell_volume   1520.25209071
_cell_formula_units_Z   3
loop_
 _symmetry_equiv_pos_site_id
 _symmetry_equiv_pos_as_xyz
  1  'x, y, z'
loop_
 _atom_site_type_symbol
 _atom_site_label
 _atom_site_symmetry_multiplicity
 _atom_site_fract_x
 _atom_site_fract_y
 _atom_site_fract_z
 _atom_site_occupancy
  Na  Na0  1  0.63855798  0.00292932  0.24856408  1
  Na  Na1  1  0.37288594  0.36272200  0.24735067  1
  Na  Na2  1  0.70674515  0.67511967  0.41396061  1
  Na  Na3  1  0.00727201  0.00717863  0.49328673  1
  Na  Na4  1  0.00215613  0.00179754  0.99937233  1
  Na  Na5  1  0.66713745  0.33334891  0.82926327  1
  Na  Na6  1  0.67597211  0.33702868  0.33127618  1
  Na  Na7  1  0.32749270  0.66417285  0.16431461  1
  Na  Na8  1  0.33546582  0.66588311  0.66522530  1
  Ta  Ta0  1  0.00097096  0.00119960  0.85520344  1
  Ta  Ta1  1  0.99804372  0.99781893  0.64378781  1
  Ta  Ta2  1  0.99846803  0.99851900  0.14477702  1
  Ta  Ta3  1  0.66092741  0.33148940  0.97696059  1
  Ta  Ta4  1  0.66762912  0.33493818  0.47841686  1
  Ta  Ta5  1  0.33430677  0.66361654  0.02094872  1
  Ta  Ta6  1  0.33571821  0.66477470  0.52039045  1
  Ta  Ta7  1  0.33229129  0.66693553  0.31430514  1
  Ta  Ta8  1  0.33321618  0.66651384  0.81175997  1
  Ga  Ga0  1  0.99868265  0.99605847  0.35560006  1
  Ga  Ga1  1  0.66436439  0.33508344  0.68505985  1
  Ga  Ga2  1  0.67331922  0.34868451  0.18379349  1
  Si  Si0  1  0.71685814  0.70597801  0.25207806  1
  Si  Si1  1  0.66326616  0.61474212  0.58644374  1
  Si  Si2  1  0.38063880  0.33398758  0.08609243  1
  Si  Si3  1  0.62101463  0.66775591  0.91612366  1
  Si  Si4  1  0.04610688  0.38038366  0.91612031  1
  Si  Si5  1  0.33336330  0.95168858  0.91660992  1
  Si  Si6  1  0.62662983  0.95996217  0.41632807  1
  Si  Si7  1  0.32140859  0.36618034  0.41589903  1
  Si  Si8  1  0.04668783  0.67198704  0.41740293  1
  P  P0  1  0.28655253  0.99990023  0.25080476  1
  P  P1  1  0.99483928  0.28628368  0.25012337  1
  P  P2  1  0.29374514  0.28798691  0.74898684  1
  P  P3  1  0.99468242  0.70645505  0.74907747  1
  P  P4  1  0.71180262  0.00669981  0.74867341  1
  P  P5  1  0.95156858  0.33573192  0.58631196  1
  P  P6  1  0.38433168  0.04817046  0.58610660  1
  P  P7  1  0.95283369  0.61767816  0.08432126  1
  P  P8  1  0.66491819  0.04936422  0.08566614  1
  O  O0  1  0.20688773  0.03806966  0.30419031  1
  O  O1  1  0.82614233  0.79716951  0.31074629  1
  O  O2  1  0.96313521  0.17225752  0.30426461  1
  O  O3  1  0.19742516  0.17438839  0.80389650  1
  O  O4  1  0.97551734  0.80195377  0.80385313  1
  O  O5  1  0.82564134  0.02581152  0.80374769  1
  O  O6  1  0.80364897  0.97634032  0.69453269  1
  O  O7  1  0.17319475  0.19823243  0.69467518  1
  O  O8  1  0.02500357  0.82837403  0.69481486  1
  O  O9  1  0.80518287  0.83741244  0.19436226  1
  O  O10  1  0.03324652  0.20218564  0.19454124  1
  O  O11  1  0.17135608  0.97312165  0.19455931  1
  O  O12  1  0.87112857  0.36278820  0.64103504  1
  O  O13  1  0.49398603  0.12500130  0.64082254  1
  O  O14  1  0.63158430  0.49857057  0.64334262  1
  O  O15  1  0.87811369  0.50841782  0.13993893  1
  O  O16  1  0.63912699  0.12715582  0.14260511  1
  O  O17  1  0.49039429  0.36440033  0.14595372  1
  O  O18  1  0.47234725  0.30510454  0.02761528  1
  O  O19  1  0.84029954  0.53485809  0.02892196  1
  O  O20  1  0.69625713  0.16281923  0.03027881  1
  O  O21  1  0.46599950  0.16149277  0.52982698  1
  O  O22  1  0.69727284  0.53414117  0.52540347  1
  O  O23  1  0.83766563  0.30126245  0.52977042  1
  O  O24  1  0.53243010  0.70028645  0.97439156  1
  O  O25  1  0.16875785  0.46936965  0.97423817  1
  O  O26  1  0.30082916  0.83266829  0.97504091  1
  O  O27  1  0.52786601  0.83006906  0.47253114  1
  O  O28  1  0.30400538  0.47000151  0.47332053  1
  O  O29  1  0.16619478  0.69364665  0.47484219  1
  O  O30  1  0.13495679  0.63331199  0.35897366  1
  O  O31  1  0.50167535  0.86960654  0.35673047  1
  O  O32  1  0.37020293  0.49978480  0.35770240  1
  O  O33  1  0.13725026  0.50209589  0.85796652  1
  O  O34  1  0.36434910  0.86173655  0.85819271  1
  O  O35  1  0.49831430  0.63489570  0.85806855  1
  O  O36  1  0.01750311  0.83536911  0.41175405  1
  O  O37  1  0.81100849  0.96888014  0.41074392  1
  O  O38  1  0.15445239  0.18020128  0.40827597  1
  O  O39  1  0.02624403  0.18819165  0.90695262  1
  O  O40  1  0.16314986  0.97539889  0.90686661  1
  O  O41  1  0.81332196  0.83910472  0.90697950  1
  O  O42  1  0.97558071  0.17076895  0.59253926  1
  O  O43  1  0.19770027  0.03044191  0.59258239  1
  O  O44  1  0.83884338  0.81412154  0.59274497  1
  O  O45  1  0.97125401  0.80356138  0.09113483  1
  O  O46  1  0.83084037  0.02662269  0.09092847  1
  O  O47  1  0.18278925  0.15964324  0.09077359  1
  O  O48  1  0.69363341  0.16834190  0.74261664  1
  O  O49  1  0.47308681  0.30340314  0.74502160  1
  O  O50  1  0.83442605  0.52588222  0.74419454  1
  O  O51  1  0.68224451  0.50859270  0.24526899  1
  O  O52  1  0.83042177  0.30210656  0.24055694  1
  O  O53  1  0.47432957  0.15629574  0.24327594  1
  O  O54  1  0.64328715  0.49717462  0.92469672  1
  O  O55  1  0.85423030  0.35846922  0.92537384  1
  O  O56  1  0.50612237  0.14389000  0.92414639  1
  O  O57  1  0.63679655  0.14724112  0.42455645  1
  O  O58  1  0.50718534  0.36568197  0.42493656  1
  O  O59  1  0.85343878  0.49422480  0.42470983  1
  O  O60  1  0.35552102  0.50539379  0.07749290  1
  O  O61  1  0.14015956  0.64619769  0.07678056  1
  O  O62  1  0.50344877  0.86422325  0.07752251  1
  O  O63  1  0.35441565  0.86133458  0.57668281  1
  O  O64  1  0.49575418  0.64612717  0.57752985  1
  O  O65  1  0.13669197  0.49570735  0.57728039  1
  O  O66  1  0.30424255  0.83164551  0.25447035  1
  O  O67  1  0.51768634  0.69106394  0.25485405  1
  O  O68  1  0.16622948  0.46883303  0.25467737  1
  O  O69  1  0.30556920  0.46992802  0.75539914  1
  O  O70  1  0.16627202  0.69644313  0.75492708  1
  O  O71  1  0.53049063  0.83590905  0.75493446  1
loop_
_geom_bond_atom_site_label_1
_geom_bond_atom_site_label_2
_geom_bond_distance
_geom_bond_site_symmetry_2
Na0 O52 2.323391 1_555
Na0 O67 2.407008 1_545
Na0 O53 2.423508 1_555
Na0 O66 2.552534 1_545
Na0 O16 2.634342 1_555
Na0 O31 2.723087 1_545
Na0 O2 2.776034 1_555
Na0 O9 2.813574 1_545
Na1 O51 2.359807 1_555
Na1 O53 2.394501 1_555
Na1 O68 2.429039 1_555
Na1 O17 2.514353 1_555
Na1 O67 2.520266 1_555
Na1 O32 2.779178 1_555
Na1 O0 2.795002 1_555
Na1 O10 2.850916 1_555
Na2 O37 2.276779 1_555
Na2 O36 2.370016 1_655
Na2 O58 2.410226 1_555
Na2 O59 2.513038 1_555
Na2 O1 2.567533 1_555
Na2 O22 2.793689 1_555
Na2 O32 2.863155 1_555
Na2 O27 2.871254 1_555
Na3 O38 2.395333 1_555
Na3 O36 2.417028 1_545
Na3 O37 2.447715 1_445
Na3 O43 2.746160 1_555
Na3 O42 2.757446 1_455
Na3 O44 2.765357 1_445
Na4 O47 2.554343 1_556
Na4 O39 2.601778 1_555
Na4 O40 2.602943 1_545
Na4 O41 2.608020 1_445
Na4 O46 2.635420 1_456
Na4 O45 2.638928 1_446
Na5 O49 2.481322 1_555
Na5 O50 2.503078 1_555
Na5 O48 2.520573 1_555
Na5 O56 2.655368 1_555
Na5 O54 2.663832 1_555
Na5 O55 2.666841 1_555
Na6 O51 2.447945 1_555
Na6 O52 2.564514 1_555
Na6 O59 2.580874 1_555
Na6 O57 2.607131 1_555
Na6 O53 2.611894 1_555
Na6 O58 2.671990 1_555
Na7 O60 2.494934 1_555
Na7 O61 2.528345 1_555
Na7 O62 2.577910 1_555
Na7 O67 2.577926 1_555
Na7 O66 2.585556 1_555
Na7 O68 2.593659 1_555
Na8 O64 2.491188 1_555
Na8 O65 2.577334 1_555
Na8 O63 2.592711 1_555
Na8 O71 2.595487 1_555
Na8 O69 2.600392 1_555
Na8 O70 2.610150 1_555
Ga0 O38 1.926421 1_665
Ga0 O1 1.936506 1_555
Ga0 O36 1.969801 1_655
Ga0 O37 1.987118 1_555
Ga0 O0 2.042431 1_665
Ga0 O2 2.083553 1_565
Ga1 O14 1.861040 1_555
Ga1 O13 1.976427 1_555
Ga1 O12 1.979786 1_555
Ga1 O49 2.070056 1_555
Ga1 O48 2.073080 1_555
Ga1 O50 2.084007 1_555
Ga2 O17 1.886311 1_555
Ga2 O15 1.919891 1_555
Ga2 O51 1.953919 1_555
Ga2 O16 2.046085 1_555
Ga2 O52 2.070542 1_555
Ga2 O53 2.189837 1_555
O0 P0 1.516666 1_545
O1 Si0 1.599552 1_555
O2 P1 1.519675 1_555
O3 P2 1.555650 1_555
O3 Ta0 2.009317 1_555
O4 P3 1.554141 1_555
O4 Ta0 2.023031 1_665
O5 P4 1.553024 1_555
O5 Ta0 2.026869 1_655
O6 P4 1.562899 1_565
O6 Ta1 1.989597 1_555
O7 P2 1.555797 1_555
O7 Ta1 2.025338 1_445
O8 P3 1.564551 1_455
O8 Ta1 1.992837 1_455
O9 Si0 1.659958 1_555
O9 Ta2 1.939544 1_555
O10 P1 1.579931 1_455
O10 Ta2 2.009149 1_445
O11 P0 1.568336 1_555
O11 Ta2 1.991193 1_455
O12 P5 1.503597 1_555
O13 P6 1.505709 1_555
O14 Si1 1.580941 1_555
O15 P7 1.520991 1_555
O16 P8 1.528872 1_555
O17 Si2 1.605150 1_555
O18 Si2 1.635027 1_555
O18 Ta3 1.933347 1_554
O19 P7 1.536286 1_555
O19 Ta3 2.064085 1_554
O20 P8 1.540131 1_555
O20 Ta3 2.054493 1_554
O21 P6 1.556116 1_555
O21 Ta4 2.033687 1_555
O22 Si1 1.647677 1_555
O22 Ta4 1.955753 1_555
O23 P5 1.557399 1_555
O23 Ta4 2.027722 1_555
O24 Si3 1.628671 1_555
O24 Ta5 1.921597 1_556
O25 Si4 1.631206 1_555
O25 Ta5 1.918172 1_556
O26 Si5 1.622134 1_555
O26 Ta5 1.954949 1_556
O27 Si6 1.641024 1_555
O27 Ta6 1.923492 1_555
O28 Si7 1.639954 1_555
O28 Ta6 1.918889 1_555
O29 Si8 1.620572 1_555
O29 Ta6 1.929549 1_555
O30 Si8 1.653191 1_555
O30 Ta7 1.900547 1_555
O31 Si6 1.668525 1_555
O31 Ta7 1.917124 1_555
O32 Si7 1.673827 1_555
O32 Ta7 1.932414 1_555
O33 Si4 1.633810 1_555
O33 Ta8 1.917505 1_555
O34 Si5 1.632984 1_555
O34 Ta8 1.915751 1_555
O35 Si3 1.630425 1_555
O35 Ta8 1.918985 1_555
O36 Si8 1.588872 1_555
O37 Si6 1.588825 1_555
O38 Si7 1.572376 1_555
O39 Si4 1.627414 1_555
O39 Ta0 1.942147 1_555
O40 Si5 1.625932 1_555
O40 Ta0 1.941856 1_565
O41 Si3 1.624158 1_555
O41 Ta0 1.946838 1_665
O42 P5 1.576295 1_555
O42 Ta1 2.001588 1_545
O43 P6 1.576134 1_555
O43 Ta1 2.002287 1_445
O44 Si1 1.669383 1_555
O44 Ta1 1.910992 1_555
O45 P7 1.571629 1_555
O45 Ta2 2.018295 1_555
O46 P8 1.573000 1_555
O46 Ta2 2.019355 1_545
O47 Si2 1.653605 1_555
O47 Ta2 1.961200 1_445
O48 P4 1.516963 1_555
O49 P2 1.516678 1_555
O50 P3 1.514858 1_555
O51 Si0 1.617240 1_555
O52 P1 1.535225 1_555
O53 P0 1.545000 1_545
O54 Si3 1.621775 1_555
O54 Ta3 1.944178 1_555
O55 Si4 1.613693 1_655
O55 Ta3 1.977432 1_555
O56 Si5 1.624953 1_545
O56 Ta3 1.941042 1_555
O57 Si6 1.618842 1_545
O57 Ta4 1.961773 1_555
O58 Si7 1.648302 1_555
O58 Ta4 1.976041 1_555
O59 Si8 1.648043 1_655
O59 Ta4 1.958238 1_555
O60 Si2 1.643724 1_555
O60 Ta5 1.968384 1_555
O61 P7 1.547133 1_455
O61 Ta5 2.068372 1_555
O62 P8 1.549957 1_565
O62 Ta5 2.085942 1_555
O63 P6 1.547543 1_565
O63 Ta6 2.089840 1_555
O64 Si1 1.640891 1_555
O64 Ta6 1.976006 1_555
O65 P5 1.546677 1_455
O65 Ta6 2.084511 1_555
O66 P0 1.568614 1_555
O66 Ta7 2.087266 1_555
O67 Si0 1.690994 1_555
O67 Ta7 2.042607 1_555
O68 P1 1.566187 1_455
O68 Ta7 2.110725 1_555
O69 P2 1.561279 1_555
O69 Ta8 2.065908 1_555
O70 P3 1.560219 1_455
O70 Ta8 2.063793 1_555
O71 P4 1.560704 1_565
O71 Ta8 2.077067 1_555
