# generated using pymatgen
data_MgCu2(TeO4)2
_symmetry_space_group_name_H-M   'P 1'
_cell_length_a   6.48195753
_cell_length_b   6.34546366
_cell_length_c   6.34379847
_cell_angle_alpha   54.39374691
_cell_angle_beta   61.73568594
_cell_angle_gamma   61.72249616
_symmetry_Int_Tables_number   1
_chemical_formula_structural   MgCu2(TeO4)2
_chemical_formula_sum   'Mg1 Cu2 Te2 O8'
_cell_volume   179.56242070
_cell_formula_units_Z   1
loop_
 _symmetry_equiv_pos_site_id
 _symmetry_equiv_pos_as_xyz
  1  'x, y, z'
loop_
 _atom_site_type_symbol
 _atom_site_label
 _atom_site_symmetry_multiplicity
 _atom_site_fract_x
 _atom_site_fract_y
 _atom_site_fract_z
 _atom_site_occupancy
  Mg  Mg0  1  0.95097800  0.84196800  0.84082600  1
  Cu  Cu0  1  0.50186200  0.00492200  0.50448200  1
  Cu  Cu1  1  0.50199400  0.50454100  0.00440200  1
  Te  Te0  1  0.01010200  0.50451600  0.50354500  1
  Te  Te1  1  0.48183300  0.50681900  0.50541700  1
  O  O0  1  0.25173200  0.30006700  0.29968100  1
  O  O1  1  0.22716200  0.30661700  0.74953900  1
  O  O2  1  0.22701600  0.75053500  0.30529300  1
  O  O3  1  0.65542300  0.29373300  0.29343800  1
  O  O4  1  0.31544900  0.73951400  0.73902200  1
  O  O5  1  0.83067900  0.72971900  0.23916800  1
  O  O6  1  0.83049600  0.24037500  0.72882600  1
  O  O7  1  0.77777400  0.71417500  0.71344600  1
loop_
_geom_bond_atom_site_label_1
_geom_bond_atom_site_label_2
_geom_bond_distance
_geom_bond_site_symmetry_2
Mg0 O4 2.002432 1_655
Mg0 O5 2.016256 1_556
Mg0 O6 2.017227 1_565
Mg0 O7 2.248517 1_555
Cu0 O3 1.936761 1_555
Cu0 O4 1.953908 1_545
Cu0 O0 2.027031 1_555
Cu0 O7 2.151940 1_545
Cu0 O1 2.620356 1_555
Cu0 O5 2.631264 1_545
Cu1 O3 1.936752 1_555
Cu1 O4 1.953537 1_554
Cu1 O0 2.027342 1_555
Cu1 O7 2.154300 1_554
Cu1 O2 2.620707 1_555
Cu1 O6 2.627734 1_554
O0 Te0 1.979589 1_555
O1 Te1 2.003034 1_555
O1 Te0 2.028623 1_555
O2 Te1 2.002777 1_555
O2 Te0 2.028415 1_555
O3 Te1 2.036019 1_555
O4 Te1 2.250549 1_555
O5 Te0 1.920787 1_655
O5 Te1 2.568620 1_555
O6 Te0 1.921185 1_655
O6 Te1 2.568620 1_555
O7 Te0 2.018965 1_655
