# generated using pymatgen
data_MgFe(SbO3)4
_symmetry_space_group_name_H-M   'P 1'
_cell_length_a   5.46792136
_cell_length_b   10.97625551
_cell_length_c   9.64703235
_cell_angle_alpha   28.53081100
_cell_angle_beta   52.32068647
_cell_angle_gamma   57.55286764
_symmetry_Int_Tables_number   1
_chemical_formula_structural   MgFe(SbO3)4
_chemical_formula_sum   'Mg1 Fe1 Sb4 O12'
_cell_volume   218.86833554
_cell_formula_units_Z   1
loop_
 _symmetry_equiv_pos_site_id
 _symmetry_equiv_pos_as_xyz
  1  'x, y, z'
loop_
 _atom_site_type_symbol
 _atom_site_label
 _atom_site_symmetry_multiplicity
 _atom_site_fract_x
 _atom_site_fract_y
 _atom_site_fract_z
 _atom_site_occupancy
  Mg  Mg0  1  0.78270200  0.50340700  0.76926600  1
  Fe  Fe0  1  0.28241500  0.00287400  0.26605300  1
  Sb  Sb0  1  0.00990100  0.99646700  0.98187900  1
  Sb  Sb1  1  0.96853800  0.50232000  0.00531200  1
  Sb  Sb2  1  0.46943400  0.99774900  0.50930100  1
  Sb  Sb3  1  0.50718600  0.50300300  0.47533300  1
  O  O0  1  0.36231400  0.30480600  0.10899300  1
  O  O1  1  0.24259100  0.13378600  0.60609000  1
  O  O2  1  0.11692800  0.30599700  0.75131500  1
  O  O3  1  0.85524000  0.20246400  0.21285900  1
  O  O4  1  0.36578300  0.81875400  0.11798300  1
  O  O5  1  0.74459100  0.36545400  0.37415700  1
  O  O6  1  0.19523400  0.61378200  0.63146000  1
  O  O7  1  0.62186400  0.19452400  0.85991600  1
  O  O8  1  0.11384200  0.83897500  0.68669500  1
  O  O9  1  0.86324100  0.68161800  0.25548300  1
  O  O10  1  0.70708900  0.87620900  0.36752100  1
  O  O11  1  0.61231200  0.66376600  0.86441000  1
loop_
_geom_bond_atom_site_label_1
_geom_bond_atom_site_label_2
_geom_bond_distance
_geom_bond_site_symmetry_2
Mg0 O2 2.021938 1_655
Mg0 O10 2.052572 1_555
Mg0 O0 2.095390 1_556
Mg0 O6 2.181671 1_655
Mg0 O11 2.200510 1_555
Mg0 O3 2.283090 1_556
Fe0 O7 2.009601 1_554
Fe0 O3 2.125462 1_455
Fe0 O6 2.137780 1_545
Fe0 O8 2.220882 1_545
Fe0 O10 2.281751 1_545
Fe0 O0 2.321845 1_555
O0 Sb1 2.037194 1_455
O0 Sb2 2.095875 1_545
O1 Sb2 1.920037 1_545
O1 Sb0 1.962384 1_545
O2 Sb0 2.023994 1_545
O2 Sb3 2.051316 1_555
O3 Sb2 2.024299 1_545
O3 Sb1 2.077890 1_555
O4 Sb0 1.966138 1_554
O4 Sb3 1.970551 1_555
O5 Sb1 1.916300 1_555
O5 Sb3 1.963307 1_555
O6 Sb1 2.109409 1_456
O6 Sb3 2.123274 1_555
O7 Sb3 2.028571 1_555
O7 Sb0 2.054302 1_645
O8 Sb1 1.985207 1_456
O8 Sb2 2.018451 1_555
O9 Sb3 1.968216 1_555
O9 Sb0 1.977685 1_654
O10 Sb0 2.123816 1_654
O10 Sb2 2.124205 1_555
O11 Sb2 1.979098 1_555
O11 Sb1 2.020475 1_556
