# generated using pymatgen
data_Na2ScTi(PO4)3
_symmetry_space_group_name_H-M   'P 1'
_cell_length_a   8.84739765
_cell_length_b   8.84739737
_cell_length_c   22.43822155
_cell_angle_alpha   90.14480591
_cell_angle_beta   89.85519410
_cell_angle_gamma   120.41192327
_symmetry_Int_Tables_number   1
_chemical_formula_structural   Na2ScTi(PO4)3
_chemical_formula_sum   'Na12 Sc6 Ti6 P18 O72'
_cell_volume   1514.71393423
_cell_formula_units_Z   6
loop_
 _symmetry_equiv_pos_site_id
 _symmetry_equiv_pos_as_xyz
  1  'x, y, z'
loop_
 _atom_site_type_symbol
 _atom_site_label
 _atom_site_symmetry_multiplicity
 _atom_site_fract_x
 _atom_site_fract_y
 _atom_site_fract_z
 _atom_site_occupancy
  Na  Na0  1  0.36474991  0.36147176  0.24988263  1
  Na  Na1  1  0.63852824  0.63525009  0.74988263  1
  Na  Na2  1  0.03141691  0.69480476  0.58321563  1
  Na  Na3  1  0.30519524  0.96858309  0.08321563  1
  Na  Na4  1  0.69808291  0.02813876  0.91654963  1
  Na  Na5  1  0.97186124  0.30191709  0.41654963  1
  Na  Na6  1  0.99954355  0.99893770  0.49937146  1
  Na  Na7  1  0.00106230  0.00045645  0.99937146  1
  Na  Na8  1  0.66621055  0.33227070  0.83270446  1
  Na  Na9  1  0.66772930  0.33378945  0.33270446  1
  Na  Na10  1  0.33287655  0.66560470  0.16603846  1
  Na  Na11  1  0.33439530  0.66712345  0.66603846  1
  Sc  Sc0  1  -0.00070447  0.99266830  0.35275080  1
  Sc  Sc1  1  0.00733170  0.00070447  0.85275080  1
  Sc  Sc2  1  0.66596253  0.32600130  0.68608380  1
  Sc  Sc3  1  0.67399870  0.33403747  0.18608380  1
  Sc  Sc4  1  0.33262853  0.65933530  0.01941780  1
  Sc  Sc5  1  0.34066470  0.66737147  0.51941780  1
  Ti  Ti0  1  0.00198537  0.00962102  0.64817386  1
  Ti  Ti1  1  0.99037898  0.99801463  0.14817386  1
  Ti  Ti2  1  0.66865237  0.34295402  0.98150686  1
  Ti  Ti3  1  0.65704598  0.33134763  0.48150686  1
  Ti  Ti4  1  0.33531837  0.67628802  0.31484086  1
  Ti  Ti5  1  0.32371198  0.66468163  0.81484086  1
  P  P0  1  0.28701225  0.99411815  0.24889123  1
  P  P1  1  0.70570680  0.71058349  0.25041458  1
  P  P2  1  0.00157659  0.29210778  0.25183004  1
  P  P3  1  0.28941651  0.29429320  0.75041458  1
  P  P4  1  0.00588185  0.71298775  0.74889123  1
  P  P5  1  0.70789222  0.99842341  0.75183004  1
  P  P6  1  0.95367925  0.32745115  0.58222423  1
  P  P7  1  0.37237380  0.04391649  0.58374758  1
  P  P8  1  0.66824359  0.62544078  0.58516304  1
  P  P9  1  0.95608351  0.62762620  0.08374758  1
  P  P10  1  0.67254885  0.04632075  0.08222423  1
  P  P11  1  0.37455922  0.33175641  0.08516304  1
  P  P12  1  0.62034525  0.66078515  0.91555823  1
  P  P13  1  0.03903980  0.37725049  0.91708158  1
  P  P14  1  0.33490959  0.95877478  0.91849704  1
  P  P15  1  0.62274951  0.96096020  0.41708158  1
  P  P16  1  0.33921485  0.37965475  0.41555823  1
  P  P17  1  0.04122522  0.66509041  0.41849704  1
  O  O0  1  0.20448311  0.02858199  0.30309964  1
  O  O1  1  0.81644022  0.79296168  0.30523126  1
  O  O2  1  0.97839663  0.18735791  0.30843390  1
  O  O3  1  0.20703832  0.18355978  0.80523126  1
  O  O4  1  0.97141801  0.79551689  0.80309964  1
  O  O5  1  0.81264209  0.02160337  0.80843390  1
  O  O6  1  0.80396528  0.96947699  0.69679357  1
  O  O7  1  0.17135355  0.19916951  0.69432580  1
  O  O8  1  0.03228760  0.82576699  0.69175438  1
  O  O9  1  0.80083049  0.82864645  0.19432580  1
  O  O10  1  0.03052301  0.19603472  0.19679357  1
  O  O11  1  0.17423301  0.96771240  0.19175438  1
  O  O12  1  0.87115011  0.36191499  0.63643264  1
  O  O13  1  0.48310722  0.12629468  0.63856426  1
  O  O14  1  0.64506363  0.52069091  0.64176690  1
  O  O15  1  0.87370532  0.51689278  0.13856426  1
  O  O16  1  0.63808501  0.12884989  0.13643264  1
  O  O17  1  0.47930909  0.35493637  0.14176690  1
  O  O18  1  0.47063228  0.30280999  0.03012657  1
  O  O19  1  0.83802055  0.53250251  0.02765880  1
  O  O20  1  0.69895460  0.15909999  0.02508738  1
  O  O21  1  0.46749749  0.16197945  0.52765880  1
  O  O22  1  0.69719001  0.52936772  0.53012657  1
  O  O23  1  0.84090001  0.30104540  0.52508738  1
  O  O24  1  0.53781611  0.69524899  0.96976664  1
  O  O25  1  0.14977322  0.45962868  0.97189826  1
  O  O26  1  0.31172963  0.85402491  0.97510090  1
  O  O27  1  0.54037132  0.85022678  0.47189826  1
  O  O28  1  0.30475101  0.46218389  0.46976664  1
  O  O29  1  0.14597509  0.68827037  0.47510090  1
  O  O30  1  0.13729828  0.63614399  0.36346057  1
  O  O31  1  0.50468655  0.86583651  0.36099280  1
  O  O32  1  0.36562060  0.49243399  0.35842138  1
  O  O33  1  0.13416349  0.49531345  0.86099280  1
  O  O34  1  0.36385601  0.86270172  0.86346057  1
  O  O35  1  0.50756601  0.63437940  0.85842138  1
  O  O36  1  0.01828961  0.82298223  0.41098267  1
  O  O37  1  0.80899684  0.99129444  0.41018709  1
  O  O38  1  0.17500375  0.19663566  0.40967392  1
  O  O39  1  0.00870556  0.19100316  0.91018709  1
  O  O40  1  0.17701777  0.98171039  0.91098267  1
  O  O41  1  0.80336434  0.82499625  0.90967392  1
  O  O42  1  0.96956066  0.16060403  0.59059285  1
  O  O43  1  0.18783067  0.02684215  0.58860508  1
  O  O44  1  0.84205074  0.80734690  0.58900523  1
  O  O45  1  0.97315785  0.81216933  0.08860508  1
  O  O46  1  0.83939597  0.03043934  0.09059285  1
  O  O47  1  0.19265310  0.15794926  0.08900523  1
  O  O48  1  0.68495661  0.15631523  0.74431567  1
  O  O49  1  0.47566384  0.32462744  0.74352009  1
  O  O50  1  0.84167075  0.52996866  0.74300692  1
  O  O51  1  0.67537256  0.52433616  0.24352009  1
  O  O52  1  0.84368477  0.31504339  0.24431567  1
  O  O53  1  0.47003134  0.15832925  0.24300692  1
  O  O54  1  0.63622766  0.49393703  0.92392585  1
  O  O55  1  0.85449767  0.36017515  0.92193808  1
  O  O56  1  0.50871774  0.14067990  0.92233823  1
  O  O57  1  0.63982485  0.14550233  0.42193808  1
  O  O58  1  0.50606297  0.36377234  0.42392585  1
  O  O59  1  0.85932010  0.49128226  0.42233823  1
  O  O60  1  0.35162261  0.48964923  0.07764967  1
  O  O61  1  0.14232984  0.65796144  0.07685409  1
  O  O62  1  0.50833675  0.86330266  0.07634092  1
  O  O63  1  0.34203856  0.85767016  0.57685409  1
  O  O64  1  0.51035077  0.64837739  0.57764967  1
  O  O65  1  0.13669734  0.49166325  0.57634092  1
  O  O66  1  0.30289366  0.82727103  0.25725985  1
  O  O67  1  0.52116367  0.69350915  0.25527208  1
  O  O68  1  0.17538374  0.47401390  0.25567223  1
  O  O69  1  0.30649085  0.47883633  0.75527208  1
  O  O70  1  0.17272897  0.69710634  0.75725985  1
  O  O71  1  0.52598610  0.82461626  0.75567223  1
loop_
_geom_bond_atom_site_label_1
_geom_bond_atom_site_label_2
_geom_bond_distance
_geom_bond_site_symmetry_2
Na0 O68 2.345728 1_555
Na0 O51 2.374691 1_555
Na0 O53 2.411315 1_555
Na0 O67 2.538266 1_555
Na0 O17 2.638548 1_555
Na0 O32 2.692700 1_555
Na0 O0 2.809246 1_555
Na0 O10 2.816469 1_555
Na1 O71 2.345728 1_555
Na1 O49 2.374691 1_555
Na1 O50 2.411315 1_555
Na1 O69 2.538266 1_555
Na1 O14 2.638548 1_555
Na1 O35 2.692700 1_555
Na1 O4 2.809246 1_555
Na1 O6 2.816469 1_555
Na2 O44 2.345728 1_455
Na2 O63 2.374682 1_555
Na2 O65 2.411299 1_555
Na2 O43 2.538266 1_565
Na2 O29 2.638522 1_555
Na2 O8 2.692700 1_555
Na2 O12 2.809246 1_455
Na2 O22 2.816469 1_455
Na3 O47 2.345728 1_565
Na3 O61 2.374682 1_555
Na3 O62 2.411299 1_555
Na3 O45 2.538266 1_455
Na3 O26 2.638522 1_554
Na3 O11 2.692700 1_555
Na3 O16 2.809246 1_565
Na3 O18 2.816469 1_565
Na4 O56 2.345712 1_555
Na4 O39 2.374691 1_655
Na4 O41 2.411315 1_545
Na4 O55 2.538256 1_555
Na4 O5 2.638548 1_555
Na4 O20 2.692674 1_556
Na4 O24 2.809246 1_545
Na4 O34 2.816469 1_545
Na5 O59 2.345712 1_555
Na5 O37 2.374691 1_545
Na5 O38 2.411315 1_655
Na5 O57 2.538257 1_555
Na5 O2 2.638548 1_555
Na5 O23 2.692674 1_555
Na5 O28 2.809246 1_655
Na5 O30 2.816469 1_655
Na6 O43 2.538301 1_665
Na6 O44 2.543947 1_555
Na6 O36 2.574594 1_655
Na6 O42 2.583094 1_565
Na6 O37 2.598489 1_555
Na6 O38 2.602500 1_665
Na7 O45 2.538301 1_446
Na7 O47 2.543947 1_556
Na7 O40 2.574594 1_545
Na7 O46 2.583094 1_456
Na7 O39 2.598489 1_555
Na7 O41 2.602500 1_445
Na8 O55 2.538301 1_555
Na8 O56 2.543947 1_555
Na8 O48 2.574594 1_555
Na8 O54 2.583094 1_555
Na8 O49 2.598489 1_555
Na8 O50 2.602500 1_555
Na9 O57 2.538301 1_555
Na9 O59 2.543947 1_555
Na9 O52 2.574594 1_555
Na9 O58 2.583094 1_555
Na9 O51 2.598489 1_555
Na9 O53 2.602500 1_555
Na10 O67 2.538301 1_555
Na10 O68 2.543947 1_555
Na10 O60 2.574594 1_555
Na10 O66 2.583094 1_555
Na10 O61 2.598489 1_555
Na10 O62 2.602500 1_555
Na11 O69 2.538301 1_555
Na11 O71 2.543947 1_555
Na11 O64 2.574594 1_555
Na11 O70 2.583094 1_555
Na11 O63 2.598489 1_555
Na11 O65 2.602500 1_555
O0 P0 1.524679 1_545
O0 Sc0 2.011295 1_545
O1 P1 1.510806 1_555
O1 Sc0 1.995308 1_655
O2 P2 1.525217 1_655
O2 Sc0 2.078950 1_645
O3 P3 1.510806 1_555
O3 Sc1 1.995308 1_555
O4 P4 1.524679 1_655
O4 Sc1 2.011295 1_665
O5 P5 1.525217 1_545
O5 Sc1 2.078950 1_655
O6 P5 1.589527 1_555
O6 Ti0 1.935972 1_665
O7 P3 1.579415 1_555
O7 Ti0 1.893426 1_555
O8 P4 1.569327 1_555
O8 Ti0 2.030986 1_565
O9 P1 1.579415 1_555
O9 Ti1 1.893426 1_555
O10 P2 1.589527 1_555
O10 Ti1 1.935972 1_445
O11 P0 1.569327 1_555
O11 Ti1 2.030986 1_455
O12 P6 1.524679 1_555
O12 Sc2 2.011295 1_555
O13 P7 1.510806 1_555
O13 Sc2 1.995308 1_555
O14 P8 1.525217 1_555
O14 Sc2 2.078950 1_555
O15 P9 1.510806 1_555
O15 Sc3 1.995308 1_555
O16 P10 1.524679 1_555
O16 Sc3 2.011295 1_555
O17 P11 1.525217 1_555
O17 Sc3 2.078950 1_555
O18 P11 1.589527 1_555
O18 Ti2 1.935972 1_554
O19 P9 1.579415 1_555
O19 Ti2 1.893426 1_554
O20 P10 1.569327 1_555
O20 Ti2 2.030986 1_554
O21 P7 1.579415 1_555
O21 Ti3 1.893426 1_555
O22 P8 1.589527 1_555
O22 Ti3 1.935972 1_555
O23 P6 1.569327 1_555
O23 Ti3 2.030986 1_555
O24 P12 1.524679 1_555
O24 Sc4 2.011295 1_556
O25 P13 1.510806 1_555
O25 Sc4 1.995308 1_556
O26 P14 1.525217 1_555
O26 Sc4 2.078950 1_556
O27 P15 1.510806 1_555
O27 Sc5 1.995308 1_555
O28 P16 1.524679 1_555
O28 Sc5 2.011295 1_555
O29 P17 1.525217 1_555
O29 Sc5 2.078950 1_555
O30 P17 1.589527 1_555
O30 Ti4 1.935972 1_555
O31 P15 1.579415 1_555
O31 Ti4 1.893426 1_555
O32 P16 1.569327 1_555
O32 Ti4 2.030986 1_555
O33 P13 1.579415 1_555
O33 Ti5 1.893426 1_555
O34 P14 1.589527 1_555
O34 Ti5 1.935972 1_555
O35 P12 1.569327 1_555
O35 Ti5 2.030986 1_555
O36 P17 1.519663 1_555
O36 Sc0 2.062955 1_555
O37 P15 1.537013 1_555
O37 Sc0 2.112850 1_655
O38 P16 1.538922 1_555
O38 Sc0 2.112520 1_545
O39 P13 1.537013 1_555
O39 Sc1 2.112850 1_555
O40 P14 1.519663 1_555
O40 Sc1 2.062955 1_565
O41 P12 1.538922 1_555
O41 Sc1 2.112520 1_665
O42 P6 1.563837 1_555
O42 Ti0 1.983570 1_655
O43 P7 1.565238 1_555
O43 Ti0 2.061455 1_555
O44 P8 1.567360 1_555
O44 Ti0 2.097917 1_665
O45 P9 1.565238 1_555
O45 Ti1 2.061455 1_555
O46 P10 1.563837 1_555
O46 Ti1 1.983570 1_545
O47 P11 1.567360 1_555
O47 Ti1 2.097917 1_445
O48 P5 1.519663 1_545
O48 Sc2 2.062955 1_555
O49 P3 1.537013 1_555
O49 Sc2 2.112850 1_555
O50 P4 1.538922 1_655
O50 Sc2 2.112520 1_555
O51 P1 1.537013 1_555
O51 Sc3 2.112850 1_555
O52 P2 1.519663 1_655
O52 Sc3 2.062955 1_555
O53 P0 1.538922 1_545
O53 Sc3 2.112520 1_555
O54 P12 1.563848 1_555
O54 Ti2 1.983570 1_555
O55 P13 1.565224 1_655
O55 Ti2 2.061455 1_555
O56 P14 1.567358 1_545
O56 Ti2 2.097917 1_555
O57 P15 1.565223 1_545
O57 Ti3 2.061455 1_555
O58 P16 1.563848 1_555
O58 Ti3 1.983570 1_555
O59 P17 1.567358 1_655
O59 Ti3 2.097917 1_555
O60 P11 1.519675 1_555
O60 Sc4 2.062955 1_555
O61 P9 1.536998 1_455
O61 Sc4 2.112850 1_555
O62 P10 1.538918 1_565
O62 Sc4 2.112520 1_555
O63 P7 1.536998 1_565
O63 Sc5 2.112850 1_555
O64 P8 1.519675 1_555
O64 Sc5 2.062955 1_555
O65 P6 1.538918 1_455
O65 Sc5 2.112520 1_555
O66 P0 1.563837 1_555
O66 Ti4 1.983570 1_555
O67 P1 1.565238 1_555
O67 Ti4 2.061455 1_555
O68 P2 1.567360 1_555
O68 Ti4 2.097917 1_555
O69 P3 1.565238 1_555
O69 Ti5 2.061455 1_555
O70 P4 1.563837 1_555
O70 Ti5 1.983570 1_555
O71 P5 1.567360 1_555
O71 Ti5 2.097917 1_555
