# generated using pymatgen
data_Na2MgTiP2SO12
_symmetry_space_group_name_H-M   'P 1'
_cell_length_a   8.76370119
_cell_length_b   8.75247426
_cell_length_c   22.08593576
_cell_angle_alpha   90.52307227
_cell_angle_beta   90.00000000
_cell_angle_gamma   120.04244090
_symmetry_Int_Tables_number   1
_chemical_formula_structural   Na2MgTiP2SO12
_chemical_formula_sum   'Na12 Mg6 Ti6 P12 S6 O72'
_cell_volume   1466.40792008
_cell_formula_units_Z   6
loop_
 _symmetry_equiv_pos_site_id
 _symmetry_equiv_pos_as_xyz
  1  'x, y, z'
loop_
 _atom_site_type_symbol
 _atom_site_label
 _atom_site_symmetry_multiplicity
 _atom_site_fract_x
 _atom_site_fract_y
 _atom_site_fract_z
 _atom_site_occupancy
  Na  Na0  1  0.99335688  0.63351182  0.24476039  1
  Na  Na1  1  0.64015494  0.63351182  0.74476039  1
  Na  Na2  1  0.66002388  0.96684482  0.57809339  1
  Na  Na3  1  0.30682194  0.96684482  0.07809339  1
  Na  Na4  1  0.32668988  0.30017882  0.91142739  1
  Na  Na5  1  0.97348794  0.30017882  0.41142739  1
  Na  Na6  1  0.00633707  0.97763473  0.49559576  1
  Na  Na7  1  0.97129766  0.97763473  0.99559576  1
  Na  Na8  1  0.67300407  0.31096773  0.82892876  1
  Na  Na9  1  0.63796466  0.31096773  0.32892876  1
  Na  Na10  1  0.33967007  0.64430173  0.16226276  1
  Na  Na11  1  0.30463066  0.64430173  0.66226276  1
  Mg  Mg0  1  0.99860046  0.99724230  0.35245288  1
  Mg  Mg1  1  0.99864184  0.99724230  0.85245288  1
  Mg  Mg2  1  0.66526746  0.33057530  0.68578588  1
  Mg  Mg3  1  0.66530884  0.33057530  0.18578588  1
  Mg  Mg4  1  0.33193346  0.66390930  0.01911988  1
  Mg  Mg5  1  0.33197484  0.66390930  0.51911988  1
  Ti  Ti0  1  0.99850711  0.01102850  0.64748479  1
  Ti  Ti1  1  0.01252139  0.01102850  0.14748479  1
  Ti  Ti2  1  0.66517411  0.34436150  0.98081779  1
  Ti  Ti3  1  0.67918839  0.34436150  0.48081779  1
  Ti  Ti4  1  0.33184011  0.67769550  0.31415179  1
  Ti  Ti5  1  0.34585439  0.67769550  0.81415179  1
  P  P0  1  0.29526802  0.00493700  0.25150531  1
  P  P1  1  0.00288890  0.29400118  0.25423885  1
  P  P2  1  0.29111228  0.29400118  0.75423885  1
  P  P3  1  0.70966898  0.00493700  0.75150531  1
  P  P4  1  0.96193502  0.33827000  0.58483831  1
  P  P5  1  0.66955590  0.62733418  0.58757185  1
  P  P6  1  0.95777928  0.62733418  0.08757185  1
  P  P7  1  0.37633598  0.33827000  0.08483831  1
  P  P8  1  0.62860102  0.67160400  0.91817231  1
  P  P9  1  0.33622190  0.96066818  0.92090585  1
  P  P10  1  0.62444528  0.96066818  0.42090585  1
  P  P11  1  0.04300198  0.67160400  0.41817231  1
  S  S0  1  0.70527598  0.71207350  0.24974519  1
  S  S1  1  0.00679752  0.71207350  0.74974519  1
  S  S2  1  0.37194298  0.04540650  0.58307819  1
  S  S3  1  0.67346452  0.04540650  0.08307819  1
  S  S4  1  0.03860898  0.37874050  0.91641219  1
  S  S5  1  0.34013052  0.37874050  0.41641219  1
  O  O0  1  0.20038431  0.01897817  0.30587389  1
  O  O1  1  0.81164672  0.79310117  0.30405537  1
  O  O2  1  0.98021883  0.19285107  0.31169486  1
  O  O3  1  0.21263224  0.19285107  0.81169486  1
  O  O4  1  0.98145445  0.79310117  0.80405537  1
  O  O5  1  0.81859387  0.01897817  0.80587389  1
  O  O6  1  0.79258660  0.96805136  0.69198912  1
  O  O7  1  0.16578389  0.18963004  0.69789485  1
  O  O8  1  0.02830837  0.82011287  0.69478666  1
  O  O9  1  0.79180450  0.82011287  0.19478666  1
  O  O10  1  0.02384616  0.18963004  0.19789485  1
  O  O11  1  0.17546477  0.96805136  0.19198912  1
  O  O12  1  0.86705131  0.35231117  0.63920689  1
  O  O13  1  0.47831372  0.12643417  0.63738837  1
  O  O14  1  0.64688583  0.52618407  0.64502786  1
  O  O15  1  0.87929924  0.52618407  0.14502786  1
  O  O16  1  0.64812145  0.12643417  0.13738837  1
  O  O17  1  0.48526087  0.35231117  0.13920689  1
  O  O18  1  0.45925360  0.30138436  0.02532212  1
  O  O19  1  0.83245089  0.52296304  0.03122785  1
  O  O20  1  0.69497537  0.15344587  0.02811966  1
  O  O21  1  0.45847150  0.15344587  0.52811966  1
  O  O22  1  0.69051316  0.52296304  0.53122785  1
  O  O23  1  0.84213177  0.30138436  0.52532212  1
  O  O24  1  0.53371731  0.68564517  0.97254089  1
  O  O25  1  0.14497972  0.45976817  0.97072237  1
  O  O26  1  0.31355183  0.85951807  0.97836186  1
  O  O27  1  0.54596524  0.85951807  0.47836186  1
  O  O28  1  0.31478745  0.45976817  0.47072237  1
  O  O29  1  0.15192687  0.68564517  0.47254089  1
  O  O30  1  0.12591960  0.63471836  0.35865612  1
  O  O31  1  0.49911689  0.85629704  0.36456185  1
  O  O32  1  0.36164137  0.48677987  0.36145366  1
  O  O33  1  0.12513750  0.48677987  0.86145366  1
  O  O34  1  0.35717916  0.85629704  0.86456185  1
  O  O35  1  0.50879777  0.63471836  0.85865612  1
  O  O36  1  0.01215594  0.82472285  0.41039978  1
  O  O37  1  0.81183272  0.99467595  0.41181233  1
  O  O38  1  0.18302896  0.20084113  0.41054770  1
  O  O39  1  0.01781217  0.20084113  0.91054770  1
  O  O40  1  0.18284323  0.99467595  0.91181233  1
  O  O41  1  0.81256691  0.82472285  0.91039978  1
  O  O42  1  0.96829964  0.15856313  0.58893221  1
  O  O43  1  0.19425911  0.02993716  0.58734816  1
  O  O44  1  0.84485497  0.81280607  0.58888192  1
  O  O45  1  0.96795110  0.81280607  0.08888192  1
  O  O46  1  0.83567805  0.02993716  0.08734816  1
  O  O47  1  0.19026349  0.15856313  0.08893221  1
  O  O48  1  0.67882294  0.15805585  0.74373278  1
  O  O49  1  0.47849972  0.32800895  0.74514533  1
  O  O50  1  0.84969596  0.53417413  0.74388070  1
  O  O51  1  0.68447917  0.53417413  0.24388070  1
  O  O52  1  0.84951023  0.32800895  0.24514533  1
  O  O53  1  0.47923391  0.15805585  0.24373278  1
  O  O54  1  0.63496664  0.49189613  0.92226521  1
  O  O55  1  0.86092611  0.36327016  0.92068116  1
  O  O56  1  0.51152197  0.14613907  0.92221492  1
  O  O57  1  0.63461810  0.14613907  0.42221492  1
  O  O58  1  0.50234505  0.36327016  0.42068116  1
  O  O59  1  0.85693049  0.49189613  0.42226521  1
  O  O60  1  0.34548894  0.49138985  0.07706678  1
  O  O61  1  0.14516572  0.66134295  0.07847933  1
  O  O62  1  0.51636196  0.86750813  0.07721470  1
  O  O63  1  0.35114517  0.86750813  0.57721470  1
  O  O64  1  0.51617623  0.66134295  0.57847933  1
  O  O65  1  0.14589991  0.49138985  0.57706678  1
  O  O66  1  0.30163264  0.82523013  0.25559921  1
  O  O67  1  0.52759211  0.69660416  0.25401516  1
  O  O68  1  0.17818797  0.47947307  0.25554892  1
  O  O69  1  0.30128410  0.47947307  0.75554892  1
  O  O70  1  0.16901105  0.69660416  0.75401516  1
  O  O71  1  0.52359649  0.82523013  0.75559921  1
loop_
_geom_bond_atom_site_label_1
_geom_bond_atom_site_label_2
_geom_bond_distance
_geom_bond_site_symmetry_2
Na0 O52 2.316100 1_555
Na0 O66 2.371780 1_655
Na0 O51 2.393082 1_555
Na0 O15 2.399050 1_555
Na0 O68 2.586650 1_655
Na0 O30 2.768518 1_655
Na0 O11 2.803964 1_655
Na0 O1 2.897546 1_555
Na1 O49 2.316100 1_555
Na1 O71 2.371787 1_555
Na1 O50 2.393090 1_555
Na1 O14 2.399052 1_555
Na1 O69 2.586658 1_555
Na1 O35 2.768522 1_555
Na1 O6 2.803964 1_555
Na1 O4 2.897546 1_555
Na2 O64 2.316092 1_555
Na2 O42 2.371780 1_565
Na2 O63 2.393092 1_555
Na2 O27 2.399030 1_555
Na2 O44 2.586650 1_555
Na2 O6 2.768518 1_555
Na2 O23 2.803964 1_565
Na2 O13 2.897546 1_565
Na3 O61 2.316093 1_555
Na3 O47 2.371787 1_565
Na3 O62 2.393075 1_555
Na3 O26 2.399026 1_554
Na3 O45 2.586658 1_455
Na3 O11 2.768522 1_555
Na3 O18 2.803964 1_565
Na3 O16 2.897546 1_565
Na4 O40 2.316100 1_545
Na4 O54 2.371784 1_555
Na4 O39 2.393082 1_555
Na4 O3 2.399050 1_555
Na4 O56 2.586663 1_555
Na4 O18 2.768503 1_556
Na4 O35 2.803964 1_555
Na4 O25 2.897546 1_555
Na5 O37 2.316100 1_545
Na5 O59 2.371770 1_555
Na5 O38 2.393090 1_655
Na5 O2 2.399052 1_555
Na5 O57 2.586648 1_555
Na5 O23 2.768496 1_555
Na5 O30 2.803964 1_655
Na5 O28 2.897546 1_655
Na6 O36 2.314455 1_555
Na6 O43 2.501290 1_565
Na6 O44 2.517720 1_455
Na6 O37 2.571294 1_455
Na6 O38 2.603963 1_565
Na6 O42 2.708734 1_465
Na7 O41 2.314455 1_555
Na7 O46 2.501290 1_566
Na7 O45 2.517720 1_556
Na7 O40 2.571294 1_655
Na7 O39 2.603963 1_665
Na7 O47 2.708734 1_666
Na8 O48 2.314455 1_555
Na8 O55 2.501290 1_555
Na8 O56 2.517720 1_555
Na8 O49 2.571294 1_555
Na8 O50 2.603963 1_555
Na8 O54 2.708734 1_555
Na9 O53 2.314455 1_555
Na9 O58 2.501290 1_555
Na9 O57 2.517720 1_555
Na9 O52 2.571294 1_555
Na9 O51 2.603963 1_555
Na9 O59 2.708734 1_555
Na10 O60 2.314455 1_555
Na10 O67 2.501290 1_555
Na10 O68 2.517720 1_555
Na10 O61 2.571294 1_555
Na10 O62 2.603963 1_555
Na10 O66 2.708734 1_555
Na11 O65 2.314455 1_555
Na11 O70 2.501290 1_555
Na11 O69 2.517720 1_555
Na11 O64 2.571294 1_555
Na11 O63 2.603963 1_555
Na11 O71 2.708734 1_555
Mg0 O0 1.971894 1_665
Mg0 O1 2.013291 1_555
Mg0 O2 2.017849 1_565
Mg0 O36 2.036403 1_655
Mg0 O37 2.088543 1_555
Mg0 O38 2.123324 1_665
Mg1 O5 1.971894 1_565
Mg1 O4 2.013291 1_555
Mg1 O3 2.017849 1_665
Mg1 O41 2.036403 1_555
Mg1 O40 2.088543 1_655
Mg1 O39 2.123324 1_665
Mg2 O12 1.971894 1_555
Mg2 O13 2.013291 1_555
Mg2 O14 2.017849 1_555
Mg2 O48 2.036403 1_555
Mg2 O49 2.088543 1_555
Mg2 O50 2.123324 1_555
Mg3 O17 1.971894 1_555
Mg3 O16 2.013291 1_555
Mg3 O15 2.017849 1_555
Mg3 O53 2.036403 1_555
Mg3 O52 2.088543 1_555
Mg3 O51 2.123324 1_555
Mg4 O24 1.971894 1_554
Mg4 O25 2.013291 1_554
Mg4 O26 2.017849 1_554
Mg4 O60 2.036403 1_555
Mg4 O61 2.088543 1_555
Mg4 O62 2.123324 1_555
Mg5 O29 1.971894 1_555
Mg5 O28 2.013291 1_555
Mg5 O27 2.017849 1_555
Mg5 O65 2.036403 1_555
Mg5 O64 2.088543 1_555
Mg5 O63 2.123324 1_555
O0 P0 1.499351 1_555
O1 S0 1.460562 1_555
O2 P1 1.509283 1_655
O3 P2 1.509283 1_555
O4 S1 1.460562 1_655
O5 P3 1.499351 1_555
O6 P3 1.608494 1_565
O6 Ti0 1.921291 1_565
O7 P2 1.601255 1_555
O7 Ti0 1.872404 1_455
O8 S1 1.498507 1_555
O8 Ti0 2.102534 1_465
O9 S0 1.498507 1_555
O9 Ti1 2.102534 1_665
O10 P1 1.601255 1_555
O10 Ti1 1.872404 1_555
O11 P0 1.608494 1_565
O11 Ti1 1.921291 1_565
O12 P4 1.499351 1_555
O13 S2 1.460562 1_555
O14 P5 1.509283 1_555
O15 P6 1.509283 1_555
O16 S3 1.460562 1_555
O17 P7 1.499351 1_555
O18 P7 1.608494 1_555
O18 Ti2 1.921291 1_554
O19 P6 1.601255 1_555
O19 Ti2 1.872404 1_554
O20 S3 1.498507 1_555
O20 Ti2 2.102534 1_554
O21 S2 1.498507 1_555
O21 Ti3 2.102534 1_555
O22 P5 1.601255 1_555
O22 Ti3 1.872404 1_555
O23 P4 1.608494 1_555
O23 Ti3 1.921291 1_555
O24 P8 1.499351 1_555
O25 S4 1.460562 1_555
O26 P9 1.509283 1_555
O27 P10 1.509283 1_555
O28 S5 1.460562 1_555
O29 P11 1.499351 1_555
O30 P11 1.608494 1_555
O30 Ti4 1.921291 1_555
O31 P10 1.601255 1_555
O31 Ti4 1.872404 1_555
O32 S5 1.498507 1_555
O32 Ti4 2.102534 1_555
O33 S4 1.498507 1_555
O33 Ti5 2.102534 1_555
O34 P9 1.601255 1_555
O34 Ti5 1.872404 1_555
O35 P8 1.608494 1_555
O35 Ti5 1.921291 1_555
O36 P11 1.505172 1_555
O37 P10 1.528868 1_555
O38 S5 1.478711 1_555
O39 S4 1.478715 1_555
O40 P9 1.528859 1_555
O41 P8 1.505178 1_555
O42 P4 1.604892 1_555
O42 Ti0 1.944898 1_555
O43 S2 1.497040 1_555
O43 Ti0 2.110486 1_455
O44 P5 1.580584 1_555
O44 Ti0 2.029347 1_565
O45 P6 1.580588 1_555
O45 Ti1 2.029347 1_665
O46 S3 1.497031 1_555
O46 Ti1 2.110486 1_655
O47 P7 1.604896 1_555
O47 Ti1 1.944898 1_555
O48 P3 1.505172 1_555
O49 P2 1.528868 1_555
O50 S1 1.478711 1_655
O51 S0 1.478715 1_555
O52 P1 1.528859 1_655
O53 P0 1.505178 1_555
O54 P8 1.604904 1_555
O54 Ti2 1.944898 1_555
O55 S4 1.497026 1_655
O55 Ti2 2.110486 1_555
O56 P9 1.580583 1_545
O56 Ti2 2.029347 1_555
O57 P10 1.580575 1_545
O57 Ti3 2.029347 1_555
O58 S5 1.497044 1_555
O58 Ti3 2.110486 1_555
O59 P11 1.604895 1_655
O59 Ti3 1.944898 1_555
O60 P7 1.505184 1_555
O61 P6 1.528853 1_455
O62 S3 1.478708 1_565
O63 S2 1.478701 1_565
O64 P5 1.528870 1_555
O65 P4 1.505173 1_455
O66 P0 1.604892 1_565
O66 Ti4 1.944898 1_555
O67 S0 1.497040 1_555
O67 Ti4 2.110486 1_555
O68 P1 1.580584 1_555
O68 Ti4 2.029347 1_555
O69 P2 1.580588 1_555
O69 Ti5 2.029347 1_555
O70 S1 1.497031 1_555
O70 Ti5 2.110486 1_555
O71 P3 1.604896 1_565
O71 Ti5 1.944898 1_555
