# generated using pymatgen
data_MgMo2(RhO3)4
_symmetry_space_group_name_H-M   'P 1'
_cell_length_a   4.72356252
_cell_length_b   4.72356252
_cell_length_c   9.78855600
_cell_angle_alpha   90.00000000
_cell_angle_beta   90.00000000
_cell_angle_gamma   87.70472212
_symmetry_Int_Tables_number   1
_chemical_formula_structural   MgMo2(RhO3)4
_chemical_formula_sum   'Mg1 Mo2 Rh4 O12'
_cell_volume   218.22745699
_cell_formula_units_Z   1
loop_
 _symmetry_equiv_pos_site_id
 _symmetry_equiv_pos_as_xyz
  1  'x, y, z'
loop_
 _atom_site_type_symbol
 _atom_site_label
 _atom_site_symmetry_multiplicity
 _atom_site_fract_x
 _atom_site_fract_y
 _atom_site_fract_z
 _atom_site_occupancy
  Mg  Mg0  1  0.20391300  0.20391300  0.50000000  1
  Mo  Mo0  1  0.99603800  0.99603800  0.00000000  1
  Mo  Mo1  1  0.56782400  0.56782400  0.50000000  1
  Rh  Rh0  1  0.49692800  0.49692800  0.83813200  1
  Rh  Rh1  1  0.98458600  0.98458600  0.31088700  1
  Rh  Rh2  1  0.49692800  0.49692800  0.16186800  1
  Rh  Rh3  1  0.98458600  0.98458600  0.68911300  1
  O  O0  1  0.69714100  0.69714100  0.67781400  1
  O  O1  1  0.30399300  0.30399300  0.67922100  1
  O  O2  1  0.69714100  0.69714100  0.32218600  1
  O  O3  1  0.19372600  0.80274000  0.15499500  1
  O  O4  1  0.80274000  0.19372600  0.15499500  1
  O  O5  1  0.80274000  0.19372600  0.84500500  1
  O  O6  1  0.30226500  0.30226500  0.00000000  1
  O  O7  1  0.18751400  0.77983200  0.50000000  1
  O  O8  1  0.77983200  0.18751400  0.50000000  1
  O  O9  1  0.69883200  0.69883200  0.00000000  1
  O  O10  1  0.30399300  0.30399300  0.32077900  1
  O  O11  1  0.19372600  0.80274000  0.84500500  1
loop_
_geom_bond_atom_site_label_1
_geom_bond_atom_site_label_2
_geom_bond_distance
_geom_bond_site_symmetry_2
Mg0 O1 1.882147 1_555
Mg0 O10 1.882147 1_555
Mg0 O8 2.007768 1_455
Mg0 O7 2.007768 1_545
Mg0 Rh3 2.378931 1_445
Mg0 Rh1 2.378931 1_445
Mo0 O11 1.984734 1_654
Mo0 O5 1.984734 1_564
Mo0 O4 1.984734 1_565
Mo0 O3 1.984734 1_655
Mo0 O9 2.024740 1_555
Mo0 O6 2.086196 1_665
Mo1 O0 1.950799 1_555
Mo1 O2 1.950799 1_555
Mo1 O7 2.021358 1_555
Mo1 O8 2.021358 1_555
Mo1 O1 2.511605 1_555
Mo1 O10 2.511605 1_555
O0 Rh3 1.961363 1_555
O0 Rh0 2.079195 1_555
O1 Rh0 2.036472 1_555
O1 Rh3 2.178139 1_445
O2 Rh1 1.961363 1_555
O2 Rh2 2.079195 1_555
O3 Rh1 1.993567 1_455
O3 Rh2 1.994151 1_555
O4 Rh1 1.993567 1_545
O4 Rh2 1.994151 1_555
O5 Rh3 1.993567 1_545
O5 Rh0 1.994151 1_555
O6 Rh0 2.066201 1_554
O6 Rh2 2.066201 1_555
O7 Rh1 2.281818 1_455
O7 Rh3 2.281818 1_455
O8 Rh1 2.281818 1_545
O8 Rh3 2.281818 1_545
O9 Rh0 2.098204 1_554
O9 Rh2 2.098204 1_555
O10 Rh2 2.036472 1_555
O10 Rh1 2.178139 1_445
O11 Rh3 1.993567 1_455
O11 Rh0 1.994151 1_555
