# generated using pymatgen
data_Na3Ca2Ta2P5SO24
_symmetry_space_group_name_H-M   'P 1'
_cell_length_a   9.04522475
_cell_length_b   9.05021428
_cell_length_c   22.71700522
_cell_angle_alpha   90.42025142
_cell_angle_beta   89.67972947
_cell_angle_gamma   119.77365862
_symmetry_Int_Tables_number   1
_chemical_formula_structural   Na3Ca2Ta2P5SO24
_chemical_formula_sum   'Na9 Ca6 Ta6 P15 S3 O72'
_cell_volume   1614.11015761
_cell_formula_units_Z   3
loop_
 _symmetry_equiv_pos_site_id
 _symmetry_equiv_pos_as_xyz
  1  'x, y, z'
loop_
 _atom_site_type_symbol
 _atom_site_label
 _atom_site_symmetry_multiplicity
 _atom_site_fract_x
 _atom_site_fract_y
 _atom_site_fract_z
 _atom_site_occupancy
  Na  Na0  1  0.01900179  0.36196424  0.75485984  1
  Na  Na1  1  0.68965908  0.99884662  0.58720026  1
  Na  Na2  1  0.68925773  0.69619720  0.08767271  1
  Na  Na3  1  0.02418715  0.00697199  0.50733806  1
  Na  Na4  1  0.01760821  0.01913162  0.00613008  1
  Na  Na5  1  0.66336656  0.34821927  0.84256634  1
  Na  Na6  1  0.64828936  0.31788475  0.34010025  1
  Na  Na7  1  0.33063398  0.68531122  0.17662166  1
  Na  Na8  1  0.33442687  0.67456861  0.67627365  1
  Ca  Ca0  1  0.00671653  0.99451568  0.64650900  1
  Ca  Ca1  1  0.00576654  0.00709279  0.14715250  1
  Ca  Ca2  1  0.67124790  0.33069336  0.97840947  1
  Ca  Ca3  1  0.66407979  0.33430187  0.47729415  1
  Ca  Ca4  1  0.34064015  0.67031003  0.31181922  1
  Ca  Ca5  1  0.34106324  0.67471493  0.81409036  1
  Ta  Ta0  1  0.99891690  0.99663553  0.35133205  1
  Ta  Ta1  1  0.99346751  0.99781853  0.85042055  1
  Ta  Ta2  1  0.66327646  0.33792362  0.68495483  1
  Ta  Ta3  1  0.66049824  0.33146009  0.18425707  1
  Ta  Ta4  1  0.33166499  0.66166111  0.01860147  1
  Ta  Ta5  1  0.33755022  0.65889385  0.51924059  1
  P  P0  1  0.30346166  0.01637020  0.24831524  1
  P  P1  1  0.71319280  0.69464590  0.24569302  1
  P  P2  1  0.29899288  0.28499941  0.74956694  1
  P  P3  1  0.98281614  0.69459634  0.74941042  1
  P  P4  1  0.70896137  0.01643267  0.74574656  1
  P  P5  1  0.96682595  0.35017357  0.58258173  1
  P  P6  1  0.38041937  0.02950859  0.58117600  1
  P  P7  1  0.65325910  0.62066543  0.58149765  1
  P  P8  1  0.96577110  0.61656135  0.08261633  1
  P  P9  1  0.64861438  0.02932232  0.08176928  1
  P  P10  1  0.37714866  0.34611983  0.08083837  1
  P  P11  1  0.63861759  0.68288205  0.91583487  1
  P  P12  1  0.04733639  0.36182304  0.91210737  1
  P  P13  1  0.63787498  0.95142943  0.41593994  1
  P  P14  1  0.31439428  0.36041478  0.41303409  1
  S  S0  1  0.97846790  0.28588373  0.25152715  1
  S  S1  1  0.31126208  0.95183259  0.91748626  1
  S  S2  1  0.05097827  0.68501505  0.41567647  1
  O  O0  1  0.20115668  0.03531943  0.30452699  1
  O  O1  1  0.83872852  0.80541798  0.29972924  1
  O  O2  1  0.96384457  0.17218504  0.30421157  1
  O  O3  1  0.20068007  0.16308404  0.80494773  1
  O  O4  1  0.96688066  0.79699226  0.80556293  1
  O  O5  1  0.83766954  0.03407787  0.80002970  1
  O  O6  1  0.78583158  0.99970570  0.68888944  1
  O  O7  1  0.18996663  0.21008492  0.69616838  1
  O  O8  1  0.01083820  0.79381197  0.69454728  1
  O  O9  1  0.78445182  0.78735485  0.18868356  1
  O  O10  1  0.00193146  0.21381520  0.19778910  1
  O  O11  1  0.20614240  0.00051876  0.19365783  1
  O  O12  1  0.87270430  0.37357680  0.64051016  1
  O  O13  1  0.50277905  0.13364218  0.63741381  1
  O  O14  1  0.63482466  0.50399390  0.63759441  1
  O  O15  1  0.86738560  0.49511727  0.13845325  1
  O  O16  1  0.63052034  0.13025861  0.13826290  1
  O  O17  1  0.50129018  0.37082021  0.13693950  1
  O  O18  1  0.46008157  0.32656074  0.02681861  1
  O  O19  1  0.85621113  0.54056392  0.02963502  1
  O  O20  1  0.67701071  0.12965205  0.02734085  1
  O  O21  1  0.46567695  0.12918706  0.52720168  1
  O  O22  1  0.68305319  0.54832713  0.52688507  1
  O  O23  1  0.85491505  0.32100669  0.53092755  1
  O  O24  1  0.53943306  0.70263046  0.97330816  1
  O  O25  1  0.17244011  0.47287851  0.96668632  1
  O  O26  1  0.29779189  0.83994746  0.97013789  1
  O  O27  1  0.53791030  0.83277793  0.47344163  1
  O  O28  1  0.29781914  0.46448766  0.47030144  1
  O  O29  1  0.16162980  0.70540038  0.46907041  1
  O  O30  1  0.12486652  0.66333520  0.36243212  1
  O  O31  1  0.53041219  0.86953033  0.36345579  1
  O  O32  1  0.32701174  0.45995245  0.35985448  1
  O  O33  1  0.12056721  0.45499033  0.85546220  1
  O  O34  1  0.33123126  0.87860321  0.86353491  1
  O  O35  1  0.53578293  0.66601642  0.86271633  1
  O  O36  1  0.04754811  0.85312999  0.41251977  1
  O  O37  1  0.81200658  0.94627638  0.40918324  1
  O  O38  1  0.13986844  0.18267646  0.41007190  1
  O  O39  1  0.04952612  0.18663420  0.90997978  1
  O  O40  1  0.14347349  0.95162733  0.91655301  1
  O  O41  1  0.81511276  0.85878657  0.91039159  1
  O  O42  1  0.99634762  0.20030005  0.59069096  1
  O  O43  1  0.19882245  0.98885511  0.58723400  1
  O  O44  1  0.78539924  0.80571051  0.59049681  1
  O  O45  1  0.99630965  0.79593374  0.09159168  1
  O  O46  1  0.78671905  0.98281045  0.09118922  1
  O  O47  1  0.19576473  0.21049410  0.08893470  1
  O  O48  1  0.71746988  0.19625379  0.74571887  1
  O  O49  1  0.47511897  0.28880565  0.74314243  1
  O  O50  1  0.80571650  0.52084463  0.74540292  1
  O  O51  1  0.71638426  0.51982358  0.24327428  1
  O  O52  1  0.80981583  0.28306807  0.25004320  1
  O  O53  1  0.48159214  0.19084511  0.24444599  1
  O  O54  1  0.67574914  0.53911023  0.92213975  1
  O  O55  1  0.86674302  0.32270164  0.92096138  1
  O  O56  1  0.45057844  0.12496881  0.92441804  1
  O  O57  1  0.68412470  0.13489597  0.42332045  1
  O  O58  1  0.45920933  0.32482095  0.42001355  1
  O  O59  1  0.87677676  0.54774307  0.42267898  1
  O  O60  1  0.38319405  0.52698083  0.07737496  1
  O  O61  1  0.14189641  0.61984986  0.07561209  1
  O  O62  1  0.47184958  0.85377968  0.07646708  1
  O  O63  1  0.38662137  0.85546605  0.57927907  1
  O  O64  1  0.47261998  0.61481365  0.57704524  1
  O  O65  1  0.14342915  0.52116812  0.57524040  1
  O  O66  1  0.33800076  0.87104619  0.25552508  1
  O  O67  1  0.53217581  0.65483405  0.25472904  1
  O  O68  1  0.11603598  0.45930097  0.25936311  1
  O  O69  1  0.32945578  0.46421871  0.75849471  1
  O  O70  1  0.12113040  0.64783832  0.75773325  1
  O  O71  1  0.52956247  0.87613509  0.75461538  1
loop_
_geom_bond_atom_site_label_1
_geom_bond_atom_site_label_2
_geom_bond_distance
_geom_bond_site_symmetry_2
Na0 O70 2.275059 1_555
Na0 O48 2.381288 1_455
Na0 O33 2.450074 1_555
Na0 O69 2.483821 1_555
Na0 O5 2.782245 1_455
Na0 O7 2.849483 1_555
Na0 O50 2.932535 1_455
Na0 O12 2.947992 1_455
Na1 O44 2.305807 1_555
Na1 O63 2.387287 1_555
Na1 O42 2.450121 1_565
Na1 O6 2.471581 1_555
Na1 O13 2.766373 1_565
Na1 O23 2.841536 1_565
Na1 O27 2.958909 1_555
Na2 O46 2.288805 1_555
Na2 O60 2.419818 1_555
Na2 O9 2.444654 1_555
Na2 O45 2.459307 1_555
Na3 O43 2.471825 1_545
Na3 O36 2.620291 1_545
Na3 O38 2.622787 1_555
Na3 O42 2.663421 1_455
Na3 O44 2.765730 1_445
Na3 O37 2.817789 1_445
Na4 O47 2.519722 1_555
Na4 O40 2.541045 1_544
Na4 O39 2.599847 1_554
Na4 O46 2.736019 1_445
Na4 O41 2.747601 1_444
Na4 O45 2.748361 1_445
Na5 O54 2.455425 1_555
Na5 O50 2.644174 1_555
Na5 O55 2.659624 1_555
Na5 O56 2.719778 1_555
Na5 O49 2.721336 1_555
Na5 O48 2.753794 1_555
Na6 O58 2.508955 1_555
Na6 O53 2.568170 1_555
Na6 O52 2.614132 1_555
Na6 O57 2.647194 1_555
Na6 O51 2.735606 1_555
Na6 O59 2.798967 1_555
Na7 O66 2.426680 1_555
Na7 O67 2.662794 1_555
Na7 O62 2.686451 1_555
Na7 O61 2.747755 1_555
Na7 O68 2.749021 1_555
Na7 O60 2.824828 1_555
Na8 O71 2.529857 1_555
Na8 O70 2.590042 1_555
Na8 O63 2.651779 1_555
Na8 O69 2.661031 1_555
Na8 O64 2.749217 1_555
Na8 O65 2.792030 1_555
Ca0 O8 2.142063 1_555
Ca0 O7 2.145523 1_565
Ca0 O43 2.212794 1_555
Ca0 O6 2.234270 1_455
Ca0 O44 2.268405 1_455
Ca0 O42 2.301005 1_465
Ca1 O11 2.129326 1_555
Ca1 O10 2.203874 1_555
Ca1 O9 2.214720 1_445
Ca1 O47 2.227019 1_555
Ca1 O45 2.248540 1_445
Ca1 O46 2.276369 1_445
Ca2 O19 2.143416 1_556
Ca2 O20 2.161778 1_556
Ca2 O18 2.182937 1_556
Ca2 O55 2.221507 1_555
Ca2 O54 2.269799 1_555
Ca2 O56 2.293022 1_555
Ca3 O21 2.156738 1_555
Ca3 O22 2.165747 1_555
Ca3 O23 2.170363 1_555
Ca3 O58 2.236511 1_555
Ca3 O57 2.254570 1_555
Ca3 O59 2.299928 1_555
Ca4 O31 2.119207 1_555
Ca4 O32 2.150867 1_555
Ca4 O67 2.217277 1_555
Ca4 O30 2.233562 1_555
Ca4 O66 2.239174 1_555
Ca4 O68 2.309726 1_555
Ca5 O35 2.118789 1_555
Ca5 O34 2.192236 1_555
Ca5 O33 2.209755 1_555
Ca5 O71 2.231386 1_555
Ca5 O69 2.236697 1_555
Ca5 O70 2.280144 1_555
O0 P0 1.630197 1_555
O0 Ta0 1.986740 1_445
O1 P1 1.633469 1_555
O1 Ta0 1.991831 1_555
O2 S0 1.545917 1_555
O2 Ta0 2.073629 1_545
O3 P2 1.619991 1_555
O3 Ta1 2.008483 1_445
O4 P3 1.618648 1_555
O4 Ta1 1.985225 1_555
O5 P4 1.652281 1_555
O5 Ta1 1.971506 1_545
O6 P4 1.505420 1_565
O7 P2 1.496989 1_555
O8 P3 1.486839 1_455
O9 P1 1.505385 1_555
O10 S0 1.443478 1_455
O11 P0 1.490420 1_555
O12 P5 1.632141 1_555
O12 Ta2 2.021957 1_555
O13 P6 1.645448 1_555
O13 Ta2 2.003649 1_555
O14 P7 1.615304 1_555
O14 Ta2 1.973233 1_555
O15 P8 1.626454 1_555
O15 Ta3 2.006612 1_555
O16 P9 1.623953 1_555
O16 Ta3 1.991447 1_555
O17 P10 1.642436 1_555
O17 Ta3 1.971935 1_555
O18 P10 1.489427 1_555
O19 P8 1.492644 1_555
O20 P9 1.483426 1_555
O21 P6 1.492199 1_555
O22 P7 1.483231 1_555
O23 P5 1.488168 1_555
O24 P11 1.638350 1_555
O24 Ta4 2.004972 1_556
O25 P12 1.641894 1_555
O25 Ta4 1.982375 1_556
O26 S1 1.537662 1_555
O26 Ta4 2.104816 1_556
O27 P13 1.649266 1_555
O27 Ta5 2.003465 1_555
O28 P14 1.649897 1_555
O28 Ta5 1.951539 1_555
O29 S2 1.527719 1_555
O29 Ta5 2.168090 1_555
O30 S2 1.437325 1_555
O31 P13 1.483312 1_555
O32 P14 1.481995 1_555
O33 P12 1.502429 1_555
O34 S1 1.441693 1_555
O35 P11 1.487768 1_555
O36 S2 1.539319 1_555
O36 Ta0 2.100730 1_455
O37 P13 1.605207 1_555
O37 Ta0 2.002956 1_555
O38 P14 1.600546 1_555
O38 Ta0 2.023634 1_445
O39 P12 1.595801 1_555
O39 Ta1 2.030030 1_445
O40 S1 1.517030 1_555
O40 Ta1 2.206376 1_455
O41 P11 1.604646 1_555
O41 Ta1 2.006600 1_555
O42 P5 1.519526 1_555
O43 P6 1.500134 1_565
O44 P7 1.511541 1_555
O45 P8 1.517760 1_555
O46 P9 1.519868 1_565
O47 P10 1.494029 1_555
O48 P4 1.590611 1_555
O48 Ta2 2.108871 1_555
O49 P2 1.582222 1_555
O49 Ta2 2.018301 1_555
O50 P3 1.595281 1_555
O50 Ta2 2.038229 1_555
O51 P1 1.597251 1_555
O51 Ta3 2.019234 1_555
O52 S0 1.513565 1_555
O52 Ta3 2.206582 1_555
O53 P0 1.603382 1_555
O53 Ta3 2.015759 1_555
O54 P11 1.504541 1_555
O55 P12 1.502377 1_655
O56 S1 1.451062 1_545
O57 P13 1.505632 1_545
O58 P14 1.505603 1_555
O59 S2 1.451716 1_655
O60 P10 1.612868 1_555
O60 Ta4 2.020055 1_555
O61 P8 1.585653 1_455
O61 Ta4 2.025865 1_555
O62 P9 1.603587 1_565
O62 Ta4 2.038251 1_555
O63 P6 1.603979 1_565
O63 Ta5 2.099781 1_555
O64 P7 1.612006 1_555
O64 Ta5 1.971249 1_555
O65 P5 1.587483 1_455
O65 Ta5 2.019839 1_555
O66 P0 1.505332 1_565
O67 P1 1.504747 1_555
O68 S0 1.449858 1_455
O69 P2 1.516506 1_555
O70 P3 1.519751 1_455
O71 P4 1.496590 1_565
