# generated using pymatgen
data_Na7CaIn3Si3(SO8)3
_symmetry_space_group_name_H-M   'P 1'
_cell_length_a   9.33971442
_cell_length_b   9.35184991
_cell_length_c   22.85216835
_cell_angle_alpha   90.39418718
_cell_angle_beta   89.90570584
_cell_angle_gamma   119.82214191
_symmetry_Int_Tables_number   1
_chemical_formula_structural   Na7CaIn3Si3(SO8)3
_chemical_formula_sum   'Na21 Ca3 In9 Si9 S9 O72'
_cell_volume   1731.62380104
_cell_formula_units_Z   3
loop_
 _symmetry_equiv_pos_site_id
 _symmetry_equiv_pos_as_xyz
  1  'x, y, z'
loop_
 _atom_site_type_symbol
 _atom_site_label
 _atom_site_symmetry_multiplicity
 _atom_site_fract_x
 _atom_site_fract_y
 _atom_site_fract_z
 _atom_site_occupancy
  Na  Na0  1  0.63548283  0.98883712  0.23992254  1
  Na  Na1  1  0.38733221  0.38273627  0.23741419  1
  Na  Na2  1  0.97792669  0.63527271  0.25646734  1
  Na  Na3  1  0.61914546  0.62575107  0.73818244  1
  Na  Na4  1  0.99437594  0.34281014  0.75073801  1
  Na  Na5  1  0.39030170  0.02083909  0.75950744  1
  Na  Na6  1  0.01570831  0.69819324  0.57407327  1
  Na  Na7  1  0.66812465  0.95462404  0.58358412  1
  Na  Na8  1  0.31956412  0.98368207  0.07891469  1
  Na  Na9  1  0.64973992  0.69261152  0.09163372  1
  Na  Na10  1  0.68986208  0.03572221  0.91663809  1
  Na  Na11  1  0.33398697  0.28296497  0.91813787  1
  Na  Na12  1  0.95545031  0.29867863  0.41279459  1
  Na  Na13  1  0.33273555  0.01431602  0.41667468  1
  Na  Na14  1  0.72865814  0.69065419  0.41609132  1
  Na  Na15  1  0.98234017  0.97972774  0.49690736  1
  Na  Na16  1  0.01251430  0.01173655  0.00542012  1
  Na  Na17  1  0.64833070  0.31277225  0.83065333  1
  Na  Na18  1  0.68083071  0.35329388  0.33339105  1
  Na  Na19  1  0.35139362  0.65990094  0.15840580  1
  Na  Na20  1  0.36058672  0.64747082  0.66792021  1
  Ca  Ca0  1  0.99177438  0.99004985  0.35191806  1
  Ca  Ca1  1  0.65660924  0.33532272  0.68291620  1
  Ca  Ca2  1  0.65870745  0.33178937  0.17543895  1
  In  In0  1  0.00958273  0.00149516  0.84925014  1
  In  In1  1  0.99294431  0.00328329  0.65370321  1
  In  In2  1  0.98263033  0.00486563  0.14668622  1
  In  In3  1  0.64384985  0.30576190  0.99020221  1
  In  In4  1  0.67836341  0.35104624  0.48427731  1
  In  In5  1  0.33028584  0.67113879  0.01556677  1
  In  In6  1  0.34828580  0.67132595  0.51447753  1
  In  In7  1  0.35107406  0.68584094  0.32145472  1
  In  In8  1  0.34198030  0.67244859  0.81722063  1
  Si  Si0  1  0.69278768  0.69489356  0.25219983  1
  Si  Si1  1  0.29311925  0.29949268  0.75358174  1
  Si  Si2  1  0.70203512  0.99528026  0.75357527  1
  Si  Si3  1  0.67024034  0.64462007  0.58421814  1
  Si  Si4  1  0.66536496  0.02243524  0.08195225  1
  Si  Si5  1  0.35129668  0.33360794  0.08262998  1
  Si  Si6  1  0.32673501  0.96235054  0.91644015  1
  Si  Si7  1  0.63658966  0.98164511  0.42035395  1
  Si  Si8  1  0.04431879  0.66245617  0.41874953  1
  S  S0  1  0.29570903  0.99627687  0.24978833  1
  S  S1  1  0.00934238  0.30811937  0.25251783  1
  S  S2  1  0.00486710  0.70474001  0.74915470  1
  S  S3  1  0.97143799  0.33449179  0.58272159  1
  S  S4  1  0.35995356  0.02843050  0.58222452  1
  S  S5  1  0.96501113  0.63145572  0.08268245  1
  S  S6  1  0.63574115  0.66351304  0.91696752  1
  S  S7  1  0.03357947  0.37248649  0.91581097  1
  S  S8  1  0.33641706  0.37108479  0.41614190  1
  O  O0  1  0.22130210  0.01833387  0.30378288  1
  O  O1  1  0.79609987  0.77518042  0.31162774  1
  O  O2  1  0.99312434  0.21571184  0.30659418  1
  O  O3  1  0.22018692  0.18948012  0.81296339  1
  O  O4  1  0.97628834  0.78370110  0.80055047  1
  O  O5  1  0.81277048  0.01169247  0.81204413  1
  O  O6  1  0.77513139  0.95955836  0.69266767  1
  O  O7  1  0.17102074  0.20907658  0.69701063  1
  O  O8  1  0.03110680  0.80349701  0.69490942  1
  O  O9  1  0.78196605  0.81453791  0.19398392  1
  O  O10  1  0.03436388  0.22416434  0.20096469  1
  O  O11  1  0.19527311  0.98285734  0.19734489  1
  O  O12  1  0.89123729  0.35356432  0.63568643  1
  O  O13  1  0.46210203  0.10739985  0.63461508  1
  O  O14  1  0.65377211  0.54848370  0.64386465  1
  O  O15  1  0.89624406  0.54428542  0.13807770  1
  O  O16  1  0.64258923  0.10291844  0.14168742  1
  O  O17  1  0.46605069  0.37920601  0.14083462  1
  O  O18  1  0.43500574  0.30111775  0.02292165  1
  O  O19  1  0.85518112  0.54237042  0.03207353  1
  O  O20  1  0.69705432  0.13409773  0.02245833  1
  O  O21  1  0.44063720  0.12456177  0.52852872  1
  O  O22  1  0.69896568  0.55757975  0.52479788  1
  O  O23  1  0.86598879  0.30953721  0.52966899  1
  O  O24  1  0.55344258  0.68815718  0.96869059  1
  O  O25  1  0.14406265  0.45803345  0.96571531  1
  O  O26  1  0.30962917  0.85797323  0.97527666  1
  O  O27  1  0.55535881  0.85756353  0.47570279  1
  O  O28  1  0.30868307  0.44863734  0.46808418  1
  O  O29  1  0.14738398  0.67224524  0.47820364  1
  O  O30  1  0.12671654  0.62898166  0.35943555  1
  O  O31  1  0.52415947  0.90644105  0.36011939  1
  O  O32  1  0.36155519  0.46990099  0.36211698  1
  O  O33  1  0.10989131  0.46120378  0.86005451  1
  O  O34  1  0.35744613  0.87860752  0.85744130  1
  O  O35  1  0.53089618  0.63146062  0.86320638  1
  O  O36  1  0.03572225  0.83300755  0.41876844  1
  O  O37  1  0.82567123  0.01638234  0.41771355  1
  O  O38  1  0.19126223  0.20453046  0.41089270  1
  O  O39  1  0.01381466  0.20257250  0.91483593  1
  O  O40  1  0.16638054  0.99273111  0.91441128  1
  O  O41  1  0.79707887  0.81880599  0.91141515  1
  O  O42  1  0.98688332  0.18385756  0.58483515  1
  O  O43  1  0.19109080  0.00746552  0.58654739  1
  O  O44  1  0.84463599  0.83158684  0.58413698  1
  O  O45  1  0.98254234  0.79987974  0.08483247  1
  O  O46  1  0.81848516  0.98179735  0.08062082  1
  O  O47  1  0.18138218  0.15038248  0.08971306  1
  O  O48  1  0.69147876  0.16503395  0.75169877  1
  O  O49  1  0.48095544  0.33063608  0.75001141  1
  O  O50  1  0.86008253  0.53710991  0.74430371  1
  O  O51  1  0.67301159  0.51040742  0.24823356  1
  O  O52  1  0.85781704  0.32200797  0.24651959  1
  O  O53  1  0.46625979  0.13831691  0.24600590  1
  O  O54  1  0.65590004  0.51661935  0.92324919  1
  O  O55  1  0.86759404  0.35653322  0.92117656  1
  O  O56  1  0.50015928  0.14934071  0.91781982  1
  O  O57  1  0.63406963  0.15787349  0.42713772  1
  O  O58  1  0.48789739  0.35627280  0.42188895  1
  O  O59  1  0.85535630  0.49894754  0.41855637  1
  O  O60  1  0.33513747  0.49888633  0.07257949  1
  O  O61  1  0.13385962  0.65462051  0.07661125  1
  O  O62  1  0.49104644  0.84210125  0.07826149  1
  O  O63  1  0.34064581  0.85901616  0.57908708  1
  O  O64  1  0.50733721  0.67096328  0.57919279  1
  O  O65  1  0.13481289  0.48742057  0.57751288  1
  O  O66  1  0.30120156  0.83787896  0.25166080  1
  O  O67  1  0.50427518  0.67990345  0.25338733  1
  O  O68  1  0.15845495  0.47678084  0.25416864  1
  O  O69  1  0.29729452  0.48051636  0.75696787  1
  O  O70  1  0.15633705  0.69074916  0.75543117  1
  O  O71  1  0.51498645  0.82926800  0.75448069  1
loop_
_geom_bond_atom_site_label_1
_geom_bond_atom_site_label_2
_geom_bond_distance
_geom_bond_site_symmetry_2
Na0 O16 2.478743 1_565
Na0 O67 2.536318 1_555
Na0 O53 2.581774 1_565
Na0 O66 2.725988 1_555
Na0 O52 2.757192 1_565
Na0 O9 2.796523 1_555
Na0 O31 2.905570 1_555
Na1 O17 2.330343 1_555
Na1 O51 2.331382 1_555
Na1 O67 2.453104 1_555
Na1 O68 2.711500 1_555
Na1 O53 2.736655 1_555
Na1 O10 2.981660 1_555
Na1 O32 3.000726 1_555
Na2 O51 2.490026 1_555
Na2 O52 2.572088 1_555
Na2 O66 2.651420 1_655
Na2 O68 2.743504 1_655
Na2 O30 2.750530 1_655
Na2 O15 2.820464 1_555
Na2 O1 2.892231 1_555
Na3 O14 2.341162 1_555
Na3 O49 2.412881 1_555
Na3 O71 2.556970 1_555
Na3 O69 2.647264 1_555
Na3 O50 2.761974 1_555
Na3 O6 2.909577 1_555
Na3 O35 2.979758 1_555
Na4 O69 2.461283 1_655
Na4 O48 2.467780 1_555
Na4 O50 2.677237 1_555
Na4 O33 2.722715 1_655
Na4 O7 2.796056 1_655
Na4 O12 2.821160 1_555
Na4 O70 2.826225 1_655
Na5 O48 2.447777 1_555
Na5 O34 2.550448 1_545
Na5 O71 2.578899 1_545
Na5 O49 2.593424 1_555
Na5 O70 2.756883 1_545
Na5 O13 2.955710 1_555
Na5 O3 2.993869 1_555
Na6 O44 2.477749 1_455
Na6 O43 2.531339 1_565
Na6 O29 2.579088 1_555
Na6 O63 2.635196 1_555
Na6 O65 2.704109 1_555
Na6 O22 2.805360 1_455
Na6 O8 2.904937 1_555
Na7 O64 2.310174 1_555
Na7 O44 2.434915 1_555
Na7 O27 2.652899 1_555
Na7 O42 2.666701 1_565
Na7 O6 2.678756 1_555
Na7 O63 2.728475 1_555
Na8 O47 2.480247 1_565
Na8 O62 2.535200 1_555
Na8 O26 2.617954 1_554
Na8 O61 2.677756 1_555
Na8 O45 2.738830 1_455
Na8 O18 2.911468 1_565
Na8 O11 2.941630 1_555
Na8 O16 3.008225 1_565
Na9 O46 2.372732 1_555
Na9 O62 2.512539 1_555
Na9 O60 2.608473 1_555
Na9 O9 2.620700 1_555
Na9 O45 2.755200 1_555
Na9 O17 2.799198 1_555
Na9 O24 2.945075 1_554
Na10 O56 2.478063 1_555
Na10 O20 2.570438 1_556
Na10 O55 2.609635 1_555
Na10 O39 2.625955 1_655
Na10 O41 2.673721 1_545
Na10 O5 2.705817 1_555
Na11 O40 2.365590 1_545
Na11 O56 2.428823 1_555
Na11 O18 2.548593 1_556
Na11 O3 2.593439 1_555
Na11 O39 2.697556 1_555
Na11 O54 2.700210 1_555
Na12 O37 2.296150 1_555
Na12 O59 2.477221 1_555
Na12 O2 2.618879 1_555
Na12 O57 2.631061 1_555
Na12 O38 2.748744 1_655
Na12 O23 2.813381 1_555
Na12 O30 2.952639 1_655
Na13 O36 2.427937 1_545
Na13 O57 2.453571 1_555
Na13 O38 2.696160 1_555
Na13 O21 2.747917 1_555
Na13 O31 2.766376 1_545
Na13 O58 2.779741 1_555
Na13 O0 2.790902 1_555
Na14 O36 2.490560 1_655
Na14 O1 2.499242 1_555
Na14 O59 2.594085 1_555
Na14 O37 2.711974 1_565
Na14 O22 2.737485 1_555
Na14 O58 2.804186 1_555
Na15 O44 2.409226 1_555
Na15 O36 2.442037 1_655
Na15 O37 2.459658 1_565
Na15 O42 2.747805 1_565
Na15 O43 2.750917 1_665
Na15 O38 2.838133 1_665
Na16 O46 2.409840 1_445
Na16 O47 2.412648 1_555
Na16 O40 2.580936 1_544
Na16 O45 2.606376 1_445
Na16 O39 2.738516 1_554
Na16 O41 2.875557 1_444
Na17 O48 2.417400 1_555
Na17 O49 2.478136 1_555
Na17 O56 2.479521 1_555
Na17 O55 2.794503 1_555
Na17 O54 2.815604 1_555
Na17 O50 2.850244 1_555
Na18 O59 2.462868 1_555
Na18 O51 2.469365 1_555
Na18 O52 2.687245 1_555
Na18 O58 2.715678 1_555
Na18 O57 2.716081 1_555
Na18 O53 2.827789 1_555
Na19 O62 2.404878 1_555
Na19 O60 2.422841 1_555
Na19 O67 2.554207 1_555
Na19 O61 2.745096 1_555
Na19 O68 2.817477 1_555
Na19 O66 2.873241 1_555
Na20 O64 2.394897 1_555
Na20 O69 2.459658 1_555
Na20 O71 2.531297 1_555
Na20 O65 2.790652 1_555
Na20 O63 2.914191 1_555
Na20 O70 2.923417 1_555
Ca0 O1 2.133769 1_555
Ca0 O37 2.257271 1_565
Ca0 O36 2.300363 1_655
Ca0 O0 2.303858 1_665
Ca0 O2 2.351619 1_565
Ca0 O38 2.359009 1_665
Ca1 O14 2.201826 1_555
Ca1 O49 2.228317 1_555
Ca1 O13 2.276997 1_555
Ca1 O50 2.354986 1_555
Ca1 O12 2.370439 1_555
Ca1 O48 2.380082 1_555
Ca2 O16 2.203615 1_555
Ca2 O17 2.205170 1_555
Ca2 O15 2.287357 1_555
Ca2 O51 2.305631 1_555
Ca2 O53 2.429166 1_555
Ca2 O52 2.507242 1_555
In0 O3 2.054888 1_555
In0 O5 2.071589 1_455
In0 O40 2.120589 1_545
In0 O4 2.196290 1_445
In0 O41 2.351098 1_445
In0 O39 2.381483 1_555
In1 O7 2.060356 1_655
In1 O6 2.066435 1_545
In1 O44 2.187262 1_545
In1 O8 2.278645 1_645
In1 O42 2.337448 1_555
In1 O43 2.387681 1_655
In2 O46 2.085745 1_545
In2 O47 2.120543 1_655
In2 O9 2.133239 1_545
In2 O10 2.226963 1_655
In2 O45 2.373603 1_545
In2 O11 2.396713 1_645
In3 O20 2.044124 1_556
In3 O18 2.068083 1_556
In3 O56 2.167569 1_555
In3 O19 2.310989 1_556
In3 O54 2.462166 1_555
In3 O55 2.468411 1_555
In4 O22 2.057030 1_555
In4 O57 2.089422 1_555
In4 O59 2.155830 1_555
In4 O23 2.232840 1_555
In4 O58 2.301152 1_555
In4 O21 2.404817 1_555
In5 O26 2.072634 1_554
In5 O60 2.096691 1_555
In5 O62 2.109780 1_555
In5 O25 2.195981 1_554
In5 O61 2.246816 1_555
In5 O24 2.276377 1_554
In6 O27 2.055298 1_555
In6 O29 2.056507 1_555
In6 O64 2.099075 1_555
In6 O28 2.191482 1_555
In6 O63 2.313984 1_555
In6 O65 2.371108 1_555
In7 O31 2.076679 1_555
In7 O30 2.078234 1_555
In7 O67 2.130840 1_555
In7 O32 2.274622 1_555
In7 O66 2.339828 1_555
In7 O68 2.427465 1_555
In8 O34 2.069248 1_555
In8 O71 2.116993 1_555
In8 O69 2.124758 1_555
In8 O35 2.246948 1_555
In8 O33 2.306505 1_555
In8 O70 2.309952 1_555
O0 S0 1.477915 1_545
O1 Si0 1.615181 1_555
O2 S1 1.476734 1_655
O3 Si1 1.638001 1_555
O4 S2 1.476165 1_655
O5 Si2 1.649944 1_545
O6 Si2 1.652965 1_555
O7 Si1 1.648459 1_555
O8 S2 1.496436 1_555
O9 Si0 1.674942 1_555
O10 S1 1.492592 1_555
O11 S0 1.488788 1_555
O12 S3 1.478106 1_555
O13 S4 1.476408 1_555
O14 Si3 1.602653 1_555
O15 S5 1.473205 1_555
O16 Si4 1.618440 1_555
O17 Si5 1.625429 1_555
O18 Si5 1.671042 1_555
O19 S5 1.491477 1_555
O20 Si4 1.654473 1_555
O21 S4 1.489993 1_555
O22 Si3 1.667092 1_555
O23 S3 1.505221 1_555
O24 S6 1.486766 1_555
O25 S7 1.474996 1_555
O26 Si6 1.627382 1_555
O27 Si7 1.631972 1_555
O28 S8 1.475142 1_555
O29 Si8 1.641910 1_555
O30 Si8 1.660674 1_555
O31 Si7 1.657979 1_555
O32 S8 1.494075 1_555
O33 S7 1.497738 1_555
O34 Si6 1.649547 1_555
O35 S6 1.505003 1_555
O36 Si8 1.636380 1_555
O37 Si7 1.630072 1_545
O38 S8 1.475164 1_555
O39 S7 1.505757 1_555
O40 Si6 1.658161 1_555
O41 S6 1.490342 1_555
O42 S3 1.486836 1_555
O43 S4 1.492562 1_555
O44 Si3 1.696358 1_555
O45 S5 1.500847 1_555
O46 Si4 1.652515 1_565
O47 Si5 1.667050 1_555
O48 Si2 1.639627 1_545
O49 Si1 1.631207 1_555
O50 S2 1.479206 1_655
O51 Si0 1.643136 1_555
O52 S1 1.490693 1_655
O53 S0 1.485220 1_545
O54 S6 1.484330 1_555
O55 S7 1.486665 1_655
O56 Si6 1.692546 1_545
O57 Si7 1.666057 1_545
O58 S8 1.494600 1_555
O59 Si8 1.663943 1_655
O60 Si5 1.643657 1_555
O61 S5 1.487615 1_455
O62 Si4 1.664177 1_565
O63 S4 1.504028 1_565
O64 Si3 1.662083 1_555
O65 S3 1.489655 1_455
O66 S0 1.508381 1_555
O67 Si0 1.695492 1_555
O68 S1 1.497778 1_555
O69 Si1 1.675108 1_555
O70 S2 1.491327 1_555
O71 Si2 1.662945 1_555
