# generated using pymatgen
data_MgV2(OF3)2
_symmetry_space_group_name_H-M   'P 1'
_cell_length_a   5.41483436
_cell_length_b   5.42244117
_cell_length_c   6.13588877
_cell_angle_alpha   91.56882937
_cell_angle_beta   116.94230638
_cell_angle_gamma   88.07153500
_symmetry_Int_Tables_number   1
_chemical_formula_structural   MgV2(OF3)2
_chemical_formula_sum   'Mg1 V2 O2 F6'
_cell_volume   160.49984949
_cell_formula_units_Z   1
loop_
 _symmetry_equiv_pos_site_id
 _symmetry_equiv_pos_as_xyz
  1  'x, y, z'
loop_
 _atom_site_type_symbol
 _atom_site_label
 _atom_site_symmetry_multiplicity
 _atom_site_fract_x
 _atom_site_fract_y
 _atom_site_fract_z
 _atom_site_occupancy
  Mg  Mg0  1  0.97929800  0.74173000  0.43983400  1
  V  V0  1  0.97368800  0.01900000  0.99145500  1
  V  V1  1  0.46479400  0.46397100  0.99672800  1
  O  O0  1  0.23255800  0.26019300  0.98698900  1
  O  O1  1  0.71451500  0.22522000  0.94623900  1
  F  F0  1  0.29270300  0.76613100  0.05778900  1
  F  F1  1  0.13841600  0.01569900  0.34595000  1
  F  F2  1  0.79202500  0.72550300  0.05059300  1
  F  F3  1  0.30964800  0.56474200  0.66085100  1
  F  F4  1  0.71304700  0.47428500  0.34350800  1
  F  F5  1  0.86550200  0.91852600  0.65625200  1
loop_
_geom_bond_atom_site_label_1
_geom_bond_atom_site_label_2
_geom_bond_distance
_geom_bond_site_symmetry_2
O0 V1 1.681577 1_555
O0 V0 1.958638 1_455
O1 V0 1.689791 1_555
O1 V1 1.959658 1_555
F0 V1 1.968048 1_554
F0 V0 2.064882 1_464
F1 V0 1.941670 1_454
F1 Mg0 1.965687 1_445
F2 V0 2.022993 1_564
F2 Mg0 2.130731 1_555
F2 V1 2.207434 1_554
F3 V1 1.927045 1_555
F3 Mg0 1.928049 1_455
F4 V1 1.935010 1_554
F4 Mg0 1.962792 1_555
F5 Mg0 1.922006 1_555
F5 V0 1.933539 1_565
