# generated using pymatgen
data_MgFe6(OF)6
_symmetry_space_group_name_H-M   'P 1'
_cell_length_a   5.07299742
_cell_length_b   14.56437716
_cell_length_c   3.06255048
_cell_angle_alpha   89.97215711
_cell_angle_beta   89.95266630
_cell_angle_gamma   96.30244824
_symmetry_Int_Tables_number   1
_chemical_formula_structural   MgFe6(OF)6
_chemical_formula_sum   'Mg1 Fe6 O6 F6'
_cell_volume   224.90901736
_cell_formula_units_Z   1
loop_
 _symmetry_equiv_pos_site_id
 _symmetry_equiv_pos_as_xyz
  1  'x, y, z'
loop_
 _atom_site_type_symbol
 _atom_site_label
 _atom_site_symmetry_multiplicity
 _atom_site_fract_x
 _atom_site_fract_y
 _atom_site_fract_z
 _atom_site_occupancy
  Mg  Mg0  1  0.00548200  0.16477100  0.48943800  1
  Fe  Fe0  1  0.07581200  0.98169500  0.99084000  1
  Fe  Fe1  1  0.98810400  0.35165600  0.99142600  1
  Fe  Fe2  1  0.97074600  0.66614700  0.99253400  1
  Fe  Fe3  1  0.50774700  0.17267700  0.48974100  1
  Fe  Fe4  1  0.49006700  0.50181900  0.49216100  1
  Fe  Fe5  1  0.45992700  0.82552400  0.49168900  1
  O  O0  1  0.23975900  0.93146000  0.49087100  1
  O  O1  1  0.29210400  0.76451300  0.99205500  1
  O  O2  1  0.24298600  0.11145200  0.98915400  1
  O  O3  1  0.28457300  0.45077900  0.99250700  1
  O  O4  1  0.68289000  0.57482300  0.99196400  1
  O  O5  1  0.77781000  0.21356800  0.99008400  1
  F  F0  1  0.23957500  0.27954100  0.49008800  1
  F  F1  1  0.15746400  0.61102700  0.49245700  1
  F  F2  1  0.71780300  0.88793100  0.99149100  1
  F  F3  1  0.75026500  0.40150300  0.49210900  1
  F  F4  1  0.80295600  0.73899300  0.49249300  1
  F  F5  1  0.82782100  0.03678900  0.49023300  1
loop_
_geom_bond_atom_site_label_1
_geom_bond_atom_site_label_2
_geom_bond_distance
_geom_bond_site_symmetry_2
Mg0 O5 2.088037 1_454
Mg0 O5 2.090045 1_455
Mg0 O2 2.145735 1_555
Mg0 O2 2.146094 1_554
Fe0 O0 1.924611 1_555
Fe0 O0 1.925289 1_556
Fe0 O2 1.984644 1_565
Fe1 O3 1.967095 1_655
Fe1 O5 2.170683 1_555
Fe2 O4 1.864170 1_555
Fe2 O1 2.048751 1_655
Fe3 O5 2.095176 1_554
Fe3 O5 2.098785 1_555
Fe3 O2 2.161196 1_555
Fe3 O2 2.165924 1_554
Fe4 O3 1.952819 1_555
Fe4 O3 1.953074 1_554
Fe4 O4 2.049784 1_554
Fe4 O4 2.050862 1_555
Fe5 O1 1.921737 1_555
Fe5 O1 1.921760 1_554
Fe5 O0 2.001591 1_555
F0 Mg0 1.941277 1_555
F0 Fe3 2.176711 1_555
F0 Fe1 2.314887 1_454
F0 Fe1 2.319584 1_455
F1 Fe2 2.013199 1_455
F1 Fe2 2.013437 1_454
F1 Fe4 2.442544 1_555
F2 Fe5 2.149062 1_556
F2 Fe0 2.149155 1_655
F2 Fe5 2.150367 1_555
F3 Fe4 2.073744 1_555
F3 Fe1 2.124978 1_555
F3 Fe1 2.127063 1_554
F4 Fe2 2.095779 1_554
F4 Fe2 2.096236 1_555
F4 Fe5 2.257884 1_555
F5 Mg0 1.979360 1_655
F5 Fe0 2.187540 1_644
F5 Fe0 2.191049 1_645
