# generated using pymatgen
data_Na7CaTi3Si3(PO8)3
_symmetry_space_group_name_H-M   'P 1'
_cell_length_a   9.06698086
_cell_length_b   9.06329750
_cell_length_c   22.14547491
_cell_angle_alpha   89.87591476
_cell_angle_beta   90.19889601
_cell_angle_gamma   119.87010895
_symmetry_Int_Tables_number   1
_chemical_formula_structural   Na7CaTi3Si3(PO8)3
_chemical_formula_sum   'Na21 Ca3 Ti9 Si9 P9 O72'
_cell_volume   1578.07936232
_cell_formula_units_Z   3
loop_
 _symmetry_equiv_pos_site_id
 _symmetry_equiv_pos_as_xyz
  1  'x, y, z'
loop_
 _atom_site_type_symbol
 _atom_site_label
 _atom_site_symmetry_multiplicity
 _atom_site_fract_x
 _atom_site_fract_y
 _atom_site_fract_z
 _atom_site_occupancy
  Na  Na0  1  0.63772802  0.00769737  0.24402345  1
  Na  Na1  1  0.37298261  0.36466400  0.24409109  1
  Na  Na2  1  0.99180756  0.63334069  0.24678565  1
  Na  Na3  1  0.62786683  0.61945652  0.74767654  1
  Na  Na4  1  0.99134954  0.37460968  0.74505875  1
  Na  Na5  1  0.37981299  0.00569048  0.74651597  1
  Na  Na6  1  0.02698289  0.68670695  0.58372226  1
  Na  Na7  1  0.66486038  0.97374371  0.57974970  1
  Na  Na8  1  0.31360761  0.97300098  0.08178774  1
  Na  Na9  1  0.65902613  0.68420922  0.08534575  1
  Na  Na10  1  0.02516573  0.33933261  0.07901332  1
  Na  Na11  1  0.33216014  0.29519937  0.91692140  1
  Na  Na12  1  0.96752019  0.28669988  0.41617433  1
  Na  Na13  1  0.32021743  0.03433798  0.41810424  1
  Na  Na14  1  0.71449589  0.67919628  0.41821331  1
  Na  Na15  1  0.00931675  0.01027010  0.49916140  1
  Na  Na16  1  0.98705141  0.98885770  0.99629860  1
  Na  Na17  1  0.68511882  0.34239973  0.83654915  1
  Na  Na18  1  0.66380310  0.33414591  0.33231194  1
  Na  Na19  1  0.33947396  0.66931803  0.16446564  1
  Na  Na20  1  0.32747491  0.64676629  0.66309789  1
  Ca  Ca0  1  0.99920203  0.00018429  0.35440134  1
  Ca  Ca1  1  0.67011768  0.33855455  0.68322174  1
  Ca  Ca2  1  0.66372211  0.33178082  0.17475315  1
  Ti  Ti0  1  0.98802270  0.98880782  0.85732454  1
  Ti  Ti1  1  0.00705732  0.00363628  0.64604083  1
  Ti  Ti2  1  0.00089234  0.00734676  0.14599987  1
  Ti  Ti3  1  0.67095248  0.32975136  0.98009812  1
  Ti  Ti4  1  0.67196815  0.32909954  0.48060242  1
  Ti  Ti5  1  0.34002152  0.66251843  0.01318395  1
  Ti  Ti6  1  0.32985452  0.65802361  0.51803134  1
  Ti  Ti7  1  0.33480308  0.66750194  0.31836493  1
  Ti  Ti8  1  0.32137937  0.66034800  0.81667899  1
  Si  Si0  1  0.00923592  0.71875236  0.75215713  1
  Si  Si1  1  0.97245654  0.33438181  0.58601026  1
  Si  Si2  1  0.66224578  0.02806729  0.08314238  1
  Si  Si3  1  0.36534670  0.33495795  0.08179811  1
  Si  Si4  1  0.62473493  0.66068297  0.91421852  1
  Si  Si5  1  0.03401970  0.37184080  0.91599519  1
  Si  Si6  1  0.61486376  0.96032849  0.42038138  1
  Si  Si7  1  0.34818548  0.38420143  0.41763954  1
  Si  Si8  1  0.03948738  0.65477774  0.41895342  1
  P  P0  1  0.29382061  0.99260982  0.25040778  1
  P  P1  1  0.69930740  0.70638825  0.25024249  1
  P  P2  1  0.00827949  0.30377990  0.25016494  1
  P  P3  1  0.27738510  0.28700421  0.75407596  1
  P  P4  1  0.71142627  0.98970123  0.75121825  1
  P  P5  1  0.36552900  0.03337754  0.58381209  1
  P  P6  1  0.66781809  0.63517049  0.58431672  1
  P  P7  1  0.97000474  0.63679108  0.08072721  1
  P  P8  1  0.33663385  0.95913118  0.91632368  1
  O  O0  1  0.21819982  0.00987920  0.30888744  1
  O  O1  1  0.79150834  0.78040074  0.30901774  1
  O  O2  1  0.98599965  0.20885287  0.30811568  1
  O  O3  1  0.18908271  0.18911050  0.81121833  1
  O  O4  1  0.00317710  0.83412781  0.80831688  1
  O  O5  1  0.82456703  0.00852125  0.80634646  1
  O  O6  1  0.80109515  0.97467427  0.69312046  1
  O  O7  1  0.16625640  0.19156517  0.69719742  1
  O  O8  1  0.02662932  0.83250876  0.69042430  1
  O  O9  1  0.80370173  0.82175440  0.19469245  1
  O  O10  1  0.01720601  0.19598950  0.19436245  1
  O  O11  1  0.17773296  0.98129597  0.19463771  1
  O  O12  1  0.91137557  0.38327345  0.64655099  1
  O  O13  1  0.46520865  0.09906122  0.64230036  1
  O  O14  1  0.63851215  0.54608202  0.64462352  1
  O  O15  1  0.91782061  0.53865425  0.14125807  1
  O  O16  1  0.61251811  0.07947864  0.14556325  1
  O  O17  1  0.47150897  0.39256195  0.14346131  1
  O  O18  1  0.46566039  0.29914137  0.02674340  1
  O  O19  1  0.83619563  0.53450408  0.03115839  1
  O  O20  1  0.69916312  0.17368773  0.03045535  1
  O  O21  1  0.46184438  0.14982547  0.52900265  1
  O  O22  1  0.69139888  0.53485502  0.53140050  1
  O  O23  1  0.83225904  0.30476252  0.52945269  1
  O  O24  1  0.52869649  0.68406258  0.97321014  1
  O  O25  1  0.16147037  0.47561051  0.97179533  1
  O  O26  1  0.31618117  0.85054125  0.97220267  1
  O  O27  1  0.51401340  0.84959465  0.47874506  1
  O  O28  1  0.33441993  0.49515618  0.47265209  1
  O  O29  1  0.15631251  0.67130166  0.47696996  1
  O  O30  1  0.13529267  0.63162947  0.35712277  1
  O  O31  1  0.49634886  0.86220209  0.35842610  1
  O  O32  1  0.36786371  0.50059663  0.35506757  1
  O  O33  1  0.12994207  0.49472492  0.85536324  1
  O  O34  1  0.35492170  0.86793950  0.85901491  1
  O  O35  1  0.49639355  0.63500931  0.85616659  1
  O  O36  1  0.01660047  0.81831134  0.42006054  1
  O  O37  1  0.80148884  0.98377231  0.42079364  1
  O  O38  1  0.18226893  0.20021125  0.41963298  1
  O  O39  1  0.02638100  0.18755469  0.91182985  1
  O  O40  1  0.18068088  0.98679326  0.91246472  1
  O  O41  1  0.81428558  0.83070393  0.90971832  1
  O  O42  1  0.97211400  0.15213708  0.58964257  1
  O  O43  1  0.18596868  0.01894835  0.58670101  1
  O  O44  1  0.83868078  0.81259473  0.58543602  1
  O  O45  1  0.97714525  0.81184480  0.08600694  1
  O  O46  1  0.83935488  0.01588826  0.08867489  1
  O  O47  1  0.17667507  0.15720535  0.08946581  1
  O  O48  1  0.68975158  0.14697141  0.75116462  1
  O  O49  1  0.45452121  0.30518628  0.75159752  1
  O  O50  1  0.84056415  0.53478916  0.75581676  1
  O  O51  1  0.67692606  0.52715109  0.24536832  1
  O  O52  1  0.85520235  0.33129096  0.24360393  1
  O  O53  1  0.47306760  0.14850965  0.24600778  1
  O  O54  1  0.63248378  0.48501997  0.92243838  1
  O  O55  1  0.84741936  0.35509021  0.92469834  1
  O  O56  1  0.49770346  0.13849897  0.92073335  1
  O  O57  1  0.62392747  0.14716864  0.42272330  1
  O  O58  1  0.52402448  0.37657034  0.42311141  1
  O  O59  1  0.85400615  0.47755205  0.42343988  1
  O  O60  1  0.32731654  0.49307298  0.07000061  1
  O  O61  1  0.14962844  0.66661215  0.06842189  1
  O  O62  1  0.50115762  0.83802203  0.06980449  1
  O  O63  1  0.33654061  0.84984916  0.57708739  1
  O  O64  1  0.52037276  0.67283044  0.57538110  1
  O  O65  1  0.16215065  0.49749206  0.57471425  1
  O  O66  1  0.29813803  0.82187582  0.24879927  1
  O  O67  1  0.52464029  0.70221276  0.24847138  1
  O  O68  1  0.17921994  0.47566794  0.24771287  1
  O  O69  1  0.29306538  0.46772129  0.75293475  1
  O  O70  1  0.18680322  0.70611556  0.75474593  1
  O  O71  1  0.53461644  0.82471838  0.75372960  1
loop_
_geom_bond_atom_site_label_1
_geom_bond_atom_site_label_2
_geom_bond_distance
_geom_bond_site_symmetry_2
Na0 O16 2.316974 1_555
Na0 O53 2.399630 1_555
Na0 O67 2.428685 1_545
Na0 O52 2.594102 1_555
Na0 O66 2.676641 1_545
Na0 O31 2.850452 1_545
Na1 O17 2.369506 1_555
Na1 O51 2.391943 1_555
Na1 O68 2.422182 1_555
Na1 O53 2.536423 1_555
Na1 O67 2.658891 1_555
Na1 O32 2.762384 1_555
Na2 O52 2.378270 1_555
Na2 O66 2.430711 1_655
Na2 O15 2.464189 1_555
Na2 O51 2.518128 1_555
Na2 O68 2.710804 1_655
Na2 O30 2.767884 1_655
Na3 O14 2.394127 1_555
Na3 O71 2.400489 1_555
Na3 O50 2.410726 1_555
Na3 O49 2.476186 1_555
Na3 O69 2.638822 1_555
Na3 O35 2.720648 1_555
Na4 O12 2.309958 1_555
Na4 O69 2.433960 1_655
Na4 O50 2.452397 1_555
Na4 O48 2.476791 1_555
Na4 O70 2.628759 1_655
Na4 O33 2.712712 1_655
Na5 O70 2.394775 1_545
Na5 O48 2.441676 1_555
Na5 O13 2.448133 1_555
Na5 O49 2.451307 1_555
Na5 O71 2.641275 1_545
Na5 O34 2.743390 1_545
Na6 O63 2.440057 1_555
Na6 O44 2.481771 1_455
Na6 O65 2.565029 1_555
Na6 O43 2.612703 1_565
Na6 O29 2.677161 1_555
Na6 O8 2.710653 1_555
Na6 O12 2.778479 1_455
Na6 O22 2.882043 1_455
Na7 O64 2.367492 1_555
Na7 O42 2.435959 1_565
Na7 O27 2.568414 1_555
Na7 O63 2.606839 1_555
Na7 O44 2.631260 1_555
Na7 O6 2.792387 1_555
Na7 O23 2.829608 1_565
Na7 O13 2.925405 1_565
Na8 O61 2.428449 1_555
Na8 O47 2.534751 1_565
Na8 O62 2.556454 1_555
Na8 O45 2.647996 1_455
Na8 O26 2.675757 1_554
Na8 O16 2.765034 1_565
Na8 O11 2.807746 1_555
Na8 O18 2.839171 1_565
Na9 O62 2.468361 1_555
Na9 O45 2.516801 1_555
Na9 O46 2.611474 1_565
Na9 O60 2.639677 1_555
Na9 O17 2.656692 1_555
Na9 O9 2.738758 1_555
Na9 O24 2.746133 1_554
Na9 O19 2.837769 1_555
Na10 O60 2.384748 1_555
Na10 O46 2.560875 1_455
Na10 O61 2.606078 1_555
Na10 O47 2.630638 1_555
Na10 O25 2.679155 1_554
Na10 O20 2.777065 1_455
Na10 O15 2.807552 1_455
Na10 O10 2.848125 1_555
Na11 O54 2.392049 1_555
Na11 O40 2.425988 1_545
Na11 O39 2.440350 1_555
Na11 O56 2.529633 1_555
Na11 O3 2.614042 1_555
Na11 O18 2.705223 1_556
Na12 O37 2.386959 1_545
Na12 O59 2.419278 1_555
Na12 O38 2.435285 1_655
Na12 O2 2.525910 1_555
Na12 O57 2.720990 1_555
Na12 O23 2.836740 1_555
Na13 O38 2.387293 1_555
Na13 O57 2.415120 1_555
Na13 O36 2.458744 1_545
Na13 O0 2.556795 1_555
Na13 O58 2.709017 1_555
Na13 O21 2.725146 1_555
Na14 O36 2.377778 1_655
Na14 O58 2.408114 1_555
Na14 O37 2.465186 1_555
Na14 O1 2.557479 1_555
Na14 O59 2.693358 1_555
Na14 O22 2.784741 1_555
Na15 O38 2.416927 1_555
Na15 O37 2.479676 1_445
Na15 O43 2.486653 1_555
Na15 O36 2.495634 1_545
Na15 O42 2.495975 1_455
Na15 O44 2.549228 1_445
Na16 O41 2.437051 1_555
Na16 O39 2.493943 1_665
Na16 O45 2.524387 1_556
Na16 O46 2.527114 1_566
Na16 O40 2.566096 1_655
Na16 O47 2.630019 1_666
Na17 O50 2.404037 1_555
Na17 O55 2.408717 1_555
Na17 O54 2.479483 1_555
Na17 O56 2.580204 1_555
Na17 O48 2.608371 1_555
Na17 O49 2.701406 1_555
Na18 O58 2.510740 1_555
Na18 O57 2.528112 1_555
Na18 O59 2.547661 1_555
Na18 O51 2.561437 1_555
Na18 O53 2.562644 1_555
Na18 O52 2.634413 1_555
Na19 O67 2.418807 1_555
Na19 O68 2.460639 1_555
Na19 O66 2.464234 1_555
Na19 O62 2.579977 1_555
Na19 O60 2.603373 1_555
Na19 O61 2.723999 1_555
Na20 O65 2.424754 1_555
Na20 O69 2.484891 1_555
Na20 O64 2.549175 1_555
Na20 O70 2.596433 1_555
Na20 O63 2.618743 1_555
Na20 O71 2.669768 1_555
Ca0 O1 2.187097 1_545
Ca0 O0 2.192296 1_655
Ca0 O2 2.204082 1_555
Ca0 O36 2.259052 1_645
Ca0 O38 2.264054 1_655
Ca0 O37 2.269198 1_545
Ca1 O12 2.176381 1_555
Ca1 O14 2.208778 1_555
Ca1 O13 2.228108 1_555
Ca1 O50 2.322373 1_555
Ca1 O48 2.367554 1_555
Ca1 O49 2.373876 1_555
Ca2 O17 2.183405 1_555
Ca2 O16 2.192992 1_555
Ca2 O15 2.253164 1_555
Ca2 O52 2.308313 1_555
Ca2 O53 2.320517 1_555
Ca2 O51 2.322657 1_555
O0 P0 1.511865 1_545
O1 P1 1.510189 1_555
O2 P2 1.500631 1_655
O3 P3 1.524523 1_555
O3 Ti0 2.090449 1_445
O4 Si0 1.645158 1_555
O4 Ti0 1.833468 1_455
O5 P4 1.545904 1_545
O5 Ti0 1.937563 1_545
O6 P4 1.566277 1_555
O6 Ti1 2.041415 1_665
O7 P3 1.574114 1_555
O7 Ti1 1.953501 1_555
O8 Si0 1.670405 1_555
O8 Ti1 1.915580 1_565
O9 P1 1.587219 1_555
O9 Ti2 2.049086 1_665
O10 P2 1.603986 1_555
O10 Ti2 1.961386 1_555
O11 P0 1.589900 1_555
O11 Ti2 2.037358 1_565
O12 Si1 1.597726 1_555
O13 P5 1.519276 1_555
O14 P6 1.513362 1_555
O15 P7 1.546587 1_555
O16 Si2 1.596137 1_555
O17 Si3 1.599145 1_555
O18 Si3 1.650039 1_555
O18 Ti3 2.026448 1_554
O19 P7 1.552814 1_555
O19 Ti3 2.048173 1_554
O20 Si2 1.664721 1_555
O20 Ti3 1.913452 1_554
O21 P5 1.559979 1_555
O21 Ti4 2.083708 1_555
O22 P6 1.563829 1_555
O22 Ti4 2.110586 1_555
O23 Si1 1.705044 1_555
O23 Ti4 1.907504 1_555
O24 Si4 1.643994 1_555
O24 Ti5 1.850771 1_556
O25 Si5 1.630795 1_555
O25 Ti5 1.896152 1_556
O26 P8 1.532597 1_555
O26 Ti5 2.033028 1_556
O27 Si6 1.613195 1_555
O27 Ti6 1.917142 1_555
O28 Si7 1.625554 1_555
O28 Ti6 1.805027 1_555
O29 Si8 1.621276 1_555
O29 Ti6 1.869617 1_555
O30 Si8 1.692490 1_555
O30 Ti7 1.881084 1_555
O31 Si6 1.694475 1_555
O31 Ti7 1.862695 1_555
O32 Si7 1.694912 1_555
O32 Ti7 1.866399 1_555
O33 Si5 1.684199 1_555
O33 Ti8 1.846482 1_555
O34 P8 1.569648 1_555
O34 Ti8 1.986731 1_555
O35 Si4 1.667995 1_555
O35 Ti8 1.920422 1_555
O36 Si8 1.595931 1_555
O37 Si6 1.596964 1_555
O38 Si7 1.595992 1_555
O39 Si5 1.639635 1_555
O39 Ti0 2.050632 1_445
O40 P8 1.556214 1_555
O40 Ti0 2.135346 1_455
O41 Si4 1.643410 1_555
O41 Ti0 1.907393 1_555
O42 Si1 1.651979 1_555
O42 Ti1 1.971417 1_655
O43 P5 1.568572 1_555
O43 Ti1 2.041421 1_555
O44 P6 1.582711 1_555
O44 Ti1 2.119631 1_665
O45 P7 1.559963 1_555
O45 Ti2 2.139921 1_665
O46 Si2 1.667654 1_555
O46 Ti2 1.965304 1_655
O47 Si3 1.675224 1_555
O47 Ti2 1.950048 1_555
O48 P4 1.532763 1_545
O49 P3 1.531874 1_555
O50 Si0 1.608040 1_655
O51 P1 1.537534 1_555
O52 P2 1.533896 1_655
O53 P0 1.536382 1_545
O54 Si4 1.637951 1_555
O54 Ti3 2.051954 1_555
O55 Si5 1.633712 1_655
O55 Ti3 1.940202 1_555
O56 P8 1.555639 1_545
O56 Ti3 2.117510 1_555
O57 Si6 1.654914 1_545
O57 Ti4 1.959940 1_555
O58 Si7 1.633955 1_555
O58 Ti4 2.041090 1_555
O59 Si8 1.651657 1_655
O59 Ti4 1.982964 1_555
O60 Si3 1.652490 1_555
O60 Ti5 1.941989 1_555
O61 P7 1.537563 1_455
O61 Ti5 2.134596 1_555
O62 Si2 1.637275 1_565
O62 Ti5 1.979405 1_555
O63 P5 1.556725 1_565
O63 Ti6 2.154304 1_555
O64 P6 1.547678 1_555
O64 Ti6 2.090359 1_555
O65 Si1 1.635536 1_455
O65 Ti6 1.950996 1_555
O66 P0 1.567761 1_555
O66 Ti7 2.211753 1_555
O67 P1 1.565556 1_555
O67 Ti7 2.221364 1_555
O68 P2 1.557975 1_555
O68 Ti7 2.239279 1_555
O69 P3 1.572082 1_555
O69 Ti8 2.160627 1_555
O70 Si0 1.670779 1_555
O70 Ti8 2.008018 1_555
O71 P4 1.556131 1_555
O71 Ti8 2.245335 1_555
