# generated using pymatgen
data_MgMn3VO8
_symmetry_space_group_name_H-M   'P 1'
_cell_length_a   10.56395646
_cell_length_b   10.51888358
_cell_length_c   14.95140769
_cell_angle_alpha   19.17610348
_cell_angle_beta   19.15989446
_cell_angle_gamma   33.01165742
_symmetry_Int_Tables_number   1
_chemical_formula_structural   MgMn3VO8
_chemical_formula_sum   'Mg1 Mn3 V1 O8'
_cell_volume   155.37291928
_cell_formula_units_Z   1
loop_
 _symmetry_equiv_pos_site_id
 _symmetry_equiv_pos_as_xyz
  1  'x, y, z'
loop_
 _atom_site_type_symbol
 _atom_site_label
 _atom_site_symmetry_multiplicity
 _atom_site_fract_x
 _atom_site_fract_y
 _atom_site_fract_z
 _atom_site_occupancy
  Mg  Mg0  1  0.00000000  0.50000000  0.50000000  1
  Mn  Mn0  1  0.00000000  0.50000000  0.00000000  1
  Mn  Mn1  1  0.50000100  0.00000100  0.99999900  1
  Mn  Mn2  1  0.49999800  0.49999900  0.00000200  1
  V  V0  1  0.00000000  0.00000000  0.00000000  1
  O  O0  1  0.00033100  0.95188800  0.29492800  1
  O  O1  1  0.99945500  0.49437900  0.27165600  1
  O  O2  1  0.54876200  0.04242200  0.20325100  1
  O  O3  1  0.99966900  0.04811200  0.70507200  1
  O  O4  1  0.45137000  0.49457400  0.30006000  1
  O  O5  1  0.00054600  0.50562100  0.72834300  1
  O  O6  1  0.45123900  0.95757800  0.79674800  1
  O  O7  1  0.54863100  0.50542500  0.69994000  1
loop_
_geom_bond_atom_site_label_1
_geom_bond_atom_site_label_2
_geom_bond_distance
_geom_bond_site_symmetry_2
Mg0 O3 2.114658 1_455
Mg0 O0 2.114658 1_555
Mg0 O7 2.147713 1_455
Mg0 O4 2.147717 1_555
Mg0 O2 2.152735 1_456
Mg0 O6 2.152739 1_554
Mn0 O3 2.157599 1_464
Mn0 O0 2.157599 1_545
Mn0 O4 2.160890 1_455
Mn0 O7 2.160894 1_554
Mn0 O6 2.163711 1_445
Mn0 O2 2.163715 1_564
Mn1 O7 1.956133 1_555
Mn1 O4 1.956146 1_546
Mn1 O3 1.963249 1_555
Mn1 O0 1.963257 1_546
Mn1 O5 1.990343 1_546
Mn1 O1 1.990346 1_555
Mn2 O6 1.958538 1_554
Mn2 O2 1.958543 1_555
Mn2 O3 1.968418 1_455
Mn2 O0 1.968427 1_654
Mn2 O1 1.989183 1_455
Mn2 O5 1.989192 1_654
O1 V0 1.996079 1_665
O2 V0 1.945259 1_655
O4 V0 1.950667 1_556
O5 V0 1.996076 1_556
O6 V0 1.945260 1_566
O7 V0 1.950668 1_665
