# generated using pymatgen
data_NpCl4
_symmetry_space_group_name_H-M   'P 1'
_cell_length_a   6.98846397
_cell_length_b   7.00866042
_cell_length_c   6.97226120
_cell_angle_alpha   107.06558609
_cell_angle_beta   107.01287958
_cell_angle_gamma   114.27230708
_symmetry_Int_Tables_number   1
_chemical_formula_structural   NpCl4
_chemical_formula_sum   'Np2 Cl8'
_cell_volume   262.02086983
_cell_formula_units_Z   2
loop_
 _symmetry_equiv_pos_site_id
 _symmetry_equiv_pos_as_xyz
  1  'x, y, z'
loop_
 _atom_site_type_symbol
 _atom_site_label
 _atom_site_symmetry_multiplicity
 _atom_site_fract_x
 _atom_site_fract_y
 _atom_site_fract_z
 _atom_site_occupancy
  Np  Np0  1  0.24846226  0.75202226  0.50046545  1
  Np  Np1  1  -0.00015445  0.99854872  0.99696442  1
  Cl  Cl0  1  0.93184324  0.24301916  0.31049902  1
  Cl  Cl1  1  0.86794201  0.67599447  0.18436092  1
  Cl  Cl2  1  0.37940313  0.07119226  0.31683567  1
  Cl  Cl3  1  0.31997457  0.50776463  0.19088296  1
  Cl  Cl4  1  0.31971216  0.13276256  0.81375511  1
  Cl  Cl5  1  0.75791988  0.07303178  0.69182387  1
  Cl  Cl6  1  0.92987721  0.61727308  0.68704482  1
  Cl  Cl7  1  0.49501997  0.67839309  0.80736676  1
loop_
_geom_bond_atom_site_label_1
_geom_bond_atom_site_label_2
_geom_bond_distance
_geom_bond_site_symmetry_2
Cl0 Np1 2.649410 1_644
Cl0 Np0 2.898080 1_655
Cl1 Np0 2.632320 1_655
Cl1 Np1 2.897011 1_654
Cl2 Np1 2.651515 1_544
Cl2 Np0 2.857301 1_545
Cl3 Np0 2.646758 1_555
Cl3 Np1 2.898925 1_544
Cl4 Np0 2.643869 1_545
Cl4 Np1 2.856724 1_545
Cl5 Np1 2.632471 1_645
Cl5 Np0 2.896681 1_545
Cl6 Np1 2.639602 1_655
Cl6 Np0 2.868515 1_655
Cl7 Np0 2.652464 1_555
Cl7 Np1 2.872371 1_655
