# generated using pymatgen
data_KNbCl6
_symmetry_space_group_name_H-M   'P 1'
_cell_length_a   7.03704144
_cell_length_b   14.07868049
_cell_length_c   12.20013643
_cell_angle_alpha   29.96590403
_cell_angle_beta   54.77978293
_cell_angle_gamma   60.01428950
_symmetry_Int_Tables_number   1
_chemical_formula_structural   KNbCl6
_chemical_formula_sum   'K2 Nb2 Cl12'
_cell_volume   493.20754155
_cell_formula_units_Z   2
loop_
 _symmetry_equiv_pos_site_id
 _symmetry_equiv_pos_as_xyz
  1  'x, y, z'
loop_
 _atom_site_type_symbol
 _atom_site_label
 _atom_site_symmetry_multiplicity
 _atom_site_fract_x
 _atom_site_fract_y
 _atom_site_fract_z
 _atom_site_occupancy
  K  K0  1  0.24828722  -0.00014298  0.25809592  1
  K  K1  1  0.23514801  0.50021266  0.25760340  1
  Nb  Nb0  1  -0.00377711  -0.00004673  0.00707964  1
  Nb  Nb1  1  0.98984968  0.50017383  0.00686328  1
  Cl  Cl0  1  0.22892592  0.26152381  0.24589927  1
  Cl  Cl1  1  0.75884948  0.99944110  0.24595502  1
  Cl  Cl2  1  0.23464313  0.23937824  0.76686645  1
  Cl  Cl3  1  0.23566121  0.76087050  0.24478981  1
  Cl  Cl4  1  0.75363870  0.26091228  0.24460956  1
  Cl  Cl5  1  0.23081327  0.50057478  0.76783062  1
  Cl  Cl6  1  0.75016722  0.49956320  0.24594426  1
  Cl  Cl7  1  0.22821477  0.73879012  0.76933674  1
  Cl  Cl8  1  0.75535927  0.23830196  0.76969661  1
  Cl  Cl9  1  0.75656788  0.76092755  0.24640530  1
  Cl  Cl10  1  0.23260235  0.00028723  0.76835052  1
  Cl  Cl11  1  0.75285101  0.73923244  0.76687660  1
loop_
_geom_bond_atom_site_label_1
_geom_bond_atom_site_label_2
_geom_bond_distance
_geom_bond_site_symmetry_2
Cl0 Nb1 2.378192 1_455
Cl0 K0 3.490543 1_555
Cl0 K1 3.507198 1_555
Cl1 Nb0 2.375732 1_665
Cl1 K0 3.506732 1_565
Cl1 K0 3.534762 1_665
Cl2 Nb0 2.373037 1_556
Cl2 K1 3.541682 1_555
Cl2 K0 3.552694 1_556
Cl3 Nb0 2.373423 1_565
Cl3 K1 3.536934 1_555
Cl3 K0 3.552000 1_565
Cl4 Nb1 2.372713 1_555
Cl4 K0 3.532210 1_655
Cl4 K1 3.557981 1_555
Cl5 Nb1 2.378455 1_456
Cl5 K0 3.512954 1_565
Cl5 K0 3.522910 1_556
Cl6 Nb1 2.376808 1_555
Cl6 K1 3.501587 1_655
Cl6 K1 3.539737 1_555
Cl7 Nb1 2.378080 1_456
Cl7 K0 3.494880 1_565
Cl7 K1 3.503296 1_556
Cl8 Nb0 2.378884 1_656
Cl8 K1 3.496732 1_655
Cl8 K0 3.506832 1_556
Cl9 Nb0 2.379600 1_665
Cl9 K1 3.484112 1_655
Cl9 K0 3.513603 1_565
Cl10 Nb0 2.376080 1_556
Cl10 K1 3.517719 1_555
Cl10 K1 3.518637 1_546
Cl11 Nb1 2.372600 1_556
Cl11 K0 3.537083 1_665
Cl11 K1 3.553712 1_556
