# generated using pymatgen
data_MgMn5O9F
_symmetry_space_group_name_H-M   'P 1'
_cell_length_a   5.25864103
_cell_length_b   5.14192444
_cell_length_c   8.10539816
_cell_angle_alpha   108.97922548
_cell_angle_beta   77.51385530
_cell_angle_gamma   78.87444721
_symmetry_Int_Tables_number   1
_chemical_formula_structural   MgMn5O9F
_chemical_formula_sum   'Mg1 Mn5 O9 F1'
_cell_volume   193.94849825
_cell_formula_units_Z   1
loop_
 _symmetry_equiv_pos_site_id
 _symmetry_equiv_pos_as_xyz
  1  'x, y, z'
loop_
 _atom_site_type_symbol
 _atom_site_label
 _atom_site_symmetry_multiplicity
 _atom_site_fract_x
 _atom_site_fract_y
 _atom_site_fract_z
 _atom_site_occupancy
  Mg  Mg0  1  0.50729200  0.80630500  0.10945500  1
  Mn  Mn0  1  0.97263200  0.19929200  0.40355400  1
  Mn  Mn1  1  0.00561300  0.00749300  0.00689800  1
  Mn  Mn2  1  0.01520800  0.59833700  0.19881100  1
  Mn  Mn3  1  0.96814000  0.79608200  0.59566100  1
  Mn  Mn4  1  0.01169400  0.40544100  0.79247200  1
  O  O0  1  0.20297200  0.19774700  0.16530600  1
  O  O1  1  0.21043500  0.81198900  0.33697900  1
  O  O2  1  0.16530500  0.41118300  0.55644400  1
  O  O3  1  0.23178200  0.63543500  0.98515800  1
  O  O4  1  0.82206100  0.40963000  0.03311600  1
  O  O5  1  0.77925200  0.96841800  0.25069100  1
  O  O6  1  0.79760700  0.57809300  0.42087300  1
  O  O7  1  0.79284300  0.17334700  0.62437800  1
  O  O8  1  0.79470500  0.80726900  0.87300900  1
  F  F0  1  0.21960000  0.99417500  0.73558800  1
loop_
_geom_bond_atom_site_label_1
_geom_bond_atom_site_label_2
_geom_bond_distance
_geom_bond_site_symmetry_2
Mg0 O3 2.105383 1_554
Mg0 O1 2.131018 1_555
Mg0 O5 2.144284 1_555
Mg0 O0 2.160591 1_565
Mg0 O8 2.171142 1_554
Mg0 O4 2.171701 1_555
Mn0 O7 1.894083 1_555
Mn0 O6 1.932632 1_555
Mn0 O2 1.959608 1_655
Mn0 O1 1.967006 1_645
Mn0 O5 2.008120 1_545
Mn0 O0 2.042363 1_655
Mn1 O8 1.924087 1_444
Mn1 O0 1.957983 1_555
Mn1 O3 1.979275 1_544
Mn1 O4 2.026747 1_455
Mn1 O5 2.166906 1_445
Mn2 O1 1.909762 1_555
Mn2 O5 1.918396 1_455
Mn2 O3 1.943778 1_554
Mn2 O6 1.958856 1_455
Mn2 O4 1.974690 1_455
Mn2 O0 2.006684 1_555
Mn3 O7 1.894846 1_565
Mn3 O2 1.936323 1_655
Mn3 O6 1.993005 1_555
Mn3 O8 2.213093 1_555
Mn3 O1 2.241194 1_655
Mn4 O2 1.921212 1_555
Mn4 O8 1.971793 1_455
Mn4 O4 1.980587 1_456
Mn4 O7 2.180702 1_455
Mn4 O3 2.299066 1_555
F0 Mn4 2.033575 1_565
F0 Mn3 2.118793 1_455
F0 Mn1 2.215663 1_566
