# generated using pymatgen
data_MgFeCu2SnS4
_symmetry_space_group_name_H-M   'P 1'
_cell_length_a   6.29164746
_cell_length_b   5.47973590
_cell_length_c   6.64010587
_cell_angle_alpha   114.31221805
_cell_angle_beta   118.03334328
_cell_angle_gamma   90.09782335
_symmetry_Int_Tables_number   1
_chemical_formula_structural   MgFeCu2SnS4
_chemical_formula_sum   'Mg1 Fe1 Cu2 Sn1 S4'
_cell_volume   178.64400205
_cell_formula_units_Z   1
loop_
 _symmetry_equiv_pos_site_id
 _symmetry_equiv_pos_as_xyz
  1  'x, y, z'
loop_
 _atom_site_type_symbol
 _atom_site_label
 _atom_site_symmetry_multiplicity
 _atom_site_fract_x
 _atom_site_fract_y
 _atom_site_fract_z
 _atom_site_occupancy
  Mg  Mg0  1  0.99986700  0.50012500  0.99954600  1
  Fe  Fe0  1  0.00000500  0.99984800  0.00008900  1
  Cu  Cu0  1  0.27033400  0.77045900  0.54022600  1
  Cu  Cu1  1  0.72927600  0.23031100  0.45922000  1
  Sn  Sn0  1  0.50052000  0.49836700  0.00088700  1
  S  S0  1  0.06546200  0.07948100  0.71650000  1
  S  S1  1  0.34906000  0.92021200  0.28122800  1
  S  S2  1  0.93493500  0.36261700  0.28348400  1
  S  S3  1  0.65054200  0.63857700  0.71881900  1
loop_
_geom_bond_atom_site_label_1
_geom_bond_atom_site_label_2
_geom_bond_distance
_geom_bond_site_symmetry_2
Mg0 S0 2.486148 1_655
Mg0 S2 2.486373 1_556
Mg0 S1 2.489796 1_656
Mg0 S3 2.489981 1_555
Mg0 Sn0 3.145800 1_656
Mg0 Sn0 3.145920 1_556
Fe0 S2 2.303709 1_465
Fe0 S0 2.304536 1_564
Fe0 S1 2.306248 1_555
Fe0 S3 2.307007 1_454
Cu0 S0 2.385901 1_565
Cu0 S3 2.386623 1_555
Cu0 S2 2.412283 1_455
Cu0 S1 2.416138 1_555
Cu0 Mg0 2.801620 1_454
Cu1 S2 2.382066 1_555
Cu1 S1 2.383641 1_545
Cu1 S0 2.418183 1_655
Cu1 S3 2.419251 1_555
Cu1 Mg0 2.799795 1_555
S0 Sn0 2.806772 1_556
S1 Sn0 2.801510 1_555
S2 Sn0 2.807178 1_555
S3 Sn0 2.798819 1_556
