# generated using pymatgen
data_Na4MgTi2(SiO5)2
_symmetry_space_group_name_H-M   'P 1'
_cell_length_a   5.23637356
_cell_length_b   6.85639011
_cell_length_c   6.85639011
_cell_angle_alpha   90.30898909
_cell_angle_beta   88.26015452
_cell_angle_gamma   88.26015452
_symmetry_Int_Tables_number   1
_chemical_formula_structural   Na4MgTi2(SiO5)2
_chemical_formula_sum   'Na4 Mg1 Ti2 Si2 O10'
_cell_volume   245.93054008
_cell_formula_units_Z   1
loop_
 _symmetry_equiv_pos_site_id
 _symmetry_equiv_pos_as_xyz
  1  'x, y, z'
loop_
 _atom_site_type_symbol
 _atom_site_label
 _atom_site_symmetry_multiplicity
 _atom_site_fract_x
 _atom_site_fract_y
 _atom_site_fract_z
 _atom_site_occupancy
  Na  Na0  1  0.50246400  0.99842600  0.48765900  1
  Na  Na1  1  0.42231500  0.95984800  0.95984800  1
  Na  Na2  1  0.50570600  0.51048200  0.51048200  1
  Na  Na3  1  0.50246400  0.48765900  0.99842600  1
  Mg  Mg0  1  0.89707800  0.04239400  0.04239400  1
  Ti  Ti0  1  0.07404400  0.28623200  0.28623200  1
  Ti  Ti1  1  0.94750900  0.74069500  0.74069500  1
  Si  Si0  1  0.99848400  0.74706400  0.26356100  1
  Si  Si1  1  0.99848400  0.26356100  0.74706400  1
  O  O0  1  0.74079600  0.23432800  0.23432800  1
  O  O1  1  0.28409200  0.74101800  0.74101800  1
  O  O2  1  0.19558700  0.25419600  0.55547200  1
  O  O3  1  0.15954000  0.24419100  0.95322000  1
  O  O4  1  0.19558700  0.55547200  0.25419600  1
  O  O5  1  0.15954000  0.95322000  0.24419100  1
  O  O6  1  0.81844800  0.06153900  0.76103100  1
  O  O7  1  0.81844800  0.76103100  0.06153900  1
  O  O8  1  0.81470800  0.45932000  0.74932400  1
  O  O9  1  0.81470800  0.74932400  0.45932000  1
loop_
_geom_bond_atom_site_label_1
_geom_bond_atom_site_label_2
_geom_bond_distance
_geom_bond_site_symmetry_2
Na0 O9 2.331456 1_555
Na0 O2 2.376641 1_565
Na0 O5 2.513437 1_555
Na0 O6 2.580931 1_565
Na0 O0 2.685477 1_565
Na0 O1 2.734042 1_555
Na1 O1 2.265784 1_555
Na1 O3 2.353312 1_565
Na1 O5 2.353312 1_556
Na1 O7 2.563874 1_556
Na1 O6 2.563874 1_565
Na2 O9 2.357006 1_555
Na2 O8 2.357006 1_555
Na2 O4 2.443081 1_555
Na2 O2 2.443081 1_555
Na2 O1 2.468566 1_555
Na2 O0 2.892014 1_555
Na3 O8 2.331456 1_555
Na3 O4 2.376641 1_556
Na3 O3 2.513437 1_555
Na3 O7 2.580931 1_556
Na3 O0 2.685477 1_556
Na3 O1 2.734042 1_555
Mg0 O7 1.988969 1_545
Mg0 O6 1.988969 1_554
Mg0 O0 1.995948 1_555
Mg0 O5 2.061692 1_645
Mg0 O3 2.061692 1_654
O0 Ti0 1.836412 1_655
O1 Ti1 1.762612 1_455
O2 Si1 1.645516 1_455
O2 Ti0 1.981995 1_555
O3 Si1 1.671654 1_455
O3 Ti0 2.328043 1_556
O4 Si0 1.645516 1_455
O4 Ti0 1.981995 1_555
O5 Si0 1.671654 1_455
O5 Ti0 2.328043 1_565
O6 Si1 1.700524 1_555
O6 Ti1 2.283882 1_545
O7 Si0 1.700524 1_555
O7 Ti1 2.283882 1_554
O8 Si1 1.627341 1_555
O8 Ti1 2.071026 1_555
O9 Si0 1.627341 1_555
O9 Ti1 2.071026 1_555
