# generated using pymatgen
data_HfGaP(SO6)2
_symmetry_space_group_name_H-M   'P 1'
_cell_length_a   8.72025018
_cell_length_b   8.69356398
_cell_length_c   22.51091490
_cell_angle_alpha   90.44261116
_cell_angle_beta   90.00000000
_cell_angle_gamma   120.10159528
_symmetry_Int_Tables_number   1
_chemical_formula_structural   HfGaP(SO6)2
_chemical_formula_sum   'Hf6 Ga6 P6 S12 O72'
_cell_volume   1476.34462505
_cell_formula_units_Z   6
loop_
 _symmetry_equiv_pos_site_id
 _symmetry_equiv_pos_as_xyz
  1  'x, y, z'
loop_
 _atom_site_type_symbol
 _atom_site_label
 _atom_site_symmetry_multiplicity
 _atom_site_fract_x
 _atom_site_fract_y
 _atom_site_fract_z
 _atom_site_occupancy
  Hf  Hf0  1  0.00213355  0.00100194  0.64279447  1
  Hf  Hf1  1  0.99886839  0.00100194  0.14279447  1
  Hf  Hf2  1  0.66535966  0.33246509  0.97619255  1
  Hf  Hf3  1  0.66710643  0.33246509  0.47619255  1
  Hf  Hf4  1  0.34035874  0.66132735  0.30945965  1
  Hf  Hf5  1  0.32096761  0.66132735  0.80945965  1
  Ga  Ga0  1  0.00045826  0.99882638  0.35331506  1
  Ga  Ga1  1  0.99836811  0.99882638  0.85331506  1
  Ga  Ga2  1  0.68735256  0.34525927  0.68716158  1
  Ga  Ga3  1  0.65790770  0.34525927  0.18716158  1
  Ga  Ga4  1  0.32721643  0.64540559  0.01998983  1
  Ga  Ga5  1  0.31818816  0.64540559  0.51998983  1
  P  P0  1  0.72297281  0.71133747  0.25119518  1
  P  P1  1  0.98836466  0.71133747  0.75119518  1
  P  P2  1  0.95915051  0.34271472  0.58375776  1
  P  P3  1  0.38356520  0.34271472  0.08375776  1
  P  P4  1  0.04792052  0.36845953  0.91668764  1
  P  P5  1  0.32053802  0.36845953  0.41668764  1
  S  S0  1  0.29390235  0.00736522  0.25046136  1
  S  S1  1  0.98715037  0.28456303  0.25008337  1
  S  S2  1  0.29741266  0.28456303  0.75008337  1
  S  S3  1  0.71346287  0.00736522  0.75046136  1
  S  S4  1  0.38468896  0.03990324  0.58385192  1
  S  S5  1  0.65600720  0.61739022  0.58393743  1
  S  S6  1  0.96138401  0.61739022  0.08393743  1
  S  S7  1  0.65521528  0.03990324  0.08385192  1
  S  S8  1  0.62585004  0.67635060  0.91684555  1
  S  S9  1  0.32382721  0.94827274  0.91797520  1
  S  S10  1  0.62444453  0.94827274  0.41797520  1
  S  S11  1  0.05049956  0.67635060  0.41684555  1
  O  O0  1  0.21491820  0.03960013  0.30364515  1
  O  O1  1  0.83637898  0.80054401  0.30693412  1
  O  O2  1  0.96152156  0.17750372  0.30323719  1
  O  O3  1  0.21598216  0.17750372  0.80323719  1
  O  O4  1  0.96416503  0.80054401  0.80693412  1
  O  O5  1  0.82468193  0.03960013  0.80364515  1
  O  O6  1  0.79361970  0.97330321  0.69722101  1
  O  O7  1  0.18015590  0.20721430  0.69713305  1
  O  O8  1  0.02423304  0.82875795  0.69602356  1
  O  O9  1  0.80452491  0.82875795  0.19602356  1
  O  O10  1  0.02705840  0.20721430  0.19713305  1
  O  O11  1  0.17968351  0.97330321  0.19722101  1
  O  O12  1  0.87337554  0.37129395  0.63911375  1
  O  O13  1  0.49184220  0.12376378  0.63752615  1
  O  O14  1  0.62591679  0.50773640  0.63680005  1
  O  O15  1  0.88182061  0.50773640  0.13680005  1
  O  O16  1  0.63192257  0.12376378  0.13752615  1
  O  O17  1  0.49791941  0.37129395  0.13911375  1
  O  O18  1  0.46703680  0.30637332  0.02866638  1
  O  O19  1  0.84688673  0.53834944  0.03067464  1
  O  O20  1  0.69312963  0.15502385  0.03083645  1
  O  O21  1  0.46189523  0.15502385  0.53083645  1
  O  O22  1  0.69146371  0.53834944  0.53067464  1
  O  O23  1  0.83933752  0.30637332  0.52866638  1
  O  O24  1  0.54661214  0.70655510  0.97042195  1
  O  O25  1  0.16313103  0.45596958  0.97190180  1
  O  O26  1  0.29970583  0.84098574  0.97100143  1
  O  O27  1  0.54127891  0.84098574  0.47100143  1
  O  O28  1  0.29283755  0.45596958  0.47190180  1
  O  O29  1  0.15994196  0.70655510  0.47042195  1
  O  O30  1  0.12871540  0.64161641  0.36372981  1
  O  O31  1  0.51040848  0.87137828  0.36432570  1
  O  O32  1  0.35848616  0.49067016  0.36218801  1
  O  O33  1  0.13218301  0.49067016  0.86218801  1
  O  O34  1  0.36096880  0.87137828  0.86432570  1
  O  O35  1  0.51290000  0.64161641  0.86372981  1
  O  O36  1  0.02814495  0.83121290  0.40884986  1
  O  O37  1  0.80059565  0.97056164  0.40887898  1
  O  O38  1  0.15860987  0.18555113  0.40474168  1
  O  O39  1  0.02694125  0.18555113  0.90474168  1
  O  O40  1  0.16996599  0.97056164  0.90887898  1
  O  O41  1  0.80306795  0.83121290  0.90884986  1
  O  O42  1  0.97751508  0.17645467  0.59306749  1
  O  O43  1  0.20619426  0.02291474  0.59100978  1
  O  O44  1  0.81837041  0.79474641  0.59129962  1
  O  O45  1  0.97637600  0.79474641  0.09129962  1
  O  O46  1  0.81672048  0.02291474  0.09100978  1
  O  O47  1  0.19893959  0.17645467  0.09306749  1
  O  O48  1  0.68927122  0.16084132  0.74136761  1
  O  O49  1  0.47164803  0.30331356  0.73959559  1
  O  O50  1  0.82639057  0.52696584  0.74227072  1
  O  O51  1  0.70057626  0.52696584  0.24227072  1
  O  O52  1  0.83166653  0.30331356  0.23959559  1
  O  O53  1  0.47157110  0.16084132  0.24136761  1
  O  O54  1  0.64255528  0.51488685  0.92452502  1
  O  O55  1  0.86482568  0.35217689  0.92646596  1
  O  O56  1  0.48547714  0.12712699  0.92449482  1
  O  O57  1  0.64165085  0.12712699  0.42449482  1
  O  O58  1  0.48735221  0.35217689  0.42646596  1
  O  O59  1  0.87233257  0.51488685  0.42452502  1
  O  O60  1  0.36443529  0.50631608  0.07495952  1
  O  O61  1  0.13897147  0.64298492  0.07455367  1
  O  O62  1  0.50015856  0.86418050  0.07353880  1
  O  O63  1  0.36402094  0.86418050  0.57353880  1
  O  O64  1  0.50401245  0.64298492  0.57455367  1
  O  O65  1  0.14187979  0.50631608  0.57495952  1
  O  O66  1  0.30736929  0.84535341  0.25863127  1
  O  O67  1  0.53761371  0.69336310  0.25902789  1
  O  O68  1  0.14744979  0.46376735  0.25763298  1
  O  O69  1  0.31631656  0.46376735  0.75763298  1
  O  O70  1  0.15574838  0.69336310  0.75902789  1
  O  O71  1  0.53798311  0.84535341  0.75863127  1
loop_
_geom_bond_atom_site_label_1
_geom_bond_atom_site_label_2
_geom_bond_distance
_geom_bond_site_symmetry_2
Hf0 O42 1.995131 1_455
Hf0 O8 2.008067 1_545
Hf0 O44 2.052440 1_445
Hf0 O43 2.055499 1_555
Hf0 O7 2.072340 1_555
Hf0 O6 2.104908 1_445
Hf1 O47 1.995131 1_655
Hf1 O9 2.008067 1_545
Hf1 O45 2.052440 1_545
Hf1 O46 2.055499 1_555
Hf1 O10 2.072340 1_655
Hf1 O11 2.104908 1_645
Hf2 O55 2.002965 1_555
Hf2 O18 2.012045 1_556
Hf2 O56 2.039780 1_555
Hf2 O54 2.062088 1_555
Hf2 O19 2.082703 1_556
Hf2 O20 2.086953 1_556
Hf3 O58 2.002965 1_555
Hf3 O23 2.012045 1_555
Hf3 O57 2.039780 1_555
Hf3 O59 2.062088 1_555
Hf3 O22 2.082703 1_555
Hf3 O21 2.086953 1_555
Hf4 O67 1.962023 1_555
Hf4 O32 1.974195 1_555
Hf4 O68 2.052250 1_555
Hf4 O31 2.075558 1_555
Hf4 O66 2.107454 1_555
Hf4 O30 2.148029 1_555
Hf5 O70 1.962023 1_555
Hf5 O33 1.974195 1_555
Hf5 O69 2.052250 1_555
Hf5 O34 2.075558 1_555
Hf5 O71 2.107454 1_555
Hf5 O35 2.148029 1_555
Ga0 O38 1.898059 1_565
Ga0 O1 1.899199 1_455
Ga0 O36 2.031128 1_555
Ga0 O0 2.052912 1_565
Ga0 O37 2.058538 1_455
Ga0 O2 2.086877 1_465
Ga1 O39 1.898059 1_665
Ga1 O4 1.899199 1_555
Ga1 O41 2.031128 1_555
Ga1 O5 2.052912 1_565
Ga1 O40 2.058538 1_655
Ga1 O3 2.086877 1_665
Ga2 O12 1.867623 1_555
Ga2 O50 1.884929 1_555
Ga2 O48 2.028984 1_555
Ga2 O14 2.085957 1_555
Ga2 O49 2.093549 1_555
Ga2 O13 2.129967 1_555
Ga3 O17 1.867623 1_555
Ga3 O51 1.884929 1_555
Ga3 O53 2.028984 1_555
Ga3 O15 2.085957 1_555
Ga3 O52 2.093549 1_555
Ga3 O16 2.129967 1_555
Ga4 O60 1.874950 1_555
Ga4 O25 1.881530 1_554
Ga4 O61 2.041943 1_555
Ga4 O24 2.043750 1_554
Ga4 O62 2.105293 1_555
Ga4 O26 2.145405 1_554
Ga5 O65 1.874950 1_555
Ga5 O28 1.881530 1_555
Ga5 O64 2.041943 1_555
Ga5 O29 2.043750 1_555
Ga5 O63 2.105293 1_555
Ga5 O27 2.145405 1_555
O0 S0 1.474678 1_555
O1 P0 1.539302 1_555
O2 S1 1.468493 1_555
O3 S2 1.468493 1_555
O4 P1 1.539302 1_555
O5 S3 1.474678 1_555
O6 S3 1.488215 1_565
O7 S2 1.488757 1_555
O8 P1 1.543264 1_455
O9 P0 1.543264 1_555
O10 S1 1.488757 1_455
O11 S0 1.488215 1_565
O12 P2 1.534806 1_555
O13 S4 1.472269 1_555
O14 S5 1.469791 1_555
O15 S6 1.469791 1_555
O16 S7 1.472269 1_555
O17 P3 1.534806 1_555
O18 P3 1.546692 1_555
O19 S6 1.485172 1_555
O20 S7 1.490551 1_555
O21 S4 1.490551 1_555
O22 S5 1.485172 1_555
O23 P2 1.546692 1_555
O24 S8 1.475827 1_555
O25 P4 1.533526 1_555
O26 S9 1.469504 1_555
O27 S10 1.469504 1_555
O28 P5 1.533526 1_555
O29 S11 1.475827 1_555
O30 S11 1.478872 1_555
O31 S10 1.488293 1_555
O32 P5 1.552708 1_555
O33 P4 1.552708 1_555
O34 S9 1.488293 1_555
O35 S8 1.478872 1_555
O36 S11 1.466264 1_555
O37 S10 1.463241 1_555
O38 P5 1.528355 1_555
O39 P4 1.528359 1_555
O40 S9 1.463233 1_555
O41 S8 1.466269 1_555
O42 P2 1.547768 1_555
O43 S4 1.496764 1_555
O44 S5 1.488533 1_555
O45 S6 1.488537 1_555
O46 S7 1.496756 1_555
O47 P3 1.547773 1_555
O48 S3 1.467378 1_555
O49 S2 1.463891 1_555
O50 P1 1.525986 1_555
O51 P0 1.525989 1_555
O52 S1 1.463882 1_555
O53 S0 1.467383 1_555
O54 S8 1.493427 1_555
O55 P4 1.546449 1_655
O56 S9 1.491371 1_545
O57 S10 1.491364 1_545
O58 P5 1.546466 1_555
O59 S11 1.493417 1_655
O60 P3 1.527178 1_555
O61 S6 1.465402 1_455
O62 S7 1.462355 1_565
O63 S4 1.462348 1_565
O64 S5 1.465420 1_555
O65 P2 1.527168 1_455
O66 S0 1.483673 1_565
O67 P0 1.554110 1_555
O68 S1 1.490462 1_455
O69 S2 1.490465 1_555
O70 P1 1.554101 1_455
O71 S3 1.483678 1_565
