# generated using pymatgen
data_NaSb5O8
_symmetry_space_group_name_H-M   'P 1'
_cell_length_a   7.16978053
_cell_length_b   7.36619973
_cell_length_c   9.69637942
_cell_angle_alpha   106.19300693
_cell_angle_beta   106.35505078
_cell_angle_gamma   85.32354749
_symmetry_Int_Tables_number   1
_chemical_formula_structural   NaSb5O8
_chemical_formula_sum   'Na2 Sb10 O16'
_cell_volume   471.88592229
_cell_formula_units_Z   2
loop_
 _symmetry_equiv_pos_site_id
 _symmetry_equiv_pos_as_xyz
  1  'x, y, z'
loop_
 _atom_site_type_symbol
 _atom_site_label
 _atom_site_symmetry_multiplicity
 _atom_site_fract_x
 _atom_site_fract_y
 _atom_site_fract_z
 _atom_site_occupancy
  Na  Na0  1  0.25083231  0.56604075  0.96647315  1
  Na  Na1  1  0.74916769  0.43395925  0.03352685  1
  Sb  Sb0  1  0.54197029  0.82534543  0.27609303  1
  Sb  Sb1  1  0.45802971  0.17465457  0.72390697  1
  Sb  Sb2  1  0.74660194  0.93851023  0.02749716  1
  Sb  Sb3  1  0.25339806  0.06148977  0.97250284  1
  Sb  Sb4  1  0.53624914  0.39720413  0.33133356  1
  Sb  Sb5  1  0.46375086  0.60279587  0.66866644  1
  Sb  Sb6  1  0.10736970  0.76338735  0.33495284  1
  Sb  Sb7  1  0.89263030  0.23661265  0.66504716  1
  Sb  Sb8  1  0.96877149  0.69390736  0.65880539  1
  Sb  Sb9  1  0.03122851  0.30609264  0.34119461  1
  O  O0  1  0.06605768  0.48778303  0.23405758  1
  O  O1  1  0.93394232  0.51221697  0.76594242  1
  O  O2  1  0.82362119  0.45706364  0.42586866  1
  O  O3  1  0.17637881  0.54293636  0.57413134  1
  O  O4  1  0.81257772  0.19207539  0.16323058  1
  O  O5  1  0.18742228  0.80792461  0.83676942  1
  O  O6  1  0.85024090  0.80583907  0.19598598  1
  O  O7  1  0.14975910  0.19416093  0.80401402  1
  O  O8  1  0.54209533  0.55251552  0.18276418  1
  O  O9  1  0.45790467  0.44748448  0.81723582  1
  O  O10  1  0.44172777  0.64076024  0.44032019  1
  O  O11  1  0.55827223  0.35923976  0.55967981  1
  O  O12  1  0.75472341  0.18323138  0.79753256  1
  O  O13  1  0.24527659  0.81676862  0.20246744  1
  O  O14  1  0.49687909  0.10553238  0.92018064  1
  O  O15  1  0.50312091  0.89446762  0.07981936  1
loop_
_geom_bond_atom_site_label_1
_geom_bond_atom_site_label_2
_geom_bond_distance
_geom_bond_site_symmetry_2
Na0 O9 2.313991 1_555
Na0 O5 2.399752 1_555
Na0 O1 2.515751 1_455
Na0 O13 2.516165 1_556
Na0 O8 2.526935 1_556
Na0 O7 2.790091 1_555
Na0 O15 2.905793 1_556
Na1 O8 2.313991 1_555
Na1 O4 2.399752 1_555
Na1 O0 2.515751 1_655
Na1 O12 2.516165 1_554
Na1 O9 2.526935 1_554
Na1 O6 2.790091 1_555
Na1 O14 2.905793 1_554
O0 Sb9 1.977078 1_555
O0 Sb6 1.998366 1_555
O1 Sb8 1.977078 1_555
O1 Sb7 1.998366 1_555
O2 Sb9 2.008866 1_655
O2 Sb4 2.034441 1_555
O2 Sb8 2.450048 1_555
O3 Sb8 2.008866 1_455
O3 Sb5 2.034441 1_555
O3 Sb9 2.450048 1_555
O4 Sb2 1.966473 1_545
O4 Sb9 2.005883 1_655
O5 Sb3 1.966473 1_565
O5 Sb8 2.005883 1_455
O6 Sb6 2.013499 1_655
O6 Sb2 2.065121 1_555
O6 Sb0 2.522288 1_555
O7 Sb7 2.013499 1_455
O7 Sb3 2.065121 1_555
O7 Sb1 2.522288 1_555
O8 Sb0 1.960535 1_555
O8 Sb4 2.084936 1_555
O9 Sb1 1.960535 1_555
O9 Sb5 2.084936 1_555
O10 Sb4 1.985549 1_555
O10 Sb5 2.268651 1_555
O10 Sb6 2.527643 1_555
O10 Sb0 2.629183 1_555
O11 Sb5 1.985549 1_555
O11 Sb4 2.268651 1_555
O11 Sb7 2.527643 1_555
O11 Sb1 2.629183 1_555
O12 Sb7 1.960362 1_555
O12 Sb1 2.044565 1_555
O13 Sb6 1.960362 1_555
O13 Sb0 2.044565 1_555
O14 Sb3 2.023132 1_555
O14 Sb1 2.043916 1_555
O14 Sb2 2.260052 1_546
O15 Sb2 2.023132 1_555
O15 Sb0 2.043916 1_555
O15 Sb3 2.260052 1_564
