# generated using pymatgen
data_Na15Ca4Nb8Si9(PO8)9
_symmetry_space_group_name_H-M   'P 1'
_cell_length_a   9.13335655
_cell_length_b   9.17889787
_cell_length_c   22.61879562
_cell_angle_alpha   89.96897900
_cell_angle_beta   90.00146955
_cell_angle_gamma   120.03458254
_symmetry_Int_Tables_number   1
_chemical_formula_structural   Na15Ca4Nb8Si9(PO8)9
_chemical_formula_sum   'Na15 Ca4 Nb8 Si9 P9 O72'
_cell_volume   1641.60826315
_cell_formula_units_Z   1
loop_
 _symmetry_equiv_pos_site_id
 _symmetry_equiv_pos_as_xyz
  1  'x, y, z'
loop_
 _atom_site_type_symbol
 _atom_site_label
 _atom_site_symmetry_multiplicity
 _atom_site_fract_x
 _atom_site_fract_y
 _atom_site_fract_z
 _atom_site_occupancy
  Na  Na0  1  0.64917547  0.01544222  0.23918967  1
  Na  Na1  1  0.98419659  0.62936318  0.23895898  1
  Na  Na2  1  0.64349178  0.62848260  0.73760672  1
  Na  Na3  1  0.36092552  0.01752217  0.74049497  1
  Na  Na4  1  0.32348222  0.34224837  0.59025418  1
  Na  Na5  1  0.96052690  0.68317254  0.91283428  1
  Na  Na6  1  0.71056699  0.02793931  0.91222376  1
  Na  Na7  1  0.95657916  0.28065760  0.41241074  1
  Na  Na8  1  0.70534774  0.67853508  0.41083449  1
  Na  Na9  1  0.01590889  0.99154638  0.49585608  1
  Na  Na10  1  0.01903781  0.01139210  0.99707096  1
  Na  Na11  1  0.66786757  0.33204746  0.82627580  1
  Na  Na12  1  0.62878874  0.31699915  0.32687433  1
  Na  Na13  1  0.33312271  0.65645944  0.16291262  1
  Na  Na14  1  0.30919981  0.66593669  0.66406846  1
  Ca  Ca0  1  0.01470196  0.00317387  0.35595205  1
  Ca  Ca1  1  0.01009343  0.01109413  0.85629566  1
  Ca  Ca2  1  0.67555453  0.33081499  0.67939195  1
  Ca  Ca3  1  0.66022041  0.33198961  0.17791678  1
  Nb  Nb0  1  0.99651263  0.00052458  0.64448658  1
  Nb  Nb1  1  0.00116253  0.99822604  0.14450009  1
  Nb  Nb2  1  0.66101884  0.33388219  0.98466722  1
  Nb  Nb3  1  0.66537584  0.33323557  0.48359575  1
  Nb  Nb4  1  0.34017903  0.67422365  0.02139506  1
  Nb  Nb5  1  0.33092194  0.66785779  0.52053975  1
  Nb  Nb6  1  0.32730222  0.65945158  0.31245515  1
  Nb  Nb7  1  0.33507398  0.66343514  0.81321314  1
  Si  Si0  1  0.96530806  0.33404743  0.58323056  1
  Si  Si1  1  0.36605403  0.03132455  0.58687233  1
  Si  Si2  1  0.66812822  0.63361855  0.58442061  1
  Si  Si3  1  0.96753624  0.63337166  0.08620597  1
  Si  Si4  1  0.67118410  0.03485184  0.08591427  1
  Si  Si5  1  0.61530107  0.64969800  0.91775822  1
  Si  Si6  1  0.34746197  0.96370985  0.91734346  1
  Si  Si7  1  0.34428278  0.38092197  0.41912886  1
  Si  Si8  1  0.03221641  0.65255904  0.41742927  1
  P  P0  1  0.29375616  0.99084147  0.25024490  1
  P  P1  1  0.70219088  0.71157221  0.25255082  1
  P  P2  1  0.00817449  0.29616436  0.25254851  1
  P  P3  1  0.29195795  0.30146057  0.74885056  1
  P  P4  1  0.00795567  0.71220895  0.75342765  1
  P  P5  1  0.69931677  0.99091320  0.75429507  1
  P  P6  1  0.36229710  0.33158760  0.08321941  1
  P  P7  1  0.03948214  0.38856675  0.91953854  1
  P  P8  1  0.60825240  0.96046280  0.41555813  1
  O  O0  1  0.21316526  0.99858281  0.30731025  1
  O  O1  1  0.79060543  0.78677929  0.31114659  1
  O  O2  1  0.98933230  0.20809008  0.31126682  1
  O  O3  1  0.20934114  0.19551869  0.80246495  1
  O  O4  1  0.99597247  0.78584695  0.81264606  1
  O  O5  1  0.78089031  0.99657398  0.81341516  1
  O  O6  1  0.80703715  0.97963577  0.70131861  1
  O  O7  1  0.18787191  0.21117643  0.69109615  1
  O  O8  1  0.02777600  0.83791491  0.70121968  1
  O  O9  1  0.81178745  0.83495603  0.19968542  1
  O  O10  1  0.02487142  0.19528790  0.19933412  1
  O  O11  1  0.17870031  0.97799390  0.19556888  1
  O  O12  1  0.91224326  0.38822112  0.64092614  1
  O  O13  1  0.45697619  0.08701712  0.64871399  1
  O  O14  1  0.60355366  0.51695063  0.64168966  1
  O  O15  1  0.90887491  0.53948282  0.14742777  1
  O  O16  1  0.62882327  0.08829486  0.14697828  1
  O  O17  1  0.46414577  0.37626533  0.13894181  1
  O  O18  1  0.46293482  0.30585793  0.02951984  1
  O  O19  1  0.82925689  0.52456267  0.03094729  1
  O  O20  1  0.69069456  0.16641720  0.03022646  1
  O  O21  1  0.47805497  0.17397552  0.53338570  1
  O  O22  1  0.69911428  0.52978208  0.52811919  1
  O  O23  1  0.83924544  0.30301833  0.52454157  1
  O  O24  1  0.49697126  0.64896076  0.97085543  1
  O  O25  1  0.14403383  0.48521072  0.97283572  1
  O  O26  1  0.34577011  0.84316332  0.97097254  1
  O  O27  1  0.50886231  0.85014790  0.46827516  1
  O  O28  1  0.35557851  0.50104112  0.47369438  1
  O  O29  1  0.15303571  0.65536620  0.47100807  1
  O  O30  1  0.13763994  0.64267407  0.35625668  1
  O  O31  1  0.50615456  0.86995423  0.35696897  1
  O  O32  1  0.36169736  0.50456996  0.35916694  1
  O  O33  1  0.13637343  0.49574631  0.86184039  1
  O  O34  1  0.36365017  0.86039896  0.85672762  1
  O  O35  1  0.50220099  0.63536994  0.85576940  1
  O  O36  1  0.99468605  0.80427657  0.42113250  1
  O  O37  1  0.78373151  0.97825132  0.41551113  1
  O  O38  1  0.16931479  0.20793158  0.42307463  1
  O  O39  1  0.00439271  0.20865906  0.91852378  1
  O  O40  1  0.17603769  0.96911300  0.92103667  1
  O  O41  1  0.79617389  0.81912050  0.92022266  1
  O  O42  1  0.97495943  0.15703694  0.59146679  1
  O  O43  1  0.18268755  0.03075032  0.58952009  1
  O  O44  1  0.84395273  0.81546069  0.59383305  1
  O  O45  1  0.98031082  0.82188211  0.09109038  1
  O  O46  1  0.85001161  0.02788588  0.09086883  1
  O  O47  1  0.19111880  0.16307155  0.08741008  1
  O  O48  1  0.65872091  0.13241409  0.74943221  1
  O  O49  1  0.47457229  0.33523587  0.74608588  1
  O  O50  1  0.85042307  0.53995484  0.74594941  1
  O  O51  1  0.67934997  0.53671931  0.24499751  1
  O  O52  1  0.85901566  0.32764746  0.24574244  1
  O  O53  1  0.47561294  0.13536258  0.24633456  1
  O  O54  1  0.63761731  0.48213460  0.92267935  1
  O  O55  1  0.86612593  0.38693821  0.92069674  1
  O  O56  1  0.52738963  0.14419332  0.92209338  1
  O  O57  1  0.62312962  0.13655083  0.41998427  1
  O  O58  1  0.52048462  0.37218555  0.42097568  1
  O  O59  1  0.85229573  0.47014870  0.42003177  1
  O  O60  1  0.32345259  0.47394212  0.06889364  1
  O  O61  1  0.15727715  0.66724967  0.07007224  1
  O  O62  1  0.52037022  0.83969159  0.07104203  1
  O  O63  1  0.32839880  0.84251330  0.57005522  1
  O  O64  1  0.51909037  0.67746111  0.56861009  1
  O  O65  1  0.16613036  0.47796833  0.56995947  1
  O  O66  1  0.29469084  0.81557388  0.24935314  1
  O  O67  1  0.52854590  0.71237734  0.25104594  1
  O  O68  1  0.17879477  0.47724305  0.25343493  1
  O  O69  1  0.29766006  0.47832556  0.75253065  1
  O  O70  1  0.17929731  0.70644510  0.75210231  1
  O  O71  1  0.52314634  0.81334502  0.75113352  1
loop_
_geom_bond_atom_site_label_1
_geom_bond_atom_site_label_2
_geom_bond_distance
_geom_bond_site_symmetry_2
Na0 O16 2.225941 1_555
Na0 O53 2.344686 1_555
Na0 O67 2.440357 1_545
Na0 O52 2.531760 1_555
Na0 O66 2.820368 1_545
Na0 O9 2.865913 1_545
Na0 O31 2.972674 1_545
Na1 O15 2.207662 1_555
Na1 O52 2.414602 1_555
Na1 O51 2.474615 1_555
Na1 O66 2.483346 1_655
Na1 O68 2.774801 1_655
Na1 O11 2.943690 1_655
Na1 O30 2.974368 1_655
Na2 O49 2.346179 1_555
Na2 O14 2.348723 1_555
Na2 O50 2.409380 1_555
Na2 O71 2.459394 1_555
Na2 O69 2.762598 1_555
Na2 O6 2.910588 1_555
Na2 O35 2.982385 1_555
Na3 O13 2.219154 1_555
Na3 O48 2.383188 1_555
Na3 O70 2.496275 1_545
Na3 O49 2.562847 1_555
Na3 O8 2.783060 1_545
Na3 O71 2.923109 1_545
Na3 O3 2.969469 1_555
Na3 O34 3.004046 1_545
Na4 O65 2.370570 1_555
Na4 O43 2.479603 1_555
Na4 O14 2.522686 1_555
Na4 O7 2.586429 1_555
Na4 O64 2.719248 1_555
Na4 O42 2.757952 1_455
Na4 O21 2.866774 1_555
Na4 O28 2.954548 1_555
Na5 O40 2.371997 1_655
Na5 O41 2.390333 1_555
Na5 O4 2.412608 1_555
Na5 O55 2.412710 1_555
Na5 O54 2.589294 1_555
Na6 O39 2.348983 1_655
Na6 O5 2.382481 1_545
Na6 O56 2.403105 1_555
Na6 O41 2.411999 1_545
Na7 O38 2.361609 1_655
Na7 O59 2.370826 1_555
Na7 O37 2.411463 1_545
Na7 O2 2.442976 1_555
Na7 O57 2.649771 1_555
Na7 O23 2.800729 1_555
Na8 O36 2.305837 1_555
Na8 O1 2.429180 1_555
Na8 O58 2.461108 1_555
Na8 O37 2.474028 1_555
Na8 O59 2.841237 1_555
Na9 O36 2.349152 1_455
Na9 O38 2.414311 1_565
Na9 O43 2.527855 1_565
Na9 O44 2.728616 1_455
Na9 O37 2.748682 1_455
Na9 O42 2.774249 1_465
Na10 O40 2.392155 1_545
Na10 O47 2.529094 1_556
Na10 O41 2.585800 1_445
Na10 O39 2.586873 1_555
Na10 O45 2.655846 1_446
Na10 O46 2.672417 1_456
Na11 O48 2.497188 1_555
Na11 O49 2.541453 1_555
Na11 O50 2.556195 1_555
Na11 O56 2.664192 1_555
Na11 O54 2.667065 1_555
Na11 O55 2.679844 1_555
Na12 O53 2.392437 1_555
Na12 O58 2.503653 1_555
Na12 O51 2.602713 1_555
Na12 O57 2.663075 1_555
Na12 O52 2.755534 1_555
Na12 O59 2.777329 1_555
Na13 O67 2.550878 1_555
Na13 O68 2.561347 1_555
Na13 O66 2.568132 1_555
Na13 O61 2.675409 1_555
Na13 O62 2.681160 1_555
Na13 O60 2.681902 1_555
Na14 O70 2.439958 1_555
Na14 O69 2.606690 1_555
Na14 O71 2.623589 1_555
Na14 O63 2.625131 1_555
Na14 O65 2.638621 1_555
Na14 O64 2.853947 1_555
Ca0 O0 2.138814 1_545
Ca0 O2 2.246613 1_455
Ca0 O1 2.256977 1_445
Ca0 O38 2.275446 1_555
Ca0 O36 2.281012 1_445
Ca0 O37 2.415373 1_445
Ca1 O3 2.138665 1_555
Ca1 O4 2.236362 1_445
Ca1 O5 2.249781 1_445
Ca1 O40 2.274620 1_545
Ca1 O39 2.317250 1_555
Ca1 O41 2.358839 1_445
Ca2 O12 2.137096 1_555
Ca2 O13 2.236999 1_555
Ca2 O14 2.280753 1_555
Ca2 O50 2.331564 1_555
Ca2 O48 2.359328 1_555
Ca2 O49 2.392005 1_555
Ca3 O17 2.208493 1_555
Ca3 O15 2.220222 1_555
Ca3 O16 2.221488 1_555
Ca3 O53 2.333656 1_555
Ca3 O51 2.353391 1_555
Ca3 O52 2.392497 1_555
Nb0 O44 1.942255 1_545
Nb0 O42 1.954995 1_555
Nb0 O43 2.010363 1_655
Nb0 O6 2.086070 1_545
Nb0 O8 2.092977 1_645
Nb0 O7 2.126951 1_655
Nb1 O45 1.951720 1_455
Nb1 O46 1.956343 1_465
Nb1 O9 2.049120 1_455
Nb1 O11 2.073453 1_555
Nb1 O47 2.082565 1_565
Nb1 O10 2.113600 1_565
Nb2 O19 1.957014 1_556
Nb2 O18 1.975463 1_556
Nb2 O20 1.978263 1_556
Nb2 O54 2.037737 1_555
Nb2 O56 2.097538 1_555
Nb2 O55 2.219510 1_555
Nb3 O22 1.951741 1_555
Nb3 O21 1.956278 1_555
Nb3 O23 1.974087 1_555
Nb3 O58 2.087627 1_555
Nb3 O59 2.100342 1_555
Nb3 O57 2.187194 1_555
Nb4 O26 1.904407 1_554
Nb4 O24 1.934962 1_554
Nb4 O62 1.943159 1_555
Nb4 O61 1.974819 1_555
Nb4 O60 2.067342 1_555
Nb4 O25 2.077584 1_554
Nb5 O29 1.929128 1_555
Nb5 O63 1.965678 1_555
Nb5 O28 1.965945 1_555
Nb5 O65 1.981081 1_555
Nb5 O64 1.997987 1_555
Nb5 O27 2.028358 1_555
Nb6 O32 1.918725 1_555
Nb6 O30 1.933612 1_555
Nb6 O68 2.037279 1_555
Nb6 O31 2.063475 1_555
Nb6 O66 2.145808 1_555
Nb6 O67 2.156209 1_555
Nb7 O35 1.927740 1_555
Nb7 O34 1.958306 1_555
Nb7 O33 2.018516 1_555
Nb7 O69 2.075798 1_555
Nb7 O71 2.108941 1_555
Nb7 O70 2.156923 1_555
O0 P0 1.505118 1_555
O1 P1 1.525821 1_555
O2 P2 1.518781 1_655
O3 P3 1.499952 1_555
O4 P4 1.529054 1_655
O5 P5 1.518956 1_555
O6 P5 1.586396 1_555
O7 P3 1.584135 1_555
O8 P4 1.596260 1_555
O9 P1 1.605671 1_555
O10 P2 1.572241 1_555
O11 P0 1.588605 1_555
O12 Si0 1.557941 1_555
O13 Si1 1.575844 1_555
O14 Si2 1.593384 1_555
O15 Si3 1.576024 1_555
O16 Si4 1.577585 1_555
O17 P6 1.496881 1_555
O18 P6 1.610467 1_555
O19 Si3 1.700983 1_555
O20 Si4 1.691043 1_555
O21 Si1 1.697657 1_555
O22 Si2 1.697521 1_555
O23 Si0 1.685536 1_555
O24 Si5 1.613440 1_555
O25 P7 1.518279 1_555
O26 Si6 1.636279 1_555
O27 P8 1.532891 1_555
O28 Si7 1.623930 1_555
O29 Si8 1.630497 1_555
O30 Si8 1.713914 1_555
O31 P8 1.594225 1_555
O32 Si7 1.723517 1_555
O33 P7 1.606648 1_555
O34 Si6 1.715420 1_555
O35 Si5 1.707161 1_555
O36 Si8 1.594311 1_655
O37 P8 1.527543 1_555
O38 Si7 1.594598 1_555
O39 P7 1.516728 1_555
O40 Si6 1.593277 1_555
O41 Si5 1.605896 1_555
O42 Si0 1.680883 1_555
O43 Si1 1.673193 1_555
O44 Si2 1.651442 1_555
O45 Si3 1.678669 1_555
O46 Si4 1.669978 1_555
O47 P6 1.557205 1_555
O48 P5 1.522640 1_545
O49 P3 1.537602 1_555
O50 P4 1.523697 1_655
O51 P1 1.521093 1_555
O52 P2 1.535305 1_655
O53 P0 1.523344 1_545
O54 Si5 1.653225 1_555
O55 P7 1.576114 1_655
O56 Si6 1.652721 1_545
O57 P8 1.556026 1_545
O58 Si7 1.651438 1_555
O59 Si8 1.659168 1_655
O60 P6 1.549780 1_555
O61 Si3 1.641193 1_455
O62 Si4 1.658318 1_565
O63 Si1 1.634191 1_565
O64 Si2 1.640404 1_555
O65 Si0 1.665386 1_455
O66 P0 1.613190 1_555
O67 P1 1.590037 1_555
O68 P2 1.612021 1_555
O69 P3 1.600207 1_555
O70 P4 1.592347 1_555
O71 P5 1.620324 1_555
