# generated using pymatgen
data_Na8Mg2In2Si3(SO8)3
_symmetry_space_group_name_H-M   'P 1'
_cell_length_a   9.28211814
_cell_length_b   9.20786996
_cell_length_c   22.40607118
_cell_angle_alpha   91.36793827
_cell_angle_beta   89.57361600
_cell_angle_gamma   120.24620336
_symmetry_Int_Tables_number   1
_chemical_formula_structural   Na8Mg2In2Si3(SO8)3
_chemical_formula_sum   'Na24 Mg6 In6 Si9 S9 O72'
_cell_volume   1653.82634680
_cell_formula_units_Z   3
loop_
 _symmetry_equiv_pos_site_id
 _symmetry_equiv_pos_as_xyz
  1  'x, y, z'
loop_
 _atom_site_type_symbol
 _atom_site_label
 _atom_site_symmetry_multiplicity
 _atom_site_fract_x
 _atom_site_fract_y
 _atom_site_fract_z
 _atom_site_occupancy
  Na  Na0  1  0.63610768  0.01828416  0.26142056  1
  Na  Na1  1  0.34781878  0.34310434  0.25418860  1
  Na  Na2  1  0.00702278  0.62978785  0.24293647  1
  Na  Na3  1  0.62410376  0.62899296  0.73239435  1
  Na  Na4  1  0.99250628  0.34746392  0.73578343  1
  Na  Na5  1  0.38784493  0.02298499  0.75099988  1
  Na  Na6  1  0.30238514  0.34990569  0.59345024  1
  Na  Na7  1  0.01535335  0.67758562  0.58603632  1
  Na  Na8  1  0.67327438  0.96052348  0.58092298  1
  Na  Na9  1  0.28293383  0.94543966  0.08397304  1
  Na  Na10  1  0.67823126  0.69454097  0.08146199  1
  Na  Na11  1  0.03011335  0.34668127  0.09554690  1
  Na  Na12  1  0.98242312  0.68562212  0.91873200  1
  Na  Na13  1  0.68616797  0.02648928  0.89923953  1
  Na  Na14  1  0.32543276  0.27785068  0.90301559  1
  Na  Na15  1  0.95019871  0.27824924  0.41877010  1
  Na  Na16  1  0.34140967  0.03000176  0.40849220  1
  Na  Na17  1  0.69735644  0.68224189  0.43065407  1
  Na  Na18  1  0.97249021  0.99720620  0.50389906  1
  Na  Na19  1  0.01134422  0.98556698  0.99670354  1
  Na  Na20  1  0.64682354  0.31545312  0.82173687  1
  Na  Na21  1  0.66501688  0.30813469  0.33120917  1
  Na  Na22  1  0.30581341  0.66457463  0.17073858  1
  Na  Na23  1  0.34402271  0.65497657  0.66224130  1
  Mg  Mg0  1  0.00116450  0.01174386  0.34792383  1
  Mg  Mg1  1  0.01053226  0.01273544  0.84215751  1
  Mg  Mg2  1  0.67251957  0.33752815  0.68271408  1
  Mg  Mg3  1  0.67930137  0.33196086  0.18858404  1
  Mg  Mg4  1  0.31496667  0.67426940  0.01696729  1
  Mg  Mg5  1  0.35096627  0.66812265  0.52198645  1
  In  In0  1  0.99055944  0.01043127  0.65128240  1
  In  In1  1  0.01165689  0.99884723  0.15812525  1
  In  In2  1  0.66722251  0.33262184  0.98611390  1
  In  In3  1  0.67553397  0.32790410  0.49151159  1
  In  In4  1  0.33252875  0.67597880  0.31772201  1
  In  In5  1  0.34214237  0.67748618  0.81496893  1
  Si  Si0  1  0.30475512  0.00386493  0.25093791  1
  Si  Si1  1  0.00019089  0.29886902  0.25128851  1
  Si  Si2  1  0.30408089  0.30027460  0.75267406  1
  Si  Si3  1  0.70136862  0.00196323  0.75332113  1
  Si  Si4  1  0.97568358  0.34105024  0.58334100  1
  Si  Si5  1  0.66924077  0.62932586  0.58471038  1
  Si  Si6  1  0.96111990  0.63023822  0.08514482  1
  Si  Si7  1  0.32998777  0.96776697  0.92115087  1
  Si  Si8  1  0.63330425  0.96489621  0.41878190  1
  S  S0  1  0.70281494  0.70014804  0.24977455  1
  S  S1  1  0.99706963  0.70451935  0.75232416  1
  S  S2  1  0.36718211  0.03282379  0.58361352  1
  S  S3  1  0.66515129  0.03077345  0.08325954  1
  S  S4  1  0.36913741  0.33849597  0.08308780  1
  S  S5  1  0.62734232  0.66486253  0.92074813  1
  S  S6  1  0.03980629  0.36975981  0.91919846  1
  S  S7  1  0.33177341  0.36973321  0.41629097  1
  S  S8  1  0.03320522  0.66825308  0.41682820  1
  O  O0  1  0.20514381  0.02401679  0.30766857  1
  O  O1  1  0.81143494  0.78799241  0.30146870  1
  O  O2  1  0.96991051  0.17693212  0.30614199  1
  O  O3  1  0.22056910  0.18641826  0.81112227  1
  O  O4  1  0.98140720  0.79009275  0.80711324  1
  O  O5  1  0.81099454  0.01866419  0.81293635  1
  O  O6  1  0.77376846  0.95287033  0.69393167  1
  O  O7  1  0.19045907  0.21583230  0.69221908  1
  O  O8  1  0.02728158  0.80733791  0.69842606  1
  O  O9  1  0.77046043  0.80125467  0.19378794  1
  O  O10  1  0.03146873  0.22169407  0.18681518  1
  O  O11  1  0.19371043  0.95624420  0.18776119  1
  O  O12  1  0.87871022  0.36272289  0.64057185  1
  O  O13  1  0.47625118  0.12019228  0.63553389  1
  O  O14  1  0.64175357  0.50789290  0.63974424  1
  O  O15  1  0.86157749  0.50943622  0.14007976  1
  O  O16  1  0.63951728  0.11627113  0.13549001  1
  O  O17  1  0.47068930  0.35608349  0.13608171  1
  O  O18  1  0.44242181  0.30782412  0.02749273  1
  O  O19  1  0.85005632  0.55561820  0.02182041  1
  O  O20  1  0.69220509  0.13019896  0.02775955  1
  O  O21  1  0.43449205  0.13419080  0.52774691  1
  O  O22  1  0.69287458  0.54846630  0.52007385  1
  O  O23  1  0.86222338  0.29235351  0.52094418  1
  O  O24  1  0.54063279  0.67847003  0.97519730  1
  O  O25  1  0.14340054  0.45523375  0.97339047  1
  O  O26  1  0.30821054  0.85925312  0.98022197  1
  O  O27  1  0.53489081  0.84519671  0.47407729  1
  O  O28  1  0.31301719  0.45842632  0.46842709  1
  O  O29  1  0.13640899  0.68563771  0.46893780  1
  O  O30  1  0.10401558  0.63621787  0.36040438  1
  O  O31  1  0.52451974  0.89026075  0.35542379  1
  O  O32  1  0.35503055  0.46691297  0.36023714  1
  O  O33  1  0.11657580  0.47081524  0.86545413  1
  O  O34  1  0.36840237  0.88584677  0.86136392  1
  O  O35  1  0.52558709  0.63835247  0.86641232  1
  O  O36  1  0.02313021  0.82452960  0.41189936  1
  O  O37  1  0.81905797  0.98231735  0.41311915  1
  O  O38  1  0.17963596  0.19940541  0.41200513  1
  O  O39  1  0.01889710  0.19896015  0.91508603  1
  O  O40  1  0.16214984  0.98425868  0.91461837  1
  O  O41  1  0.79520050  0.81926756  0.91771727  1
  O  O42  1  0.00338638  0.17662300  0.58436908  1
  O  O43  1  0.19705885  0.00881024  0.59011363  1
  O  O44  1  0.84776162  0.81317554  0.58668271  1
  O  O45  1  0.97820042  0.82151553  0.08750261  1
  O  O46  1  0.81756917  0.01555134  0.08853971  1
  O  O47  1  0.19593624  0.18926522  0.08482979  1
  O  O48  1  0.69242798  0.17433983  0.74709178  1
  O  O49  1  0.49198231  0.32893767  0.74591136  1
  O  O50  1  0.84321158  0.53792558  0.74740423  1
  O  O51  1  0.68713612  0.53260490  0.24267331  1
  O  O52  1  0.84055680  0.32749480  0.24687408  1
  O  O53  1  0.48669491  0.17725982  0.24442600  1
  O  O54  1  0.64848900  0.51299635  0.92155286  1
  O  O55  1  0.86989112  0.35323797  0.92359438  1
  O  O56  1  0.50523642  0.16036390  0.92293967  1
  O  O57  1  0.64550107  0.15463739  0.42065372  1
  O  O58  1  0.48253883  0.35088063  0.41990430  1
  O  O59  1  0.86037449  0.51874960  0.41878576  1
  O  O60  1  0.36038108  0.49589010  0.07776562  1
  O  O61  1  0.14617795  0.64568818  0.08105265  1
  O  O62  1  0.51624953  0.85834971  0.07722368  1
  O  O63  1  0.35283052  0.86586350  0.57631048  1
  O  O64  1  0.50876263  0.65797874  0.58130285  1
  O  O65  1  0.15725635  0.51455375  0.57684501  1
  O  O66  1  0.33012557  0.83800597  0.25192892  1
  O  O67  1  0.53200776  0.67602831  0.25542579  1
  O  O68  1  0.17765609  0.48399582  0.25492856  1
  O  O69  1  0.30681363  0.48367066  0.75672107  1
  O  O70  1  0.14382548  0.67887880  0.75677632  1
  O  O71  1  0.50731135  0.83785349  0.75206588  1
loop_
_geom_bond_atom_site_label_1
_geom_bond_atom_site_label_2
_geom_bond_distance
_geom_bond_site_symmetry_2
Na0 O31 2.398899 1_545
Na0 O66 2.471793 1_545
Na0 O53 2.508163 1_555
Na0 O52 2.530960 1_555
Na0 O67 2.792361 1_545
Na0 O2 2.855627 1_555
Na0 O16 2.977917 1_555
Na1 O53 2.450404 1_555
Na1 O68 2.498178 1_555
Na1 O32 2.597357 1_555
Na1 O67 2.652888 1_555
Na1 O51 2.739336 1_555
Na1 O0 2.836682 1_555
Na1 O17 2.854969 1_555
Na1 O10 2.971418 1_555
Na2 O52 2.412436 1_455
Na2 O68 2.558990 1_555
Na2 O15 2.603667 1_455
Na2 O66 2.628447 1_555
Na2 O51 2.634453 1_455
Na2 O30 2.777691 1_555
Na2 O11 2.909448 1_555
Na3 O14 2.376583 1_555
Na3 O49 2.418698 1_555
Na3 O50 2.587326 1_555
Na3 O69 2.608089 1_555
Na3 O71 2.668487 1_555
Na3 O6 2.738139 1_555
Na4 O12 2.425664 1_555
Na4 O48 2.428833 1_555
Na4 O69 2.571106 1_655
Na4 O70 2.670149 1_655
Na4 O50 2.735867 1_555
Na4 O7 2.821059 1_655
Na5 O48 2.444506 1_555
Na5 O71 2.458215 1_545
Na5 O49 2.480753 1_555
Na5 O13 2.739860 1_555
Na5 O34 2.766737 1_545
Na5 O70 2.823393 1_545
Na5 O3 2.952314 1_555
Na6 O42 2.412778 1_555
Na6 O7 2.510974 1_555
Na6 O65 2.518611 1_555
Na6 O64 2.518969 1_555
Na6 O43 2.778896 1_555
Na6 O14 2.911197 1_555
Na6 O28 2.980867 1_555
Na7 O44 2.436034 1_455
Na7 O65 2.450315 1_555
Na7 O43 2.638472 1_565
Na7 O63 2.720744 1_555
Na7 O8 2.740128 1_555
Na7 O12 2.819361 1_455
Na7 O29 2.834337 1_555
Na8 O64 2.409950 1_555
Na8 O44 2.589561 1_555
Na8 O63 2.646867 1_555
Na8 O27 2.656880 1_555
Na8 O42 2.684784 1_665
Na8 O6 2.719633 1_555
Na9 O61 2.386754 1_555
Na9 O45 2.461401 1_455
Na9 O11 2.479306 1_555
Na9 O26 2.486007 1_554
Na9 O62 2.663635 1_555
Na9 O47 2.741745 1_565
Na10 O45 2.419991 1_555
Na10 O46 2.562055 1_565
Na10 O60 2.572306 1_555
Na10 O62 2.615021 1_555
Na10 O9 2.664421 1_555
Na10 O24 2.675859 1_554
Na10 O19 2.812081 1_555
Na11 O10 2.373576 1_555
Na11 O61 2.428091 1_555
Na11 O47 2.598688 1_555
Na11 O46 2.671146 1_455
Na11 O60 2.684954 1_555
Na11 O15 2.820631 1_455
Na11 O25 2.936861 1_554
Na12 O40 2.396108 1_655
Na12 O41 2.586748 1_555
Na12 O19 2.624082 1_556
Na12 O54 2.678907 1_555
Na12 O55 2.695088 1_555
Na12 O4 2.702681 1_555
Na13 O5 2.265178 1_555
Na13 O56 2.581300 1_555
Na13 O41 2.612617 1_545
Na13 O55 2.650384 1_555
Na13 O34 2.689559 1_545
Na13 O39 2.689746 1_655
Na13 O20 3.004084 1_556
Na14 O3 2.239882 1_555
Na14 O40 2.360678 1_545
Na14 O56 2.451135 1_555
Na14 O39 2.571430 1_555
Na14 O54 2.699470 1_555
Na14 O18 2.956438 1_556
Na14 O35 3.006230 1_555
Na15 O37 2.359469 1_545
Na15 O23 2.447346 1_555
Na15 O57 2.460428 1_555
Na15 O38 2.575467 1_655
Na15 O2 2.706439 1_555
Na15 O59 2.731151 1_555
Na16 O57 2.468111 1_555
Na16 O58 2.565311 1_555
Na16 O0 2.583131 1_555
Na16 O36 2.585698 1_545
Na16 O38 2.654466 1_555
Na16 O21 2.807762 1_555
Na16 O31 2.838731 1_545
Na17 O22 2.366051 1_555
Na17 O37 2.442476 1_555
Na17 O59 2.626095 1_555
Na17 O36 2.655761 1_655
Na17 O58 2.680727 1_555
Na17 O27 2.767703 1_555
Na18 O42 2.334641 1_665
Na18 O44 2.407071 1_555
Na18 O37 2.453042 1_555
Na18 O36 2.753212 1_655
Na18 O43 2.813133 1_665
Na18 O38 2.814328 1_665
Na19 O40 2.306483 1_555
Na19 O45 2.486902 1_456
Na19 O41 2.516044 1_455
Na19 O47 2.643589 1_566
Na19 O39 2.690884 1_565
Na19 O46 2.821967 1_466
Na20 O48 2.259334 1_555
Na20 O49 2.278980 1_555
Na20 O50 2.578555 1_555
Na20 O56 2.669802 1_555
Na20 O54 2.844054 1_555
Na20 O55 2.987210 1_555
Na21 O53 2.428873 1_555
Na21 O57 2.432857 1_555
Na21 O52 2.436177 1_555
Na21 O59 2.688500 1_555
Na21 O58 2.749073 1_555
Na21 O51 2.830479 1_555
Na22 O66 2.326973 1_555
Na22 O68 2.421133 1_555
Na22 O61 2.456013 1_555
Na22 O60 2.762422 1_555
Na22 O67 2.801158 1_555
Na22 O62 2.827669 1_555
Na23 O64 2.355076 1_555
Na23 O65 2.451797 1_555
Na23 O71 2.548683 1_555
Na23 O69 2.586198 1_555
Na23 O63 2.738729 1_555
Na23 O70 2.884324 1_555
Mg0 O2 1.946965 1_455
Mg0 O0 2.043285 1_555
Mg0 O37 2.141317 1_445
Mg0 O1 2.167761 1_445
Mg0 O38 2.196552 1_555
Mg0 O36 2.354650 1_545
Mg1 O3 1.932331 1_555
Mg1 O5 1.995912 1_455
Mg1 O4 2.064064 1_445
Mg1 O40 2.260838 1_545
Mg1 O39 2.313095 1_555
Mg1 O41 2.557583 1_445
Mg2 O14 1.999207 1_555
Mg2 O12 2.035837 1_555
Mg2 O49 2.157779 1_555
Mg2 O13 2.167029 1_555
Mg2 O48 2.181710 1_555
Mg2 O50 2.230977 1_555
Mg3 O15 1.996544 1_555
Mg3 O52 2.010352 1_555
Mg3 O53 2.068100 1_555
Mg3 O51 2.155547 1_555
Mg3 O16 2.156577 1_555
Mg3 O17 2.379571 1_555
Mg4 O26 1.938652 1_554
Mg4 O61 2.038345 1_555
Mg4 O25 2.061670 1_554
Mg4 O62 2.219095 1_555
Mg4 O24 2.270669 1_554
Mg4 O60 2.354595 1_555
Mg5 O27 1.994331 1_555
Mg5 O64 2.023145 1_555
Mg5 O65 2.057181 1_555
Mg5 O28 2.121999 1_555
Mg5 O63 2.158660 1_555
Mg5 O29 2.402712 1_555
In0 O6 2.040700 1_545
In0 O7 2.065990 1_655
In0 O42 2.127683 1_655
In0 O44 2.151407 1_545
In0 O8 2.338999 1_645
In0 O43 2.354001 1_655
In1 O11 2.036503 1_555
In1 O10 2.053328 1_565
In1 O45 2.153984 1_455
In1 O9 2.213645 1_455
In1 O47 2.402362 1_565
In1 O46 2.456124 1_465
In2 O19 2.041447 1_556
In2 O56 2.074134 1_555
In2 O18 2.183359 1_556
In2 O20 2.218159 1_556
In2 O55 2.269565 1_555
In2 O54 2.300140 1_555
In3 O23 2.035604 1_555
In3 O22 2.042110 1_555
In3 O57 2.140393 1_555
In3 O21 2.206407 1_555
In3 O59 2.396807 1_555
In3 O58 2.503779 1_555
In4 O31 2.045229 1_555
In4 O68 2.126558 1_555
In4 O66 2.130381 1_555
In4 O30 2.179871 1_555
In4 O32 2.269905 1_555
In4 O67 2.310279 1_555
In5 O34 2.063570 1_555
In5 O69 2.073963 1_555
In5 O71 2.074577 1_555
In5 O35 2.241647 1_555
In5 O70 2.269159 1_555
In5 O33 2.310460 1_555
O0 Si0 1.627616 1_555
O1 S0 1.470856 1_555
O2 Si1 1.610286 1_655
O3 Si2 1.626883 1_555
O4 S1 1.488484 1_555
O5 Si3 1.641970 1_555
O6 Si3 1.640332 1_565
O7 Si2 1.642112 1_555
O8 S1 1.488436 1_455
O9 S0 1.513184 1_555
O10 Si1 1.681875 1_555
O11 Si0 1.671883 1_565
O12 Si4 1.626635 1_555
O13 S2 1.475739 1_555
O14 Si5 1.615424 1_555
O15 Si6 1.618361 1_555
O16 S3 1.478685 1_555
O17 S4 1.475916 1_555
O18 S4 1.502764 1_555
O19 Si6 1.676196 1_555
O20 S3 1.505218 1_555
O21 S2 1.511646 1_555
O22 Si5 1.675779 1_555
O23 Si4 1.667640 1_555
O24 S5 1.493834 1_555
O25 S6 1.492560 1_555
O26 Si7 1.626867 1_555
O27 Si8 1.618116 1_555
O28 S7 1.468516 1_555
O29 S8 1.469610 1_555
O30 S8 1.510780 1_555
O31 Si8 1.668182 1_555
O32 S7 1.509875 1_555
O33 S6 1.482042 1_555
O34 Si7 1.645065 1_555
O35 S5 1.484762 1_555
O36 S8 1.494958 1_555
O37 Si8 1.653401 1_555
O38 S7 1.492230 1_555
O39 S6 1.485056 1_555
O40 Si7 1.647511 1_555
O41 S5 1.491628 1_555
O42 Si4 1.659183 1_455
O43 S2 1.486617 1_555
O44 Si5 1.668851 1_555
O45 Si6 1.686512 1_555
O46 S3 1.496076 1_555
O47 S4 1.500129 1_555
O48 Si3 1.639844 1_555
O49 Si2 1.633652 1_555
O50 S1 1.480558 1_555
O51 S0 1.479496 1_555
O52 Si1 1.634537 1_655
O53 Si0 1.647274 1_555
O54 S5 1.507333 1_555
O55 S6 1.508974 1_655
O56 Si7 1.698244 1_545
O57 Si8 1.692420 1_545
O58 S7 1.497386 1_555
O59 S8 1.499187 1_655
O60 S4 1.499419 1_555
O61 Si6 1.652677 1_455
O62 S3 1.493683 1_565
O63 S2 1.479851 1_565
O64 Si5 1.640991 1_555
O65 Si4 1.645869 1_455
O66 Si0 1.659014 1_565
O67 S0 1.490852 1_555
O68 Si1 1.671041 1_555
O69 Si2 1.676335 1_555
O70 S1 1.499481 1_455
O71 Si3 1.668942 1_565
