# generated using pymatgen
data_Na7Hf2Si5Sn2PO24
_symmetry_space_group_name_H-M   'P 1'
_cell_length_a   9.11727619
_cell_length_b   9.12871034
_cell_length_c   22.65326648
_cell_angle_alpha   89.98594019
_cell_angle_beta   89.91122890
_cell_angle_gamma   120.06011907
_symmetry_Int_Tables_number   1
_chemical_formula_structural   Na7Hf2Si5Sn2PO24
_chemical_formula_sum   'Na21 Hf6 Si15 Sn6 P3 O72'
_cell_volume   1631.81817175
_cell_formula_units_Z   3
loop_
 _symmetry_equiv_pos_site_id
 _symmetry_equiv_pos_as_xyz
  1  'x, y, z'
loop_
 _atom_site_type_symbol
 _atom_site_label
 _atom_site_symmetry_multiplicity
 _atom_site_fract_x
 _atom_site_fract_y
 _atom_site_fract_z
 _atom_site_occupancy
  Na  Na0  1  0.63535721  0.99975192  0.25119366  1
  Na  Na1  1  0.36498650  0.36431858  0.24809219  1
  Na  Na2  1  0.00052998  0.63389401  0.25045193  1
  Na  Na3  1  0.63539569  0.63465548  0.74924020  1
  Na  Na4  1  0.99961189  0.36574781  0.75059899  1
  Na  Na5  1  0.36591356  0.00026597  0.75086620  1
  Na  Na6  1  0.30181682  0.33255709  0.58384046  1
  Na  Na7  1  0.03265140  0.69991724  0.58285627  1
  Na  Na8  1  0.66696082  0.96734401  0.58310411  1
  Na  Na9  1  0.29559153  0.96701769  0.08172213  1
  Na  Na10  1  0.03767480  0.33714465  0.08416781  1
  Na  Na11  1  0.97098904  0.66832521  0.91727823  1
  Na  Na12  1  0.33062994  0.29605129  0.91847802  1
  Na  Na13  1  0.33149982  0.02913077  0.41667240  1
  Na  Na14  1  0.70327985  0.66847907  0.41800269  1
  Na  Na15  1  0.99658308  0.00325286  0.49948527  1
  Na  Na16  1  0.99137722  0.99553877  0.00016589  1
  Na  Na17  1  0.66778508  0.32282930  0.83420757  1
  Na  Na18  1  0.67767300  0.33241948  0.33375714  1
  Na  Na19  1  0.33803559  0.66357617  0.16593446  1
  Na  Na20  1  0.33360116  0.66739072  0.66676731  1
  Hf  Hf0  1  0.99671407  0.00132174  0.35193721  1
  Hf  Hf1  1  0.99933750  0.00313196  0.85300262  1
  Hf  Hf2  1  0.99955626  0.99956901  0.64862699  1
  Hf  Hf3  1  0.99839534  0.99520076  0.14764665  1
  Hf  Hf4  1  0.66712896  0.33377422  0.68494500  1
  Hf  Hf5  1  0.67466303  0.33206758  0.48054373  1
  Si  Si0  1  0.29492257  0.00083987  0.25002748  1
  Si  Si1  1  0.70602642  0.70646099  0.25092608  1
  Si  Si2  1  0.99955216  0.29268497  0.24854065  1
  Si  Si3  1  0.29379113  0.29506144  0.75103024  1
  Si  Si4  1  0.00036828  0.70661563  0.75116575  1
  Si  Si5  1  0.70555869  0.99847350  0.75040084  1
  Si  Si6  1  0.96232913  0.33401227  0.58358369  1
  Si  Si7  1  0.37368081  0.04021360  0.58224939  1
  Si  Si8  1  0.66492752  0.62593314  0.58210602  1
  Si  Si9  1  0.95787106  0.62598660  0.08189654  1
  Si  Si10  1  0.37661202  0.33768613  0.08272056  1
  Si  Si11  1  0.03795968  0.37257789  0.91747860  1
  Si  Si12  1  0.33764246  0.96100911  0.91755715  1
  Si  Si13  1  0.62597475  0.95917391  0.41636182  1
  Si  Si14  1  0.03991962  0.66579263  0.41601712  1
  Sn  Sn0  1  0.66769985  0.33810700  0.18467533  1
  Sn  Sn1  1  0.66678771  0.33003726  0.98130426  1
  Sn  Sn2  1  0.33286997  0.66370301  0.01868357  1
  Sn  Sn3  1  0.33344465  0.66901811  0.51816546  1
  Sn  Sn4  1  0.32980774  0.66719334  0.31459068  1
  Sn  Sn5  1  0.33142338  0.66946408  0.81563627  1
  P  P0  1  0.66573972  0.04070523  0.08345417  1
  P  P1  1  0.62333492  0.66722949  0.91726563  1
  P  P2  1  0.33203658  0.37507043  0.41691648  1
  O  O0  1  0.21058214  0.03648061  0.30793421  1
  O  O1  1  0.82534654  0.79040760  0.30914871  1
  O  O2  1  0.96434144  0.16794018  0.30468439  1
  O  O3  1  0.20694128  0.17342041  0.80849941  1
  O  O4  1  0.96705119  0.79296880  0.80881464  1
  O  O5  1  0.83217077  0.03326538  0.80563730  1
  O  O6  1  0.78804769  0.96375157  0.69137202  1
  O  O7  1  0.17337746  0.21047627  0.69297224  1
  O  O8  1  0.03414991  0.82666893  0.69305043  1
  O  O9  1  0.79514773  0.83275357  0.19514049  1
  O  O10  1  0.03423857  0.21008398  0.18998434  1
  O  O11  1  0.17345626  0.96735644  0.19254727  1
  O  O12  1  0.87984682  0.37102077  0.64197153  1
  O  O13  1  0.49379179  0.12652306  0.64027322  1
  O  O14  1  0.63142213  0.50691746  0.64054222  1
  O  O15  1  0.88031323  0.50365585  0.14057692  1
  O  O16  1  0.62881411  0.11549838  0.13978711  1
  O  O17  1  0.48715544  0.36409529  0.14273962  1
  O  O18  1  0.45643962  0.29448261  0.02468372  1
  O  O19  1  0.84448281  0.54076059  0.02285865  1
  O  O20  1  0.70325739  0.15821474  0.02955997  1
  O  O21  1  0.45911032  0.16025845  0.52451846  1
  O  O22  1  0.69767750  0.53876562  0.52463289  1
  O  O23  1  0.83596705  0.29855282  0.52799280  1
  O  O24  1  0.54192917  0.69734156  0.97144838  1
  O  O25  1  0.16048174  0.45330787  0.97536019  1
  O  O26  1  0.30079506  0.84112332  0.97599907  1
  O  O27  1  0.54611761  0.83750102  0.47508114  1
  O  O28  1  0.30303318  0.45369170  0.47309059  1
  O  O29  1  0.15976290  0.70413795  0.47477531  1
  O  O30  1  0.12065669  0.63230177  0.35658739  1
  O  O31  1  0.50605121  0.87554623  0.35774497  1
  O  O32  1  0.36669671  0.48813554  0.36140019  1
  O  O33  1  0.12024253  0.49273834  0.85846042  1
  O  O34  1  0.36934570  0.88035077  0.85762260  1
  O  O35  1  0.51311954  0.63186141  0.86070910  1
  O  O36  1  0.02823511  0.84026084  0.41145033  1
  O  O37  1  0.81084439  0.97210218  0.41126247  1
  O  O38  1  0.17729675  0.19581367  0.41099109  1
  O  O39  1  0.02595221  0.18853335  0.91184196  1
  O  O40  1  0.16322239  0.97355796  0.91255272  1
  O  O41  1  0.80373895  0.82062820  0.91138804  1
  O  O42  1  0.98042999  0.16546358  0.58862796  1
  O  O43  1  0.18594317  0.02104807  0.58854080  1
  O  O44  1  0.83399408  0.81346146  0.58826294  1
  O  O45  1  0.98416439  0.81615532  0.08780862  1
  O  O46  1  0.82707885  0.02799697  0.08977017  1
  O  O47  1  0.18607700  0.16772667  0.08803318  1
  O  O48  1  0.68593585  0.16643989  0.74472514  1
  O  O49  1  0.48055525  0.31246007  0.74496155  1
  O  O50  1  0.83132280  0.51943295  0.74509317  1
  O  O51  1  0.69016290  0.51933492  0.24563012  1
  O  O52  1  0.82823061  0.30969031  0.24380106  1
  O  O53  1  0.48426267  0.16993462  0.24384175  1
  O  O54  1  0.63830960  0.50405811  0.92196489  1
  O  O55  1  0.85464084  0.36638119  0.92226699  1
  O  O56  1  0.49998855  0.15527927  0.92174787  1
  O  O57  1  0.63178628  0.14063951  0.42163933  1
  O  O58  1  0.49359966  0.35957026  0.42204186  1
  O  O59  1  0.84711472  0.50466213  0.42086802  1
  O  O60  1  0.35331067  0.50476000  0.07822362  1
  O  O61  1  0.14980055  0.64625689  0.07850425  1
  O  O62  1  0.50291586  0.86606052  0.07666648  1
  O  O63  1  0.35711838  0.85227089  0.57867072  1
  O  O64  1  0.49233397  0.64049145  0.57772437  1
  O  O65  1  0.15023516  0.50378046  0.57715712  1
  O  O66  1  0.31146349  0.82959844  0.25366968  1
  O  O67  1  0.51612364  0.68484069  0.25646784  1
  O  O68  1  0.17159542  0.47990894  0.25500531  1
  O  O69  1  0.31282384  0.48344461  0.75704974  1
  O  O70  1  0.17178779  0.69004107  0.75453739  1
  O  O71  1  0.51889000  0.82586766  0.75600365  1
loop_
_geom_bond_atom_site_label_1
_geom_bond_atom_site_label_2
_geom_bond_distance
_geom_bond_site_symmetry_2
Na0 O52 2.477888 1_565
Na0 O67 2.515709 1_555
Na0 O53 2.546281 1_565
Na0 O66 2.557427 1_555
Na0 O31 2.674372 1_555
Na0 O16 2.747995 1_565
Na0 O2 2.867206 1_565
Na0 O9 2.877329 1_555
Na1 O68 2.471830 1_555
Na1 O53 2.504714 1_555
Na1 O67 2.541237 1_555
Na1 O51 2.567421 1_555
Na1 O17 2.632578 1_555
Na1 O32 2.801809 1_555
Na1 O0 2.923586 1_555
Na1 O10 2.927150 1_555
Na2 O51 2.479757 1_455
Na2 O66 2.482015 1_555
Na2 O52 2.567637 1_455
Na2 O68 2.572137 1_555
Na2 O30 2.646612 1_555
Na2 O15 2.741263 1_455
Na2 O1 2.939551 1_455
Na2 O11 2.942168 1_555
Na3 O71 2.460839 1_555
Na3 O50 2.487565 1_555
Na3 O49 2.548333 1_555
Na3 O69 2.552904 1_555
Na3 O14 2.717290 1_555
Na3 O35 2.753643 1_555
Na3 O6 2.912812 1_555
Na3 O4 2.947696 1_555
Na4 O69 2.501610 1_655
Na4 O48 2.509063 1_555
Na4 O50 2.548534 1_555
Na4 O70 2.565344 1_655
Na4 O33 2.693731 1_655
Na4 O12 2.703873 1_555
Na4 O5 2.906450 1_555
Na4 O7 2.909869 1_655
Na5 O70 2.477391 1_545
Na5 O49 2.499528 1_555
Na5 O48 2.529465 1_555
Na5 O71 2.591963 1_545
Na5 O34 2.661034 1_545
Na5 O13 2.758176 1_555
Na5 O8 2.930383 1_545
Na5 O3 2.931579 1_555
Na6 O64 2.458808 1_555
Na6 O43 2.490734 1_555
Na6 O42 2.538827 1_455
Na6 O65 2.557461 1_555
Na6 O7 2.721629 1_555
Na6 O28 2.739252 1_555
Na6 O14 2.904323 1_555
Na6 O21 2.931075 1_555
Na7 O44 2.499997 1_455
Na7 O65 2.508862 1_555
Na7 O43 2.541622 1_565
Na7 O63 2.563560 1_555
Na7 O29 2.699182 1_555
Na7 O8 2.748819 1_555
Na7 O12 2.924117 1_455
Na7 O22 2.956931 1_455
Na8 O63 2.474225 1_555
Na8 O42 2.505520 1_565
Na8 O44 2.539646 1_555
Na8 O64 2.587294 1_555
Na8 O6 2.698116 1_555
Na8 O27 2.703418 1_555
Na8 O23 2.898173 1_565
Na8 O13 2.928200 1_565
Na9 O45 2.461486 1_455
Na9 O62 2.485973 1_555
Na9 O47 2.491350 1_565
Na9 O61 2.539154 1_555
Na9 O26 2.667311 1_554
Na9 O11 2.745477 1_555
Na9 O18 2.890793 1_565
Na9 O16 2.947062 1_565
Na10 O61 2.476602 1_555
Na10 O60 2.495635 1_555
Na10 O46 2.497535 1_455
Na10 O47 2.515325 1_555
Na10 O10 2.656010 1_555
Na10 O25 2.693382 1_554
Na10 O15 2.860390 1_455
Na10 O20 2.918555 1_455
Na11 O55 2.409526 1_555
Na11 O40 2.440083 1_655
Na11 O41 2.529919 1_555
Na11 O54 2.627191 1_555
Na11 O19 2.655432 1_556
Na11 O4 2.715309 1_555
Na11 O33 2.894282 1_655
Na11 O26 2.925917 1_655
Na12 O39 2.443820 1_555
Na12 O56 2.455456 1_555
Na12 O54 2.478998 1_555
Na12 O40 2.552206 1_545
Na12 O18 2.670072 1_556
Na12 O3 2.734450 1_555
Na12 O25 2.890227 1_555
Na12 O35 2.959696 1_555
Na13 O57 2.398630 1_555
Na13 O36 2.420100 1_545
Na13 O38 2.540080 1_555
Na13 O58 2.613952 1_555
Na13 O0 2.714781 1_555
Na13 O21 2.714793 1_555
Na13 O29 2.885092 1_545
Na13 O31 2.917177 1_545
Na14 O59 2.434161 1_555
Na14 O37 2.437937 1_555
Na14 O58 2.492729 1_555
Na14 O36 2.569605 1_655
Na14 O22 2.679013 1_555
Na14 O1 2.703199 1_555
Na14 O27 2.883731 1_555
Na14 O32 2.953555 1_555
Na15 O37 2.543826 1_545
Na15 O42 2.551719 1_555
Na15 O44 2.580658 1_545
Na15 O36 2.589233 1_645
Na15 O43 2.609003 1_655
Na15 O38 2.628670 1_655
Na16 O45 2.552992 1_555
Na16 O39 2.578085 1_664
Na16 O40 2.596082 1_654
Na16 O41 2.606991 1_554
Na16 O47 2.607872 1_665
Na16 O46 2.624384 1_565
Na17 O56 2.501473 1_555
Na17 O55 2.524304 1_555
Na17 O48 2.532113 1_555
Na17 O50 2.612957 1_555
Na17 O49 2.618995 1_555
Na17 O54 2.684525 1_555
Na18 O59 2.516039 1_555
Na18 O52 2.521266 1_555
Na18 O57 2.542695 1_555
Na18 O51 2.590918 1_555
Na18 O53 2.617395 1_555
Na18 O58 2.698935 1_555
Na19 O60 2.504401 1_555
Na19 O67 2.564150 1_555
Na19 O68 2.573934 1_555
Na19 O61 2.575240 1_555
Na19 O66 2.583327 1_555
Na19 O62 2.640233 1_555
Na20 O70 2.543466 1_555
Na20 O63 2.551780 1_555
Na20 O64 2.563333 1_555
Na20 O71 2.568429 1_555
Na20 O65 2.580098 1_555
Na20 O69 2.591683 1_555
Hf0 O2 1.999083 1_555
Hf0 O1 2.019813 1_545
Hf0 O0 2.065330 1_655
Hf0 O37 2.070972 1_545
Hf0 O36 2.117875 1_645
Hf0 O38 2.175339 1_655
Hf1 O5 1.993686 1_555
Hf1 O3 2.015218 1_655
Hf1 O4 2.050721 1_545
Hf1 O39 2.071392 1_655
Hf1 O40 2.129665 1_645
Hf1 O41 2.172639 1_545
Hf2 O8 2.025417 1_655
Hf2 O6 2.031156 1_555
Hf2 O7 2.043683 1_665
Hf2 O42 2.106054 1_565
Hf2 O43 2.106615 1_665
Hf2 O44 2.114982 1_555
Hf3 O9 2.007624 1_555
Hf3 O11 2.014447 1_655
Hf3 O10 2.057725 1_665
Hf3 O45 2.077236 1_555
Hf3 O47 2.126991 1_665
Hf3 O46 2.173218 1_565
Hf4 O13 2.027696 1_555
Hf4 O14 2.032656 1_555
Hf4 O12 2.039107 1_555
Hf4 O50 2.106106 1_555
Hf4 O49 2.107361 1_555
Hf4 O48 2.111588 1_555
Hf5 O23 1.966540 1_555
Hf5 O22 2.051055 1_555
Hf5 O21 2.054195 1_555
Hf5 O59 2.071864 1_555
Hf5 O57 2.074969 1_555
Hf5 O58 2.228526 1_555
O0 Si0 1.632674 1_555
O1 Si1 1.637092 1_555
O2 Si2 1.627634 1_555
O3 Si3 1.634051 1_555
O4 Si4 1.630432 1_655
O5 Si5 1.623732 1_545
O6 Si5 1.640148 1_555
O7 Si3 1.639198 1_555
O8 Si4 1.639812 1_555
O9 Si1 1.626041 1_555
O10 Si2 1.632867 1_455
O11 Si0 1.637347 1_565
O12 Si6 1.637312 1_555
O13 Si7 1.639604 1_555
O14 Si8 1.640619 1_555
O15 Si9 1.649060 1_555
O15 Sn0 2.024321 1_555
O16 P0 1.561211 1_555
O16 Sn0 2.137668 1_555
O17 Si10 1.638130 1_555
O17 Sn0 2.016001 1_555
O18 Si10 1.642743 1_555
O18 Sn1 2.029629 1_554
O19 Si9 1.631471 1_555
O19 Sn1 2.023532 1_554
O20 P0 1.545550 1_555
O20 Sn1 2.070883 1_554
O21 Si7 1.630622 1_555
O22 Si8 1.629342 1_555
O23 Si6 1.627584 1_555
O24 P1 1.527974 1_555
O24 Sn2 2.068682 1_556
O25 Si11 1.640274 1_555
O25 Sn2 2.025792 1_556
O26 Si12 1.640997 1_555
O26 Sn2 2.029351 1_556
O27 Si13 1.649029 1_555
O27 Sn3 2.020785 1_555
O28 P2 1.547221 1_555
O28 Sn3 2.106930 1_555
O29 Si14 1.646118 1_555
O29 Sn3 2.022296 1_555
O30 Si14 1.634126 1_555
O30 Sn4 2.007117 1_555
O31 Si13 1.646291 1_555
O31 Sn4 2.024658 1_555
O32 P2 1.555046 1_555
O32 Sn4 2.111954 1_555
O33 Si11 1.650828 1_555
O33 Sn5 2.032860 1_555
O34 Si12 1.637550 1_555
O34 Sn5 2.016280 1_555
O35 P1 1.560323 1_555
O35 Sn5 2.116447 1_555
O36 Si14 1.651841 1_555
O37 Si13 1.633498 1_555
O38 P2 1.540786 1_555
O39 Si11 1.633057 1_555
O40 Si12 1.654653 1_555
O41 P1 1.541360 1_555
O42 Si6 1.631575 1_555
O43 Si7 1.637043 1_555
O44 Si8 1.638065 1_555
O45 Si9 1.634742 1_555
O46 P0 1.539251 1_555
O47 Si10 1.654852 1_555
O48 Si5 1.635357 1_545
O49 Si3 1.634598 1_555
O50 Si4 1.636011 1_655
O51 Si1 1.644983 1_555
O51 Sn0 2.085221 1_555
O52 Si2 1.648895 1_555
O52 Sn0 2.095151 1_555
O53 Si0 1.646813 1_555
O53 Sn0 2.090500 1_555
O54 P1 1.566019 1_555
O54 Sn1 2.193450 1_555
O55 Si11 1.647166 1_655
O55 Sn1 2.062879 1_555
O56 Si12 1.647948 1_545
O56 Sn1 2.062727 1_555
O57 Si13 1.635063 1_545
O58 P2 1.553256 1_555
O59 Si14 1.635448 1_655
O60 Si10 1.645067 1_555
O60 Sn2 2.056668 1_555
O61 Si9 1.666551 1_455
O61 Sn2 2.091461 1_555
O62 P0 1.548853 1_565
O62 Sn2 2.163251 1_555
O63 Si7 1.647263 1_565
O63 Sn3 2.089025 1_555
O64 Si8 1.647320 1_555
O64 Sn3 2.090581 1_555
O65 Si6 1.642327 1_455
O65 Sn3 2.078266 1_555
O66 Si0 1.646006 1_565
O66 Sn4 2.092512 1_555
O67 Si1 1.646032 1_555
O67 Sn4 2.089007 1_555
O68 Si2 1.648642 1_455
O68 Sn4 2.088584 1_555
O69 Si3 1.645385 1_555
O69 Sn5 2.094535 1_555
O70 Si4 1.645777 1_555
O70 Sn5 2.085498 1_555
O71 Si5 1.645616 1_555
O71 Sn5 2.081306 1_555
