# generated using pymatgen
data_Na10NbGa7Si6(SO8)6
_symmetry_space_group_name_H-M   'P 1'
_cell_length_a   17.56095219
_cell_length_b   8.82520155
_cell_length_c   22.07850597
_cell_angle_alpha   89.72679958
_cell_angle_beta   89.14766830
_cell_angle_gamma   119.87520338
_symmetry_Int_Tables_number   1
_chemical_formula_structural   Na10NbGa7Si6(SO8)6
_chemical_formula_sum   'Na30 Nb3 Ga21 Si18 S18 O144'
_cell_volume   2966.38061905
_cell_formula_units_Z   3
loop_
 _symmetry_equiv_pos_site_id
 _symmetry_equiv_pos_as_xyz
  1  'x, y, z'
loop_
 _atom_site_type_symbol
 _atom_site_label
 _atom_site_symmetry_multiplicity
 _atom_site_fract_x
 _atom_site_fract_y
 _atom_site_fract_z
 _atom_site_occupancy
  Na  Na0  1  0.31805247  0.00061273  0.24984254  1
  Na  Na1  1  0.81854069  0.00110029  0.25153363  1
  Na  Na2  1  0.18371869  0.36544914  0.25087236  1
  Na  Na3  1  0.68469785  0.37038978  0.24423324  1
  Na  Na4  1  0.99791176  0.63114246  0.24823483  1
  Na  Na5  1  0.49743701  0.62290224  0.25233399  1
  Na  Na6  1  0.31532226  0.62896696  0.74994165  1
  Na  Na7  1  0.80979954  0.62146084  0.74977434  1
  Na  Na8  1  0.99712035  0.35731287  0.74972609  1
  Na  Na9  1  0.68267134  0.00493955  0.75390379  1
  Na  Na10  1  0.15975442  0.34611612  0.58079915  1
  Na  Na11  1  0.01413134  0.69568808  0.58085367  1
  Na  Na12  1  0.33310592  0.96625454  0.58493448  1
  Na  Na13  1  0.82983946  0.96520859  0.57867712  1
  Na  Na14  1  0.83303283  0.69141320  0.07735490  1
  Na  Na15  1  0.16877728  0.30370844  0.91257080  1
  Na  Na16  1  0.66988528  0.30504642  0.91640548  1
  Na  Na17  1  0.35434684  0.66563594  0.41749703  1
  Na  Na18  1  0.99882374  0.99636018  0.49258358  1
  Na  Na19  1  0.50875996  0.99665415  0.49882048  1
  Na  Na20  1  0.99437172  0.98473148  0.99545727  1
  Na  Na21  1  0.49505990  0.97961356  0.99693128  1
  Na  Na22  1  0.33564802  0.32976876  0.83376043  1
  Na  Na23  1  0.83179055  0.33158916  0.83631944  1
  Na  Na24  1  0.33796045  0.33172253  0.33514703  1
  Na  Na25  1  0.83661852  0.33808613  0.33496561  1
  Na  Na26  1  0.16272320  0.66449259  0.16368690  1
  Na  Na27  1  0.65688116  0.65060970  0.16128257  1
  Na  Na28  1  0.16892236  0.67341632  0.66557984  1
  Na  Na29  1  0.65875643  0.63990201  0.66714820  1
  Nb  Nb0  1  0.99840275  0.00681415  0.64424125  1
  Nb  Nb1  1  0.00085991  0.99379676  0.14891746  1
  Nb  Nb2  1  0.49592561  0.00135192  0.14130092  1
  Ga  Ga0  1  0.99752861  0.00023596  0.34248358  1
  Ga  Ga1  1  0.49659214  0.98416136  0.35123213  1
  Ga  Ga2  1  0.99115764  0.00119008  0.85075481  1
  Ga  Ga3  1  0.49776868  0.99145738  0.85212383  1
  Ga  Ga4  1  0.50216153  0.00218161  0.64879601  1
  Ga  Ga5  1  0.31840535  0.32140575  0.68138268  1
  Ga  Ga6  1  0.82607910  0.33157620  0.68340889  1
  Ga  Ga7  1  0.34299256  0.34447238  0.19042193  1
  Ga  Ga8  1  0.84452624  0.36236755  0.18142195  1
  Ga  Ga9  1  0.34294718  0.36802133  0.98133950  1
  Ga  Ga10  1  0.83486810  0.36462856  0.98428574  1
  Ga  Ga11  1  0.34289963  0.35798020  0.48597241  1
  Ga  Ga12  1  0.83779788  0.34220497  0.48491420  1
  Ga  Ga13  1  0.17010964  0.67560316  0.01647873  1
  Ga  Ga14  1  0.66572577  0.65524559  0.02083293  1
  Ga  Ga15  1  0.16869413  0.66756132  0.52353342  1
  Ga  Ga16  1  0.66341557  0.65934035  0.51480469  1
  Ga  Ga17  1  0.16294038  0.66308427  0.30930960  1
  Ga  Ga18  1  0.65945861  0.64365286  0.31660931  1
  Ga  Ga19  1  0.17115306  0.65904393  0.81929524  1
  Ga  Ga20  1  0.67181902  0.65288717  0.81423049  1
  Si  Si0  1  0.14842532  0.00497288  0.25344501  1
  Si  Si1  1  0.35308217  0.70583084  0.25345675  1
  Si  Si2  1  0.85057854  0.70348260  0.25553831  1
  Si  Si3  1  0.99590898  0.29003964  0.25122813  1
  Si  Si4  1  0.50100738  0.28489183  0.25455087  1
  Si  Si5  1  0.14684320  0.28958222  0.75525753  1
  Si  Si6  1  0.63862001  0.28333799  0.75011325  1
  Si  Si7  1  0.84966268  0.00283935  0.75205787  1
  Si  Si8  1  0.97443145  0.33944416  0.58218139  1
  Si  Si9  1  0.19474340  0.04912133  0.57954943  1
  Si  Si10  1  0.34073451  0.63720773  0.58454027  1
  Si  Si11  1  0.82475524  0.61330027  0.58217494  1
  Si  Si12  1  0.48172046  0.61777928  0.08347190  1
  Si  Si13  1  0.98755269  0.62638797  0.08091819  1
  Si  Si14  1  0.69127865  0.33438781  0.08285675  1
  Si  Si15  1  0.31546688  0.67272434  0.91675693  1
  Si  Si16  1  0.81600535  0.67381453  0.91694517  1
  Si  Si17  1  0.52312910  0.66863538  0.41732733  1
  S  S0  1  0.64527996  0.00014877  0.24989122  1
  S  S1  1  0.00361331  0.71290336  0.75250304  1
  S  S2  1  0.49927375  0.70412397  0.75002833  1
  S  S3  1  0.35366825  0.00513861  0.75061559  1
  S  S4  1  0.47899490  0.33661609  0.58495708  1
  S  S5  1  0.68545476  0.04126468  0.58227572  1
  S  S6  1  0.32983134  0.04755436  0.08162681  1
  S  S7  1  0.83367189  0.05128637  0.08259893  1
  S  S8  1  0.18958206  0.33592996  0.08235645  1
  S  S9  1  0.01863301  0.37673287  0.91754790  1
  S  S10  1  0.51973090  0.37627950  0.91582786  1
  S  S11  1  0.16752750  0.95595957  0.91612176  1
  S  S12  1  0.66748973  0.95326319  0.91572464  1
  S  S13  1  0.31020061  0.95877742  0.41671508  1
  S  S14  1  0.81456129  0.96403688  0.41652936  1
  S  S15  1  0.16320638  0.37308198  0.41656384  1
  S  S16  1  0.66891127  0.36992240  0.41774451  1
  S  S17  1  0.02082581  0.66719387  0.41718384  1
  O  O0  1  0.10642404  0.05456079  0.30993388  1
  O  O1  1  0.60738538  0.03428105  0.30460538  1
  O  O2  1  0.41421707  0.78126519  0.31194616  1
  O  O3  1  0.91974851  0.78869340  0.30924670  1
  O  O4  1  0.48503995  0.15825630  0.31193415  1
  O  O5  1  0.97331167  0.16222726  0.30914045  1
  O  O6  1  0.10011426  0.17082030  0.81460430  1
  O  O7  1  0.59786952  0.15691222  0.81098487  1
  O  O8  1  0.47838409  0.78032974  0.80337329  1
  O  O9  1  0.98814647  0.79577477  0.80420344  1
  O  O10  1  0.40692633  0.02463855  0.80357023  1
  O  O11  1  0.91760458  0.04841574  0.80578921  1
  O  O12  1  0.38943348  0.96558936  0.69455409  1
  O  O13  1  0.89650471  0.96284212  0.69180229  1
  O  O14  1  0.08406919  0.19500214  0.69468401  1
  O  O15  1  0.58058771  0.18863186  0.69132385  1
  O  O16  1  0.01592787  0.81333769  0.69471578  1
  O  O17  1  0.51555919  0.81545249  0.69518665  1
  O  O18  1  0.40037804  0.84024591  0.19566362  1
  O  O19  1  0.89560211  0.82996659  0.19311275  1
  O  O20  1  0.01739762  0.19775392  0.19292350  1
  O  O21  1  0.51860298  0.19587613  0.19420373  1
  O  O22  1  0.08115177  0.96132950  0.19469416  1
  O  O23  1  0.58913458  0.96819101  0.19658259  1
  O  O24  1  0.43787184  0.36234470  0.63945264  1
  O  O25  1  0.93436581  0.37457752  0.64338689  1
  O  O26  1  0.25356929  0.11830538  0.63968058  1
  O  O27  1  0.73964040  0.11533833  0.63746006  1
  O  O28  1  0.31630029  0.51001655  0.64426412  1
  O  O29  1  0.81322965  0.51064426  0.64554869  1
  O  O30  1  0.44015072  0.50542125  0.14568461  1
  O  O31  1  0.94983152  0.52569125  0.14555984  1
  O  O32  1  0.31940371  0.12139221  0.13878249  1
  O  O33  1  0.82300452  0.12727942  0.13979574  1
  O  O34  1  0.23929900  0.35334681  0.13719370  1
  O  O35  1  0.74989155  0.36464819  0.14327612  1
  O  O36  1  0.22760296  0.30370929  0.02659062  1
  O  O37  1  0.72718131  0.29116349  0.02142294  1
  O  O38  1  0.42062359  0.54373653  0.02555179  1
  O  O39  1  0.91994005  0.54535065  0.02654345  1
  O  O40  1  0.34219535  0.15499163  0.02776837  1
  O  O41  1  0.84751535  0.15820109  0.02901056  1
  O  O42  1  0.23787714  0.18327981  0.52305786  1
  O  O43  1  0.72707659  0.15082927  0.52795792  1
  O  O44  1  0.35558869  0.55856914  0.52261704  1
  O  O45  1  0.85302972  0.53720248  0.52514205  1
  O  O46  1  0.42396694  0.30143769  0.53033186  1
  O  O47  1  0.91011012  0.28011107  0.52530688  1
  O  O48  1  0.26596152  0.69861685  0.97480736  1
  O  O49  1  0.76920895  0.69953912  0.97766285  1
  O  O50  1  0.07684225  0.46340133  0.96891775  1
  O  O51  1  0.57375510  0.45347424  0.96981738  1
  O  O52  1  0.15200549  0.84801692  0.97101646  1
  O  O53  1  0.65371733  0.84358318  0.96956731  1
  O  O54  1  0.26789461  0.84358720  0.47138442  1
  O  O55  1  0.77414117  0.85873960  0.47301411  1
  O  O56  1  0.15317072  0.45675665  0.47259008  1
  O  O57  1  0.65630972  0.45538292  0.47102414  1
  O  O58  1  0.07217961  0.68578936  0.47219222  1
  O  O59  1  0.58379423  0.69660531  0.47548276  1
  O  O60  1  0.06314020  0.64499685  0.36170823  1
  O  O61  1  0.56557562  0.64133280  0.35459929  1
  O  O62  1  0.25870224  0.87625169  0.36173386  1
  O  O63  1  0.76232336  0.88050399  0.36239621  1
  O  O64  1  0.17695618  0.48562487  0.36194729  1
  O  O65  1  0.68615762  0.47749690  0.36113200  1
  O  O66  1  0.05689936  0.48191023  0.85986802  1
  O  O67  1  0.55850595  0.48676443  0.86119532  1
  O  O68  1  0.17871737  0.87129813  0.86094890  1
  O  O69  1  0.67485559  0.87127922  0.85863411  1
  O  O70  1  0.25507305  0.62719751  0.85556158  1
  O  O71  1  0.75422198  0.62896428  0.85723993  1
  O  O72  1  0.01229421  0.82533958  0.41323370  1
  O  O73  1  0.50907447  0.84195170  0.41244664  1
  O  O74  1  0.39770023  0.97058394  0.41406542  1
  O  O75  1  0.90337122  0.98078503  0.41275206  1
  O  O76  1  0.08373391  0.19982645  0.41317143  1
  O  O77  1  0.58982641  0.19803841  0.41263803  1
  O  O78  1  0.01644838  0.20538869  0.91336708  1
  O  O79  1  0.51453921  0.20280601  0.90996628  1
  O  O80  1  0.09049644  0.98178880  0.91225261  1
  O  O81  1  0.58909817  0.98025289  0.91343593  1
  O  O82  1  0.41263936  0.84651021  0.90874501  1
  O  O83  1  0.91432305  0.84659066  0.91000472  1
  O  O84  1  0.48646171  0.17554539  0.58954828  1
  O  O85  1  0.98837982  0.16566897  0.58911293  1
  O  O86  1  0.09518467  0.02543955  0.58968454  1
  O  O87  1  0.59780880  0.02283889  0.58848074  1
  O  O88  1  0.42296961  0.83696070  0.59347088  1
  O  O89  1  0.91686399  0.81176220  0.59019420  1
  O  O90  1  0.48856516  0.81291069  0.09349561  1
  O  O91  1  0.99066062  0.82128615  0.08805093  1
  O  O92  1  0.41202267  0.03123589  0.08456333  1
  O  O93  1  0.91369168  0.02708290  0.08666419  1
  O  O94  1  0.09958770  0.17619269  0.08701668  1
  O  O95  1  0.59207646  0.16226085  0.09035693  1
  O  O96  1  0.34784510  0.16487562  0.74432081  1
  O  O97  1  0.84274930  0.17756988  0.74123471  1
  O  O98  1  0.24576520  0.31884625  0.74750059  1
  O  O99  1  0.73888808  0.30747866  0.74510615  1
  O  O100  1  0.42171624  0.52816180  0.74364676  1
  O  O101  1  0.92464664  0.53662313  0.74824913  1
  O  O102  1  0.34045248  0.51275826  0.24463244  1
  O  O103  1  0.83834182  0.51041486  0.24655985  1
  O  O104  1  0.41319526  0.30062577  0.24794924  1
  O  O105  1  0.90762945  0.30367498  0.24230878  1
  O  O106  1  0.24298489  0.17242436  0.23893743  1
  O  O107  1  0.73351570  0.15507766  0.24260207  1
  O  O108  1  0.31801612  0.48642824  0.92120951  1
  O  O109  1  0.82129472  0.49080111  0.92000726  1
  O  O110  1  0.42912635  0.34790783  0.92212529  1
  O  O111  1  0.93019818  0.34989577  0.92371960  1
  O  O112  1  0.24742914  0.13107491  0.92065714  1
  O  O113  1  0.74696164  0.12813791  0.91852183  1
  O  O114  1  0.31884042  0.13176131  0.42276465  1
  O  O115  1  0.82109076  0.13920802  0.42092330  1
  O  O116  1  0.24418702  0.36094176  0.41886417  1
  O  O117  1  0.74874227  0.35096169  0.42327559  1
  O  O118  1  0.42257405  0.49186949  0.42208953  1
  O  O119  1  0.93257044  0.50515328  0.42042782  1
  O  O120  1  0.17936284  0.49111165  0.07696502  1
  O  O121  1  0.68351420  0.51069993  0.07890561  1
  O  O122  1  0.08485394  0.65131090  0.07288499  1
  O  O123  1  0.58066993  0.65225278  0.07439462  1
  O  O124  1  0.25431417  0.86900554  0.07813382  1
  O  O125  1  0.75705760  0.87168671  0.07998467  1
  O  O126  1  0.17592473  0.85013941  0.57328353  1
  O  O127  1  0.67866729  0.86700771  0.57750967  1
  O  O128  1  0.25071387  0.65275135  0.57742279  1
  O  O129  1  0.74444947  0.65518369  0.57283332  1
  O  O130  1  0.07375965  0.50355061  0.57504469  1
  O  O131  1  0.56736350  0.49162836  0.57780210  1
  O  O132  1  0.15406302  0.82800629  0.25805570  1
  O  O133  1  0.65490072  0.84339194  0.25493700  1
  O  O134  1  0.25719332  0.69129587  0.25842914  1
  O  O135  1  0.75679886  0.69834566  0.26160808  1
  O  O136  1  0.08332047  0.48084889  0.25670652  1
  O  O137  1  0.58788232  0.48027370  0.25559328  1
  O  O138  1  0.15226855  0.48433509  0.75589614  1
  O  O139  1  0.65119291  0.47920849  0.75523127  1
  O  O140  1  0.08253222  0.69282340  0.75723631  1
  O  O141  1  0.58017662  0.69601680  0.75767716  1
  O  O142  1  0.26382478  0.84524849  0.75677960  1
  O  O143  1  0.75329217  0.82927379  0.75594628  1
loop_
_geom_bond_atom_site_label_1
_geom_bond_atom_site_label_2
_geom_bond_distance
_geom_bond_site_symmetry_2
Na0 O104 2.322355 1_555
Na0 O134 2.390080 1_545
Na0 O106 2.468220 1_555
Na0 O132 2.501641 1_545
Na0 O32 2.664087 1_555
Na0 O62 2.674254 1_545
Na0 O18 2.743538 1_545
Na0 O4 2.913356 1_555
Na1 O105 2.333022 1_555
Na1 O135 2.337752 1_545
Na1 O107 2.478380 1_555
Na1 O133 2.491757 1_545
Na1 O63 2.637234 1_545
Na1 O33 2.685769 1_555
Na1 O5 2.701232 1_555
Na1 O19 2.789047 1_545
Na2 O102 2.388945 1_555
Na2 O106 2.411816 1_555
Na2 O136 2.438351 1_555
Na2 O134 2.505329 1_555
Na2 O0 2.696962 1_555
Na2 O64 2.700860 1_555
Na2 O34 2.701290 1_555
Na2 O20 2.860240 1_555
Na3 O103 2.343660 1_555
Na3 O137 2.350756 1_555
Na3 O107 2.443251 1_555
Na3 O35 2.502916 1_555
Na3 O135 2.549786 1_555
Na3 O65 2.748915 1_555
Na3 O21 2.781461 1_555
Na3 O1 2.883568 1_555
Na4 O132 2.420753 1_655
Na4 O31 2.451962 1_555
Na4 O103 2.453162 1_555
Na4 O136 2.455944 1_655
Na4 O105 2.515522 1_555
Na4 O3 2.737894 1_555
Na4 O60 2.748177 1_655
Na4 O22 2.774456 1_655
Na5 O102 2.433028 1_555
Na5 O133 2.466064 1_555
Na5 O104 2.470291 1_555
Na5 O137 2.471136 1_555
Na5 O61 2.538937 1_555
Na5 O30 2.585745 1_555
Na5 O2 2.795766 1_555
Na5 O23 2.900120 1_555
Na6 O98 2.378731 1_555
Na6 O100 2.439453 1_555
Na6 O138 2.488292 1_555
Na6 O142 2.490420 1_555
Na6 O70 2.543102 1_555
Na6 O28 2.566370 1_555
Na6 O8 2.771400 1_555
Na6 O12 2.842695 1_555
Na7 O99 2.410082 1_555
Na7 O139 2.419396 1_555
Na7 O101 2.476251 1_555
Na7 O143 2.485599 1_555
Na7 O29 2.516222 1_555
Na7 O71 2.565843 1_555
Na7 O13 2.892853 1_555
Na7 O9 2.991565 1_555
Na8 O97 2.373680 1_555
Na8 O138 2.380794 1_655
Na8 O101 2.476313 1_555
Na8 O140 2.575292 1_655
Na8 O25 2.644001 1_555
Na8 O11 2.652854 1_555
Na8 O66 2.678828 1_655
Na8 O14 2.828501 1_655
Na9 O99 2.346171 1_555
Na9 O141 2.405025 1_545
Na9 O143 2.420701 1_545
Na9 O97 2.451053 1_555
Na9 O69 2.561286 1_545
Na9 O27 2.736460 1_555
Na9 O7 2.748603 1_555
Na9 O17 2.886888 1_545
Na10 O128 2.359742 1_555
Na10 O86 2.474780 1_555
Na10 O130 2.514239 1_555
Na10 O56 2.602495 1_555
Na10 O85 2.614016 1_455
Na10 O42 2.738982 1_555
Na10 O28 2.790277 1_555
Na10 O14 2.823130 1_555
Na11 O89 2.396703 1_455
Na11 O130 2.398981 1_555
Na11 O126 2.466592 1_555
Na11 O86 2.533759 1_565
Na11 O58 2.611575 1_555
Na11 O16 2.719074 1_555
Na11 O45 2.766034 1_455
Na11 O25 2.801724 1_455
Na12 O88 2.372457 1_555
Na12 O84 2.393552 1_565
Na12 O128 2.408165 1_555
Na12 O126 2.437422 1_555
Na12 O12 2.629240 1_555
Na12 O26 2.654228 1_565
Na12 O54 2.764913 1_555
Na12 O46 2.820655 1_565
Na13 O127 2.347242 1_555
Na13 O129 2.381797 1_555
Na13 O85 2.459737 1_565
Na13 O89 2.510775 1_555
Na13 O55 2.540694 1_555
Na13 O47 2.667485 1_565
Na13 O13 2.778492 1_555
Na13 O27 2.827505 1_565
Na14 O121 2.294338 1_555
Na14 O91 2.427576 1_555
Na14 O49 2.501588 1_554
Na14 O125 2.535307 1_555
Na14 O93 2.580386 1_565
Na14 O39 2.678068 1_555
Na14 O19 2.830061 1_555
Na14 O35 2.875478 1_555
Na15 O108 2.304947 1_555
Na15 O78 2.365406 1_555
Na15 O80 2.463910 1_545
Na15 O6 2.490118 1_555
Na15 O112 2.522264 1_555
Na15 O36 2.735281 1_556
Na15 O70 2.762243 1_555
Na15 O50 2.892066 1_555
Na16 O109 2.329940 1_555
Na16 O79 2.415997 1_555
Na16 O81 2.487261 1_545
Na16 O113 2.525504 1_555
Na16 O37 2.567673 1_556
Na16 O7 2.682417 1_555
Na16 O71 2.785811 1_555
Na16 O51 2.848642 1_555
Na17 O73 2.365152 1_555
Na17 O118 2.372776 1_555
Na17 O74 2.404836 1_555
Na17 O116 2.406065 1_555
Na17 O44 2.506182 1_555
Na17 O2 2.532411 1_555
Na18 O76 2.397202 1_665
Na18 O72 2.402443 1_655
Na18 O75 2.407480 1_555
Na18 O89 2.628371 1_555
Na18 O85 2.664598 1_565
Na18 O86 2.684396 1_665
Na19 O73 2.352173 1_555
Na19 O87 2.480715 1_565
Na19 O77 2.484444 1_565
Na19 O88 2.527047 1_555
Na19 O74 2.650274 1_555
Na19 O84 2.698338 1_565
Na20 O83 2.327099 1_555
Na20 O91 2.477584 1_556
Na20 O80 2.485302 1_655
Na20 O78 2.533905 1_665
Na20 O93 2.579139 1_566
Na20 O94 2.718254 1_666
Na21 O82 2.382756 1_555
Na21 O81 2.454694 1_555
Na21 O90 2.553135 1_556
Na21 O92 2.581398 1_566
Na21 O79 2.637531 1_565
Na21 O95 2.675066 1_566
Na22 O98 2.463212 1_555
Na22 O108 2.483795 1_555
Na22 O112 2.515726 1_555
Na22 O110 2.522519 1_555
Na22 O96 2.527505 1_555
Na22 O100 2.559170 1_555
Na23 O109 2.386388 1_555
Na23 O113 2.441456 1_555
Na23 O99 2.553141 1_555
Na23 O111 2.561287 1_555
Na23 O97 2.562727 1_555
Na23 O101 2.578129 1_555
Na24 O104 2.412018 1_555
Na24 O118 2.430781 1_555
Na24 O114 2.515331 1_555
Na24 O102 2.538797 1_555
Na24 O116 2.555720 1_555
Na24 O106 2.658609 1_555
Na25 O103 2.459212 1_555
Na25 O105 2.477816 1_555
Na25 O119 2.493900 1_555
Na25 O115 2.496524 1_555
Na25 O117 2.506625 1_555
Na25 O107 2.696906 1_555
Na26 O122 2.414102 1_555
Na26 O124 2.529333 1_555
Na26 O136 2.533871 1_555
Na26 O120 2.559182 1_555
Na26 O132 2.585428 1_555
Na26 O134 2.626917 1_555
Na27 O123 2.359430 1_555
Na27 O121 2.371205 1_555
Na27 O137 2.478742 1_555
Na27 O125 2.564468 1_555
Na27 O133 2.694758 1_555
Na27 O135 2.747869 1_555
Na28 O128 2.462900 1_555
Na28 O138 2.512170 1_555
Na28 O126 2.524121 1_555
Na28 O140 2.568431 1_555
Na28 O130 2.582200 1_555
Na28 O142 2.596675 1_555
Na29 O139 2.364146 1_555
Na29 O131 2.491184 1_555
Na29 O129 2.514116 1_555
Na29 O141 2.598582 1_555
Na29 O143 2.599393 1_555
Na29 O127 2.701759 1_555
Nb0 O13 1.924506 1_545
Nb0 O85 1.927111 1_555
Nb0 O14 1.959640 1_655
Nb0 O86 2.006337 1_655
Nb0 O89 2.013024 1_545
Nb0 O16 2.183487 1_645
Nb1 O22 1.879840 1_555
Nb1 O19 1.931242 1_455
Nb1 O20 1.942291 1_565
Nb1 O91 1.977583 1_455
Nb1 O94 2.143141 1_565
Nb1 O93 2.196672 1_465
Nb2 O95 1.916310 1_555
Nb2 O90 1.924331 1_545
Nb2 O21 1.954954 1_555
Nb2 O18 1.955668 1_545
Nb2 O92 2.061213 1_555
Nb2 O23 2.188113 1_545
Ga0 O5 1.836171 1_555
Ga0 O3 1.841741 1_545
Ga0 O0 1.856260 1_655
Ga0 O75 2.192897 1_545
Ga0 O76 2.295676 1_655
Ga0 O72 2.297261 1_645
Ga1 O4 1.859459 1_565
Ga1 O2 1.876928 1_555
Ga1 O73 1.927815 1_555
Ga1 O1 2.029688 1_565
Ga1 O74 2.161990 1_555
Ga1 O77 2.256804 1_565
Ga2 O11 1.843420 1_555
Ga2 O83 1.868108 1_545
Ga2 O6 1.904929 1_655
Ga2 O9 2.066248 1_545
Ga2 O78 2.144869 1_655
Ga2 O80 2.298243 1_645
Ga3 O7 1.852008 1_565
Ga3 O82 1.859577 1_555
Ga3 O8 2.035734 1_555
Ga3 O10 2.071978 1_565
Ga3 O81 2.153094 1_555
Ga3 O79 2.164087 1_565
Ga4 O15 1.811498 1_555
Ga4 O88 1.897247 1_545
Ga4 O17 2.048753 1_545
Ga4 O87 2.062503 1_555
Ga4 O12 2.084302 1_545
Ga4 O84 2.130686 1_555
Ga5 O26 1.835928 1_555
Ga5 O28 1.868912 1_555
Ga5 O98 1.916845 1_555
Ga5 O24 2.138420 1_555
Ga5 O96 2.195689 1_555
Ga5 O100 2.304538 1_555
Ga6 O29 1.896125 1_555
Ga6 O25 1.941351 1_555
Ga6 O99 1.963671 1_555
Ga6 O97 1.988438 1_555
Ga6 O27 2.038027 1_555
Ga6 O101 2.301764 1_555
Ga7 O30 1.851055 1_555
Ga7 O102 1.929140 1_555
Ga7 O104 1.949343 1_555
Ga7 O106 1.951697 1_555
Ga7 O32 2.137842 1_555
Ga7 O34 2.215396 1_555
Ga8 O31 1.847803 1_555
Ga8 O35 1.883173 1_555
Ga8 O105 1.978110 1_555
Ga8 O103 1.985387 1_555
Ga8 O33 2.130546 1_555
Ga8 O107 2.305823 1_555
Ga9 O38 1.779051 1_556
Ga9 O108 1.872415 1_555
Ga9 O36 2.052376 1_556
Ga9 O110 2.059616 1_555
Ga9 O40 2.131189 1_556
Ga9 O112 2.362321 1_555
Ga10 O39 1.824285 1_556
Ga10 O37 1.842876 1_556
Ga10 O109 1.889485 1_555
Ga10 O41 2.176161 1_556
Ga10 O111 2.181629 1_555
Ga10 O113 2.394381 1_555
Ga11 O44 1.861187 1_555
Ga11 O42 1.886580 1_555
Ga11 O118 1.903037 1_555
Ga11 O46 1.994848 1_555
Ga11 O114 2.305546 1_555
Ga11 O116 2.306974 1_555
Ga12 O45 1.839819 1_555
Ga12 O47 1.852155 1_555
Ga12 O43 2.048028 1_555
Ga12 O119 2.095386 1_555
Ga12 O117 2.118135 1_555
Ga12 O115 2.191900 1_555
Ga13 O48 1.825547 1_554
Ga13 O122 1.860280 1_555
Ga13 O52 1.975006 1_554
Ga13 O50 2.075231 1_554
Ga13 O124 2.126146 1_555
Ga13 O120 2.170269 1_555
Ga14 O123 1.880964 1_555
Ga14 O49 1.897613 1_554
Ga14 O121 1.939609 1_555
Ga14 O51 2.063039 1_554
Ga14 O53 2.103942 1_554
Ga14 O125 2.227257 1_555
Ga15 O126 1.906850 1_555
Ga15 O130 1.921399 1_555
Ga15 O128 1.935029 1_555
Ga15 O54 2.000232 1_555
Ga15 O56 2.079491 1_555
Ga15 O58 2.123786 1_555
Ga16 O59 1.818902 1_555
Ga16 O129 1.942576 1_555
Ga16 O57 1.996547 1_555
Ga16 O55 2.061848 1_555
Ga16 O131 2.096151 1_555
Ga16 O127 2.212107 1_555
Ga17 O134 1.896050 1_555
Ga17 O132 1.907570 1_555
Ga17 O136 1.927760 1_555
Ga17 O60 2.023520 1_555
Ga17 O64 2.058903 1_555
Ga17 O62 2.152619 1_555
Ga18 O61 1.829518 1_555
Ga18 O137 1.933148 1_555
Ga18 O135 1.933987 1_555
Ga18 O65 2.005295 1_555
Ga18 O63 2.228697 1_555
Ga18 O133 2.255794 1_555
Ga19 O70 1.826894 1_555
Ga19 O138 1.992881 1_555
Ga19 O66 2.019983 1_555
Ga19 O68 2.035781 1_555
Ga19 O142 2.121624 1_555
Ga19 O140 2.215836 1_555
Ga20 O71 1.839466 1_555
Ga20 O139 1.912411 1_555
Ga20 O143 1.957926 1_555
Ga20 O67 2.049880 1_555
Ga20 O69 2.143791 1_555
Ga20 O141 2.226958 1_555
O0 Si0 1.609480 1_555
O1 S0 1.473809 1_555
O2 Si1 1.612704 1_555
O3 Si2 1.608869 1_555
O4 Si4 1.611362 1_555
O5 Si3 1.609311 1_555
O6 Si5 1.608367 1_555
O7 Si6 1.650710 1_555
O8 S2 1.488123 1_555
O9 S1 1.451977 1_655
O10 S3 1.464709 1_555
O11 Si7 1.600383 1_555
O12 S3 1.499237 1_565
O13 Si7 1.682937 1_565
O14 Si5 1.684736 1_555
O15 Si6 1.619580 1_555
O16 S1 1.500083 1_555
O17 S2 1.487149 1_555
O18 Si1 1.642452 1_555
O19 Si2 1.686542 1_555
O20 Si3 1.662686 1_455
O21 Si4 1.651483 1_555
O22 Si0 1.680364 1_565
O23 S0 1.482433 1_565
O24 S4 1.469974 1_555
O25 Si8 1.615642 1_555
O26 Si9 1.619467 1_555
O27 S5 1.496548 1_555
O28 Si10 1.634644 1_555
O29 Si11 1.617497 1_555
O30 Si12 1.624461 1_555
O31 Si13 1.624418 1_555
O32 S6 1.473236 1_555
O33 S7 1.485187 1_555
O34 S8 1.466722 1_555
O35 Si14 1.637270 1_555
O36 S8 1.486808 1_555
O37 Si14 1.613024 1_555
O38 Si12 1.601184 1_555
O39 Si13 1.602227 1_555
O40 S6 1.461715 1_555
O41 S7 1.449657 1_555
O42 Si9 1.611074 1_555
O43 S5 1.471800 1_555
O44 Si10 1.611717 1_555
O45 Si11 1.613941 1_555
O46 S4 1.491346 1_555
O47 Si8 1.608132 1_555
O48 Si15 1.618092 1_555
O49 Si16 1.637057 1_555
O50 S9 1.476528 1_555
O51 S10 1.477351 1_555
O52 S11 1.473492 1_555
O53 S12 1.468276 1_555
O54 S13 1.500497 1_555
O55 S14 1.492692 1_555
O56 S15 1.496110 1_555
O57 S16 1.472600 1_555
O58 S17 1.484008 1_555
O59 Si17 1.620566 1_555
O60 S17 1.486926 1_555
O61 Si17 1.638029 1_555
O62 S13 1.485525 1_555
O63 S14 1.476735 1_555
O64 S15 1.496615 1_555
O65 S16 1.498767 1_555
O66 S9 1.508903 1_555
O67 S10 1.473850 1_555
O68 S11 1.492826 1_555
O69 S12 1.492011 1_555
O70 Si15 1.653789 1_555
O71 Si16 1.640487 1_555
O72 S17 1.478338 1_555
O73 Si17 1.669540 1_555
O74 S13 1.487654 1_555
O75 S14 1.492475 1_555
O76 S15 1.472948 1_555
O77 S16 1.466308 1_555
O78 S9 1.496738 1_555
O79 S10 1.493996 1_555
O80 S11 1.483106 1_555
O81 S12 1.510965 1_555
O82 Si15 1.636033 1_555
O83 Si16 1.642148 1_555
O84 S4 1.494251 1_555
O85 Si8 1.675846 1_555
O86 Si9 1.665642 1_555
O87 S5 1.469136 1_555
O88 Si10 1.645497 1_555
O89 Si11 1.704256 1_555
O90 Si12 1.681422 1_555
O91 Si13 1.701632 1_555
O92 S6 1.522498 1_555
O93 S7 1.526738 1_555
O94 S8 1.506585 1_555
O95 Si14 1.649998 1_555
O96 S3 1.469430 1_555
O97 Si7 1.622824 1_555
O98 Si5 1.630199 1_555
O99 Si6 1.666825 1_555
O100 S2 1.478887 1_555
O101 S1 1.485979 1_655
O102 Si1 1.618150 1_555
O103 Si2 1.621218 1_555
O104 Si4 1.624284 1_555
O105 Si3 1.628284 1_555
O106 Si0 1.605890 1_555
O107 S0 1.475191 1_555
O108 Si15 1.669326 1_555
O109 Si16 1.664466 1_555
O110 S10 1.486550 1_555
O111 S9 1.453767 1_655
O112 S11 1.487474 1_545
O113 S12 1.480228 1_545
O114 S13 1.463974 1_545
O115 S14 1.495861 1_545
O116 S15 1.479967 1_555
O117 S16 1.498952 1_555
O118 Si17 1.676736 1_555
O119 S17 1.496635 1_655
O120 S8 1.471685 1_555
O121 Si14 1.630253 1_555
O122 Si13 1.617313 1_455
O123 Si12 1.616954 1_555
O124 S6 1.473087 1_565
O125 S7 1.484742 1_565
O126 Si9 1.624075 1_565
O127 S5 1.486464 1_565
O128 Si10 1.663073 1_555
O129 Si11 1.641702 1_555
O130 Si8 1.624149 1_455
O131 S4 1.476598 1_555
O132 Si0 1.616198 1_565
O133 S0 1.478754 1_565
O134 Si1 1.625794 1_555
O135 Si2 1.628239 1_555
O136 Si3 1.624471 1_455
O137 Si4 1.637662 1_555
O138 Si5 1.673457 1_555
O139 Si6 1.634610 1_555
O140 S1 1.487218 1_555
O141 S2 1.469831 1_555
O142 S3 1.507571 1_565
O143 Si7 1.621618 1_565
