# generated using pymatgen
data_Si2H2S3
_symmetry_space_group_name_H-M   'P 1'
_cell_length_a   7.89303923
_cell_length_b   7.89303923
_cell_length_c   8.86927886
_cell_angle_alpha   90.00000000
_cell_angle_beta   90.00000000
_cell_angle_gamma   90.00000000
_symmetry_Int_Tables_number   1
_chemical_formula_structural   Si2H2S3
_chemical_formula_sum   'Si8 H8 S12'
_cell_volume   552.55667863
_cell_formula_units_Z   4
loop_
 _symmetry_equiv_pos_site_id
 _symmetry_equiv_pos_as_xyz
  1  'x, y, z'
loop_
 _atom_site_type_symbol
 _atom_site_label
 _atom_site_symmetry_multiplicity
 _atom_site_fract_x
 _atom_site_fract_y
 _atom_site_fract_z
 _atom_site_occupancy
  Si  Si0  1  0.43350590  0.70070300  0.63225442  1
  Si  Si1  1  0.56649410  0.29929700  0.63225442  1
  Si  Si2  1  0.79929700  0.06649410  0.13225442  1
  Si  Si3  1  0.29929700  0.43350590  0.36774558  1
  Si  Si4  1  0.20070300  0.93350590  0.13225442  1
  Si  Si5  1  0.93350590  0.79929700  0.86774558  1
  Si  Si6  1  0.06649410  0.20070300  0.86774558  1
  Si  Si7  1  0.70070300  0.56649410  0.36774558  1
  H  H0  1  0.38736695  0.84605981  0.72765969  1
  H  H1  1  0.61263305  0.15394019  0.72765969  1
  H  H2  1  0.65394019  0.11263305  0.22765969  1
  H  H3  1  0.15394019  0.38736695  0.27234031  1
  H  H4  1  0.84605981  0.61263305  0.27234031  1
  H  H5  1  0.11263305  0.34605981  0.77234031  1
  H  H6  1  0.88736695  0.65394019  0.77234031  1
  H  H7  1  0.34605981  0.88736695  0.22765969  1
  S  S0  1  0.50000000  0.50000000  0.78262883  1
  S  S1  1  0.50000000  0.50000000  0.21737117  1
  S  S2  1  0.00000000  0.00000000  0.71737117  1
  S  S3  1  0.00000000  0.00000000  0.28262883  1
  S  S4  1  0.64296789  0.78589063  0.49905766  1
  S  S5  1  0.35703211  0.21410937  0.49905766  1
  S  S6  1  0.71410937  0.85703211  -0.00094234  1
  S  S7  1  0.21410937  0.64296789  0.50094234  1
  S  S8  1  0.78589063  0.35703211  0.50094234  1
  S  S9  1  0.85703211  0.28589063  0.00094234  1
  S  S10  1  0.14296789  0.71410937  0.00094234  1
  S  S11  1  0.28589063  0.14296789  -0.00094234  1
loop_
_geom_bond_atom_site_label_1
_geom_bond_atom_site_label_2
_geom_bond_distance
_geom_bond_site_symmetry_2
H0 Si0 1.471377 1_555
H1 Si1 1.471377 1_555
H2 Si2 1.471377 1_555
H3 Si3 1.471377 1_555
H4 Si7 1.471377 1_555
H5 Si6 1.471377 1_555
H6 Si5 1.471377 1_555
H7 Si4 1.471377 1_555
S0 Si0 2.136305 1_555
S0 Si1 2.136305 1_555
S1 Si7 2.136305 1_555
S1 Si3 2.136305 1_555
S2 Si6 2.136305 1_555
S2 Si5 2.136305 1_445
S3 Si4 2.136305 1_545
S3 Si2 2.136305 1_455
S4 Si7 2.136086 1_555
S4 Si0 2.140348 1_555
S5 Si3 2.136086 1_555
S5 Si1 2.140348 1_555
S6 Si5 2.136086 1_554
S6 Si2 2.140348 1_565
S7 Si0 2.136086 1_555
S7 Si3 2.140348 1_555
S8 Si1 2.136086 1_555
S8 Si7 2.140348 1_555
S9 Si2 2.136086 1_555
S9 Si6 2.140348 1_654
S10 Si4 2.136086 1_555
S10 Si5 2.140348 1_454
S11 Si6 2.136086 1_554
S11 Si4 2.140348 1_545
