# generated using pymatgen
data_MgFe4(HgO4)2
_symmetry_space_group_name_H-M   'P 1'
_cell_length_a   6.22845674
_cell_length_b   6.55738413
_cell_length_c   6.55738413
_cell_angle_alpha   58.85205474
_cell_angle_beta   61.64590332
_cell_angle_gamma   61.64590332
_symmetry_Int_Tables_number   1
_chemical_formula_structural   MgFe4(HgO4)2
_chemical_formula_sum   'Mg1 Fe4 Hg2 O8'
_cell_volume   192.13777228
_cell_formula_units_Z   1
loop_
 _symmetry_equiv_pos_site_id
 _symmetry_equiv_pos_as_xyz
  1  'x, y, z'
loop_
 _atom_site_type_symbol
 _atom_site_label
 _atom_site_symmetry_multiplicity
 _atom_site_fract_x
 _atom_site_fract_y
 _atom_site_fract_z
 _atom_site_occupancy
  Mg  Mg0  1  0.89993500  0.35006500  0.35006500  1
  Fe  Fe0  1  0.50346300  0.48725000  0.00582300  1
  Fe  Fe1  1  0.50346300  0.00582300  0.48725000  1
  Fe  Fe2  1  0.98295900  0.54653400  0.54653400  1
  Fe  Fe3  1  0.42397300  0.54653400  0.54653400  1
  Hg  Hg0  1  0.20071900  0.04928100  0.04928100  1
  Hg  Hg1  1  0.84775600  0.90224400  0.90224400  1
  O  O0  1  0.28197700  0.24234100  0.24234100  1
  O  O1  1  0.73334000  0.24234100  0.24234100  1
  O  O2  1  0.28888700  0.66113000  0.26109600  1
  O  O3  1  0.28888700  0.26109600  0.66113000  1
  O  O4  1  0.72337700  0.73038400  0.32286300  1
  O  O5  1  0.72337700  0.32286300  0.73038400  1
  O  O6  1  0.70556100  0.75314000  0.75314000  1
  O  O7  1  0.28816000  0.75314000  0.75314000  1
loop_
_geom_bond_atom_site_label_1
_geom_bond_atom_site_label_2
_geom_bond_distance
_geom_bond_site_symmetry_2
Mg0 O0 1.995801 1_655
Mg0 O1 1.995807 1_555
Mg0 O4 2.140523 1_555
Mg0 O5 2.140523 1_555
Fe0 O2 2.071313 1_555
Fe0 O0 2.093564 1_555
Fe0 O1 2.093564 1_555
Fe0 O7 2.117726 1_554
Fe0 O6 2.117734 1_554
Fe0 O5 2.135924 1_554
Fe1 O3 2.071313 1_555
Fe1 O0 2.093564 1_555
Fe1 O1 2.093564 1_555
Fe1 O7 2.117726 1_545
Fe1 O6 2.117734 1_545
Fe1 O4 2.135924 1_545
Fe2 O6 2.026869 1_555
Fe2 O3 2.053342 1_655
Fe2 O2 2.053342 1_655
Fe2 O5 2.188704 1_555
Fe2 O4 2.188704 1_555
Fe3 O7 2.026870 1_555
Fe3 O3 2.053342 1_555
Fe3 O2 2.053342 1_555
Fe3 O4 2.188709 1_555
Fe3 O5 2.188709 1_555
Hg0 O2 2.109205 1_545
Hg0 O3 2.109205 1_554
Hg0 O0 2.517267 1_555
Hg0 O1 2.517272 1_455
Hg1 O5 2.249838 1_565
Hg1 O4 2.249838 1_556
Hg1 O6 2.308731 1_555
Hg1 O7 2.308736 1_655
