# generated using pymatgen
data_MgAg4(GeO4)2
_symmetry_space_group_name_H-M   'P 1'
_cell_length_a   8.40250564
_cell_length_b   6.59626029
_cell_length_c   6.96010773
_cell_angle_alpha   76.31137357
_cell_angle_beta   46.58684845
_cell_angle_gamma   53.52493315
_symmetry_Int_Tables_number   1
_chemical_formula_structural   MgAg4(GeO4)2
_chemical_formula_sum   'Mg1 Ag4 Ge2 O8'
_cell_volume   215.35464696
_cell_formula_units_Z   1
loop_
 _symmetry_equiv_pos_site_id
 _symmetry_equiv_pos_as_xyz
  1  'x, y, z'
loop_
 _atom_site_type_symbol
 _atom_site_label
 _atom_site_symmetry_multiplicity
 _atom_site_fract_x
 _atom_site_fract_y
 _atom_site_fract_z
 _atom_site_occupancy
  Mg  Mg0  1  0.51343200  0.73904400  0.50191700  1
  Ag  Ag0  1  0.18437700  0.27897500  0.54122200  1
  Ag  Ag1  1  0.53424800  0.49235800  0.19304100  1
  Ag  Ag2  1  0.80459300  0.86270600  0.46083400  1
  Ag  Ag3  1  0.45270800  0.38214900  0.81299800  1
  Ge  Ge0  1  0.13487700  0.11439500  0.13111200  1
  Ge  Ge1  1  0.87512100  0.87773800  0.87310300  1
  O  O0  1  0.20443500  0.28179900  0.19775900  1
  O  O1  1  0.77145000  0.34867900  0.32548100  1
  O  O2  1  0.19455500  0.81153900  0.20698700  1
  O  O3  1  0.33510000  0.04348800  0.76638100  1
  O  O4  1  0.68955700  0.89958700  0.22882000  1
  O  O5  1  0.76754400  0.19726400  0.82707300  1
  O  O6  1  0.23443600  0.68330200  0.67888200  1
  O  O7  1  0.82439900  0.71614600  0.76938800  1
loop_
_geom_bond_atom_site_label_1
_geom_bond_atom_site_label_2
_geom_bond_distance
_geom_bond_site_symmetry_2
Mg0 O4 1.992155 1_555
Mg0 O6 1.997384 1_555
Mg0 O1 2.009604 1_555
Mg0 O3 2.011711 1_565
Ag0 O0 2.274270 1_555
Ag0 O7 2.276223 1_455
Ag0 O3 2.389473 1_555
Ag0 O4 2.503588 1_545
Ag1 O5 2.250896 1_554
Ag1 O2 2.271581 1_555
Ag1 O1 2.363534 1_555
Ag1 O6 2.429327 1_555
Ag2 O7 2.211716 1_555
Ag2 O2 2.232049 1_655
Ag2 O4 2.298074 1_555
Ag2 O3 2.362799 1_565
Ag3 O5 2.226875 1_555
Ag3 O0 2.255131 1_556
Ag3 O6 2.307600 1_555
Ag3 O1 2.428107 1_555
Ge0 O0 1.777224 1_555
Ge0 O2 1.787416 1_545
Ge0 O1 1.801066 1_455
Ge0 O3 1.802661 1_554
Ge1 O7 1.779336 1_555
Ge1 O5 1.781945 1_565
Ge1 O4 1.782492 1_556
Ge1 O6 1.787319 1_655
