# generated using pymatgen
data_MgMn2(CoO3)4
_symmetry_space_group_name_H-M   'P 1'
_cell_length_a   4.95097972
_cell_length_b   5.02761351
_cell_length_c   9.98334823
_cell_angle_alpha   97.91965793
_cell_angle_beta   93.80058194
_cell_angle_gamma   60.35345705
_symmetry_Int_Tables_number   1
_chemical_formula_structural   MgMn2(CoO3)4
_chemical_formula_sum   'Mg1 Mn2 Co4 O12'
_cell_volume   213.91074755
_cell_formula_units_Z   1
loop_
 _symmetry_equiv_pos_site_id
 _symmetry_equiv_pos_as_xyz
  1  'x, y, z'
loop_
 _atom_site_type_symbol
 _atom_site_label
 _atom_site_symmetry_multiplicity
 _atom_site_fract_x
 _atom_site_fract_y
 _atom_site_fract_z
 _atom_site_occupancy
  Mg  Mg0  1  0.68057100  0.75396800  0.25242700  1
  Mn  Mn0  1  0.99364000  0.02059400  0.00223300  1
  Mn  Mn1  1  0.02060000  0.46883500  0.50237900  1
  Co  Co0  1  0.32693900  0.35833200  0.00114800  1
  Co  Co1  1  0.35707800  0.80086700  0.50242600  1
  Co  Co2  1  0.68940300  0.13609000  0.50870300  1
  Co  Co3  1  0.66151100  0.68739600  0.98466500  1
  O  O0  1  0.02712500  0.15835400  0.59673600  1
  O  O1  1  0.97636100  0.40111900  0.09901300  1
  O  O2  1  0.97812200  0.68335400  0.89690300  1
  O  O3  1  0.32699300  0.99793900  0.90325400  1
  O  O4  1  0.01058100  0.77923300  0.40060500  1
  O  O5  1  0.36756700  0.09431700  0.40069800  1
  O  O6  1  0.35626900  0.50389100  0.59569300  1
  O  O7  1  0.34645200  0.71739000  0.10065800  1
  O  O8  1  0.67994600  0.01108500  0.10600900  1
  O  O9  1  0.65997600  0.32370900  0.90326100  1
  O  O10  1  0.68312200  0.47634100  0.39047100  1
  O  O11  1  0.68274500  0.80218700  0.60271600  1
loop_
_geom_bond_atom_site_label_1
_geom_bond_atom_site_label_2
_geom_bond_distance
_geom_bond_site_symmetry_2
Mg0 O8 2.079395 1_565
Mg0 O10 2.087590 1_555
Mg0 O5 2.122120 1_565
Mg0 O1 2.148467 1_555
Mg0 O4 2.169599 1_655
Mg0 O7 2.226627 1_555
Mn0 O2 1.900858 1_544
Mn0 O3 1.926787 1_644
Mn0 O9 1.932791 1_554
Mn0 O8 1.946319 1_555
Mn0 O7 1.972679 1_645
Mn0 O1 1.985091 1_555
Mn1 O11 1.896398 1_455
Mn1 O0 1.917380 1_555
Mn1 O6 1.923559 1_555
Mn1 O10 1.934710 1_455
Mn1 O4 1.955464 1_555
Mn1 O5 2.007821 1_555
Co0 O9 1.893891 1_554
Co0 O3 1.936428 1_544
Co0 O1 1.952185 1_455
Co0 O7 1.980060 1_555
Co0 O2 2.043120 1_454
Co0 O8 2.107346 1_555
Co1 O11 1.843092 1_555
Co1 O6 1.867030 1_555
Co1 O0 1.902196 1_565
Co1 O10 1.910011 1_555
Co1 O5 1.925218 1_565
Co1 O4 1.977630 1_555
Co2 O0 1.882535 1_655
Co2 O6 1.903688 1_555
Co2 O4 1.945164 1_645
Co2 O5 1.945910 1_555
Co2 O11 2.047724 1_545
Co2 O10 2.195324 1_555
Co3 O2 1.835996 1_555
Co3 O3 1.858571 1_555
Co3 O9 1.899285 1_555
Co3 O8 1.926982 1_566
Co3 O7 1.937903 1_556
Co3 O1 1.949860 1_556
