# generated using pymatgen
data_Na4MgV2O6
_symmetry_space_group_name_H-M   'P 1'
_cell_length_a   5.76125260
_cell_length_b   5.49301677
_cell_length_c   6.01023731
_cell_angle_alpha   74.11948042
_cell_angle_beta   100.85010200
_cell_angle_gamma   60.83509943
_symmetry_Int_Tables_number   1
_chemical_formula_structural   Na4MgV2O6
_chemical_formula_sum   'Na4 Mg1 V2 O6'
_cell_volume   147.57700686
_cell_formula_units_Z   1
loop_
 _symmetry_equiv_pos_site_id
 _symmetry_equiv_pos_as_xyz
  1  'x, y, z'
loop_
 _atom_site_type_symbol
 _atom_site_label
 _atom_site_symmetry_multiplicity
 _atom_site_fract_x
 _atom_site_fract_y
 _atom_site_fract_z
 _atom_site_occupancy
  Na  Na0  1  0.01759101  0.24296801  0.55229792  1
  Na  Na1  1  0.98240899  0.75703199  0.44770208  1
  Na  Na2  1  0.50000000  0.50000000  0.50000000  1
  Na  Na3  1  0.00000000  0.00000000  -0.00000000  1
  Mg  Mg0  1  0.50000000  0.00000000  0.50000000  1
  V  V0  1  0.67281262  0.64878294  0.01095608  1
  V  V1  1  0.32718738  0.35121706  0.98904392  1
  O  O0  1  0.29619856  0.73073678  0.77135249  1
  O  O1  1  0.13402263  0.46204351  0.23506750  1
  O  O2  1  0.47866954  0.88946686  0.21480117  1
  O  O3  1  0.86597737  0.53795649  0.76493350  1
  O  O4  1  0.52133046  0.11053314  0.78519983  1
  O  O5  1  0.70380144  0.26926322  0.22864751  1
loop_
_geom_bond_atom_site_label_1
_geom_bond_atom_site_label_2
_geom_bond_distance
_geom_bond_site_symmetry_2
Na0 O0 2.236497 1_545
Na0 O3 2.279455 1_455
Na0 O5 2.311006 1_455
Na0 O1 2.354983 1_555
Na0 O4 2.601308 1_555
Na1 O5 2.236497 1_565
Na1 O1 2.279451 1_655
Na1 O0 2.311006 1_655
Na1 O3 2.354987 1_555
Na1 O2 2.601306 1_555
Na2 O2 2.277649 1_555
Na2 O4 2.277652 1_555
Na2 O0 2.458976 1_555
Na2 O5 2.458976 1_555
Na2 O1 2.524046 1_555
Na2 O3 2.524049 1_555
Na3 O4 2.497831 1_454
Na3 O2 2.497833 1_545
Na3 O3 2.530809 1_454
Na3 O1 2.530810 1_545
Na3 O0 2.554098 1_544
Na3 O5 2.554098 1_455
Mg0 O2 1.971017 1_545
Mg0 O4 1.971022 1_555
Mg0 O1 2.175161 1_555
Mg0 O3 2.175162 1_545
O0 V1 2.036253 1_555
O0 V0 2.121606 1_556
O1 V1 2.060912 1_554
O1 V0 2.273067 1_455
O2 V0 2.112118 1_555
O2 V1 2.132916 1_564
O3 V0 2.060907 1_556
O3 V1 2.273066 1_655
O4 V1 2.112113 1_555
O4 V0 2.132914 1_546
O5 V0 2.036253 1_555
O5 V1 2.121606 1_554
