# generated using pymatgen
data_MgCu2(NiO2)4
_symmetry_space_group_name_H-M   'P 1'
_cell_length_a   6.22935352
_cell_length_b   6.22966110
_cell_length_c   6.22748518
_cell_angle_alpha   60.01139585
_cell_angle_beta   90.00000002
_cell_angle_gamma   120.02003288
_symmetry_Int_Tables_number   1
_chemical_formula_structural   MgCu2(NiO2)4
_chemical_formula_sum   'Mg1 Cu2 Ni4 O8'
_cell_volume   170.86313300
_cell_formula_units_Z   1
loop_
 _symmetry_equiv_pos_site_id
 _symmetry_equiv_pos_as_xyz
  1  'x, y, z'
loop_
 _atom_site_type_symbol
 _atom_site_label
 _atom_site_symmetry_multiplicity
 _atom_site_fract_x
 _atom_site_fract_y
 _atom_site_fract_z
 _atom_site_occupancy
  Mg  Mg0  1  0.74994500  0.49997900  0.75001100  1
  Cu  Cu0  1  0.99981500  0.99987600  0.00006200  1
  Cu  Cu1  1  0.25011400  0.50006800  0.24996600  1
  Ni  Ni0  1  0.60684500  0.21372500  0.17937600  1
  Ni  Ni1  1  0.60684500  0.21372600  0.60689900  1
  Ni  Ni2  1  0.60691900  0.78625800  0.60687100  1
  Ni  Ni3  1  0.17935000  0.78623500  0.60688200  1
  O  O0  1  0.85281500  0.23516700  0.38241600  1
  O  O1  1  0.38228100  0.23514600  0.38242800  1
  O  O2  1  0.87233100  0.25526400  0.87236700  1
  O  O3  1  0.87243800  0.74486500  0.38292900  1
  O  O4  1  0.38301200  0.25516500  0.87241700  1
  O  O5  1  0.87243700  0.74486500  0.87220500  1
  O  O6  1  0.38242700  0.76483000  0.38231200  1
  O  O7  1  0.38242600  0.76483000  0.85285800  1
loop_
_geom_bond_atom_site_label_1
_geom_bond_atom_site_label_2
_geom_bond_distance
_geom_bond_site_symmetry_2
Mg0 O4 1.865854 1_555
Mg0 O5 1.866639 1_555
Mg0 O3 1.866643 1_555
Mg0 O2 1.867523 1_555
Mg0 Ni0 2.183357 1_556
Mg0 Ni1 2.183364 1_555
Mg0 Ni3 2.183523 1_655
Mg0 Ni2 2.183968 1_555
Cu0 O3 1.946911 1_555
Cu0 O5 1.946922 1_554
Cu0 O2 1.947754 1_564
Cu0 O4 1.948556 1_664
Cu1 O7 2.019327 1_554
Cu1 O6 2.019334 1_555
Cu1 O1 2.020079 1_555
Cu1 O0 2.020264 1_455
Ni0 O6 1.981674 1_545
Ni0 O0 1.982021 1_555
Ni0 O1 1.982205 1_555
Ni0 O4 2.351982 1_554
Ni0 O2 2.352569 1_554
Ni0 O5 2.353686 1_554
Ni1 O7 1.981677 1_545
Ni1 O0 1.982029 1_555
Ni1 O1 1.982196 1_555
Ni1 O4 2.351974 1_555
Ni1 O2 2.352559 1_555
Ni1 O3 2.353682 1_555
Ni2 O0 1.981647 1_565
Ni2 O6 1.982146 1_555
Ni2 O7 1.982150 1_555
Ni2 O5 2.352310 1_555
Ni2 O3 2.352319 1_555
Ni2 O4 2.353635 1_555
Ni3 O1 1.981814 1_565
Ni3 O7 1.982204 1_555
Ni3 O6 1.982204 1_555
Ni3 O3 2.352236 1_455
Ni3 O5 2.352240 1_455
Ni3 O2 2.352790 1_455
