# generated using pymatgen
data_Si3(BiO3)4
_symmetry_space_group_name_H-M   'P 1'
_cell_length_a   8.89223981
_cell_length_b   8.89228619
_cell_length_c   8.89227072
_cell_angle_alpha   109.47146209
_cell_angle_beta   109.47130849
_cell_angle_gamma   109.47130392
_symmetry_Int_Tables_number   1
_chemical_formula_structural   Si3(BiO3)4
_chemical_formula_sum   'Si6 Bi8 O24'
_cell_volume   541.26902165
_cell_formula_units_Z   2
loop_
 _symmetry_equiv_pos_site_id
 _symmetry_equiv_pos_as_xyz
  1  'x, y, z'
loop_
 _atom_site_type_symbol
 _atom_site_label
 _atom_site_symmetry_multiplicity
 _atom_site_fract_x
 _atom_site_fract_y
 _atom_site_fract_z
 _atom_site_occupancy
  Si  Si0  1  0.62499546  0.37500341  0.24999921  1
  Si  Si1  1  0.37500486  0.25000551  0.62500020  1
  Si  Si2  1  0.25000191  0.62500022  0.37500231  1
  Si  Si3  1  0.87500613  0.12500142  0.75000736  1
  Si  Si4  1  0.74999952  0.87500139  0.12499727  1
  Si  Si5  1  0.12499689  0.75000250  0.87500532  1
  Bi  Bi0  1  0.49999879  -0.00000102  0.33668105  1
  Bi  Bi1  1  0.33668291  0.49999864  0.00000040  1
  Bi  Bi2  1  0.83668220  0.49999982  -0.00000058  1
  Bi  Bi3  1  0.66331688  0.66331649  0.66331688  1
  Bi  Bi4  1  -0.00000089  0.83668166  0.49999956  1
  Bi  Bi5  1  0.00000119  0.33668198  0.50000026  1
  Bi  Bi6  1  0.50000015  -0.00000072  0.83668212  1
  Bi  Bi7  1  0.16331758  0.16331686  0.16331621  1
  O  O0  1  0.34825373  0.19123308  0.41936969  1
  O  O1  1  0.91937130  0.69123345  0.84825350  1
  O  O2  1  0.08062909  0.27186288  0.92888182  1
  O  O3  1  0.84825344  0.91936817  0.69123225  1
  O  O4  1  0.92888502  0.08063205  0.27186633  1
  O  O5  1  0.69123233  0.84825345  0.91937000  1
  O  O6  1  0.58062920  0.42888279  0.77186403  1
  O  O7  1  0.80876727  0.72813209  0.15702148  1
  O  O8  1  0.15174810  0.57111163  0.84297900  1
  O  O9  1  0.34297863  0.07111080  0.65174766  1
  O  O10  1  0.27186505  0.92888415  0.08063083  1
  O  O11  1  0.30876804  0.65702135  0.22813337  1
  O  O12  1  0.77186573  0.58063276  0.42888526  1
  O  O13  1  0.15702104  0.80876842  0.72813112  1
  O  O14  1  0.42888498  0.77186601  0.58063206  1
  O  O15  1  0.65174700  0.34297996  0.07111372  1
  O  O16  1  0.07111281  0.65174797  0.34297995  1
  O  O17  1  0.57111362  0.84297963  0.15174810  1
  O  O18  1  0.19123295  0.41936832  0.34825408  1
  O  O19  1  0.72813272  0.15702050  0.80876707  1
  O  O20  1  0.22813305  0.30876771  0.65702122  1
  O  O21  1  0.65702136  0.22813138  0.30876843  1
  O  O22  1  0.41937156  0.34825391  0.19123374  1
  O  O23  1  0.84297941  0.15174740  0.57110972  1
loop_
_geom_bond_atom_site_label_1
_geom_bond_atom_site_label_2
_geom_bond_distance
_geom_bond_site_symmetry_2
Bi0 O21 2.192002 1_555
Bi0 O17 2.192006 1_545
Bi0 O10 2.192011 1_545
Bi0 O11 2.571110 1_545
Bi0 O23 2.571111 1_555
Bi0 O0 2.571133 1_555
Bi1 O8 2.192014 1_554
Bi1 O11 2.192015 1_555
Bi1 O2 2.192028 1_554
Bi1 O20 2.571112 1_554
Bi1 O17 2.571128 1_555
Bi1 O22 2.571132 1_555
Bi2 O7 2.192010 1_555
Bi2 O15 2.192019 1_555
Bi2 O6 2.192025 1_554
Bi2 O16 2.571120 1_655
Bi2 O19 2.571120 1_554
Bi2 O1 2.571144 1_554
Bi3 O3 2.192036 1_555
Bi3 O1 2.192041 1_555
Bi3 O5 2.192044 1_555
Bi3 O12 2.571132 1_555
Bi3 O14 2.571140 1_555
Bi3 O6 2.571150 1_555
Bi4 O13 2.191996 1_555
Bi4 O16 2.192004 1_555
Bi4 O12 2.192006 1_455
Bi4 O7 2.571106 1_455
Bi4 O9 2.571107 1_565
Bi4 O3 2.571122 1_455
Bi5 O23 2.191993 1_455
Bi5 O20 2.191997 1_555
Bi5 O4 2.192009 1_455
Bi5 O8 2.571109 1_555
Bi5 O21 2.571110 1_455
Bi5 O18 2.571121 1_555
Bi6 O9 2.192004 1_555
Bi6 O19 2.192007 1_555
Bi6 O14 2.192009 1_545
Bi6 O13 2.571103 1_545
Bi6 O5 2.571126 1_545
Bi6 O15 2.571129 1_556
Bi7 O18 2.192038 1_555
Bi7 O22 2.192038 1_555
Bi7 O0 2.192040 1_555
Bi7 O10 2.571136 1_545
Bi7 O2 2.571147 1_554
Bi7 O4 2.571148 1_455
O0 Si1 1.631951 1_555
O1 Si5 1.631905 1_655
O2 Si3 1.631894 1_455
O3 Si3 1.631971 1_565
O4 Si4 1.631972 1_545
O5 Si4 1.631938 1_556
O6 Si1 1.631911 1_555
O7 Si4 1.632039 1_555
O8 Si5 1.632049 1_555
O9 Si1 1.632067 1_555
O10 Si5 1.631935 1_554
O11 Si2 1.632017 1_555
O12 Si0 1.631969 1_555
O13 Si5 1.632072 1_555
O14 Si2 1.631956 1_555
O15 Si0 1.632005 1_555
O16 Si2 1.632015 1_555
O17 Si4 1.632002 1_555
O18 Si2 1.631979 1_555
O19 Si3 1.632015 1_555
O20 Si1 1.632019 1_555
O21 Si0 1.632076 1_555
O22 Si0 1.631900 1_555
O23 Si3 1.632082 1_555
