# generated using pymatgen
data_Na2ScGaP2SO12
_symmetry_space_group_name_H-M   'P 1'
_cell_length_a   8.76927574
_cell_length_b   8.78179026
_cell_length_c   22.38272091
_cell_angle_alpha   90.27533617
_cell_angle_beta   89.70777277
_cell_angle_gamma   119.92720070
_symmetry_Int_Tables_number   1
_chemical_formula_structural   Na2ScGaP2SO12
_chemical_formula_sum   'Na12 Sc6 Ga6 P12 S6 O72'
_cell_volume   1493.83039183
_cell_formula_units_Z   6
loop_
 _symmetry_equiv_pos_site_id
 _symmetry_equiv_pos_as_xyz
  1  'x, y, z'
loop_
 _atom_site_type_symbol
 _atom_site_label
 _atom_site_symmetry_multiplicity
 _atom_site_fract_x
 _atom_site_fract_y
 _atom_site_fract_z
 _atom_site_occupancy
  Na  Na0  1  0.99709781  0.63300099  0.25294380  1
  Na  Na1  1  0.36879564  0.00371508  0.75098484  1
  Na  Na2  1  0.66407488  0.96176877  0.58588080  1
  Na  Na3  1  0.03726786  0.33695624  0.08641223  1
  Na  Na4  1  0.32930439  0.29866958  0.91887030  1
  Na  Na5  1  0.69988453  0.66943688  0.41863935  1
  Na  Na6  1  0.02051967  0.00060097  0.49967386  1
  Na  Na7  1  0.00263755  0.98081386  0.00079911  1
  Na  Na8  1  0.68637598  0.33187469  0.83175443  1
  Na  Na9  1  0.66560656  0.31367920  0.33402969  1
  Na  Na10  1  0.35251814  0.66544740  0.16963771  1
  Na  Na11  1  0.33461911  0.64693425  0.66609319  1
  Sc  Sc0  1  0.99810223  0.00725826  0.84956125  1
  Sc  Sc1  1  0.99945695  0.99804518  0.15071837  1
  Sc  Sc2  1  0.66827496  0.33246485  0.98150045  1
  Sc  Sc3  1  0.32736105  0.66968098  0.02011533  1
  Sc  Sc4  1  0.33095442  0.67335728  0.51816085  1
  Sc  Sc5  1  0.33374260  0.66408478  0.81219100  1
  Ga  Ga0  1  0.98485377  0.99741923  0.34940850  1
  Ga  Ga1  1  0.00278500  0.99767785  0.64769712  1
  Ga  Ga2  1  0.65512767  0.33095082  0.68275922  1
  Ga  Ga3  1  0.66826435  0.34690233  0.18618830  1
  Ga  Ga4  1  0.66723936  0.33143842  0.48260318  1
  Ga  Ga5  1  0.33405830  0.66634575  0.31793773  1
  P  P0  1  0.69748255  0.70314413  0.25272210  1
  P  P1  1  -0.00032341  0.29665307  0.25114714  1
  P  P2  1  0.29360838  0.29140234  0.74638689  1
  P  P3  1  0.71102659  0.00801639  0.74394634  1
  P  P4  1  0.37324453  0.04949477  0.58394330  1
  P  P5  1  0.67297705  0.62328129  0.58303503  1
  P  P6  1  0.95564562  0.62565034  0.08622629  1
  P  P7  1  0.37721146  0.33414212  0.08492028  1
  P  P8  1  0.03837049  0.37386388  0.91702932  1
  P  P9  1  0.33212342  0.96078161  0.91440141  1
  P  P10  1  0.62685777  0.96569114  0.41616664  1
  P  P11  1  0.03744954  0.66823418  0.41370742  1
  S  S0  1  0.29788829  0.00368741  0.25255042  1
  S  S1  1  0.99147895  0.70170780  0.74703378  1
  S  S2  1  0.95427602  0.33189544  0.58451487  1
  S  S3  1  0.66378997  0.04294007  0.08692013  1
  S  S4  1  0.62897910  0.66982472  0.91701408  1
  S  S5  1  0.32906118  0.36805966  0.41554854  1
  O  O0  1  0.21317202  0.03001185  0.30609636  1
  O  O1  1  0.81863013  0.78192759  0.30858061  1
  O  O2  1  0.97379921  0.17771320  0.30524152  1
  O  O3  1  0.21823014  0.18149840  0.80435222  1
  O  O4  1  0.96792646  0.78223974  0.80184592  1
  O  O5  1  0.82019844  0.02880492  0.80006436  1
  O  O6  1  0.79411908  0.97820782  0.68707949  1
  O  O7  1  0.17530308  0.19555198  0.69278765  1
  O  O8  1  0.02512663  0.81589296  0.69404671  1
  O  O9  1  0.78721262  0.81765000  0.19789469  1
  O  O10  1  0.02942521  0.22018375  0.19293650  1
  O  O11  1  0.18632134  0.97095508  0.19872043  1
  O  O12  1  0.87275541  0.35769303  0.63872430  1
  O  O13  1  0.48819746  0.12243608  0.64100365  1
  O  O14  1  0.64863780  0.51055885  0.63831090  1
  O  O15  1  0.87693229  0.51162371  0.14338057  1
  O  O16  1  0.64222857  0.12805109  0.14073474  1
  O  O17  1  0.49007646  0.35222309  0.13973510  1
  O  O18  1  0.45445384  0.30971002  0.02595844  1
  O  O19  1  0.84595094  0.53335971  0.03084583  1
  O  O20  1  0.69081091  0.14812230  0.03217578  1
  O  O21  1  0.46413643  0.16421551  0.52881348  1
  O  O22  1  0.69929786  0.54329223  0.52437076  1
  O  O23  1  0.84390397  0.30058776  0.53012447  1
  O  O24  1  0.54626525  0.69045823  0.97124733  1
  O  O25  1  0.14877569  0.45281919  0.97452908  1
  O  O26  1  0.31564903  0.85017853  0.96954881  1
  O  O27  1  0.55174847  0.85028445  0.47294781  1
  O  O28  1  0.30267143  0.44908869  0.46982208  1
  O  O29  1  0.15202101  0.69325783  0.46863282  1
  O  O30  1  0.12004105  0.63828565  0.35641573  1
  O  O31  1  0.50812690  0.87289570  0.36187127  1
  O  O32  1  0.36440307  0.48404603  0.36244774  1
  O  O33  1  0.13577766  0.48636242  0.86250482  1
  O  O34  1  0.35529565  0.87876157  0.85640122  1
  O  O35  1  0.52070274  0.64421447  0.86341655  1
  O  O36  1  0.01579254  0.83383209  0.40786412  1
  O  O37  1  0.81103804  0.97982937  0.40893756  1
  O  O38  1  0.17317157  0.19119125  0.40812461  1
  O  O39  1  0.02412818  0.19096736  0.91186552  1
  O  O40  1  0.16626414  0.98028678  0.91160431  1
  O  O41  1  0.80527224  0.82415594  0.91157219  1
  O  O42  1  0.96914757  0.16950466  0.58851803  1
  O  O43  1  0.18871039  0.02938858  0.59028964  1
  O  O44  1  0.83639996  0.81297592  0.58875765  1
  O  O45  1  0.97467175  0.80810500  0.09081783  1
  O  O46  1  0.82661489  0.02972545  0.09037976  1
  O  O47  1  0.18860126  0.17323048  0.08990189  1
  O  O48  1  0.69096738  0.17433452  0.74003690  1
  O  O49  1  0.47820771  0.30692008  0.74144553  1
  O  O50  1  0.83610041  0.52497720  0.74095822  1
  O  O51  1  0.68461864  0.51974736  0.24614428  1
  O  O52  1  0.83297273  0.31759165  0.24581026  1
  O  O53  1  0.47534902  0.15968341  0.24551566  1
  O  O54  1  0.64118879  0.50716115  0.92034612  1
  O  O55  1  0.85562182  0.35458259  0.92061063  1
  O  O56  1  0.49290306  0.14873933  0.91922284  1
  O  O57  1  0.64614148  0.14968340  0.42410502  1
  O  O58  1  0.49336846  0.35600730  0.42108867  1
  O  O59  1  0.84856712  0.50459435  0.42116864  1
  O  O60  1  0.35669011  0.49943740  0.08174021  1
  O  O61  1  0.13930727  0.64091900  0.08143227  1
  O  O62  1  0.50929895  0.86616011  0.08173559  1
  O  O63  1  0.35760872  0.86552038  0.57766799  1
  O  O64  1  0.50877699  0.64685984  0.57846007  1
  O  O65  1  0.13166725  0.48768695  0.57849668  1
  O  O66  1  0.31102600  0.84020104  0.25748586  1
  O  O67  1  0.51431542  0.68438116  0.26060341  1
  O  O68  1  0.16223851  0.48535105  0.25855870  1
  O  O69  1  0.31369795  0.47482534  0.75174258  1
  O  O70  1  0.15468232  0.68862015  0.75176797  1
  O  O71  1  0.52237684  0.84676496  0.74983848  1
loop_
_geom_bond_atom_site_label_1
_geom_bond_atom_site_label_2
_geom_bond_distance
_geom_bond_site_symmetry_2
Na0 O68 2.381438 1_655
Na0 O52 2.406118 1_555
Na0 O51 2.409269 1_555
Na0 O66 2.429555 1_655
Na0 O30 2.550058 1_655
Na0 O15 2.672258 1_555
Na0 O1 2.778009 1_555
Na0 O11 2.852147 1_655
Na1 O49 2.347401 1_555
Na1 O71 2.359184 1_545
Na1 O70 2.449205 1_545
Na1 O48 2.461616 1_555
Na1 O34 2.584143 1_545
Na1 O13 2.674381 1_555
Na1 O3 2.762344 1_555
Na1 O8 2.913131 1_545
Na2 O42 2.370534 1_565
Na2 O63 2.389098 1_555
Na2 O64 2.402093 1_555
Na2 O44 2.442784 1_555
Na2 O6 2.512163 1_555
Na2 O27 2.712498 1_555
Na2 O13 2.833191 1_565
Na2 O23 2.869021 1_565
Na3 O61 2.357333 1_555
Na3 O46 2.393177 1_455
Na3 O47 2.395947 1_555
Na3 O60 2.429712 1_555
Na3 O10 2.587021 1_555
Na3 O25 2.696197 1_554
Na3 O15 2.840862 1_455
Na3 O20 2.906085 1_455
Na4 O39 2.357608 1_555
Na4 O56 2.382610 1_555
Na4 O54 2.416070 1_555
Na4 O40 2.428446 1_545
Na4 O18 2.622501 1_556
Na4 O3 2.752768 1_555
Na4 O25 2.827151 1_555
Na4 O35 2.915285 1_555
Na5 O59 2.384035 1_555
Na5 O37 2.404101 1_555
Na5 O36 2.413045 1_655
Na5 O58 2.426008 1_555
Na5 O22 2.616710 1_555
Na5 O1 2.664476 1_555
Na5 O27 2.776923 1_555
Na5 O32 2.850677 1_555
Na6 O43 2.450820 1_555
Na6 O36 2.506144 1_545
Na6 O38 2.561565 1_555
Na6 O44 2.577173 1_445
Na6 O42 2.643244 1_455
Na6 O37 2.689359 1_445
Na7 O40 2.453964 1_554
Na7 O45 2.464421 1_455
Na7 O41 2.551423 1_454
Na7 O47 2.596811 1_565
Na7 O39 2.662388 1_564
Na7 O46 2.684985 1_465
Na8 O55 2.434952 1_555
Na8 O48 2.481419 1_555
Na8 O50 2.552250 1_555
Na8 O56 2.563532 1_555
Na8 O54 2.651380 1_555
Na8 O49 2.664681 1_555
Na9 O57 2.438675 1_555
Na9 O52 2.444391 1_555
Na9 O53 2.508830 1_555
Na9 O59 2.550619 1_555
Na9 O58 2.596117 1_555
Na9 O51 2.627163 1_555
Na10 O67 2.444816 1_555
Na10 O60 2.454024 1_555
Na10 O62 2.540824 1_555
Na10 O68 2.571004 1_555
Na10 O66 2.621958 1_555
Na10 O61 2.659263 1_555
Na11 O69 2.395994 1_555
Na11 O64 2.479968 1_555
Na11 O71 2.533954 1_555
Na11 O65 2.548166 1_555
Na11 O70 2.615321 1_555
Na11 O63 2.699805 1_555
Ga0 O2 1.913819 1_565
Ga0 O1 1.945668 1_555
Ga0 O37 1.966937 1_555
Ga0 O36 2.063949 1_655
Ga0 O0 2.107499 1_665
Ga0 O38 2.132298 1_665
Ga1 O7 1.924192 1_565
Ga1 O6 1.956377 1_455
Ga1 O43 1.978875 1_565
Ga1 O8 1.998298 1_555
Ga1 O44 2.034165 1_455
Ga1 O42 2.141445 1_465
Ga2 O14 1.893688 1_555
Ga2 O13 1.921536 1_555
Ga2 O49 1.957598 1_555
Ga2 O48 2.021483 1_555
Ga2 O12 2.050506 1_555
Ga2 O50 2.102466 1_555
Ga3 O17 1.901264 1_555
Ga3 O15 1.926978 1_555
Ga3 O51 1.972469 1_555
Ga3 O16 2.080058 1_555
Ga3 O52 2.080214 1_555
Ga3 O53 2.133353 1_555
Ga4 O21 1.945399 1_555
Ga4 O22 1.969366 1_555
Ga4 O57 1.995995 1_555
Ga4 O23 2.010777 1_555
Ga4 O59 2.077673 1_555
Ga4 O58 2.149324 1_555
Ga5 O31 1.955163 1_555
Ga5 O30 1.961848 1_555
Ga5 O67 1.975369 1_555
Ga5 O32 2.017269 1_555
Ga5 O68 2.042925 1_555
Ga5 O66 2.129071 1_555
O0 S0 1.483702 1_555
O1 P0 1.562791 1_555
O2 P1 1.543153 1_655
O3 P2 1.555145 1_555
O3 Sc0 2.034528 1_455
O4 S1 1.477424 1_555
O4 Sc0 2.139235 1_565
O5 P3 1.537289 1_555
O5 Sc0 2.002812 1_555
O6 P3 1.548303 1_565
O7 P2 1.534846 1_555
O8 S1 1.487209 1_455
O9 P0 1.532585 1_555
O9 Sc1 2.035390 1_555
O10 P1 1.542570 1_555
O10 Sc1 2.059322 1_445
O11 S0 1.489831 1_565
O11 Sc1 2.074991 1_455
O12 S2 1.478077 1_555
O13 P4 1.555189 1_555
O14 P5 1.534422 1_555
O15 P6 1.558632 1_555
O16 S3 1.474888 1_555
O17 P7 1.537468 1_555
O18 P7 1.542628 1_555
O18 Sc2 2.038379 1_554
O19 P6 1.530791 1_555
O19 Sc2 2.004011 1_554
O20 S3 1.483341 1_555
O20 Sc2 2.070130 1_554
O21 P4 1.540647 1_555
O22 P5 1.555851 1_555
O23 S2 1.495909 1_555
O24 S4 1.467147 1_555
O24 Sc3 2.132061 1_556
O25 P8 1.552032 1_555
O25 Sc3 2.035253 1_556
O26 P9 1.535445 1_555
O26 Sc3 1.996232 1_556
O27 P10 1.553696 1_555
O27 Sc4 2.044629 1_555
O28 S5 1.479442 1_555
O28 Sc4 2.146124 1_555
O29 P11 1.535841 1_555
O29 Sc4 2.003703 1_555
O30 P11 1.554184 1_555
O31 P10 1.543317 1_555
O32 S5 1.496348 1_555
O33 P8 1.534269 1_555
O33 Sc5 2.002824 1_555
O34 P9 1.542657 1_555
O34 Sc5 2.048785 1_555
O35 S4 1.478943 1_555
O35 Sc5 2.083170 1_555
O36 P11 1.563862 1_555
O37 P10 1.564503 1_555
O38 S5 1.479899 1_555
O39 P8 1.551421 1_555
O39 Sc0 2.052750 1_455
O40 P9 1.548661 1_555
O40 Sc0 2.128791 1_465
O41 S4 1.466532 1_555
O41 Sc0 2.157752 1_565
O42 S2 1.498553 1_555
O43 P4 1.543639 1_555
O44 P5 1.569396 1_555
O45 P6 1.528903 1_555
O45 Sc1 2.060783 1_555
O46 S3 1.491572 1_555
O46 Sc1 2.154984 1_545
O47 P7 1.553208 1_555
O47 Sc1 2.102827 1_445
O48 P3 1.558720 1_555
O49 P2 1.558695 1_555
O50 S1 1.474316 1_555
O51 P0 1.563614 1_555
O52 P1 1.566958 1_655
O53 S0 1.481769 1_555
O54 S4 1.487041 1_555
O54 Sc2 2.161188 1_555
O55 P8 1.526893 1_655
O55 Sc2 2.062905 1_555
O56 P9 1.549762 1_545
O56 Sc2 2.106129 1_555
O57 P10 1.547847 1_545
O58 S5 1.502252 1_555
O59 P11 1.568754 1_655
O60 P7 1.551236 1_555
O60 Sc3 2.147317 1_555
O61 P6 1.551243 1_455
O61 Sc3 2.057070 1_555
O62 S3 1.469780 1_565
O62 Sc3 2.162794 1_555
O63 P4 1.557482 1_565
O63 Sc4 2.065055 1_555
O64 P5 1.557537 1_555
O64 Sc4 2.166548 1_555
O65 S2 1.478465 1_455
O65 Sc4 2.165726 1_555
O66 S0 1.501138 1_565
O67 P0 1.539998 1_555
O68 P1 1.564735 1_555
O69 P2 1.534678 1_555
O69 Sc5 2.076820 1_555
O70 S1 1.496159 1_455
O70 Sc5 2.168678 1_555
O71 P3 1.556125 1_565
O71 Sc5 2.146578 1_555
