# generated using pymatgen
data_Ge3Cl8
_symmetry_space_group_name_H-M   'P 1'
_cell_length_a   12.45924097
_cell_length_b   12.45924029
_cell_length_c   12.45924214
_cell_angle_alpha   60.00000192
_cell_angle_beta   60.00000375
_cell_angle_gamma   60.00000330
_symmetry_Int_Tables_number   1
_chemical_formula_structural   Ge3Cl8
_chemical_formula_sum   'Ge12 Cl32'
_cell_volume   1367.60224467
_cell_formula_units_Z   4
loop_
 _symmetry_equiv_pos_site_id
 _symmetry_equiv_pos_as_xyz
  1  'x, y, z'
loop_
 _atom_site_type_symbol
 _atom_site_label
 _atom_site_symmetry_multiplicity
 _atom_site_fract_x
 _atom_site_fract_y
 _atom_site_fract_z
 _atom_site_occupancy
  Ge  Ge0  1  0.17042476  0.48872572  0.17042476  1
  Ge  Ge1  1  0.67042476  0.67042476  0.67042476  1
  Ge  Ge2  1  0.98872572  0.67042476  0.67042476  1
  Ge  Ge3  1  0.67042476  0.67042476  0.98872572  1
  Ge  Ge4  1  0.17042476  0.17042476  0.17042476  1
  Ge  Ge5  1  0.17042476  0.17042476  0.48872572  1
  Ge  Ge6  1  0.48872572  0.17042476  0.17042476  1
  Ge  Ge7  1  0.67042476  0.98872572  0.67042476  1
  Ge  Ge8  1  0.25000000  0.25000000  0.25000000  1
  Ge  Ge9  1  0.75000000  0.75000000  0.75000000  1
  Ge  Ge10  1  0.50000000  0.50000000  0.50000000  1
  Ge  Ge11  1  -0.00000000  0.00000000  0.00000000  1
  Cl  Cl0  1  0.29099768  0.97363159  0.56135224  1
  Cl  Cl1  1  0.97363159  0.56135224  0.29099768  1
  Cl  Cl2  1  0.56135224  0.29099768  0.97363159  1
  Cl  Cl3  1  0.29099768  0.56135224  0.17401649  1
  Cl  Cl4  1  0.29099768  0.17401649  0.97363159  1
  Cl  Cl5  1  0.17401649  0.56135224  0.97363159  1
  Cl  Cl6  1  0.06135224  0.79099768  0.67401649  1
  Cl  Cl7  1  0.67401649  0.47363159  0.06135224  1
  Cl  Cl8  1  0.47363159  0.67401649  0.79099768  1
  Cl  Cl9  1  0.79099768  0.67401649  0.06135224  1
  Cl  Cl10  1  0.79099768  0.47363159  0.67401649  1
  Cl  Cl11  1  0.47363159  0.06135224  0.67401649  1
  Cl  Cl12  1  0.93079834  0.93079834  0.20760398  1
  Cl  Cl13  1  0.43079834  0.70760398  0.43079834  1
  Cl  Cl14  1  0.43079834  0.43079834  0.43079834  1
  Cl  Cl15  1  0.70760398  0.43079834  0.43079834  1
  Cl  Cl16  1  0.20760398  0.93079834  0.93079834  1
  Cl  Cl17  1  0.93079834  0.20760398  0.93079834  1
  Cl  Cl18  1  0.93079834  0.93079834  0.93079834  1
  Cl  Cl19  1  0.43079834  0.43079834  0.70760398  1
  Cl  Cl20  1  0.79099768  0.06135224  0.47363159  1
  Cl  Cl21  1  0.56135224  0.97363159  0.17401649  1
  Cl  Cl22  1  0.17401649  0.29099768  0.56135224  1
  Cl  Cl23  1  0.56135224  0.17401649  0.29099768  1
  Cl  Cl24  1  0.97363159  0.29099768  0.17401649  1
  Cl  Cl25  1  0.97363159  0.17401649  0.56135224  1
  Cl  Cl26  1  0.17401649  0.97363159  0.29099768  1
  Cl  Cl27  1  0.47363159  0.79099768  0.06135224  1
  Cl  Cl28  1  0.06135224  0.47363159  0.79099768  1
  Cl  Cl29  1  0.67401649  0.79099768  0.47363159  1
  Cl  Cl30  1  0.06135224  0.67401649  0.47363159  1
  Cl  Cl31  1  0.67401649  0.06135224  0.79099768  1
loop_
_geom_bond_atom_site_label_1
_geom_bond_atom_site_label_2
_geom_bond_distance
_geom_bond_site_symmetry_2
Ge0 Ge8 2.428539 1_555
Ge1 Ge9 2.428539 1_555
Ge2 Ge9 2.428540 1_555
Ge3 Ge9 2.428540 1_555
Ge4 Ge8 2.428539 1_555
Ge5 Ge8 2.428540 1_555
Ge6 Ge8 2.428540 1_555
Ge7 Ge9 2.428539 1_555
Cl0 Ge5 2.131821 1_565
Cl1 Ge0 2.131822 1_655
Cl2 Ge6 2.131822 1_556
Cl3 Ge0 2.131807 1_555
Cl4 Ge4 2.131827 1_556
Cl5 Ge0 2.131830 1_556
Cl6 Ge2 2.131807 1_455
Cl7 Ge3 2.131830 1_554
Cl8 Ge1 2.131827 1_555
Cl9 Ge3 2.131807 1_554
Cl10 Ge1 2.131826 1_555
Cl11 Ge7 2.131830 1_545
Cl12 Ge11 2.111941 1_665
Cl13 Ge10 2.111940 1_555
Cl14 Ge10 2.111950 1_555
Cl15 Ge10 2.111940 1_555
Cl16 Ge11 2.111940 1_566
Cl17 Ge11 2.111940 1_656
Cl18 Ge11 2.111950 1_666
Cl19 Ge10 2.111941 1_555
Cl20 Ge7 2.131822 1_545
Cl21 Ge6 2.131830 1_565
Cl22 Ge5 2.131807 1_555
Cl23 Ge6 2.131807 1_555
Cl24 Ge4 2.131827 1_655
Cl25 Ge5 2.131830 1_655
Cl26 Ge4 2.131826 1_565
Cl27 Ge3 2.131822 1_554
Cl28 Ge2 2.131821 1_455
Cl29 Ge1 2.131827 1_555
Cl30 Ge2 2.131830 1_455
Cl31 Ge7 2.131807 1_545
