# generated using pymatgen
data_KP(HO2)2
_symmetry_space_group_name_H-M   'P 1'
_cell_length_a   7.06972350
_cell_length_b   7.30485522
_cell_length_c   7.39095313
_cell_angle_alpha   88.08334574
_cell_angle_beta   86.92569951
_cell_angle_gamma   87.80171077
_symmetry_Int_Tables_number   1
_chemical_formula_structural   KP(HO2)2
_chemical_formula_sum   'K4 P4 H8 O16'
_cell_volume   380.67495208
_cell_formula_units_Z   4
loop_
 _symmetry_equiv_pos_site_id
 _symmetry_equiv_pos_as_xyz
  1  'x, y, z'
loop_
 _atom_site_type_symbol
 _atom_site_label
 _atom_site_symmetry_multiplicity
 _atom_site_fract_x
 _atom_site_fract_y
 _atom_site_fract_z
 _atom_site_occupancy
  K  K0  1  0.06986353  0.82041600  0.69410672  1
  K  K1  1  0.93013647  0.17958400  0.30589328  1
  K  K2  1  0.63980838  0.24839571  0.79558247  1
  K  K3  1  0.36019162  0.75160429  0.20441753  1
  P  P0  1  0.57266284  0.75238756  0.69921404  1
  P  P1  1  0.42733716  0.24761244  0.30078596  1
  P  P2  1  0.11356627  0.27524676  0.79224750  1
  P  P3  1  0.88643373  0.72475324  0.20775250  1
  H  H0  1  0.27431997  0.12730506  0.00529586  1
  H  H1  1  0.34851739  0.56304134  0.79733038  1
  H  H2  1  0.72239432  0.58241881  0.48470938  1
  H  H3  1  0.27760568  0.41758119  0.51529062  1
  H  H4  1  0.65148261  0.43695866  0.20266962  1
  H  H5  1  0.50000000  0.00000000  0.50000000  1
  H  H6  1  0.72568003  0.87269494  0.99470414  1
  H  H7  1  -0.00000000  0.50000000  -0.00000000  1
  O  O0  1  0.01189693  0.65480374  0.04553127  1
  O  O1  1  0.98810307  0.34519626  0.95446873  1
  O  O2  1  0.30837208  0.11972898  0.20650610  1
  O  O3  1  0.99587378  0.80990137  0.34767836  1
  O  O4  1  0.00412622  0.19009863  0.65232164  1
  O  O5  1  0.74653189  0.87941098  0.12898682  1
  O  O6  1  0.25346811  0.12058902  0.87101318  1
  O  O7  1  0.69162792  0.88027102  0.79349390  1
  O  O8  1  0.42924749  0.66575483  0.84342876  1
  O  O9  1  0.76395745  0.56835823  0.28823609  1
  O  O10  1  0.23604255  0.43164177  0.71176391  1
  O  O11  1  0.69163470  0.58475129  0.62295233  1
  O  O12  1  0.57075251  0.33424517  0.15657124  1
  O  O13  1  0.53593042  0.15490960  0.45473567  1
  O  O14  1  0.46406958  0.84509040  0.54526433  1
  O  O15  1  0.30836530  0.41524871  0.37704767  1
loop_
_geom_bond_atom_site_label_1
_geom_bond_atom_site_label_2
_geom_bond_distance
_geom_bond_site_symmetry_2
K0 O3 2.644853 1_455
K0 O4 2.732631 1_565
K0 O7 2.757218 1_455
K0 O0 2.844549 1_556
K0 O14 2.950605 1_555
K0 O6 2.965579 1_565
K0 O8 2.991143 1_555
K0 O10 3.032858 1_555
K0 O11 3.309802 1_455
K1 O4 2.644853 1_655
K1 O3 2.732631 1_545
K1 O2 2.757218 1_655
K1 O1 2.844549 1_554
K1 O13 2.950605 1_555
K1 O5 2.965579 1_545
K1 O12 2.991143 1_555
K1 O9 3.032858 1_555
K1 O15 3.309802 1_655
K2 O7 2.700424 1_545
K2 O4 2.754964 1_655
K2 O11 2.758330 1_555
K2 O12 2.774678 1_556
K2 O13 2.775600 1_555
K2 O1 2.905421 1_555
K2 O6 2.939391 1_555
K3 O2 2.700424 1_565
K3 O3 2.754964 1_455
K3 O15 2.758330 1_555
K3 O8 2.774678 1_554
K3 O14 2.775600 1_555
K3 O0 2.905421 1_555
K3 O5 2.939391 1_555
H0 O6 1.014226 1_554
H0 O2 1.518046 1_555
H1 O8 1.037111 1_555
H1 O10 1.451434 1_555
H1 K0 2.789053 1_555
H2 O11 1.033729 1_555
H2 O9 1.472227 1_555
H3 O15 1.033729 1_555
H3 O10 1.472227 1_555
H4 O12 1.037111 1_555
H4 O9 1.451434 1_555
H4 K1 2.789053 1_555
H5 O14 1.201899 1_545
H5 O13 1.201899 1_555
H6 O5 1.014226 1_556
H6 O7 1.518046 1_555
H7 O0 1.197856 1_555
H7 O1 1.197856 1_454
O0 P3 1.541918 1_455
O1 P2 1.541918 1_655
O2 P1 1.494080 1_555
O3 P3 1.490242 1_555
O4 P2 1.490242 1_555
O5 P3 1.589195 1_555
O6 P2 1.589195 1_555
O7 P0 1.494080 1_555
O8 P0 1.566138 1_555
O9 P3 1.544002 1_555
O10 P2 1.544002 1_555
O11 P0 1.562367 1_555
O12 P1 1.566138 1_555
O13 P1 1.531312 1_555
O14 P0 1.531312 1_555
O15 P1 1.562367 1_555
