# generated using pymatgen
data_Na3LaTa3Si3(PO8)3
_symmetry_space_group_name_H-M   'P 1'
_cell_length_a   9.01988828
_cell_length_b   9.01762516
_cell_length_c   22.95257059
_cell_angle_alpha   90.01207359
_cell_angle_beta   90.02721147
_cell_angle_gamma   119.73823118
_symmetry_Int_Tables_number   1
_chemical_formula_structural   Na3LaTa3Si3(PO8)3
_chemical_formula_sum   'Na9 La3 Ta9 Si9 P9 O72'
_cell_volume   1621.04370653
_cell_formula_units_Z   3
loop_
 _symmetry_equiv_pos_site_id
 _symmetry_equiv_pos_as_xyz
  1  'x, y, z'
loop_
 _atom_site_type_symbol
 _atom_site_label
 _atom_site_symmetry_multiplicity
 _atom_site_fract_x
 _atom_site_fract_y
 _atom_site_fract_z
 _atom_site_occupancy
  Na  Na0  1  0.64742195  0.00743638  0.24745895  1
  Na  Na1  1  0.36309066  0.35257069  0.24596577  1
  Na  Na2  1  0.70692956  0.67645681  0.41584629  1
  Na  Na3  1  0.01013252  0.01064141  0.49861759  1
  Na  Na4  1  0.00092891  0.00138051  0.00044235  1
  Na  Na5  1  0.66780188  0.33274109  0.83215251  1
  Na  Na6  1  0.68252304  0.34583103  0.33179114  1
  Na  Na7  1  0.32317004  0.65935191  0.16291522  1
  Na  Na8  1  0.34043181  0.66492247  0.66548601  1
  La  La0  1  0.01038480  0.00373972  0.35919326  1
  La  La1  1  0.66439405  0.33581566  0.68807534  1
  La  La2  1  0.67159195  0.34983790  0.16865476  1
  Ta  Ta0  1  0.00082135  0.00149296  0.85921584  1
  Ta  Ta1  1  0.99792710  0.99768649  0.64494654  1
  Ta  Ta2  1  0.99722945  0.99554039  0.14491351  1
  Ta  Ta3  1  0.66079827  0.33188261  0.97889327  1
  Ta  Ta4  1  0.66806053  0.33353079  0.48027488  1
  Ta  Ta5  1  0.33571357  0.66527079  0.01306583  1
  Ta  Ta6  1  0.33430510  0.66826268  0.52063010  1
  Ta  Ta7  1  0.33211425  0.66764153  0.31557692  1
  Ta  Ta8  1  0.33314232  0.66621050  0.81353783  1
  Si  Si0  1  0.69706000  0.70162002  0.25263126  1
  Si  Si1  1  0.66548539  0.63206172  0.58307308  1
  Si  Si2  1  0.35721723  0.33347926  0.08255525  1
  Si  Si3  1  0.62187121  0.66307499  0.91428049  1
  Si  Si4  1  0.04078413  0.38084490  0.91472044  1
  Si  Si5  1  0.33851781  0.95795367  0.91467089  1
  Si  Si6  1  0.60886913  0.96073115  0.41930852  1
  Si  Si7  1  0.34520441  0.38562259  0.42040033  1
  Si  Si8  1  0.03833592  0.64816805  0.42057035  1
  P  P0  1  0.29171675  0.98735767  0.24567193  1
  P  P1  1  0.00764923  0.29996535  0.24719599  1
  P  P2  1  0.27063936  0.28742316  0.75342164  1
  P  P3  1  0.01827231  0.73020125  0.75335446  1
  P  P4  1  0.71218699  0.98304044  0.75344839  1
  P  P5  1  0.96503130  0.33182210  0.58270292  1
  P  P6  1  0.36696942  0.03613920  0.58263230  1
  P  P7  1  0.97644254  0.64083025  0.07869823  1
  P  P8  1  0.66548828  0.02787136  0.08127024  1
  O  O0  1  0.23061076  0.03578634  0.29991335  1
  O  O1  1  0.78835116  0.77665535  0.31345521  1
  O  O2  1  0.98014329  0.19834918  0.30240404  1
  O  O3  1  0.16777028  0.18142730  0.80686327  1
  O  O4  1  0.01279687  0.83172896  0.80676378  1
  O  O5  1  0.81886835  0.98789010  0.80689913  1
  O  O6  1  0.80781947  0.97517421  0.69693459  1
  O  O7  1  0.16882965  0.19537727  0.69698426  1
  O  O8  1  0.02833081  0.83454775  0.69685251  1
  O  O9  1  0.81268310  0.83373088  0.19600342  1
  O  O10  1  0.02815523  0.19703645  0.19351841  1
  O  O11  1  0.17338322  0.97492638  0.19214992  1
  O  O12  1  0.90471023  0.37160929  0.63869458  1
  O  O13  1  0.46813017  0.09190088  0.63853106  1
  O  O14  1  0.62253574  0.52550641  0.64167265  1
  O  O15  1  0.93682369  0.55216035  0.13724113  1
  O  O16  1  0.62841433  0.07618360  0.14071373  1
  O  O17  1  0.44238894  0.37645599  0.14601270  1
  O  O18  1  0.48065602  0.31187086  0.03243632  1
  O  O19  1  0.84291720  0.53474533  0.03068968  1
  O  O20  1  0.69392903  0.16198569  0.03296382  1
  O  O21  1  0.46415589  0.16012355  0.53099064  1
  O  O22  1  0.69554957  0.53077677  0.52726430  1
  O  O23  1  0.83882640  0.30079364  0.53095872  1
  O  O24  1  0.52969332  0.69448749  0.96954532  1
  O  O25  1  0.16771511  0.47508688  0.96909308  1
  O  O26  1  0.30907840  0.83598900  0.96957003  1
  O  O27  1  0.49723277  0.84394930  0.47307555  1
  O  O28  1  0.34778933  0.50234646  0.47380856  1
  O  O29  1  0.15156403  0.65635594  0.47529076  1
  O  O30  1  0.13783078  0.63862842  0.35991324  1
  O  O31  1  0.49850182  0.86574161  0.35745042  1
  O  O32  1  0.36268227  0.49825507  0.35855559  1
  O  O33  1  0.13628099  0.50416166  0.85773728  1
  O  O34  1  0.36734486  0.86365176  0.85768348  1
  O  O35  1  0.49719262  0.63265482  0.85771098  1
  O  O36  1  0.00034924  0.80284302  0.42445154  1
  O  O37  1  0.78741019  0.96480489  0.42235514  1
  O  O38  1  0.18365528  0.20200060  0.42628455  1
  O  O39  1  0.01640040  0.18830465  0.90745745  1
  O  O40  1  0.17285924  0.98596838  0.90710517  1
  O  O41  1  0.81399185  0.82905001  0.90726583  1
  O  O42  1  0.97714367  0.16377198  0.59076477  1
  O  O43  1  0.18976123  0.03010965  0.59113710  1
  O  O44  1  0.84474805  0.82106033  0.59304561  1
  O  O45  1  0.97799362  0.81558755  0.08605845  1
  O  O46  1  0.83314818  0.01511151  0.08676103  1
  O  O47  1  0.17123769  0.15442776  0.08803422  1
  O  O48  1  0.69421937  0.14141566  0.75531940  1
  O  O49  1  0.44614717  0.30328152  0.75661815  1
  O  O50  1  0.86053848  0.55443230  0.75502216  1
  O  O51  1  0.65429359  0.50591144  0.24657472  1
  O  O52  1  0.85166223  0.32055271  0.23926725  1
  O  O53  1  0.47607453  0.13006718  0.23620666  1
  O  O54  1  0.64072201  0.49324491  0.92696828  1
  O  O55  1  0.85234939  0.35930727  0.92807295  1
  O  O56  1  0.50749462  0.14676132  0.92722247  1
  O  O57  1  0.62127936  0.14641166  0.42569246  1
  O  O58  1  0.52695971  0.38270770  0.42449209  1
  O  O59  1  0.85196801  0.47047358  0.42539504  1
  O  O60  1  0.33077469  0.49551115  0.06681873  1
  O  O61  1  0.15768683  0.67795330  0.06370147  1
  O  O62  1  0.51480015  0.85019496  0.06615771  1
  O  O63  1  0.32365931  0.85031132  0.57064015  1
  O  O64  1  0.51189183  0.67607507  0.57284580  1
  O  O65  1  0.14814674  0.47832959  0.57080537  1
  O  O66  1  0.28785070  0.81322193  0.25162060  1
  O  O67  1  0.51131539  0.70432947  0.25322236  1
  O  O68  1  0.18032362  0.47240545  0.25083278  1
  O  O69  1  0.28440138  0.46773640  0.75631801  1
  O  O70  1  0.18513357  0.71747041  0.75572727  1
  O  O71  1  0.53390145  0.81631795  0.75579810  1
loop_
_geom_bond_atom_site_label_1
_geom_bond_atom_site_label_2
_geom_bond_distance
_geom_bond_site_symmetry_2
Na0 O53 2.318096 1_555
Na0 O67 2.380531 1_545
Na0 O52 2.498358 1_555
Na0 O16 2.553875 1_555
Na0 O66 2.821441 1_545
Na0 O31 2.848217 1_545
Na0 O9 2.896175 1_545
Na0 O2 2.903571 1_555
Na1 O51 2.282126 1_555
Na1 O68 2.380203 1_555
Na1 O17 2.381214 1_555
Na1 O53 2.672677 1_555
Na1 O67 2.769343 1_555
Na1 O0 2.781715 1_555
Na1 O10 2.887110 1_555
Na1 O32 2.899568 1_555
Na2 O36 2.312888 1_655
Na2 O58 2.329350 1_555
Na2 O37 2.331851 1_555
Na2 O1 2.494621 1_555
Na2 O59 2.760505 1_555
Na3 O38 2.346918 1_555
Na3 O36 2.500278 1_545
Na3 O37 2.538343 1_445
Na3 O42 2.622144 1_455
Na3 O43 2.622949 1_555
Na3 O44 2.705552 1_445
Na4 O47 2.489797 1_555
Na4 O45 2.523762 1_445
Na4 O46 2.533681 1_455
Na4 O39 2.680333 1_554
Na4 O41 2.688397 1_444
Na4 O40 2.688995 1_544
Na5 O49 2.557951 1_555
Na5 O48 2.559376 1_555
Na5 O50 2.590253 1_555
Na5 O54 2.690829 1_555
Na5 O56 2.695133 1_555
Na5 O55 2.697423 1_555
Na6 O51 2.517878 1_555
Na6 O59 2.550825 1_555
Na6 O58 2.659345 1_555
Na6 O57 2.683554 1_555
Na6 O52 2.690221 1_555
Na6 O53 2.909704 1_555
Na7 O68 2.534396 1_555
Na7 O66 2.571009 1_555
Na7 O67 2.579604 1_555
Na7 O60 2.674291 1_555
Na7 O61 2.772566 1_555
Na7 O62 2.817023 1_555
Na8 O64 2.602331 1_555
Na8 O71 2.614928 1_555
Na8 O69 2.621978 1_555
Na8 O70 2.671649 1_555
Na8 O65 2.767969 1_555
Na8 O63 2.794452 1_555
La0 O1 2.287969 1_445
La0 O38 2.287975 1_555
La0 O0 2.305188 1_555
La0 O2 2.308391 1_455
La0 O36 2.317812 1_545
La0 O37 2.360588 1_445
La1 O14 2.200914 1_555
La1 O12 2.322884 1_555
La1 O13 2.323592 1_555
La1 O49 2.422096 1_555
La1 O50 2.431793 1_555
La1 O48 2.448722 1_555
La2 O17 2.256794 1_555
La2 O15 2.289965 1_555
La2 O51 2.328265 1_555
La2 O16 2.387093 1_555
La2 O52 2.399544 1_555
La2 O53 2.445047 1_555
O0 P0 1.511191 1_545
O1 Si0 1.590800 1_555
O2 P1 1.510690 1_655
O3 P2 1.549475 1_555
O3 Ta0 1.980608 1_555
O4 P3 1.545276 1_555
O4 Ta0 1.991989 1_565
O5 P4 1.545985 1_555
O5 Ta0 1.987169 1_665
O6 P4 1.579048 1_555
O6 Ta1 2.015476 1_555
O7 P2 1.566045 1_555
O7 Ta1 2.062028 1_445
O8 P3 1.578425 1_555
O8 Ta1 2.014810 1_455
O9 Si0 1.722097 1_555
O9 Ta2 1.966720 1_555
O10 P1 1.607385 1_555
O10 Ta2 2.029767 1_445
O11 P0 1.594033 1_555
O11 Ta2 2.006506 1_455
O12 P5 1.506822 1_555
O13 P6 1.508310 1_555
O14 Si1 1.585611 1_555
O15 P7 1.513288 1_555
O16 P8 1.519170 1_555
O17 Si2 1.601605 1_555
O18 Si2 1.678487 1_555
O18 Ta3 1.973362 1_554
O19 P7 1.560508 1_555
O19 Ta3 2.115256 1_554
O20 P8 1.565511 1_555
O20 Ta3 2.105092 1_554
O21 P6 1.566093 1_555
O21 Ta4 2.081465 1_555
O22 Si1 1.671569 1_555
O22 Ta4 1.987423 1_555
O23 P5 1.570753 1_555
O23 Ta4 2.064586 1_555
O24 Si3 1.617109 1_555
O24 Ta5 1.916518 1_556
O25 Si4 1.619702 1_555
O25 Ta5 1.917222 1_556
O26 Si5 1.605958 1_555
O26 Ta5 1.947234 1_556
O27 Si6 1.611103 1_555
O27 Ta6 1.885062 1_555
O28 Si7 1.608184 1_555
O28 Ta6 1.894260 1_555
O29 Si8 1.596846 1_555
O29 Ta6 1.906343 1_555
O30 Si8 1.681914 1_555
O30 Ta7 1.929233 1_555
O31 Si6 1.700813 1_555
O31 Ta7 1.924954 1_555
O32 Si7 1.706866 1_555
O32 Ta7 1.949483 1_555
O33 Si4 1.655474 1_555
O33 Ta8 1.935379 1_555
O34 Si5 1.649501 1_555
O34 Ta8 1.935430 1_555
O35 Si3 1.648709 1_555
O35 Ta8 1.937007 1_555
O36 Si8 1.595275 1_555
O37 Si6 1.594018 1_555
O38 Si7 1.577948 1_555
O39 Si4 1.646738 1_555
O39 Ta0 1.961601 1_555
O40 Si5 1.643452 1_555
O40 Ta0 1.962073 1_565
O41 Si3 1.642034 1_555
O41 Ta0 1.969014 1_665
O42 P5 1.583351 1_555
O42 Ta1 2.025811 1_545
O43 P6 1.584304 1_555
O43 Ta1 2.026121 1_445
O44 Si1 1.684373 1_555
O44 Ta1 1.918168 1_555
O45 P7 1.578035 1_555
O45 Ta2 2.051294 1_555
O46 P8 1.577513 1_555
O46 Ta2 2.064082 1_545
O47 Si2 1.658332 1_555
O47 Ta2 1.998114 1_445
O48 P4 1.515711 1_545
O49 P2 1.518950 1_555
O50 P3 1.516844 1_655
O51 Si0 1.614683 1_555
O52 P1 1.518584 1_655
O53 P0 1.531650 1_545
O54 Si3 1.648507 1_555
O54 Ta3 1.957671 1_555
O55 Si4 1.641196 1_655
O55 Ta3 1.996273 1_555
O56 Si5 1.652209 1_545
O56 Ta3 1.952670 1_555
O57 Si6 1.628356 1_545
O57 Ta4 1.971557 1_555
O58 Si7 1.655231 1_555
O58 Ta4 2.003594 1_555
O59 Si8 1.653383 1_655
O59 Ta4 1.957994 1_555
O60 Si2 1.633450 1_555
O60 Ta5 1.949563 1_555
O61 P7 1.536483 1_455
O61 Ta5 2.031323 1_555
O62 P8 1.540674 1_565
O62 Ta5 2.049396 1_555
O63 P6 1.544893 1_565
O63 Ta6 2.043894 1_555
O64 Si1 1.636211 1_555
O64 Ta6 1.973150 1_555
O65 P5 1.543960 1_455
O65 Ta6 2.056406 1_555
O66 P0 1.559308 1_555
O66 Ta7 2.134940 1_555
O67 Si0 1.687709 1_555
O67 Ta7 2.059690 1_555
O68 P1 1.564578 1_555
O68 Ta7 2.188164 1_555
O69 P2 1.569523 1_555
O69 Ta8 2.083088 1_555
O70 P3 1.566117 1_555
O70 Ta8 2.089835 1_555
O71 P4 1.565518 1_555
O71 Ta8 2.106896 1_555
