# generated using pymatgen
data_Sc2SiSn2S5O24
_symmetry_space_group_name_H-M   'P 1'
_cell_length_a   8.84416205
_cell_length_b   8.84359294
_cell_length_c   22.90075404
_cell_angle_alpha   89.72001530
_cell_angle_beta   89.97151461
_cell_angle_gamma   120.16001150
_symmetry_Int_Tables_number   1
_chemical_formula_structural   Sc2SiSn2S5O24
_chemical_formula_sum   'Sc6 Si3 Sn6 S15 O72'
_cell_volume   1548.65836819
_cell_formula_units_Z   3
loop_
 _symmetry_equiv_pos_site_id
 _symmetry_equiv_pos_as_xyz
  1  'x, y, z'
loop_
 _atom_site_type_symbol
 _atom_site_label
 _atom_site_symmetry_multiplicity
 _atom_site_fract_x
 _atom_site_fract_y
 _atom_site_fract_z
 _atom_site_occupancy
  Sc  Sc0  1  0.98911050  0.99960995  0.35891284  1
  Sc  Sc1  1  0.00152509  0.00171181  0.85585750  1
  Sc  Sc2  1  0.68098418  0.33677025  0.68581995  1
  Sc  Sc3  1  0.65572510  0.33530610  0.18532797  1
  Sc  Sc4  1  0.65361547  0.33035572  0.98144029  1
  Sc  Sc5  1  0.33183337  0.66490552  0.81099573  1
  Si  Si0  1  0.96194726  0.33656302  0.58353393  1
  Si  Si1  1  0.37377372  0.33363364  0.08336415  1
  Si  Si2  1  0.61810861  0.95490028  0.41760544  1
  Sn  Sn0  1  0.99916869  0.00474837  0.64550896  1
  Sn  Sn1  1  0.00523319  0.00471163  0.14637116  1
  Sn  Sn2  1  0.67166417  0.32297741  0.47944487  1
  Sn  Sn3  1  0.33338278  0.66233186  0.02102290  1
  Sn  Sn4  1  0.33458797  0.66653231  0.52104506  1
  Sn  Sn5  1  0.33769028  0.67248902  0.31406846  1
  S  S0  1  0.28890121  0.99794247  0.25129956  1
  S  S1  1  0.71118057  0.71056348  0.25022021  1
  S  S2  1  0.00102029  0.29370261  0.25130992  1
  S  S3  1  0.29161367  0.28955038  0.75057624  1
  S  S4  1  -0.00061389  0.71280866  0.75025829  1
  S  S5  1  0.71029391  -0.00055607  0.75092053  1
  S  S6  1  0.37530093  0.04294553  0.58447279  1
  S  S7  1  0.66707857  0.62169076  0.58348036  1
  S  S8  1  0.95698834  0.62443156  0.08329775  1
  S  S9  1  0.66646559  0.04244641  0.08345314  1
  S  S10  1  0.62308190  0.66700897  0.91578222  1
  S  S11  1  0.04164493  0.37703892  0.91610363  1
  S  S12  1  0.33412780  0.95424430  0.91638507  1
  S  S13  1  0.33595074  0.37587633  0.41715943  1
  S  S14  1  0.04199911  0.66662598  0.41639627  1
  O  O0  1  0.20730612  0.02540273  0.30244400  1
  O  O1  1  0.82050209  0.79336170  0.30134381  1
  O  O2  1  0.97517676  0.18347927  0.30259412  1
  O  O3  1  0.20556575  0.17727053  0.80241596  1
  O  O4  1  0.97283035  0.79686626  0.80182364  1
  O  O5  1  0.82255159  0.02793454  0.80229080  1
  O  O6  1  0.78532304  0.96251607  0.69765473  1
  O  O7  1  0.17919111  0.21263275  0.69745938  1
  O  O8  1  0.03445839  0.82449678  0.69598811  1
  O  O9  1  0.78748129  0.82264553  0.19589911  1
  O  O10  1  0.03696422  0.21882574  0.19773198  1
  O  O11  1  0.17861190  0.96299470  0.19741344  1
  O  O12  1  0.87082644  0.36745352  0.64015831  1
  O  O13  1  0.48338265  0.12341753  0.63602113  1
  O  O14  1  0.63594219  0.51280157  0.63564039  1
  O  O15  1  0.88283846  0.51605076  0.13597745  1
  O  O16  1  0.63801437  0.11941332  0.13600068  1
  O  O17  1  0.49652154  0.36592465  0.14003442  1
  O  O18  1  0.46387641  0.30089010  0.02662146  1
  O  O19  1  0.85187018  0.54713692  0.03061907  1
  O  O20  1  0.70065366  0.15056425  0.03068936  1
  O  O21  1  0.44543652  0.15241330  0.53062783  1
  O  O22  1  0.69717910  0.54668494  0.52934541  1
  O  O23  1  0.84041109  0.29942135  0.52626841  1
  O  O24  1  0.54801321  0.70388223  0.96894181  1
  O  O25  1  0.15407240  0.45384894  0.96918903  1
  O  O26  1  0.29895051  0.84255260  0.97056680  1
  O  O27  1  0.53388200  0.83052662  0.47533020  1
  O  O28  1  0.29953017  0.45125607  0.46927699  1
  O  O29  1  0.15124763  0.69772832  0.46887424  1
  O  O30  1  0.11529001  0.62697073  0.36333519  1
  O  O31  1  0.49925753  0.87223971  0.35877829  1
  O  O32  1  0.36865167  0.48556858  0.36322865  1
  O  O33  1  0.12771607  0.48934752  0.86425469  1
  O  O34  1  0.36056879  0.86997701  0.86481558  1
  O  O35  1  0.51086554  0.63866591  0.86434035  1
  O  O36  1  0.02890530  0.82253127  0.40745511  1
  O  O37  1  0.80742640  0.97352511  0.40725406  1
  O  O38  1  0.18354534  0.20368897  0.40815751  1
  O  O39  1  0.02685534  0.20418324  0.90767679  1
  O  O40  1  0.17763461  0.97138941  0.90853317  1
  O  O41  1  0.79721526  0.82389338  0.90726423  1
  O  O42  1  0.97974409  0.16250955  0.59186444  1
  O  O43  1  0.19742691  0.02002460  0.59182501  1
  O  O44  1  0.82631701  0.79720021  0.59095282  1
  O  O45  1  0.97310835  0.79945081  0.09139959  1
  O  O46  1  0.82113256  0.01861452  0.09149633  1
  O  O47  1  0.18122871  0.15886537  0.09137928  1
  O  O48  1  0.69090301  0.15269290  0.74256927  1
  O  O49  1  0.46281976  0.30748351  0.74173433  1
  O  O50  1  0.84314947  0.54151262  0.74278554  1
  O  O51  1  0.69517570  0.53942818  0.24213196  1
  O  O52  1  0.84923528  0.31335643  0.24155635  1
  O  O53  1  0.46336819  0.14949173  0.24202299  1
  O  O54  1  0.64251480  0.51375854  0.92411785  1
  O  O55  1  0.87048896  0.35915285  0.92495644  1
  O  O56  1  0.49029197  0.12549235  0.92396919  1
  O  O57  1  0.63507755  0.14579350  0.42276209  1
  O  O58  1  0.49593854  0.36411670  0.42569724  1
  O  O59  1  0.86527562  0.51217916  0.42360191  1
  O  O60  1  0.35572007  0.50751408  0.07530806  1
  O  O61  1  0.13573991  0.64861216  0.07530351  1
  O  O62  1  0.50708087  0.86718092  0.07528936  1
  O  O63  1  0.35804719  0.86942677  0.57677993  1
  O  O64  1  0.51175479  0.64168606  0.57699320  1
  O  O65  1  0.15437579  0.50985033  0.57431212  1
  O  O66  1  0.30331158  0.83614153  0.25626627  1
  O  O67  1  0.53314168  0.68990820  0.25596627  1
  O  O68  1  0.16334409  0.47170476  0.25886717  1
  O  O69  1  0.30640568  0.46242003  0.75895095  1
  O  O70  1  0.15571432  0.69546753  0.75803915  1
  O  O71  1  0.53624054  0.84272249  0.75933113  1
loop_
_geom_bond_atom_site_label_1
_geom_bond_atom_site_label_2
_geom_bond_distance
_geom_bond_site_symmetry_2
O0 S0 1.459312 1_545
O0 Sc0 2.236210 1_445
O1 S1 1.462804 1_555
O1 Sc0 2.140344 1_555
O2 S2 1.465065 1_655
O2 Sc0 2.122197 1_545
O3 S3 1.484168 1_555
O3 Sc1 2.080559 1_555
O4 S4 1.478509 1_655
O4 Sc1 2.106573 1_665
O5 S5 1.478459 1_555
O5 Sc1 2.105254 1_655
O6 S5 1.501930 1_565
O6 Sn0 2.103836 1_565
O7 S3 1.503549 1_555
O7 Sn0 2.100534 1_455
O8 S4 1.515321 1_555
O8 Sn0 2.111187 1_465
O9 S1 1.516704 1_555
O9 Sn1 2.109967 1_665
O10 S2 1.504686 1_555
O10 Sn1 2.129748 1_555
O11 S0 1.507248 1_555
O11 Sn1 2.102319 1_565
O12 Si0 1.621500 1_555
O12 Sc2 1.877179 1_555
O13 S6 1.462715 1_555
O13 Sc2 2.150452 1_555
O14 S7 1.466955 1_555
O14 Sc2 2.123397 1_555
O15 S8 1.469852 1_555
O15 Sc3 2.149594 1_555
O16 S9 1.467837 1_555
O16 Sc3 2.160244 1_555
O17 Si1 1.624147 1_555
O17 Sc3 1.874449 1_555
O18 Si1 1.625411 1_555
O18 Sc4 1.873681 1_554
O19 S8 1.468853 1_555
O19 Sc4 2.159514 1_554
O20 S9 1.470902 1_555
O20 Sc4 2.149605 1_554
O21 S6 1.492193 1_555
O21 Sn2 2.144793 1_555
O22 S7 1.494304 1_555
O22 Sn2 2.201036 1_555
O23 Si0 1.622943 1_555
O23 Sn2 1.931931 1_555
O24 S10 1.499932 1_555
O24 Sn3 2.110306 1_556
O25 S11 1.502865 1_555
O25 Sn3 2.099662 1_556
O26 S12 1.513569 1_555
O26 Sn3 2.106684 1_556
O27 Si2 1.635157 1_555
O27 Sn4 1.928934 1_555
O28 S13 1.481831 1_555
O28 Sn4 2.134339 1_555
O29 S14 1.480151 1_555
O29 Sn4 2.140325 1_555
O30 S14 1.500502 1_555
O30 Sn5 2.121696 1_555
O31 Si2 1.641069 1_555
O31 Sn5 1.921839 1_555
O32 S13 1.502022 1_555
O32 Sn5 2.124134 1_555
O33 S11 1.484476 1_555
O33 Sc5 2.078452 1_555
O34 S12 1.479256 1_555
O34 Sc5 2.105170 1_555
O35 S10 1.479765 1_555
O35 Sc5 2.102787 1_555
O36 S14 1.453969 1_555
O36 Sc0 2.085483 1_455
O37 Si2 1.615210 1_555
O37 Sc0 1.866546 1_555
O38 S13 1.455684 1_555
O38 Sc0 2.095094 1_445
O39 S11 1.480932 1_555
O39 Sc1 2.069436 1_555
O40 S12 1.477082 1_555
O40 Sc1 2.090796 1_565
O41 S10 1.478106 1_555
O41 Sc1 2.061176 1_665
O42 Si0 1.634347 1_555
O42 Sn0 1.926017 1_555
O43 S6 1.491042 1_555
O43 Sn0 2.088635 1_455
O44 S7 1.492699 1_555
O44 Sn0 2.114644 1_565
O45 S8 1.493831 1_555
O45 Sn1 2.113076 1_665
O46 S9 1.496349 1_555
O46 Sn1 2.108819 1_655
O47 Si1 1.635421 1_555
O47 Sn1 1.927776 1_555
O48 S5 1.460752 1_555
O48 Sc2 2.114159 1_555
O49 S3 1.454977 1_555
O49 Sc2 2.218505 1_555
O50 S4 1.460436 1_655
O50 Sc2 2.110176 1_555
O51 S1 1.460267 1_555
O51 Sc3 2.112611 1_555
O52 S2 1.454834 1_655
O52 Sc3 2.226737 1_555
O53 S0 1.463268 1_545
O53 Sc3 2.109057 1_555
O54 S10 1.460936 1_555
O54 Sc4 2.122005 1_555
O55 S11 1.454748 1_655
O55 Sc4 2.218222 1_555
O56 S12 1.460241 1_545
O56 Sc4 2.120519 1_555
O57 Si2 1.622902 1_545
O57 Sn2 1.937998 1_555
O58 S13 1.482933 1_555
O58 Sn2 2.151381 1_555
O59 S14 1.479226 1_655
O59 Sn2 2.113090 1_555
O60 Si1 1.633435 1_555
O60 Sn3 1.927293 1_555
O61 S8 1.496043 1_455
O61 Sn3 2.097295 1_555
O62 S9 1.494012 1_565
O62 Sn3 2.100882 1_555
O63 S6 1.475289 1_565
O63 Sn4 2.130799 1_555
O64 S7 1.477988 1_555
O64 Sn4 2.119020 1_555
O65 Si0 1.632559 1_455
O65 Sn4 1.926323 1_555
O66 S0 1.502774 1_555
O66 Sn5 2.088809 1_555
O67 S1 1.496865 1_555
O67 Sn5 2.123768 1_555
O68 S2 1.516924 1_555
O68 Sn5 2.097928 1_555
O69 S3 1.480883 1_555
O69 Sc5 2.072244 1_555
O70 S4 1.476436 1_555
O70 Sc5 2.095638 1_555
O71 S5 1.476795 1_565
O71 Sc5 2.064950 1_555
