# generated using pymatgen
data_MgNi(TeO3)4
_symmetry_space_group_name_H-M   'P 1'
_cell_length_a   5.83832694
_cell_length_b   11.80850664
_cell_length_c   10.66806045
_cell_angle_alpha   26.50104106
_cell_angle_beta   47.74251579
_cell_angle_gamma   53.00974675
_symmetry_Int_Tables_number   1
_chemical_formula_structural   MgNi(TeO3)4
_chemical_formula_sum   'Mg1 Ni1 Te4 O12'
_cell_volume   242.89594849
_cell_formula_units_Z   1
loop_
 _symmetry_equiv_pos_site_id
 _symmetry_equiv_pos_as_xyz
  1  'x, y, z'
loop_
 _atom_site_type_symbol
 _atom_site_label
 _atom_site_symmetry_multiplicity
 _atom_site_fract_x
 _atom_site_fract_y
 _atom_site_fract_z
 _atom_site_occupancy
  Mg  Mg0  1  0.66901500  0.49542500  0.66807100  1
  Ni  Ni0  1  0.30919500  0.00169900  0.31015500  1
  Te  Te0  1  0.98467600  0.98404300  0.99538900  1
  Te  Te1  1  0.98709400  0.51553000  0.97537800  1
  Te  Te2  1  0.50054000  0.98585600  0.53389500  1
  Te  Te3  1  0.47480300  0.51485500  0.43531800  1
  O  O0  1  0.35842500  0.33121500  0.07027600  1
  O  O1  1  0.22561300  0.11940100  0.63098800  1
  O  O2  1  0.08637600  0.30486900  0.73382800  1
  O  O3  1  0.89093300  0.19335100  0.23681600  1
  O  O4  1  0.36924400  0.83155800  0.07542600  1
  O  O5  1  0.74458500  0.38012000  0.33990700  1
  O  O6  1  0.22870600  0.64648000  0.61660200  1
  O  O7  1  0.61385500  0.16966200  0.90203300  1
  O  O8  1  0.10093700  0.81950600  0.72124800  1
  O  O9  1  0.86698400  0.68123600  0.25100100  1
  O  O10  1  0.74817900  0.85301300  0.35437500  1
  O  O11  1  0.60252200  0.66623000  0.89609100  1
loop_
_geom_bond_atom_site_label_1
_geom_bond_atom_site_label_2
_geom_bond_distance
_geom_bond_site_symmetry_2
Mg0 O10 2.054007 1_555
Mg0 O0 2.081812 1_556
Mg0 O7 2.087080 1_555
Mg0 O2 2.090100 1_655
Mg0 O9 2.146774 1_555
Mg0 O6 2.172331 1_555
Ni0 O6 2.065134 1_545
Ni0 O0 2.075112 1_555
Ni0 O7 2.104165 1_554
Ni0 O8 2.104467 1_545
Ni0 O3 2.108806 1_455
Ni0 O10 2.145337 1_545
O0 Te1 1.947298 1_454
O0 Te2 2.669735 1_545
O1 Te2 1.943622 1_545
O1 Te0 1.968612 1_445
O2 Te0 2.012195 1_445
O2 Te3 2.086396 1_555
O3 Te1 2.010079 1_554
O3 Te2 2.085437 1_545
O4 Te3 1.953434 1_555
O4 Te0 1.993470 1_454
O5 Te3 1.942932 1_555
O5 Te1 1.968210 1_554
O6 Te1 1.949517 1_455
O6 Te3 2.678817 1_555
O7 Te0 1.940531 1_545
O7 Te3 2.681998 1_555
O8 Te1 1.925075 1_455
O8 Te2 2.347900 1_555
O9 Te0 1.917879 1_554
O9 Te3 2.326526 1_555
O10 Te0 1.954539 1_554
O10 Te2 2.672594 1_555
O11 Te2 1.953756 1_555
O11 Te1 1.993847 1_555
