# generated using pymatgen
data_Na6CaZr7(PO4)12
_symmetry_space_group_name_H-M   'P 1'
_cell_length_a   17.97886134
_cell_length_b   8.98436028
_cell_length_c   23.41510511
_cell_angle_alpha   90.03644513
_cell_angle_beta   89.96182785
_cell_angle_gamma   119.94906475
_symmetry_Int_Tables_number   1
_chemical_formula_structural   Na6CaZr7(PO4)12
_chemical_formula_sum   'Na18 Ca3 Zr21 P36 O144'
_cell_volume   3277.16749451
_cell_formula_units_Z   3
loop_
 _symmetry_equiv_pos_site_id
 _symmetry_equiv_pos_as_xyz
  1  'x, y, z'
loop_
 _atom_site_type_symbol
 _atom_site_label
 _atom_site_symmetry_multiplicity
 _atom_site_fract_x
 _atom_site_fract_y
 _atom_site_fract_z
 _atom_site_occupancy
  Na  Na0  1  0.68629380  0.36440235  0.24739722  1
  Na  Na1  1  0.99560457  0.62649402  0.24734694  1
  Na  Na2  1  0.99471912  0.36221742  0.74550562  1
  Na  Na3  1  0.49490668  0.36247117  0.74555242  1
  Na  Na4  1  0.18574877  0.00774607  0.74547401  1
  Na  Na5  1  0.68580444  0.00780967  0.74563212  1
  Na  Na6  1  0.00000636  0.99958026  0.50024019  1
  Na  Na7  1  0.50000381  0.00014530  0.50034787  1
  Na  Na8  1  0.99894366  0.99822163  0.00152959  1
  Na  Na9  1  0.50113059  0.00220761  0.00108785  1
  Na  Na10  1  0.33320304  0.34207793  0.83159252  1
  Na  Na11  1  0.83296533  0.34185553  0.83262396  1
  Na  Na12  1  0.33319694  0.33353172  0.33509334  1
  Na  Na13  1  0.83329036  0.32354652  0.33270257  1
  Na  Na14  1  0.16914435  0.66540506  0.16613170  1
  Na  Na15  1  0.66834605  0.67705051  0.16549355  1
  Na  Na16  1  0.17078162  0.66572123  0.66154533  1
  Na  Na17  1  0.67078824  0.66577297  0.66173548  1
  Ca  Ca0  1  0.33300645  0.34077090  0.68154628  1
  Ca  Ca1  1  0.83298209  0.34072785  0.68155909  1
  Ca  Ca2  1  0.83316426  0.32436569  0.18263984  1
  Zr  Zr0  1  0.00142740  0.00313421  0.35456242  1
  Zr  Zr1  1  0.49795250  0.99781809  0.35443698  1
  Zr  Zr2  1  0.99933808  0.99814899  0.85527551  1
  Zr  Zr3  1  0.49971802  0.99831413  0.85517087  1
  Zr  Zr4  1  0.99867221  0.99780791  0.64376862  1
  Zr  Zr5  1  0.49878443  0.99767152  0.64377159  1
  Zr  Zr6  1  0.99812148  0.00122656  0.14625049  1
  Zr  Zr7  1  0.50068623  0.99902140  0.14625816  1
  Zr  Zr8  1  0.33320801  0.33447061  0.18608605  1
  Zr  Zr9  1  0.33354870  0.33226224  0.98072703  1
  Zr  Zr10  1  0.83337258  0.33285103  0.98288289  1
  Zr  Zr11  1  0.33334821  0.33316262  0.48258372  1
  Zr  Zr12  1  0.83353346  0.33453000  0.48194639  1
  Zr  Zr13  1  0.16673765  0.66687211  0.01988226  1
  Zr  Zr14  1  0.66595565  0.66572966  0.01922427  1
  Zr  Zr15  1  0.16621664  0.66701873  0.51783265  1
  Zr  Zr16  1  0.66648679  0.66633749  0.51792511  1
  Zr  Zr17  1  0.17040600  0.66641641  0.31525485  1
  Zr  Zr18  1  0.66599143  0.67332021  0.31599674  1
  Zr  Zr19  1  0.16943909  0.66582425  0.81661008  1
  Zr  Zr20  1  0.66958401  0.66622569  0.81679192  1
  P  P0  1  0.14472952  0.00039385  0.24989987  1
  P  P1  1  0.64273022  0.99678670  0.25146478  1
  P  P2  1  0.35582809  0.71122013  0.24965134  1
  P  P3  1  0.85423416  0.71344966  0.25149693  1
  P  P4  1  0.00206397  0.29218664  0.25171065  1
  P  P5  1  0.49963471  0.28920641  0.25024764  1
  P  P6  1  0.14266647  0.28792649  0.75145753  1
  P  P7  1  0.64277658  0.28825298  0.75138649  1
  P  P8  1  0.00135673  0.71185690  0.75185813  1
  P  P9  1  0.50134986  0.71177646  0.75182132  1
  P  P10  1  0.35491197  0.99581264  0.75118955  1
  P  P11  1  0.85485251  0.99578314  0.75112992  1
  P  P12  1  0.48207246  0.33485125  0.58381699  1
  P  P13  1  0.98200007  0.33499502  0.58373360  1
  P  P14  1  0.18553743  0.03614320  0.58400393  1
  P  P15  1  0.68572369  0.03630336  0.58383805  1
  P  P16  1  0.33219362  0.62872977  0.58225424  1
  P  P17  1  0.83230759  0.62866500  0.58231209  1
  P  P18  1  0.47805102  0.62254820  0.08318324  1
  P  P19  1  0.98160801  0.63058114  0.08382914  1
  P  P20  1  0.33345006  0.04363991  0.08352016  1
  P  P21  1  0.83292929  0.03628928  0.08216665  1
  P  P22  1  0.18851170  0.33335997  0.08320647  1
  P  P23  1  0.68498730  0.33328486  0.08392556  1
  P  P24  1  0.31239332  0.66559797  0.91801958  1
  P  P25  1  0.81240717  0.66448901  0.91791364  1
  P  P26  1  0.02061768  0.37624629  0.91671617  1
  P  P27  1  0.52072718  0.37594779  0.91642259  1
  P  P28  1  0.16738782  0.95826313  0.91666863  1
  P  P29  1  0.66765309  0.95930073  0.91674103  1
  P  P30  1  0.31179898  0.95897556  0.41695317  1
  P  P31  1  0.81246180  0.95946884  0.41718776  1
  P  P32  1  0.16769988  0.37583398  0.41730172  1
  P  P33  1  0.66710702  0.37577244  0.41558712  1
  P  P34  1  0.02093684  0.66528137  0.41560477  1
  P  P35  1  0.52007017  0.66518828  0.41722175  1
  O  O0  1  0.10263785  0.02512593  0.30347353  1
  O  O1  1  0.59460654  0.01602515  0.30339762  1
  O  O2  1  0.41013308  0.79533184  0.30320725  1
  O  O3  1  0.91251362  0.80702015  0.30317508  1
  O  O4  1  0.48689335  0.17832775  0.30337528  1
  O  O5  1  0.99394492  0.17983980  0.30371789  1
  O  O6  1  0.09574573  0.17564503  0.80414474  1
  O  O7  1  0.59571896  0.17572562  0.80409978  1
  O  O8  1  0.49298315  0.80652687  0.80429374  1
  O  O9  1  0.99308919  0.80670504  0.80430945  1
  O  O10  1  0.41169391  0.01732720  0.80362130  1
  O  O11  1  0.91169393  0.01740252  0.80353575  1
  O  O12  1  0.39760841  0.97208795  0.69754673  1
  O  O13  1  0.89768372  0.97206848  0.69752390  1
  O  O14  1  0.08593904  0.20540422  0.69799887  1
  O  O15  1  0.58590752  0.20539460  0.69797966  1
  O  O16  1  0.01662888  0.82625538  0.69866533  1
  O  O17  1  0.51647430  0.82607228  0.69866067  1
  O  O18  1  0.39844936  0.82217841  0.19638845  1
  O  O19  1  0.89766856  0.82290082  0.19755686  1
  O  O20  1  0.01356159  0.20507921  0.19773618  1
  O  O21  1  0.51487487  0.20453418  0.19730897  1
  O  O22  1  0.08721803  0.96979818  0.19707031  1
  O  O23  1  0.58785441  0.97288554  0.19722973  1
  O  O24  1  0.45109083  0.36676200  0.64016754  1
  O  O25  1  0.95112287  0.36669339  0.64016913  1
  O  O26  1  0.23268421  0.09750658  0.64028702  1
  O  O27  1  0.73259257  0.09740128  0.64024720  1
  O  O28  1  0.31503411  0.52973547  0.63669940  1
  O  O29  1  0.81494943  0.52972435  0.63674156  1
  O  O30  1  0.43474793  0.51124367  0.13640332  1
  O  O31  1  0.95092443  0.53494465  0.13963316  1
  O  O32  1  0.32089412  0.13084436  0.13653091  1
  O  O33  1  0.81485112  0.10050383  0.13622747  1
  O  O34  1  0.24438349  0.35891750  0.13644254  1
  O  O35  1  0.73273617  0.36731322  0.13975807  1
  O  O36  1  0.23206947  0.30865417  0.02998136  1
  O  O37  1  0.73126440  0.30834858  0.03141609  1
  O  O38  1  0.42226532  0.53601196  0.02993698  1
  O  O39  1  0.92327628  0.53745801  0.03132067  1
  O  O40  1  0.34584939  0.15498489  0.03013497  1
  O  O41  1  0.84606916  0.15204514  0.02910026  1
  O  O42  1  0.23176152  0.15435046  0.53183040  1
  O  O43  1  0.73191551  0.15469048  0.53171635  1
  O  O44  1  0.34595151  0.53943755  0.52941198  1
  O  O45  1  0.84594671  0.53963043  0.52940137  1
  O  O46  1  0.42306235  0.30955433  0.53168538  1
  O  O47  1  0.92296537  0.30954218  0.53162681  1
  O  O48  1  0.26868121  0.69156829  0.97004183  1
  O  O49  1  0.76850793  0.69090824  0.96959044  1
  O  O50  1  0.07831970  0.46539510  0.96855374  1
  O  O51  1  0.57726924  0.46439084  0.96817646  1
  O  O52  1  0.15534103  0.84460889  0.96850981  1
  O  O53  1  0.65413378  0.84434034  0.96841570  1
  O  O54  1  0.26923882  0.84678472  0.46917264  1
  O  O55  1  0.76922800  0.84677779  0.46925247  1
  O  O56  1  0.15422455  0.46151369  0.46945334  1
  O  O57  1  0.65414119  0.46326819  0.46767117  1
  O  O58  1  0.07732751  0.69125316  0.46778982  1
  O  O59  1  0.57650855  0.69201253  0.46926204  1
  O  O60  1  0.06320960  0.64193084  0.36084115  1
  O  O61  1  0.56381917  0.64113349  0.36355749  1
  O  O62  1  0.25660586  0.87169273  0.36325974  1
  O  O63  1  0.75635642  0.87188731  0.36355698  1
  O  O64  1  0.17976547  0.48703853  0.36359320  1
  O  O65  1  0.67886029  0.48358810  0.36079496  1
  O  O66  1  0.06286770  0.48357606  0.86172661  1
  O  O67  1  0.56228875  0.48308629  0.86147656  1
  O  O68  1  0.17953795  0.87537014  0.86165181  1
  O  O69  1  0.67916918  0.87495214  0.86172175  1
  O  O70  1  0.25704161  0.64089376  0.86416670  1
  O  O71  1  0.75710261  0.64088793  0.86387718  1
  O  O72  1  0.01160937  0.82661677  0.40891700  1
  O  O73  1  0.51107482  0.82643075  0.40941418  1
  O  O74  1  0.40131739  0.97671070  0.40933762  1
  O  O75  1  0.90197122  0.97727538  0.40935834  1
  O  O76  1  0.08717634  0.19671705  0.40996805  1
  O  O77  1  0.58636726  0.19588075  0.40853871  1
  O  O78  1  0.01176428  0.19696404  0.90984929  1
  O  O79  1  0.51119567  0.19623244  0.90976795  1
  O  O80  1  0.08701675  0.97694903  0.91013602  1
  O  O81  1  0.58687138  0.97717252  0.90997203  1
  O  O82  1  0.40153919  0.82640136  0.91042561  1
  O  O83  1  0.90150208  0.82605432  0.91013933  1
  O  O84  1  0.49036773  0.16995076  0.58760483  1
  O  O85  1  0.99042962  0.17008618  0.58766072  1
  O  O86  1  0.09495892  0.01980901  0.58809026  1
  O  O87  1  0.59496969  0.01977176  0.58813666  1
  O  O88  1  0.41480556  0.80989487  0.58732336  1
  O  O89  1  0.91480276  0.80998693  0.58731992  1
  O  O90  1  0.48713751  0.80221889  0.09009506  1
  O  O91  1  0.99117968  0.81258175  0.08758417  1
  O  O92  1  0.41356140  0.02423760  0.09075341  1
  O  O93  1  0.91529983  0.01963363  0.08671632  1
  O  O94  1  0.09883261  0.17344805  0.09055647  1
  O  O95  1  0.59415228  0.16859699  0.08767665  1
  O  O96  1  0.34502916  0.15556043  0.74954371  1
  O  O97  1  0.84508585  0.15556689  0.74946531  1
  O  O98  1  0.22987173  0.30038254  0.74998872  1
  O  O99  1  0.72981378  0.30038891  0.74991856  1
  O  O100  1  0.42617457  0.52967699  0.75062151  1
  O  O101  1  0.92625786  0.52983611  0.75060297  1
  O  O102  1  0.34544897  0.53031592  0.24218718  1
  O  O103  1  0.84526798  0.53504037  0.24925758  1
  O  O104  1  0.42060754  0.31136119  0.24254631  1
  O  O105  1  0.92564082  0.32078076  0.25049725  1
  O  O106  1  0.23488158  0.15875772  0.24234688  1
  O  O107  1  0.72927948  0.16067287  0.24983883  1
  O  O108  1  0.32135853  0.50456539  0.92402909  1
  O  O109  1  0.82158396  0.50382772  0.92375637  1
  O  O110  1  0.43115014  0.35762744  0.92352832  1
  O  O111  1  0.93128625  0.35827644  0.92352206  1
  O  O112  1  0.24758259  0.13769700  0.92361313  1
  O  O113  1  0.74770866  0.13823314  0.92353913  1
  O  O114  1  0.32152738  0.13860461  0.42355490  1
  O  O115  1  0.82145589  0.13855587  0.42371020  1
  O  O116  1  0.24786740  0.35662379  0.42365304  1
  O  O117  1  0.74721532  0.35659624  0.42325650  1
  O  O118  1  0.43066167  0.50403894  0.42358765  1
  O  O119  1  0.93137993  0.50501445  0.42335352  1
  O  O120  1  0.17912272  0.49451717  0.07611348  1
  O  O121  1  0.67253955  0.48929370  0.07166568  1
  O  O122  1  0.07195523  0.65290019  0.07155607  1
  O  O123  1  0.56795341  0.64294035  0.07625429  1
  O  O124  1  0.25339547  0.86407805  0.07603969  1
  O  O125  1  0.75466299  0.85468287  0.07093477  1
  O  O126  1  0.17310386  0.85555263  0.57224590  1
  O  O127  1  0.67313089  0.85539177  0.57220203  1
  O  O128  1  0.25464603  0.65524911  0.57139744  1
  O  O129  1  0.75469785  0.65508433  0.57145194  1
  O  O130  1  0.07226038  0.49113835  0.57228099  1
  O  O131  1  0.57220279  0.49081223  0.57222496  1
  O  O132  1  0.15072834  0.83386171  0.25693564  1
  O  O133  1  0.65077901  0.83343371  0.25725372  1
  O  O134  1  0.26558230  0.69155801  0.25667853  1
  O  O135  1  0.76255858  0.68985525  0.25728869  1
  O  O136  1  0.08423492  0.47500605  0.25716819  1
  O  O137  1  0.58301840  0.46669839  0.25727958  1
  O  O138  1  0.14745968  0.46593544  0.75808949  1
  O  O139  1  0.64737738  0.46603402  0.75804746  1
  O  O140  1  0.08625029  0.70107000  0.75811821  1
  O  O141  1  0.58615540  0.70094024  0.75800115  1
  O  O142  1  0.26318558  0.83576579  0.75756865  1
  O  O143  1  0.76310419  0.83566407  0.75748391  1
loop_
_geom_bond_atom_site_label_1
_geom_bond_atom_site_label_2
_geom_bond_distance
_geom_bond_site_symmetry_2
Na0 O107 2.315906 1_555
Na0 O137 2.459443 1_555
Na0 O103 2.479196 1_555
Na0 O135 2.545565 1_555
Na0 O35 2.650600 1_555
Na0 O65 2.890239 1_555
Na0 O21 2.918837 1_555
Na0 O1 3.013978 1_555
Na1 O105 2.383745 1_555
Na1 O103 2.401074 1_555
Na1 O132 2.472240 1_655
Na1 O136 2.571132 1_655
Na1 O31 2.650152 1_555
Na1 O60 2.897291 1_655
Na1 O22 2.922626 1_655
Na1 O3 2.997502 1_555
Na2 O101 2.376436 1_555
Na2 O97 2.388690 1_555
Na2 O138 2.437614 1_655
Na2 O25 2.594918 1_555
Na2 O140 2.657223 1_655
Na2 O14 2.866109 1_655
Na2 O66 2.960144 1_655
Na2 O11 3.009511 1_555
Na3 O100 2.377161 1_555
Na3 O96 2.392463 1_555
Na3 O139 2.433073 1_555
Na3 O24 2.596945 1_555
Na3 O141 2.653679 1_555
Na3 O15 2.865330 1_555
Na3 O67 2.949512 1_555
Na3 O10 3.012173 1_555
Na4 O98 2.338851 1_555
Na4 O140 2.440982 1_545
Na4 O96 2.485240 1_555
Na4 O142 2.560248 1_545
Na4 O26 2.597866 1_555
Na4 O16 2.856065 1_545
Na4 O68 2.949265 1_545
Na5 O99 2.338581 1_555
Na5 O141 2.441992 1_545
Na5 O97 2.485069 1_555
Na5 O143 2.558839 1_545
Na5 O27 2.601589 1_555
Na5 O17 2.860564 1_545
Na5 O69 2.947781 1_545
Na6 O89 2.607772 1_455
Na6 O85 2.612521 1_465
Na6 O86 2.621660 1_565
Na6 O76 2.699972 1_565
Na6 O75 2.706841 1_455
Na6 O72 2.711030 1_555
Na7 O84 2.606011 1_555
Na7 O88 2.607974 1_545
Na7 O87 2.622074 1_555
Na7 O73 2.704517 1_545
Na7 O74 2.713865 1_545
Na7 O77 2.720070 1_555
Na8 O93 2.561543 1_565
Na8 O91 2.575424 1_555
Na8 O94 2.688305 1_665
Na8 O83 2.708521 1_554
Na8 O80 2.724067 1_654
Na8 O78 2.728189 1_664
Na9 O95 2.578146 1_555
Na9 O90 2.681033 1_545
Na9 O92 2.689259 1_555
Na9 O81 2.705521 1_544
Na9 O79 2.707932 1_554
Na9 O82 2.717429 1_544
Na10 O100 2.533034 1_555
Na10 O98 2.559617 1_555
Na10 O96 2.625902 1_555
Na10 O108 2.677114 1_555
Na10 O110 2.741104 1_555
Na10 O112 2.749970 1_555
Na11 O101 2.554510 1_555
Na11 O99 2.577287 1_555
Na11 O97 2.645679 1_555
Na11 O109 2.646834 1_555
Na11 O111 2.724112 1_555
Na11 O113 2.725582 1_555
Na12 O116 2.647557 1_555
Na12 O118 2.651694 1_555
Na12 O114 2.653047 1_555
Na12 O104 2.740943 1_555
Na12 O102 2.742641 1_555
Na12 O106 2.745121 1_555
Na13 O105 2.549374 1_555
Na13 O107 2.582991 1_555
Na13 O115 2.645632 1_555
Na13 O103 2.658970 1_555
Na13 O119 2.720921 1_555
Na13 O117 2.726252 1_555
Na14 O120 2.665059 1_555
Na14 O134 2.674699 1_555
Na14 O136 2.682055 1_555
Na14 O124 2.689143 1_555
Na14 O132 2.723270 1_555
Na14 O122 2.789030 1_555
Na15 O133 2.669921 1_555
Na15 O123 2.677662 1_555
Na15 O135 2.704103 1_555
Na15 O125 2.717461 1_555
Na15 O137 2.765872 1_555
Na15 O121 2.792856 1_555
Na16 O128 2.622021 1_555
Na16 O130 2.682002 1_555
Na16 O126 2.686250 1_555
Na16 O142 2.759657 1_555
Na16 O138 2.785742 1_555
Na16 O140 2.828484 1_555
Na17 O129 2.625686 1_555
Na17 O131 2.687786 1_555
Na17 O127 2.689212 1_555
Na17 O143 2.753550 1_555
Na17 O139 2.780816 1_555
Na17 O141 2.823203 1_555
Ca0 O28 2.154026 1_555
Ca0 O24 2.236751 1_555
Ca0 O26 2.242087 1_555
Ca0 O98 2.337340 1_555
Ca0 O100 2.337496 1_555
Ca0 O96 2.390306 1_555
Ca1 O29 2.154528 1_555
Ca1 O25 2.237858 1_555
Ca1 O27 2.243324 1_555
Ca1 O99 2.336548 1_555
Ca1 O101 2.338343 1_555
Ca1 O97 2.389192 1_555
Ca2 O33 2.161271 1_555
Ca2 O31 2.253024 1_555
Ca2 O35 2.261796 1_555
Ca2 O105 2.312352 1_555
Ca2 O107 2.320247 1_555
Ca2 O103 2.376672 1_555
O0 P0 1.536859 1_555
O0 Zr0 2.102285 1_555
O1 P1 1.550741 1_545
O1 Zr1 2.046551 1_545
O2 P2 1.536431 1_555
O2 Zr1 2.091215 1_555
O3 P3 1.545874 1_555
O3 Zr0 2.072510 1_665
O4 P5 1.538082 1_555
O4 Zr1 2.103305 1_545
O5 P4 1.541839 1_655
O5 Zr0 2.042487 1_655
O6 P6 1.549755 1_555
O6 Zr2 2.054403 1_445
O7 P7 1.551619 1_555
O7 Zr3 2.049994 1_545
O8 P9 1.543743 1_555
O8 Zr3 2.047469 1_555
O9 P8 1.543214 1_655
O9 Zr2 2.049341 1_555
O10 P10 1.546326 1_545
O10 Zr3 2.064797 1_545
O11 P11 1.546291 1_545
O11 Zr2 2.062901 1_545
O12 P10 1.540814 1_555
O12 Zr5 2.127678 1_555
O13 P11 1.541452 1_555
O13 Zr4 2.124259 1_555
O14 P6 1.549920 1_555
O14 Zr4 2.151875 1_445
O15 P7 1.550462 1_555
O15 Zr5 2.151376 1_545
O16 P8 1.549989 1_555
O16 Zr4 2.152204 1_455
O17 P9 1.549265 1_555
O17 Zr5 2.149997 1_555
O18 P2 1.540766 1_555
O18 Zr7 2.089108 1_555
O19 P3 1.550978 1_555
O19 Zr6 2.093401 1_565
O20 P4 1.553176 1_555
O20 Zr6 2.091588 1_455
O21 P5 1.548149 1_555
O21 Zr7 2.104868 1_545
O22 P0 1.546730 1_565
O22 Zr6 2.125142 1_465
O23 P1 1.556273 1_555
O23 Zr7 2.075075 1_555
O24 P12 1.513740 1_555
O25 P13 1.513900 1_555
O26 P14 1.514334 1_555
O27 P15 1.514820 1_555
O28 P16 1.496121 1_555
O29 P17 1.495250 1_555
O30 P18 1.543365 1_555
O30 Zr8 2.076782 1_555
O31 P19 1.509024 1_555
O32 P20 1.542881 1_555
O32 Zr8 2.082195 1_555
O33 P21 1.492175 1_555
O34 P22 1.544864 1_555
O34 Zr8 2.074305 1_555
O35 P23 1.509461 1_555
O36 P22 1.545200 1_555
O36 Zr9 2.077242 1_554
O37 P23 1.561582 1_555
O37 Zr10 2.074618 1_554
O38 P18 1.544890 1_555
O38 Zr9 2.075385 1_554
O39 P19 1.560711 1_555
O39 Zr10 2.076359 1_554
O40 P20 1.546457 1_555
O40 Zr9 2.068442 1_554
O41 P21 1.561179 1_555
O41 Zr10 2.057861 1_554
O42 P14 1.558852 1_555
O42 Zr11 2.077561 1_555
O43 P15 1.558463 1_555
O43 Zr12 2.087757 1_555
O44 P16 1.559534 1_555
O44 Zr11 2.065580 1_555
O45 P17 1.558552 1_555
O45 Zr12 2.065704 1_555
O46 P12 1.558167 1_555
O46 Zr11 2.076741 1_555
O47 P13 1.557708 1_555
O47 Zr12 2.086176 1_555
O48 P24 1.528825 1_555
O48 Zr13 2.088508 1_556
O49 P25 1.526048 1_555
O49 Zr14 2.093412 1_556
O50 P26 1.536822 1_555
O50 Zr13 2.091602 1_556
O51 P27 1.525517 1_555
O51 Zr14 2.088823 1_556
O52 P28 1.530835 1_555
O52 Zr13 2.090054 1_556
O53 P29 1.529840 1_555
O53 Zr14 2.092585 1_556
O54 P30 1.525379 1_555
O54 Zr15 2.085677 1_555
O55 P31 1.526435 1_555
O55 Zr16 2.085336 1_555
O56 P32 1.525465 1_555
O56 Zr15 2.082997 1_555
O57 P33 1.530020 1_555
O57 Zr16 2.087053 1_555
O58 P34 1.529865 1_555
O58 Zr15 2.079585 1_555
O59 P35 1.526307 1_555
O59 Zr16 2.084205 1_555
O60 P34 1.556752 1_555
O60 Zr17 2.115740 1_555
O61 P35 1.553181 1_555
O61 Zr18 2.040948 1_555
O62 P30 1.550393 1_555
O62 Zr17 2.052437 1_555
O63 P31 1.556132 1_555
O63 Zr18 2.041640 1_555
O64 P32 1.552943 1_555
O64 Zr17 2.044500 1_555
O65 P33 1.557495 1_555
O65 Zr18 2.110914 1_555
O66 P26 1.560019 1_555
O66 Zr19 2.082128 1_555
O67 P27 1.556371 1_555
O67 Zr20 2.086533 1_555
O68 P28 1.556508 1_555
O68 Zr19 2.084710 1_555
O69 P29 1.559452 1_555
O69 Zr20 2.080431 1_555
O70 P24 1.552557 1_555
O70 Zr19 2.031167 1_555
O71 P25 1.557354 1_555
O71 Zr20 2.025702 1_555
O72 P34 1.548130 1_555
O72 Zr0 2.112140 1_565
O73 P35 1.546769 1_555
O73 Zr1 2.109369 1_555
O74 P30 1.546313 1_555
O74 Zr1 2.091739 1_555
O75 P31 1.546468 1_555
O75 Zr0 2.116618 1_665
O76 P32 1.545605 1_555
O76 Zr0 2.099359 1_555
O77 P33 1.550494 1_555
O77 Zr1 2.115096 1_545
O78 P26 1.545760 1_555
O78 Zr2 2.114817 1_445
O79 P27 1.544059 1_555
O79 Zr3 2.114204 1_545
O80 P28 1.543401 1_555
O80 Zr2 2.115206 1_455
O81 P29 1.547075 1_555
O81 Zr3 2.106658 1_555
O82 P24 1.541301 1_555
O82 Zr3 2.110116 1_555
O83 P25 1.544148 1_555
O83 Zr2 2.102134 1_555
O84 P12 1.563913 1_555
O84 Zr5 2.094034 1_545
O85 P13 1.565552 1_555
O85 Zr4 2.091780 1_545
O86 P14 1.563295 1_555
O86 Zr4 2.095520 1_445
O87 P15 1.565987 1_555
O87 Zr5 2.093185 1_545
O88 P16 1.567027 1_555
O88 Zr5 2.080706 1_555
O89 P17 1.566818 1_555
O89 Zr4 2.080260 1_555
O90 P18 1.547581 1_555
O90 Zr7 2.117191 1_555
O91 P19 1.558836 1_555
O91 Zr6 2.135687 1_565
O92 P20 1.544219 1_555
O92 Zr7 2.133413 1_545
O93 P21 1.564732 1_555
O93 Zr6 2.106359 1_555
O94 P22 1.542860 1_555
O94 Zr6 2.139014 1_455
O95 P23 1.565677 1_555
O95 Zr7 2.114200 1_545
O96 P10 1.532203 1_545
O97 P11 1.531318 1_545
O98 P6 1.515457 1_555
O99 P7 1.513717 1_555
O100 P9 1.515369 1_555
O101 P8 1.514460 1_655
O102 P2 1.550437 1_555
O102 Zr8 2.116794 1_555
O103 P3 1.529678 1_555
O104 P5 1.540657 1_555
O104 Zr8 2.142157 1_555
O105 P4 1.518941 1_655
O106 P0 1.542757 1_555
O106 Zr8 2.136772 1_555
O107 P1 1.517605 1_545
O108 P24 1.540151 1_555
O108 Zr9 2.132765 1_555
O109 P25 1.538674 1_555
O109 Zr10 2.156259 1_555
O110 P27 1.543848 1_555
O110 Zr9 2.126703 1_555
O111 P26 1.540045 1_655
O111 Zr10 2.163025 1_555
O112 P28 1.543806 1_545
O112 Zr9 2.129580 1_555
O113 P29 1.539813 1_545
O113 Zr10 2.161276 1_555
O114 P30 1.541716 1_545
O114 Zr11 2.153458 1_555
O115 P31 1.542154 1_545
O115 Zr12 2.149943 1_555
O116 P32 1.542078 1_555
O116 Zr11 2.153371 1_555
O117 P33 1.544152 1_555
O117 Zr12 2.155595 1_555
O118 P35 1.542260 1_555
O118 Zr11 2.154953 1_555
O119 P34 1.543967 1_655
O119 Zr12 2.152238 1_555
O120 P22 1.548177 1_555
O120 Zr13 2.127976 1_555
O121 P23 1.552701 1_555
O121 Zr14 2.055375 1_555
O122 P19 1.560612 1_455
O122 Zr13 2.041442 1_555
O123 P18 1.541579 1_555
O123 Zr14 2.136975 1_555
O124 P20 1.544806 1_565
O124 Zr13 2.130537 1_555
O125 P21 1.555298 1_565
O125 Zr14 2.046511 1_555
O126 P14 1.547780 1_565
O126 Zr15 2.072641 1_555
O127 P15 1.549009 1_565
O127 Zr16 2.075895 1_555
O128 P16 1.548372 1_555
O128 Zr15 2.069444 1_555
O129 P17 1.548935 1_555
O129 Zr16 2.063775 1_555
O130 P13 1.549257 1_455
O130 Zr15 2.076143 1_555
O131 P12 1.547807 1_555
O131 Zr16 2.075446 1_555
O132 P0 1.561665 1_565
O132 Zr17 2.188090 1_555
O133 P1 1.550986 1_555
O133 Zr18 2.105211 1_555
O134 P2 1.550594 1_555
O134 Zr17 2.114626 1_555
O135 P3 1.559118 1_555
O135 Zr18 2.159996 1_555
O136 P4 1.572860 1_555
O136 Zr17 2.132400 1_555
O137 P5 1.559013 1_555
O137 Zr18 2.190023 1_555
O138 P6 1.565689 1_555
O138 Zr19 2.132595 1_555
O139 P7 1.565297 1_555
O139 Zr20 2.137046 1_555
O140 P8 1.583807 1_555
O140 Zr19 2.165447 1_555
O141 P9 1.582300 1_555
O141 Zr20 2.170836 1_555
O142 P10 1.562640 1_555
O142 Zr19 2.124450 1_555
O143 P11 1.563074 1_555
O143 Zr20 2.125299 1_555
