# generated using pymatgen
data_Rb(BH)6
_symmetry_space_group_name_H-M   'P 1'
_cell_length_a   7.69311963
_cell_length_b   7.69311963
_cell_length_c   7.69311963
_cell_angle_alpha   60.00000000
_cell_angle_beta   60.00000000
_cell_angle_gamma   60.00000000
_symmetry_Int_Tables_number   1
_chemical_formula_structural   Rb(BH)6
_chemical_formula_sum   'Rb2 B12 H12'
_cell_volume   321.95298801
_cell_formula_units_Z   2
loop_
 _symmetry_equiv_pos_site_id
 _symmetry_equiv_pos_as_xyz
  1  'x, y, z'
loop_
 _atom_site_type_symbol
 _atom_site_label
 _atom_site_symmetry_multiplicity
 _atom_site_fract_x
 _atom_site_fract_y
 _atom_site_fract_z
 _atom_site_occupancy
  Rb  Rb0  1  0.25000000  0.25000000  0.25000000  1
  Rb  Rb1  1  0.75000000  0.75000000  0.75000000  1
  B  B0  1  0.21354958  0.78645042  0.05076027  1
  B  B1  1  0.05076027  0.94923973  0.21354958  1
  B  B2  1  0.78645042  0.05076027  0.21354958  1
  B  B3  1  0.94923973  0.78645042  0.21354958  1
  B  B4  1  0.21354958  0.94923973  0.78645042  1
  B  B5  1  0.05076027  0.78645042  0.94923973  1
  B  B6  1  0.21354958  0.05076027  0.94923973  1
  B  B7  1  0.05076027  0.21354958  0.78645042  1
  B  B8  1  0.94923973  0.21354958  0.05076027  1
  B  B9  1  0.78645042  0.21354958  0.94923973  1
  B  B10  1  0.94923973  0.05076027  0.78645042  1
  B  B11  1  0.78645042  0.94923973  0.05076027  1
  H  H0  1  0.08814432  0.91185568  0.36469206  1
  H  H1  1  0.36469206  0.63530794  0.08814432  1
  H  H2  1  0.63530794  0.08814432  0.36469206  1
  H  H3  1  0.91185568  0.63530794  0.36469206  1
  H  H4  1  0.36469206  0.91185568  0.63530794  1
  H  H5  1  0.08814432  0.63530794  0.91185568  1
  H  H6  1  0.36469206  0.08814432  0.91185568  1
  H  H7  1  0.08814432  0.36469206  0.63530794  1
  H  H8  1  0.91185568  0.36469206  0.08814432  1
  H  H9  1  0.63530794  0.36469206  0.91185568  1
  H  H10  1  0.91185568  0.08814432  0.63530794  1
  H  H11  1  0.63530794  0.91185568  0.08814432  1
loop_
_geom_bond_atom_site_label_1
_geom_bond_atom_site_label_2
_geom_bond_distance
_geom_bond_site_symmetry_2
B0 H1 1.197797 1_555
B1 H0 1.197797 1_555
B2 H2 1.197797 1_555
B3 H3 1.197797 1_555
B4 H4 1.197797 1_555
B5 H5 1.197797 1_555
B6 H6 1.197797 1_555
B7 H7 1.197797 1_555
B8 H8 1.197797 1_555
B9 H9 1.197797 1_555
B10 H10 1.197797 1_555
B11 H11 1.197797 1_555
H0 Rb1 2.990216 1_455
H0 Rb0 2.990216 1_565
H1 Rb0 2.990216 1_555
H1 Rb1 2.990216 1_554
H2 Rb0 2.990216 1_555
H2 Rb1 2.990216 1_545
H3 Rb0 2.990216 1_655
H3 Rb1 2.990216 1_555
H4 Rb0 2.990216 1_565
H4 Rb1 2.990216 1_555
H5 Rb1 2.990216 1_455
H5 Rb0 2.990216 1_556
H6 Rb1 2.990216 1_545
H6 Rb0 2.990216 1_556
H7 Rb0 2.990216 1_555
H7 Rb1 2.990216 1_455
H8 Rb1 2.990216 1_554
H8 Rb0 2.990216 1_655
H9 Rb0 2.990216 1_556
H9 Rb1 2.990216 1_555
H10 Rb1 2.990216 1_545
H10 Rb0 2.990216 1_655
H11 Rb1 2.990216 1_554
H11 Rb0 2.990216 1_565
