# generated using pymatgen
data_Na2Mg(CoO2)2
_symmetry_space_group_name_H-M   'P 1'
_cell_length_a   3.11441869
_cell_length_b   7.13869211
_cell_length_c   5.27548749
_cell_angle_alpha   92.91210823
_cell_angle_beta   92.06529758
_cell_angle_gamma   108.10576592
_symmetry_Int_Tables_number   1
_chemical_formula_structural   Na2Mg(CoO2)2
_chemical_formula_sum   'Na2 Mg1 Co2 O4'
_cell_volume   111.17159118
_cell_formula_units_Z   1
loop_
 _symmetry_equiv_pos_site_id
 _symmetry_equiv_pos_as_xyz
  1  'x, y, z'
loop_
 _atom_site_type_symbol
 _atom_site_label
 _atom_site_symmetry_multiplicity
 _atom_site_fract_x
 _atom_site_fract_y
 _atom_site_fract_z
 _atom_site_occupancy
  Na  Na0  1  0.44245565  0.06333442  0.37747059  1
  Na  Na1  1  0.81378636  0.87163923  0.78793404  1
  Mg  Mg0  1  0.07835562  0.30098698  0.98915843  1
  Co  Co0  1  0.14120723  0.66142857  0.19178343  1
  Co  Co1  1  0.63062263  0.44433113  0.61598977  1
  O  O0  1  0.22418576  0.56934926  0.81094432  1
  O  O1  1  0.46537584  0.17145049  0.79175491  1
  O  O2  1  0.68791307  0.38949391  0.25497589  1
  O  O3  1  0.76609885  0.83006701  0.27721161  1
loop_
_geom_bond_atom_site_label_1
_geom_bond_atom_site_label_2
_geom_bond_distance
_geom_bond_site_symmetry_2
Na0 O3 2.249642 1_545
Na0 O3 2.267132 1_445
Na0 O1 2.271681 1_555
Na0 O2 2.346360 1_555
Na1 O0 2.371315 1_555
Na1 O1 2.447938 1_665
Na1 O3 2.617380 1_556
Na1 O1 2.683135 1_565
Na1 O3 2.689229 1_555
Na1 O0 2.834601 1_655
Mg0 O1 2.019375 1_555
Mg0 O1 2.060533 1_455
Mg0 O2 2.086807 1_456
Mg0 O0 2.105539 1_555
Mg0 O2 2.223118 1_556
Co0 O3 1.966063 1_555
Co0 O3 1.968283 1_455
Co0 O2 2.066143 1_455
Co0 O0 2.131716 1_554
Co1 O2 1.950499 1_555
Co1 O0 2.003964 1_655
Co1 O0 2.039431 1_555
Co1 O1 2.124665 1_555
