# generated using pymatgen
data_V3ZnO8
_symmetry_space_group_name_H-M   'P 1'
_cell_length_a   9.81149648
_cell_length_b   9.81149648
_cell_length_c   9.81149648
_cell_angle_alpha   127.90040207
_cell_angle_beta   118.84125938
_cell_angle_gamma   84.45224721
_symmetry_Int_Tables_number   1
_chemical_formula_structural   V3ZnO8
_chemical_formula_sum   'V12 Zn4 O32'
_cell_volume   625.01929418
_cell_formula_units_Z   4
loop_
 _symmetry_equiv_pos_site_id
 _symmetry_equiv_pos_as_xyz
  1  'x, y, z'
loop_
 _atom_site_type_symbol
 _atom_site_label
 _atom_site_symmetry_multiplicity
 _atom_site_fract_x
 _atom_site_fract_y
 _atom_site_fract_z
 _atom_site_occupancy
  V  V0  1  0.74018700  0.77633700  0.92014900  1
  V  V1  1  0.25981300  0.17996100  0.03615000  1
  V  V2  1  0.85618800  0.27633700  0.53615000  1
  V  V3  1  0.14381200  0.67996100  0.42014900  1
  V  V4  1  0.48998900  0.94047100  0.12802800  1
  V  V5  1  0.51001100  0.63803900  0.45048200  1
  V  V6  1  0.81244300  0.44047100  0.95048200  1
  V  V7  1  0.18755700  0.13803900  0.62802800  1
  V  V8  1  0.81095600  0.46238200  0.31714800  1
  V  V9  1  0.18904400  0.50619200  0.65142500  1
  V  V10  1  0.14523300  0.96238200  0.15142500  1
  V  V11  1  0.85476700  0.00619200  0.81714800  1
  Zn  Zn0  1  0.48346700  0.32814200  0.50221300  1
  Zn  Zn1  1  0.51653300  0.01874600  0.84467500  1
  Zn  Zn2  1  0.82592900  0.82814200  0.34467500  1
  Zn  Zn3  1  0.17407100  0.51874600  0.00221300  1
  O  O0  1  0.35704800  0.05559600  0.24856100  1
  O  O1  1  0.64295200  0.89151300  0.69854800  1
  O  O2  1  0.80703500  0.55559600  0.19854800  1
  O  O3  1  0.19296500  0.39151300  0.74856100  1
  O  O4  1  0.64764600  0.20006300  0.38154000  1
  O  O5  1  0.35235400  0.73389400  0.55241800  1
  O  O6  1  0.81852300  0.70006300  0.05241800  1
  O  O7  1  0.18147700  0.23389400  0.88154000  1
  O  O8  1  0.60028700  0.84707700  0.22567100  1
  O  O9  1  0.39971300  0.62538300  0.24679000  1
  O  O10  1  0.62140600  0.34707700  0.74679000  1
  O  O11  1  0.37859400  0.12538300  0.72567100  1
  O  O12  1  0.70152900  0.24876900  0.11078600  1
  O  O13  1  0.29847100  0.40925700  0.54724000  1
  O  O14  1  0.13798300  0.74876900  0.04724000  1
  O  O15  1  0.86201700  0.90925700  0.61078600  1
  O  O16  1  0.84881400  0.22089500  0.91781500  1
  O  O17  1  0.15118600  0.06900200  0.37208100  1
  O  O18  1  0.30307900  0.72089500  0.87208100  1
  O  O19  1  0.69692100  0.56900200  0.41781500  1
  O  O20  1  0.07289600  0.54218800  0.16223300  1
  O  O21  1  0.92710400  0.08933800  0.46929300  1
  O  O22  1  0.37995500  0.04218800  0.96929300  1
  O  O23  1  0.62004500  0.58933800  0.66223300  1
  O  O24  1  0.06174000  0.56824600  0.47102700  1
  O  O25  1  0.93826000  0.40928800  0.50650600  1
  O  O26  1  0.09721800  0.06824600  0.00650600  1
  O  O27  1  0.90278200  0.90928800  0.97102700  1
  O  O28  1  0.09079900  0.87797300  0.49384300  1
  O  O29  1  0.90920100  0.40304400  0.78717400  1
  O  O30  1  0.38413100  0.37797300  0.28717400  1
  O  O31  1  0.61586900  0.90304400  0.99384300  1
loop_
_geom_bond_atom_site_label_1
_geom_bond_atom_site_label_2
_geom_bond_distance
_geom_bond_site_symmetry_2
O0 V10 1.857285 1_545
O0 V4 1.984424 1_545
O0 Zn0 2.090413 1_555
O1 V11 1.857288 1_565
O1 V5 1.984424 1_555
O1 Zn1 2.090413 1_565
O2 V8 1.857279 1_555
O2 V6 1.984424 1_554
O2 Zn2 2.090413 1_555
O3 V9 1.857288 1_555
O3 V7 1.984424 1_555
O3 Zn3 2.090413 1_556
O4 V2 1.718894 1_555
O4 V4 2.081629 1_545
O4 Zn0 2.279576 1_555
O5 V3 1.718894 1_555
O5 V5 2.081635 1_555
O5 Zn1 2.279575 1_565
O6 V0 1.718902 1_554
O6 V6 2.081627 1_554
O6 Zn2 2.279568 1_555
O7 V1 1.718902 1_556
O7 V7 2.081629 1_555
O7 Zn3 2.279576 1_556
O8 V4 1.677848 1_555
O8 Zn2 1.998052 1_555
O9 V5 1.677843 1_555
O9 Zn3 1.998053 1_555
O10 V6 1.677848 1_555
O10 Zn0 1.998052 1_555
O11 V7 1.677851 1_555
O11 Zn1 1.998043 1_555
O12 V8 1.664077 1_555
O12 Zn1 2.045839 1_554
O13 V9 1.664071 1_555
O13 Zn0 2.045839 1_555
O14 V10 1.664080 1_555
O14 Zn3 2.045839 1_555
O15 V11 1.664071 1_565
O15 Zn2 2.045839 1_555
O16 V11 1.700639 1_555
O16 V6 1.996182 1_555
O17 V10 1.700639 1_545
O17 V7 1.996186 1_555
O18 V9 1.700638 1_555
O18 V4 1.996186 1_556
O19 V8 1.700631 1_555
O19 V5 1.996190 1_555
O20 V3 1.730777 1_555
O20 Zn3 2.125831 1_555
O20 V6 2.160151 1_454
O21 V2 1.730769 1_555
O21 Zn2 2.125836 1_545
O21 V7 2.160152 1_655
O22 V1 1.730769 1_556
O22 Zn1 2.125839 1_555
O22 V4 2.160144 1_546
O23 V0 1.730774 1_555
O23 Zn0 2.125839 1_555
O23 V5 2.160144 1_555
O24 V3 1.824754 1_555
O24 V9 2.026733 1_555
O24 V8 2.096703 1_455
O25 V2 1.824770 1_555
O25 V8 2.026733 1_555
O25 V9 2.096703 1_655
O26 V1 1.824764 1_555
O26 V11 2.026725 1_454
O26 V10 2.096695 1_545
O27 V0 1.824776 1_555
O27 V10 2.026725 1_656
O27 V11 2.096695 1_565
O28 V3 1.734765 1_555
O28 V7 2.068984 1_565
O28 Zn2 2.198123 1_455
O29 V2 1.734757 1_555
O29 V6 2.068984 1_555
O29 Zn3 2.198123 1_656
O30 V1 1.734761 1_555
O30 V5 2.068981 1_555
O30 Zn0 2.198124 1_555
O31 V0 1.734765 1_555
O31 V4 2.068975 1_556
O31 Zn1 2.198122 1_565
