# generated using pymatgen
data_MgFe6(OF)6
_symmetry_space_group_name_H-M   'P 1'
_cell_length_a   7.94858510
_cell_length_b   5.94513195
_cell_length_c   5.87838686
_cell_angle_alpha   68.38995239
_cell_angle_beta   68.68413770
_cell_angle_gamma   65.99298605
_symmetry_Int_Tables_number   1
_chemical_formula_structural   MgFe6(OF)6
_chemical_formula_sum   'Mg1 Fe6 O6 F6'
_cell_volume   228.33120310
_cell_formula_units_Z   1
loop_
 _symmetry_equiv_pos_site_id
 _symmetry_equiv_pos_as_xyz
  1  'x, y, z'
loop_
 _atom_site_type_symbol
 _atom_site_label
 _atom_site_symmetry_multiplicity
 _atom_site_fract_x
 _atom_site_fract_y
 _atom_site_fract_z
 _atom_site_occupancy
  Mg  Mg0  1  0.49628900  0.49652100  0.99341400  1
  Fe  Fe0  1  0.85814700  0.67076500  0.67456300  1
  Fe  Fe1  1  0.68600700  0.31637900  0.36732000  1
  Fe  Fe2  1  0.32072800  0.66927500  0.55269900  1
  Fe  Fe3  1  0.14983300  0.32588800  0.38378100  1
  Fe  Fe4  1  0.51971200  0.97186700  0.99247700  1
  Fe  Fe5  1  0.01087800  0.99193100  0.02090100  1
  O  O0  1  0.67282100  0.01182800  0.65108300  1
  O  O1  1  0.37152900  0.43939200  0.37091900  1
  O  O2  1  0.33840300  0.98457900  0.32953400  1
  O  O3  1  0.67950700  0.61632200  0.03746900  1
  O  O4  1  0.00384800  0.30280200  0.72422900  1
  O  O5  1  0.99329800  0.68819400  0.31907000  1
  F  F0  1  0.33406700  0.37445900  0.91395400  1
  F  F1  1  0.32646800  0.85973700  0.91126700  1
  F  F2  1  0.98285900  0.22811100  0.25935400  1
  F  F3  1  0.59487600  0.56550600  0.61091000  1
  F  F4  1  0.05305900  0.77017400  0.74657900  1
  F  F5  1  0.67433900  0.13293700  0.06904800  1
loop_
_geom_bond_atom_site_label_1
_geom_bond_atom_site_label_2
_geom_bond_distance
_geom_bond_site_symmetry_2
Mg0 O3 1.987278 1_556
Mg0 O1 2.035254 1_556
Fe0 O0 1.952350 1_565
Fe0 O5 1.957221 1_555
Fe0 O4 1.981392 1_655
Fe0 O3 2.082086 1_556
Fe1 O0 1.968350 1_555
Fe1 O3 2.096005 1_555
Fe1 O1 2.295435 1_555
Fe2 O1 1.866997 1_555
Fe2 O2 1.877104 1_555
Fe3 O4 1.899844 1_555
Fe3 O5 1.972866 1_455
Fe3 O2 2.029776 1_545
Fe3 O1 2.097483 1_555
Fe4 O0 1.916618 1_565
Fe4 O3 1.949115 1_556
Fe4 O2 1.988493 1_556
Fe5 O5 2.012061 1_455
Fe5 O4 2.018159 1_564
F0 Mg0 1.963761 1_555
F0 Fe2 2.205409 1_555
F0 Fe4 2.219630 1_545
F0 Fe3 2.582986 1_556
F1 Mg0 2.013004 1_555
F1 Fe4 2.152284 1_555
F1 Fe5 2.217907 1_556
F2 Fe3 2.069077 1_655
F2 Fe1 2.096361 1_555
F2 Fe5 2.225820 1_645
F3 Mg0 2.034532 1_555
F3 Fe2 2.130458 1_555
F3 Fe1 2.168823 1_555
F3 Fe0 2.591912 1_555
F4 Fe2 1.971696 1_555
F4 Fe0 2.082042 1_455
F4 Fe5 2.294363 1_556
F5 Mg0 2.033049 1_554
F5 Fe4 2.075456 1_544
F5 Fe5 2.395449 1_645
F5 Fe1 2.425127 1_555
