# generated using pymatgen
data_Na2S5
_symmetry_space_group_name_H-M   'P 1'
_cell_length_a   5.79066164
_cell_length_b   7.64736737
_cell_length_c   14.51053462
_cell_angle_alpha   90.00000000
_cell_angle_beta   90.00000000
_cell_angle_gamma   90.00000000
_symmetry_Int_Tables_number   1
_chemical_formula_structural   Na2S5
_chemical_formula_sum   'Na8 S20'
_cell_volume   642.57460262
_cell_formula_units_Z   4
loop_
 _symmetry_equiv_pos_site_id
 _symmetry_equiv_pos_as_xyz
  1  'x, y, z'
loop_
 _atom_site_type_symbol
 _atom_site_label
 _atom_site_symmetry_multiplicity
 _atom_site_fract_x
 _atom_site_fract_y
 _atom_site_fract_z
 _atom_site_occupancy
  Na  Na0  1  0.20169499  0.94769153  0.75000000  1
  Na  Na1  1  0.70169499  0.55230847  0.25000000  1
  Na  Na2  1  0.29830501  0.44769153  0.75000000  1
  Na  Na3  1  0.79830501  0.05230847  0.25000000  1
  Na  Na4  1  -0.00000000  0.00000000  0.50000000  1
  Na  Na5  1  0.50000000  0.50000000  0.50000000  1
  Na  Na6  1  0.50000000  0.50000000  0.00000000  1
  Na  Na7  1  -0.00000000  0.00000000  0.00000000  1
  S  S0  1  0.11011277  0.45727314  0.13411589  1
  S  S1  1  0.61011277  0.04272686  0.86588411  1
  S  S2  1  0.38988723  0.95727314  0.36588411  1
  S  S3  1  0.88988723  0.54272686  0.63411589  1
  S  S4  1  0.88988723  0.54272686  0.86588411  1
  S  S5  1  0.38988723  0.95727314  0.13411589  1
  S  S6  1  0.61011277  0.04272686  0.63411589  1
  S  S7  1  0.11011277  0.45727314  0.36588411  1
  S  S8  1  0.27135967  0.35790271  0.25000000  1
  S  S9  1  0.77135967  0.14209729  0.75000000  1
  S  S10  1  0.22864033  0.85790271  0.25000000  1
  S  S11  1  0.72864033  0.64209729  0.75000000  1
  S  S12  1  0.83580923  0.29673246  0.39732761  1
  S  S13  1  0.33580923  0.20326754  0.60267239  1
  S  S14  1  0.66419077  0.79673246  0.10267239  1
  S  S15  1  0.16419077  0.70326754  0.89732761  1
  S  S16  1  0.16419077  0.70326754  0.60267239  1
  S  S17  1  0.66419077  0.79673246  0.39732761  1
  S  S18  1  0.33580923  0.20326754  0.89732761  1
  S  S19  1  0.83580923  0.29673246  0.10267239  1
loop_
_geom_bond_atom_site_label_1
_geom_bond_atom_site_label_2
_geom_bond_distance
_geom_bond_site_symmetry_2
Na0 S15 2.848030 1_555
Na0 S16 2.848030 1_555
Na0 S9 2.901715 1_465
Na0 S6 2.991495 1_565
Na0 S1 2.991495 1_565
Na0 S13 2.998888 1_565
Na0 S18 2.998888 1_565
Na1 S17 2.848030 1_555
Na1 S14 2.848030 1_555
Na1 S8 2.901715 1_555
Na1 S0 2.991495 1_655
Na1 S7 2.991495 1_655
Na1 S19 2.998888 1_555
Na1 S12 2.998888 1_555
Na2 S18 2.848030 1_555
Na2 S13 2.848030 1_555
Na2 S11 2.901715 1_555
Na2 S3 2.991495 1_455
Na2 S4 2.991495 1_455
Na2 S15 2.998888 1_555
Na2 S16 2.998888 1_555
Na3 S19 2.848030 1_555
Na3 S12 2.848030 1_555
Na3 S10 2.901715 1_645
Na3 S5 2.991495 1_545
Na3 S2 2.991495 1_545
Na3 S17 2.998888 1_545
Na3 S14 2.998888 1_545
Na4 S16 2.876271 1_545
Na4 S12 2.876271 1_455
Na4 S13 2.901250 1_555
Na4 S17 2.901250 1_445
Na4 S2 2.998546 1_545
Na4 S6 2.998546 1_455
Na5 S13 2.876271 1_555
Na5 S17 2.876271 1_555
Na5 S12 2.901250 1_555
Na5 S16 2.901250 1_555
Na5 S7 2.998546 1_555
Na5 S3 2.998546 1_555
Na6 S18 2.876271 1_554
Na6 S14 2.876271 1_555
Na6 S19 2.901250 1_555
Na6 S15 2.901250 1_554
Na6 S0 2.998546 1_555
Na6 S4 2.998546 1_554
Na7 S15 2.876271 1_544
Na7 S19 2.876271 1_455
Na7 S18 2.901250 1_554
Na7 S14 2.901250 1_445
Na7 S5 2.998546 1_545
Na7 S1 2.998546 1_454
S0 S19 2.058754 1_455
S0 S8 2.068068 1_555
S1 S18 2.058754 1_555
S1 S9 2.068068 1_555
S6 S9 2.068068 1_555
S7 S8 2.068068 1_555
S10 S2 2.068068 1_555
S10 S5 2.068068 1_555
S11 S4 2.068068 1_555
S11 S3 2.068068 1_555
S12 S7 2.058754 1_655
S13 S6 2.058754 1_555
S14 S5 2.058754 1_555
S15 S4 2.058754 1_455
S16 S3 2.058754 1_455
S17 S2 2.058754 1_555
