# generated using pymatgen
data_Na3Mg3TiPS5O24
_symmetry_space_group_name_H-M   'P 1'
_cell_length_a   8.72344477
_cell_length_b   8.70814229
_cell_length_c   22.45904855
_cell_angle_alpha   90.16214491
_cell_angle_beta   89.89626903
_cell_angle_gamma   120.30762485
_symmetry_Int_Tables_number   1
_chemical_formula_structural   Na3Mg3TiPS5O24
_chemical_formula_sum   'Na9 Mg9 Ti3 P3 S15 O72'
_cell_volume   1472.91991052
_cell_formula_units_Z   3
loop_
 _symmetry_equiv_pos_site_id
 _symmetry_equiv_pos_as_xyz
  1  'x, y, z'
loop_
 _atom_site_type_symbol
 _atom_site_label
 _atom_site_symmetry_multiplicity
 _atom_site_fract_x
 _atom_site_fract_y
 _atom_site_fract_z
 _atom_site_occupancy
  Na  Na0  1  0.36239062  0.36253004  0.25108801  1
  Na  Na1  1  0.02999053  0.69875841  0.58465728  1
  Na  Na2  1  0.30030193  0.96660665  0.08101967  1
  Na  Na3  1  0.99331234  0.00397510  0.49953753  1
  Na  Na4  1  0.99703707  0.00540308  0.99443483  1
  Na  Na5  1  0.66466589  0.33071650  0.82916868  1
  Na  Na6  1  0.67608158  0.33063876  0.33324920  1
  Na  Na7  1  0.33244037  0.66559401  0.16781153  1
  Na  Na8  1  0.34927225  0.66432834  0.66600203  1
  Mg  Mg0  1  0.99547934  0.99749772  0.35169320  1
  Mg  Mg1  1  0.00340506  0.00449486  0.85209644  1
  Mg  Mg2  1  0.99412783  0.00258327  0.64926183  1
  Mg  Mg3  1  0.99204767  0.99833816  0.14946452  1
  Mg  Mg4  1  0.66192426  0.33349961  0.68603327  1
  Mg  Mg5  1  0.67469388  0.33560861  0.18525633  1
  Mg  Mg6  1  0.33170293  0.66134318  0.01645283  1
  Mg  Mg7  1  0.34375974  0.66744105  0.51739093  1
  Mg  Mg8  1  0.33460153  0.67443673  0.31725712  1
  Ti  Ti0  1  0.67151437  0.32966550  0.97403993  1
  Ti  Ti1  1  0.66714704  0.34208473  0.48254633  1
  Ti  Ti2  1  0.32444314  0.66843205  0.81618643  1
  P  P0  1  0.66269323  0.62601731  0.58585207  1
  P  P1  1  0.04660161  0.37427287  0.91835035  1
  P  P2  1  0.32766366  0.95399608  0.91945112  1
  S  S0  1  0.29175439  0.99732407  0.24902897  1
  S  S1  1  0.70716528  0.70768501  0.25013369  1
  S  S2  1  0.99882380  0.29230932  0.25049215  1
  S  S3  1  0.29225672  0.29338675  0.75089861  1
  S  S4  1  0.99950996  0.70753959  0.75039848  1
  S  S5  1  0.70641111  0.99917652  0.75114879  1
  S  S6  1  0.95580064  0.33193396  0.58327510  1
  S  S7  1  0.37771080  0.04399465  0.58363896  1
  S  S8  1  0.95605334  0.62232557  0.08311822  1
  S  S9  1  0.66880484  0.04390371  0.08284121  1
  S  S10  1  0.37817440  0.33703703  0.08379450  1
  S  S11  1  0.62332780  0.66758701  0.91740794  1
  S  S12  1  0.62703867  0.96191847  0.41727516  1
  S  S13  1  0.33246288  0.37199990  0.41649268  1
  S  S14  1  0.04137150  0.66743737  0.41807502  1
  O  O0  1  0.20816869  0.02970139  0.30126957  1
  O  O1  1  0.81466436  0.78844288  0.30359954  1
  O  O2  1  0.97378282  0.18442221  0.30387921  1
  O  O3  1  0.20974331  0.18600957  0.80397372  1
  O  O4  1  0.97633729  0.79268509  0.80289726  1
  O  O5  1  0.81359701  0.02432770  0.80424003  1
  O  O6  1  0.78033309  0.96579747  0.69679243  1
  O  O7  1  0.18469597  0.21835695  0.69658118  1
  O  O8  1  0.03379887  0.81211160  0.69496114  1
  O  O9  1  0.78651014  0.81350874  0.19607522  1
  O  O10  1  0.03231731  0.21334932  0.19670050  1
  O  O11  1  0.18831529  0.97285549  0.19345660  1
  O  O12  1  0.87563728  0.36251729  0.63604856  1
  O  O13  1  0.48566326  0.12239273  0.63646453  1
  O  O14  1  0.64137151  0.51074831  0.63871512  1
  O  O15  1  0.87437957  0.51628496  0.13649239  1
  O  O16  1  0.63603857  0.12453863  0.13557446  1
  O  O17  1  0.48090714  0.35910898  0.13887423  1
  O  O18  1  0.46676233  0.30683609  0.03086544  1
  O  O19  1  0.84495757  0.53443103  0.02898815  1
  O  O20  1  0.69184723  0.15628646  0.02844196  1
  O  O21  1  0.46660105  0.15577796  0.52892473  1
  O  O22  1  0.69043071  0.52405277  0.52825227  1
  O  O23  1  0.84218682  0.30614041  0.52849640  1
  O  O24  1  0.54549962  0.69353384  0.97117229  1
  O  O25  1  0.15408720  0.45799521  0.97316780  1
  O  O26  1  0.30902796  0.85297424  0.97626122  1
  O  O27  1  0.54474236  0.85408731  0.47044767  1
  O  O28  1  0.30728481  0.45646107  0.46897614  1
  O  O29  1  0.14376140  0.69081431  0.47301380  1
  O  O30  1  0.11899319  0.63454646  0.36511840  1
  O  O31  1  0.51893878  0.88591632  0.36339042  1
  O  O32  1  0.36676938  0.47768630  0.36142689  1
  O  O33  1  0.13437060  0.49830639  0.86193430  1
  O  O34  1  0.36452453  0.86522630  0.86355848  1
  O  O35  1  0.50935571  0.63305470  0.86351763  1
  O  O36  1  0.01665770  0.82221414  0.41135340  1
  O  O37  1  0.80654866  0.98497952  0.41086385  1
  O  O38  1  0.17713051  0.19122337  0.41031577  1
  O  O39  1  0.01141277  0.18825701  0.90832375  1
  O  O40  1  0.17202725  0.98059237  0.90903938  1
  O  O41  1  0.80206536  0.81981973  0.90894559  1
  O  O42  1  0.97372568  0.17336780  0.58723321  1
  O  O43  1  0.19964856  0.02755731  0.58735691  1
  O  O44  1  0.84028896  0.80583233  0.58587902  1
  O  O45  1  0.97669508  0.80355213  0.08711460  1
  O  O46  1  0.82880162  0.02884593  0.08750470  1
  O  O47  1  0.20005778  0.17027057  0.08784611  1
  O  O48  1  0.68213514  0.15488806  0.74439744  1
  O  O49  1  0.47189986  0.31676376  0.74498534  1
  O  O50  1  0.84601302  0.52577534  0.74478940  1
  O  O51  1  0.68197247  0.52413908  0.24427641  1
  O  O52  1  0.84125136  0.31237336  0.24373896  1
  O  O53  1  0.47121178  0.16285087  0.24344574  1
  O  O54  1  0.63774875  0.50037038  0.92392725  1
  O  O55  1  0.85767714  0.36418451  0.92477938  1
  O  O56  1  0.50515513  0.14489243  0.92547270  1
  O  O57  1  0.64618795  0.14448414  0.42522278  1
  O  O58  1  0.49714892  0.35371797  0.42472444  1
  O  O59  1  0.85738759  0.50020540  0.42475612  1
  O  O60  1  0.35964882  0.49451619  0.07704796  1
  O  O61  1  0.13752429  0.64689676  0.07773212  1
  O  O62  1  0.50643048  0.86563541  0.07612000  1
  O  O63  1  0.35052175  0.86230862  0.57530739  1
  O  O64  1  0.50065314  0.64386322  0.57580491  1
  O  O65  1  0.13137259  0.49614188  0.57468775  1
  O  O66  1  0.31147429  0.83958108  0.25589590  1
  O  O67  1  0.52404939  0.68264070  0.25605101  1
  O  O68  1  0.16384860  0.47213855  0.25672177  1
  O  O69  1  0.31291221  0.47785101  0.75896757  1
  O  O70  1  0.16632739  0.69081779  0.75807145  1
  O  O71  1  0.52265525  0.83330928  0.75909532  1
loop_
_geom_bond_atom_site_label_1
_geom_bond_atom_site_label_2
_geom_bond_distance
_geom_bond_site_symmetry_2
Na0 O68 2.365119 1_555
Na0 O53 2.370207 1_555
Na0 O67 2.408923 1_555
Na0 O51 2.411624 1_555
Na0 O32 2.663773 1_555
Na0 O17 2.728092 1_555
Na0 O0 2.749174 1_555
Na0 O10 2.774696 1_555
Na1 O44 2.272820 1_455
Na1 O65 2.348923 1_555
Na1 O63 2.423046 1_555
Na1 O43 2.472765 1_565
Na1 O8 2.658183 1_555
Na1 O29 2.708538 1_555
Na1 O12 2.784408 1_455
Na1 O22 2.854455 1_455
Na2 O47 2.344551 1_565
Na2 O62 2.369189 1_555
Na2 O61 2.404592 1_555
Na2 O45 2.440932 1_455
Na2 O26 2.565679 1_554
Na2 O11 2.716252 1_555
Na2 O18 2.797531 1_565
Na2 O16 2.812213 1_565
Na3 O44 2.490845 1_545
Na3 O42 2.514158 1_555
Na3 O37 2.527012 1_545
Na3 O38 2.571645 1_655
Na3 O36 2.602953 1_645
Na3 O43 2.609532 1_655
Na4 O39 2.471127 1_655
Na4 O40 2.524917 1_645
Na4 O41 2.532001 1_545
Na4 O46 2.617929 1_556
Na4 O47 2.651268 1_656
Na4 O45 2.675511 1_546
Na5 O48 2.492052 1_555
Na5 O49 2.494223 1_555
Na5 O50 2.504890 1_555
Na5 O56 2.639923 1_555
Na5 O55 2.654270 1_555
Na5 O54 2.664105 1_555
Na6 O52 2.522245 1_555
Na6 O59 2.557936 1_555
Na6 O57 2.559893 1_555
Na6 O53 2.599537 1_555
Na6 O51 2.601198 1_555
Na6 O58 2.645799 1_555
Na7 O68 2.548752 1_555
Na7 O67 2.550147 1_555
Na7 O66 2.550301 1_555
Na7 O61 2.596491 1_555
Na7 O60 2.601735 1_555
Na7 O62 2.630478 1_555
Na8 O64 2.470844 1_555
Na8 O71 2.563610 1_555
Na8 O69 2.567860 1_555
Na8 O63 2.668761 1_555
Na8 O65 2.674217 1_555
Na8 O70 2.689387 1_555
Mg0 O1 2.016356 1_555
Mg0 O2 2.039653 1_565
Mg0 O0 2.067031 1_665
Mg0 O37 2.075038 1_555
Mg0 O38 2.094598 1_665
Mg0 O36 2.111034 1_655
Mg1 O39 2.009070 1_555
Mg1 O3 2.009370 1_555
Mg1 O40 2.039595 1_545
Mg1 O5 2.054937 1_455
Mg1 O4 2.056360 1_445
Mg1 O41 2.110442 1_445
Mg2 O6 2.027862 1_545
Mg2 O7 2.065449 1_655
Mg2 O44 2.106029 1_545
Mg2 O42 2.112817 1_555
Mg2 O8 2.124753 1_645
Mg2 O43 2.189468 1_655
Mg3 O9 1.997831 1_555
Mg3 O10 2.020101 1_665
Mg3 O11 2.085100 1_655
Mg3 O46 2.103828 1_565
Mg3 O45 2.148014 1_555
Mg3 O47 2.170268 1_665
Mg4 O14 1.957860 1_555
Mg4 O13 2.030968 1_555
Mg4 O49 2.066740 1_555
Mg4 O12 2.078059 1_555
Mg4 O50 2.098832 1_555
Mg4 O48 2.111310 1_555
Mg5 O15 1.986446 1_555
Mg5 O16 2.025163 1_555
Mg5 O52 2.045076 1_555
Mg5 O51 2.083074 1_555
Mg5 O17 2.083628 1_555
Mg5 O53 2.104645 1_555
Mg6 O25 1.925612 1_554
Mg6 O26 1.995240 1_554
Mg6 O24 2.014510 1_554
Mg6 O60 2.095670 1_555
Mg6 O62 2.130969 1_555
Mg6 O61 2.134653 1_555
Mg7 O64 1.981955 1_555
Mg7 O27 1.988494 1_555
Mg7 O28 2.014688 1_555
Mg7 O29 2.108201 1_555
Mg7 O63 2.112290 1_555
Mg7 O65 2.127582 1_555
Mg8 O31 2.014246 1_555
Mg8 O30 2.036929 1_555
Mg8 O66 2.076798 1_555
Mg8 O32 2.119955 1_555
Mg8 O67 2.121107 1_555
Mg8 O68 2.125070 1_555
O0 S0 1.479951 1_545
O1 S1 1.466136 1_555
O2 S2 1.471843 1_555
O3 S3 1.461932 1_555
O4 S4 1.458184 1_555
O5 S5 1.462835 1_545
O6 S5 1.474781 1_555
O7 S3 1.475257 1_555
O8 S4 1.482926 1_455
O9 S1 1.470328 1_555
O10 S2 1.488109 1_455
O11 S0 1.491948 1_555
O12 S6 1.465582 1_555
O13 S7 1.452951 1_555
O14 P0 1.506403 1_555
O15 S8 1.461654 1_555
O16 S9 1.474468 1_555
O17 S10 1.482960 1_555
O18 S10 1.509801 1_555
O18 Ti0 2.119772 1_554
O19 S8 1.501116 1_555
O19 Ti0 2.064725 1_554
O20 S9 1.515972 1_555
O20 Ti0 2.021221 1_554
O21 S7 1.516693 1_555
O21 Ti1 1.978890 1_555
O22 P0 1.652167 1_555
O22 Ti1 1.809048 1_555
O23 S6 1.524628 1_555
O23 Ti1 1.996117 1_555
O24 S11 1.456146 1_555
O25 P1 1.495188 1_555
O26 P2 1.513112 1_555
O27 S12 1.464962 1_555
O28 S13 1.461439 1_555
O29 S14 1.476729 1_555
O30 S14 1.464924 1_555
O31 S12 1.470224 1_555
O32 S13 1.480939 1_555
O33 P1 1.589915 1_555
O33 Ti2 1.876942 1_555
O34 P2 1.587654 1_555
O34 Ti2 1.891370 1_555
O35 S11 1.498116 1_555
O35 Ti2 2.082435 1_555
O36 S14 1.476626 1_555
O37 S12 1.481622 1_555
O38 S13 1.476503 1_555
O39 P1 1.505054 1_555
O40 P2 1.506802 1_555
O41 S11 1.462467 1_555
O42 S6 1.468902 1_555
O43 S7 1.488437 1_555
O44 P0 1.550369 1_555
O45 S8 1.497823 1_555
O46 S9 1.470213 1_555
O47 S10 1.501444 1_555
O48 S5 1.482416 1_545
O49 S3 1.480650 1_555
O50 S4 1.474638 1_555
O51 S1 1.504890 1_555
O52 S2 1.478610 1_555
O53 S0 1.505661 1_545
O54 S11 1.530942 1_555
O54 Ti0 2.003950 1_555
O55 P1 1.611766 1_655
O55 Ti0 1.858589 1_555
O56 P2 1.606474 1_545
O56 Ti0 1.877198 1_555
O57 S12 1.522405 1_545
O57 Ti1 2.079091 1_555
O58 S13 1.534730 1_555
O58 Ti1 2.013760 1_555
O59 S14 1.536417 1_655
O59 Ti1 2.007648 1_555
O60 S10 1.467863 1_555
O61 S8 1.491326 1_455
O62 S9 1.489695 1_565
O63 S7 1.488020 1_565
O64 P0 1.515339 1_555
O65 S6 1.489221 1_455
O66 S0 1.476509 1_555
O67 S1 1.504892 1_555
O68 S2 1.506143 1_455
O69 S3 1.533617 1_555
O69 Ti2 2.058095 1_555
O70 S4 1.543857 1_455
O70 Ti2 1.980760 1_555
O71 S5 1.533385 1_555
O71 Ti2 2.047445 1_555
