# generated using pymatgen
data_Na14Mg4Al4Si5S7O48
_symmetry_space_group_name_H-M   'P 1'
_cell_length_a   17.80287659
_cell_length_b   8.83925988
_cell_length_c   21.83708863
_cell_angle_alpha   89.87690427
_cell_angle_beta   90.17531012
_cell_angle_gamma   119.62847611
_symmetry_Int_Tables_number   1
_chemical_formula_structural   Na14Mg4Al4Si5S7O48
_chemical_formula_sum   'Na42 Mg12 Al12 Si15 S21 O144'
_cell_volume   2987.05374690
_cell_formula_units_Z   3
loop_
 _symmetry_equiv_pos_site_id
 _symmetry_equiv_pos_as_xyz
  1  'x, y, z'
loop_
 _atom_site_type_symbol
 _atom_site_label
 _atom_site_symmetry_multiplicity
 _atom_site_fract_x
 _atom_site_fract_y
 _atom_site_fract_z
 _atom_site_occupancy
  Na  Na0  1  0.80907121  0.99832141  0.24905530  1
  Na  Na1  1  0.18500426  0.35662769  0.25246990  1
  Na  Na2  1  0.68037515  0.35300819  0.25154002  1
  Na  Na3  1  0.00582794  0.64890608  0.24738214  1
  Na  Na4  1  0.50421724  0.64400517  0.24110154  1
  Na  Na5  1  0.31887542  0.62107492  0.75125932  1
  Na  Na6  1  0.00412155  0.36411139  0.74158189  1
  Na  Na7  1  0.50410278  0.37209111  0.74684883  1
  Na  Na8  1  0.18337287  0.01141643  0.75120017  1
  Na  Na9  1  0.67613177  0.00214394  0.75139529  1
  Na  Na10  1  0.14976520  0.32523693  0.58338083  1
  Na  Na11  1  0.65333896  0.32481328  0.58188625  1
  Na  Na12  1  0.32858624  0.97511762  0.58934995  1
  Na  Na13  1  0.83315425  0.98511764  0.58529995  1
  Na  Na14  1  0.15595383  0.98504524  0.07621208  1
  Na  Na15  1  0.64853482  0.97070743  0.07784965  1
  Na  Na16  1  0.33475507  0.68245338  0.08190073  1
  Na  Na17  1  0.82592586  0.67979453  0.08334380  1
  Na  Na18  1  0.48416883  0.67515633  0.91722604  1
  Na  Na19  1  0.98829560  0.67605493  0.91520109  1
  Na  Na20  1  0.34469634  0.03556460  0.91227280  1
  Na  Na21  1  0.84390243  0.02684545  0.91312002  1
  Na  Na22  1  0.16766000  0.27994456  0.91415317  1
  Na  Na23  1  0.66619730  0.27910202  0.91574859  1
  Na  Na24  1  0.48898193  0.30236645  0.41854001  1
  Na  Na25  1  0.98506712  0.29815932  0.42913023  1
  Na  Na26  1  0.16741019  0.05607344  0.42025418  1
  Na  Na27  1  0.66688241  0.05390749  0.41817147  1
  Na  Na28  1  0.34662120  0.66021039  0.41760430  1
  Na  Na29  1  0.84282965  0.65452611  0.41707313  1
  Na  Na30  1  0.00895616  0.01244215  0.50597845  1
  Na  Na31  1  0.51069347  0.00357008  0.50432447  1
  Na  Na32  1  0.01000766  0.01833256  0.00046351  1
  Na  Na33  1  0.50911852  0.00520640  0.00217152  1
  Na  Na34  1  0.32852442  0.33324579  0.82882569  1
  Na  Na35  1  0.82112073  0.32977050  0.82912667  1
  Na  Na36  1  0.32445754  0.31603830  0.33047479  1
  Na  Na37  1  0.81885133  0.32251919  0.33491758  1
  Na  Na38  1  0.17029735  0.67055505  0.16500852  1
  Na  Na39  1  0.65612662  0.64987549  0.16280011  1
  Na  Na40  1  0.15827387  0.66245920  0.66523338  1
  Na  Na41  1  0.66301944  0.66877929  0.66935866  1
  Mg  Mg0  1  0.01286194  0.01792287  0.35122726  1
  Mg  Mg1  1  0.50929994  0.01841869  0.35075587  1
  Mg  Mg2  1  0.00763552  0.99813561  0.85032142  1
  Mg  Mg3  1  0.51312297  0.99815440  0.84723409  1
  Mg  Mg4  1  0.32839106  0.32617885  0.68424904  1
  Mg  Mg5  1  0.82272905  0.32950657  0.17982508  1
  Mg  Mg6  1  0.32698727  0.33179991  0.98684001  1
  Mg  Mg7  1  0.82276810  0.31565195  0.98313683  1
  Mg  Mg8  1  0.32284065  0.33165583  0.48561097  1
  Mg  Mg9  1  0.82644988  0.32291629  0.48857781  1
  Mg  Mg10  1  0.66434365  0.66312282  0.31476858  1
  Mg  Mg11  1  0.16654931  0.66850845  0.81342594  1
  Al  Al0  1  0.01248155  0.02286499  0.64605295  1
  Al  Al1  1  0.52261244  0.00975438  0.65680728  1
  Al  Al2  1  0.01354822  0.00997197  0.15055672  1
  Al  Al3  1  0.51360125  0.00383848  0.14457422  1
  Al  Al4  1  0.82467202  0.31622828  0.67773730  1
  Al  Al5  1  0.32539275  0.32886241  0.17685339  1
  Al  Al6  1  0.16449520  0.65617218  0.01540258  1
  Al  Al7  1  0.64521327  0.64730165  0.02301828  1
  Al  Al8  1  0.15020593  0.64326832  0.52618605  1
  Al  Al9  1  0.66075944  0.66236968  0.51950442  1
  Al  Al10  1  0.17577403  0.68506746  0.31593120  1
  Al  Al11  1  0.66514881  0.67102142  0.80934507  1
  Si  Si0  1  0.15422014  0.00033852  0.24928356  1
  Si  Si1  1  0.64898128  0.99858485  0.25116100  1
  Si  Si2  1  0.14714842  0.29881237  0.75144427  1
  Si  Si3  1  0.65606214  0.30975031  0.74968690  1
  Si  Si4  1  0.49828153  0.69908200  0.75289639  1
  Si  Si5  1  0.97573519  0.32932420  0.58552012  1
  Si  Si6  1  0.18155613  0.02342153  0.58218712  1
  Si  Si7  1  0.68063727  0.02387372  0.58182968  1
  Si  Si8  1  0.47558427  0.62149787  0.08566651  1
  Si  Si9  1  0.18054089  0.33712935  0.08327958  1
  Si  Si10  1  0.68081498  0.34109972  0.08215237  1
  Si  Si11  1  0.16818995  0.95594057  0.91874356  1
  Si  Si12  1  0.66801232  0.94682178  0.91714907  1
  Si  Si13  1  0.16730905  0.38987951  0.41580923  1
  Si  Si14  1  0.66841762  0.38055612  0.41816220  1
  S  S0  1  0.35310341  0.71134283  0.25110786  1
  S  S1  1  0.85978173  0.71727397  0.24871812  1
  S  S2  1  0.99961464  0.29028677  0.24918845  1
  S  S3  1  0.49342337  0.28261683  0.24816349  1
  S  S4  1  0.99378844  0.70479367  0.74805481  1
  S  S5  1  0.35835248  0.99934260  0.74890194  1
  S  S6  1  0.85481480  0.99721948  0.75030939  1
  S  S7  1  0.48137167  0.33535325  0.58175620  1
  S  S8  1  0.33674220  0.63884433  0.58243194  1
  S  S9  1  0.83487275  0.62910235  0.58375539  1
  S  S10  1  0.98148009  0.62796586  0.08445428  1
  S  S11  1  0.33558254  0.04166628  0.08435810  1
  S  S12  1  0.83956527  0.03836344  0.08500799  1
  S  S13  1  0.31110851  0.66892870  0.91774616  1
  S  S14  1  0.81073787  0.66855523  0.91631422  1
  S  S15  1  0.02001944  0.37714665  0.91835034  1
  S  S16  1  0.52225330  0.37809124  0.91564013  1
  S  S17  1  0.31200626  0.95520525  0.41634127  1
  S  S18  1  0.81236533  0.95562140  0.41589497  1
  S  S19  1  0.02359031  0.66639650  0.41485231  1
  S  S20  1  0.51978874  0.66326419  0.41781804  1
  O  O0  1  0.11529400  0.04529397  0.30922983  1
  O  O1  1  0.60911496  0.03284008  0.31268101  1
  O  O2  1  0.40440558  0.79144702  0.30692563  1
  O  O3  1  0.91001076  0.80047794  0.30495364  1
  O  O4  1  0.48192497  0.18807365  0.30665930  1
  O  O5  1  0.98217338  0.18509688  0.30580774  1
  O  O6  1  0.10616380  0.18567876  0.81315046  1
  O  O7  1  0.61777632  0.18708602  0.80985777  1
  O  O8  1  0.47304843  0.76839512  0.81383578  1
  O  O9  1  0.98181644  0.77534917  0.80650859  1
  O  O10  1  0.40886411  0.02144829  0.80569345  1
  O  O11  1  0.90650681  0.02199932  0.80626045  1
  O  O12  1  0.40225357  0.97762871  0.69389234  1
  O  O13  1  0.89609542  0.97340175  0.69506204  1
  O  O14  1  0.08209706  0.20067913  0.69278792  1
  O  O15  1  0.58819615  0.22062615  0.69051038  1
  O  O16  1  0.00490891  0.82252620  0.69589342  1
  O  O17  1  0.51775447  0.83633427  0.69647020  1
  O  O18  1  0.39322675  0.81650625  0.19566280  1
  O  O19  1  0.90313151  0.83001341  0.19386740  1
  O  O20  1  0.01182800  0.19706118  0.19681293  1
  O  O21  1  0.50504363  0.18830607  0.19614337  1
  O  O22  1  0.08434027  0.95309717  0.19158582  1
  O  O23  1  0.58451766  0.96984767  0.19272403  1
  O  O24  1  0.44230281  0.36107978  0.63636179  1
  O  O25  1  0.92590909  0.35538185  0.64426513  1
  O  O26  1  0.24641447  0.10397737  0.64066648  1
  O  O27  1  0.74638343  0.11428038  0.64061772  1
  O  O28  1  0.32224299  0.52624527  0.63592492  1
  O  O29  1  0.81746330  0.50643611  0.63521291  1
  O  O30  1  0.42674057  0.49747740  0.14559746  1
  O  O31  1  0.94187176  0.52384802  0.14011372  1
  O  O32  1  0.31756392  0.12823391  0.13629089  1
  O  O33  1  0.82689489  0.12378433  0.13938316  1
  O  O34  1  0.24544905  0.37713005  0.14296730  1
  O  O35  1  0.74321240  0.39351924  0.14280296  1
  O  O36  1  0.21692908  0.28609066  0.02409463  1
  O  O37  1  0.72217340  0.29120366  0.02453516  1
  O  O38  1  0.41987347  0.54658656  0.02381879  1
  O  O39  1  0.92854946  0.54716222  0.02927224  1
  O  O40  1  0.34994203  0.13936810  0.02738106  1
  O  O41  1  0.85580635  0.14565033  0.02926928  1
  O  O42  1  0.21892253  0.14914668  0.52182650  1
  O  O43  1  0.71727745  0.14401233  0.52156410  1
  O  O44  1  0.35230326  0.56337105  0.52606995  1
  O  O45  1  0.85013806  0.56140393  0.52616667  1
  O  O46  1  0.42950172  0.31435181  0.52551047  1
  O  O47  1  0.92179198  0.29652092  0.52248322  1
  O  O48  1  0.26593138  0.68546156  0.97358502  1
  O  O49  1  0.77269054  0.69348507  0.97261536  1
  O  O50  1  0.07932042  0.46017977  0.97179438  1
  O  O51  1  0.57817972  0.45813863  0.97046413  1
  O  O52  1  0.15514448  0.82621050  0.97907453  1
  O  O53  1  0.65791082  0.82601067  0.97791027  1
  O  O54  1  0.27239915  0.85052365  0.47128859  1
  O  O55  1  0.76970910  0.84818159  0.47124147  1
  O  O56  1  0.15661587  0.49128253  0.47526946  1
  O  O57  1  0.65620702  0.48665619  0.47703746  1
  O  O58  1  0.07927887  0.69655272  0.46931286  1
  O  O59  1  0.57894330  0.69701552  0.47097470  1
  O  O60  1  0.06588117  0.64543772  0.35863459  1
  O  O61  1  0.55729805  0.63829227  0.36120665  1
  O  O62  1  0.25459889  0.87673553  0.36153067  1
  O  O63  1  0.75940766  0.87749846  0.36025435  1
  O  O64  1  0.17864258  0.51042046  0.35426955  1
  O  O65  1  0.68305844  0.49226665  0.35568873  1
  O  O66  1  0.05767013  0.47774718  0.86205071  1
  O  O67  1  0.56439002  0.48413489  0.86023818  1
  O  O68  1  0.18138232  0.86939481  0.85734072  1
  O  O69  1  0.68230525  0.85040002  0.85749015  1
  O  O70  1  0.25797835  0.64129075  0.86259981  1
  O  O71  1  0.75385086  0.63502758  0.86226932  1
  O  O72  1  0.01114372  0.82087771  0.41031859  1
  O  O73  1  0.50587926  0.81564265  0.41438915  1
  O  O74  1  0.39723234  0.96512503  0.40806432  1
  O  O75  1  0.89836377  0.96536063  0.41145866  1
  O  O76  1  0.08013575  0.19636461  0.41536419  1
  O  O77  1  0.57883906  0.18882936  0.41913319  1
  O  O78  1  0.00584183  0.19698231  0.91535796  1
  O  O79  1  0.51024381  0.19972767  0.91144441  1
  O  O80  1  0.07846214  0.96891909  0.91961900  1
  O  O81  1  0.58197379  0.96981645  0.91782120  1
  O  O82  1  0.39510472  0.83210812  0.91638308  1
  O  O83  1  0.89729003  0.82927755  0.90934662  1
  O  O84  1  0.48818625  0.17306124  0.58620687  1
  O  O85  1  0.98364964  0.14900160  0.59318987  1
  O  O86  1  0.08567238  0.00635886  0.59286397  1
  O  O87  1  0.58709782  0.01707191  0.59252419  1
  O  O88  1  0.40997586  0.81800688  0.58956581  1
  O  O89  1  0.90836864  0.80545114  0.59438817  1
  O  O90  1  0.48440488  0.81843941  0.09426955  1
  O  O91  1  0.98646473  0.80473583  0.08970747  1
  O  O92  1  0.40969213  0.01302576  0.09573714  1
  O  O93  1  0.91452346  0.00721378  0.09360901  1
  O  O94  1  0.08557740  0.16040579  0.09540885  1
  O  O95  1  0.58568999  0.16606309  0.09211481  1
  O  O96  1  0.34916391  0.15648348  0.74420730  1
  O  O97  1  0.84664884  0.15908402  0.74555322  1
  O  O98  1  0.24214280  0.31585922  0.74465447  1
  O  O99  1  0.74916407  0.31614524  0.73524491  1
  O  O100  1  0.41894715  0.50372558  0.74143089  1
  O  O101  1  0.91950307  0.52690432  0.74165821  1
  O  O102  1  0.34474975  0.53354624  0.24708289  1
  O  O103  1  0.85493096  0.54479325  0.24433400  1
  O  O104  1  0.41853227  0.31121324  0.24205268  1
  O  O105  1  0.92541334  0.31970798  0.24068121  1
  O  O106  1  0.24816812  0.17624285  0.23567883  1
  O  O107  1  0.74646104  0.17066883  0.24519472  1
  O  O108  1  0.32328011  0.51535587  0.92217829  1
  O  O109  1  0.82631533  0.51680564  0.92093458  1
  O  O110  1  0.43689062  0.36625515  0.92137716  1
  O  O111  1  0.93547802  0.36908300  0.92726174  1
  O  O112  1  0.25498571  0.14959103  0.92258915  1
  O  O113  1  0.75568774  0.14145393  0.91746880  1
  O  O114  1  0.32566318  0.13532360  0.41991481  1
  O  O115  1  0.82486817  0.13399805  0.41977385  1
  O  O116  1  0.25463490  0.36979205  0.41608142  1
  O  O117  1  0.75552836  0.36053977  0.42228235  1
  O  O118  1  0.43473777  0.50307110  0.42571402  1
  O  O119  1  0.93792759  0.50874921  0.41899494  1
  O  O120  1  0.17646939  0.52034396  0.07364481  1
  O  O121  1  0.67671508  0.52110718  0.06944242  1
  O  O122  1  0.07083739  0.65613685  0.07950684  1
  O  O123  1  0.57551595  0.65751917  0.08129619  1
  O  O124  1  0.25534102  0.86420083  0.08040443  1
  O  O125  1  0.76006981  0.86626516  0.07928277  1
  O  O126  1  0.17773933  0.83493438  0.56945703  1
  O  O127  1  0.67667913  0.83284592  0.57256930  1
  O  O128  1  0.25544510  0.65018129  0.57564743  1
  O  O129  1  0.75399193  0.64497697  0.57885739  1
  O  O130  1  0.07597006  0.49244996  0.58159625  1
  O  O131  1  0.57164704  0.48892986  0.57650313  1
  O  O132  1  0.15680229  0.81477874  0.25904479  1
  O  O133  1  0.65752948  0.82102932  0.25212290  1
  O  O134  1  0.26312993  0.68641909  0.25522603  1
  O  O135  1  0.77166435  0.69466868  0.25047429  1
  O  O136  1  0.08022924  0.46305570  0.25301625  1
  O  O137  1  0.57430426  0.45757137  0.25094270  1
  O  O138  1  0.15605447  0.49322526  0.75237800  1
  O  O139  1  0.66113887  0.49912426  0.75940077  1
  O  O140  1  0.07508337  0.69301725  0.75082350  1
  O  O141  1  0.59028250  0.69302158  0.75712404  1
  O  O142  1  0.27081916  0.84241111  0.75133978  1
  O  O143  1  0.76631480  0.84418985  0.75430660  1
loop_
_geom_bond_atom_site_label_1
_geom_bond_atom_site_label_2
_geom_bond_distance
_geom_bond_site_symmetry_2
Na0 O107 2.290892 1_565
Na0 O133 2.357803 1_555
Na0 O135 2.425095 1_555
Na0 O105 2.564368 1_565
Na0 O33 2.590658 1_565
Na0 O63 2.624336 1_555
Na1 O106 2.391466 1_555
Na1 O136 2.469754 1_555
Na1 O102 2.480164 1_555
Na1 O134 2.535220 1_555
Na1 O34 2.594186 1_555
Na1 O64 2.639953 1_555
Na1 O0 2.695857 1_555
Na1 O20 2.942200 1_555
Na2 O107 2.424456 1_555
Na2 O137 2.479085 1_555
Na2 O35 2.575744 1_555
Na2 O65 2.577438 1_555
Na2 O135 2.628571 1_555
Na2 O103 2.710858 1_555
Na2 O1 2.800972 1_555
Na2 O21 2.969401 1_555
Na3 O132 2.353654 1_555
Na3 O103 2.371253 1_455
Na3 O105 2.533747 1_455
Na3 O136 2.572532 1_555
Na3 O31 2.599170 1_455
Na3 O22 2.635978 1_555
Na3 O60 2.657495 1_555
Na3 O3 2.926680 1_455
Na4 O133 2.393913 1_555
Na4 O30 2.481349 1_555
Na4 O102 2.508222 1_555
Na4 O137 2.519658 1_555
Na4 O104 2.558075 1_555
Na4 O23 2.716677 1_555
Na4 O61 2.793886 1_555
Na5 O98 2.349883 1_555
Na5 O100 2.475172 1_555
Na5 O142 2.492920 1_555
Na5 O138 2.538002 1_555
Na5 O28 2.666286 1_555
Na5 O70 2.707086 1_555
Na5 O8 2.747226 1_555
Na6 O138 2.370503 1_555
Na6 O97 2.475607 1_455
Na6 O25 2.517385 1_455
Na6 O140 2.541351 1_555
Na6 O101 2.546253 1_455
Na6 O14 2.673542 1_555
Na6 O66 2.808467 1_555
Na7 O100 2.325634 1_555
Na7 O139 2.458581 1_555
Na7 O96 2.458805 1_555
Na7 O141 2.479696 1_555
Na7 O24 2.630595 1_555
Na7 O67 2.684606 1_555
Na7 O15 2.747279 1_555
Na8 O98 2.360558 1_555
Na8 O140 2.504575 1_545
Na8 O96 2.576631 1_555
Na8 O26 2.618262 1_555
Na8 O68 2.625531 1_545
Na8 O142 2.637187 1_545
Na8 O6 2.864601 1_555
Na9 O141 2.384994 1_545
Na9 O99 2.439051 1_555
Na9 O143 2.597400 1_545
Na9 O97 2.644600 1_555
Na9 O7 2.660424 1_555
Na9 O27 2.679742 1_555
Na9 O69 2.703627 1_545
Na9 O17 2.727184 1_545
Na10 O130 2.414847 1_555
Na10 O86 2.471551 1_555
Na10 O128 2.544581 1_555
Na10 O85 2.581820 1_455
Na10 O14 2.658251 1_555
Na10 O56 2.748184 1_555
Na10 O42 2.767540 1_555
Na10 O28 2.914599 1_555
Na11 O87 2.381461 1_555
Na11 O129 2.492014 1_555
Na11 O131 2.513496 1_555
Na11 O84 2.560186 1_555
Na11 O15 2.602129 1_555
Na11 O57 2.684361 1_555
Na11 O43 2.720635 1_555
Na11 O29 2.796423 1_555
Na12 O126 2.375086 1_555
Na12 O88 2.453095 1_555
Na12 O84 2.494890 1_565
Na12 O128 2.517540 1_555
Na12 O26 2.521156 1_565
Na12 O12 2.623976 1_555
Na12 O54 2.786996 1_555
Na12 O46 2.972104 1_565
Na13 O85 2.338220 1_565
Na13 O127 2.436937 1_555
Na13 O89 2.540502 1_555
Na13 O129 2.618511 1_555
Na13 O27 2.628723 1_565
Na13 O13 2.666198 1_555
Na13 O55 2.754714 1_555
Na13 O47 2.765998 1_565
Na14 O94 2.464630 1_565
Na14 O124 2.479396 1_555
Na14 O122 2.529356 1_555
Na14 O52 2.542336 1_554
Na14 O36 2.587100 1_565
Na14 O91 2.641993 1_455
Na14 O22 2.777285 1_555
Na14 O32 2.825683 1_565
Na15 O123 2.408482 1_555
Na15 O95 2.499062 1_565
Na15 O90 2.567858 1_555
Na15 O125 2.570612 1_555
Na15 O53 2.579119 1_554
Na15 O37 2.724468 1_565
Na15 O23 2.756897 1_555
Na16 O90 2.333744 1_555
Na16 O120 2.456034 1_555
Na16 O92 2.560512 1_565
Na16 O124 2.612661 1_555
Na16 O48 2.666612 1_554
Na16 O38 2.676752 1_555
Na16 O34 2.710104 1_555
Na16 O18 2.726959 1_555
Na17 O121 2.329977 1_555
Na17 O125 2.451260 1_555
Na17 O91 2.506950 1_555
Na17 O93 2.530068 1_565
Na17 O35 2.563356 1_555
Na17 O49 2.618709 1_554
Na17 O19 2.768809 1_555
Na17 O39 2.871156 1_555
Na18 O81 2.309053 1_555
Na18 O110 2.428811 1_555
Na18 O8 2.442629 1_555
Na18 O108 2.492374 1_555
Na18 O82 2.571747 1_555
Na18 O38 2.595873 1_556
Na19 O80 2.275712 1_655
Na19 O111 2.406622 1_555
Na19 O109 2.510146 1_555
Na19 O9 2.550833 1_555
Na19 O83 2.577440 1_555
Na19 O39 2.727674 1_556
Na19 O66 2.846617 1_655
Na19 O52 2.935100 1_655
Na20 O112 2.283021 1_555
Na20 O82 2.375339 1_545
Na20 O110 2.556276 1_555
Na20 O79 2.561982 1_555
Na20 O10 2.625976 1_555
Na20 O40 2.663211 1_556
Na20 O68 2.795252 1_545
Na21 O113 2.253018 1_555
Na21 O83 2.366886 1_545
Na21 O78 2.507635 1_655
Na21 O11 2.598617 1_555
Na21 O111 2.651264 1_555
Na21 O41 2.714583 1_556
Na21 O69 2.781196 1_545
Na21 O49 2.877143 1_545
Na22 O112 2.355205 1_555
Na22 O80 2.403614 1_545
Na22 O6 2.418416 1_555
Na22 O108 2.516894 1_555
Na22 O36 2.544939 1_556
Na22 O78 2.597922 1_555
Na23 O81 2.381404 1_545
Na23 O113 2.436412 1_555
Na23 O7 2.460534 1_555
Na23 O79 2.506440 1_555
Na23 O37 2.555214 1_556
Na23 O109 2.574938 1_555
Na24 O77 2.270163 1_555
Na24 O118 2.408435 1_555
Na24 O114 2.527929 1_555
Na24 O46 2.591562 1_555
Na24 O74 2.606300 1_545
Na24 O4 2.624619 1_555
Na24 O61 2.878584 1_555
Na24 O57 2.887739 1_555
Na25 O76 2.296641 1_655
Na25 O47 2.328664 1_555
Na25 O119 2.399998 1_555
Na25 O115 2.487385 1_555
Na25 O75 2.587799 1_545
Na25 O56 2.844337 1_655
Na25 O5 2.865922 1_555
Na26 O42 2.384738 1_555
Na26 O116 2.418991 1_555
Na26 O76 2.422137 1_555
Na26 O72 2.527508 1_545
Na26 O114 2.544995 1_555
Na26 O0 2.578312 1_555
Na27 O117 2.369765 1_555
Na27 O77 2.393362 1_555
Na27 O43 2.413652 1_555
Na27 O1 2.489361 1_555
Na27 O115 2.538480 1_555
Na27 O73 2.586255 1_545
Na28 O116 2.261913 1_555
Na28 O74 2.391037 1_555
Na28 O73 2.465860 1_555
Na28 O44 2.535454 1_555
Na28 O118 2.563837 1_555
Na28 O2 2.658684 1_555
Na28 O54 2.857619 1_555
Na28 O64 2.945603 1_555
Na29 O117 2.277674 1_555
Na29 O75 2.419702 1_555
Na29 O45 2.542701 1_555
Na29 O119 2.585497 1_555
Na29 O72 2.609219 1_655
Na29 O3 2.751006 1_555
Na29 O65 2.809930 1_555
Na29 O55 2.871461 1_555
Na30 O86 2.350401 1_555
Na30 O85 2.416562 1_455
Na30 O76 2.475651 1_555
Na30 O89 2.654817 1_445
Na30 O72 2.704308 1_545
Na30 O75 2.734690 1_445
Na31 O87 2.323457 1_555
Na31 O77 2.377110 1_555
Na31 O84 2.492337 1_555
Na31 O88 2.543561 1_545
Na31 O73 2.548716 1_545
Na31 O74 2.812931 1_545
Na32 O80 2.309854 1_544
Na32 O94 2.451402 1_555
Na32 O78 2.460765 1_554
Na32 O91 2.597122 1_445
Na32 O93 2.625199 1_455
Na32 O83 2.729951 1_444
Na33 O81 2.364584 1_544
Na33 O95 2.411807 1_555
Na33 O90 2.497339 1_545
Na33 O79 2.614113 1_554
Na33 O82 2.624671 1_544
Na33 O92 2.730626 1_555
Na34 O98 2.348883 1_555
Na34 O100 2.472307 1_555
Na34 O112 2.538189 1_555
Na34 O96 2.564157 1_555
Na34 O108 2.630486 1_555
Na34 O110 2.704408 1_555
Na35 O99 2.385566 1_555
Na35 O113 2.435586 1_555
Na35 O97 2.551147 1_555
Na35 O109 2.573524 1_555
Na35 O101 2.596326 1_555
Na35 O111 2.852189 1_555
Na36 O116 2.422311 1_555
Na36 O106 2.447678 1_555
Na36 O114 2.527246 1_555
Na36 O102 2.538768 1_555
Na36 O104 2.574073 1_555
Na36 O118 2.773734 1_555
Na37 O117 2.326803 1_555
Na37 O107 2.363641 1_555
Na37 O115 2.526656 1_555
Na37 O103 2.632273 1_555
Na37 O119 2.667104 1_555
Na37 O105 2.811602 1_555
Na38 O120 2.431558 1_555
Na38 O124 2.465070 1_555
Na38 O132 2.493349 1_555
Na38 O134 2.526738 1_555
Na38 O122 2.528890 1_555
Na38 O136 2.593154 1_555
Na39 O123 2.304674 1_555
Na39 O121 2.452155 1_555
Na39 O133 2.463549 1_555
Na39 O137 2.504185 1_555
Na39 O125 2.629638 1_555
Na39 O135 2.688314 1_555
Na40 O130 2.357798 1_555
Na40 O138 2.406330 1_555
Na40 O140 2.484827 1_555
Na40 O126 2.507386 1_555
Na40 O142 2.630371 1_555
Na40 O128 2.653069 1_555
Na41 O141 2.384783 1_555
Na41 O139 2.460540 1_555
Na41 O127 2.504170 1_555
Na41 O143 2.529655 1_555
Na41 O131 2.592621 1_555
Na41 O129 2.632730 1_555
Mg0 O0 1.948877 1_555
Mg0 O76 2.003809 1_555
Mg0 O5 2.062628 1_455
Mg0 O3 2.141342 1_445
Mg0 O72 2.153500 1_545
Mg0 O75 2.275579 1_445
Mg1 O1 1.910464 1_555
Mg1 O4 2.031548 1_555
Mg1 O77 2.045887 1_555
Mg1 O2 2.172871 1_545
Mg1 O74 2.202732 1_545
Mg1 O73 2.242578 1_545
Mg2 O6 1.900427 1_565
Mg2 O9 2.028562 1_455
Mg2 O80 2.062806 1_555
Mg2 O11 2.139077 1_465
Mg2 O83 2.203721 1_455
Mg2 O78 2.274615 1_565
Mg3 O8 1.932880 1_555
Mg3 O7 1.963002 1_565
Mg3 O81 2.057064 1_555
Mg3 O10 2.162678 1_565
Mg3 O79 2.290161 1_565
Mg3 O82 2.410318 1_555
Mg4 O98 1.994828 1_555
Mg4 O26 2.014619 1_555
Mg4 O100 2.028721 1_555
Mg4 O28 2.106083 1_555
Mg4 O96 2.153622 1_555
Mg4 O24 2.166637 1_555
Mg5 O35 1.939269 1_555
Mg5 O107 1.992709 1_555
Mg5 O33 2.057369 1_555
Mg5 O31 2.145725 1_555
Mg5 O103 2.205056 1_555
Mg5 O105 2.292724 1_555
Mg6 O38 1.971123 1_556
Mg6 O36 1.972243 1_556
Mg6 O112 2.040363 1_555
Mg6 O40 2.126643 1_556
Mg6 O108 2.173967 1_555
Mg6 O110 2.321766 1_555
Mg7 O37 1.922912 1_556
Mg7 O113 2.008558 1_555
Mg7 O41 2.117226 1_556
Mg7 O111 2.193991 1_555
Mg7 O109 2.211243 1_555
Mg7 O39 2.221707 1_556
Mg8 O42 1.924351 1_555
Mg8 O44 2.047804 1_555
Mg8 O116 2.069927 1_555
Mg8 O46 2.159800 1_555
Mg8 O118 2.235624 1_555
Mg8 O114 2.273703 1_555
Mg9 O43 1.939551 1_555
Mg9 O47 1.966417 1_555
Mg9 O117 2.050007 1_555
Mg9 O45 2.102812 1_555
Mg9 O115 2.238486 1_555
Mg9 O119 2.393786 1_555
Mg10 O65 1.918388 1_555
Mg10 O133 1.998132 1_555
Mg10 O63 2.066031 1_555
Mg10 O61 2.074990 1_555
Mg10 O137 2.220544 1_555
Mg10 O135 2.277585 1_555
Mg11 O68 1.919521 1_555
Mg11 O138 1.983374 1_555
Mg11 O70 2.058094 1_555
Mg11 O66 2.121599 1_555
Mg11 O142 2.198180 1_555
Mg11 O140 2.213870 1_555
Al0 O14 1.766646 1_555
Al0 O86 1.807247 1_555
Al0 O85 1.842790 1_455
Al0 O16 2.023658 1_545
Al0 O13 2.178433 1_445
Al0 O89 2.208200 1_445
Al1 O17 1.723693 1_545
Al1 O15 1.796672 1_555
Al1 O87 1.796866 1_555
Al1 O12 2.176185 1_545
Al1 O88 2.383701 1_545
Al1 O84 2.386551 1_555
Al2 O94 1.783089 1_555
Al2 O22 1.805950 1_545
Al2 O20 1.952820 1_555
Al2 O19 2.049913 1_445
Al2 O91 2.104939 1_445
Al2 O93 2.144572 1_455
Al3 O23 1.776330 1_545
Al3 O95 1.788276 1_555
Al3 O90 1.823332 1_545
Al3 O21 2.050520 1_555
Al3 O92 2.168429 1_555
Al3 O18 2.253244 1_545
Al4 O25 1.814553 1_555
Al4 O27 1.823576 1_555
Al4 O99 1.842122 1_555
Al4 O29 1.977738 1_555
Al4 O97 2.191014 1_555
Al4 O101 2.270395 1_555
Al5 O30 1.812993 1_555
Al5 O34 1.829687 1_555
Al5 O106 1.878756 1_555
Al5 O32 1.926289 1_555
Al5 O104 2.245278 1_555
Al5 O102 2.266346 1_555
Al6 O52 1.776947 1_554
Al6 O120 1.830124 1_555
Al6 O50 1.899554 1_554
Al6 O48 1.925834 1_554
Al6 O122 2.180252 1_555
Al6 O124 2.251330 1_555
Al7 O53 1.777161 1_554
Al7 O121 1.787935 1_555
Al7 O123 1.813366 1_555
Al7 O51 1.887834 1_554
Al7 O125 2.349154 1_555
Al7 O49 2.371891 1_554
Al8 O126 1.785032 1_555
Al8 O56 1.792454 1_555
Al8 O130 1.802436 1_555
Al8 O58 1.983586 1_555
Al8 O128 2.134306 1_555
Al8 O54 2.364677 1_555
Al9 O57 1.777690 1_555
Al9 O127 1.810255 1_555
Al9 O59 1.941296 1_555
Al9 O131 2.003873 1_555
Al9 O55 2.103732 1_555
Al9 O129 2.167197 1_555
Al10 O64 1.777304 1_555
Al10 O132 1.829209 1_555
Al10 O62 1.865234 1_555
Al10 O60 2.037641 1_555
Al10 O134 2.042108 1_555
Al10 O136 2.308412 1_555
Al11 O69 1.799730 1_555
Al11 O141 1.833221 1_555
Al11 O139 1.844638 1_555
Al11 O67 2.063040 1_555
Al11 O143 2.076247 1_555
Al11 O71 2.101103 1_555
O0 Si0 1.622293 1_555
O1 Si1 1.618717 1_545
O2 S0 1.476045 1_555
O3 S1 1.481710 1_555
O4 S3 1.483188 1_555
O5 S2 1.483772 1_555
O6 Si2 1.620774 1_555
O7 Si3 1.623368 1_555
O8 Si4 1.620904 1_555
O9 S4 1.483321 1_555
O10 S5 1.485031 1_545
O11 S6 1.477379 1_545
O12 S5 1.498580 1_555
O13 S6 1.483044 1_555
O14 Si2 1.654304 1_555
O15 Si3 1.674512 1_555
O16 S4 1.487348 1_455
O17 Si4 1.640326 1_555
O18 S0 1.477904 1_555
O19 S1 1.504480 1_555
O20 S2 1.489018 1_455
O21 S3 1.484653 1_555
O22 Si0 1.669898 1_565
O23 Si1 1.647484 1_555
O24 S7 1.456021 1_555
O25 Si5 1.641883 1_555
O26 Si6 1.628804 1_555
O27 Si7 1.651372 1_555
O28 S8 1.471256 1_555
O29 S9 1.482903 1_555
O30 Si8 1.651941 1_555
O31 S10 1.476583 1_555
O32 S11 1.491030 1_555
O33 S12 1.484855 1_555
O34 Si9 1.657700 1_555
O35 Si10 1.639366 1_555
O36 Si9 1.609398 1_555
O37 Si10 1.627527 1_555
O38 Si8 1.610123 1_555
O39 S10 1.476972 1_555
O40 S11 1.462287 1_555
O41 S12 1.480043 1_555
O42 Si6 1.638003 1_555
O43 Si7 1.612286 1_555
O44 S8 1.491637 1_555
O45 S9 1.476329 1_555
O46 S7 1.490073 1_555
O47 Si5 1.618489 1_555
O48 S13 1.509319 1_555
O49 S14 1.474029 1_555
O50 S15 1.498428 1_555
O51 S16 1.491654 1_555
O52 Si11 1.684232 1_555
O53 Si12 1.654909 1_555
O54 S17 1.465749 1_555
O55 S18 1.492292 1_555
O56 Si13 1.643415 1_555
O57 Si14 1.669794 1_555
O58 S19 1.483627 1_555
O59 S20 1.492934 1_555
O60 S19 1.500934 1_555
O61 S20 1.474744 1_555
O62 S17 1.501123 1_555
O63 S18 1.481518 1_555
O64 Si13 1.662785 1_555
O65 Si14 1.626662 1_555
O66 S15 1.470547 1_555
O67 S16 1.486757 1_555
O68 Si11 1.619343 1_555
O69 Si12 1.646091 1_555
O70 S13 1.473212 1_555
O71 S14 1.484505 1_555
O72 S19 1.490619 1_555
O73 S20 1.486720 1_555
O74 S17 1.487458 1_555
O75 S18 1.493777 1_555
O76 Si13 1.646124 1_555
O77 Si14 1.656374 1_555
O78 S15 1.485600 1_555
O79 S16 1.485594 1_555
O80 Si11 1.657301 1_555
O81 Si12 1.641864 1_555
O82 S13 1.478160 1_555
O83 S14 1.500604 1_555
O84 S7 1.501160 1_555
O85 Si5 1.676080 1_555
O86 Si6 1.654904 1_555
O87 Si7 1.653665 1_555
O88 S8 1.479998 1_555
O89 S9 1.476082 1_555
O90 Si8 1.679683 1_555
O91 S10 1.525155 1_555
O92 S11 1.481396 1_555
O93 S12 1.501148 1_555
O94 Si9 1.660808 1_555
O95 Si10 1.648998 1_555
O96 S5 1.480055 1_545
O97 S6 1.511269 1_545
O98 Si2 1.629182 1_555
O99 Si3 1.661441 1_555
O100 Si4 1.620985 1_555
O101 S4 1.478068 1_555
O102 S0 1.506372 1_555
O103 S1 1.487088 1_555
O104 S3 1.480309 1_555
O105 S2 1.478222 1_555
O106 Si0 1.653181 1_555
O107 Si1 1.653143 1_545
O108 S13 1.479592 1_555
O109 S14 1.501123 1_555
O110 S16 1.476494 1_555
O111 S15 1.484547 1_655
O112 Si11 1.646010 1_545
O113 Si12 1.655607 1_545
O114 S17 1.489196 1_545
O115 S18 1.481961 1_545
O116 Si13 1.649660 1_555
O117 Si14 1.647672 1_555
O118 S20 1.485955 1_555
O119 S19 1.474731 1_655
O120 Si9 1.669356 1_555
O121 Si10 1.651324 1_555
O122 S10 1.487831 1_455
O123 Si8 1.648152 1_555
O124 S11 1.514271 1_565
O125 S12 1.484495 1_565
O126 Si6 1.657612 1_565
O127 Si7 1.667565 1_565
O128 S8 1.506241 1_555
O129 S9 1.517644 1_555
O130 Si5 1.651390 1_455
O131 S7 1.510703 1_555
O132 Si0 1.676553 1_565
O133 Si1 1.650091 1_555
O134 S0 1.508053 1_555
O135 S1 1.480796 1_555
O136 S2 1.493869 1_455
O137 S3 1.505570 1_555
O138 Si2 1.646028 1_555
O139 Si3 1.645300 1_555
O140 S4 1.502504 1_455
O141 Si4 1.667290 1_555
O142 S5 1.489404 1_555
O143 S6 1.487553 1_555
