# generated using pymatgen
data_La4MgFeO8
_symmetry_space_group_name_H-M   'P 1'
_cell_length_a   5.58966572
_cell_length_b   7.98517527
_cell_length_c   5.08732367
_cell_angle_alpha   89.89250446
_cell_angle_beta   89.96053573
_cell_angle_gamma   110.48790777
_symmetry_Int_Tables_number   1
_chemical_formula_structural   La4MgFeO8
_chemical_formula_sum   'La4 Mg1 Fe1 O8'
_cell_volume   212.70628884
_cell_formula_units_Z   1
loop_
 _symmetry_equiv_pos_site_id
 _symmetry_equiv_pos_as_xyz
  1  'x, y, z'
loop_
 _atom_site_type_symbol
 _atom_site_label
 _atom_site_symmetry_multiplicity
 _atom_site_fract_x
 _atom_site_fract_y
 _atom_site_fract_z
 _atom_site_occupancy
  La  La0  1  0.18113100  0.36215200  0.50020600  1
  La  La1  1  0.61908000  0.23789600  0.00031900  1
  La  La2  1  0.38091900  0.76210600  0.99967600  1
  La  La3  1  0.81888100  0.63785500  0.49978700  1
  Mg  Mg0  1  0.00002100  0.99997200  0.50000100  1
  Fe  Fe0  1  0.49997800  0.99999900  0.50000200  1
  O  O0  1  0.25329600  0.99978300  0.24038100  1
  O  O1  1  0.25328300  0.00063500  0.75950900  1
  O  O2  1  0.74671100  0.99937800  0.24048700  1
  O  O3  1  0.74669200  0.00021900  0.75962500  1
  O  O4  1  0.20090600  0.40203400  0.00020400  1
  O  O5  1  0.67379900  0.34700400  0.50028500  1
  O  O6  1  0.32619300  0.65299500  0.49971600  1
  O  O7  1  0.79910700  0.59796900  0.99980100  1
loop_
_geom_bond_atom_site_label_1
_geom_bond_atom_site_label_2
_geom_bond_distance
_geom_bond_site_symmetry_2
La0 O6 2.175526 1_555
La0 O4 2.560437 1_555
La0 O4 2.561755 1_556
La0 O5 2.795776 1_455
La0 O5 2.798481 1_555
La1 O0 2.560007 1_545
La1 O3 2.562297 1_554
La1 O1 2.563468 1_554
La1 O2 2.563778 1_545
La1 O5 2.669792 1_554
La1 O5 2.672976 1_555
La1 O7 2.693371 1_554
La1 O4 3.051369 1_655
La1 O4 3.053874 1_555
La2 O3 2.559947 1_565
La2 O0 2.562357 1_556
La2 O2 2.563496 1_556
La2 O1 2.563864 1_565
La2 O6 2.669828 1_556
La2 O6 2.672954 1_555
La2 O4 2.693363 1_556
La2 O7 3.051297 1_455
La2 O7 3.053940 1_555
La3 O5 2.175586 1_555
La3 O7 2.560501 1_555
La3 O7 2.561698 1_554
La3 O6 2.795684 1_655
La3 O6 2.798568 1_555
Mg0 O1 1.935040 1_565
Mg0 O2 1.935396 1_455
Mg0 O0 1.935881 1_555
Mg0 O3 1.936235 1_465
Fe0 O0 1.909604 1_555
Fe0 O1 1.909672 1_565
Fe0 O3 1.909732 1_565
Fe0 O2 1.909822 1_555
Fe0 O6 2.595622 1_555
Fe0 O5 2.595630 1_565
