# generated using pymatgen
data_MgVAg3O4
_symmetry_space_group_name_H-M   'P 1'
_cell_length_a   6.02599020
_cell_length_b   5.37826994
_cell_length_c   5.99190348
_cell_angle_alpha   116.66639038
_cell_angle_beta   120.18837047
_cell_angle_gamma   89.99999328
_symmetry_Int_Tables_number   1
_chemical_formula_structural   MgVAg3O4
_chemical_formula_sum   'Mg1 V1 Ag3 O4'
_cell_volume   143.45807018
_cell_formula_units_Z   1
loop_
 _symmetry_equiv_pos_site_id
 _symmetry_equiv_pos_as_xyz
  1  'x, y, z'
loop_
 _atom_site_type_symbol
 _atom_site_label
 _atom_site_symmetry_multiplicity
 _atom_site_fract_x
 _atom_site_fract_y
 _atom_site_fract_z
 _atom_site_occupancy
  Mg  Mg0  1  -0.00000000  0.50000000  -0.00000000  1
  V  V0  1  -0.00000000  0.00000000  -0.00000000  1
  Ag  Ag0  1  0.33930460  0.83930460  0.67860920  1
  Ag  Ag1  1  0.50000000  0.50000000  -0.00000000  1
  Ag  Ag2  1  0.66069540  0.16069540  0.32139080  1
  O  O0  1  0.03524491  0.65428620  0.76906053  1
  O  O1  1  0.96475509  0.88522568  0.23093947  1
  O  O2  1  0.26618439  0.34571380  0.23093947  1
  O  O3  1  0.73381561  0.11477432  0.76906053  1
loop_
_geom_bond_atom_site_label_1
_geom_bond_atom_site_label_2
_geom_bond_distance
_geom_bond_site_symmetry_2
Mg0 O2 1.993662 1_555
Mg0 O1 1.993662 1_455
Mg0 O3 1.993662 1_454
Mg0 O0 1.993662 1_554
Ag0 O3 2.474645 1_565
Ag0 O0 2.474645 1_555
Ag0 O2 2.618468 1_555
Ag0 O1 2.618468 1_455
Ag1 O0 2.753178 1_554
Ag1 O3 2.753178 1_554
Ag1 O1 2.753179 1_555
Ag1 O2 2.753179 1_555
Ag2 O2 2.474645 1_555
Ag2 O1 2.474645 1_545
Ag2 O0 2.618468 1_655
Ag2 O3 2.618469 1_555
O0 V0 1.844785 1_566
O1 V0 1.844785 1_665
O2 V0 1.844785 1_555
O3 V0 1.844785 1_656
