# generated using pymatgen
data_ThPbAu2
_symmetry_space_group_name_H-M   'P 1'
_cell_length_a   5.21060209
_cell_length_b   5.09162858
_cell_length_c   5.09162799
_cell_angle_alpha   61.61287099
_cell_angle_beta   59.22399319
_cell_angle_gamma   59.22403708
_symmetry_Int_Tables_number   1
_chemical_formula_structural   ThPbAu2
_chemical_formula_sum   'Th1 Pb1 Au2'
_cell_volume   95.44969494
_cell_formula_units_Z   1
loop_
 _symmetry_equiv_pos_site_id
 _symmetry_equiv_pos_as_xyz
  1  'x, y, z'
loop_
 _atom_site_type_symbol
 _atom_site_label
 _atom_site_symmetry_multiplicity
 _atom_site_fract_x
 _atom_site_fract_y
 _atom_site_fract_z
 _atom_site_occupancy
  Th  Th0  1  0.74999351  0.75000907  0.75000907  1
  Pb  Pb0  1  0.24998032  0.25000801  0.25000801  1
  Au  Au0  1  0.50033432  0.49966999  0.49966999  1
  Au  Au1  1  -0.00030515  0.00031592  0.00031592  1
loop_
_geom_bond_atom_site_label_1
_geom_bond_atom_site_label_2
_geom_bond_distance
_geom_bond_site_symmetry_2
Pb0 Th0 3.512456 1_544
Pb0 Th0 3.512471 1_455
Pb0 Th0 3.686041 1_445
Pb0 Th0 3.686043 1_454
Pb0 Th0 3.686146 1_554
Pb0 Th0 3.686148 1_545
Au0 Pb0 3.140570 1_655
Au0 Pb0 3.140706 1_555
Au0 Th0 3.142560 1_554
Au0 Th0 3.142561 1_545
Au0 Th0 3.143288 1_555
Au0 Th0 3.143305 1_455
Au0 Pb0 3.145217 1_556
Au0 Pb0 3.145219 1_565
Au1 Pb0 3.140658 1_555
Au1 Pb0 3.140854 1_455
Au1 Th0 3.142686 1_445
Au1 Th0 3.142688 1_454
Au1 Th0 3.143136 1_544
Au1 Th0 3.143205 1_444
Au1 Pb0 3.145099 1_554
Au1 Pb0 3.145100 1_545
