# generated using pymatgen
data_MnSO4
_symmetry_space_group_name_H-M   'P 1'
_cell_length_a   4.81555013
_cell_length_b   4.81555008
_cell_length_c   6.76495096
_cell_angle_alpha   90.00000000
_cell_angle_beta   90.00000000
_cell_angle_gamma   113.52279184
_symmetry_Int_Tables_number   1
_chemical_formula_structural   MnSO4
_chemical_formula_sum   'Mn2 S2 O8'
_cell_volume   143.83980720
_cell_formula_units_Z   2
loop_
 _symmetry_equiv_pos_site_id
 _symmetry_equiv_pos_as_xyz
  1  'x, y, z'
loop_
 _atom_site_type_symbol
 _atom_site_label
 _atom_site_symmetry_multiplicity
 _atom_site_fract_x
 _atom_site_fract_y
 _atom_site_fract_z
 _atom_site_occupancy
  Mn  Mn0  1  -0.00000000  -0.00000000  0.50000000  1
  Mn  Mn1  1  -0.00000000  -0.00000000  -0.00000000  1
  S  S0  1  0.64706960  0.35293040  0.25000000  1
  S  S1  1  0.35293040  0.64706960  0.75000000  1
  O  O0  1  0.23150551  0.30867161  0.75000000  1
  O  O1  1  0.76849449  0.69132839  0.25000000  1
  O  O2  1  0.30867161  0.23150551  0.25000000  1
  O  O3  1  0.69132839  0.76849449  0.75000000  1
  O  O4  1  0.25343688  0.74656312  0.92979640  1
  O  O5  1  0.74656312  0.25343688  0.42979640  1
  O  O6  1  0.74656312  0.25343688  0.07020360  1
  O  O7  1  0.25343688  0.74656312  0.57020360  1
loop_
_geom_bond_atom_site_label_1
_geom_bond_atom_site_label_2
_geom_bond_distance
_geom_bond_site_symmetry_2
Mn0 O7 2.096050 1_545
Mn0 O5 2.096050 1_455
Mn0 O1 2.233793 1_445
Mn0 O0 2.233793 1_555
Mn0 O2 2.233793 1_555
Mn0 O3 2.233793 1_445
Mn1 O4 2.096050 1_544
Mn1 O6 2.096050 1_455
Mn1 O1 2.233793 1_445
Mn1 O0 2.233793 1_554
Mn1 O2 2.233793 1_555
Mn1 O3 2.233793 1_444
O0 S1 1.495599 1_555
O1 S0 1.495599 1_555
O2 S0 1.495599 1_555
O3 S1 1.495599 1_555
O4 S1 1.456626 1_555
O5 S0 1.456626 1_555
O6 S0 1.456626 1_555
O7 S1 1.456626 1_555
