# generated using pymatgen
data_WO3
_symmetry_space_group_name_H-M   'P 1'
_cell_length_a   7.40168860
_cell_length_b   7.57954804
_cell_length_c   8.43502873
_cell_angle_alpha   101.27526303
_cell_angle_beta   90.09988539
_cell_angle_gamma   90.05475677
_symmetry_Int_Tables_number   1
_chemical_formula_structural   WO3
_chemical_formula_sum   'W7 O21'
_cell_volume   464.08277755
_cell_formula_units_Z   7
loop_
 _symmetry_equiv_pos_site_id
 _symmetry_equiv_pos_as_xyz
  1  'x, y, z'
loop_
 _atom_site_type_symbol
 _atom_site_label
 _atom_site_symmetry_multiplicity
 _atom_site_fract_x
 _atom_site_fract_y
 _atom_site_fract_z
 _atom_site_occupancy
  W  W0  1  0.74906994  0.18322754  0.20265170  1
  W  W1  1  0.50017172  0.52403938  0.50078553  1
  W  W2  1  0.99906706  0.44850068  0.94557522  1
  W  W3  1  0.75124266  0.81537806  0.82369881  1
  W  W4  1  0.25015231  0.81398488  0.82325280  1
  W  W5  1  0.49982030  0.02203932  0.52074489  1
  W  W6  1  0.25134888  0.18249030  0.20130564  1
  O  O0  1  0.68317853  0.39390068  0.35777911  1
  O  O1  1  0.79245340  0.99323020  0.01355020  1
  O  O2  1  0.67967884  0.96758547  0.67311613  1
  O  O3  1  0.68204684  0.03458943  0.35473951  1
  O  O4  1  0.50027702  0.17368471  0.13041584  1
  O  O5  1  0.49986596  0.26678948  0.58534714  1
  O  O6  1  0.99637419  0.31747590  0.75313232  1
  O  O7  1  0.00040670  0.17506312  0.26614024  1
  O  O8  1  0.31785150  0.39370120  0.35628791  1
  O  O9  1  0.82126192  0.34588923  0.06472959  1
  O  O10  1  0.17812094  0.34347287  0.06235578  1
  O  O11  1  0.82315605  0.63528272  0.94228630  1
  O  O12  1  0.17749830  0.63305940  0.94039879  1
  O  O13  1  0.68437703  0.60815379  0.65419236  1
  O  O14  1  0.00012461  0.82610226  0.75472319  1
  O  O15  1  0.50021864  0.81355538  0.88892080  1
  O  O16  1  0.50022514  0.73907119  0.42925835  1
  O  O17  1  0.32041090  0.96687903  0.67265531  1
  O  O18  1  0.31822698  0.03408573  0.35403552  1
  O  O19  1  0.20801650  0.99126546  0.01358122  1
  O  O20  1  0.31535612  0.60750358  0.65303980  1
loop_
_geom_bond_atom_site_label_1
_geom_bond_atom_site_label_2
_geom_bond_distance
_geom_bond_site_symmetry_2
O0 W0 1.920023 1_555
O0 W1 1.950856 1_555
O1 W3 1.904752 1_554
O1 W0 1.955931 1_565
O2 W3 1.948508 1_555
O2 W5 1.948589 1_565
O3 W0 1.930652 1_555
O3 W5 1.961485 1_555
O4 W6 1.935263 1_555
O4 W0 1.935502 1_555
O5 W5 1.828392 1_555
O5 W1 2.203292 1_555
O6 W2 1.729478 1_555
O7 W0 1.939356 1_455
O7 W6 1.941017 1_555
O8 W6 1.921450 1_555
O8 W1 1.950251 1_555
O9 W2 1.911910 1_554
O9 W0 1.928941 1_555
O10 W2 1.914305 1_454
O10 W6 1.927324 1_555
O11 W3 1.918520 1_555
O11 W2 1.928497 1_555
O12 W4 1.917414 1_555
O12 W2 1.929646 1_455
O13 W1 1.899843 1_555
O13 W3 1.968275 1_555
O14 W3 1.939216 1_455
O14 W4 1.945444 1_555
O15 W4 1.931282 1_555
O15 W3 1.939462 1_555
O16 W1 1.845246 1_555
O16 W5 2.132688 1_565
O17 W5 1.947941 1_565
O17 W4 1.950351 1_555
O18 W6 1.932738 1_555
O18 W5 1.958617 1_555
O19 W4 1.907664 1_554
O19 W6 1.952137 1_565
O20 W1 1.900239 1_555
O20 W4 1.966931 1_555
