# generated using pymatgen
data_ErSiRu
_symmetry_space_group_name_H-M   'P 1'
_cell_length_a   4.29296465
_cell_length_b   6.92108498
_cell_length_c   7.03193498
_cell_angle_alpha   90.00000000
_cell_angle_beta   90.00000000
_cell_angle_gamma   90.00000000
_symmetry_Int_Tables_number   1
_chemical_formula_structural   ErSiRu
_chemical_formula_sum   'Er4 Si4 Ru4'
_cell_volume   208.93266338
_cell_formula_units_Z   4
loop_
 _symmetry_equiv_pos_site_id
 _symmetry_equiv_pos_as_xyz
  1  'x, y, z'
loop_
 _atom_site_type_symbol
 _atom_site_label
 _atom_site_symmetry_multiplicity
 _atom_site_fract_x
 _atom_site_fract_y
 _atom_site_fract_z
 _atom_site_occupancy
  Er  Er0  1  0.25000000  0.98603129  0.18736742  1
  Er  Er1  1  0.75000000  0.01396871  0.81263258  1
  Er  Er2  1  0.25000000  0.48603129  0.31263258  1
  Er  Er3  1  0.75000000  0.51396871  0.68736742  1
  Si  Si0  1  0.25000000  0.30369940  0.89306832  1
  Si  Si1  1  0.75000000  0.69630060  0.10693168  1
  Si  Si2  1  0.25000000  0.80369940  0.60693168  1
  Si  Si3  1  0.75000000  0.19630060  0.39306832  1
  Ru  Ru0  1  0.75000000  0.84672907  0.43371609  1
  Ru  Ru1  1  0.25000000  0.15327093  0.56628391  1
  Ru  Ru2  1  0.75000000  0.34672907  0.06628391  1
  Ru  Ru3  1  0.25000000  0.65327093  0.93371609  1
loop_
_geom_bond_atom_site_label_1
_geom_bond_atom_site_label_2
_geom_bond_distance
_geom_bond_site_symmetry_2
Er0 Ru1 2.905065 1_565
Er0 Ru3 2.912995 1_554
Er0 Ru0 2.921953 1_555
Er0 Ru0 2.921953 1_455
Er0 Si3 2.969436 1_565
Er0 Si3 2.969436 1_465
Er0 Si1 2.991378 1_455
Er0 Si1 2.991378 1_555
Er0 Si0 3.019383 1_564
Er0 Si2 3.208899 1_555
Er1 Ru0 2.905065 1_545
Er1 Ru2 2.912995 1_556
Er1 Ru1 2.921953 1_555
Er1 Ru1 2.921953 1_655
Er1 Si2 2.969436 1_545
Er1 Si2 2.969436 1_645
Er1 Si0 2.991378 1_655
Er1 Si0 2.991378 1_555
Er1 Si1 3.019383 1_546
Er1 Si3 3.208899 1_555
Er2 Ru3 2.905065 1_554
Er2 Ru1 2.912995 1_555
Er2 Ru2 2.921953 1_555
Er2 Ru2 2.921953 1_455
Er2 Si1 2.969436 1_455
Er2 Si1 2.969436 1_555
Er2 Si3 2.991378 1_555
Er2 Si3 2.991378 1_455
Er2 Si2 3.019383 1_555
Er2 Si0 3.208899 1_554
Er3 Ru2 2.905065 1_556
Er3 Ru0 2.912995 1_555
Er3 Ru3 2.921953 1_555
Er3 Ru3 2.921953 1_655
Er3 Si0 2.969436 1_655
Er3 Si0 2.969436 1_555
Er3 Si2 2.991378 1_555
Er3 Si2 2.991378 1_655
Er3 Si3 3.019383 1_555
Er3 Si1 3.208899 1_556
Ru0 Si3 2.436240 1_565
Ru0 Si2 2.485901 1_555
Ru0 Si2 2.485901 1_655
Ru0 Si1 2.522779 1_555
Ru1 Si2 2.436240 1_545
Ru1 Si3 2.485901 1_555
Ru1 Si3 2.485901 1_455
Ru1 Si0 2.522779 1_555
Ru2 Si1 2.436240 1_555
Ru2 Si0 2.485901 1_654
Ru2 Si0 2.485901 1_554
Ru2 Si3 2.522779 1_555
Ru3 Si0 2.436240 1_555
Ru3 Si1 2.485901 1_456
Ru3 Si1 2.485901 1_556
Ru3 Si2 2.522779 1_555
