# generated using pymatgen
data_MgTi2(NiO3)2
_symmetry_space_group_name_H-M   'P 1'
_cell_length_a   5.14115915
_cell_length_b   5.88560112
_cell_length_c   5.11959077
_cell_angle_alpha   114.74425460
_cell_angle_beta   61.13650831
_cell_angle_gamma   117.22087531
_symmetry_Int_Tables_number   1
_chemical_formula_structural   MgTi2(NiO3)2
_chemical_formula_sum   'Mg1 Ti2 Ni2 O6'
_cell_volume   116.68845261
_cell_formula_units_Z   1
loop_
 _symmetry_equiv_pos_site_id
 _symmetry_equiv_pos_as_xyz
  1  'x, y, z'
loop_
 _atom_site_type_symbol
 _atom_site_label
 _atom_site_symmetry_multiplicity
 _atom_site_fract_x
 _atom_site_fract_y
 _atom_site_fract_z
 _atom_site_occupancy
  Mg  Mg0  1  0.71257140  0.12214568  0.70885647  1
  Ti  Ti0  1  0.17939662  0.49297878  0.14142855  1
  Ti  Ti1  1  0.51307242  0.56174452  0.54245000  1
  Ni  Ni0  1  0.34510956  0.03944309  0.34482578  1
  Ni  Ni1  1  0.91674990  0.79493371  0.94572616  1
  O  O0  1  0.13917589  0.30658487  0.41692264  1
  O  O1  1  0.52490809  0.78016441  0.31361848  1
  O  O2  1  0.31845226  0.79422823  0.92600990  1
  O  O3  1  0.76607604  0.31717548  0.13312327  1
  O  O4  1  0.42150629  0.29294470  0.75343766  1
  O  O5  1  0.92308054  0.79164654  0.54620009  1
loop_
_geom_bond_atom_site_label_1
_geom_bond_atom_site_label_2
_geom_bond_distance
_geom_bond_site_symmetry_2
Mg0 O4 2.038688 1_555
Mg0 O0 2.058602 1_655
Mg0 O3 2.076523 1_556
Mg0 O2 2.260582 1_545
Mg0 O5 2.312639 1_545
Mg0 O1 2.403173 1_545
Ni0 O5 2.025279 1_445
Ni0 O1 2.037768 1_545
Ni0 O2 2.052160 1_544
Ni0 O0 2.095003 1_555
Ni0 O4 2.097809 1_555
Ni0 O3 2.124306 1_555
Ni1 O1 1.981654 1_556
Ni1 O2 2.020286 1_655
Ni1 O5 2.021958 1_555
O0 Ti0 2.010403 1_555
O0 Ti1 2.026613 1_555
O1 Ti1 2.036942 1_555
O1 Ti0 2.075356 1_555
O2 Ti1 1.958494 1_555
O2 Ti0 2.141765 1_556
O3 Ti0 1.904406 1_655
O3 Ti1 2.170583 1_555
O4 Ti0 1.968992 1_556
O4 Ti1 2.037047 1_555
O5 Ti1 1.918999 1_555
O5 Ti0 2.356711 1_655
