# generated using pymatgen
data_Dy3(CuGe)4
_symmetry_space_group_name_H-M   'P 1'
_cell_length_a   7.94716431
_cell_length_b   7.94716431
_cell_length_c   7.94716431
_cell_angle_alpha   149.57603542
_cell_angle_beta   130.87032105
_cell_angle_gamma   58.89211673
_symmetry_Int_Tables_number   1
_chemical_formula_structural   Dy3(CuGe)4
_chemical_formula_sum   'Dy3 Cu4 Ge4'
_cell_volume   190.71160412
_cell_formula_units_Z   1
loop_
 _symmetry_equiv_pos_site_id
 _symmetry_equiv_pos_as_xyz
  1  'x, y, z'
loop_
 _atom_site_type_symbol
 _atom_site_label
 _atom_site_symmetry_multiplicity
 _atom_site_fract_x
 _atom_site_fract_y
 _atom_site_fract_z
 _atom_site_occupancy
  Dy  Dy0  1  0.86931413  0.86931413  0.00000000  1
  Dy  Dy1  1  0.13068587  0.13068587  -0.00000000  1
  Dy  Dy2  1  0.50000000  0.00000000  0.50000000  1
  Cu  Cu0  1  0.85773773  0.66880162  0.18893611  1
  Cu  Cu1  1  0.14226227  0.33119838  0.81106389  1
  Cu  Cu2  1  0.47986550  0.66880162  0.81106389  1
  Cu  Cu3  1  0.52013450  0.33119838  0.18893611  1
  Ge  Ge0  1  0.28336624  0.78336624  0.50000000  1
  Ge  Ge1  1  0.80891878  0.50000000  0.30891878  1
  Ge  Ge2  1  0.19108122  0.50000000  0.69108122  1
  Ge  Ge3  1  0.71663376  0.21663376  0.50000000  1
loop_
_geom_bond_atom_site_label_1
_geom_bond_atom_site_label_2
_geom_bond_distance
_geom_bond_site_symmetry_2
Dy0 Ge3 2.968872 1_565
Dy0 Ge3 2.968872 1_554
Dy0 Ge1 3.035515 1_565
Dy0 Ge2 3.035515 1_665
Dy0 Ge2 3.035515 1_654
Dy0 Ge1 3.035515 1_554
Dy1 Ge0 2.968872 1_555
Dy1 Ge0 2.968872 1_544
Dy1 Ge1 3.035515 1_455
Dy1 Ge1 3.035515 1_444
Dy1 Ge2 3.035515 1_544
Dy1 Ge2 3.035515 1_555
Dy2 Ge2 2.918033 1_544
Dy2 Ge1 2.918033 1_556
Dy2 Ge2 2.918033 1_555
Dy2 Ge1 2.918033 1_545
Dy2 Ge3 2.998446 1_555
Dy2 Ge0 2.998446 1_545
Cu0 Ge1 2.467242 1_555
Cu0 Cu2 2.496841 1_554
Cu0 Ge3 2.518966 1_554
Cu0 Ge3 2.518966 1_565
Cu0 Ge0 2.595976 1_655
Cu0 Dy1 2.975114 1_666
Cu0 Dy1 2.975114 1_655
Cu0 Dy0 3.043173 1_555
Cu1 Ge2 2.467242 1_555
Cu1 Cu3 2.496841 1_556
Cu1 Ge0 2.518966 1_556
Cu1 Ge0 2.518966 1_545
Cu1 Ge3 2.595976 1_455
Cu1 Dy0 2.975114 1_456
Cu1 Dy0 2.975114 1_445
Cu1 Dy1 3.043173 1_556
Cu2 Ge2 2.467242 1_555
Cu2 Ge3 2.518966 1_566
Cu2 Ge3 2.518966 1_555
Cu2 Ge0 2.595976 1_555
Cu2 Dy1 2.975114 1_566
Cu2 Dy1 2.975114 1_555
Cu2 Dy0 3.043173 1_556
Cu3 Ge1 2.467242 1_555
Cu3 Ge0 2.518966 1_544
Cu3 Ge0 2.518966 1_555
Cu3 Ge3 2.595976 1_555
Cu3 Dy0 2.975114 1_545
Cu3 Dy0 2.975114 1_556
Cu3 Dy1 3.043173 1_555
Ge1 Ge2 2.525190 1_655
