# generated using pymatgen
data_Ta5P3
_symmetry_space_group_name_H-M   'P 1'
_cell_length_a   3.41756700
_cell_length_b   11.55280500
_cell_length_c   25.52944600
_cell_angle_alpha   90.00000000
_cell_angle_beta   90.00000000
_cell_angle_gamma   90.00000000
_symmetry_Int_Tables_number   1
_chemical_formula_structural   Ta5P3
_chemical_formula_sum   'Ta40 P24'
_cell_volume   1007.96597196
_cell_formula_units_Z   8
loop_
 _symmetry_equiv_pos_site_id
 _symmetry_equiv_pos_as_xyz
  1  'x, y, z'
loop_
 _atom_site_type_symbol
 _atom_site_label
 _atom_site_symmetry_multiplicity
 _atom_site_fract_x
 _atom_site_fract_y
 _atom_site_fract_z
 _atom_site_occupancy
  Ta  Ta0  1  0.25000000  0.87854300  0.72456400  1
  Ta  Ta1  1  0.75000000  0.44363900  0.65259500  1
  Ta  Ta2  1  0.75000000  0.05636100  0.15259500  1
  Ta  Ta3  1  0.25000000  0.94363900  0.84740500  1
  Ta  Ta4  1  0.25000000  0.69109200  0.45506900  1
  Ta  Ta5  1  0.75000000  0.30890800  0.54493100  1
  Ta  Ta6  1  0.75000000  0.19109200  0.04493100  1
  Ta  Ta7  1  0.25000000  0.80890800  0.95506900  1
  Ta  Ta8  1  0.25000000  0.55636100  0.34740500  1
  Ta  Ta9  1  0.75000000  0.58427400  0.53692400  1
  Ta  Ta10  1  0.75000000  0.91572600  0.03692400  1
  Ta  Ta11  1  0.25000000  0.08427400  0.96307600  1
  Ta  Ta12  1  0.25000000  0.10811700  0.49994100  1
  Ta  Ta13  1  0.75000000  0.89188300  0.50005900  1
  Ta  Ta14  1  0.75000000  0.60811700  0.00005900  1
  Ta  Ta15  1  0.25000000  0.39188300  0.99994100  1
  Ta  Ta16  1  0.25000000  0.54369200  0.82326100  1
  Ta  Ta17  1  0.75000000  0.45630800  0.17673900  1
  Ta  Ta18  1  0.75000000  0.04369200  0.67673900  1
  Ta  Ta19  1  0.25000000  0.95630800  0.32326100  1
  Ta  Ta20  1  0.25000000  0.15559600  0.76073200  1
  Ta  Ta21  1  0.75000000  0.84440400  0.23926800  1
  Ta  Ta22  1  0.75000000  0.65559600  0.73926800  1
  Ta  Ta23  1  0.25000000  0.34440400  0.26073200  1
  Ta  Ta24  1  0.25000000  0.41572600  0.46307600  1
  Ta  Ta25  1  0.75000000  0.12145700  0.27543600  1
  Ta  Ta26  1  0.75000000  0.37854300  0.77543600  1
  Ta  Ta27  1  0.25000000  0.62145700  0.22456400  1
  Ta  Ta28  1  0.25000000  0.65842000  0.63808800  1
  Ta  Ta29  1  0.75000000  0.34158000  0.36191200  1
  Ta  Ta30  1  0.75000000  0.15842000  0.86191200  1
  Ta  Ta31  1  0.25000000  0.84158000  0.13808800  1
  Ta  Ta32  1  0.25000000  0.21578800  0.62458200  1
  Ta  Ta33  1  0.75000000  0.78421200  0.37541800  1
  Ta  Ta34  1  0.75000000  0.71578800  0.87541800  1
  Ta  Ta35  1  0.25000000  0.28421200  0.12458200  1
  Ta  Ta36  1  0.25000000  0.93528000  0.59940300  1
  Ta  Ta37  1  0.75000000  0.06472000  0.40059700  1
  Ta  Ta38  1  0.75000000  0.43528000  0.90059700  1
  Ta  Ta39  1  0.25000000  0.56472000  0.09940300  1
  P  P0  1  0.25000000  0.58637300  0.92667000  1
  P  P1  1  0.75000000  0.41362700  0.07333000  1
  P  P2  1  0.75000000  0.08637300  0.57333000  1
  P  P3  1  0.25000000  0.91362700  0.42667000  1
  P  P4  1  0.25000000  0.31602500  0.84389200  1
  P  P5  1  0.75000000  0.68397500  0.15610800  1
  P  P6  1  0.75000000  0.81602500  0.65610800  1
  P  P7  1  0.25000000  0.18397500  0.34389200  1
  P  P8  1  0.25000000  0.75519800  0.80207700  1
  P  P9  1  0.75000000  0.24480200  0.19792300  1
  P  P10  1  0.75000000  0.25519800  0.69792300  1
  P  P11  1  0.25000000  0.74480200  0.30207700  1
  P  P12  1  0.25000000  0.49785000  0.72106600  1
  P  P13  1  0.75000000  0.50215000  0.27893400  1
  P  P14  1  0.75000000  0.99785000  0.77893400  1
  P  P15  1  0.25000000  0.00215000  0.22106600  1
  P  P16  1  0.25000000  0.44973900  0.57789800  1
  P  P17  1  0.75000000  0.55026100  0.42210200  1
  P  P18  1  0.75000000  0.94973900  0.92210200  1
  P  P19  1  0.25000000  0.05026100  0.07789800  1
  P  P20  1  0.25000000  0.75105000  0.54919300  1
  P  P21  1  0.75000000  0.24895000  0.45080700  1
  P  P22  1  0.75000000  0.25105000  0.95080700  1
  P  P23  1  0.25000000  0.74895000  0.04919300  1
loop_
_geom_bond_atom_site_label_1
_geom_bond_atom_site_label_2
_geom_bond_distance
_geom_bond_site_symmetry_2
P0 Ta38 2.531786 1_455
P0 Ta38 2.531786 1_555
P0 Ta14 2.548205 1_556
P0 Ta14 2.548205 1_456
P0 Ta34 2.620551 1_455
P0 Ta34 2.620551 1_555
P0 Ta7 2.671177 1_555
P0 Ta16 2.685628 1_555
P0 Ta15 2.923629 1_555
P1 Ta39 2.531786 1_555
P1 Ta39 2.531786 1_655
P1 Ta15 2.548205 1_654
P1 Ta15 2.548205 1_554
P1 Ta35 2.620551 1_555
P1 Ta35 2.620551 1_655
P1 Ta6 2.671177 1_555
P1 Ta17 2.685628 1_555
P1 Ta14 2.923629 1_555
P2 Ta36 2.531786 1_645
P2 Ta36 2.531786 1_545
P2 Ta12 2.548205 1_655
P2 Ta12 2.548205 1_555
P2 Ta32 2.620551 1_655
P2 Ta32 2.620551 1_555
P2 Ta5 2.671177 1_555
P2 Ta18 2.685628 1_555
P2 Ta13 2.923629 1_545
P3 Ta37 2.531786 1_565
P3 Ta37 2.531786 1_465
P3 Ta13 2.548205 1_455
P3 Ta13 2.548205 1_555
P3 Ta33 2.620551 1_455
P3 Ta33 2.620551 1_555
P3 Ta4 2.671177 1_555
P3 Ta19 2.685628 1_555
P3 Ta12 2.923629 1_565
P4 Ta30 2.539058 1_555
P4 Ta30 2.539058 1_455
P4 Ta26 2.548697 1_555
P4 Ta26 2.548697 1_455
P4 Ta38 2.629404 1_555
P4 Ta38 2.629404 1_455
P4 Ta16 2.682410 1_555
P4 Ta20 2.818219 1_555
P5 Ta31 2.539058 1_555
P5 Ta31 2.539058 1_655
P5 Ta27 2.548697 1_555
P5 Ta27 2.548697 1_655
P5 Ta39 2.629404 1_555
P5 Ta39 2.629404 1_655
P5 Ta17 2.682410 1_555
P5 Ta21 2.818219 1_555
P6 Ta28 2.539058 1_655
P6 Ta28 2.539058 1_555
P6 Ta0 2.548697 1_555
P6 Ta0 2.548697 1_655
P6 Ta36 2.629404 1_555
P6 Ta36 2.629404 1_655
P6 Ta18 2.682410 1_565
P6 Ta22 2.818219 1_555
P7 Ta29 2.539058 1_455
P7 Ta29 2.539058 1_555
P7 Ta25 2.548697 1_455
P7 Ta25 2.548697 1_555
P7 Ta37 2.629404 1_455
P7 Ta37 2.629404 1_555
P7 Ta19 2.682410 1_545
P7 Ta23 2.818219 1_555
P8 Ta0 2.438539 1_555
P8 Ta3 2.465468 1_555
P8 Ta16 2.502621 1_555
P8 Ta34 2.575451 1_455
P8 Ta34 2.575451 1_555
P8 Ta22 2.610585 1_555
P8 Ta22 2.610585 1_455
P9 Ta25 2.438539 1_555
P9 Ta2 2.465468 1_555
P9 Ta17 2.502621 1_555
P9 Ta35 2.575451 1_655
P9 Ta35 2.575451 1_555
P9 Ta23 2.610585 1_555
P9 Ta23 2.610585 1_655
P10 Ta26 2.438539 1_555
P10 Ta1 2.465468 1_555
P10 Ta18 2.502621 1_555
P10 Ta32 2.575451 1_655
P10 Ta32 2.575451 1_555
P10 Ta20 2.610585 1_555
P10 Ta20 2.610585 1_655
P11 Ta27 2.438539 1_555
P11 Ta8 2.465468 1_555
P11 Ta19 2.502621 1_555
P11 Ta33 2.575451 1_555
P11 Ta33 2.575451 1_455
P11 Ta21 2.610585 1_455
P11 Ta21 2.610585 1_555
P12 Ta1 2.523445 1_555
P12 Ta1 2.523445 1_455
P12 Ta22 2.541072 1_455
P12 Ta22 2.541072 1_555
P12 Ta26 2.597379 1_555
P12 Ta26 2.597379 1_455
P12 Ta16 2.662192 1_555
P12 Ta28 2.815794 1_555
P13 Ta8 2.523445 1_655
P13 Ta8 2.523445 1_555
P13 Ta23 2.541072 1_555
P13 Ta23 2.541072 1_655
P13 Ta27 2.597379 1_555
P13 Ta27 2.597379 1_655
P13 Ta17 2.662192 1_555
P13 Ta29 2.815794 1_555
P14 Ta3 2.523445 1_655
P14 Ta3 2.523445 1_555
P14 Ta20 2.541072 1_665
P14 Ta20 2.541072 1_565
P14 Ta0 2.597379 1_555
P14 Ta0 2.597379 1_655
P14 Ta18 2.662192 1_565
P14 Ta30 2.815794 1_565
P15 Ta2 2.523445 1_455
P15 Ta2 2.523445 1_555
P15 Ta21 2.541072 1_545
P15 Ta21 2.541072 1_445
P15 Ta25 2.597379 1_455
P15 Ta25 2.597379 1_555
P15 Ta19 2.662192 1_545
P15 Ta31 2.815794 1_545
P16 Ta5 2.505072 1_455
P16 Ta5 2.505072 1_555
P16 Ta9 2.535717 1_555
P16 Ta9 2.535717 1_455
P16 Ta1 2.561533 1_555
P16 Ta1 2.561533 1_455
P16 Ta28 2.858915 1_555
P16 Ta32 2.953896 1_555
P16 Ta24 2.957562 1_555
P17 Ta4 2.505072 1_555
P17 Ta4 2.505072 1_655
P17 Ta24 2.535717 1_555
P17 Ta24 2.535717 1_655
P17 Ta8 2.561533 1_655
P17 Ta8 2.561533 1_555
P17 Ta29 2.858915 1_555
P17 Ta33 2.953896 1_555
P17 Ta9 2.957562 1_555
P18 Ta7 2.505072 1_555
P18 Ta7 2.505072 1_655
P18 Ta11 2.535717 1_565
P18 Ta11 2.535717 1_665
P18 Ta3 2.561533 1_655
P18 Ta3 2.561533 1_555
P18 Ta30 2.858915 1_565
P18 Ta34 2.953896 1_555
P18 Ta10 2.957562 1_556
P19 Ta6 2.505072 1_455
P19 Ta6 2.505072 1_555
P19 Ta10 2.535717 1_445
P19 Ta10 2.535717 1_545
P19 Ta2 2.561533 1_455
P19 Ta2 2.561533 1_555
P19 Ta31 2.858915 1_545
P19 Ta35 2.953896 1_555
P19 Ta11 2.957562 1_554
P20 Ta36 2.484566 1_555
P20 Ta4 2.500780 1_555
P20 Ta28 2.509093 1_555
P20 Ta9 2.594290 1_455
P20 Ta9 2.594290 1_555
P20 Ta13 2.672181 1_555
P20 Ta13 2.672181 1_455
P21 Ta37 2.484566 1_555
P21 Ta5 2.500780 1_555
P21 Ta29 2.509093 1_555
P21 Ta24 2.594290 1_655
P21 Ta24 2.594290 1_555
P21 Ta12 2.672181 1_655
P21 Ta12 2.672181 1_555
P22 Ta38 2.484566 1_555
P22 Ta6 2.500780 1_556
P22 Ta30 2.509093 1_555
P22 Ta11 2.594290 1_655
P22 Ta11 2.594290 1_555
P22 Ta15 2.672181 1_655
P22 Ta15 2.672181 1_555
P23 Ta39 2.484566 1_555
P23 Ta7 2.500780 1_554
P23 Ta31 2.509093 1_555
P23 Ta10 2.594290 1_455
P23 Ta10 2.594290 1_555
P23 Ta14 2.672181 1_455
P23 Ta14 2.672181 1_555
