# generated using pymatgen
data_MgMn6(O5F)2
_symmetry_space_group_name_H-M   'P 1'
_cell_length_a   10.96547049
_cell_length_b   6.71011554
_cell_length_c   2.98120013
_cell_angle_alpha   90.11865614
_cell_angle_beta   90.35964814
_cell_angle_gamma   108.03968086
_symmetry_Int_Tables_number   1
_chemical_formula_structural   MgMn6(O5F)2
_chemical_formula_sum   'Mg1 Mn6 O10 F2'
_cell_volume   208.56645278
_cell_formula_units_Z   1
loop_
 _symmetry_equiv_pos_site_id
 _symmetry_equiv_pos_as_xyz
  1  'x, y, z'
loop_
 _atom_site_type_symbol
 _atom_site_label
 _atom_site_symmetry_multiplicity
 _atom_site_fract_x
 _atom_site_fract_y
 _atom_site_fract_z
 _atom_site_occupancy
  Mg  Mg0  1  0.17255900  0.35696600  0.97477000  1
  Mn  Mn0  1  0.99792600  0.97822100  0.00508600  1
  Mn  Mn1  1  0.34532500  0.14640300  0.48076200  1
  Mn  Mn2  1  0.95970300  0.48228700  0.49158600  1
  Mn  Mn3  1  0.65202800  0.32099400  0.99286800  1
  Mn  Mn4  1  0.36666600  0.70332700  0.98287000  1
  Mn  Mn5  1  0.66109600  0.83064500  0.49560700  1
  O  O0  1  0.15434800  0.12604900  0.47597700  1
  O  O1  1  0.98639100  0.30172400  0.99096000  1
  O  O2  1  0.98817600  0.67647200  0.99483400  1
  O  O3  1  0.66919700  0.02420600  0.99567500  1
  O  O4  1  0.52972900  0.25906400  0.48840300  1
  O  O5  1  0.24021100  0.58417000  0.47973200  1
  O  O6  1  0.48002000  0.75991900  0.48661900  1
  O  O7  1  0.76963400  0.38708800  0.49553100  1
  O  O8  1  0.65729700  0.63904500  0.99398600  1
  O  O9  1  0.33123300  0.97025000  0.98046300  1
  F  F0  1  0.35858800  0.36942200  0.98081500  1
  F  F1  1  0.85487500  0.91708100  0.50512600  1
loop_
_geom_bond_atom_site_label_1
_geom_bond_atom_site_label_2
_geom_bond_distance
_geom_bond_site_symmetry_2
Mg0 O1 1.959532 1_455
Mg0 O5 2.091702 1_555
Mg0 O5 2.101625 1_556
Mg0 O0 2.108798 1_555
Mg0 O0 2.120163 1_556
Mn0 O2 1.994415 1_554
Mn0 O0 2.192473 1_665
Mn0 O1 2.213654 1_564
Mn0 O0 2.323962 1_664
Mn1 O9 1.876765 1_544
Mn1 O9 1.880774 1_545
Mn1 O4 1.927017 1_555
Mn1 O0 2.055920 1_555
Mn2 O2 1.936555 1_554
Mn2 O2 1.944275 1_555
Mn2 O7 1.981873 1_555
Mn2 O1 1.997885 1_555
Mn2 O1 1.999666 1_554
Mn3 O7 1.929805 1_556
Mn3 O7 1.931464 1_555
Mn3 O4 1.958516 1_556
Mn3 O4 1.964645 1_555
Mn3 O3 2.057614 1_555
Mn3 O8 2.116975 1_555
Mn4 O6 1.900255 1_555
Mn4 O6 1.904311 1_556
Mn4 O9 1.946799 1_555
Mn4 O5 2.023406 1_555
Mn4 O5 2.024886 1_556
Mn5 O6 1.893182 1_555
Mn5 O3 1.958614 1_565
Mn5 O8 1.958999 1_555
Mn5 O8 1.961901 1_554
Mn5 O3 1.963243 1_564
F0 Mg0 2.015544 1_555
F0 Mn1 2.082358 1_555
F0 Mn1 2.087868 1_556
F0 Mn4 2.214707 1_555
F1 Mn5 2.021925 1_555
F1 Mn0 2.102369 1_556
F1 Mn0 2.117650 1_555
