# generated using pymatgen
data_TiZn16
_symmetry_space_group_name_H-M   'P 1'
_cell_length_a   6.79545668
_cell_length_b   6.79545694
_cell_length_c   11.49709906
_cell_angle_alpha   90.00000000
_cell_angle_beta   90.00000000
_cell_angle_gamma   111.75165981
_symmetry_Int_Tables_number   1
_chemical_formula_structural   TiZn16
_chemical_formula_sum   'Ti2 Zn32'
_cell_volume   493.11389498
_cell_formula_units_Z   2
loop_
 _symmetry_equiv_pos_site_id
 _symmetry_equiv_pos_as_xyz
  1  'x, y, z'
loop_
 _atom_site_type_symbol
 _atom_site_label
 _atom_site_symmetry_multiplicity
 _atom_site_fract_x
 _atom_site_fract_y
 _atom_site_fract_z
 _atom_site_occupancy
  Ti  Ti0  1  0.04724371  0.95275629  0.75000000  1
  Ti  Ti1  1  0.95275629  0.04724371  0.25000000  1
  Zn  Zn0  1  0.35409409  0.98192803  0.93018134  1
  Zn  Zn1  1  0.64590591  0.01807197  0.43018134  1
  Zn  Zn2  1  0.98192803  0.35409409  0.06981866  1
  Zn  Zn3  1  0.01807197  0.64590591  0.56981866  1
  Zn  Zn4  1  0.64590591  0.01807197  0.06981866  1
  Zn  Zn5  1  0.35409409  0.98192803  0.56981866  1
  Zn  Zn6  1  0.01807197  0.64590591  0.93018134  1
  Zn  Zn7  1  0.98192803  0.35409409  0.43018134  1
  Zn  Zn8  1  0.65510252  0.75962095  0.86608463  1
  Zn  Zn9  1  0.34489748  0.24037905  0.36608463  1
  Zn  Zn10  1  0.75962095  0.65510252  0.13391537  1
  Zn  Zn11  1  0.24037905  0.34489748  0.63391537  1
  Zn  Zn12  1  0.34489748  0.24037905  0.13391537  1
  Zn  Zn13  1  0.65510252  0.75962095  0.63391537  1
  Zn  Zn14  1  0.24037905  0.34489748  0.86608463  1
  Zn  Zn15  1  0.75962095  0.65510252  0.36608463  1
  Zn  Zn16  1  0.47850216  0.19139691  0.75000000  1
  Zn  Zn17  1  0.52149784  0.80860309  0.25000000  1
  Zn  Zn18  1  0.19139691  0.47850216  0.25000000  1
  Zn  Zn19  1  0.80860309  0.52149784  0.75000000  1
  Zn  Zn20  1  0.17645185  0.82354815  0.35998395  1
  Zn  Zn21  1  0.82354815  0.17645185  0.85998395  1
  Zn  Zn22  1  0.82354815  0.17645185  0.64001605  1
  Zn  Zn23  1  0.17645185  0.82354815  0.14001605  1
  Zn  Zn24  1  0.61962108  0.38037892  0.96914925  1
  Zn  Zn25  1  0.38037892  0.61962108  0.46914925  1
  Zn  Zn26  1  0.38037892  0.61962108  0.03085075  1
  Zn  Zn27  1  0.61962108  0.38037892  0.53085075  1
  Zn  Zn28  1  0.29098265  0.70901735  0.75000000  1
  Zn  Zn29  1  0.70901735  0.29098265  0.25000000  1
  Zn  Zn30  1  0.00000000  -0.00000000  0.00000000  1
  Zn  Zn31  1  0.00000000  -0.00000000  0.50000000  1
loop_
_geom_bond_atom_site_label_1
_geom_bond_atom_site_label_2
_geom_bond_distance
_geom_bond_site_symmetry_2
Ti0 Zn28 2.742278 1_555
Ti0 Zn16 2.774138 1_565
Ti0 Zn19 2.774139 1_455
Ti0 Zn22 2.816575 1_465
Ti0 Zn21 2.816575 1_465
Ti0 Zn8 2.830665 1_455
Ti0 Zn13 2.830665 1_455
Ti0 Zn11 2.830665 1_565
Ti0 Zn14 2.830665 1_565
Ti0 Zn5 2.893495 1_555
Ti0 Zn0 2.893495 1_555
Ti0 Zn6 2.893495 1_555
Ti0 Zn3 2.893495 1_555
Ti0 Zn31 2.923009 1_565
Ti0 Zn30 2.923009 1_566
Ti1 Zn29 2.742278 1_555
Ti1 Zn17 2.774138 1_545
Ti1 Zn18 2.774139 1_655
Ti1 Zn23 2.816575 1_645
Ti1 Zn20 2.816575 1_645
Ti1 Zn9 2.830665 1_655
Ti1 Zn12 2.830665 1_655
Ti1 Zn10 2.830665 1_545
Ti1 Zn15 2.830665 1_545
Ti1 Zn4 2.893495 1_555
Ti1 Zn1 2.893495 1_555
Ti1 Zn2 2.893495 1_555
Ti1 Zn7 2.893495 1_555
Ti1 Zn30 2.923009 1_655
Ti1 Zn31 2.923009 1_655
Zn0 Zn16 2.477973 1_565
Zn0 Zn4 2.491785 1_566
Zn0 Zn6 2.561948 1_555
Zn0 Zn30 2.582323 1_566
Zn0 Zn24 2.677092 1_565
Zn0 Zn28 2.706505 1_555
Zn0 Zn23 2.733632 1_556
Zn0 Zn26 2.785512 1_556
Zn0 Zn14 2.938828 1_565
Zn0 Zn12 2.942180 1_566
Zn0 Zn8 3.049509 1_555
Zn0 Zn21 3.074134 1_565
Zn1 Zn17 2.477973 1_545
Zn1 Zn5 2.491785 1_545
Zn1 Zn7 2.561948 1_555
Zn1 Zn31 2.582323 1_655
Zn1 Zn25 2.677092 1_545
Zn1 Zn29 2.706505 1_555
Zn1 Zn22 2.733632 1_555
Zn1 Zn27 2.785512 1_555
Zn1 Zn15 2.938828 1_545
Zn1 Zn13 2.942180 1_545
Zn1 Zn9 3.049509 1_555
Zn1 Zn20 3.074134 1_545
Zn2 Zn6 2.491785 1_654
Zn2 Zn4 2.561948 1_555
Zn2 Zn30 2.582323 1_655
Zn2 Zn26 2.677092 1_655
Zn2 Zn29 2.706505 1_555
Zn2 Zn21 2.733632 1_554
Zn2 Zn24 2.785512 1_554
Zn2 Zn23 3.074134 1_655
Zn3 Zn7 2.491785 1_455
Zn3 Zn5 2.561948 1_555
Zn3 Zn31 2.582323 1_565
Zn4 Zn8 2.942180 1_544
Zn5 Zn9 2.942180 1_565
Zn6 Zn8 2.938827 1_455
Zn7 Zn9 2.938827 1_655
Zn10 Zn24 2.581168 1_554
Zn10 Zn17 2.595915 1_555
Zn10 Zn23 2.633523 1_655
Zn10 Zn15 2.669273 1_555
Zn10 Zn29 2.718700 1_555
Zn10 Zn26 2.764642 1_555
Zn10 Zn30 2.773865 1_665
Zn10 Zn4 2.938828 1_565
Zn10 Zn6 2.942180 1_654
Zn10 Zn2 3.049509 1_555
Zn11 Zn25 2.581168 1_555
Zn11 Zn16 2.595915 1_555
Zn11 Zn22 2.633523 1_455
Zn11 Zn14 2.669273 1_555
Zn11 Zn28 2.718700 1_555
Zn11 Zn27 2.764642 1_555
Zn11 Zn31 2.773865 1_555
Zn11 Zn5 2.938828 1_545
Zn11 Zn7 2.942180 1_455
Zn11 Zn3 3.049509 1_555
Zn12 Zn24 2.581168 1_554
Zn12 Zn18 2.595915 1_555
Zn12 Zn23 2.633523 1_545
Zn12 Zn9 2.669273 1_555
Zn12 Zn29 2.718700 1_555
Zn12 Zn26 2.764642 1_555
Zn12 Zn30 2.773865 1_555
Zn12 Zn2 2.938827 1_455
Zn12 Zn4 3.049509 1_555
Zn13 Zn25 2.581168 1_555
Zn13 Zn19 2.595915 1_555
Zn13 Zn22 2.633523 1_565
Zn13 Zn8 2.669273 1_555
Zn13 Zn28 2.718700 1_555
Zn13 Zn27 2.764642 1_555
Zn13 Zn31 2.773865 1_665
Zn13 Zn3 2.938827 1_655
Zn13 Zn5 3.049509 1_555
Zn14 Zn26 2.581168 1_556
Zn14 Zn16 2.595915 1_555
Zn14 Zn21 2.633523 1_455
Zn14 Zn28 2.718700 1_555
Zn14 Zn24 2.764642 1_555
Zn14 Zn30 2.773865 1_556
Zn14 Zn2 2.942180 1_456
Zn14 Zn6 3.049509 1_555
Zn15 Zn27 2.581168 1_555
Zn15 Zn17 2.595915 1_555
Zn15 Zn20 2.633523 1_655
Zn15 Zn29 2.718700 1_555
Zn15 Zn25 2.764642 1_555
Zn15 Zn31 2.773865 1_665
Zn15 Zn3 2.942180 1_655
Zn15 Zn7 3.049509 1_555
Zn16 Zn5 2.477973 1_545
Zn16 Zn19 2.516803 1_555
Zn16 Zn21 2.698812 1_555
Zn16 Zn22 2.698812 1_555
Zn16 Zn27 2.829197 1_555
Zn16 Zn24 2.829197 1_555
Zn16 Zn28 3.045174 1_545
Zn17 Zn4 2.477973 1_565
Zn17 Zn18 2.516803 1_555
Zn17 Zn23 2.698812 1_555
Zn17 Zn20 2.698812 1_555
Zn17 Zn25 2.829197 1_555
Zn17 Zn26 2.829197 1_555
Zn17 Zn29 3.045174 1_565
Zn18 Zn2 2.477973 1_455
Zn18 Zn7 2.477973 1_455
Zn18 Zn9 2.595915 1_555
Zn18 Zn20 2.698812 1_555
Zn18 Zn23 2.698812 1_555
Zn18 Zn26 2.829197 1_555
Zn18 Zn25 2.829197 1_555
Zn18 Zn29 3.045174 1_455
Zn19 Zn6 2.477973 1_655
Zn19 Zn3 2.477973 1_655
Zn19 Zn8 2.595915 1_555
Zn19 Zn21 2.698812 1_555
Zn19 Zn22 2.698812 1_555
Zn19 Zn27 2.829197 1_555
Zn19 Zn24 2.829197 1_555
Zn19 Zn28 3.045174 1_655
Zn20 Zn23 2.528993 1_555
Zn20 Zn31 2.555887 1_565
Zn20 Zn25 2.615210 1_555
Zn20 Zn9 2.633523 1_565
Zn20 Zn5 2.733632 1_555
Zn20 Zn3 2.733632 1_555
Zn20 Zn7 3.074134 1_455
Zn21 Zn22 2.528993 1_555
Zn21 Zn30 2.555887 1_656
Zn21 Zn24 2.615210 1_555
Zn21 Zn8 2.633523 1_545
Zn21 Zn4 2.733632 1_556
Zn21 Zn6 3.074134 1_655
Zn22 Zn31 2.555887 1_655
Zn22 Zn27 2.615210 1_555
Zn22 Zn7 2.733632 1_555
Zn22 Zn5 3.074134 1_545
Zn22 Zn3 3.074134 1_655
Zn23 Zn30 2.555887 1_565
Zn23 Zn26 2.615210 1_555
Zn23 Zn6 2.733632 1_554
Zn23 Zn4 3.074134 1_565
Zn24 Zn6 2.677092 1_655
Zn24 Zn8 2.764642 1_555
Zn24 Zn26 2.783595 1_556
Zn24 Zn4 2.785512 1_556
Zn25 Zn7 2.677092 1_455
Zn25 Zn9 2.764642 1_555
Zn25 Zn27 2.783595 1_555
Zn25 Zn3 2.785512 1_555
Zn25 Zn5 2.785512 1_555
Zn26 Zn8 2.581168 1_554
Zn26 Zn4 2.677092 1_565
Zn26 Zn6 2.785512 1_554
Zn27 Zn9 2.581168 1_555
Zn27 Zn3 2.677092 1_655
Zn27 Zn5 2.677092 1_545
Zn27 Zn7 2.785512 1_555
Zn28 Zn6 2.706505 1_555
Zn28 Zn3 2.706505 1_555
Zn28 Zn5 2.706505 1_555
Zn28 Zn8 2.718700 1_555
Zn29 Zn7 2.706505 1_555
Zn29 Zn4 2.706505 1_555
Zn29 Zn9 2.718700 1_555
Zn30 Zn4 2.582323 1_455
Zn30 Zn6 2.582323 1_544
Zn30 Zn8 2.773865 1_444
Zn31 Zn5 2.582323 1_545
Zn31 Zn7 2.582323 1_455
Zn31 Zn9 2.773865 1_555
