# generated using pymatgen
data_MgMn4O8
_symmetry_space_group_name_H-M   'P 1'
_cell_length_a   6.22517600
_cell_length_b   6.21886633
_cell_length_c   6.24642463
_cell_angle_alpha   56.48191524
_cell_angle_beta   56.44646217
_cell_angle_gamma   56.60702828
_symmetry_Int_Tables_number   1
_chemical_formula_structural   MgMn4O8
_chemical_formula_sum   'Mg1 Mn4 O8'
_cell_volume   157.20712321
_cell_formula_units_Z   1
loop_
 _symmetry_equiv_pos_site_id
 _symmetry_equiv_pos_as_xyz
  1  'x, y, z'
loop_
 _atom_site_type_symbol
 _atom_site_label
 _atom_site_symmetry_multiplicity
 _atom_site_fract_x
 _atom_site_fract_y
 _atom_site_fract_z
 _atom_site_occupancy
  Mg  Mg0  1  0.00000000  0.00000000  0.00000000  1
  Mn  Mn0  1  0.50000100  0.50000000  0.49999900  1
  Mn  Mn1  1  0.00000000  0.50000100  0.49999900  1
  Mn  Mn2  1  0.50000000  0.50000100  0.00000000  1
  Mn  Mn3  1  0.49999900  0.00000000  0.50000100  1
  O  O0  1  0.29062400  0.75529100  0.75743300  1
  O  O1  1  0.73029300  0.73086900  0.72838400  1
  O  O2  1  0.75573200  0.29020700  0.75738500  1
  O  O3  1  0.75598200  0.75549000  0.29202600  1
  O  O4  1  0.26970600  0.26913300  0.27161500  1
  O  O5  1  0.70937600  0.24470800  0.24256700  1
  O  O6  1  0.24401700  0.24450900  0.70797500  1
  O  O7  1  0.24426700  0.70979300  0.24261600  1
loop_
_geom_bond_atom_site_label_1
_geom_bond_atom_site_label_2
_geom_bond_distance
_geom_bond_site_symmetry_2
Mg0 O6 2.088840 1_554
Mg0 O3 2.088848 1_445
Mg0 O5 2.090563 1_455
Mg0 O0 2.090567 1_544
Mg0 O7 2.090941 1_545
Mg0 O2 2.090941 1_454
Mn0 O3 2.229456 1_555
Mn0 O6 2.229472 1_555
Mn0 O5 2.242758 1_555
Mn0 O0 2.242760 1_555
Mn0 O7 2.246746 1_555
Mn0 O2 2.246746 1_555
Mn1 O7 1.940092 1_555
Mn1 O2 1.940104 1_455
Mn1 O3 1.940301 1_455
Mn1 O6 1.940310 1_555
Mn1 O4 1.968830 1_555
Mn1 O1 1.968835 1_455
Mn2 O7 1.940002 1_555
Mn2 O2 1.940006 1_554
Mn2 O0 1.940049 1_554
Mn2 O5 1.940049 1_555
Mn2 O1 1.970239 1_554
Mn2 O4 1.970243 1_555
Mn3 O0 1.940211 1_545
Mn3 O5 1.940215 1_555
Mn3 O6 1.940383 1_555
Mn3 O3 1.940391 1_545
Mn3 O1 1.968327 1_545
Mn3 O4 1.968336 1_555
