# generated using pymatgen
data_OsCl2O
_symmetry_space_group_name_H-M   'P 1'
_cell_length_a   3.60442993
_cell_length_b   3.70575947
_cell_length_c   6.31436906
_cell_angle_alpha   107.40105064
_cell_angle_beta   106.58363983
_cell_angle_gamma   89.99999969
_symmetry_Int_Tables_number   1
_chemical_formula_structural   OsCl2O
_chemical_formula_sum   'Os1 Cl2 O1'
_cell_volume   76.79764605
_cell_formula_units_Z   1
loop_
 _symmetry_equiv_pos_site_id
 _symmetry_equiv_pos_as_xyz
  1  'x, y, z'
loop_
 _atom_site_type_symbol
 _atom_site_label
 _atom_site_symmetry_multiplicity
 _atom_site_fract_x
 _atom_site_fract_y
 _atom_site_fract_z
 _atom_site_occupancy
  Os  Os0  1  -0.00000000  -0.00000000  0.00000000  1
  Cl  Cl0  1  0.36264631  0.85994714  0.72529462  1
  Cl  Cl1  1  0.63735369  0.14005286  0.27470538  1
  O  O0  1  -0.00000000  0.50000000  0.00000000  1
loop_
_geom_bond_atom_site_label_1
_geom_bond_atom_site_label_2
_geom_bond_distance
_geom_bond_site_symmetry_2
Cl0 Os0 2.396367 1_566
Cl0 Os0 2.396373 1_666
Cl1 Os0 2.396367 1_655
Cl1 Os0 2.396373 1_555
O0 Os0 1.852880 1_565
O0 Os0 1.852880 1_555
