# generated using pymatgen
data_MgFe4(OF)4
_symmetry_space_group_name_H-M   'P 1'
_cell_length_a   5.26580441
_cell_length_b   10.68266196
_cell_length_c   3.06434316
_cell_angle_alpha   90.50692282
_cell_angle_beta   96.68182604
_cell_angle_gamma   97.68222441
_symmetry_Int_Tables_number   1
_chemical_formula_structural   MgFe4(OF)4
_chemical_formula_sum   'Mg1 Fe4 O4 F4'
_cell_volume   169.61827181
_cell_formula_units_Z   1
loop_
 _symmetry_equiv_pos_site_id
 _symmetry_equiv_pos_as_xyz
  1  'x, y, z'
loop_
 _atom_site_type_symbol
 _atom_site_label
 _atom_site_symmetry_multiplicity
 _atom_site_fract_x
 _atom_site_fract_y
 _atom_site_fract_z
 _atom_site_occupancy
  Mg  Mg0  1  -0.00051453  0.23890440  0.53037842  1
  Fe  Fe0  1  0.00559709  0.95785052  0.03335063  1
  Fe  Fe1  1  0.05206738  0.49590879  0.01337144  1
  Fe  Fe2  1  0.53661541  0.36066827  0.34958166  1
  Fe  Fe3  1  0.38811427  0.76321630  0.57266983  1
  O  O0  1  0.22452961  0.41656668  0.55301068  1
  O  O1  1  0.20125748  0.89593672  0.57499049  1
  O  O2  1  0.26351424  0.65614635  0.05012117  1
  O  O3  1  0.79031455  0.32545009  0.94968817  1
  F  F0  1  0.22765163  0.19529290  0.08342489  1
  F  F1  1  0.66119471  0.82341961  0.08759512  1
  F  F2  1  0.83899950  0.06372392  0.48706960  1
  F  F3  1  0.81065765  0.54262746  0.46474791  1
loop_
_geom_bond_atom_site_label_1
_geom_bond_atom_site_label_2
_geom_bond_distance
_geom_bond_site_symmetry_2
Mg0 O3 2.073535 1_455
Mg0 O0 2.094853 1_555
Mg0 O3 2.253801 1_454
Fe0 O1 1.993574 1_554
Fe0 O1 2.014322 1_555
Fe1 O2 1.907984 1_555
Fe1 O0 2.003995 1_554
Fe1 O0 2.039310 1_555
Fe1 O3 2.124582 1_454
Fe2 O3 1.983700 1_554
Fe2 O0 1.984960 1_555
Fe2 O3 2.209716 1_555
Fe3 O1 1.831070 1_555
Fe3 O2 1.955830 1_555
Fe3 O2 1.982852 1_556
F0 Mg0 2.014389 1_555
F0 Mg0 2.054866 1_554
F0 Fe2 2.308777 1_555
F0 Fe0 2.642557 1_545
F1 Fe3 2.044012 1_554
F1 Fe0 2.181056 1_655
F1 Fe3 2.226655 1_555
F2 Mg0 1.944372 1_655
F2 Fe0 2.122063 1_645
F2 Fe0 2.192730 1_646
F3 Fe1 2.084424 1_655
F3 Fe1 2.092496 1_656
F3 Fe2 2.259368 1_555
