# generated using pymatgen
data_SrAl4
_symmetry_space_group_name_H-M   'P 1'
_cell_length_a   4.44421579
_cell_length_b   4.44421604
_cell_length_c   6.42588252
_cell_angle_alpha   110.23097679
_cell_angle_beta   110.23097470
_cell_angle_gamma   90.00001450
_symmetry_Int_Tables_number   1
_chemical_formula_structural   SrAl4
_chemical_formula_sum   'Sr1 Al4'
_cell_volume   110.70542372
_cell_formula_units_Z   1
loop_
 _symmetry_equiv_pos_site_id
 _symmetry_equiv_pos_as_xyz
  1  'x, y, z'
loop_
 _atom_site_type_symbol
 _atom_site_label
 _atom_site_symmetry_multiplicity
 _atom_site_fract_x
 _atom_site_fract_y
 _atom_site_fract_z
 _atom_site_occupancy
  Sr  Sr0  1  -0.00000000  0.00000000  -0.00000000  1
  Al  Al0  1  0.75000000  0.25000000  0.50000000  1
  Al  Al1  1  0.25000000  0.75000000  0.50000000  1
  Al  Al2  1  0.38295963  0.38295963  0.76592026  1
  Al  Al3  1  0.61704037  0.61704037  0.23407974  1
loop_
_geom_bond_atom_site_label_1
_geom_bond_atom_site_label_2
_geom_bond_distance
_geom_bond_site_symmetry_2
Al0 Al2 2.675692 1_655
Al0 Al3 2.675692 1_545
Al0 Al2 2.675695 1_555
Al0 Al3 2.675695 1_555
Al0 Sr0 3.576573 1_655
Al0 Sr0 3.576573 1_656
Al0 Sr0 3.576574 1_555
Al0 Sr0 3.576574 1_666
Al1 Al3 2.675692 1_455
Al1 Al2 2.675692 1_565
Al1 Al3 2.675695 1_555
Al1 Al2 2.675695 1_555
Al1 Sr0 3.576573 1_566
Al1 Sr0 3.576573 1_565
Al1 Sr0 3.576574 1_666
Al1 Sr0 3.576574 1_555
Al2 Al3 2.624052 1_556
Al2 Sr0 3.405424 1_556
Al2 Sr0 3.405428 1_566
Al2 Sr0 3.405428 1_656
Al2 Sr0 3.405431 1_666
Al3 Sr0 3.405424 1_665
Al3 Sr0 3.405428 1_655
Al3 Sr0 3.405428 1_565
Al3 Sr0 3.405431 1_555
