# generated using pymatgen
data_Na7CaSc3(PO4)6
_symmetry_space_group_name_H-M   'P 1'
_cell_length_a   9.17827136
_cell_length_b   9.18528040
_cell_length_c   22.46414285
_cell_angle_alpha   90.01753473
_cell_angle_beta   90.00593607
_cell_angle_gamma   119.98528625
_symmetry_Int_Tables_number   1
_chemical_formula_structural   Na7CaSc3(PO4)6
_chemical_formula_sum   'Na21 Ca3 Sc9 P18 O72'
_cell_volume   1640.35606373
_cell_formula_units_Z   3
loop_
 _symmetry_equiv_pos_site_id
 _symmetry_equiv_pos_as_xyz
  1  'x, y, z'
loop_
 _atom_site_type_symbol
 _atom_site_label
 _atom_site_symmetry_multiplicity
 _atom_site_fract_x
 _atom_site_fract_y
 _atom_site_fract_z
 _atom_site_occupancy
  Na  Na0  1  0.63950771  0.00549460  0.24362340  1
  Na  Na1  1  0.36647045  0.35844042  0.24449352  1
  Na  Na2  1  0.99304883  0.63535881  0.24319094  1
  Na  Na3  1  0.63350577  0.62861712  0.74667137  1
  Na  Na4  1  0.99303103  0.36568181  0.74823159  1
  Na  Na5  1  0.37442972  0.00550907  0.74756649  1
  Na  Na6  1  0.02608907  0.69176897  0.58342584  1
  Na  Na7  1  0.66466225  0.97477602  0.58287406  1
  Na  Na8  1  0.31128328  0.97537154  0.08253788  1
  Na  Na9  1  0.66386274  0.69025387  0.08306728  1
  Na  Na10  1  0.69705726  0.03091752  0.92031557  1
  Na  Na11  1  0.33232993  0.30113870  0.91919017  1
  Na  Na12  1  0.96661987  0.29537854  0.41322608  1
  Na  Na13  1  0.32781788  0.03192050  0.41384056  1
  Na  Na14  1  0.70644562  0.67346808  0.41363506  1
  Na  Na15  1  0.01415489  0.01479014  0.50229631  1
  Na  Na16  1  0.00011414  0.99962357  0.00285387  1
  Na  Na17  1  0.68166907  0.34928664  0.83601344  1
  Na  Na18  1  0.66691104  0.33343706  0.32798979  1
  Na  Na19  1  0.31556169  0.64888212  0.16287451  1
  Na  Na20  1  0.33318051  0.64882077  0.66343232  1
  Ca  Ca0  1  -0.00027412  0.00013506  0.35020638  1
  Ca  Ca1  1  0.66184355  0.33345172  0.68124504  1
  Ca  Ca2  1  0.67297856  0.33508718  0.17536221  1
  Sc  Sc0  1  0.99977839  0.99387716  0.85417125  1
  Sc  Sc1  1  0.00574753  0.00548602  0.64792455  1
  Sc  Sc2  1  0.00017893  0.00611018  0.14925343  1
  Sc  Sc3  1  0.67613960  0.33957848  0.98400825  1
  Sc  Sc4  1  0.66270329  0.33286267  0.48527578  1
  Sc  Sc5  1  0.32514509  0.66207394  0.01479835  1
  Sc  Sc6  1  0.33318527  0.66142884  0.51825619  1
  Sc  Sc7  1  0.33360923  0.66663356  0.31530400  1
  Sc  Sc8  1  0.32911300  0.66557436  0.81680802  1
  P  P0  1  0.29996523  0.99545504  0.25058805  1
  P  P1  1  0.69489517  0.70013788  0.25082900  1
  P  P2  1  0.00450350  0.30410723  0.25334301  1
  P  P3  1  0.28837151  0.29496552  0.75394769  1
  P  P4  1  0.00696039  0.71137611  0.74959972  1
  P  P5  1  0.70516808  0.99346247  0.75178389  1
  P  P6  1  0.96915812  0.33253558  0.58373691  1
  P  P7  1  0.36056461  0.02659704  0.58308859  1
  P  P8  1  0.66926192  0.64143186  0.58423447  1
  P  P9  1  0.97403155  0.64265265  0.08479095  1
  P  P10  1  0.66504422  0.02431605  0.08115186  1
  P  P11  1  0.36165214  0.33348386  0.08136528  1
  P  P12  1  0.62743735  0.66421918  0.91641930  1
  P  P13  1  0.03376331  0.36874553  0.91399861  1
  P  P14  1  0.33692059  0.96759512  0.91649994  1
  P  P15  1  0.62324198  0.96567832  0.41854990  1
  P  P16  1  0.34229977  0.37672050  0.41637778  1
  P  P17  1  0.03489844  0.65805155  0.41875611  1
  O  O0  1  0.22735732  0.01937010  0.30880950  1
  O  O1  1  0.79075595  0.77278770  0.30918249  1
  O  O2  1  0.98131174  0.21429067  0.31297650  1
  O  O3  1  0.20274958  0.19483740  0.81108208  1
  O  O4  1  0.99258647  0.80945605  0.80301120  1
  O  O5  1  0.81187854  0.00960690  0.80740271  1
  O  O6  1  0.79137272  0.97526962  0.69482080  1
  O  O7  1  0.17774336  0.20159858  0.69920245  1
  O  O8  1  0.02465020  0.81029408  0.69138323  1
  O  O9  1  0.79267588  0.81470874  0.19668807  1
  O  O10  1  0.02213411  0.20036762  0.20161436  1
  O  O11  1  0.18620358  0.97926123  0.19620321  1
  O  O12  1  0.90009373  0.36524073  0.64141396  1
  O  O13  1  0.46263886  0.09516740  0.64058588  1
  O  O14  1  0.64460475  0.54932867  0.64323425  1
  O  O15  1  0.91635303  0.55799287  0.14537775  1
  O  O16  1  0.63039260  0.09070762  0.13885666  1
  O  O17  1  0.46309594  0.36907617  0.13927358  1
  O  O18  1  0.45859367  0.30747650  0.02864681  1
  O  O19  1  0.84433680  0.53643646  0.03534107  1
  O  O20  1  0.68473884  0.13952689  0.02720808  1
  O  O21  1  0.45553913  0.13950726  0.52863359  1
  O  O22  1  0.69058713  0.54354267  0.53108404  1
  O  O23  1  0.84861177  0.30843149  0.53050253  1
  O  O24  1  0.54090660  0.68983254  0.97122193  1
  O  O25  1  0.15317623  0.46216502  0.96617350  1
  O  O26  1  0.31911255  0.86270049  0.97239937  1
  O  O27  1  0.53055607  0.86064130  0.47376516  1
  O  O28  1  0.32776815  0.47539556  0.46916176  1
  O  O29  1  0.14054611  0.67281933  0.47412845  1
  O  O30  1  0.12243321  0.64044243  0.36201925  1
  O  O31  1  0.51937223  0.87767590  0.36158354  1
  O  O32  1  0.36010169  0.47567957  0.35803326  1
  O  O33  1  0.11124517  0.46788390  0.85563137  1
  O  O34  1  0.35858260  0.87978888  0.86056329  1
  O  O35  1  0.51568755  0.63774640  0.86054587  1
  O  O36  1  0.01530117  0.81554874  0.41827191  1
  O  O37  1  0.80039914  0.98531283  0.41874485  1
  O  O38  1  0.18600412  0.19910163  0.41792186  1
  O  O39  1  0.01542825  0.18948876  0.91313292  1
  O  O40  1  0.18314550  0.99485368  0.91352878  1
  O  O41  1  0.80236061  0.82579844  0.91222716  1
  O  O42  1  0.97560205  0.16657624  0.58638276  1
  O  O43  1  0.18254127  0.00753694  0.58541873  1
  O  O44  1  0.83497713  0.81702212  0.58467136  1
  O  O45  1  0.98339263  0.81815884  0.08483114  1
  O  O46  1  0.82336836  0.00379982  0.08491624  1
  O  O47  1  0.18944141  0.16699743  0.08542322  1
  O  O48  1  0.68564249  0.15111477  0.75049949  1
  O  O49  1  0.46523439  0.31410709  0.75138766  1
  O  O50  1  0.84936369  0.53441242  0.75021429  1
  O  O51  1  0.66863983  0.52107240  0.24531249  1
  O  O52  1  0.85100809  0.32817398  0.24592873  1
  O  O53  1  0.47935671  0.14800312  0.24491857  1
  O  O54  1  0.64067548  0.50221294  0.92210073  1
  O  O55  1  0.85398613  0.34387283  0.92118639  1
  O  O56  1  0.50023374  0.14478589  0.92009718  1
  O  O57  1  0.63772646  0.14281749  0.42078675  1
  O  O58  1  0.50523351  0.36330295  0.42103684  1
  O  O59  1  0.85749683  0.49585746  0.42159551  1
  O  O60  1  0.34210218  0.48940307  0.07145710  1
  O  O61  1  0.15362662  0.67281799  0.07360345  1
  O  O62  1  0.50788245  0.84510810  0.07320725  1
  O  O63  1  0.33657766  0.84616525  0.57651707  1
  O  O64  1  0.51969391  0.67412864  0.57667959  1
  O  O65  1  0.14593865  0.48828727  0.57552943  1
  O  O66  1  0.30653627  0.82816445  0.25173052  1
  O  O67  1  0.52067626  0.69307262  0.25152417  1
  O  O68  1  0.17070760  0.47877242  0.25233754  1
  O  O69  1  0.30423981  0.47305927  0.75432326  1
  O  O70  1  0.16977545  0.69733358  0.75375690  1
  O  O71  1  0.52778436  0.83060425  0.75467903  1
loop_
_geom_bond_atom_site_label_1
_geom_bond_atom_site_label_2
_geom_bond_distance
_geom_bond_site_symmetry_2
Na0 O53 2.407929 1_555
Na0 O16 2.495016 1_555
Na0 O67 2.515554 1_545
Na0 O52 2.608558 1_555
Na0 O66 2.655307 1_545
Na0 O31 2.885232 1_545
Na0 O9 2.936095 1_545
Na1 O51 2.404664 1_555
Na1 O17 2.509381 1_555
Na1 O68 2.542845 1_555
Na1 O53 2.609908 1_555
Na1 O67 2.669640 1_555
Na1 O32 2.780246 1_555
Na1 O10 2.904479 1_555
Na2 O15 2.308096 1_555
Na2 O52 2.447037 1_555
Na2 O66 2.521551 1_655
Na2 O51 2.616417 1_555
Na2 O68 2.667227 1_655
Na2 O30 2.912354 1_655
Na2 O11 2.939420 1_655
Na3 O14 2.452180 1_555
Na3 O71 2.493070 1_555
Na3 O49 2.506507 1_555
Na3 O50 2.528599 1_555
Na3 O69 2.624550 1_555
Na3 O35 2.794872 1_555
Na4 O50 2.487054 1_555
Na4 O48 2.507743 1_555
Na4 O69 2.516777 1_655
Na4 O12 2.545912 1_555
Na4 O33 2.619029 1_655
Na4 O70 2.643325 1_655
Na5 O48 2.476577 1_555
Na5 O70 2.499190 1_545
Na5 O49 2.524912 1_555
Na5 O13 2.538572 1_555
Na5 O71 2.616877 1_545
Na5 O34 2.762607 1_545
Na6 O63 2.473248 1_555
Na6 O43 2.512625 1_565
Na6 O44 2.533440 1_455
Na6 O65 2.605700 1_555
Na6 O8 2.660756 1_555
Na6 O29 2.710219 1_555
Na6 O22 2.919950 1_455
Na6 O12 2.926702 1_455
Na7 O64 2.396410 1_555
Na7 O42 2.495780 1_565
Na7 O44 2.609399 1_555
Na7 O63 2.632047 1_555
Na7 O27 2.707334 1_555
Na7 O6 2.769625 1_555
Na7 O13 2.896713 1_565
Na7 O23 2.908219 1_565
Na8 O61 2.416044 1_555
Na8 O47 2.514021 1_565
Na8 O45 2.607878 1_455
Na8 O62 2.624796 1_555
Na8 O26 2.696390 1_554
Na8 O11 2.807238 1_555
Na8 O16 2.863247 1_565
Na8 O18 2.911886 1_565
Na9 O62 2.481397 1_555
Na9 O46 2.494979 1_565
Na9 O45 2.557093 1_555
Na9 O60 2.597438 1_555
Na9 O24 2.753422 1_554
Na9 O9 2.804633 1_555
Na9 O19 2.868471 1_555
Na9 O17 2.874354 1_555
Na10 O55 2.489902 1_555
Na10 O56 2.499200 1_555
Na10 O41 2.517313 1_545
Na10 O39 2.536172 1_655
Na10 O20 2.623991 1_556
Na10 O5 2.790908 1_555
Na10 O24 2.948157 1_545
Na10 O34 3.011178 1_545
Na11 O40 2.440304 1_545
Na11 O54 2.489984 1_555
Na11 O39 2.559009 1_555
Na11 O56 2.578766 1_555
Na11 O3 2.665135 1_555
Na11 O18 2.706331 1_556
Na11 O25 2.904443 1_555
Na11 O35 2.988168 1_555
Na12 O2 2.396655 1_555
Na12 O37 2.472121 1_545
Na12 O59 2.504549 1_555
Na12 O38 2.574394 1_655
Na12 O57 2.622392 1_555
Na12 O23 2.873738 1_555
Na12 O30 2.980952 1_655
Na13 O38 2.461395 1_555
Na13 O57 2.501280 1_555
Na13 O0 2.514664 1_555
Na13 O36 2.547419 1_545
Na13 O58 2.643490 1_555
Na13 O21 2.800086 1_555
Na14 O36 2.460054 1_655
Na14 O1 2.496574 1_555
Na14 O58 2.509200 1_555
Na14 O37 2.548000 1_555
Na14 O59 2.622291 1_555
Na14 O22 2.869648 1_555
Na15 O43 2.445834 1_555
Na15 O42 2.475620 1_455
Na15 O38 2.505983 1_555
Na15 O44 2.538760 1_445
Na15 O37 2.629288 1_445
Na15 O36 2.632349 1_545
Na16 O45 2.437075 1_455
Na16 O46 2.468643 1_465
Na16 O47 2.480094 1_565
Na16 O39 2.623094 1_564
Na16 O40 2.631487 1_554
Na16 O41 2.662493 1_454
Na17 O55 2.498549 1_555
Na17 O50 2.522281 1_555
Na17 O54 2.526125 1_555
Na17 O56 2.597208 1_555
Na17 O49 2.649864 1_555
Na17 O48 2.658788 1_555
Na18 O52 2.517514 1_555
Na18 O51 2.528783 1_555
Na18 O53 2.532485 1_555
Na18 O57 2.648870 1_555
Na18 O58 2.655841 1_555
Na18 O59 2.663838 1_555
Na19 O68 2.484751 1_555
Na19 O61 2.570073 1_555
Na19 O60 2.603348 1_555
Na19 O66 2.614835 1_555
Na19 O67 2.628626 1_555
Na19 O62 2.691595 1_555
Na20 O64 2.526987 1_555
Na20 O69 2.533632 1_555
Na20 O65 2.547855 1_555
Na20 O63 2.654162 1_555
Na20 O71 2.682530 1_555
Na20 O70 2.689438 1_555
Ca0 O1 2.209918 1_445
Ca0 O0 2.211916 1_555
Ca0 O2 2.220521 1_455
Ca0 O38 2.334867 1_555
Ca0 O36 2.340263 1_545
Ca0 O37 2.342607 1_445
Ca1 O13 2.228464 1_555
Ca1 O14 2.236203 1_555
Ca1 O12 2.242763 1_555
Ca1 O49 2.334734 1_555
Ca1 O50 2.364758 1_555
Ca1 O48 2.374921 1_555
Ca2 O16 2.232882 1_555
Ca2 O15 2.250580 1_555
Ca2 O17 2.250896 1_555
Ca2 O52 2.300032 1_555
Ca2 O51 2.335711 1_555
Ca2 O53 2.345705 1_555
O0 P0 1.532736 1_545
O1 P1 1.533015 1_555
O2 P2 1.531566 1_655
O3 P3 1.545715 1_555
O3 Sc0 2.092598 1_445
O4 P4 1.544929 1_655
O4 Sc0 2.020321 1_555
O5 P5 1.548154 1_545
O5 Sc0 2.085109 1_545
O6 P5 1.556798 1_555
O6 Sc1 2.124388 1_665
O7 P3 1.551639 1_555
O7 Sc1 2.054211 1_555
O8 P4 1.554191 1_555
O8 Sc1 2.123583 1_565
O9 P1 1.564958 1_555
O9 Sc2 2.123264 1_665
O10 P2 1.561404 1_555
O10 Sc2 2.060869 1_555
O11 P0 1.565024 1_555
O11 Sc2 2.123443 1_565
O12 P6 1.536582 1_555
O13 P7 1.533673 1_555
O14 P8 1.527393 1_555
O15 P9 1.525343 1_555
O16 P10 1.531949 1_555
O17 P11 1.536638 1_555
O18 P11 1.569630 1_555
O18 Sc3 2.119288 1_554
O19 P9 1.562383 1_555
O19 Sc3 2.047118 1_554
O20 P10 1.559051 1_555
O20 Sc3 2.114368 1_554
O21 P7 1.558601 1_555
O21 Sc4 2.084294 1_555
O22 P8 1.564496 1_555
O22 Sc4 2.091158 1_555
O23 P6 1.567788 1_555
O23 Sc4 2.092037 1_555
O24 P12 1.545475 1_555
O24 Sc5 2.107317 1_556
O25 P13 1.539591 1_555
O25 Sc5 2.039016 1_556
O26 P14 1.541188 1_555
O26 Sc5 2.099820 1_556
O27 P15 1.540644 1_555
O27 Sc6 2.077733 1_555
O28 P16 1.538011 1_555
O28 Sc6 2.013103 1_555
O29 P17 1.540808 1_555
O29 Sc6 2.074697 1_555
O30 P17 1.557589 1_555
O30 Sc7 2.109595 1_555
O31 P15 1.558440 1_555
O31 Sc7 2.107203 1_555
O32 P16 1.556621 1_555
O32 Sc7 2.117584 1_555
O33 P13 1.551692 1_555
O33 Sc8 2.104376 1_555
O34 P14 1.558426 1_555
O34 Sc8 2.092278 1_555
O35 P12 1.561019 1_555
O35 Sc8 2.097725 1_555
O36 P17 1.544470 1_555
O37 P15 1.543791 1_555
O38 P16 1.543203 1_555
O39 P13 1.569317 1_555
O39 Sc0 2.178034 1_445
O40 P14 1.553183 1_555
O40 Sc0 2.143591 1_455
O41 P12 1.551632 1_555
O41 Sc0 2.138482 1_555
O42 P6 1.555939 1_555
O42 Sc1 2.141867 1_655
O43 P7 1.554755 1_555
O43 Sc1 2.138908 1_555
O44 P8 1.569305 1_555
O44 Sc1 2.181366 1_665
O45 P9 1.570897 1_555
O45 Sc2 2.197969 1_665
O46 P10 1.558200 1_555
O46 Sc2 2.165153 1_655
O47 P11 1.558598 1_555
O47 Sc2 2.166407 1_555
O48 P5 1.545739 1_545
O49 P3 1.544038 1_555
O50 P4 1.544172 1_655
O51 P1 1.543495 1_555
O52 P2 1.540344 1_655
O53 P0 1.544231 1_545
O54 P12 1.557643 1_555
O54 Sc3 2.181460 1_555
O55 P13 1.556979 1_655
O55 Sc3 2.143312 1_555
O56 P14 1.569597 1_545
O56 Sc3 2.231532 1_555
O57 P15 1.565664 1_545
O57 Sc4 2.190167 1_555
O58 P16 1.564197 1_555
O58 Sc4 2.157145 1_555
O59 P17 1.565293 1_655
O59 Sc4 2.193320 1_555
O60 P11 1.545923 1_555
O60 Sc5 2.099438 1_555
O61 P9 1.549409 1_455
O61 Sc5 2.094917 1_555
O62 P10 1.564784 1_565
O62 Sc5 2.130927 1_555
O63 P7 1.565916 1_565
O63 Sc6 2.130497 1_555
O64 P8 1.554219 1_555
O64 Sc6 2.113357 1_555
O65 P6 1.547037 1_455
O65 Sc6 2.099495 1_555
O66 P0 1.567841 1_555
O66 Sc7 2.161574 1_555
O67 P1 1.567682 1_555
O67 Sc7 2.154912 1_555
O68 P2 1.566918 1_555
O68 Sc7 2.152452 1_555
O69 P3 1.568154 1_555
O69 Sc8 2.178119 1_555
O70 P4 1.565604 1_555
O70 Sc8 2.157835 1_555
O71 P5 1.567897 1_555
O71 Sc8 2.193096 1_555
