# generated using pymatgen
data_YbSnPt
_symmetry_space_group_name_H-M   'P 1'
_cell_length_a   7.40484293
_cell_length_b   7.40484293
_cell_length_c   3.95675242
_cell_angle_alpha   90.00000000
_cell_angle_beta   90.00000000
_cell_angle_gamma   120.00000210
_symmetry_Int_Tables_number   1
_chemical_formula_structural   YbSnPt
_chemical_formula_sum   'Yb3 Sn3 Pt3'
_cell_volume   187.88893316
_cell_formula_units_Z   3
loop_
 _symmetry_equiv_pos_site_id
 _symmetry_equiv_pos_as_xyz
  1  'x, y, z'
loop_
 _atom_site_type_symbol
 _atom_site_label
 _atom_site_symmetry_multiplicity
 _atom_site_fract_x
 _atom_site_fract_y
 _atom_site_fract_z
 _atom_site_occupancy
  Yb  Yb0  1  0.40432066  0.40432066  0.00000000  1
  Yb  Yb1  1  0.59567934  0.00000000  0.00000000  1
  Yb  Yb2  1  0.00000000  0.59567934  0.00000000  1
  Sn  Sn0  1  1.00000000  0.26095525  0.50000000  1
  Sn  Sn1  1  0.73904475  0.73904475  0.50000000  1
  Sn  Sn2  1  0.26095525  1.00000000  0.50000000  1
  Pt  Pt0  1  0.66666700  0.33333300  0.50000000  1
  Pt  Pt1  1  0.00000000  0.00000000  0.00000000  1
  Pt  Pt2  1  0.33333300  0.66666700  0.50000000  1
loop_
_geom_bond_atom_site_label_1
_geom_bond_atom_site_label_2
_geom_bond_distance
_geom_bond_site_symmetry_2
Sn0 Yb2 3.171329 1_656
Sn0 Yb2 3.171329 1_655
Sn0 Yb1 3.290324 1_556
Sn0 Yb1 3.290324 1_555
Sn0 Yb0 3.290324 1_656
Sn0 Yb0 3.290324 1_655
Sn1 Yb0 3.171329 1_555
Sn1 Yb0 3.171329 1_556
Sn1 Yb2 3.290324 1_655
Sn1 Yb2 3.290324 1_656
Sn1 Yb1 3.290324 1_565
Sn1 Yb1 3.290324 1_566
Sn2 Yb1 3.171329 1_566
Sn2 Yb1 3.171329 1_565
Sn2 Yb2 3.290324 1_555
Sn2 Yb2 3.290324 1_556
Sn2 Yb0 3.290324 1_566
Sn2 Yb0 3.290324 1_565
Pt0 Sn0 2.775338 1_555
Pt0 Sn2 2.775343 1_545
Pt0 Sn1 2.775345 1_555
Pt0 Yb1 2.997536 1_556
Pt0 Yb1 2.997536 1_555
Pt0 Yb2 2.997538 1_656
Pt0 Yb2 2.997538 1_655
Pt0 Yb0 2.997542 1_556
Pt0 Yb0 2.997542 1_555
Pt1 Sn1 2.765480 1_445
Pt1 Sn1 2.765480 1_444
Pt1 Sn0 2.765480 1_455
Pt1 Sn0 2.765480 1_454
Pt1 Sn2 2.765480 1_544
Pt1 Sn2 2.765480 1_545
Pt1 Yb0 2.993931 1_555
Pt1 Yb1 2.993931 1_455
Pt1 Yb2 2.993931 1_545
Pt2 Sn2 2.775338 1_555
Pt2 Sn0 2.775343 1_455
Pt2 Sn1 2.775345 1_555
Pt2 Yb2 2.997536 1_556
Pt2 Yb2 2.997536 1_555
Pt2 Yb1 2.997538 1_566
Pt2 Yb1 2.997538 1_565
Pt2 Yb0 2.997542 1_556
Pt2 Yb0 2.997542 1_555
