# generated using pymatgen
data_MgMnCd6O8
_symmetry_space_group_name_H-M   'P 1'
_cell_length_a   6.66198391
_cell_length_b   6.66198391
_cell_length_c   6.66198391
_cell_angle_alpha   60.00000000
_cell_angle_beta   60.00000000
_cell_angle_gamma   60.00000000
_symmetry_Int_Tables_number   1
_chemical_formula_structural   MgMnCd6O8
_chemical_formula_sum   'Mg1 Mn1 Cd6 O8'
_cell_volume   209.07193600
_cell_formula_units_Z   1
loop_
 _symmetry_equiv_pos_site_id
 _symmetry_equiv_pos_as_xyz
  1  'x, y, z'
loop_
 _atom_site_type_symbol
 _atom_site_label
 _atom_site_symmetry_multiplicity
 _atom_site_fract_x
 _atom_site_fract_y
 _atom_site_fract_z
 _atom_site_occupancy
  Mg  Mg0  1  0.50000000  0.50000000  0.50000000  1
  Mn  Mn0  1  0.00000000  0.00000000  0.00000000  1
  Cd  Cd0  1  0.50000000  0.00000000  0.00000000  1
  Cd  Cd1  1  0.50000000  0.00000000  0.50000000  1
  Cd  Cd2  1  0.00000000  0.00000000  0.50000000  1
  Cd  Cd3  1  0.50000000  0.50000000  0.00000000  1
  Cd  Cd4  1  0.00000000  0.50000000  0.00000000  1
  Cd  Cd5  1  0.00000000  0.50000000  0.50000000  1
  O  O0  1  0.74498800  0.25501200  0.25501200  1
  O  O1  1  0.25000000  0.25000000  0.25000000  1
  O  O2  1  0.25501200  0.74498800  0.25501200  1
  O  O3  1  0.25501200  0.25501200  0.74498800  1
  O  O4  1  0.74498800  0.25501200  0.74498800  1
  O  O5  1  0.74498800  0.74498800  0.25501200  1
  O  O6  1  0.75000000  0.75000000  0.75000000  1
  O  O7  1  0.25501200  0.74498800  0.74498800  1
loop_
_geom_bond_atom_site_label_1
_geom_bond_atom_site_label_2
_geom_bond_distance
_geom_bond_site_symmetry_2
Mg0 O5 2.308147 1_555
Mg0 O2 2.308147 1_555
Mg0 O3 2.308147 1_555
Mg0 O0 2.308147 1_555
Mg0 O7 2.308147 1_555
Mg0 O4 2.308147 1_555
Mn0 O3 2.402587 1_554
Mn0 O0 2.402587 1_455
Mn0 O2 2.402587 1_545
Mn0 O4 2.402587 1_454
Mn0 O7 2.402587 1_544
Mn0 O5 2.402587 1_445
Cd0 O1 2.355367 1_555
Cd0 O6 2.355367 1_544
Cd0 O3 2.355840 1_554
Cd0 O2 2.355840 1_545
Cd0 O5 2.355840 1_545
Cd0 O4 2.355840 1_554
Cd1 O1 2.355367 1_555
Cd1 O6 2.355367 1_545
Cd1 O7 2.355840 1_545
Cd1 O3 2.355840 1_555
Cd1 O0 2.355840 1_555
Cd1 O5 2.355840 1_545
Cd2 O1 2.355367 1_555
Cd2 O6 2.355367 1_445
Cd2 O4 2.355840 1_455
Cd2 O7 2.355840 1_545
Cd2 O0 2.355840 1_455
Cd2 O2 2.355840 1_545
Cd3 O1 2.355367 1_555
Cd3 O6 2.355367 1_554
Cd3 O2 2.355840 1_555
Cd3 O0 2.355840 1_555
Cd3 O7 2.355840 1_554
Cd3 O4 2.355840 1_554
Cd4 O6 2.355367 1_454
Cd4 O1 2.355367 1_555
Cd4 O5 2.355840 1_455
Cd4 O0 2.355840 1_455
Cd4 O3 2.355840 1_554
Cd4 O7 2.355840 1_554
Cd5 O1 2.355367 1_555
Cd5 O6 2.355367 1_455
Cd5 O5 2.355840 1_455
Cd5 O2 2.355840 1_555
Cd5 O3 2.355840 1_555
Cd5 O4 2.355840 1_455
