# generated using pymatgen
data_BaPrMgMn2O6
_symmetry_space_group_name_H-M   'P 1'
_cell_length_a   3.92038157
_cell_length_b   3.92038157
_cell_length_c   11.23917478
_cell_angle_alpha   90.00000000
_cell_angle_beta   90.00000000
_cell_angle_gamma   90.00000000
_symmetry_Int_Tables_number   1
_chemical_formula_structural   BaPrMgMn2O6
_chemical_formula_sum   'Ba1 Pr1 Mg1 Mn2 O6'
_cell_volume   172.73927907
_cell_formula_units_Z   1
loop_
 _symmetry_equiv_pos_site_id
 _symmetry_equiv_pos_as_xyz
  1  'x, y, z'
loop_
 _atom_site_type_symbol
 _atom_site_label
 _atom_site_symmetry_multiplicity
 _atom_site_fract_x
 _atom_site_fract_y
 _atom_site_fract_z
 _atom_site_occupancy
  Ba  Ba0  1  0.00000000  -0.00000000  0.45238635  1
  Pr  Pr0  1  -0.00000000  0.00000000  0.11651187  1
  Mg  Mg0  1  -0.00000000  -0.00000000  0.75620738  1
  Mn  Mn0  1  0.50000000  0.50000000  0.66288308  1
  Mn  Mn1  1  0.50000000  0.50000000  0.26928323  1
  O  O0  1  0.50000000  0.50000000  0.07012218  1
  O  O1  1  0.00000000  0.50000000  0.71759364  1
  O  O2  1  0.50000000  -0.00000000  0.71759364  1
  O  O3  1  0.00000000  0.50000000  0.25628503  1
  O  O4  1  0.50000000  0.50000000  0.47484957  1
  O  O5  1  0.50000000  0.00000000  0.25628503  1
loop_
_geom_bond_atom_site_label_1
_geom_bond_atom_site_label_2
_geom_bond_distance
_geom_bond_site_symmetry_2
Ba0 O4 2.783601 1_455
Ba0 O4 2.783601 1_555
Ba0 O4 2.783601 1_445
Ba0 O4 2.783601 1_545
Ba0 O5 2.949583 1_455
Ba0 O3 2.949583 1_545
Ba0 O5 2.949583 1_555
Ba0 O3 2.949583 1_555
Mg0 O2 2.007658 1_455
Mg0 O1 2.007658 1_545
Mg0 O2 2.007658 1_555
Mg0 O1 2.007658 1_555
Mn0 O1 2.054374 1_555
Mn0 O2 2.054374 1_565
Mn0 O1 2.054374 1_655
Mn0 O2 2.054374 1_555
Mn0 O4 2.113341 1_555
Mn1 O3 1.965627 1_555
Mn1 O3 1.965627 1_655
Mn1 O5 1.965627 1_565
Mn1 O5 1.965627 1_555
Mn1 O0 2.238406 1_555
Mn1 O4 2.310396 1_555
O0 Pr0 2.820733 1_655
O0 Pr0 2.820733 1_565
O0 Pr0 2.820733 1_555
O0 Pr0 2.820733 1_665
O3 Pr0 2.512008 1_565
O3 Pr0 2.512008 1_555
O5 Pr0 2.512008 1_655
O5 Pr0 2.512008 1_555
