# generated using pymatgen
data_V2GaN
_symmetry_space_group_name_H-M   'P 1'
_cell_length_a   5.81629800
_cell_length_b   5.81629592
_cell_length_c   25.69501000
_cell_angle_alpha   90.00000000
_cell_angle_beta   90.00000000
_cell_angle_gamma   120.00000045
_symmetry_Int_Tables_number   1
_chemical_formula_structural   V2GaN
_chemical_formula_sum   'V32 Ga16 N16'
_cell_volume   752.78778726
_cell_formula_units_Z   16
loop_
 _symmetry_equiv_pos_site_id
 _symmetry_equiv_pos_as_xyz
  1  'x, y, z'
loop_
 _atom_site_type_symbol
 _atom_site_label
 _atom_site_symmetry_multiplicity
 _atom_site_fract_x
 _atom_site_fract_y
 _atom_site_fract_z
 _atom_site_occupancy
  V  V0_0  1  0.33333350  0.16666650  0.29278600  1
  V  V0_1  1  0.33333350  0.16666650  0.79278600  1
  V  V0_2  1  0.33333350  0.66666650  0.29278600  1
  V  V0_3  1  0.33333350  0.66666650  0.79278600  1
  V  V0_4  1  0.83333350  0.16666650  0.29278600  1
  V  V0_5  1  0.83333350  0.16666650  0.79278600  1
  V  V0_6  1  0.83333350  0.66666650  0.29278600  1
  V  V0_7  1  0.83333350  0.66666650  0.79278600  1
  V  V1_0  1  0.16666650  0.33333350  0.20721400  1
  V  V1_1  1  0.16666650  0.33333350  0.70721400  1
  V  V1_2  1  0.16666650  0.83333350  0.20721400  1
  V  V1_3  1  0.16666650  0.83333350  0.70721400  1
  V  V1_4  1  0.66666650  0.33333350  0.20721400  1
  V  V1_5  1  0.66666650  0.33333350  0.70721400  1
  V  V1_6  1  0.66666650  0.83333350  0.20721400  1
  V  V1_7  1  0.66666650  0.83333350  0.70721400  1
  V  V2_0  1  0.16666650  0.33333350  0.04278600  1
  V  V2_1  1  0.16666650  0.33333350  0.54278600  1
  V  V2_2  1  0.16666650  0.83333350  0.04278600  1
  V  V2_3  1  0.16666650  0.83333350  0.54278600  1
  V  V2_4  1  0.66666650  0.33333350  0.04278600  1
  V  V2_5  1  0.66666650  0.33333350  0.54278600  1
  V  V2_6  1  0.66666650  0.83333350  0.04278600  1
  V  V2_7  1  0.66666650  0.83333350  0.54278600  1
  V  V3_0  1  0.33333350  0.16666650  0.45721400  1
  V  V3_1  1  0.33333350  0.16666650  0.95721400  1
  V  V3_2  1  0.33333350  0.66666650  0.45721400  1
  V  V3_3  1  0.33333350  0.66666650  0.95721400  1
  V  V3_4  1  0.83333350  0.16666650  0.45721400  1
  V  V3_5  1  0.83333350  0.16666650  0.95721400  1
  V  V3_6  1  0.83333350  0.66666650  0.45721400  1
  V  V3_7  1  0.83333350  0.66666650  0.95721400  1
  Ga  Ga0_0  1  0.33333350  0.16666650  0.12500000  1
  Ga  Ga0_1  1  0.33333350  0.16666650  0.62500000  1
  Ga  Ga0_2  1  0.33333350  0.66666650  0.12500000  1
  Ga  Ga0_3  1  0.33333350  0.66666650  0.62500000  1
  Ga  Ga0_4  1  0.83333350  0.16666650  0.12500000  1
  Ga  Ga0_5  1  0.83333350  0.16666650  0.62500000  1
  Ga  Ga0_6  1  0.83333350  0.66666650  0.12500000  1
  Ga  Ga0_7  1  0.83333350  0.66666650  0.62500000  1
  Ga  Ga1_0  1  0.16666650  0.33333350  0.37500000  1
  Ga  Ga1_1  1  0.16666650  0.33333350  0.87500000  1
  Ga  Ga1_2  1  0.16666650  0.83333350  0.37500000  1
  Ga  Ga1_3  1  0.16666650  0.83333350  0.87500000  1
  Ga  Ga1_4  1  0.66666650  0.33333350  0.37500000  1
  Ga  Ga1_5  1  0.66666650  0.33333350  0.87500000  1
  Ga  Ga1_6  1  0.66666650  0.83333350  0.37500000  1
  Ga  Ga1_7  1  0.66666650  0.83333350  0.87500000  1
  N  N0_0  1  0.00000000  0.00000000  0.25000000  1
  N  N0_1  1  0.00000000  0.00000000  0.75000000  1
  N  N0_2  1  0.00000000  0.50000000  0.25000000  1
  N  N0_3  1  0.00000000  0.50000000  0.75000000  1
  N  N0_4  1  0.50000000  0.00000000  0.25000000  1
  N  N0_5  1  0.50000000  0.00000000  0.75000000  1
  N  N0_6  1  0.50000000  0.50000000  0.25000000  1
  N  N0_7  1  0.50000000  0.50000000  0.75000000  1
  N  N1_0  1  0.00000000  0.00000000  0.00000000  1
  N  N1_1  1  0.00000000  0.00000000  0.50000000  1
  N  N1_2  1  0.00000000  0.50000000  0.00000000  1
  N  N1_3  1  0.00000000  0.50000000  0.50000000  1
  N  N1_4  1  0.50000000  0.00000000  0.00000000  1
  N  N1_5  1  0.50000000  0.00000000  0.50000000  1
  N  N1_6  1  0.50000000  0.50000000  0.00000000  1
  N  N1_7  1  0.50000000  0.50000000  0.50000000  1
loop_
_geom_bond_atom_site_label_1
_geom_bond_atom_site_label_2
_geom_bond_distance
_geom_bond_site_symmetry_2
Ga0_0 V1_2 2.698465 1_545
Ga0_0 V2_2 2.698465 1_545
Ga0_0 V1_4 2.698466 1_555
Ga0_0 V2_4 2.698466 1_555
Ga0_0 V1_0 2.698469 1_555
Ga0_0 V2_0 2.698469 1_555
Ga0_0 Ga0_2 2.908148 1_545
Ga0_0 Ga0_2 2.908148 1_555
Ga0_0 Ga0_6 2.908148 1_445
Ga0_0 Ga0_6 2.908148 1_555
Ga0_0 Ga0_4 2.908149 1_555
Ga0_0 Ga0_4 2.908149 1_455
Ga0_1 V1_3 2.698465 1_545
Ga0_1 V2_3 2.698465 1_545
Ga0_1 V1_5 2.698466 1_555
Ga0_1 V2_5 2.698466 1_555
Ga0_1 V1_1 2.698469 1_555
Ga0_1 V2_1 2.698469 1_555
Ga0_1 Ga0_3 2.908148 1_545
Ga0_1 Ga0_3 2.908148 1_555
Ga0_1 Ga0_7 2.908148 1_445
Ga0_1 Ga0_7 2.908148 1_555
Ga0_1 Ga0_5 2.908149 1_555
Ga0_1 Ga0_5 2.908149 1_455
Ga0_2 V1_0 2.698465 1_555
Ga0_2 V2_0 2.698465 1_555
Ga0_2 V1_6 2.698466 1_555
Ga0_2 V2_6 2.698466 1_555
Ga0_2 V1_2 2.698469 1_555
Ga0_2 V2_2 2.698469 1_555
Ga0_2 Ga0_4 2.908148 1_565
Ga0_2 Ga0_4 2.908148 1_455
Ga0_2 Ga0_6 2.908149 1_455
Ga0_2 Ga0_6 2.908149 1_555
Ga0_3 V1_1 2.698465 1_555
Ga0_3 V2_1 2.698465 1_555
Ga0_3 V1_7 2.698466 1_555
Ga0_3 V2_7 2.698466 1_555
Ga0_3 V1_3 2.698469 1_555
Ga0_3 V2_3 2.698469 1_555
Ga0_3 Ga0_5 2.908148 1_565
Ga0_3 Ga0_5 2.908148 1_455
Ga0_3 Ga0_7 2.908149 1_455
Ga0_3 Ga0_7 2.908149 1_555
Ga0_4 V1_6 2.698465 1_545
Ga0_4 V2_6 2.698465 1_545
Ga0_4 V1_0 2.698466 1_655
Ga0_4 V2_0 2.698466 1_655
Ga0_4 V1_4 2.698469 1_555
Ga0_4 V2_4 2.698469 1_555
Ga0_4 Ga0_6 2.908148 1_555
Ga0_4 Ga0_6 2.908148 1_545
Ga0_5 V1_7 2.698465 1_545
Ga0_5 V2_7 2.698465 1_545
Ga0_5 V1_1 2.698466 1_655
Ga0_5 V2_1 2.698466 1_655
Ga0_5 V1_5 2.698469 1_555
Ga0_5 V2_5 2.698469 1_555
Ga0_5 Ga0_7 2.908148 1_545
Ga0_5 Ga0_7 2.908148 1_555
Ga0_6 V1_4 2.698465 1_555
Ga0_6 V2_4 2.698465 1_555
Ga0_6 V1_2 2.698466 1_655
Ga0_6 V2_2 2.698466 1_655
Ga0_6 V1_6 2.698469 1_555
Ga0_6 V2_6 2.698469 1_555
Ga0_7 V1_5 2.698465 1_555
Ga0_7 V2_5 2.698465 1_555
Ga0_7 V1_3 2.698466 1_655
Ga0_7 V2_3 2.698466 1_655
Ga0_7 V1_7 2.698469 1_555
Ga0_7 V2_7 2.698469 1_555
Ga1_0 V3_2 2.698465 1_555
Ga1_0 V0_2 2.698465 1_555
Ga1_0 V3_4 2.698466 1_455
Ga1_0 V0_4 2.698466 1_455
Ga1_0 V3_0 2.698469 1_555
Ga1_0 V0_0 2.698469 1_555
Ga1_0 Ga1_2 2.908148 1_545
Ga1_0 Ga1_2 2.908148 1_555
Ga1_0 Ga1_6 2.908148 1_445
Ga1_0 Ga1_6 2.908148 1_555
Ga1_0 Ga1_4 2.908149 1_555
Ga1_0 Ga1_4 2.908149 1_455
Ga1_1 V3_3 2.698465 1_555
Ga1_1 V0_3 2.698465 1_555
Ga1_1 V3_5 2.698466 1_455
Ga1_1 V0_5 2.698466 1_455
Ga1_1 V3_1 2.698469 1_555
Ga1_1 V0_1 2.698469 1_555
Ga1_1 Ga1_3 2.908148 1_545
Ga1_1 Ga1_3 2.908148 1_555
Ga1_1 Ga1_7 2.908148 1_445
Ga1_1 Ga1_7 2.908148 1_555
Ga1_1 Ga1_5 2.908149 1_555
Ga1_1 Ga1_5 2.908149 1_455
Ga1_2 V3_0 2.698465 1_565
Ga1_2 V0_0 2.698465 1_565
Ga1_2 V3_6 2.698466 1_455
Ga1_2 V0_6 2.698466 1_455
Ga1_2 V3_2 2.698469 1_555
Ga1_2 V0_2 2.698469 1_555
Ga1_2 Ga1_4 2.908148 1_565
Ga1_2 Ga1_4 2.908148 1_455
Ga1_2 Ga1_6 2.908149 1_555
Ga1_2 Ga1_6 2.908149 1_455
Ga1_3 V3_1 2.698465 1_565
Ga1_3 V0_1 2.698465 1_565
Ga1_3 V3_7 2.698466 1_455
Ga1_3 V0_7 2.698466 1_455
Ga1_3 V3_3 2.698469 1_555
Ga1_3 V0_3 2.698469 1_555
Ga1_3 Ga1_5 2.908148 1_565
Ga1_3 Ga1_5 2.908148 1_455
Ga1_3 Ga1_7 2.908149 1_555
Ga1_3 Ga1_7 2.908149 1_455
Ga1_4 V3_6 2.698465 1_555
Ga1_4 V0_6 2.698465 1_555
Ga1_4 V3_0 2.698466 1_555
Ga1_4 V0_0 2.698466 1_555
Ga1_4 V3_4 2.698469 1_555
Ga1_4 V0_4 2.698469 1_555
Ga1_4 Ga1_6 2.908148 1_545
Ga1_4 Ga1_6 2.908148 1_555
Ga1_5 V3_7 2.698465 1_555
Ga1_5 V0_7 2.698465 1_555
Ga1_5 V3_1 2.698466 1_555
Ga1_5 V0_1 2.698466 1_555
Ga1_5 V3_5 2.698469 1_555
Ga1_5 V0_5 2.698469 1_555
Ga1_5 Ga1_7 2.908148 1_545
Ga1_5 Ga1_7 2.908148 1_555
Ga1_6 V3_4 2.698465 1_565
Ga1_6 V0_4 2.698465 1_565
Ga1_6 V3_2 2.698466 1_555
Ga1_6 V0_2 2.698466 1_555
Ga1_6 V3_6 2.698469 1_555
Ga1_6 V0_6 2.698469 1_555
Ga1_7 V3_5 2.698465 1_565
Ga1_7 V0_5 2.698465 1_565
Ga1_7 V3_3 2.698466 1_555
Ga1_7 V0_3 2.698466 1_555
Ga1_7 V3_7 2.698469 1_555
Ga1_7 V0_7 2.698469 1_555
N0_0 V0_4 2.006927 1_455
N0_0 V1_2 2.006927 1_545
N0_0 V0_6 2.006929 1_445
N0_0 V1_0 2.006929 1_555
N0_0 V0_0 2.006929 1_555
N0_0 V1_6 2.006929 1_445
N0_1 V0_5 2.006927 1_455
N0_1 V1_3 2.006927 1_545
N0_1 V0_7 2.006929 1_445
N0_1 V1_1 2.006929 1_555
N0_1 V0_1 2.006929 1_555
N0_1 V1_7 2.006929 1_445
N0_2 V0_6 2.006927 1_455
N0_2 V1_0 2.006927 1_555
N0_2 V0_4 2.006929 1_455
N0_2 V1_2 2.006929 1_555
N0_2 V0_2 2.006929 1_555
N0_2 V1_4 2.006929 1_455
N0_3 V0_7 2.006927 1_455
N0_3 V1_1 2.006927 1_555
N0_3 V0_5 2.006929 1_455
N0_3 V1_3 2.006929 1_555
N0_3 V0_3 2.006929 1_555
N0_3 V1_5 2.006929 1_455
N0_4 V0_0 2.006927 1_555
N0_4 V1_6 2.006927 1_545
N0_4 V0_2 2.006929 1_545
N0_4 V1_4 2.006929 1_555
N0_4 V0_4 2.006929 1_555
N0_4 V1_2 2.006929 1_545
N0_5 V0_1 2.006927 1_555
N0_5 V1_7 2.006927 1_545
N0_5 V0_3 2.006929 1_545
N0_5 V1_5 2.006929 1_555
N0_5 V0_5 2.006929 1_555
N0_5 V1_3 2.006929 1_545
N0_6 V0_2 2.006927 1_555
N0_6 V1_4 2.006927 1_555
N0_6 V0_0 2.006929 1_555
N0_6 V1_6 2.006929 1_555
N0_6 V0_6 2.006929 1_555
N0_6 V1_0 2.006929 1_555
N0_7 V0_3 2.006927 1_555
N0_7 V1_5 2.006927 1_555
N0_7 V0_1 2.006929 1_555
N0_7 V1_7 2.006929 1_555
N0_7 V0_7 2.006929 1_555
N0_7 V1_1 2.006929 1_555
N1_0 V2_2 2.006927 1_545
N1_0 V3_5 2.006927 1_454
N1_0 V2_0 2.006929 1_555
N1_0 V3_7 2.006929 1_444
N1_0 V2_6 2.006929 1_445
N1_0 V3_1 2.006929 1_554
N1_1 V2_3 2.006927 1_545
N1_1 V3_4 2.006927 1_455
N1_1 V2_1 2.006929 1_555
N1_1 V3_6 2.006929 1_445
N1_1 V2_7 2.006929 1_445
N1_1 V3_0 2.006929 1_555
N1_2 V2_0 2.006927 1_555
N1_2 V3_7 2.006927 1_454
N1_2 V2_2 2.006929 1_555
N1_2 V3_5 2.006929 1_454
N1_2 V2_4 2.006929 1_455
N1_2 V3_3 2.006929 1_554
N1_3 V2_1 2.006927 1_555
N1_3 V3_6 2.006927 1_455
N1_3 V2_3 2.006929 1_555
N1_3 V3_4 2.006929 1_455
N1_3 V2_5 2.006929 1_455
N1_3 V3_2 2.006929 1_555
N1_4 V2_6 2.006927 1_545
N1_4 V3_1 2.006927 1_554
N1_4 V2_4 2.006929 1_555
N1_4 V3_3 2.006929 1_544
N1_4 V2_2 2.006929 1_545
N1_4 V3_5 2.006929 1_554
N1_5 V2_7 2.006927 1_545
N1_5 V3_0 2.006927 1_555
N1_5 V2_5 2.006929 1_555
N1_5 V3_2 2.006929 1_545
N1_5 V2_3 2.006929 1_545
N1_5 V3_4 2.006929 1_555
N1_6 V2_4 2.006927 1_555
N1_6 V3_3 2.006927 1_554
N1_6 V2_6 2.006929 1_555
N1_6 V3_1 2.006929 1_554
N1_6 V2_0 2.006929 1_555
N1_6 V3_7 2.006929 1_554
N1_7 V2_5 2.006927 1_555
N1_7 V3_2 2.006927 1_555
N1_7 V2_7 2.006929 1_555
N1_7 V3_0 2.006929 1_555
N1_7 V2_1 2.006929 1_555
N1_7 V3_6 2.006929 1_555
