# generated using pymatgen
data_Na7CaLa3(PO4)6
_symmetry_space_group_name_H-M   'P 1'
_cell_length_a   9.64119514
_cell_length_b   9.62091360
_cell_length_c   24.18866889
_cell_angle_alpha   89.51289129
_cell_angle_beta   90.01550471
_cell_angle_gamma   120.07218428
_symmetry_Int_Tables_number   1
_chemical_formula_structural   Na7CaLa3(PO4)6
_chemical_formula_sum   'Na21 Ca3 La9 P18 O72'
_cell_volume   1941.57031528
_cell_formula_units_Z   3
loop_
 _symmetry_equiv_pos_site_id
 _symmetry_equiv_pos_as_xyz
  1  'x, y, z'
loop_
 _atom_site_type_symbol
 _atom_site_label
 _atom_site_symmetry_multiplicity
 _atom_site_fract_x
 _atom_site_fract_y
 _atom_site_fract_z
 _atom_site_occupancy
  Na  Na0  1  0.63893919  0.01028605  0.24626591  1
  Na  Na1  1  0.37223244  0.36013409  0.24686106  1
  Na  Na2  1  0.98843611  0.62854026  0.24466933  1
  Na  Na3  1  0.63685853  0.62730440  0.74591576  1
  Na  Na4  1  0.98822238  0.36196760  0.74757608  1
  Na  Na5  1  0.37538553  0.01121377  0.74661811  1
  Na  Na6  1  0.02881970  0.69679160  0.58506242  1
  Na  Na7  1  0.66625905  0.96993081  0.58468575  1
  Na  Na8  1  0.30469269  0.97168650  0.08508744  1
  Na  Na9  1  0.66751135  0.69602958  0.08514702  1
  Na  Na10  1  0.69755361  0.03218463  0.91900506  1
  Na  Na11  1  0.33492625  0.30153341  0.91852127  1
  Na  Na12  1  0.96821214  0.29231980  0.41206662  1
  Na  Na13  1  0.32255294  0.02980792  0.41333356  1
  Na  Na14  1  0.70893778  0.67815454  0.41236788  1
  Na  Na15  1  0.00865527  0.00824377  0.49776144  1
  Na  Na16  1  0.99988355  0.99965564  0.00223681  1
  Na  Na17  1  0.67550446  0.34209639  0.83310020  1
  Na  Na18  1  0.66671522  0.33331895  0.32629237  1
  Na  Na19  1  0.32377923  0.65771325  0.16366549  1
  Na  Na20  1  0.33373248  0.65748683  0.66425988  1
  Ca  Ca0  1  0.99966871  0.99917978  0.34554422  1
  Ca  Ca1  1  0.66142232  0.33241735  0.67940824  1
  Ca  Ca2  1  0.67074326  0.33260756  0.18033055  1
  La  La0  1  -0.00010238  0.98929605  0.84808041  1
  La  La1  1  0.01062936  0.01084587  0.65069071  1
  La  La2  1  0.00012928  0.01180046  0.15229427  1
  La  La3  1  0.68262213  0.34384852  0.98729583  1
  La  La4  1  0.66110826  0.33395616  0.48811979  1
  La  La5  1  0.31744300  0.65605058  0.01655621  1
  La  La6  1  0.33330321  0.65653745  0.51587890  1
  La  La7  1  0.33374756  0.66778198  0.31898257  1
  La  La8  1  0.32835233  0.66783353  0.82068303  1
  P  P0  1  0.30609821  0.00521657  0.25112866  1
  P  P1  1  0.69793610  0.69302078  0.25163904  1
  P  P2  1  0.99500081  0.30365532  0.25440518  1
  P  P3  1  0.31071325  0.30735930  0.75223856  1
  P  P4  1  0.99562396  0.68898218  0.74644549  1
  P  P5  1  0.69545811  0.00345290  0.74930842  1
  P  P6  1  0.96316813  0.33464385  0.58503823  1
  P  P7  1  0.36354916  0.02340102  0.58468836  1
  P  P8  1  0.67087752  0.64189484  0.58558889  1
  P  P9  1  0.97036046  0.64253199  0.08890078  1
  P  P10  1  0.66036677  0.02487699  0.08441835  1
  P  P11  1  0.37265167  0.33414859  0.08459904  1
  P  P12  1  0.63187017  0.66570324  0.91687775  1
  P  P13  1  0.02549629  0.35362192  0.91300187  1
  P  P14  1  0.33948386  0.97912801  0.91704414  1
  P  P15  1  0.64315207  0.97295050  0.41674724  1
  P  P16  1  0.32866163  0.35516859  0.41393697  1
  P  P17  1  0.02816531  0.67034565  0.41709521  1
  O  O0  1  0.22261143  0.02074262  0.30327251  1
  O  O1  1  0.79691244  0.77658089  0.30368886  1
  O  O2  1  0.97844687  0.20770067  0.30779408  1
  O  O3  1  0.23096696  0.20827973  0.80581970  1
  O  O4  1  0.97671718  0.77793365  0.79668661  1
  O  O5  1  0.79776018  0.02047620  0.80154886  1
  O  O6  1  0.77823729  0.98004911  0.69763895  1
  O  O7  1  0.19759727  0.21997098  0.70292926  1
  O  O8  1  0.02075264  0.79228306  0.69356829  1
  O  O9  1  0.77928256  0.79813833  0.19899404  1
  O  O10  1  0.02106850  0.21924547  0.20411925  1
  O  O11  1  0.20230220  0.98279023  0.19867240  1
  O  O12  1  0.87805619  0.34908526  0.63643730  1
  O  O13  1  0.46251057  0.11003838  0.63595580  1
  O  O14  1  0.65646453  0.54289126  0.63743643  1
  O  O15  1  0.89155909  0.54817399  0.14174061  1
  O  O16  1  0.64828788  0.11107805  0.13574489  1
  O  O17  1  0.47209211  0.34945218  0.13610692  1
  O  O18  1  0.45312782  0.31883524  0.03059054  1
  O  O19  1  0.86926256  0.55646590  0.03699490  1
  O  O20  1  0.67649338  0.12048813  0.03015554  1
  O  O21  1  0.44241513  0.11812171  0.53045621  1
  O  O22  1  0.68456973  0.56063686  0.53190170  1
  O  O23  1  0.86784750  0.31897238  0.53111300  1
  O  O24  1  0.54428641  0.68194625  0.96835698  1
  O  O25  1  0.13466558  0.44670219  0.96229104  1
  O  O26  1  0.32323787  0.87569863  0.96879398  1
  O  O27  1  0.55692694  0.86835195  0.46888774  1
  O  O28  1  0.30899656  0.44498815  0.46377163  1
  O  O29  1  0.13127678  0.68770394  0.46915027  1
  O  O30  1  0.11015533  0.64668040  0.36547082  1
  O  O31  1  0.53786821  0.89110685  0.36506900  1
  O  O32  1  0.35420256  0.45708965  0.36079524  1
  O  O33  1  0.10044102  0.44597159  0.85841299  1
  O  O34  1  0.35203139  0.89572224  0.86390032  1
  O  O35  1  0.53438538  0.64997555  0.86365435  1
  O  O36  1  0.01382530  0.82368400  0.41289998  1
  O  O37  1  0.81044068  0.98702696  0.41296233  1
  O  O38  1  0.17690438  0.18639778  0.41208831  1
  O  O39  1  0.01409290  0.18553149  0.91355360  1
  O  O40  1  0.19391724  0.00739013  0.91529250  1
  O  O41  1  0.79759897  0.82309646  0.91431401  1
  O  O42  1  0.97421006  0.17802119  0.58660326  1
  O  O43  1  0.18797068  0.99226743  0.58582705  1
  O  O44  1  0.82783801  0.81152381  0.58619215  1
  O  O45  1  0.98401839  0.81263567  0.08765927  1
  O  O46  1  0.80433152  0.99247956  0.08569700  1
  O  O47  1  0.20483054  0.17738872  0.08639346  1
  O  O48  1  0.67946580  0.15556704  0.74544808  1
  O  O49  1  0.47696237  0.32100513  0.74636200  1
  O  O50  1  0.84435753  0.52050016  0.74473070  1
  O  O51  1  0.68038941  0.52349986  0.24770276  1
  O  O52  1  0.84166169  0.31728895  0.24811400  1
  O  O53  1  0.47574064  0.15728823  0.24684813  1
  O  O54  1  0.64173988  0.50966737  0.91983377  1
  O  O55  1  0.85277678  0.32590055  0.91758160  1
  O  O56  1  0.49662840  0.14620853  0.91895869  1
  O  O57  1  0.66082472  0.14334083  0.42020766  1
  O  O58  1  0.48173154  0.33930263  0.41946481  1
  O  O59  1  0.85738729  0.51802327  0.42067417  1
  O  O60  1  0.36090532  0.49066949  0.08144302  1
  O  O61  1  0.14535980  0.67211365  0.08436750  1
  O  O62  1  0.50218169  0.85566265  0.08223931  1
  O  O63  1  0.35283076  0.85470547  0.58260474  1
  O  O64  1  0.52570833  0.67200632  0.58299803  1
  O  O65  1  0.13071265  0.49123665  0.58202055  1
  O  O66  1  0.32517612  0.85181542  0.25351013  1
  O  O67  1  0.52582632  0.67442898  0.25373242  1
  O  O68  1  0.14682956  0.47706531  0.25458661  1
  O  O69  1  0.33012594  0.47902531  0.75367763  1
  O  O70  1  0.14959394  0.67375285  0.75171266  1
  O  O71  1  0.52441143  0.85012412  0.75297774  1
loop_
_geom_bond_atom_site_label_1
_geom_bond_atom_site_label_2
_geom_bond_distance
_geom_bond_site_symmetry_2
Na0 O53 2.589712 1_555
Na0 O52 2.600537 1_555
Na0 O66 2.622925 1_545
Na0 O16 2.822013 1_555
Na0 O67 2.849837 1_545
Na1 O51 2.572608 1_555
Na1 O53 2.599287 1_555
Na1 O67 2.623886 1_555
Na1 O17 2.867008 1_555
Na1 O68 2.911529 1_555
Na1 O32 2.949895 1_555
Na2 O52 2.593385 1_555
Na2 O68 2.595687 1_655
Na2 O51 2.614983 1_555
Na2 O15 2.641322 1_555
Na2 O66 2.866807 1_655
Na3 O49 2.550959 1_555
Na3 O69 2.565849 1_555
Na3 O50 2.668243 1_555
Na3 O14 2.787626 1_555
Na3 O71 2.852288 1_555
Na4 O50 2.524524 1_555
Na4 O70 2.599317 1_655
Na4 O48 2.623874 1_555
Na4 O33 2.858398 1_655
Na4 O12 2.870999 1_555
Na4 O69 2.904857 1_655
Na5 O48 2.538379 1_555
Na5 O71 2.591805 1_545
Na5 O49 2.629985 1_555
Na5 O13 2.816424 1_555
Na5 O70 2.864481 1_545
Na5 O34 3.004886 1_545
Na6 O43 2.462802 1_555
Na6 O65 2.613615 1_555
Na6 O44 2.667954 1_455
Na6 O63 2.704147 1_555
Na6 O8 2.802034 1_555
Na6 O29 2.989432 1_555
Na7 O64 2.482545 1_555
Na7 O42 2.621030 1_565
Na7 O63 2.646985 1_555
Na7 O44 2.670036 1_555
Na7 O6 2.921895 1_555
Na7 O27 2.987364 1_555
Na8 O61 2.496133 1_555
Na8 O47 2.599080 1_565
Na8 O62 2.647169 1_555
Na8 O45 2.676034 1_455
Na8 O11 2.940517 1_555
Na8 O26 3.001267 1_554
Na9 O46 2.470827 1_555
Na9 O60 2.607595 1_555
Na9 O45 2.672861 1_555
Na9 O62 2.712182 1_555
Na9 O9 2.948428 1_555
Na10 O55 2.446682 1_555
Na10 O41 2.634075 1_545
Na10 O39 2.644281 1_655
Na10 O56 2.661904 1_555
Na10 O20 2.864169 1_556
Na10 O5 3.022243 1_555
Na11 O40 2.451703 1_555
Na11 O54 2.612590 1_555
Na11 O56 2.645422 1_555
Na11 O39 2.714842 1_555
Na11 O3 2.894834 1_555
Na11 O18 2.913892 1_556
Na12 O37 2.542195 1_545
Na12 O57 2.571866 1_555
Na12 O38 2.672392 1_655
Na12 O2 2.673880 1_555
Na12 O59 2.869383 1_555
Na13 O38 2.522252 1_555
Na13 O58 2.582865 1_555
Na13 O36 2.622427 1_545
Na13 O0 2.818130 1_555
Na13 O57 2.879201 1_555
Na13 O21 3.023016 1_555
Na14 O36 2.544942 1_655
Na14 O59 2.581981 1_555
Na14 O37 2.621984 1_555
Na14 O1 2.771401 1_555
Na14 O58 2.879195 1_555
Na15 O38 2.649270 1_555
Na15 O37 2.741363 1_445
Na15 O36 2.742190 1_545
Na15 O43 2.794438 1_545
Na15 O44 2.796981 1_445
Na15 O42 2.828441 1_455
Na16 O45 2.681685 1_555
Na16 O46 2.739359 1_555
Na16 O39 2.740029 1_664
Na16 O47 2.764590 1_665
Na16 O40 2.790693 1_664
Na16 O41 2.819770 1_554
Na17 O50 2.702689 1_555
Na17 O55 2.716765 1_555
Na17 O56 2.741751 1_555
Na17 O54 2.773163 1_555
Na17 O49 2.779031 1_555
Na17 O48 2.801894 1_555
Na18 O51 2.584221 1_555
Na18 O52 2.590771 1_555
Na18 O53 2.622863 1_555
Na18 O57 2.886164 1_555
Na18 O58 2.893195 1_555
Na18 O59 2.922671 1_555
Na19 O61 2.624861 1_555
Na19 O62 2.668314 1_555
Na19 O60 2.701426 1_555
Na19 O68 2.780895 1_555
Na19 O66 2.873011 1_555
Na19 O67 2.873407 1_555
Na20 O64 2.654636 1_555
Na20 O63 2.668632 1_555
Na20 O65 2.694650 1_555
Na20 O69 2.739408 1_555
Na20 O70 2.817287 1_555
Na20 O71 2.840880 1_555
Ca0 O0 2.293317 1_665
Ca0 O1 2.296300 1_555
Ca0 O2 2.297925 1_565
Ca0 O36 2.389126 1_655
Ca0 O38 2.391304 1_665
Ca0 O37 2.405411 1_555
Ca1 O12 2.265184 1_555
Ca1 O14 2.279353 1_555
Ca1 O13 2.298931 1_555
Ca1 O49 2.366540 1_555
Ca1 O48 2.393165 1_555
Ca1 O50 2.393812 1_555
Ca2 O17 2.268408 1_555
Ca2 O15 2.290883 1_555
Ca2 O16 2.308463 1_555
Ca2 O52 2.379755 1_555
Ca2 O53 2.397060 1_555
Ca2 O51 2.432482 1_555
La0 O4 2.306049 1_455
La0 O3 2.389040 1_565
La0 O5 2.394533 1_465
La0 O41 2.400047 1_455
La0 O40 2.418539 1_565
La0 O39 2.425499 1_565
La1 O7 2.302463 1_555
La1 O42 2.374142 1_455
La1 O8 2.382312 1_545
La1 O6 2.393276 1_445
La1 O43 2.393628 1_545
La1 O44 2.424810 1_445
La2 O10 2.287812 1_555
La2 O9 2.368668 1_445
La2 O11 2.382107 1_545
La2 O47 2.404479 1_555
La2 O46 2.417609 1_445
La2 O45 2.427468 1_445
La3 O19 2.284568 1_556
La3 O18 2.348099 1_556
La3 O20 2.351825 1_556
La3 O55 2.419704 1_555
La3 O54 2.439021 1_555
La3 O56 2.489621 1_555
La4 O23 2.315052 1_555
La4 O21 2.320228 1_555
La4 O22 2.339589 1_555
La4 O58 2.416085 1_555
La4 O59 2.443911 1_555
La4 O57 2.471406 1_555
La5 O25 2.317676 1_554
La5 O26 2.375653 1_554
La5 O24 2.377995 1_554
La5 O61 2.393672 1_555
La5 O60 2.407490 1_555
La5 O62 2.450932 1_555
La6 O28 2.313316 1_555
La6 O27 2.377373 1_555
La6 O29 2.395765 1_555
La6 O65 2.397754 1_555
La6 O64 2.413475 1_555
La6 O63 2.442921 1_555
La7 O30 2.347669 1_555
La7 O31 2.352446 1_555
La7 O32 2.352958 1_555
La7 O66 2.397647 1_555
La7 O68 2.402886 1_555
La7 O67 2.409515 1_555
La8 O35 2.322410 1_555
La8 O33 2.341972 1_555
La8 O34 2.342899 1_555
La8 O70 2.419075 1_555
La8 O71 2.441598 1_555
La8 O69 2.451142 1_555
O0 P0 1.544441 1_555
O1 P1 1.545882 1_555
O2 P2 1.541956 1_555
O3 P3 1.557109 1_555
O4 P4 1.554549 1_555
O5 P5 1.561200 1_555
O6 P5 1.560483 1_565
O7 P3 1.554431 1_555
O8 P4 1.555505 1_455
O9 P1 1.563075 1_555
O10 P2 1.556818 1_455
O11 P0 1.563823 1_565
O12 P6 1.534972 1_555
O13 P7 1.537154 1_555
O14 P8 1.531840 1_555
O15 P9 1.524638 1_555
O16 P10 1.535286 1_555
O17 P11 1.534315 1_555
O18 P11 1.564848 1_555
O19 P9 1.555706 1_555
O20 P10 1.558638 1_555
O21 P7 1.554101 1_555
O22 P8 1.560705 1_555
O23 P6 1.559660 1_555
O24 P12 1.556963 1_555
O25 P13 1.550502 1_555
O26 P14 1.550599 1_555
O27 P15 1.560456 1_555
O28 P16 1.554927 1_555
O29 P17 1.561447 1_555
O30 P17 1.556199 1_555
O31 P15 1.558195 1_555
O32 P16 1.552816 1_555
O33 P13 1.546682 1_555
O34 P14 1.557532 1_555
O35 P12 1.556852 1_555
O36 P17 1.551658 1_555
O37 P15 1.552099 1_555
O38 P16 1.549040 1_555
O39 P13 1.564927 1_555
O40 P14 1.558066 1_545
O41 P12 1.556772 1_555
O42 P6 1.563063 1_555
O43 P7 1.564525 1_565
O44 P8 1.574475 1_555
O45 P9 1.574720 1_555
O46 P10 1.567806 1_565
O47 P11 1.564534 1_555
O48 P5 1.548568 1_555
O49 P3 1.547726 1_555
O50 P4 1.545341 1_555
O51 P1 1.556853 1_555
O52 P2 1.555578 1_555
O53 P0 1.557465 1_555
O54 P12 1.552135 1_555
O55 P13 1.552699 1_655
O56 P14 1.562693 1_545
O57 P15 1.563898 1_545
O58 P16 1.563459 1_555
O59 P17 1.563918 1_655
O60 P11 1.566927 1_555
O61 P9 1.567806 1_455
O62 P10 1.578675 1_565
O63 P7 1.575014 1_565
O64 P8 1.566123 1_555
O65 P6 1.563216 1_455
O66 P0 1.576677 1_565
O67 P1 1.578106 1_555
O68 P2 1.574427 1_455
O69 P3 1.566894 1_555
O70 P4 1.568076 1_455
O71 P5 1.569509 1_565
