# generated using pymatgen
data_Nd2Si3Pd
_symmetry_space_group_name_H-M   'P 1'
_cell_length_a   8.23766612
_cell_length_b   8.23766716
_cell_length_c   8.55373660
_cell_angle_alpha   89.99999913
_cell_angle_beta   90.00000039
_cell_angle_gamma   120.00008820
_symmetry_Int_Tables_number   1
_chemical_formula_structural   Nd2Si3Pd
_chemical_formula_sum   'Nd8 Si12 Pd4'
_cell_volume   502.68340093
_cell_formula_units_Z   4
loop_
 _symmetry_equiv_pos_site_id
 _symmetry_equiv_pos_as_xyz
  1  'x, y, z'
loop_
 _atom_site_type_symbol
 _atom_site_label
 _atom_site_symmetry_multiplicity
 _atom_site_fract_x
 _atom_site_fract_y
 _atom_site_fract_z
 _atom_site_occupancy
  Nd  Nd0  1  0.49972031  0.50027948  0.74999412  1
  Nd  Nd1  1  0.50026709  0.49973299  0.25000589  1
  Nd  Nd2  1  0.00055855  0.50027829  0.74999380  1
  Nd  Nd3  1  0.99946667  0.49973443  0.25000630  1
  Nd  Nd4  1  0.49972160  0.99944124  0.74999393  1
  Nd  Nd5  1  0.50026580  0.00053338  0.25000612  1
  Nd  Nd6  1  0.99999905  1.00000064  0.75001387  1
  Nd  Nd7  1  0.00000067  0.99999921  0.24998678  1
  Si  Si0  1  0.83408790  0.16591192  0.99970419  1
  Si  Si1  1  0.16591003  0.83408997  0.00026694  1
  Si  Si2  1  0.33182652  0.16591365  0.99970397  1
  Si  Si3  1  0.16591331  0.83408664  0.49973309  1
  Si  Si4  1  0.66817736  0.83408823  0.00026772  1
  Si  Si5  1  0.83408460  0.16591531  0.50029583  1
  Si  Si6  1  0.83408623  0.66817345  0.99970395  1
  Si  Si7  1  0.66817073  0.83408494  0.49973226  1
  Si  Si8  1  0.16591157  0.33182227  0.00026777  1
  Si  Si9  1  0.33183321  0.16591698  0.50029605  1
  Si  Si10  1  0.16591485  0.33182892  0.49973222  1
  Si  Si11  1  0.83408299  0.66816689  0.50029604  1
  Pd  Pd0  1  0.66666832  0.33333159  0.99926953  1
  Pd  Pd1  1  0.33333164  0.66666788  0.00066172  1
  Pd  Pd2  1  0.33333139  0.66666788  0.49933846  1
  Pd  Pd3  1  0.66666862  0.33333182  0.50072941  1
loop_
_geom_bond_atom_site_label_1
_geom_bond_atom_site_label_2
_geom_bond_distance
_geom_bond_site_symmetry_2
Nd0 Pd3 3.196886 1_555
Nd0 Pd0 3.196947 1_555
Nd0 Pd2 3.198907 1_555
Nd0 Pd1 3.198974 1_556
Nd0 Si9 3.201841 1_555
Nd0 Si11 3.201842 1_555
Nd0 Si2 3.201926 1_555
Nd0 Si6 3.201927 1_555
Nd0 Si7 3.202124 1_555
Nd0 Si10 3.202124 1_555
Nd0 Si8 3.202209 1_556
Nd0 Si4 3.202209 1_556
Nd1 Pd2 3.197138 1_555
Nd1 Pd1 3.197203 1_555
Nd1 Pd3 3.199430 1_555
Nd1 Pd0 3.199503 1_554
Nd1 Si7 3.201947 1_555
Nd1 Si10 3.201948 1_555
Nd1 Si4 3.202032 1_555
Nd1 Si8 3.202033 1_555
Nd1 Si11 3.202340 1_555
Nd1 Si9 3.202341 1_555
Nd1 Si6 3.202425 1_554
Nd1 Si2 3.202426 1_554
Nd2 Pd3 3.196850 1_455
Nd2 Pd0 3.196916 1_455
Nd2 Pd2 3.198879 1_555
Nd2 Pd1 3.198952 1_556
Nd2 Si5 3.201843 1_455
Nd2 Si11 3.201851 1_455
Nd2 Si0 3.201932 1_455
Nd2 Si6 3.201939 1_455
Nd2 Si10 3.202126 1_555
Nd2 Si3 3.202133 1_555
Nd2 Si8 3.202215 1_556
Nd2 Si1 3.202222 1_556
Nd3 Pd2 3.197102 1_655
Nd3 Pd1 3.197175 1_655
Nd3 Pd3 3.199401 1_555
Nd3 Pd0 3.199480 1_554
Nd3 Si3 3.201951 1_655
Nd3 Si10 3.201956 1_655
Nd3 Si1 3.202040 1_655
Nd3 Si8 3.202046 1_655
Nd3 Si11 3.202342 1_555
Nd3 Si5 3.202354 1_555
Nd3 Si6 3.202431 1_554
Nd3 Si0 3.202444 1_554
Nd4 Pd3 3.196854 1_565
Nd4 Pd0 3.196916 1_565
Nd4 Pd2 3.198882 1_555
Nd4 Pd1 3.198953 1_556
Nd4 Si5 3.201844 1_565
Nd4 Si9 3.201851 1_565
Nd4 Si0 3.201931 1_565
Nd4 Si2 3.201939 1_565
Nd4 Si7 3.202125 1_555
Nd4 Si3 3.202133 1_555
Nd4 Si4 3.202212 1_556
Nd4 Si1 3.202220 1_556
Nd5 Pd2 3.197108 1_545
Nd5 Pd1 3.197177 1_545
Nd5 Pd3 3.199404 1_555
Nd5 Pd0 3.199479 1_554
Nd5 Si3 3.201953 1_545
Nd5 Si7 3.201956 1_545
Nd5 Si1 3.202040 1_545
Nd5 Si4 3.202043 1_545
Nd5 Si9 3.202343 1_555
Nd5 Si5 3.202353 1_555
Nd5 Si2 3.202431 1_554
Nd5 Si0 3.202441 1_554
Nd6 Si0 3.188317 1_565
Nd6 Si6 3.188338 1_555
Nd6 Si2 3.188340 1_665
Nd6 Si5 3.188511 1_565
Nd6 Si11 3.188532 1_555
Nd6 Si9 3.188534 1_665
Nd6 Si1 3.191539 1_656
Nd6 Si4 3.191542 1_556
Nd6 Si8 3.191542 1_666
Nd6 Si3 3.191733 1_655
Nd6 Si7 3.191736 1_555
Nd6 Si10 3.191736 1_665
Nd7 Si1 3.188466 1_555
Nd7 Si8 3.188482 1_565
Nd7 Si4 3.188484 1_455
Nd7 Si3 3.188652 1_555
Nd7 Si10 3.188669 1_565
Nd7 Si7 3.188670 1_455
Nd7 Si0 3.191729 1_464
Nd7 Si6 3.191730 1_454
Nd7 Si2 3.191730 1_564
Nd7 Si11 3.191916 1_455
Nd7 Si5 3.191916 1_465
Nd7 Si9 3.191917 1_565
Si0 Si8 2.367242 1_656
Si0 Si4 2.367243 1_546
Si1 Si2 2.367243 1_564
Si1 Si6 2.367243 1_454
Si2 Si8 2.367245 1_556
Si3 Si9 2.367290 1_565
Si4 Si6 2.367245 1_554
Si5 Si7 2.367290 1_545
Si10 Si5 2.367289 1_455
Si10 Si9 2.367293 1_555
Si11 Si3 2.367290 1_655
Si11 Si7 2.367293 1_555
Pd0 Si0 2.388757 1_555
Pd0 Si2 2.388772 1_555
Pd0 Si6 2.388772 1_555
Pd1 Si1 2.388788 1_555
Pd1 Si8 2.388799 1_555
Pd1 Si4 2.388799 1_555
Pd2 Si3 2.388739 1_555
Pd2 Si10 2.388751 1_555
Pd2 Si7 2.388754 1_555
Pd3 Si5 2.388708 1_555
Pd3 Si11 2.388724 1_555
Pd3 Si9 2.388726 1_555
