# generated using pymatgen
data_Na3Zr2In2P5SO24
_symmetry_space_group_name_H-M   'P 1'
_cell_length_a   8.94172935
_cell_length_b   8.92485197
_cell_length_c   23.29776784
_cell_angle_alpha   90.09971981
_cell_angle_beta   89.90840755
_cell_angle_gamma   119.87953963
_symmetry_Int_Tables_number   1
_chemical_formula_structural   Na3Zr2In2P5SO24
_chemical_formula_sum   'Na9 Zr6 In6 P15 S3 O72'
_cell_volume   1612.10215760
_cell_formula_units_Z   3
loop_
 _symmetry_equiv_pos_site_id
 _symmetry_equiv_pos_as_xyz
  1  'x, y, z'
loop_
 _atom_site_type_symbol
 _atom_site_label
 _atom_site_symmetry_multiplicity
 _atom_site_fract_x
 _atom_site_fract_y
 _atom_site_fract_z
 _atom_site_occupancy
  Na  Na0  1  0.00395106  0.36424144  0.75123349  1
  Na  Na1  1  0.66773981  0.96470557  0.58392874  1
  Na  Na2  1  0.03715190  0.33325136  0.08403568  1
  Na  Na3  1  0.00905527  0.99256383  0.50360939  1
  Na  Na4  1  0.00802766  0.99325043  0.00276619  1
  Na  Na5  1  0.65549397  0.32468629  0.83410130  1
  Na  Na6  1  0.68093841  0.33784428  0.33321078  1
  Na  Na7  1  0.34676143  0.67145973  0.16756852  1
  Na  Na8  1  0.33359616  0.66825670  0.66687664  1
  Zr  Zr0  1  0.98567473  0.99300220  0.35161897  1
  Zr  Zr1  1  0.00561193  0.00312751  0.85109909  1
  Zr  Zr2  1  0.66186236  0.33711874  0.68599450  1
  Zr  Zr3  1  0.66898359  0.33715791  0.18636350  1
  Zr  Zr4  1  0.66494880  0.32912248  0.98180834  1
  Zr  Zr5  1  0.67373692  0.33659758  0.48157662  1
  In  In0  1  0.00686553  0.99788598  0.64812808  1
  In  In1  1  0.99401254  0.99433998  0.14812348  1
  In  In2  1  0.33295979  0.67143674  0.01852841  1
  In  In3  1  0.32604101  0.66600288  0.51831252  1
  In  In4  1  0.33065178  0.66523032  0.31630182  1
  In  In5  1  0.33538178  0.67612949  0.81683116  1
  P  P0  1  0.70011517  0.70489840  0.24913773  1
  P  P1  1  0.00376688  0.29684195  0.24779477  1
  P  P2  1  0.29319744  0.29658713  0.74990366  1
  P  P3  1  0.00134365  0.70602648  0.74937573  1
  P  P4  1  0.70527522  0.99664357  0.74736214  1
  P  P5  1  0.96301155  0.33442200  0.58533864  1
  P  P6  1  0.37363129  0.04255908  0.58244749  1
  P  P7  1  0.66484662  0.62827708  0.58252597  1
  P  P8  1  0.95896825  0.62796597  0.08299307  1
  P  P9  1  0.66425469  0.03771070  0.08417285  1
  P  P10  1  0.37307054  0.33355005  0.08380032  1
  P  P11  1  0.03858509  0.37188799  0.91691082  1
  P  P12  1  0.33298983  0.96187389  0.91727218  1
  P  P13  1  0.62350177  0.95896504  0.41804467  1
  P  P14  1  0.04059200  0.66816835  0.41598335  1
  S  S0  1  0.29244155  -0.00035858  0.24984022  1
  S  S1  1  0.62889221  0.66712883  0.91665064  1
  S  S2  1  0.33285120  0.36884610  0.41662009  1
  O  O0  1  0.20669837  0.02049067  0.30128198  1
  O  O1  1  0.81524372  0.79355667  0.30285932  1
  O  O2  1  0.98359928  0.17864555  0.29976269  1
  O  O3  1  0.20574568  0.18208787  0.80337890  1
  O  O4  1  0.97923187  0.79471969  0.80307239  1
  O  O5  1  0.82736667  0.02537288  0.79892996  1
  O  O6  1  0.78164874  0.97479495  0.69087451  1
  O  O7  1  0.17953041  0.21999541  0.69653345  1
  O  O8  1  0.02840616  0.80997523  0.69472490  1
  O  O9  1  0.78165348  0.80997129  0.19477991  1
  O  O10  1  0.02892253  0.22113602  0.19142138  1
  O  O11  1  0.19238975  0.97739098  0.19716757  1
  O  O12  1  0.87434553  0.35266467  0.64044472  1
  O  O13  1  0.48603809  0.13544295  0.63624536  1
  O  O14  1  0.64846726  0.51999622  0.63667919  1
  O  O15  1  0.86623594  0.51414220  0.13665345  1
  O  O16  1  0.64759429  0.13087481  0.13795507  1
  O  O17  1  0.48231888  0.35116707  0.13757458  1
  O  O18  1  0.46399202  0.31609037  0.02990692  1
  O  O19  1  0.85021770  0.53667953  0.02925440  1
  O  O20  1  0.68588443  0.15121794  0.03055151  1
  O  O21  1  0.46739518  0.15063540  0.52885502  1
  O  O22  1  0.68199963  0.53599309  0.52901993  1
  O  O23  1  0.84687511  0.31369407  0.53258499  1
  O  O24  1  0.55327352  0.69606057  0.96877129  1
  O  O25  1  0.14698247  0.44864045  0.97162118  1
  O  O26  1  0.30196906  0.85294769  0.97115739  1
  O  O27  1  0.55274718  0.85459678  0.47379851  1
  O  O28  1  0.30194220  0.44398672  0.46866919  1
  O  O29  1  0.14797986  0.70053070  0.47045063  1
  O  O30  1  0.11473220  0.63068269  0.36229866  1
  O  O31  1  0.51247150  0.87566163  0.36516366  1
  O  O32  1  0.36380228  0.47473754  0.36484068  1
  O  O33  1  0.11816616  0.47783185  0.86204283  1
  O  O34  1  0.37161761  0.89001876  0.86311758  1
  O  O35  1  0.52355987  0.63701377  0.86474216  1
  O  O36  1  0.02069080  0.83073840  0.40774606  1
  O  O37  1  0.80929297  0.98465042  0.40979200  1
  O  O38  1  0.17918130  0.19333941  0.40944978  1
  O  O39  1  0.01218407  0.18636981  0.90970679  1
  O  O40  1  0.17018764  0.98105119  0.90966935  1
  O  O41  1  0.80381571  0.82139632  0.91014968  1
  O  O42  1  0.96623226  0.16309428  0.58716336  1
  O  O43  1  0.19499347  0.02548610  0.58534562  1
  O  O44  1  0.82637413  0.80992471  0.58537890  1
  O  O45  1  0.97830969  0.80783222  0.08666434  1
  O  O46  1  0.83592289  0.03504606  0.08645813  1
  O  O47  1  0.19119405  0.17149519  0.08702319  1
  O  O48  1  0.69824252  0.16904418  0.74472409  1
  O  O49  1  0.47270709  0.31195801  0.74458162  1
  O  O50  1  0.83577214  0.52282848  0.74563067  1
  O  O51  1  0.68560652  0.52352948  0.24528569  1
  O  O52  1  0.83404400  0.30646292  0.24516090  1
  O  O53  1  0.46556647  0.15966959  0.24645637  1
  O  O54  1  0.65043865  0.51270008  0.92243004  1
  O  O55  1  0.85621017  0.35268018  0.92352756  1
  O  O56  1  0.49109482  0.14743222  0.92417073  1
  O  O57  1  0.64673531  0.14318791  0.42372279  1
  O  O58  1  0.48714475  0.34766136  0.42299325  1
  O  O59  1  0.85539219  0.50925815  0.42320834  1
  O  O60  1  0.35287468  0.49589703  0.08007676  1
  O  O61  1  0.13293209  0.63013995  0.08023488  1
  O  O62  1  0.50396731  0.85859456  0.08023624  1
  O  O63  1  0.36997986  0.86737491  0.58037301  1
  O  O64  1  0.50214019  0.64675528  0.57941078  1
  O  O65  1  0.14127395  0.49550376  0.58042991  1
  O  O66  1  0.31544648  0.84710669  0.25454005  1
  O  O67  1  0.52032401  0.68454844  0.25606820  1
  O  O68  1  0.16102673  0.47808806  0.25515641  1
  O  O69  1  0.31002315  0.47568598  0.75799789  1
  O  O70  1  0.15385753  0.67144309  0.75499350  1
  O  O71  1  0.52562842  0.83984142  0.75533173  1
loop_
_geom_bond_atom_site_label_1
_geom_bond_atom_site_label_2
_geom_bond_distance
_geom_bond_site_symmetry_2
Na0 O70 2.378937 1_555
Na0 O48 2.405390 1_455
Na0 O69 2.406847 1_555
Na0 O50 2.530554 1_455
Na0 O33 2.775466 1_555
Na0 O7 2.783510 1_555
Na0 O12 2.811635 1_455
Na0 O5 2.850051 1_455
Na1 O63 2.355072 1_555
Na1 O42 2.357130 1_565
Na1 O44 2.423650 1_555
Na1 O64 2.463517 1_555
Na1 O6 2.677601 1_555
Na1 O27 2.756652 1_555
Na2 O61 2.345574 1_555
Na2 O46 2.356454 1_455
Na2 O47 2.442971 1_555
Na2 O60 2.449924 1_555
Na2 O10 2.683401 1_555
Na2 O25 2.806724 1_554
Na3 O43 2.449141 1_565
Na3 O44 2.510459 1_455
Na3 O42 2.611565 1_465
Na3 O36 2.687483 1_555
Na3 O38 2.761237 1_565
Na3 O37 2.803438 1_455
Na4 O45 2.490212 1_455
Na4 O47 2.543609 1_565
Na4 O46 2.620894 1_465
Na4 O40 2.639144 1_554
Na4 O41 2.748324 1_454
Na4 O39 2.760711 1_564
Na5 O56 2.598377 1_555
Na5 O49 2.618991 1_555
Na5 O48 2.632112 1_555
Na5 O54 2.667539 1_555
Na5 O50 2.671323 1_555
Na5 O55 2.680972 1_555
Na6 O52 2.555746 1_555
Na6 O59 2.606080 1_555
Na6 O51 2.624290 1_555
Na6 O57 2.653246 1_555
Na6 O53 2.696777 1_555
Na6 O58 2.743143 1_555
Na7 O67 2.549933 1_555
Na7 O62 2.562944 1_555
Na7 O60 2.585896 1_555
Na7 O68 2.654499 1_555
Na7 O66 2.658192 1_555
Na7 O61 2.690534 1_555
Na8 O64 2.595676 1_555
Na8 O65 2.597931 1_555
Na8 O63 2.599972 1_555
Na8 O70 2.614022 1_555
Na8 O71 2.630749 1_555
Na8 O69 2.674950 1_555
In0 O8 2.087358 1_555
In0 O7 2.129179 1_565
In0 O43 2.147192 1_565
In0 O6 2.161152 1_455
In0 O44 2.203971 1_455
In0 O42 2.205928 1_465
In1 O9 2.093148 1_555
In1 O10 2.139260 1_665
In1 O45 2.144798 1_555
In1 O46 2.171228 1_565
In1 O11 2.179306 1_655
In1 O47 2.203893 1_665
In2 O26 2.091303 1_554
In2 O25 2.148761 1_554
In2 O62 2.156137 1_555
In2 O61 2.176804 1_555
In2 O60 2.197484 1_555
In2 O24 2.198905 1_554
In3 O29 2.090238 1_555
In3 O27 2.148876 1_555
In3 O65 2.152812 1_555
In3 O63 2.182688 1_555
In3 O64 2.193790 1_555
In3 O28 2.208551 1_555
In4 O30 2.091037 1_555
In4 O31 2.102967 1_555
In4 O67 2.139462 1_555
In4 O68 2.143372 1_555
In4 O32 2.183339 1_555
In4 O66 2.225408 1_555
In5 O34 2.071128 1_555
In5 O33 2.142229 1_555
In5 O71 2.145836 1_555
In5 O70 2.156738 1_555
In5 O69 2.172269 1_555
In5 O35 2.189000 1_555
O0 S0 1.482303 1_555
O0 Zr0 2.202703 1_445
O1 P0 1.562505 1_555
O1 Zr0 2.019181 1_555
O2 P1 1.557368 1_655
O2 Zr0 2.059788 1_545
O3 P2 1.553392 1_555
O3 Zr1 2.035073 1_555
O4 P3 1.543507 1_655
O4 Zr1 2.079350 1_665
O5 P4 1.557303 1_545
O5 Zr1 2.092666 1_655
O6 P4 1.537938 1_555
O7 P2 1.534667 1_555
O8 P3 1.523098 1_555
O9 P0 1.527985 1_555
O10 P1 1.542551 1_555
O11 S0 1.473557 1_565
O12 P5 1.558198 1_555
O12 Zr2 2.118184 1_555
O13 P6 1.561608 1_555
O13 Zr2 2.057651 1_555
O14 P7 1.552337 1_555
O14 Zr2 2.049409 1_555
O15 P8 1.563419 1_555
O15 Zr3 2.042348 1_555
O16 P9 1.550084 1_555
O16 Zr3 2.083414 1_555
O17 P10 1.548789 1_555
O17 Zr3 2.075586 1_555
O18 P10 1.544035 1_555
O18 Zr4 2.069754 1_554
O19 P8 1.545259 1_555
O19 Zr4 2.082998 1_554
O20 P9 1.559715 1_555
O20 Zr4 2.036853 1_554
O21 P6 1.545113 1_555
O21 Zr5 2.078666 1_555
O22 P7 1.541913 1_555
O22 Zr5 2.063129 1_555
O23 P5 1.560464 1_555
O23 Zr5 2.042756 1_555
O24 S1 1.472624 1_555
O25 P11 1.540376 1_555
O26 P12 1.527259 1_555
O27 P13 1.539341 1_555
O28 S2 1.475585 1_555
O29 P14 1.530370 1_555
O30 P14 1.527294 1_555
O31 P13 1.523662 1_555
O32 S2 1.472179 1_555
O33 P11 1.537975 1_555
O34 P12 1.529342 1_555
O35 S1 1.473820 1_555
O36 P14 1.559479 1_555
O36 Zr0 2.089223 1_455
O37 P13 1.571339 1_555
O37 Zr0 2.050905 1_555
O38 S2 1.491597 1_555
O38 Zr0 2.218711 1_445
O39 P11 1.560459 1_555
O39 Zr1 2.106927 1_555
O40 P12 1.558527 1_555
O40 Zr1 2.088698 1_565
O41 S1 1.489745 1_555
O41 Zr1 2.205240 1_665
O42 P5 1.544283 1_555
O43 P6 1.528538 1_555
O44 P7 1.544565 1_555
O45 P8 1.528759 1_555
O46 P9 1.547997 1_555
O47 P10 1.548779 1_555
O48 P4 1.572235 1_545
O48 Zr2 2.173213 1_555
O49 P2 1.546174 1_555
O49 Zr2 2.095119 1_555
O50 P3 1.568712 1_655
O50 Zr2 2.127572 1_555
O51 P0 1.560559 1_555
O51 Zr3 2.102288 1_555
O52 P1 1.563473 1_655
O52 Zr3 2.130848 1_555
O53 S0 1.496521 1_555
O53 Zr3 2.215074 1_555
O54 S1 1.490010 1_555
O54 Zr4 2.198911 1_555
O55 P11 1.559885 1_655
O55 Zr4 2.109023 1_555
O56 P12 1.560176 1_545
O56 Zr4 2.082488 1_555
O57 P13 1.556577 1_545
O57 Zr5 2.105311 1_555
O58 S2 1.490599 1_555
O58 Zr5 2.197326 1_555
O59 P14 1.562687 1_655
O59 Zr5 2.090098 1_555
O60 P10 1.549420 1_555
O61 P8 1.547196 1_455
O62 P9 1.528127 1_565
O63 P6 1.548157 1_565
O64 P7 1.545499 1_555
O65 P5 1.528858 1_455
O66 S0 1.478913 1_565
O67 P0 1.533601 1_555
O68 P1 1.535197 1_555
O69 P2 1.540328 1_555
O70 P3 1.546698 1_555
O71 P4 1.527553 1_555
