# generated using pymatgen
data_Na2Mg4Ta4Si3(S3O16)3
_symmetry_space_group_name_H-M   'P 1'
_cell_length_a   17.54550862
_cell_length_b   8.78435605
_cell_length_c   22.78355403
_cell_angle_alpha   89.97348631
_cell_angle_beta   90.02267851
_cell_angle_gamma   120.09992026
_symmetry_Int_Tables_number   1
_chemical_formula_structural   Na2Mg4Ta4Si3(S3O16)3
_chemical_formula_sum   'Na6 Mg12 Ta12 Si9 S27 O144'
_cell_volume   3038.01409804
_cell_formula_units_Z   3
loop_
 _symmetry_equiv_pos_site_id
 _symmetry_equiv_pos_as_xyz
  1  'x, y, z'
loop_
 _atom_site_type_symbol
 _atom_site_label
 _atom_site_symmetry_multiplicity
 _atom_site_fract_x
 _atom_site_fract_y
 _atom_site_fract_z
 _atom_site_occupancy
  Na  Na0  1  0.99883396  0.99864378  0.49989623  1
  Na  Na1  1  0.49962664  0.00105133  0.99707528  1
  Na  Na2  1  0.33482505  0.33442682  0.83627828  1
  Na  Na3  1  0.83090566  0.33474622  0.83410102  1
  Na  Na4  1  0.33596080  0.33570060  0.33736664  1
  Na  Na5  1  0.83326169  0.33217780  0.33838976  1
  Mg  Mg0  1  0.99839066  0.99819623  0.35408062  1
  Mg  Mg1  1  0.50167258  0.00400951  0.85003435  1
  Mg  Mg2  1  0.00042245  0.99688523  0.64932550  1
  Mg  Mg3  1  0.50109738  0.00529992  0.14953876  1
  Mg  Mg4  1  0.33069667  0.33326661  0.97975475  1
  Mg  Mg5  1  0.83657466  0.33407544  0.98180677  1
  Mg  Mg6  1  0.33606299  0.34072109  0.48310325  1
  Mg  Mg7  1  0.83192128  0.32887521  0.48159190  1
  Mg  Mg8  1  0.16435251  0.66361653  0.31311041  1
  Mg  Mg9  1  0.66672315  0.66654115  0.31151326  1
  Mg  Mg10  1  0.16868459  0.66985465  0.81032108  1
  Mg  Mg11  1  0.66307872  0.65776645  0.80872983  1
  Ta  Ta0  1  0.49980674  0.01025059  0.35546009  1
  Ta  Ta1  1  0.99929863  0.98868500  0.85288464  1
  Ta  Ta2  1  0.50586458  0.01366347  0.64128547  1
  Ta  Ta3  1  0.99941098  0.99927189  0.13999882  1
  Ta  Ta4  1  0.33830320  0.34240034  0.68527653  1
  Ta  Ta5  1  0.82769871  0.33128837  0.69180743  1
  Ta  Ta6  1  0.33412594  0.33328412  0.18790006  1
  Ta  Ta7  1  0.83538239  0.33232277  0.18414560  1
  Ta  Ta8  1  0.16487085  0.65857106  0.02356889  1
  Ta  Ta9  1  0.66761406  0.67055363  0.02107006  1
  Ta  Ta10  1  0.16702082  0.66362224  0.52454148  1
  Ta  Ta11  1  0.66592170  0.67178385  0.52609556  1
  Si  Si0  1  0.50587617  0.29915610  0.24658698  1
  Si  Si1  1  0.63855153  0.29019429  0.75506519  1
  Si  Si2  1  0.00670950  0.71026955  0.74511370  1
  Si  Si3  1  0.47388619  0.32986916  0.57840810  1
  Si  Si4  1  0.69399429  0.05682355  0.58107527  1
  Si  Si5  1  0.33584868  0.62106585  0.58146952  1
  Si  Si6  1  0.97513655  0.61752530  0.07897234  1
  Si  Si7  1  0.83135176  0.04712381  0.08026127  1
  Si  Si8  1  0.19372539  0.33356469  0.08103870  1
  S  S0  1  0.14293055  0.99684610  0.25119790  1
  S  S1  1  0.64381882  0.99879347  0.24987850  1
  S  S2  1  0.35475673  0.71299431  0.24975287  1
  S  S3  1  0.85579511  0.71236484  0.25126194  1
  S  S4  1  0.00064754  0.28928639  0.25142301  1
  S  S5  1  0.14428043  0.28976812  0.74958816  1
  S  S6  1  0.50042848  0.71431386  0.75163280  1
  S  S7  1  0.35466544  0.99781494  0.75085375  1
  S  S8  1  0.85578206  0.99846868  0.74942760  1
  S  S9  1  0.97615240  0.32771701  0.58229966  1
  S  S10  1  0.18736113  0.04741387  0.58121795  1
  S  S11  1  0.83682470  0.62507430  0.58116668  1
  S  S12  1  0.47712479  0.62414279  0.08185954  1
  S  S13  1  0.33622853  0.04718317  0.08083487  1
  S  S14  1  0.68717475  0.32830060  0.08081951  1
  S  S15  1  0.31232233  0.66796156  0.91519046  1
  S  S16  1  0.80965808  0.66360720  0.91518983  1
  S  S17  1  0.02172205  0.37869298  0.91447356  1
  S  S18  1  0.51968952  0.37523964  0.91652534  1
  S  S19  1  0.16930409  0.95702717  0.91514905  1
  S  S20  1  0.66689263  0.95815272  0.91489429  1
  S  S21  1  0.30845305  0.95471738  0.41518902  1
  S  S22  1  0.81189896  0.95662317  0.41521327  1
  S  S23  1  0.16711524  0.37695158  0.41548509  1
  S  S24  1  0.67037973  0.38334569  0.41527022  1
  S  S25  1  0.02094725  0.66578391  0.41587380  1
  S  S26  1  0.52210145  0.66447844  0.41486356  1
  O  O0  1  0.10757478  0.03724930  0.30309334  1
  O  O1  1  0.60007394  0.02873866  0.30365320  1
  O  O2  1  0.41262908  0.79153769  0.30369915  1
  O  O3  1  0.91271173  0.78540854  0.30280521  1
  O  O4  1  0.48349978  0.15816055  0.30727024  1
  O  O5  1  0.98234495  0.17852230  0.30320076  1
  O  O6  1  0.09956810  0.17090328  0.80381376  1
  O  O7  1  0.60694166  0.16291569  0.81017897  1
  O  O8  1  0.47801200  0.77883148  0.80388462  1
  O  O9  1  0.98371336  0.80751099  0.80686075  1
  O  O10  1  0.40981261  0.03924417  0.80342034  1
  O  O11  1  0.91467212  0.03277768  0.80407161  1
  O  O12  1  0.39651643  0.97680700  0.69762164  1
  O  O13  1  0.89587896  0.97755267  0.69748682  1
  O  O14  1  0.09212836  0.21170824  0.69739963  1
  O  O15  1  0.58226493  0.18623602  0.69514288  1
  O  O16  1  0.01310791  0.83001552  0.69237683  1
  O  O17  1  0.50838387  0.81246908  0.69772865  1
  O  O18  1  0.39501478  0.81211134  0.19716814  1
  O  O19  1  0.90015352  0.81995589  0.19799459  1
  O  O20  1  0.01060033  0.20453000  0.19800629  1
  O  O21  1  0.51089263  0.19574563  0.19237374  1
  O  O22  1  0.08965242  0.97585861  0.19813227  1
  O  O23  1  0.59233411  0.97328744  0.19749254  1
  O  O24  1  0.43066720  0.36492387  0.63964542  1
  O  O25  1  0.94155148  0.36712646  0.63531493  1
  O  O26  1  0.24272069  0.12098192  0.63536970  1
  O  O27  1  0.75583037  0.13933590  0.63982175  1
  O  O28  1  0.31330573  0.49089606  0.64101291  1
  O  O29  1  0.82001896  0.51435243  0.63481948  1
  O  O30  1  0.43778888  0.51087610  0.13636779  1
  O  O31  1  0.93034726  0.49615787  0.14025296  1
  O  O32  1  0.32057105  0.12961775  0.13530362  1
  O  O33  1  0.81413479  0.13417478  0.14124146  1
  O  O34  1  0.25315987  0.36669094  0.14136189  1
  O  O35  1  0.74367178  0.36276950  0.13572657  1
  O  O36  1  0.23215127  0.29520633  0.02536391  1
  O  O37  1  0.72768298  0.30485691  0.02947164  1
  O  O38  1  0.42431842  0.54342051  0.03040678  1
  O  O39  1  0.91606138  0.54382528  0.02390247  1
  O  O40  1  0.35069402  0.15605817  0.02984060  1
  O  O41  1  0.84911941  0.16009061  0.02439199  1
  O  O42  1  0.22721410  0.14880071  0.52884733  1
  O  O43  1  0.73147434  0.16657746  0.52388349  1
  O  O44  1  0.34680515  0.53853146  0.52408368  1
  O  O45  1  0.85074721  0.54689769  0.52915474  1
  O  O46  1  0.41684146  0.29268145  0.52247042  1
  O  O47  1  0.92577344  0.30517524  0.52927049  1
  O  O48  1  0.26656806  0.69149638  0.96964729  1
  O  O49  1  0.76847775  0.69177478  0.97046574  1
  O  O50  1  0.07783593  0.46352558  0.97007206  1
  O  O51  1  0.57812796  0.46795409  0.97122240  1
  O  O52  1  0.15223865  0.84758001  0.96939946  1
  O  O53  1  0.65717115  0.83885440  0.97059196  1
  O  O54  1  0.26846530  0.84468578  0.46919928  1
  O  O55  1  0.76757917  0.84267467  0.46900242  1
  O  O56  1  0.15519753  0.46955595  0.46963562  1
  O  O57  1  0.65195060  0.45532756  0.46873976  1
  O  O58  1  0.07795464  0.69058934  0.46964426  1
  O  O59  1  0.57735995  0.69418878  0.46941958  1
  O  O60  1  0.06225837  0.64047410  0.36381402  1
  O  O61  1  0.56548586  0.64437573  0.36395742  1
  O  O62  1  0.25691478  0.87032685  0.36301174  1
  O  O63  1  0.75786432  0.87324033  0.36343383  1
  O  O64  1  0.17946485  0.48610594  0.36393849  1
  O  O65  1  0.68019217  0.48558580  0.36329836  1
  O  O66  1  0.06608406  0.48800107  0.86444022  1
  O  O67  1  0.56148032  0.48596596  0.86580809  1
  O  O68  1  0.18011906  0.87388120  0.86404440  1
  O  O69  1  0.67918407  0.87154556  0.86460669  1
  O  O70  1  0.25737635  0.64172223  0.86417525  1
  O  O71  1  0.75699643  0.64562175  0.86423258  1
  O  O72  1  0.01458056  0.82734365  0.41190125  1
  O  O73  1  0.51432282  0.82824207  0.40739857  1
  O  O74  1  0.39830333  0.96551054  0.40889562  1
  O  O75  1  0.89980055  0.97045458  0.41182883  1
  O  O76  1  0.08540335  0.20353514  0.41264665  1
  O  O77  1  0.58740625  0.19709211  0.40725615  1
  O  O78  1  0.01475428  0.20160565  0.90914055  1
  O  O79  1  0.51303110  0.20162638  0.91484723  1
  O  O80  1  0.08723428  0.97668907  0.90790304  1
  O  O81  1  0.58429863  0.96194817  0.91604675  1
  O  O82  1  0.39966589  0.82977625  0.91258571  1
  O  O83  1  0.89908475  0.83184110  0.91014928  1
  O  O84  1  0.48856857  0.16769035  0.59437810  1
  O  O85  1  0.99176633  0.17955164  0.59016858  1
  O  O86  1  0.09898666  0.02189128  0.58938607  1
  O  O87  1  0.59387017  0.01091317  0.59539047  1
  O  O88  1  0.41307408  0.81095036  0.60073304  1
  O  O89  1  0.91031478  0.80497139  0.58912533  1
  O  O90  1  0.49002264  0.80014628  0.09201247  1
  O  O91  1  0.99163042  0.81091832  0.09884700  1
  O  O92  1  0.41012010  0.01680755  0.09002760  1
  O  O93  1  0.91238148  0.01563129  0.09892171  1
  O  O94  1  0.09489738  0.17357843  0.09894710  1
  O  O95  1  0.59944697  0.17523652  0.09007725  1
  O  O96  1  0.34329578  0.16031873  0.74113327  1
  O  O97  1  0.85165270  0.16690088  0.74566224  1
  O  O98  1  0.23204490  0.29546222  0.74580081  1
  O  O99  1  0.73925808  0.30799269  0.73939971  1
  O  O100  1  0.41660406  0.52465123  0.74309778  1
  O  O101  1  0.91316497  0.51585851  0.74049685  1
  O  O102  1  0.34805490  0.53154953  0.24425963  1
  O  O103  1  0.84477833  0.52903298  0.24139609  1
  O  O104  1  0.41006620  0.30546207  0.24107786  1
  O  O105  1  0.91729146  0.30662090  0.24289111  1
  O  O106  1  0.23473337  0.16049808  0.24091093  1
  O  O107  1  0.73264243  0.16920333  0.24530303  1
  O  O108  1  0.32186427  0.51179222  0.92339002  1
  O  O109  1  0.82148747  0.51258978  0.92319303  1
  O  O110  1  0.43269381  0.35900406  0.92599859  1
  O  O111  1  0.93406379  0.35684148  0.92182436  1
  O  O112  1  0.24539075  0.13419506  0.92248211  1
  O  O113  1  0.74442252  0.13168213  0.92412439  1
  O  O114  1  0.32150408  0.13107749  0.42189412  1
  O  O115  1  0.82253284  0.13317858  0.42238685  1
  O  O116  1  0.24442486  0.35613631  0.42301676  1
  O  O117  1  0.74571545  0.35622843  0.42171876  1
  O  O118  1  0.43348393  0.51224377  0.42106267  1
  O  O119  1  0.93327869  0.50863901  0.42416303  1
  O  O120  1  0.18068695  0.50723986  0.07242273  1
  O  O121  1  0.67921974  0.49150867  0.07376963  1
  O  O122  1  0.07504850  0.64702961  0.07131909  1
  O  O123  1  0.56630461  0.63798883  0.07469236  1
  O  O124  1  0.25323452  0.87139983  0.07399149  1
  O  O125  1  0.74531253  0.84578663  0.07233787  1
  O  O126  1  0.17858929  0.86537963  0.57263587  1
  O  O127  1  0.68175349  0.85561277  0.57217323  1
  O  O128  1  0.24593457  0.64313241  0.57153029  1
  O  O129  1  0.75368682  0.63663934  0.57263245  1
  O  O130  1  0.06769768  0.49400776  0.57245343  1
  O  O131  1  0.57425521  0.50329000  0.57091642  1
  O  O132  1  0.15572905  0.84675599  0.25756332  1
  O  O133  1  0.65828858  0.85361000  0.26103928  1
  O  O134  1  0.26755826  0.68756092  0.26056348  1
  O  O135  1  0.76971163  0.69364305  0.25717435  1
  O  O136  1  0.07613773  0.46534170  0.25722850  1
  O  O137  1  0.58269190  0.48516514  0.26282081  1
  O  O138  1  0.15769260  0.46214451  0.76142038  1
  O  O139  1  0.65781296  0.48530239  0.75648947  1
  O  O140  1  0.08455096  0.68408216  0.76325812  1
  O  O141  1  0.57565351  0.68991765  0.75791159  1
  O  O142  1  0.26801070  0.84546973  0.75769028  1
  O  O143  1  0.76892836  0.85084756  0.76142067  1
loop_
_geom_bond_atom_site_label_1
_geom_bond_atom_site_label_2
_geom_bond_distance
_geom_bond_site_symmetry_2
Na0 O75 2.583151 1_555
Na0 O76 2.599058 1_665
Na0 O72 2.603889 1_655
Na0 O89 2.605471 1_555
Na0 O86 2.631402 1_665
Na0 O85 2.640418 1_565
Na1 O81 2.499558 1_545
Na1 O79 2.500230 1_555
Na1 O82 2.529522 1_545
Na1 O92 2.681672 1_556
Na1 O95 2.685250 1_556
Na1 O90 2.742273 1_546
Na2 O112 2.577663 1_555
Na2 O108 2.603246 1_555
Na2 O110 2.607597 1_555
Na2 O100 2.636731 1_555
Na2 O98 2.645207 1_555
Na2 O96 2.700307 1_555
Na3 O109 2.617300 1_555
Na3 O101 2.618874 1_555
Na3 O97 2.628324 1_555
Na3 O99 2.629632 1_555
Na3 O111 2.636924 1_555
Na3 O113 2.641097 1_555
Na4 O118 2.511507 1_555
Na4 O114 2.558125 1_555
Na4 O116 2.590677 1_555
Na4 O104 2.631177 1_555
Na4 O102 2.671252 1_555
Na4 O106 2.758788 1_555
Na5 O117 2.517273 1_555
Na5 O115 2.533929 1_555
Na5 O119 2.563779 1_555
Na5 O107 2.670026 1_555
Na5 O105 2.700588 1_555
Na5 O103 2.749718 1_555
Mg0 O3 2.073827 1_555
Mg0 O75 2.088402 1_555
Mg0 O5 2.092275 1_565
Mg0 O0 2.116426 1_665
Mg0 O72 2.119930 1_655
Mg0 O76 2.145538 1_665
Mg1 O7 1.897005 1_555
Mg1 O10 2.078481 1_555
Mg1 O8 2.090095 1_545
Mg1 O82 2.197553 1_545
Mg1 O79 2.211081 1_555
Mg1 O81 2.243930 1_545
Mg2 O16 1.867100 1_555
Mg2 O13 2.070361 1_455
Mg2 O14 2.074780 1_565
Mg2 O86 2.127078 1_565
Mg2 O89 2.133043 1_455
Mg2 O85 2.157934 1_465
Mg3 O21 1.869148 1_555
Mg3 O23 2.070061 1_545
Mg3 O18 2.086521 1_545
Mg3 O95 2.111320 1_555
Mg3 O92 2.134623 1_555
Mg3 O90 2.157322 1_545
Mg4 O36 1.898002 1_556
Mg4 O110 2.085530 1_555
Mg4 O108 2.091471 1_555
Mg4 O112 2.091941 1_555
Mg4 O40 2.096271 1_556
Mg4 O38 2.096882 1_556
Mg5 O41 1.913511 1_556
Mg5 O39 1.919091 1_556
Mg5 O37 2.098806 1_556
Mg5 O111 2.119413 1_555
Mg5 O113 2.149298 1_555
Mg5 O109 2.174081 1_555
Mg6 O46 1.894687 1_555
Mg6 O44 1.897243 1_555
Mg6 O42 2.084782 1_555
Mg6 O118 2.146307 1_555
Mg6 O116 2.166578 1_555
Mg6 O114 2.220752 1_555
Mg7 O43 1.883323 1_555
Mg7 O47 2.068130 1_555
Mg7 O45 2.078092 1_555
Mg7 O115 2.125984 1_555
Mg7 O119 2.133399 1_555
Mg7 O117 2.137496 1_555
Mg8 O60 2.054442 1_555
Mg8 O64 2.062918 1_555
Mg8 O62 2.066376 1_555
Mg8 O136 2.084888 1_555
Mg8 O134 2.091886 1_555
Mg8 O132 2.110630 1_555
Mg9 O137 1.893990 1_555
Mg9 O61 2.067675 1_555
Mg9 O133 2.070447 1_555
Mg9 O63 2.083633 1_555
Mg9 O65 2.085538 1_555
Mg9 O135 2.103475 1_555
Mg10 O140 1.878325 1_555
Mg10 O142 2.039161 1_555
Mg10 O138 2.063106 1_555
Mg10 O70 2.090953 1_555
Mg10 O68 2.095653 1_555
Mg10 O66 2.104382 1_555
Mg11 O139 1.892494 1_555
Mg11 O141 2.050864 1_555
Mg11 O143 2.080408 1_555
Mg11 O67 2.109038 1_555
Mg11 O71 2.121409 1_555
Mg11 O69 2.167208 1_555
O0 S0 1.459645 1_545
O1 S1 1.537174 1_545
O1 Ta0 2.056552 1_555
O2 S2 1.521457 1_555
O2 Ta0 2.115337 1_565
O3 S3 1.464620 1_555
O4 Si0 1.763746 1_555
O4 Ta0 1.829423 1_555
O5 S4 1.458534 1_655
O6 S5 1.552417 1_555
O6 Ta1 2.020526 1_445
O7 Si1 1.584833 1_555
O8 S6 1.455237 1_555
O9 Si2 1.794115 1_655
O9 Ta1 1.808862 1_555
O10 S7 1.466059 1_545
O11 S8 1.547714 1_545
O11 Ta1 2.041244 1_545
O12 S7 1.476821 1_555
O12 Ta2 2.193566 1_565
O13 S8 1.435143 1_555
O14 S5 1.446324 1_555
O15 Si1 1.663925 1_555
O15 Ta2 1.887550 1_555
O16 Si2 1.563091 1_555
O17 S6 1.466173 1_555
O17 Ta2 2.203513 1_565
O18 S2 1.440562 1_555
O19 S3 1.494572 1_555
O19 Ta3 2.123312 1_555
O20 S4 1.482356 1_555
O20 Ta3 2.164068 1_445
O21 Si0 1.562015 1_555
O22 S0 1.481896 1_555
O22 Ta3 2.151330 1_455
O23 S1 1.444687 1_555
O24 Si3 1.688751 1_555
O24 Ta4 1.850889 1_555
O25 S9 1.469401 1_555
O25 Ta5 2.262089 1_555
O26 S10 1.501151 1_555
O26 Ta4 2.148784 1_555
O27 Si4 1.644662 1_555
O27 Ta5 1.924608 1_555
O28 Si5 1.688100 1_555
O28 Ta4 1.866344 1_555
O29 S11 1.496238 1_555
O29 Ta5 2.122550 1_555
O30 S12 1.522946 1_555
O30 Ta6 2.067437 1_555
O31 Si6 1.691949 1_555
O31 Ta7 1.855351 1_555
O32 S13 1.529881 1_555
O32 Ta6 2.065998 1_555
O33 Si7 1.685019 1_555
O33 Ta7 1.864036 1_555
O34 Si8 1.660092 1_555
O34 Ta6 1.909215 1_555
O35 S14 1.528908 1_555
O35 Ta7 2.075502 1_555
O36 Si8 1.551139 1_555
O37 S14 1.436623 1_555
O38 S12 1.440977 1_555
O39 Si6 1.547376 1_555
O40 S13 1.443848 1_555
O41 Si7 1.546304 1_555
O42 S10 1.442525 1_555
O43 Si4 1.556744 1_555
O44 Si5 1.553352 1_555
O45 S11 1.450785 1_555
O46 Si3 1.550532 1_555
O47 S9 1.450545 1_555
O48 S15 1.547281 1_555
O48 Ta8 2.064105 1_556
O49 S16 1.532854 1_555
O49 Ta9 2.041179 1_556
O50 S17 1.547013 1_555
O50 Ta8 2.032057 1_556
O51 S18 1.558830 1_555
O51 Ta9 2.029797 1_556
O52 S19 1.500726 1_555
O52 Ta8 2.167017 1_556
O53 S20 1.599157 1_555
O53 Ta9 1.952410 1_556
O54 S21 1.503369 1_555
O54 Ta10 2.109041 1_555
O55 S22 1.525578 1_555
O55 Ta11 2.107439 1_555
O56 S23 1.548974 1_555
O56 Ta10 2.039886 1_555
O57 S24 1.481402 1_555
O57 Ta11 2.217591 1_555
O58 S25 1.526245 1_555
O58 Ta10 2.105244 1_555
O59 S26 1.516135 1_555
O59 Ta11 2.103698 1_555
O60 S25 1.464313 1_555
O61 S26 1.446207 1_555
O62 S21 1.451911 1_555
O63 S22 1.459611 1_555
O64 S23 1.461630 1_555
O65 S24 1.443065 1_555
O66 S17 1.441296 1_555
O67 S18 1.450247 1_555
O68 S19 1.437060 1_555
O69 S20 1.450370 1_555
O70 S15 1.452573 1_555
O71 S16 1.442041 1_555
O72 S25 1.481108 1_555
O73 S26 1.521080 1_555
O73 Ta0 2.104250 1_565
O74 S21 1.537872 1_555
O74 Ta0 2.026718 1_565
O75 S22 1.487099 1_555
O76 S23 1.479744 1_555
O77 S24 1.562243 1_555
O77 Ta0 1.979613 1_555
O78 S17 1.502999 1_555
O78 Ta1 2.169750 1_445
O79 S18 1.470485 1_555
O80 S19 1.542661 1_555
O80 Ta1 2.030835 1_455
O81 S20 1.466404 1_555
O82 S15 1.479056 1_555
O83 S16 1.527500 1_555
O83 Ta1 2.064560 1_555
O84 Si3 1.611178 1_555
O84 Ta2 1.864182 1_555
O85 S9 1.469209 1_555
O86 S10 1.463107 1_555
O87 Si4 1.626294 1_555
O87 Ta2 1.875351 1_555
O88 Si5 1.595024 1_555
O88 Ta2 1.941034 1_565
O89 S11 1.465965 1_555
O90 S12 1.464388 1_555
O91 Si6 1.637778 1_555
O91 Ta3 1.846637 1_555
O92 S13 1.463762 1_555
O93 Si7 1.634760 1_555
O93 Ta3 1.856618 1_545
O94 Si8 1.644397 1_555
O94 Ta3 1.858228 1_445
O95 S14 1.464830 1_555
O96 S7 1.553020 1_545
O96 Ta4 2.079444 1_555
O97 S8 1.519582 1_545
O97 Ta5 2.091439 1_555
O98 S5 1.517893 1_555
O98 Ta4 2.185825 1_555
O99 Si1 1.731269 1_555
O99 Ta5 1.818829 1_555
O100 S6 1.587133 1_555
O100 Ta4 1.995089 1_555
O101 Si2 1.676306 1_655
O101 Ta5 1.915643 1_555
O102 S2 1.543411 1_555
O102 Ta6 2.077679 1_555
O103 S3 1.539322 1_555
O103 Ta7 2.104907 1_555
O104 Si0 1.714038 1_555
O104 Ta6 1.904742 1_555
O105 S4 1.556623 1_655
O105 Ta7 2.057032 1_555
O106 S0 1.547079 1_545
O106 Ta6 2.036841 1_555
O107 S1 1.529872 1_545
O107 Ta7 2.157206 1_555
O108 S15 1.474787 1_555
O109 S16 1.453301 1_555
O110 S18 1.476027 1_555
O111 S17 1.460967 1_655
O112 S19 1.465717 1_545
O113 S20 1.462365 1_545
O114 S21 1.456089 1_545
O115 S22 1.475420 1_545
O116 S23 1.466751 1_555
O117 S24 1.463257 1_555
O118 S26 1.462963 1_555
O119 S25 1.475629 1_655
O120 Si8 1.663776 1_555
O120 Ta8 1.857815 1_555
O121 S14 1.516968 1_555
O121 Ta9 2.067868 1_555
O122 Si6 1.647755 1_455
O122 Ta8 1.875780 1_555
O123 S12 1.516264 1_555
O123 Ta9 2.055572 1_555
O124 S13 1.507926 1_565
O124 Ta8 2.076536 1_555
O125 Si7 1.661808 1_565
O125 Ta9 1.867595 1_555
O126 S10 1.540230 1_565
O126 Ta10 2.005934 1_555
O127 Si4 1.682524 1_565
O127 Ta11 1.827110 1_555
O128 Si5 1.698246 1_555
O128 Ta10 1.828715 1_555
O129 S11 1.524572 1_555
O129 Ta11 2.016425 1_555
O130 S9 1.552630 1_455
O130 Ta10 1.960647 1_555
O131 Si3 1.661395 1_555
O131 Ta11 1.852694 1_555
O132 S0 1.451383 1_555
O133 S1 1.442229 1_555
O134 S2 1.452138 1_555
O135 S3 1.441330 1_555
O136 S4 1.452259 1_555
O137 Si0 1.553848 1_555
O138 S5 1.436600 1_555
O139 Si1 1.572194 1_555
O140 Si2 1.550396 1_555
O141 S6 1.446359 1_555
O142 S7 1.444290 1_555
O143 S8 1.447897 1_555
