# generated using pymatgen
data_LiMnPO4
_symmetry_space_group_name_H-M   'P 1'
_cell_length_a   10.29236400
_cell_length_b   5.13934500
_cell_length_c   6.91101102
_cell_angle_alpha   89.83113044
_cell_angle_beta   90.00000000
_cell_angle_gamma   90.00000000
_symmetry_Int_Tables_number   1
_chemical_formula_structural   LiMnPO4
_chemical_formula_sum   'Li4 Mn4 P4 O16'
_cell_volume   365.56331636
_cell_formula_units_Z   4
loop_
 _symmetry_equiv_pos_site_id
 _symmetry_equiv_pos_as_xyz
  1  'x, y, z'
loop_
 _atom_site_type_symbol
 _atom_site_label
 _atom_site_symmetry_multiplicity
 _atom_site_fract_x
 _atom_site_fract_y
 _atom_site_fract_z
 _atom_site_occupancy
  Li  Li0  1  0.84603900  0.19622700  0.00079600  1
  Li  Li1  1  0.34603900  0.30377300  0.49920400  1
  Li  Li2  1  0.65396100  0.69622700  0.50079600  1
  Li  Li3  1  0.15396100  0.80377300  0.99920400  1
  Mn  Mn0  1  0.84745900  0.19887000  0.49975800  1
  Mn  Mn1  1  0.34745900  0.30113000  0.00024200  1
  Mn  Mn2  1  0.65254100  0.69887000  0.99975800  1
  Mn  Mn3  1  0.15254100  0.80113000  0.50024200  1
  P  P0  1  0.40421000  0.80505100  0.25289400  1
  P  P1  1  0.90421000  0.69494900  0.24710600  1
  P  P2  1  0.09579000  0.30505100  0.75289400  1
  P  P3  1  0.59579000  0.19494900  0.74710600  1
  O  O0  1  0.62095800  0.89591800  0.74482400  1
  O  O1  1  0.83902800  0.81936900  0.06656400  1
  O  O2  1  0.84216500  0.80685000  0.43593600  1
  O  O3  1  0.05208100  0.75525100  0.24470200  1
  O  O4  1  0.37904200  0.10408200  0.25517600  1
  O  O5  1  0.16097200  0.18063100  0.93343600  1
  O  O6  1  0.15783500  0.19315000  0.56406400  1
  O  O7  1  0.94791900  0.24474900  0.75529800  1
  O  O8  1  0.44791900  0.25525100  0.74470200  1
  O  O9  1  0.65783500  0.30685000  0.93593600  1
  O  O10  1  0.66097200  0.31936900  0.56656400  1
  O  O11  1  0.87904200  0.39591800  0.24482400  1
  O  O12  1  0.12095800  0.60408200  0.75517600  1
  O  O13  1  0.33902800  0.68063100  0.43343600  1
  O  O14  1  0.34216500  0.69315000  0.06406400  1
  O  O15  1  0.55208100  0.74474900  0.25529800  1
loop_
_geom_bond_atom_site_label_1
_geom_bond_atom_site_label_2
_geom_bond_distance
_geom_bond_site_symmetry_2
Li0 O1 1.989426 1_545
Li0 O11 2.005755 1_555
Li0 O7 2.009430 1_554
Li0 O9 2.067575 1_554
Li1 O13 1.989426 1_555
Li1 O4 2.005755 1_555
Li1 O8 2.009430 1_555
Li1 O6 2.067575 1_555
Li2 O10 1.989426 1_555
Li2 O0 2.005755 1_555
Li2 O15 2.009430 1_555
Li2 O2 2.067575 1_555
Li3 O5 1.989426 1_565
Li3 O12 2.005755 1_555
Li3 O3 2.009430 1_556
Li3 O14 2.067575 1_556
Mn0 O11 2.055438 1_555
Mn0 O7 2.060593 1_555
Mn0 O2 2.064431 1_545
Mn0 O10 2.069403 1_555
Mn1 O4 2.055438 1_555
Mn1 O8 2.060593 1_554
Mn1 O14 2.064431 1_555
Mn1 O5 2.069403 1_554
Mn2 O0 2.055438 1_555
Mn2 O15 2.060593 1_556
Mn2 O9 2.064431 1_555
Mn2 O1 2.069403 1_556
Mn3 O12 2.055438 1_555
Mn3 O3 2.060593 1_555
Mn3 O6 2.064431 1_565
Mn3 O13 2.069403 1_555
O0 P3 1.558627 1_565
O1 P1 1.552764 1_555
O2 P1 1.563969 1_555
O3 P1 1.553254 1_455
O4 P0 1.558627 1_545
O5 P2 1.552764 1_555
O6 P2 1.563969 1_555
O7 P2 1.553254 1_655
O8 P3 1.553254 1_555
O9 P3 1.563969 1_555
O10 P3 1.552764 1_555
O11 P1 1.558627 1_555
O12 P2 1.558627 1_555
O13 P0 1.552764 1_555
O14 P0 1.563969 1_555
O15 P0 1.553254 1_555
