# generated using pymatgen
data_TlInCl3
_symmetry_space_group_name_H-M   'P 1'
_cell_length_a   7.41777405
_cell_length_b   7.74921507
_cell_length_c   7.12539323
_cell_angle_alpha   63.88605361
_cell_angle_beta   61.85765930
_cell_angle_gamma   65.10937934
_symmetry_Int_Tables_number   1
_chemical_formula_structural   TlInCl3
_chemical_formula_sum   'Tl2 In2 Cl6'
_cell_volume   312.30576192
_cell_formula_units_Z   2
loop_
 _symmetry_equiv_pos_site_id
 _symmetry_equiv_pos_as_xyz
  1  'x, y, z'
loop_
 _atom_site_type_symbol
 _atom_site_label
 _atom_site_symmetry_multiplicity
 _atom_site_fract_x
 _atom_site_fract_y
 _atom_site_fract_z
 _atom_site_occupancy
  Tl  Tl0  1  0.98565195  0.96625005  0.00178739  1
  Tl  Tl1  1  0.49860168  0.52468262  0.51046398  1
  In  In0  1  0.24249222  0.24539309  0.25450975  1
  In  In1  1  0.74335623  0.74478837  0.75486210  1
  Cl  Cl0  1  0.56804673  0.05695972  0.87590723  1
  Cl  Cl1  1  0.91977619  0.43197429  0.63482243  1
  Cl  Cl2  1  0.42251155  0.61168843  0.02211229  1
  Cl  Cl3  1  0.06401820  0.87753369  0.48502063  1
  Cl  Cl4  1  0.58178231  0.91613631  0.45141442  1
  Cl  Cl5  1  0.90375894  0.57459442  0.05909977  1
loop_
_geom_bond_atom_site_label_1
_geom_bond_atom_site_label_2
_geom_bond_distance
_geom_bond_site_symmetry_2
Cl0 In1 2.533292 1_545
Cl0 In0 3.097653 1_556
Cl1 In1 2.533624 1_555
Cl1 In0 3.095267 1_655
Cl2 In1 2.533045 1_554
Cl2 In0 3.090188 1_555
Cl2 Tl0 3.266305 1_455
Cl3 In1 2.533196 1_455
Cl3 In0 3.095201 1_565
Cl3 Tl1 3.255205 1_555
Cl4 In1 2.540110 1_555
Cl4 In0 3.096267 1_565
Cl4 Tl1 3.157005 1_555
Cl4 Tl0 3.196867 1_555
Cl5 In1 2.539658 1_554
Cl5 In0 3.088309 1_655
Cl5 Tl0 3.158165 1_555
Cl5 Tl1 3.207949 1_555
