# generated using pymatgen
data_Na3HfInSi(PO6)2
_symmetry_space_group_name_H-M   'P 1'
_cell_length_a   9.13321773
_cell_length_b   9.13321740
_cell_length_c   22.52618504
_cell_angle_alpha   89.90722493
_cell_angle_beta   90.09277507
_cell_angle_gamma   119.85692600
_symmetry_Int_Tables_number   1
_chemical_formula_structural   Na3HfInSi(PO6)2
_chemical_formula_sum   'Na18 Hf6 In6 Si6 P12 O72'
_cell_volume   1629.63163802
_cell_formula_units_Z   6
loop_
 _symmetry_equiv_pos_site_id
 _symmetry_equiv_pos_as_xyz
  1  'x, y, z'
loop_
 _atom_site_type_symbol
 _atom_site_label
 _atom_site_symmetry_multiplicity
 _atom_site_fract_x
 _atom_site_fract_y
 _atom_site_fract_z
 _atom_site_occupancy
  Na  Na0  1  0.00350798  0.99235264  0.49529517  1
  Na  Na1  1  0.00764736  0.99649202  0.99529517  1
  Na  Na2  1  0.66566986  0.32153633  0.82925945  1
  Na  Na3  1  0.67846367  0.33433014  0.32925945  1
  Na  Na4  1  0.34968026  0.67522533  0.16191736  1
  Na  Na5  1  0.32477467  0.65031974  0.66191736  1
  Na  Na6  1  0.36147813  0.35939182  0.24609407  1
  Na  Na7  1  0.99097751  0.62791576  0.24564722  1
  Na  Na8  1  0.64060818  0.63852187  0.74609407  1
  Na  Na9  1  0.37208424  0.00902249  0.74564722  1
  Na  Na10  1  0.04254476  0.70003586  0.57754702  1
  Na  Na11  1  0.64958088  0.96411044  0.58484947  1
  Na  Na12  1  0.29996414  0.95745524  0.07754702  1
  Na  Na13  1  0.03588956  0.35041912  0.08484947  1
  Na  Na14  1  0.97779925  0.67842858  0.91929861  1
  Na  Na15  1  0.69693406  0.02529214  0.90918716  1
  Na  Na16  1  0.97470786  0.30306594  0.40918716  1
  Na  Na17  1  0.32157142  0.02220075  0.41929861  1
  Hf  Hf0  1  0.00484619  0.00811352  0.64752644  1
  Hf  Hf1  1  0.99188648  0.99515381  0.14752644  1
  Hf  Hf2  1  0.66250849  0.33721293  0.98094501  1
  Hf  Hf3  1  0.66278707  0.33749151  0.48094501  1
  Hf  Hf4  1  0.33299258  0.66832016  0.31428969  1
  Hf  Hf5  1  0.33167984  0.66700742  0.81428969  1
  In  In0  1  0.98879975  0.99209759  0.34901698  1
  In  In1  1  0.00790241  0.01120025  0.84901698  1
  In  In2  1  0.66889948  0.32640173  0.68275965  1
  In  In3  1  0.67359827  0.33110052  0.18275965  1
  In  In4  1  0.33311783  0.66594739  0.01550737  1
  In  In5  1  0.33405261  0.66688217  0.51550737  1
  Si  Si0  1  0.00091525  0.29866475  0.25208869  1
  Si  Si1  1  0.70133525  0.99908475  0.75208869  1
  Si  Si2  1  0.36549722  0.03236721  0.58339130  1
  Si  Si3  1  0.96763279  0.63450278  0.08339130  1
  Si  Si4  1  0.33307377  0.96773798  0.91714664  1
  Si  Si5  1  0.03226202  0.66692623  0.41714664  1
  P  P0  1  0.29532913  0.00064509  0.25055444  1
  P  P1  1  0.69998003  0.70164826  0.24957852  1
  P  P2  1  0.29835174  0.30001997  0.74957852  1
  P  P3  1  0.99935491  0.70467087  0.75055444  1
  P  P4  1  0.96168677  0.33284718  0.58166549  1
  P  P5  1  0.66886355  0.63023491  0.58665760  1
  P  P6  1  0.66715282  0.03831323  0.08166549  1
  P  P7  1  0.36976509  0.33113645  0.08665760  1
  P  P8  1  0.62647351  0.66357401  0.91532763  1
  P  P9  1  0.03470178  0.36996558  0.91989794  1
  P  P10  1  0.63003442  0.96529822  0.41989794  1
  P  P11  1  0.33642599  0.37352649  0.41532763  1
  O  O0  1  0.21968876  0.02790204  0.30769905  1
  O  O1  1  0.81256765  0.77071439  0.30480017  1
  O  O2  1  0.98537181  0.19911800  0.31353625  1
  O  O3  1  0.22928561  0.18743235  0.80480017  1
  O  O4  1  0.97209796  0.78031124  0.80769905  1
  O  O5  1  0.80088200  0.01462819  0.81353625  1
  O  O6  1  0.80135008  0.97747034  0.69439979  1
  O  O7  1  0.18622054  0.20528397  0.69480543  1
  O  O8  1  0.02878513  0.82550697  0.69674972  1
  O  O9  1  0.79471603  0.81377946  0.19480543  1
  O  O10  1  0.02252966  0.19864992  0.19439979  1
  O  O11  1  0.17449303  0.97121487  0.19674972  1
  O  O12  1  0.88704041  0.37349370  0.63611917  1
  O  O13  1  0.47661209  0.11106014  0.64354198  1
  O  O14  1  0.64989616  0.53734167  0.64543976  1
  O  O15  1  0.88893986  0.52338791  0.14354198  1
  O  O16  1  0.62650630  0.11295959  0.13611917  1
  O  O17  1  0.46265833  0.35010384  0.14543976  1
  O  O18  1  0.46820148  0.30726494  0.03425198  1
  O  O19  1  0.85047379  0.53456557  0.02500530  1
  O  O20  1  0.69148616  0.15168290  0.02608508  1
  O  O21  1  0.46543443  0.14952621  0.52500530  1
  O  O22  1  0.69273506  0.53179852  0.53425198  1
  O  O23  1  0.84831710  0.30851384  0.52608508  1
  O  O24  1  0.54306134  0.69101044  0.96985630  1
  O  O25  1  0.12792205  0.43873982  0.97919203  1
  O  O26  1  0.30003631  0.85729380  0.97777895  1
  O  O27  1  0.56126018  0.87207795  0.47919203  1
  O  O28  1  0.30898956  0.45693866  0.46985630  1
  O  O29  1  0.14270620  0.69996369  0.47777895  1
  O  O30  1  0.13444486  0.64213738  0.36023367  1
  O  O31  1  0.51175604  0.86353909  0.36766622  1
  O  O32  1  0.35689455  0.48021763  0.35858970  1
  O  O33  1  0.13646091  0.48824396  0.86766622  1
  O  O34  1  0.35786262  0.86555514  0.86023367  1
  O  O35  1  0.51978237  0.64310545  0.85858970  1
  O  O36  1  0.02076896  0.83865479  0.41140329  1
  O  O37  1  0.81371688  0.00444595  0.41424936  1
  O  O38  1  0.18167066  0.19417851  0.41227730  1
  O  O39  1  0.99555405  0.18628312  0.91424936  1
  O  O40  1  0.16134521  0.97923104  0.91140329  1
  O  O41  1  0.80582149  0.81832934  0.91227730  1
  O  O42  1  0.96010287  0.16180069  0.58848156  1
  O  O43  1  0.17427108  0.00873167  0.58671015  1
  O  O44  1  0.83527652  0.80707383  0.58812924  1
  O  O45  1  0.99126833  0.82572892  0.08671015  1
  O  O46  1  0.83819931  0.03989713  0.08848156  1
  O  O47  1  0.19292617  0.16472348  0.08812924  1
  O  O48  1  0.66436323  0.15620414  0.74945075  1
  O  O49  1  0.48113533  0.33412929  0.74334660  1
  O  O50  1  0.83998559  0.53128350  0.74315391  1
  O  O51  1  0.66587071  0.51886467  0.24334660  1
  O  O52  1  0.84379586  0.33563677  0.24945075  1
  O  O53  1  0.46871650  0.16001441  0.24315391  1
  O  O54  1  0.64477829  0.50303328  0.92070226  1
  O  O55  1  0.86110078  0.36814640  0.92047126  1
  O  O56  1  0.51187717  0.14913583  0.92088327  1
  O  O57  1  0.63185360  0.13889922  0.42047126  1
  O  O58  1  0.49696672  0.35522171  0.42070226  1
  O  O59  1  0.85086417  0.48812283  0.42088327  1
  O  O60  1  0.33945939  0.48068577  0.07892549  1
  O  O61  1  0.15772787  0.65517158  0.08159417  1
  O  O62  1  0.51863653  0.85876955  0.07592178  1
  O  O63  1  0.34482842  0.84227213  0.58159417  1
  O  O64  1  0.51931423  0.66054061  0.57892549  1
  O  O65  1  0.14123045  0.48136347  0.57592178  1
  O  O66  1  0.30877065  0.83730157  0.25488311  1
  O  O67  1  0.52724142  0.69392796  0.25465076  1
  O  O68  1  0.18020082  0.48636695  0.25356627  1
  O  O69  1  0.30607204  0.47275858  0.75465076  1
  O  O70  1  0.16269843  0.69122935  0.75488311  1
  O  O71  1  0.51363305  0.81979918  0.75356627  1
loop_
_geom_bond_atom_site_label_1
_geom_bond_atom_site_label_2
_geom_bond_distance
_geom_bond_site_symmetry_2
Na0 O36 2.407590 1_555
Na0 O43 2.540376 1_565
Na0 O37 2.555312 1_465
Na0 O38 2.560276 1_565
Na0 O44 2.647185 1_455
Na0 O42 2.753666 1_465
Na1 O40 2.407590 1_555
Na1 O45 2.540376 1_456
Na1 O39 2.555312 1_465
Na1 O41 2.560276 1_455
Na1 O47 2.647185 1_566
Na1 O46 2.753666 1_466
Na2 O48 2.345869 1_555
Na2 O56 2.551240 1_555
Na2 O49 2.604006 1_555
Na2 O55 2.612115 1_555
Na2 O50 2.632093 1_555
Na2 O54 2.711915 1_555
Na3 O52 2.345869 1_555
Na3 O59 2.551240 1_555
Na3 O51 2.604006 1_555
Na3 O57 2.612115 1_555
Na3 O53 2.632093 1_555
Na3 O58 2.711915 1_555
Na4 O61 2.460079 1_555
Na4 O62 2.523385 1_555
Na4 O60 2.550623 1_555
Na4 O67 2.595593 1_555
Na4 O68 2.640795 1_555
Na4 O66 2.698076 1_555
Na5 O63 2.460079 1_555
Na5 O65 2.523385 1_555
Na5 O64 2.550623 1_555
Na5 O69 2.595593 1_555
Na5 O71 2.640795 1_555
Na5 O70 2.698076 1_555
Na6 O51 2.413025 1_555
Na6 O68 2.455125 1_555
Na6 O53 2.460882 1_555
Na6 O17 2.467292 1_555
Na6 O67 2.657045 1_555
Na6 O32 2.774270 1_555
Na6 O10 2.926323 1_555
Na6 O0 2.976149 1_555
Na7 O52 2.316691 1_555
Na7 O15 2.486850 1_555
Na7 O66 2.568569 1_655
Na7 O51 2.620374 1_555
Na7 O68 2.629201 1_655
Na7 O30 2.866540 1_655
Na7 O1 2.874063 1_555
Na7 O11 2.935251 1_655
Na8 O49 2.413024 1_555
Na8 O71 2.455125 1_555
Na8 O50 2.460882 1_555
Na8 O14 2.467292 1_555
Na8 O69 2.657045 1_555
Na8 O35 2.774270 1_555
Na8 O6 2.926323 1_555
Na8 O4 2.976149 1_555
Na9 O48 2.316691 1_555
Na9 O13 2.486850 1_555
Na9 O70 2.568569 1_545
Na9 O49 2.620374 1_555
Na9 O71 2.629201 1_545
Na9 O34 2.866540 1_545
Na9 O3 2.874063 1_555
Na9 O8 2.935251 1_545
Na10 O63 2.397212 1_555
Na10 O29 2.427941 1_555
Na10 O43 2.462267 1_565
Na10 O44 2.537894 1_455
Na10 O65 2.568093 1_555
Na10 O12 2.903183 1_455
Na10 O22 2.937066 1_455
Na10 O8 2.948500 1_555
Na11 O64 2.415936 1_555
Na11 O63 2.430338 1_555
Na11 O42 2.492228 1_565
Na11 O27 2.519337 1_555
Na11 O44 2.712960 1_555
Na11 O6 2.801350 1_555
Na11 O13 2.858060 1_565
Na12 O61 2.397212 1_555
Na12 O26 2.427941 1_554
Na12 O45 2.462267 1_455
Na12 O47 2.537894 1_565
Na12 O62 2.568093 1_555
Na12 O16 2.903183 1_565
Na12 O18 2.937066 1_565
Na12 O11 2.948500 1_555
Na13 O60 2.415936 1_555
Na13 O61 2.430337 1_555
Na13 O46 2.492228 1_455
Na13 O25 2.519337 1_554
Na13 O47 2.712960 1_555
Na13 O10 2.801350 1_555
Na13 O15 2.858060 1_455
Na14 O40 2.409005 1_655
Na14 O41 2.474186 1_555
Na14 O55 2.481940 1_555
Na14 O54 2.639527 1_555
Na14 O19 2.688156 1_556
Na14 O4 2.688600 1_555
Na14 O26 2.876297 1_655
Na14 O33 2.997992 1_655
Na15 O39 2.370686 1_555
Na15 O5 2.377539 1_555
Na15 O56 2.472105 1_555
Na15 O41 2.537300 1_545
Na15 O55 2.728506 1_555
Na15 O20 2.887308 1_556
Na15 O34 2.903520 1_545
Na15 O24 2.980704 1_545
Na16 O37 2.370686 1_555
Na16 O2 2.377539 1_555
Na16 O59 2.472105 1_555
Na16 O38 2.537300 1_655
Na16 O57 2.728506 1_555
Na16 O23 2.887308 1_555
Na16 O30 2.903520 1_655
Na16 O28 2.980704 1_655
Na17 O36 2.409005 1_545
Na17 O38 2.474186 1_555
Na17 O57 2.481941 1_555
Na17 O58 2.639527 1_555
Na17 O21 2.688156 1_555
Na17 O0 2.688600 1_555
Na17 O29 2.876297 1_545
Na17 O31 2.997992 1_545
Hf0 O6 2.033468 1_445
Hf0 O7 2.037538 1_555
Hf0 O43 2.066250 1_555
Hf0 O8 2.101206 1_545
Hf0 O42 2.114147 1_455
Hf0 O44 2.174867 1_445
Hf1 O10 2.033468 1_665
Hf1 O9 2.037538 1_555
Hf1 O45 2.066250 1_555
Hf1 O11 2.101206 1_655
Hf1 O46 2.114147 1_565
Hf1 O47 2.174867 1_665
Hf2 O19 2.024954 1_556
Hf2 O18 2.046620 1_556
Hf2 O56 2.079035 1_555
Hf2 O54 2.097194 1_555
Hf2 O20 2.101273 1_556
Hf2 O55 2.172990 1_555
Hf3 O21 2.024954 1_555
Hf3 O22 2.046619 1_555
Hf3 O59 2.079035 1_555
Hf3 O58 2.097194 1_555
Hf3 O23 2.101273 1_555
Hf3 O57 2.172990 1_555
Hf4 O30 1.997536 1_555
Hf4 O68 2.066942 1_555
Hf4 O32 2.088564 1_555
Hf4 O31 2.095831 1_555
Hf4 O66 2.133996 1_555
Hf4 O67 2.144896 1_555
Hf5 O34 1.997536 1_555
Hf5 O71 2.066942 1_555
Hf5 O35 2.088564 1_555
Hf5 O33 2.095831 1_555
Hf5 O70 2.133996 1_555
Hf5 O69 2.144896 1_555
In0 O2 2.066088 1_565
In0 O36 2.103307 1_655
In0 O1 2.105233 1_555
In0 O0 2.176888 1_665
In0 O37 2.217363 1_565
In0 O38 2.302905 1_665
In1 O5 2.066088 1_455
In1 O40 2.103308 1_545
In1 O3 2.105233 1_555
In1 O4 2.176888 1_445
In1 O39 2.217363 1_455
In1 O41 2.302905 1_445
In2 O13 2.072283 1_555
In2 O12 2.100074 1_555
In2 O48 2.145564 1_555
In2 O14 2.185338 1_555
In2 O50 2.209986 1_555
In2 O49 2.221912 1_555
In3 O15 2.072283 1_555
In3 O16 2.100074 1_555
In3 O52 2.145564 1_555
In3 O17 2.185339 1_555
In3 O53 2.209986 1_555
In3 O51 2.221912 1_555
In4 O24 2.086899 1_554
In4 O26 2.094711 1_554
In4 O25 2.148485 1_554
In4 O61 2.154564 1_555
In4 O62 2.203107 1_555
In4 O60 2.235313 1_555
In5 O28 2.086899 1_555
In5 O29 2.094711 1_555
In5 O27 2.148485 1_555
In5 O63 2.154564 1_555
In5 O65 2.203107 1_555
In5 O64 2.235313 1_555
O0 P0 1.539935 1_555
O1 P1 1.534671 1_555
O2 Si0 1.621964 1_655
O3 P2 1.534671 1_555
O4 P3 1.539935 1_555
O5 Si1 1.621964 1_545
O6 Si1 1.657203 1_555
O7 P2 1.561053 1_555
O8 P3 1.568622 1_455
O9 P1 1.561053 1_555
O10 Si0 1.657203 1_555
O11 P0 1.568622 1_565
O12 P4 1.537343 1_555
O13 Si2 1.629373 1_555
O14 P5 1.534250 1_555
O15 Si3 1.629373 1_555
O16 P6 1.537343 1_555
O17 P7 1.534251 1_555
O18 P7 1.564871 1_555
O19 Si3 1.653711 1_555
O20 P6 1.567364 1_555
O21 Si2 1.653711 1_555
O22 P5 1.564871 1_555
O23 P4 1.567364 1_555
O24 P8 1.531679 1_555
O25 P9 1.539481 1_555
O26 Si4 1.633345 1_555
O27 P10 1.539481 1_555
O28 P11 1.531679 1_555
O29 Si5 1.633345 1_555
O30 Si5 1.667641 1_555
O31 P10 1.553982 1_555
O32 P11 1.559918 1_555
O33 P9 1.553982 1_555
O34 Si4 1.667641 1_555
O35 P8 1.559918 1_555
O36 Si5 1.628179 1_555
O37 P10 1.536792 1_545
O38 P11 1.542870 1_555
O39 P9 1.536792 1_655
O40 Si4 1.628179 1_555
O41 P8 1.542870 1_555
O42 P4 1.562369 1_555
O43 Si2 1.651506 1_555
O44 P5 1.573398 1_555
O45 Si3 1.651506 1_555
O46 P6 1.562369 1_555
O47 P7 1.573398 1_555
O48 Si1 1.630620 1_545
O49 P2 1.544818 1_555
O50 P3 1.535976 1_555
O51 P1 1.544818 1_555
O52 Si0 1.630620 1_655
O53 P0 1.535976 1_555
O54 P8 1.560748 1_555
O55 P9 1.577404 1_655
O56 Si4 1.650731 1_545
O57 P10 1.577404 1_545
O58 P11 1.560748 1_555
O59 Si5 1.650731 1_655
O60 P7 1.532329 1_555
O61 Si3 1.650900 1_455
O62 P6 1.526788 1_565
O63 Si2 1.650900 1_565
O64 P5 1.532329 1_555
O65 P4 1.526788 1_455
O66 P0 1.559501 1_565
O67 P1 1.548171 1_555
O68 Si0 1.681161 1_555
O69 P2 1.548171 1_555
O70 P3 1.559501 1_455
O71 Si1 1.681161 1_555
