# generated using pymatgen
data_Ba2GdMgMoO6
_symmetry_space_group_name_H-M   'P 1'
_cell_length_a   6.68540184
_cell_length_b   6.21473838
_cell_length_c   6.71289460
_cell_angle_alpha   57.47494900
_cell_angle_beta   54.40954622
_cell_angle_gamma   85.14828223
_symmetry_Int_Tables_number   1
_chemical_formula_structural   Ba2GdMgMoO6
_chemical_formula_sum   'Ba2 Gd1 Mg1 Mo1 O6'
_cell_volume   180.31779802
_cell_formula_units_Z   1
loop_
 _symmetry_equiv_pos_site_id
 _symmetry_equiv_pos_as_xyz
  1  'x, y, z'
loop_
 _atom_site_type_symbol
 _atom_site_label
 _atom_site_symmetry_multiplicity
 _atom_site_fract_x
 _atom_site_fract_y
 _atom_site_fract_z
 _atom_site_occupancy
  Ba  Ba0  1  0.21053600  0.74938800  0.42705700  1
  Ba  Ba1  1  0.78946400  0.25061200  0.57294300  1
  Gd  Gd0  1  0.00000000  0.00000000  0.00000000  1
  Mg  Mg0  1  0.50000000  0.00000000  0.50000000  1
  Mo  Mo0  1  0.50000000  0.50000000  0.00000000  1
  O  O0  1  0.25666100  0.21467800  0.49158300  1
  O  O1  1  0.74333900  0.78532200  0.50841700  1
  O  O2  1  0.30034000  0.23365900  0.98668600  1
  O  O3  1  0.69966000  0.76634100  0.01331400  1
  O  O4  1  0.73487700  0.24679500  0.03075000  1
  O  O5  1  0.26512300  0.75320500  0.96925000  1
loop_
_geom_bond_atom_site_label_1
_geom_bond_atom_site_label_2
_geom_bond_distance
_geom_bond_site_symmetry_2
Ba0 O2 2.613385 1_564
Ba0 O3 2.755035 1_555
Ba0 O1 2.851554 1_455
Ba0 O5 2.862867 1_554
Ba0 Mg0 2.973778 1_565
Ba0 O4 3.059383 1_456
Ba0 O0 3.124080 1_555
Ba0 O0 3.208986 1_565
Ba0 O4 3.325070 1_565
Ba0 O3 3.450193 1_456
Ba1 O3 2.613385 1_546
Ba1 O2 2.755035 1_555
Ba1 O0 2.851554 1_655
Ba1 O4 2.862867 1_556
Ba1 Mg0 2.973778 1_555
Ba1 O5 3.059383 1_654
Ba1 O1 3.124080 1_555
Ba1 O1 3.208986 1_545
Ba1 O5 3.325070 1_545
Ba1 O2 3.450193 1_654
Gd0 O5 2.234139 1_544
Gd0 O4 2.234139 1_455
Gd0 O1 2.246495 1_445
Gd0 O0 2.246495 1_554
Gd0 O2 2.508599 1_554
Gd0 O3 2.508599 1_445
Mg0 O1 2.022010 1_545
Mg0 O0 2.022010 1_555
Mg0 O5 2.048266 1_545
Mg0 O4 2.048266 1_555
Mo0 O5 2.143484 1_554
Mo0 O4 2.143484 1_555
Mo0 O0 2.151135 1_555
Mo0 O1 2.151135 1_554
Mo0 O3 2.280613 1_555
Mo0 O2 2.280613 1_554
