# generated using pymatgen
data_Hf2Zr8Ta8Ti4Nb5B54
_symmetry_space_group_name_H-M   'P 1'
_cell_length_a   9.35825446
_cell_length_b   9.35697244
_cell_length_c   10.20020838
_cell_angle_alpha   89.97240770
_cell_angle_beta   90.00064958
_cell_angle_gamma   120.04040422
_symmetry_Int_Tables_number   1
_chemical_formula_structural   Hf2Zr8Ta8Ti4Nb5B54
_chemical_formula_sum   'Hf2 Zr8 Ta8 Ti4 Nb5 B54'
_cell_volume   773.20178496
_cell_formula_units_Z   1
loop_
 _symmetry_equiv_pos_site_id
 _symmetry_equiv_pos_as_xyz
  1  'x, y, z'
loop_
 _atom_site_type_symbol
 _atom_site_label
 _atom_site_symmetry_multiplicity
 _atom_site_fract_x
 _atom_site_fract_y
 _atom_site_fract_z
 _atom_site_occupancy
  Hf  Hf0  1  0.88960100  0.99808000  0.66642900  1
  Hf  Hf1  1  0.55415300  0.33290900  0.00188700  1
  Zr  Zr0  1  0.88954300  0.99944800  0.33233700  1
  Zr  Zr1  1  0.55225400  0.99768400  0.66620100  1
  Zr  Zr2  1  0.89096500  0.33680700  0.66590800  1
  Zr  Zr3  1  0.55520800  0.33467400  0.66589800  1
  Zr  Zr4  1  0.22372500  0.33525500  0.66560700  1
  Zr  Zr5  1  0.88998300  0.00024000  0.00139400  1
  Zr  Zr6  1  0.89143200  0.66674700  0.00145500  1
  Zr  Zr7  1  0.55296400  0.99819800  0.33269300  1
  Ta  Ta0  1  0.55099800  0.99665900  0.00150900  1
  Ta  Ta1  1  0.22451400  0.33695200  0.33300100  1
  Ta  Ta2  1  0.55317400  0.66556800  0.66557100  1
  Ta  Ta3  1  0.22208000  0.99827800  0.33349800  1
  Ta  Ta4  1  0.22302800  0.33690300  0.00163400  1
  Ta  Ta5  1  0.89239600  0.33628900  0.00144100  1
  Ta  Ta6  1  0.55139000  0.66566000  0.00050900  1
  Ta  Ta7  1  0.89058400  0.66571200  0.33216100  1
  Ti  Ti0  1  0.55436300  0.33476700  0.33216700  1
  Ti  Ti1  1  0.89138100  0.33703500  0.33276300  1
  Ti  Ti2  1  0.22199200  0.66805900  0.66533900  1
  Ti  Ti3  1  0.22095400  0.99653900  0.66485900  1
  Nb  Nb0  1  0.22397000  0.66687900  0.00025500  1
  Nb  Nb1  1  0.89215000  0.66801000  0.66616300  1
  Nb  Nb2  1  0.55250700  0.66396900  0.33382600  1
  Nb  Nb3  1  0.22139100  0.66551200  0.33396600  1
  Nb  Nb4  1  0.22341500  0.99790000  0.00153800  1
  B  B0  1  0.00069100  0.55662200  0.49678500  1
  B  B1  1  0.00189200  0.88845000  0.16873300  1
  B  B2  1  0.33331100  0.22085600  0.49540000  1
  B  B3  1  0.00070500  0.22425800  0.49536900  1
  B  B4  1  0.66429900  0.88708400  0.16507100  1
  B  B5  1  0.33239000  0.88831700  0.16613100  1
  B  B6  1  0.66769600  0.22417700  0.16918900  1
  B  B7  1  0.66526100  0.55363200  0.16954100  1
  B  B8  1  0.33267900  0.55447400  0.16686300  1
  B  B9  1  0.99952400  0.55345600  0.17010400  1
  B  B10  1  0.33443900  0.22354800  0.16980700  1
  B  B11  1  0.00139100  0.22578800  0.16847800  1
  B  B12  1  0.66757300  0.22514500  0.49266900  1
  B  B13  1  0.77608600  0.77633700  0.83347000  1
  B  B14  1  0.44222600  0.77613400  0.83288900  1
  B  B15  1  0.66726400  0.55518300  0.49496800  1
  B  B16  1  0.77564400  0.77499800  0.16781500  1
  B  B17  1  0.11318400  0.11025700  0.49881500  1
  B  B18  1  0.44191200  0.11135500  0.49674700  1
  B  B19  1  0.77921300  0.11352600  0.49672200  1
  B  B20  1  0.11113600  0.44610800  0.49669100  1
  B  B21  1  0.44528400  0.44449800  0.49504300  1
  B  B22  1  0.77791500  0.44474000  0.49190500  1
  B  B23  1  0.11159400  0.77776500  0.50122500  1
  B  B24  1  0.44152800  0.77487800  0.50151600  1
  B  B25  1  0.77732300  0.77508900  0.49886800  1
  B  B26  1  0.11330500  0.11035900  0.83355900  1
  B  B27  1  0.44159500  0.10897000  0.83502700  1
  B  B28  1  0.77722600  0.11148200  0.83660100  1
  B  B29  1  0.11297100  0.44733400  0.83476200  1
  B  B30  1  0.44421700  0.44589900  0.83626100  1
  B  B31  1  0.77861400  0.44479200  0.83632800  1
  B  B32  1  0.11353100  0.77899500  0.82914400  1
  B  B33  1  0.44321800  0.77621100  0.16561800  1
  B  B34  1  0.11199200  0.77703700  0.16977600  1
  B  B35  1  0.77725400  0.44277500  0.17162800  1
  B  B36  1  0.33361100  0.55739600  0.83278200  1
  B  B37  1  0.00236000  0.88820800  0.49986300  1
  B  B38  1  0.32953200  0.88758900  0.50186400  1
  B  B39  1  0.66578800  0.88640700  0.49974100  1
  B  B40  1  0.00118900  0.22359800  0.83567200  1
  B  B41  1  0.33161900  0.21988000  0.83494500  1
  B  B42  1  0.66661900  0.22143400  0.83819000  1
  B  B43  1  0.00353000  0.55796100  0.83277500  1
  B  B44  1  0.66596400  0.55678400  0.83517900  1
  B  B45  1  0.44440700  0.44367300  0.16924700  1
  B  B46  1  0.00312100  0.88945100  0.83115200  1
  B  B47  1  0.33059400  0.88726200  0.83167700  1
  B  B48  1  0.66457600  0.88668200  0.83509000  1
  B  B49  1  0.11446500  0.11389300  0.16778800  1
  B  B50  1  0.44470900  0.11280100  0.16884800  1
  B  B51  1  0.77809400  0.11469600  0.16675100  1
  B  B52  1  0.11081100  0.44448400  0.16894700  1
  B  B53  1  0.33291300  0.55665000  0.50002000  1
loop_
_geom_bond_atom_site_label_1
_geom_bond_atom_site_label_2
_geom_bond_distance
_geom_bond_site_symmetry_2
B0 B20 1.791001 1_555
B0 B23 1.791873 1_555
B0 B22 1.805452 1_455
B0 Nb3 2.439998 1_555
B0 Ti1 2.442560 1_455
B0 Ta7 2.444335 1_455
B0 Zr2 2.478469 1_455
B0 Nb1 2.482883 1_455
B0 Ti2 2.484302 1_555
B1 B34 1.795529 1_555
B1 B49 1.826127 1_565
B1 B16 1.832904 1_455
B1 Ta3 2.451127 1_555
B1 Ta7 2.455749 1_455
B1 Zr0 2.462523 1_455
B1 Nb4 2.475407 1_555
B1 Zr6 2.477839 1_455
B1 Zr5 2.489870 1_465
B2 B21 1.811519 1_555
B2 Ti0 2.445087 1_555
B2 Ta3 2.445599 1_545
B2 Ta1 2.462986 1_555
B2 Zr3 2.501667 1_555
B2 Ti3 2.507140 1_545
B2 Zr4 2.512503 1_555
B3 Ti1 2.447541 1_455
B3 Ta1 2.455359 1_555
B3 Zr0 2.466757 1_445
B3 Zr2 2.504868 1_455
B3 Zr4 2.506244 1_555
B3 Hf0 2.529388 1_445
B4 B51 1.843764 1_565
B4 Ta6 2.457254 1_555
B4 Ta0 2.458792 1_555
B4 Zr5 2.475571 1_565
B4 Zr7 2.485194 1_555
B4 Nb2 2.495140 1_555
B4 Zr0 2.498457 1_555
B5 B50 1.818564 1_565
B5 Ta0 2.440199 1_555
B5 Nb4 2.440350 1_555
B5 Zr7 2.466003 1_555
B5 Nb0 2.466545 1_555
B5 Ta3 2.470614 1_555
B5 Nb3 2.486862 1_555
B6 Ti0 2.461665 1_555
B6 Ti1 2.463594 1_555
B6 Zr7 2.475658 1_545
B6 Hf1 2.481332 1_555
B6 Ta5 2.497945 1_555
B6 Ta0 2.515125 1_545
B7 Ti0 2.427243 1_555
B7 Nb2 2.465732 1_555
B7 Ta7 2.466809 1_555
B7 Hf1 2.474742 1_555
B7 Zr6 2.508992 1_555
B7 Ta6 2.514706 1_555
B8 Ta4 2.439187 1_555
B8 Ta1 2.443977 1_555
B8 Ta6 2.453008 1_555
B8 Nb2 2.464452 1_555
B8 Nb0 2.469574 1_555
B8 Nb3 2.480830 1_555
B9 Ti1 2.413028 1_555
B9 Ta7 2.439051 1_555
B9 Nb3 2.454782 1_655
B9 Ta5 2.461227 1_555
B9 Zr6 2.485571 1_555
B9 Nb0 2.511192 1_655
B10 B49 1.782180 1_555
B10 B45 1.783036 1_555
B10 B50 1.791502 1_555
B10 Ti0 2.432825 1_555
B10 Ta1 2.459633 1_555
B10 Hf1 2.469894 1_555
B10 Ta3 2.472660 1_545
B10 Ta4 2.502009 1_555
B10 Nb4 2.508078 1_545
B11 B52 1.771463 1_555
B11 B51 1.809073 1_455
B11 B49 1.823529 1_555
B11 Ti1 2.454832 1_455
B11 Ta5 2.463054 1_455
B11 Ta1 2.466811 1_555
B11 Ta4 2.473570 1_555
B11 Zr0 2.480247 1_445
B11 Zr5 2.499199 1_455
B12 B22 1.778753 1_555
B12 B19 1.810104 1_555
B12 B18 1.828599 1_555
B12 Ti0 2.437458 1_555
B12 Ti1 2.438485 1_555
B12 Zr7 2.458744 1_545
B12 Zr3 2.521715 1_555
B12 Zr2 2.529705 1_555
B12 Zr1 2.554281 1_545
B13 B44 1.778473 1_555
B13 B48 1.798353 1_555
B13 B46 1.839406 1_655
B13 Hf0 2.475158 1_555
B13 Ta2 2.489137 1_555
B13 Ta6 2.493035 1_556
B13 Nb1 2.494696 1_555
B13 Zr5 2.495366 1_566
B13 Zr6 2.501843 1_556
B14 B36 1.771814 1_555
B14 B48 1.801459 1_555
B14 B47 1.805640 1_555
B14 Nb0 2.457461 1_556
B14 Ta6 2.467998 1_556
B14 Ti2 2.471043 1_555
B14 Zr1 2.471448 1_555
B14 Ta2 2.477562 1_555
B14 Ta0 2.480448 1_556
B15 B25 1.781721 1_555
B15 B22 1.792377 1_555
B15 B21 1.798306 1_555
B15 Ti0 2.439067 1_555
B15 Nb2 2.446218 1_555
B15 Ta7 2.455489 1_555
B15 Zr3 2.495393 1_555
B15 Ta2 2.518117 1_555
B15 Nb1 2.523908 1_555
B16 B7 1.793162 1_555
B16 B4 1.811249 1_555
B16 Ta7 2.472338 1_555
B16 Zr0 2.474900 1_555
B16 Nb2 2.476598 1_555
B16 Zr6 2.485998 1_555
B16 Zr5 2.491413 1_565
B16 Ta6 2.493025 1_555
B17 B2 1.783624 1_555
B17 B37 1.798642 1_545
B17 B3 1.836091 1_555
B17 Ta3 2.459814 1_545
B17 Ti3 2.467916 1_545
B17 Zr0 2.483501 1_445
B17 Hf0 2.490419 1_445
B17 Zr4 2.493945 1_555
B17 Ta1 2.495878 1_555
B18 B2 1.767897 1_555
B18 B38 1.813247 1_545
B18 Ta3 2.438610 1_545
B18 Ti0 2.467741 1_555
B18 Zr7 2.470788 1_545
B18 Ti3 2.478806 1_545
B18 Zr3 2.500535 1_555
B18 Zr1 2.506588 1_545
B19 B3 1.794398 1_655
B19 B39 1.839923 1_545
B19 Ti1 2.464010 1_555
B19 Zr0 2.474307 1_545
B19 Zr7 2.482107 1_545
B19 Zr2 2.500518 1_555
B19 Hf0 2.519130 1_545
B19 Zr1 2.523444 1_545
B20 B53 1.796992 1_555
B20 B3 1.797069 1_555
B20 Nb3 2.431091 1_555
B20 Ti1 2.442733 1_455
B20 Ta1 2.458346 1_555
B20 Zr2 2.481752 1_455
B20 Ti2 2.488936 1_555
B20 Zr4 2.499429 1_555
B21 B53 1.820612 1_555
B21 Nb2 2.421142 1_555
B21 Ti0 2.430520 1_555
B21 Ta1 2.435772 1_555
B21 Zr3 2.491597 1_555
B21 Ta2 2.497244 1_555
B21 Zr4 2.499423 1_555
B22 Ti1 2.418934 1_555
B22 Ta7 2.419894 1_555
B22 Ti0 2.436502 1_555
B22 Zr2 2.521379 1_555
B22 Zr3 2.530494 1_555
B22 Nb1 2.536562 1_555
B23 B38 1.765582 1_555
B23 B37 1.780668 1_555
B23 Ti3 2.435044 1_555
B23 Ti2 2.446118 1_555
B23 Nb1 2.447307 1_455
B23 Ta3 2.472662 1_555
B23 Nb3 2.480328 1_555
B23 Ta7 2.486237 1_455
B24 B53 1.767747 1_555
B24 B39 1.816871 1_555
B24 B38 1.821388 1_555
B24 Ti2 2.440228 1_555
B24 Ta2 2.450773 1_555
B24 Zr1 2.466231 1_555
B24 Nb3 2.470407 1_555
B24 Nb2 2.482374 1_555
B24 Zr7 2.496822 1_555
B25 B39 1.806378 1_555
B25 B37 1.823102 1_655
B25 Nb1 2.479281 1_555
B25 Ta7 2.479958 1_555
B25 Nb2 2.480500 1_555
B25 Zr0 2.486904 1_555
B25 Hf0 2.487402 1_555
B25 Ta2 2.487532 1_555
B26 B41 1.768663 1_555
B26 B46 1.789557 1_545
B26 B40 1.826773 1_555
B26 Ti3 2.487207 1_545
B26 Nb4 2.487719 1_546
B26 Hf0 2.488408 1_445
B26 Zr5 2.490486 1_456
B26 Zr4 2.500067 1_555
B26 Ta4 2.512194 1_556
B27 B41 1.790414 1_555
B27 B47 1.796195 1_545
B27 B42 1.823256 1_555
B27 Nb4 2.451022 1_546
B27 Ta0 2.472201 1_546
B27 Hf1 2.488083 1_556
B27 Zr1 2.490711 1_545
B27 Ti3 2.491953 1_545
B27 Zr3 2.512986 1_555
B28 B42 1.787840 1_555
B28 B40 1.814388 1_655
B28 B48 1.820971 1_545
B28 Zr5 2.473941 1_556
B28 Ta5 2.479307 1_556
B28 Ta0 2.487336 1_546
B28 Zr1 2.518832 1_545
B28 Zr2 2.521745 1_555
B28 Hf0 2.522677 1_545
B29 B43 1.783896 1_555
B29 B36 1.787558 1_555
B29 B40 1.812298 1_555
B29 Nb0 2.452636 1_556
B29 Ta5 2.466178 1_456
B29 Ta4 2.467698 1_556
B29 Ti2 2.485928 1_555
B29 Zr2 2.490540 1_455
B29 Zr4 2.498240 1_555
B30 B44 1.796445 1_555
B30 B36 1.800617 1_555
B30 B41 1.830834 1_555
B30 Ta6 2.445304 1_556
B30 Ta4 2.460690 1_556
B30 Hf1 2.473383 1_556
B30 Ta2 2.488785 1_555
B30 Zr4 2.494473 1_555
B30 Zr3 2.503158 1_555
B31 B42 1.809307 1_555
B31 B44 1.820891 1_555
B31 B43 1.822444 1_655
B31 Zr6 2.464311 1_556
B31 Ta5 2.466115 1_556
B31 Hf1 2.481292 1_556
B31 Zr2 2.492697 1_555
B31 Nb1 2.505737 1_555
B31 Zr3 2.509897 1_555
B32 B47 1.758668 1_555
B32 B46 1.790370 1_555
B32 B43 1.790764 1_555
B32 Ti3 2.431075 1_555
B32 Ti2 2.440503 1_555
B32 Nb1 2.445762 1_455
B32 Nb4 2.497929 1_556
B32 Nb0 2.509731 1_556
B32 Zr6 2.514944 1_456
B33 B4 1.791026 1_555
B33 B8 1.796129 1_555
B33 B5 1.807027 1_555
B33 Ta6 2.445664 1_555
B33 Ta0 2.447021 1_555
B33 Nb0 2.449787 1_555
B33 Zr7 2.478111 1_555
B33 Nb2 2.483252 1_555
B33 Nb3 2.485263 1_555
B34 B5 1.785883 1_555
B34 B9 1.811032 1_455
B34 Ta7 2.441149 1_455
B34 Ta3 2.450252 1_555
B34 Nb3 2.451510 1_555
B34 Zr6 2.478316 1_455
B34 Nb4 2.478328 1_555
B34 Nb0 2.496746 1_555
B35 B6 1.770849 1_555
B35 B9 1.800722 1_555
B35 B7 1.806457 1_555
B35 Ti1 2.424349 1_555
B35 Ti0 2.437541 1_555
B35 Ta7 2.438393 1_555
B35 Ta5 2.498801 1_555
B35 Hf1 2.503254 1_555
B35 Zr6 2.510219 1_555
B36 Ta6 2.457904 1_556
B36 Ta2 2.464054 1_555
B36 Nb0 2.464651 1_556
B36 Zr4 2.479716 1_555
B36 Ta4 2.480496 1_556
B36 Ti2 2.482256 1_555
B37 Ti3 2.443383 1_555
B37 Ta3 2.458950 1_555
B37 Nb1 2.460770 1_455
B37 Hf0 2.478902 1_455
B37 Ta7 2.485476 1_455
B37 Zr0 2.493304 1_455
B38 Ti3 2.423777 1_555
B38 Ti2 2.437157 1_555
B38 Zr1 2.463166 1_555
B38 Ta3 2.464591 1_555
B38 Nb3 2.484551 1_555
B38 Zr7 2.500491 1_555
B39 Ta2 2.461316 1_555
B39 Nb2 2.472680 1_555
B39 Hf0 2.485964 1_555
B39 Zr0 2.489978 1_555
B39 Zr1 2.491047 1_555
B39 Zr7 2.493259 1_555
B40 Ta5 2.466595 1_456
B40 Ta4 2.469331 1_556
B40 Zr5 2.475355 1_456
B40 Zr4 2.501525 1_555
B40 Zr2 2.505361 1_455
B40 Hf0 2.514091 1_445
B41 Nb4 2.473448 1_546
B41 Hf1 2.480243 1_556
B41 Ta4 2.497703 1_556
B41 Zr3 2.500641 1_555
B41 Zr4 2.501595 1_555
B41 Ti3 2.507240 1_545
B42 Hf1 2.466705 1_556
B42 Ta0 2.467311 1_546
B42 Ta5 2.473918 1_556
B42 Zr1 2.523173 1_545
B42 Zr2 2.527925 1_555
B42 Zr3 2.530319 1_555
B43 Ti2 2.459164 1_555
B43 Nb1 2.471413 1_455
B43 Nb0 2.471709 1_556
B43 Zr2 2.471783 1_455
B43 Zr6 2.483515 1_456
B43 Ta5 2.486064 1_456
B44 Ta6 2.475234 1_556
B44 Hf1 2.485277 1_556
B44 Zr6 2.493040 1_556
B44 Ta2 2.493435 1_555
B44 Zr3 2.494337 1_555
B44 Nb1 2.515647 1_555
B45 B7 1.789192 1_555
B45 B8 1.803890 1_555
B45 Ti0 2.430449 1_555
B45 Ta1 2.441888 1_555
B45 Nb2 2.450716 1_555
B45 Hf1 2.471971 1_555
B45 Ta4 2.478396 1_555
B45 Ta6 2.488714 1_555
B46 Ti3 2.447477 1_555
B46 Nb1 2.460257 1_455
B46 Hf0 2.462576 1_455
B46 Nb4 2.491468 1_556
B46 Zr6 2.503655 1_456
B46 Zr5 2.512327 1_466
B47 Ti2 2.456577 1_555
B47 Ti3 2.458115 1_555
B47 Zr1 2.464136 1_555
B47 Nb4 2.474084 1_556
B47 Nb0 2.478154 1_556
B47 Ta0 2.488127 1_556
B48 Ta6 2.459556 1_556
B48 Ta0 2.483355 1_556
B48 Ta2 2.490213 1_555
B48 Zr5 2.492742 1_566
B48 Zr1 2.498540 1_555
B48 Hf0 2.506274 1_555
B49 Ta1 2.471437 1_555
B49 Ta3 2.475999 1_545
B49 Ta4 2.476468 1_555
B49 Zr0 2.477087 1_445
B49 Zr5 2.487903 1_455
B49 Nb4 2.490575 1_545
B50 B6 1.806465 1_555
B50 Ti0 2.451786 1_555
B50 Zr7 2.460740 1_545
B50 Ta3 2.464262 1_545
B50 Hf1 2.464902 1_555
B50 Nb4 2.475796 1_545
B50 Ta0 2.483540 1_545
B51 B6 1.782433 1_555
B51 Ta5 2.462250 1_555
B51 Ti1 2.472777 1_555
B51 Zr7 2.488155 1_545
B51 Zr5 2.492541 1_555
B51 Zr0 2.495539 1_545
B51 Ta0 2.495785 1_545
B52 B9 1.785404 1_455
B52 B8 1.797543 1_555
B52 Ti1 2.439484 1_455
B52 Ta1 2.452571 1_555
B52 Nb3 2.458028 1_555
B52 Ta5 2.460051 1_455
B52 Ta4 2.467553 1_555
B52 Nb0 2.490537 1_555
B53 Ta2 2.457090 1_555
B53 Nb2 2.457139 1_555
B53 Nb3 2.461378 1_555
B53 Zr4 2.462860 1_555
B53 Ta1 2.464299 1_555
B53 Ti2 2.468384 1_555
