# generated using pymatgen
data_Na6CaZr7Si6(SO8)6
_symmetry_space_group_name_H-M   'P 1'
_cell_length_a   18.20218074
_cell_length_b   9.07018982
_cell_length_c   23.59767713
_cell_angle_alpha   90.00730862
_cell_angle_beta   89.98022417
_cell_angle_gamma   119.85229292
_symmetry_Int_Tables_number   1
_chemical_formula_structural   Na6CaZr7Si6(SO8)6
_chemical_formula_sum   'Na18 Ca3 Zr21 Si18 S18 O144'
_cell_volume   3378.96845828
_cell_formula_units_Z   3
loop_
 _symmetry_equiv_pos_site_id
 _symmetry_equiv_pos_as_xyz
  1  'x, y, z'
loop_
 _atom_site_type_symbol
 _atom_site_label
 _atom_site_symmetry_multiplicity
 _atom_site_fract_x
 _atom_site_fract_y
 _atom_site_fract_z
 _atom_site_occupancy
  Na  Na0  1  0.68937332  0.38586191  0.25308867  1
  Na  Na1  1  0.99446899  0.65585438  0.25393517  1
  Na  Na2  1  0.99549931  0.35250024  0.75513032  1
  Na  Na3  1  0.49098082  0.35455686  0.74901253  1
  Na  Na4  1  0.19635914  0.02037387  0.75528487  1
  Na  Na5  1  0.68592835  0.01115649  0.75022263  1
  Na  Na6  1  0.99672972  0.99770123  0.48786778  1
  Na  Na7  1  0.51037902  0.00260204  0.49838826  1
  Na  Na8  1  0.01624339  0.02454347  0.99858071  1
  Na  Na9  1  0.50482079  0.98378614  0.99611550  1
  Na  Na10  1  0.33042413  0.33532399  0.82186428  1
  Na  Na11  1  0.82462943  0.32192886  0.82552038  1
  Na  Na12  1  0.33376028  0.32866968  0.32638426  1
  Na  Na13  1  0.83388632  0.33767048  0.33724039  1
  Na  Na14  1  0.17496763  0.66700008  0.16450839  1
  Na  Na15  1  0.66118949  0.66270111  0.17556164  1
  Na  Na16  1  0.18326122  0.66748707  0.67263266  1
  Na  Na17  1  0.67225042  0.66234163  0.66782978  1
  Ca  Ca0  1  0.33327051  0.34219630  0.68623692  1
  Ca  Ca1  1  0.82984669  0.33401930  0.68429080  1
  Ca  Ca2  1  0.83326280  0.33171403  0.18419083  1
  Zr  Zr0  1  0.00227307  0.99049187  0.35666419  1
  Zr  Zr1  1  0.50093277  0.00954751  0.35672747  1
  Zr  Zr2  1  0.00527069  0.01445871  0.85813226  1
  Zr  Zr3  1  0.50196744  0.99748869  0.85139513  1
  Zr  Zr4  1  0.99714183  0.00497872  0.64904830  1
  Zr  Zr5  1  0.50008987  0.00100410  0.65415048  1
  Zr  Zr6  1  0.00507580  0.99661718  0.15054584  1
  Zr  Zr7  1  0.49932152  0.00063772  0.14572470  1
  Zr  Zr8  1  0.33353649  0.33649292  0.18680331  1
  Zr  Zr9  1  0.32511821  0.33118795  0.98403755  1
  Zr  Zr10  1  0.83244560  0.32329283  0.97589031  1
  Zr  Zr11  1  0.33456848  0.34385683  0.47730831  1
  Zr  Zr12  1  0.83144972  0.33006998  0.47458768  1
  Zr  Zr13  1  0.16251461  0.65720365  0.01715391  1
  Zr  Zr14  1  0.65802028  0.67097379  0.01941189  1
  Zr  Zr15  1  0.16237765  0.65715502  0.51513821  1
  Zr  Zr16  1  0.66583712  0.67007225  0.51043022  1
  Zr  Zr17  1  0.16402307  0.66279688  0.31663198  1
  Zr  Zr18  1  0.66688415  0.66342007  0.31678861  1
  Zr  Zr19  1  0.16944459  0.66777127  0.81661170  1
  Zr  Zr20  1  0.67159268  0.68014551  0.81134377  1
  Si  Si0  1  0.14925223  0.00035466  0.25188551  1
  Si  Si1  1  0.85252405  0.71326825  0.24976998  1
  Si  Si2  1  0.49921933  0.29203858  0.24962845  1
  Si  Si3  1  0.14315891  0.29379978  0.75105028  1
  Si  Si4  1  0.64594442  0.29519535  0.75263355  1
  Si  Si5  1  0.50139234  0.70778374  0.75239548  1
  Si  Si6  1  0.35175887  0.99021408  0.75249142  1
  Si  Si7  1  0.85689362  0.99896371  0.75254005  1
  Si  Si8  1  0.47623910  0.62237797  0.08339324  1
  Si  Si9  1  0.18435333  0.33597146  0.08611727  1
  Si  Si10  1  0.01959895  0.37630671  0.91527546  1
  Si  Si11  1  0.16956457  0.96130228  0.91691636  1
  Si  Si12  1  0.66190253  0.95885380  0.91617638  1
  Si  Si13  1  0.81358101  0.95653809  0.41482578  1
  Si  Si14  1  0.16687939  0.37290573  0.41539734  1
  Si  Si15  1  0.66529647  0.37375680  0.41586283  1
  Si  Si16  1  0.01986739  0.66390837  0.41678170  1
  Si  Si17  1  0.52010163  0.66750546  0.41457524  1
  S  S0  1  0.63988945  0.99439898  0.25027708  1
  S  S1  1  0.35555251  0.71371325  0.25050455  1
  S  S2  1  0.00411652  0.29335973  0.25122236  1
  S  S3  1  0.00314287  0.71738657  0.75152665  1
  S  S4  1  0.48375548  0.33216915  0.58204867  1
  S  S5  1  0.98342773  0.33427739  0.58351476  1
  S  S6  1  0.18330580  0.03133004  0.58261240  1
  S  S7  1  0.68205164  0.03048114  0.58263056  1
  S  S8  1  0.33461312  0.63811842  0.58057819  1
  S  S9  1  0.83357483  0.63566797  0.58137749  1
  S  S10  1  0.98126601  0.63105833  0.08215771  1
  S  S11  1  0.33347270  0.04245343  0.08355731  1
  S  S12  1  0.83355429  0.03304024  0.08031486  1
  S  S13  1  0.68426651  0.33360503  0.08153108  1
  S  S14  1  0.31330286  0.66738595  0.91867195  1
  S  S15  1  0.80990428  0.66337694  0.91923069  1
  S  S16  1  0.52015351  0.37566145  0.91723588  1
  S  S17  1  0.31085148  0.95741488  0.41778926  1
  O  O0  1  0.10221280  0.02130975  0.30683813  1
  O  O1  1  0.59581686  0.00914032  0.30062276  1
  O  O2  1  0.40520351  0.79459710  0.30160351  1
  O  O3  1  0.91611457  0.81395486  0.30247203  1
  O  O4  1  0.49060194  0.17167773  0.30435623  1
  O  O5  1  0.99610557  0.19524377  0.30228124  1
  O  O6  1  0.09428376  0.17567974  0.80643215  1
  O  O7  1  0.59725397  0.17343741  0.80702891  1
  O  O8  1  0.49284118  0.80500994  0.80764793  1
  O  O9  1  0.99313552  0.79630742  0.80234837  1
  O  O10  1  0.40923895  0.00905750  0.80782986  1
  O  O11  1  0.91365704  0.00591696  0.80623283  1
  O  O12  1  0.39854493  0.96606596  0.69551893  1
  O  O13  1  0.90029226  0.97416816  0.69355198  1
  O  O14  1  0.08239125  0.19519974  0.69438863  1
  O  O15  1  0.58643598  0.20733050  0.69509878  1
  O  O16  1  0.01191938  0.81896989  0.69916394  1
  O  O17  1  0.51720302  0.83001870  0.69599309  1
  O  O18  1  0.39862000  0.81568074  0.19866048  1
  O  O19  1  0.90124684  0.82365256  0.19207288  1
  O  O20  1  0.01258155  0.21155627  0.19904465  1
  O  O21  1  0.50988348  0.18796738  0.19443016  1
  O  O22  1  0.08608395  0.96291784  0.19590397  1
  O  O23  1  0.59003425  0.97877104  0.19761997  1
  O  O24  1  0.44853729  0.35081872  0.63593020  1
  O  O25  1  0.95070713  0.35737498  0.63737657  1
  O  O26  1  0.22876148  0.09894679  0.63620502  1
  O  O27  1  0.72624742  0.09888803  0.63700405  1
  O  O28  1  0.31953841  0.54150196  0.63267973  1
  O  O29  1  0.82375360  0.54278997  0.63446420  1
  O  O30  1  0.43205909  0.50768696  0.13919324  1
  O  O31  1  0.94851048  0.53969152  0.13616418  1
  O  O32  1  0.32230398  0.12216724  0.13476934  1
  O  O33  1  0.81703576  0.10021307  0.13257488  1
  O  O34  1  0.24409686  0.35215878  0.14003151  1
  O  O35  1  0.72901267  0.35783188  0.13595100  1
  O  O36  1  0.22930373  0.30854258  0.02870782  1
  O  O37  1  0.73101295  0.31154491  0.03422923  1
  O  O38  1  0.42028032  0.52948672  0.02704789  1
  O  O39  1  0.92575096  0.53307935  0.03413057  1
  O  O40  1  0.34681974  0.14669256  0.03248909  1
  O  O41  1  0.84061556  0.14490509  0.03118811  1
  O  O42  1  0.22989691  0.14326615  0.53391058  1
  O  O43  1  0.73155378  0.14241906  0.53477980  1
  O  O44  1  0.34086239  0.54181001  0.53083906  1
  O  O45  1  0.84212271  0.54330616  0.53229781  1
  O  O46  1  0.42750122  0.31945678  0.53360465  1
  O  O47  1  0.92931127  0.32034435  0.53533947  1
  O  O48  1  0.27013932  0.68221729  0.96946588  1
  O  O49  1  0.76728821  0.68316165  0.96936030  1
  O  O50  1  0.08039632  0.47135816  0.96969749  1
  O  O51  1  0.57550564  0.46459934  0.96742473  1
  O  O52  1  0.16418590  0.84345121  0.97112526  1
  O  O53  1  0.65568493  0.84000753  0.97059339  1
  O  O54  1  0.27052437  0.85315685  0.46854180  1
  O  O55  1  0.76740965  0.84060072  0.47085688  1
  O  O56  1  0.16147925  0.47610791  0.47118744  1
  O  O57  1  0.65172946  0.46509726  0.47054673  1
  O  O58  1  0.08094733  0.68547821  0.47065775  1
  O  O59  1  0.57802966  0.70054311  0.47100814  1
  O  O60  1  0.06466428  0.64103824  0.35884792  1
  O  O61  1  0.56382977  0.63762222  0.35933747  1
  O  O62  1  0.25933434  0.88089198  0.36627541  1
  O  O63  1  0.75312321  0.86867109  0.35982363  1
  O  O64  1  0.18469338  0.49783840  0.36055496  1
  O  O65  1  0.67961666  0.47907577  0.35701659  1
  O  O66  1  0.06207024  0.48165502  0.85693469  1
  O  O67  1  0.56182911  0.47459814  0.86519377  1
  O  O68  1  0.17975094  0.87143437  0.85827090  1
  O  O69  1  0.67720885  0.87501402  0.85930095  1
  O  O70  1  0.26195392  0.64537793  0.86667288  1
  O  O71  1  0.75852301  0.63558106  0.86740586  1
  O  O72  1  0.01215025  0.83312010  0.41452394  1
  O  O73  1  0.50269444  0.82640065  0.40658196  1
  O  O74  1  0.39523525  0.97243155  0.41222344  1
  O  O75  1  0.90734811  0.98107583  0.40860734  1
  O  O76  1  0.08222988  0.19243722  0.41063601  1
  O  O77  1  0.58045954  0.18319642  0.41144218  1
  O  O78  1  0.00597137  0.18434092  0.91401901  1
  O  O79  1  0.51172713  0.20471191  0.91571402  1
  O  O80  1  0.08176171  0.97005237  0.91319676  1
  O  O81  1  0.57805231  0.97796438  0.91617477  1
  O  O82  1  0.39684245  0.82226677  0.91541098  1
  O  O83  1  0.89540929  0.81261659  0.91378941  1
  O  O84  1  0.49039833  0.17352985  0.58187258  1
  O  O85  1  0.99203057  0.17699454  0.58462478  1
  O  O86  1  0.09612850  0.01012248  0.58493868  1
  O  O87  1  0.59652978  0.01731077  0.58285090  1
  O  O88  1  0.41328652  0.80685708  0.58190931  1
  O  O89  1  0.91322299  0.80803109  0.58388364  1
  O  O90  1  0.48911016  0.81545935  0.09117216  1
  O  O91  1  0.98766216  0.80171169  0.08335500  1
  O  O92  1  0.41090307  0.02365095  0.08937193  1
  O  O93  1  0.91117793  0.02201477  0.08268429  1
  O  O94  1  0.08869978  0.16957052  0.09192597  1
  O  O95  1  0.59774394  0.17674168  0.08410134  1
  O  O96  1  0.34290703  0.15825669  0.74819965  1
  O  O97  1  0.85180950  0.17242164  0.74993648  1
  O  O98  1  0.23280164  0.30360755  0.74771689  1
  O  O99  1  0.73651405  0.30512438  0.74965286  1
  O  O100  1  0.42627628  0.51574527  0.74985426  1
  O  O101  1  0.93203845  0.54207543  0.74596951  1
  O  O102  1  0.34636993  0.54212111  0.24588620  1
  O  O103  1  0.84315250  0.52201097  0.24823630  1
  O  O104  1  0.41564085  0.31135758  0.24342250  1
  O  O105  1  0.93098460  0.32245556  0.24706018  1
  O  O106  1  0.24215893  0.16525067  0.24290255  1
  O  O107  1  0.72270242  0.15334774  0.24690933  1
  O  O108  1  0.32249302  0.51387897  0.92245385  1
  O  O109  1  0.81852432  0.50827986  0.92649394  1
  O  O110  1  0.43673821  0.36343476  0.92388111  1
  O  O111  1  0.92705056  0.36511725  0.92512206  1
  O  O112  1  0.25380034  0.15071014  0.92436744  1
  O  O113  1  0.74735595  0.14810141  0.92579989  1
  O  O114  1  0.32074232  0.12879851  0.42500336  1
  O  O115  1  0.82135046  0.14355250  0.42627805  1
  O  O116  1  0.25058057  0.35036843  0.42628931  1
  O  O117  1  0.74820476  0.35081242  0.42547184  1
  O  O118  1  0.42677897  0.49413868  0.42657636  1
  O  O119  1  0.92796074  0.49403841  0.42518956  1
  O  O120  1  0.17815814  0.51044196  0.07940682  1
  O  O121  1  0.67352901  0.48295903  0.07189092  1
  O  O122  1  0.06815023  0.65586875  0.07461567  1
  O  O123  1  0.57296111  0.64678397  0.07639479  1
  O  O124  1  0.25882616  0.87042711  0.07802333  1
  O  O125  1  0.75913588  0.85920038  0.07061063  1
  O  O126  1  0.17429258  0.85896802  0.57415923  1
  O  O127  1  0.67142494  0.85734090  0.57612040  1
  O  O128  1  0.26048088  0.66547985  0.57233527  1
  O  O129  1  0.75884320  0.66011545  0.57542772  1
  O  O130  1  0.07144735  0.48457150  0.57626302  1
  O  O131  1  0.56964815  0.48362052  0.57498357  1
  O  O132  1  0.15306603  0.82108445  0.25720068  1
  O  O133  1  0.64846081  0.84182386  0.25256700  1
  O  O134  1  0.27088334  0.70085071  0.25340207  1
  O  O135  1  0.75742040  0.69043581  0.25270006  1
  O  O136  1  0.08320054  0.46737183  0.25386117  1
  O  O137  1  0.58777609  0.47367404  0.25328670  1
  O  O138  1  0.14295814  0.47469833  0.75433396  1
  O  O139  1  0.64565434  0.47430604  0.75956888  1
  O  O140  1  0.08478663  0.71259494  0.75391131  1
  O  O141  1  0.59193921  0.70612230  0.75735877  1
  O  O142  1  0.25550020  0.82236154  0.75544599  1
  O  O143  1  0.76133164  0.83315455  0.75538754  1
loop_
_geom_bond_atom_site_label_1
_geom_bond_atom_site_label_2
_geom_bond_distance
_geom_bond_site_symmetry_2
Na0 O137 2.349593 1_555
Na0 O135 2.399887 1_555
Na0 O103 2.435523 1_555
Na0 O107 2.471948 1_555
Na0 O65 2.628602 1_555
Na0 O35 2.899477 1_555
Na1 O103 2.397800 1_555
Na1 O132 2.505736 1_655
Na1 O105 2.650920 1_555
Na1 O3 2.727055 1_555
Na1 O22 2.790831 1_655
Na1 O60 2.820085 1_655
Na1 O136 2.877502 1_655
Na1 O31 2.942250 1_555
Na2 O97 2.295824 1_555
Na2 O138 2.339103 1_655
Na2 O101 2.513022 1_555
Na2 O66 2.683286 1_655
Na2 O140 2.832894 1_655
Na2 O25 2.902660 1_555
Na2 O14 2.972552 1_655
Na2 O11 2.982137 1_555
Na3 O100 2.288925 1_555
Na3 O96 2.378558 1_555
Na3 O139 2.474746 1_555
Na3 O24 2.773827 1_555
Na3 O141 2.783957 1_555
Na4 O98 2.318434 1_555
Na4 O96 2.320808 1_555
Na4 O140 2.504902 1_545
Na4 O142 2.511826 1_545
Na4 O68 2.723258 1_545
Na4 O26 2.886662 1_555
Na5 O99 2.348036 1_555
Na5 O141 2.428517 1_545
Na5 O143 2.590648 1_545
Na5 O97 2.619075 1_555
Na5 O27 2.779851 1_555
Na5 O69 2.825046 1_545
Na5 O17 2.957688 1_545
Na5 O7 2.988620 1_555
Na6 O72 2.391401 1_655
Na6 O75 2.434280 1_555
Na6 O76 2.474991 1_665
Na6 O89 2.792669 1_555
Na6 O85 2.828870 1_565
Na6 O86 2.886711 1_665
Na7 O87 2.498638 1_555
Na7 O77 2.537479 1_555
Na7 O84 2.641391 1_555
Na7 O88 2.652314 1_545
Na7 O73 2.654031 1_545
Na7 O74 2.834367 1_545
Na8 O80 2.512184 1_545
Na8 O78 2.527517 1_555
Na8 O94 2.568252 1_556
Na8 O91 2.703895 1_446
Na8 O93 2.747805 1_456
Na8 O83 2.886022 1_445
Na9 O81 2.325184 1_555
Na9 O82 2.602201 1_555
Na9 O90 2.647661 1_556
Na9 O95 2.699859 1_566
Na9 O79 2.716782 1_565
Na9 O92 2.916936 1_566
Na10 O100 2.401210 1_555
Na10 O98 2.407254 1_555
Na10 O96 2.452552 1_555
Na10 O112 2.876389 1_555
Na10 O108 2.917123 1_555
Na10 O110 3.019445 1_555
Na11 O99 2.357839 1_555
Na11 O97 2.435482 1_555
Na11 O101 2.728624 1_555
Na11 O113 2.802642 1_555
Na11 O111 2.903276 1_555
Na11 O109 2.955079 1_555
Na12 O104 2.511864 1_555
Na12 O106 2.529631 1_555
Na12 O102 2.639614 1_555
Na12 O118 2.860287 1_555
Na12 O116 2.860610 1_555
Na12 O114 2.886428 1_555
Na13 O119 2.614368 1_555
Na13 O103 2.637264 1_555
Na13 O117 2.638989 1_555
Na13 O115 2.677178 1_555
Na13 O105 2.812732 1_555
Na13 O107 2.840465 1_555
Na14 O120 2.476683 1_555
Na14 O134 2.647895 1_555
Na14 O124 2.663538 1_555
Na14 O132 2.729433 1_555
Na14 O136 2.738988 1_555
Na14 O122 2.845635 1_555
Na15 O137 2.409878 1_555
Na15 O135 2.451182 1_555
Na15 O133 2.523683 1_555
Na15 O123 2.801376 1_555
Na16 O142 2.383990 1_555
Na16 O138 2.456772 1_555
Na16 O128 2.756953 1_555
Na16 O140 2.790423 1_555
Na16 O130 2.950764 1_555
Na16 O126 2.954040 1_555
Na17 O143 2.607509 1_555
Na17 O139 2.647243 1_555
Na17 O129 2.696017 1_555
Na17 O141 2.708065 1_555
Na17 O127 2.799886 1_555
Na17 O131 2.811394 1_555
Ca0 O98 2.220968 1_555
Ca0 O100 2.223888 1_555
Ca0 O96 2.290046 1_555
Ca0 O28 2.319114 1_555
Ca0 O24 2.377473 1_555
Ca0 O26 2.388104 1_555
Ca1 O99 2.211068 1_555
Ca1 O29 2.278201 1_555
Ca1 O97 2.300470 1_555
Ca1 O27 2.312275 1_555
Ca1 O25 2.375829 1_555
Ca1 O101 2.376178 1_555
Ca2 O103 2.232909 1_555
Ca2 O31 2.302797 1_555
Ca2 O33 2.315590 1_555
Ca2 O35 2.324186 1_555
Ca2 O105 2.350009 1_555
Ca2 O107 2.369604 1_555
O0 Si0 1.616166 1_555
O0 Zr0 2.064506 1_545
O1 S0 1.476129 1_545
O1 Zr1 2.177262 1_555
O2 S1 1.466100 1_555
O2 Zr1 2.268987 1_565
O3 Si1 1.633648 1_555
O3 Zr0 2.039529 1_655
O4 Si2 1.647419 1_555
O4 Zr1 2.000275 1_555
O5 S2 1.461478 1_655
O5 Zr0 2.305801 1_645
O6 Si3 1.642533 1_555
O6 Zr2 1.972891 1_555
O7 Si4 1.636437 1_555
O7 Zr3 1.973515 1_545
O8 Si5 1.624220 1_555
O8 Zr3 1.962685 1_555
O9 S3 1.453715 1_655
O9 Zr2 2.293730 1_665
O10 Si6 1.628499 1_545
O10 Zr3 2.023436 1_545
O11 Si7 1.616441 1_545
O11 Zr2 2.039475 1_655
O12 Si6 1.662979 1_555
O12 Zr5 1.971159 1_565
O13 Si7 1.669803 1_555
O13 Zr4 1.948603 1_565
O14 Si3 1.681366 1_555
O14 Zr4 1.965904 1_455
O15 Si4 1.671252 1_555
O15 Zr5 1.994633 1_555
O16 S3 1.501627 1_555
O16 Zr4 2.184002 1_465
O17 Si5 1.663118 1_555
O17 Zr5 1.989648 1_565
O18 S1 1.498152 1_555
O18 Zr7 2.161540 1_565
O19 Si1 1.660788 1_555
O19 Zr6 2.010146 1_655
O20 S2 1.484502 1_555
O20 Zr6 2.205342 1_545
O21 Si2 1.675493 1_555
O21 Zr7 1.979744 1_555
O22 Si0 1.671744 1_565
O22 Zr6 1.965491 1_555
O23 S0 1.503428 1_555
O23 Zr7 2.143091 1_565
O24 S4 1.470901 1_555
O25 S5 1.462093 1_555
O26 S6 1.468140 1_555
O27 S7 1.477175 1_555
O28 S8 1.454480 1_555
O29 S9 1.470080 1_555
O30 Si8 1.621569 1_555
O30 Zr8 2.028842 1_555
O31 S10 1.474540 1_555
O32 S11 1.473248 1_555
O32 Zr8 2.220904 1_555
O33 S12 1.471176 1_555
O34 Si9 1.632394 1_555
O34 Zr8 2.029853 1_555
O35 S13 1.477587 1_555
O36 Si9 1.663858 1_555
O36 Zr9 1.958867 1_554
O37 S13 1.476062 1_555
O37 Zr10 2.262253 1_554
O38 Si8 1.631425 1_555
O38 Zr9 2.040752 1_554
O39 S10 1.483857 1_555
O39 Zr10 2.275440 1_554
O40 S11 1.475329 1_555
O40 Zr9 2.218656 1_554
O41 S12 1.503428 1_555
O41 Zr10 2.140806 1_554
O42 S6 1.487693 1_555
O42 Zr11 2.296122 1_555
O43 S7 1.485456 1_555
O43 Zr12 2.266837 1_555
O44 S8 1.500736 1_555
O44 Zr11 2.151109 1_555
O45 S9 1.482145 1_555
O45 Zr12 2.293136 1_555
O46 S4 1.500612 1_555
O46 Zr11 2.247121 1_555
O47 S5 1.468145 1_555
O47 Zr12 2.322548 1_555
O48 S14 1.475327 1_555
O48 Zr13 2.170623 1_556
O49 S15 1.473488 1_555
O49 Zr14 2.267715 1_556
O50 Si10 1.633426 1_555
O50 Zr13 1.955013 1_556
O51 S16 1.503320 1_555
O51 Zr14 2.113407 1_556
O52 Si11 1.638487 1_555
O52 Zr13 1.995923 1_556
O53 Si12 1.643945 1_555
O53 Zr14 1.935171 1_556
O54 S17 1.475142 1_555
O54 Zr15 2.181657 1_555
O55 Si13 1.637104 1_555
O55 Zr16 1.958299 1_555
O56 Si14 1.646295 1_555
O56 Zr15 1.935293 1_555
O57 Si15 1.617314 1_555
O57 Zr16 1.983089 1_555
O58 Si16 1.635558 1_555
O58 Zr15 1.935172 1_555
O59 Si17 1.631346 1_555
O59 Zr16 1.984226 1_555
O60 Si16 1.656631 1_555
O60 Zr17 1.986373 1_555
O61 Si17 1.618652 1_555
O61 Zr18 2.035523 1_555
O62 S17 1.480337 1_555
O62 Zr17 2.208968 1_555
O63 Si13 1.630457 1_555
O63 Zr18 2.013087 1_555
O64 Si14 1.642658 1_555
O64 Zr17 2.003888 1_555
O65 Si15 1.631251 1_555
O65 Zr18 2.033938 1_555
O66 Si10 1.634076 1_555
O66 Zr19 2.071119 1_555
O67 S16 1.486890 1_555
O67 Zr20 2.317966 1_555
O68 Si11 1.662517 1_555
O68 Zr19 2.017090 1_555
O69 Si12 1.633280 1_555
O69 Zr20 2.057881 1_555
O70 S14 1.494690 1_555
O70 Zr19 2.148053 1_555
O71 S15 1.483181 1_555
O71 Zr20 2.248465 1_555
O72 Si16 1.610211 1_555
O72 Zr0 2.046976 1_555
O73 Si17 1.633332 1_555
O73 Zr1 2.048933 1_565
O74 S17 1.478714 1_555
O74 Zr1 2.209840 1_565
O75 Si13 1.614245 1_555
O75 Zr0 2.084903 1_655
O76 Si14 1.598536 1_555
O76 Zr0 2.107625 1_545
O77 Si15 1.651017 1_555
O77 Zr1 1.993539 1_555
O78 Si10 1.632204 1_555
O78 Zr2 2.023260 1_555
O79 S16 1.480620 1_555
O79 Zr3 2.352654 1_545
O80 Si11 1.641533 1_555
O80 Zr2 2.085383 1_565
O81 Si12 1.619531 1_555
O81 Zr3 2.128801 1_555
O82 S14 1.471382 1_555
O82 Zr3 2.332473 1_555
O83 S15 1.474339 1_555
O83 Zr2 2.330161 1_665
O84 S4 1.502744 1_555
O84 Zr5 2.380040 1_555
O85 S5 1.510879 1_555
O85 Zr4 2.213433 1_555
O86 S6 1.501358 1_555
O86 Zr4 2.334886 1_455
O87 S7 1.500810 1_555
O87 Zr5 2.381960 1_555
O88 S8 1.487347 1_555
O88 Zr5 2.394717 1_565
O89 S9 1.514294 1_555
O89 Zr4 2.274512 1_565
O90 Si8 1.657429 1_555
O90 Zr7 2.049783 1_565
O91 S10 1.493589 1_555
O91 Zr6 2.276279 1_655
O92 S11 1.507897 1_555
O92 Zr7 2.176719 1_555
O93 S12 1.466352 1_555
O93 Zr6 2.435691 1_645
O94 Si9 1.646810 1_555
O94 Zr6 2.076836 1_545
O95 S13 1.509147 1_555
O95 Zr7 2.241754 1_555
O96 Si6 1.613651 1_545
O97 Si7 1.622521 1_545
O98 Si3 1.591205 1_555
O99 Si4 1.607153 1_555
O100 Si5 1.592517 1_555
O101 S3 1.473766 1_655
O102 S1 1.484287 1_555
O102 Zr8 2.245616 1_555
O103 Si1 1.656842 1_555
O104 Si2 1.622369 1_555
O104 Zr8 2.100286 1_555
O105 S2 1.483613 1_655
O106 Si0 1.619740 1_555
O106 Zr8 2.087710 1_555
O107 S0 1.481035 1_545
O108 S14 1.485417 1_555
O108 Zr9 2.222486 1_555
O109 S15 1.500929 1_555
O109 Zr10 2.159198 1_555
O110 S16 1.474604 1_555
O110 Zr9 2.373839 1_555
O111 Si10 1.652767 1_655
O111 Zr10 1.973028 1_555
O112 Si11 1.646517 1_545
O112 Zr9 2.057344 1_555
O113 Si12 1.661180 1_545
O113 Zr10 1.967655 1_555
O114 S17 1.482953 1_545
O114 Zr11 2.214177 1_555
O115 Si13 1.652699 1_545
O115 Zr12 1.971154 1_555
O116 Si14 1.655103 1_555
O116 Zr11 1.970083 1_555
O117 Si15 1.638612 1_555
O117 Zr12 1.989910 1_555
O118 Si17 1.667022 1_555
O118 Zr11 1.956968 1_555
O119 Si16 1.626568 1_655
O119 Zr12 2.013644 1_555
O120 Si9 1.649171 1_555
O120 Zr13 2.095048 1_555
O121 S13 1.479449 1_555
O121 Zr14 2.236395 1_555
O122 S10 1.492956 1_455
O122 Zr13 2.183290 1_555
O123 Si8 1.669623 1_555
O123 Zr14 1.978341 1_555
O124 S11 1.478944 1_565
O124 Zr13 2.345741 1_555
O125 S12 1.499105 1_565
O125 Zr14 2.152842 1_555
O126 S6 1.501797 1_565
O126 Zr15 2.223020 1_555
O127 S7 1.491566 1_565
O127 Zr16 2.264029 1_555
O128 S8 1.501265 1_555
O128 Zr15 2.209874 1_555
O129 S9 1.489854 1_555
O129 Zr16 2.319624 1_555
O130 S5 1.509985 1_455
O130 Zr15 2.165635 1_555
O131 S4 1.490285 1_555
O131 Zr16 2.301529 1_555
O132 Si0 1.666405 1_565
O132 Zr17 2.086531 1_555
O133 S0 1.468799 1_555
O133 Zr18 2.359822 1_555
O134 S1 1.488087 1_555
O134 Zr17 2.336360 1_555
O135 Si1 1.639322 1_555
O135 Zr18 2.158552 1_555
O136 S2 1.518333 1_555
O136 Zr17 2.214742 1_555
O137 Si2 1.635921 1_555
O137 Zr18 2.194219 1_555
O138 Si3 1.644423 1_555
O138 Zr19 2.149010 1_555
O139 Si4 1.635391 1_555
O139 Zr20 2.079328 1_555
O140 S3 1.509268 1_555
O140 Zr19 2.313965 1_555
O141 Si5 1.659881 1_555
O141 Zr20 2.030255 1_555
O142 Si6 1.654385 1_555
O142 Zr19 2.077355 1_555
O143 Si7 1.639388 1_555
O143 Zr20 2.019882 1_555
