# generated using pymatgen
data_Na14Sc4Nb4Si11SO48
_symmetry_space_group_name_H-M   'P 1'
_cell_length_a   18.32117926
_cell_length_b   9.17216212
_cell_length_c   22.64532321
_cell_angle_alpha   90.00143457
_cell_angle_beta   90.01237182
_cell_angle_gamma   119.99091241
_symmetry_Int_Tables_number   1
_chemical_formula_structural   Na14Sc4Nb4Si11SO48
_chemical_formula_sum   'Na42 Sc12 Nb12 Si33 S3 O144'
_cell_volume   3295.90016716
_cell_formula_units_Z   3
loop_
 _symmetry_equiv_pos_site_id
 _symmetry_equiv_pos_as_xyz
  1  'x, y, z'
loop_
 _atom_site_type_symbol
 _atom_site_label
 _atom_site_symmetry_multiplicity
 _atom_site_fract_x
 _atom_site_fract_y
 _atom_site_fract_z
 _atom_site_occupancy
  Na  Na0  1  0.32197940  0.99977700  0.25003158  1
  Na  Na1  1  0.82251432  0.00019946  0.24998558  1
  Na  Na2  1  0.31989487  0.63305736  0.74930531  1
  Na  Na3  1  0.82192857  0.64319530  0.74913397  1
  Na  Na4  1  0.49478822  0.36165149  0.74871073  1
  Na  Na5  1  0.68192293  0.00298825  0.75066337  1
  Na  Na6  1  0.15020888  0.32589037  0.58346534  1
  Na  Na7  1  0.65219747  0.33144582  0.58242585  1
  Na  Na8  1  0.01553974  0.70578191  0.58462501  1
  Na  Na9  1  0.51185287  0.69113565  0.58316638  1
  Na  Na10  1  0.33209441  0.97636312  0.58311140  1
  Na  Na11  1  0.83863602  0.97176403  0.58513217  1
  Na  Na12  1  0.14744446  0.95956960  0.08155242  1
  Na  Na13  1  0.64728209  0.95969906  0.08144543  1
  Na  Na14  1  0.33251058  0.70759918  0.08334361  1
  Na  Na15  1  0.83257384  0.70745752  0.08370842  1
  Na  Na16  1  0.02156659  0.33503177  0.08340262  1
  Na  Na17  1  0.52124856  0.33450068  0.08346147  1
  Na  Na18  1  0.48477676  0.67636782  0.91514881  1
  Na  Na19  1  0.98574202  0.67474403  0.91506145  1
  Na  Na20  1  0.35305688  0.02879336  0.91537073  1
  Na  Na21  1  0.85263984  0.02987562  0.91517822  1
  Na  Na22  1  0.16264485  0.29867148  0.91729070  1
  Na  Na23  1  0.66143011  0.29386860  0.91556403  1
  Na  Na24  1  0.47826777  0.29260161  0.41643977  1
  Na  Na25  1  0.97946542  0.29333739  0.41655633  1
  Na  Na26  1  0.16753397  0.04065566  0.41942395  1
  Na  Na27  1  0.66759329  0.04015180  0.41820884  1
  Na  Na28  1  0.35345263  0.66447686  0.41670415  1
  Na  Na29  1  0.85438963  0.66568181  0.41641454  1
  Na  Na30  1  0.00125095  0.00025856  0.50023178  1
  Na  Na31  1  0.49942080  0.99916046  0.49619633  1
  Na  Na32  1  0.00039316  0.00139665  0.00020238  1
  Na  Na33  1  0.49981961  0.99990954  0.99957374  1
  Na  Na34  1  0.33297347  0.32718862  0.82969819  1
  Na  Na35  1  0.83753475  0.33436658  0.83233474  1
  Na  Na36  1  0.33619593  0.34315726  0.33611399  1
  Na  Na37  1  0.83670759  0.34381235  0.33573342  1
  Na  Na38  1  0.16478895  0.65664916  0.16428450  1
  Na  Na39  1  0.66476073  0.65658180  0.16419696  1
  Na  Na40  1  0.16425281  0.67262916  0.66800726  1
  Na  Na41  1  0.66693518  0.66689306  0.66673943  1
  Sc  Sc0  1  0.99369138  0.99583228  0.35239256  1
  Sc  Sc1  1  0.49319048  0.99526509  0.35192967  1
  Sc  Sc2  1  0.99488839  0.99286210  0.85107591  1
  Sc  Sc3  1  0.49949074  0.99980820  0.85122456  1
  Sc  Sc4  1  0.99763597  0.98970063  0.64822147  1
  Sc  Sc5  1  0.99577168  0.00469620  0.14768141  1
  Sc  Sc6  1  0.49552374  0.00449420  0.14751164  1
  Sc  Sc7  1  0.33326069  0.32534757  0.68173854  1
  Sc  Sc8  1  0.33359823  0.33275821  0.48200665  1
  Sc  Sc9  1  0.83380323  0.33314735  0.48099721  1
  Sc  Sc10  1  0.16715349  0.66587793  0.01907484  1
  Sc  Sc11  1  0.66711449  0.66641360  0.01934056  1
  Nb  Nb0  1  0.49797560  0.99765280  0.64892143  1
  Nb  Nb1  1  0.83832814  0.33721141  0.68619488  1
  Nb  Nb2  1  0.33903073  0.34804987  0.18581991  1
  Nb  Nb3  1  0.83924391  0.34844336  0.18582310  1
  Nb  Nb4  1  0.33334632  0.33433102  0.98014886  1
  Nb  Nb5  1  0.83316948  0.33254571  0.98043866  1
  Nb  Nb6  1  0.16657413  0.66937768  0.51930856  1
  Nb  Nb7  1  0.66691254  0.66678216  0.51898821  1
  Nb  Nb8  1  0.16503636  0.65157189  0.31441016  1
  Nb  Nb9  1  0.66498800  0.65192664  0.31412821  1
  Nb  Nb10  1  0.16522995  0.67556789  0.81610350  1
  Nb  Nb11  1  0.66705614  0.66898829  0.81468563  1
  Si  Si0  1  0.35326118  0.70613406  0.25019604  1
  Si  Si1  1  0.85340970  0.70638165  0.25024263  1
  Si  Si2  1  0.00029938  0.29383962  0.24981028  1
  Si  Si3  1  0.50016101  0.29364394  0.24977284  1
  Si  Si4  1  0.64689583  0.29325170  0.75067270  1
  Si  Si5  1  0.00239167  0.70810262  0.74987207  1
  Si  Si6  1  0.49796719  0.70343692  0.75151406  1
  Si  Si7  1  0.35094206  0.00010747  0.75207703  1
  Si  Si8  1  0.85468969  0.00319263  0.75000079  1
  Si  Si9  1  0.47996361  0.33297776  0.58301113  1
  Si  Si10  1  0.98039215  0.33199975  0.58139349  1
  Si  Si11  1  0.18659682  0.04274358  0.58190272  1
  Si  Si12  1  0.68765397  0.04286159  0.58309657  1
  Si  Si13  1  0.33273731  0.62394597  0.58390809  1
  Si  Si14  1  0.83355191  0.62451185  0.58219801  1
  Si  Si15  1  0.48078602  0.62872486  0.08232456  1
  Si  Si16  1  0.98083511  0.62883279  0.08215287  1
  Si  Si17  1  0.33239336  0.04338093  0.08467975  1
  Si  Si18  1  0.83249033  0.04301133  0.08498020  1
  Si  Si19  1  0.18737753  0.33141739  0.08403102  1
  Si  Si20  1  0.68743590  0.33146025  0.08405684  1
  Si  Si21  1  0.31220244  0.66704743  0.91719052  1
  Si  Si22  1  0.81275429  0.66654333  0.91811639  1
  Si  Si23  1  0.02141577  0.37391055  0.91812055  1
  Si  Si24  1  0.52086857  0.37449466  0.91816211  1
  Si  Si25  1  0.16600393  0.96100107  0.91914371  1
  Si  Si26  1  0.66596043  0.95873946  0.91875628  1
  Si  Si27  1  0.31114866  0.95781284  0.41498193  1
  Si  Si28  1  0.81119596  0.95740929  0.41504439  1
  Si  Si29  1  0.16649616  0.37135117  0.41821515  1
  Si  Si30  1  0.66645910  0.37103774  0.41747169  1
  Si  Si31  1  0.02122577  0.66807946  0.41562369  1
  Si  Si32  1  0.52133217  0.66816042  0.41595323  1
  S  S0  1  0.14677855  0.00002932  0.25002209  1
  S  S1  1  0.64682163  0.00011568  0.25017911  1
  S  S2  1  0.14657506  0.29448506  0.75071774  1
  O  O0  1  0.10830877  0.02469532  0.30344612  1
  O  O1  1  0.60836324  0.02456894  0.30354242  1
  O  O2  1  0.40868554  0.78468687  0.30962471  1
  O  O3  1  0.90861834  0.78486176  0.30965798  1
  O  O4  1  0.48135245  0.17698589  0.30828194  1
  O  O5  1  0.98096847  0.17670830  0.30824360  1
  O  O6  1  0.10672357  0.19280130  0.80410998  1
  O  O7  1  0.60828902  0.17730182  0.80818409  1
  O  O8  1  0.48468713  0.79153629  0.80861727  1
  O  O9  1  0.98150598  0.78305541  0.80830384  1
  O  O10  1  0.41064469  0.03118283  0.80861639  1
  O  O11  1  0.90788535  0.03160184  0.80980667  1
  O  O12  1  0.40013315  0.96912930  0.69350150  1
  O  O13  1  0.89185076  0.96098774  0.69175607  1
  O  O14  1  0.09582404  0.21727346  0.69694117  1
  O  O15  1  0.58465369  0.20090249  0.69253063  1
  O  O16  1  0.01613250  0.81541124  0.69036958  1
  O  O17  1  0.51592122  0.83159452  0.69313790  1
  O  O18  1  0.39297618  0.82340229  0.19176922  1
  O  O19  1  0.89272468  0.82321153  0.19169887  1
  O  O20  1  0.01603112  0.21474090  0.19037397  1
  O  O21  1  0.51627800  0.21500285  0.19039020  1
  O  O22  1  0.09593472  0.97539197  0.19628170  1
  O  O23  1  0.59588139  0.97524114  0.19633179  1
  O  O24  1  0.44323549  0.37543103  0.64158759  1
  O  O25  1  0.93125504  0.36567598  0.63820312  1
  O  O26  1  0.24987216  0.12150197  0.63771247  1
  O  O27  1  0.74876583  0.13237911  0.64114747  1
  O  O28  1  0.31345624  0.51007770  0.64275781  1
  O  O29  1  0.81594114  0.49951735  0.64055592  1
  O  O30  1  0.43042511  0.49955999  0.13866444  1
  O  O31  1  0.93038957  0.49970719  0.13855284  1
  O  O32  1  0.31922694  0.14009374  0.14173381  1
  O  O33  1  0.81915409  0.13999316  0.14177019  1
  O  O34  1  0.25250079  0.35803649  0.13889625  1
  O  O35  1  0.75255189  0.35803810  0.13885861  1
  O  O36  1  0.23596665  0.30562346  0.02504660  1
  O  O37  1  0.73631934  0.30596466  0.02503372  1
  O  O38  1  0.41715359  0.52999353  0.02524796  1
  O  O39  1  0.91702004  0.52972300  0.02506829  1
  O  O40  1  0.34667337  0.16841928  0.02613734  1
  O  O41  1  0.84667812  0.16793426  0.02624393  1
  O  O42  1  0.22712799  0.15643465  0.52279105  1
  O  O43  1  0.72471155  0.15760518  0.52481137  1
  O  O44  1  0.35493362  0.55107837  0.52552433  1
  O  O45  1  0.84930557  0.54072084  0.52458031  1
  O  O46  1  0.42224430  0.29172618  0.52453052  1
  O  O47  1  0.92086685  0.29601600  0.52437119  1
  O  O48  1  0.27036075  0.69938751  0.97489213  1
  O  O49  1  0.77125025  0.70056378  0.97518674  1
  O  O50  1  0.07835821  0.45602423  0.97624835  1
  O  O51  1  0.57939282  0.45947838  0.97525654  1
  O  O52  1  0.14806566  0.84211470  0.97583049  1
  O  O53  1  0.65043898  0.84202276  0.97573720  1
  O  O54  1  0.26319765  0.83331331  0.47328730  1
  O  O55  1  0.76303159  0.83279980  0.47380365  1
  O  O56  1  0.15181404  0.46922856  0.47498528  1
  O  O57  1  0.65276314  0.47059038  0.47446014  1
  O  O58  1  0.08241728  0.69305615  0.47415779  1
  O  O59  1  0.58284799  0.69351903  0.47508839  1
  O  O60  1  0.07308844  0.64124685  0.36080301  1
  O  O61  1  0.57347054  0.64203650  0.36121915  1
  O  O62  1  0.24953553  0.86048225  0.35797141  1
  O  O63  1  0.74925187  0.86017126  0.35828302  1
  O  O64  1  0.18049958  0.50016824  0.36145275  1
  O  O65  1  0.68040960  0.50013232  0.36120011  1
  O  O66  1  0.06989922  0.50581862  0.86157356  1
  O  O67  1  0.56750603  0.50129025  0.85923089  1
  O  O68  1  0.18402670  0.86528437  0.86148214  1
  O  O69  1  0.68266420  0.86549346  0.85980901  1
  O  O70  1  0.24914849  0.63126261  0.85873480  1
  O  O71  1  0.75007491  0.63403654  0.85898771  1
  O  O72  1  0.01752273  0.84069648  0.41204287  1
  O  O73  1  0.51807827  0.84141145  0.41269159  1
  O  O74  1  0.40276006  0.96817542  0.41375395  1
  O  O75  1  0.90254639  0.96796311  0.41379714  1
  O  O76  1  0.08176800  0.19053697  0.41175569  1
  O  O77  1  0.58148279  0.19049637  0.41229839  1
  O  O78  1  0.01057484  0.18860564  0.90957641  1
  O  O79  1  0.50908692  0.18861253  0.91082841  1
  O  O80  1  0.08621357  0.98757278  0.90849551  1
  O  O81  1  0.58515320  0.98349773  0.91151160  1
  O  O82  1  0.40608551  0.82914249  0.91102225  1
  O  O83  1  0.90636136  0.82961602  0.91106701  1
  O  O84  1  0.49230291  0.16535928  0.59160171  1
  O  O85  1  0.99330660  0.17191811  0.59176186  1
  O  O86  1  0.09253600  0.01919055  0.58841533  1
  O  O87  1  0.59219877  0.01780101  0.59287359  1
  O  O88  1  0.41735513  0.81784133  0.59200850  1
  O  O89  1  0.91473853  0.81222727  0.58884439  1
  O  O90  1  0.48612051  0.80909765  0.08810612  1
  O  O91  1  0.98591845  0.80896035  0.08792650  1
  O  O92  1  0.41857044  0.03253774  0.08619603  1
  O  O93  1  0.91867188  0.03253082  0.08611196  1
  O  O94  1  0.09722827  0.15870779  0.08759495  1
  O  O95  1  0.59735871  0.15877395  0.08760437  1
  O  O96  1  0.34482500  0.16875503  0.74421853  1
  O  O97  1  0.83749033  0.16412901  0.74229422  1
  O  O98  1  0.23302993  0.31804039  0.74624291  1
  O  O99  1  0.74132019  0.31650244  0.74100585  1
  O  O100  1  0.41529914  0.51847201  0.74468759  1
  O  O101  1  0.91448397  0.51880494  0.74159785  1
  O  O102  1  0.33959572  0.51355470  0.24178209  1
  O  O103  1  0.83949098  0.51355247  0.24180207  1
  O  O104  1  0.41200149  0.30548346  0.24209302  1
  O  O105  1  0.91199894  0.30569655  0.24199847  1
  O  O106  1  0.23400727  0.15083618  0.24467334  1
  O  O107  1  0.73400318  0.15067183  0.24477367  1
  O  O108  1  0.31854119  0.49150566  0.92209838  1
  O  O109  1  0.81906353  0.49205048  0.92142501  1
  O  O110  1  0.42733839  0.36303720  0.92194498  1
  O  O111  1  0.92740292  0.36144720  0.92197532  1
  O  O112  1  0.25433339  0.14567428  0.92198399  1
  O  O113  1  0.75437394  0.14534529  0.92185682  1
  O  O114  1  0.31846441  0.14090422  0.41908960  1
  O  O115  1  0.81732615  0.13925545  0.41965057  1
  O  O116  1  0.25307051  0.36544229  0.41990248  1
  O  O117  1  0.75248328  0.36378941  0.41934044  1
  O  O118  1  0.43078978  0.49760198  0.41969538  1
  O  O119  1  0.93036190  0.49734569  0.41936218  1
  O  O120  1  0.18203622  0.50201555  0.08077337  1
  O  O121  1  0.68214800  0.50200178  0.08067300  1
  O  O122  1  0.07042926  0.63594589  0.08064055  1
  O  O123  1  0.57043439  0.63583230  0.08069396  1
  O  O124  1  0.24803130  0.86042214  0.08065229  1
  O  O125  1  0.74811193  0.86024505  0.08090302  1
  O  O126  1  0.17674730  0.85037337  0.57480070  1
  O  O127  1  0.67788494  0.85267055  0.57845631  1
  O  O128  1  0.24950982  0.65001730  0.57583146  1
  O  O129  1  0.74656492  0.63997162  0.57794177  1
  O  O130  1  0.07322145  0.50743337  0.57818885  1
  O  O131  1  0.57586289  0.50160970  0.57579037  1
  O  O132  1  0.15869941  0.84953650  0.25514618  1
  O  O133  1  0.65867326  0.84938827  0.25526064  1
  O  O134  1  0.25923699  0.69455916  0.25787986  1
  O  O135  1  0.75917873  0.69456708  0.25801199  1
  O  O136  1  0.08289869  0.48649119  0.25809520  1
  O  O137  1  0.58279232  0.48647149  0.25826389  1
  O  O138  1  0.15647569  0.46767146  0.75586668  1
  O  O139  1  0.65517336  0.48182547  0.75484245  1
  O  O140  1  0.08515316  0.68112716  0.75860494  1
  O  O141  1  0.58623416  0.69205119  0.75526188  1
  O  O142  1  0.26024865  0.81811773  0.75589200  1
  O  O143  1  0.75791000  0.83096962  0.75801813  1
loop_
_geom_bond_atom_site_label_1
_geom_bond_atom_site_label_2
_geom_bond_distance
_geom_bond_site_symmetry_2
Na0 O134 2.444000 1_555
Na0 O104 2.447790 1_565
Na0 O132 2.596206 1_555
Na0 O106 2.600894 1_565
Na0 O62 2.770378 1_555
Na0 O32 2.781793 1_565
Na0 O18 2.855533 1_555
Na0 O4 2.856798 1_565
Na1 O105 2.445336 1_555
Na1 O135 2.446665 1_545
Na1 O107 2.604967 1_555
Na1 O133 2.605252 1_545
Na1 O33 2.780677 1_555
Na1 O63 2.782761 1_545
Na1 O5 2.844097 1_555
Na1 O19 2.849632 1_545
Na2 O142 2.439686 1_555
Na2 O100 2.450994 1_555
Na2 O98 2.507783 1_555
Na2 O138 2.597517 1_555
Na2 O28 2.640948 1_555
Na2 O70 2.793056 1_555
Na2 O8 2.939921 1_555
Na2 O12 2.954762 1_555
Na3 O101 2.478025 1_555
Na3 O143 2.530231 1_555
Na3 O99 2.601841 1_555
Na3 O139 2.649689 1_555
Na3 O29 2.765782 1_555
Na3 O71 2.796331 1_555
Na3 O13 2.844919 1_555
Na3 O9 2.870098 1_555
Na4 O96 2.414451 1_555
Na4 O100 2.508445 1_555
Na4 O139 2.574975 1_555
Na4 O24 2.628902 1_555
Na4 O141 2.633777 1_555
Na4 O67 2.823423 1_555
Na4 O10 2.955354 1_555
Na4 O15 2.988459 1_555
Na5 O97 2.476441 1_555
Na5 O141 2.493916 1_545
Na5 O99 2.524449 1_555
Na5 O143 2.578980 1_545
Na5 O27 2.758115 1_555
Na5 O69 2.777927 1_545
Na5 O7 2.868783 1_555
Na5 O17 2.938787 1_545
Na6 O86 2.463948 1_555
Na6 O85 2.496985 1_455
Na6 O128 2.602136 1_555
Na6 O130 2.669169 1_555
Na6 O14 2.756358 1_555
Na6 O56 2.779499 1_555
Na6 O42 2.912059 1_555
Na6 O28 2.923873 1_555
Na7 O129 2.473130 1_555
Na7 O87 2.525669 1_555
Na7 O84 2.546450 1_555
Na7 O131 2.568388 1_555
Na7 O57 2.755632 1_555
Na7 O15 2.775257 1_555
Na7 O43 2.850982 1_555
Na7 O29 2.912719 1_555
Na8 O89 2.485092 1_455
Na8 O86 2.491339 1_565
Na8 O130 2.523886 1_555
Na8 O126 2.572151 1_555
Na8 O16 2.595068 1_555
Na8 O58 2.813724 1_555
Na8 O25 2.961948 1_455
Na8 O45 2.967341 1_455
Na9 O88 2.529784 1_555
Na9 O131 2.542298 1_555
Na9 O87 2.604434 1_565
Na9 O127 2.637080 1_555
Na9 O59 2.766831 1_555
Na9 O17 2.787626 1_555
Na9 O44 2.815231 1_555
Na9 O24 2.842059 1_555
Na10 O126 2.486567 1_555
Na10 O84 2.563278 1_565
Na10 O128 2.597774 1_555
Na10 O88 2.620163 1_555
Na10 O26 2.752426 1_565
Na10 O54 2.800498 1_555
Na10 O12 2.808689 1_555
Na10 O46 2.842470 1_565
Na11 O89 2.476287 1_555
Na11 O85 2.494374 1_565
Na11 O127 2.583320 1_555
Na11 O13 2.624045 1_555
Na11 O129 2.645964 1_555
Na11 O55 2.851730 1_555
Na11 O47 2.920594 1_565
Na11 O27 2.985996 1_565
Na12 O94 2.425157 1_565
Na12 O124 2.428794 1_555
Na12 O91 2.569068 1_455
Na12 O122 2.571993 1_555
Na12 O52 2.627666 1_554
Na12 O22 2.792786 1_555
Na13 O95 2.420708 1_565
Na13 O125 2.435069 1_555
Na13 O90 2.563551 1_555
Na13 O123 2.574018 1_555
Na13 O53 2.638359 1_554
Na13 O23 2.794805 1_555
Na14 O120 2.441771 1_555
Na14 O90 2.485811 1_555
Na14 O124 2.555968 1_555
Na14 O92 2.583590 1_565
Na14 O18 2.684479 1_555
Na14 O48 2.691988 1_554
Na15 O121 2.441138 1_555
Na15 O91 2.480708 1_555
Na15 O125 2.555475 1_555
Na15 O93 2.584429 1_565
Na15 O19 2.674148 1_555
Na15 O49 2.689502 1_554
Na16 O122 2.439874 1_555
Na16 O93 2.454970 1_455
Na16 O120 2.547808 1_555
Na16 O94 2.605260 1_555
Na16 O20 2.642729 1_555
Na16 O50 2.655023 1_554
Na17 O123 2.442336 1_555
Na17 O92 2.450496 1_555
Na17 O121 2.554732 1_555
Na17 O95 2.607293 1_555
Na17 O21 2.640723 1_555
Na17 O51 2.689508 1_554
Na18 O82 2.463835 1_555
Na18 O81 2.478995 1_555
Na18 O110 2.523311 1_555
Na18 O8 2.633932 1_555
Na18 O108 2.648237 1_555
Na18 O38 2.809316 1_556
Na18 O53 2.964940 1_555
Na18 O67 2.985557 1_555
Na19 O83 2.491276 1_555
Na19 O111 2.520728 1_555
Na19 O80 2.522567 1_655
Na19 O9 2.629579 1_555
Na19 O109 2.653026 1_555
Na19 O39 2.808482 1_556
Na19 O52 2.920407 1_655
Na19 O66 2.938395 1_655
Na20 O82 2.466916 1_545
Na20 O79 2.478332 1_555
Na20 O112 2.526233 1_555
Na20 O10 2.633609 1_555
Na20 O110 2.664926 1_555
Na20 O40 2.845224 1_556
Na20 O48 2.943744 1_545
Na20 O68 2.946844 1_545
Na21 O83 2.481670 1_545
Na21 O113 2.508421 1_555
Na21 O78 2.509382 1_655
Na21 O11 2.589125 1_555
Na21 O111 2.642780 1_555
Na21 O41 2.842445 1_556
Na21 O49 2.948202 1_545
Na21 O69 2.974485 1_545
Na22 O78 2.449474 1_555
Na22 O80 2.479504 1_545
Na22 O108 2.499507 1_555
Na22 O112 2.675647 1_555
Na22 O6 2.750601 1_555
Na22 O36 2.770558 1_556
Na22 O50 2.911891 1_555
Na22 O70 2.956998 1_555
Na23 O79 2.457605 1_555
Na23 O81 2.467428 1_545
Na23 O109 2.532608 1_555
Na23 O7 2.638590 1_555
Na23 O113 2.663605 1_555
Na23 O37 2.808294 1_556
Na23 O51 2.945659 1_555
Na23 O71 2.991520 1_555
Na24 O118 2.435723 1_555
Na24 O77 2.496480 1_555
Na24 O114 2.537519 1_555
Na24 O74 2.580066 1_545
Na24 O46 2.652908 1_555
Na24 O4 2.680765 1_555
Na25 O119 2.449022 1_555
Na25 O76 2.486118 1_655
Na25 O115 2.574804 1_555
Na25 O75 2.586853 1_545
Na25 O47 2.672385 1_555
Na25 O5 2.681523 1_555
Na26 O72 2.430184 1_545
Na26 O114 2.439280 1_555
Na26 O76 2.559025 1_555
Na26 O42 2.576569 1_555
Na26 O116 2.581323 1_555
Na26 O0 2.817181 1_555
Na27 O73 2.418684 1_545
Na27 O115 2.420734 1_555
Na27 O77 2.565804 1_555
Na27 O117 2.572111 1_555
Na27 O43 2.637241 1_555
Na27 O1 2.790045 1_555
Na28 O116 2.422323 1_555
Na28 O74 2.462576 1_555
Na28 O118 2.554027 1_555
Na28 O73 2.616432 1_555
Na28 O2 2.646762 1_555
Na28 O44 2.680204 1_555
Na29 O117 2.447298 1_555
Na29 O75 2.454303 1_555
Na29 O119 2.544461 1_555
Na29 O72 2.592913 1_655
Na29 O3 2.634757 1_555
Na29 O45 2.686200 1_555
Na30 O86 2.554062 1_555
Na30 O75 2.579165 1_445
Na30 O72 2.579799 1_545
Na30 O76 2.581465 1_555
Na30 O89 2.604243 1_445
Na30 O85 2.650561 1_455
Na31 O74 2.489542 1_555
Na31 O73 2.506154 1_555
Na31 O77 2.512672 1_565
Na31 O84 2.684624 1_565
Na31 O88 2.689952 1_555
Na31 O87 2.723852 1_565
Na32 O93 2.556696 1_455
Na32 O94 2.566166 1_555
Na32 O91 2.581579 1_445
Na32 O83 2.609499 1_444
Na32 O78 2.622048 1_554
Na32 O80 2.646096 1_544
Na33 O92 2.569021 1_566
Na33 O81 2.584636 1_555
Na33 O95 2.585686 1_566
Na33 O90 2.589729 1_556
Na33 O82 2.594779 1_555
Na33 O79 2.601891 1_565
Na34 O96 2.494264 1_555
Na34 O100 2.532790 1_555
Na34 O98 2.603155 1_555
Na34 O112 2.611229 1_555
Na34 O110 2.625065 1_555
Na34 O108 2.667986 1_555
Na35 O111 2.546166 1_555
Na35 O97 2.567916 1_555
Na35 O101 2.586227 1_555
Na35 O109 2.601153 1_555
Na35 O113 2.607237 1_555
Na35 O99 2.668553 1_555
Na36 O118 2.477247 1_555
Na36 O116 2.504757 1_555
Na36 O114 2.544711 1_555
Na36 O102 2.629206 1_555
Na36 O104 2.657545 1_555
Na36 O106 2.757021 1_555
Na37 O119 2.469123 1_555
Na37 O117 2.506636 1_555
Na37 O115 2.567490 1_555
Na37 O103 2.621432 1_555
Na37 O105 2.648408 1_555
Na37 O107 2.754528 1_555
Na38 O120 2.477109 1_555
Na38 O122 2.506571 1_555
Na38 O124 2.560810 1_555
Na38 O136 2.619233 1_555
Na38 O134 2.646566 1_555
Na38 O132 2.751986 1_555
Na39 O121 2.478081 1_555
Na39 O123 2.503648 1_555
Na39 O125 2.555175 1_555
Na39 O137 2.624200 1_555
Na39 O135 2.650093 1_555
Na39 O133 2.754903 1_555
Na40 O140 2.535661 1_555
Na40 O142 2.546923 1_555
Na40 O130 2.585815 1_555
Na40 O126 2.606259 1_555
Na40 O128 2.676785 1_555
Na40 O138 2.691728 1_555
Na41 O139 2.557932 1_555
Na41 O129 2.567938 1_555
Na41 O127 2.568890 1_555
Na41 O141 2.569078 1_555
Na41 O131 2.606471 1_555
Na41 O143 2.608879 1_555
Nb0 O12 1.957783 1_555
Nb0 O17 1.982711 1_555
Nb0 O15 2.003014 1_565
Nb0 O88 2.031376 1_555
Nb0 O84 2.054675 1_565
Nb0 O87 2.075365 1_565
Nb1 O25 1.924661 1_555
Nb1 O101 1.992709 1_555
Nb1 O29 2.015666 1_555
Nb1 O97 2.027351 1_555
Nb1 O27 2.044521 1_555
Nb1 O99 2.097367 1_555
Nb2 O30 1.884101 1_555
Nb2 O34 1.948137 1_555
Nb2 O102 1.973508 1_555
Nb2 O32 2.018518 1_555
Nb2 O104 2.021082 1_555
Nb2 O106 2.296141 1_555
Nb3 O31 1.882547 1_555
Nb3 O35 1.949498 1_555
Nb3 O103 1.973187 1_555
Nb3 O105 2.017559 1_555
Nb3 O33 2.020492 1_555
Nb3 O107 2.301075 1_555
Nb4 O36 1.953781 1_556
Nb4 O40 1.957396 1_556
Nb4 O38 1.966159 1_556
Nb4 O108 2.066603 1_555
Nb4 O112 2.078356 1_555
Nb4 O110 2.078394 1_555
Nb5 O41 1.946885 1_556
Nb5 O37 1.948358 1_556
Nb5 O39 1.968229 1_556
Nb5 O113 2.076807 1_555
Nb5 O111 2.084992 1_555
Nb5 O109 2.090701 1_555
Nb6 O58 1.950383 1_555
Nb6 O54 1.954645 1_555
Nb6 O56 1.988522 1_555
Nb6 O126 2.015028 1_555
Nb6 O128 2.060976 1_555
Nb6 O130 2.090630 1_555
Nb7 O55 1.945999 1_555
Nb7 O59 1.948710 1_555
Nb7 O57 1.963573 1_555
Nb7 O131 2.051087 1_555
Nb7 O129 2.080944 1_555
Nb7 O127 2.101922 1_555
Nb8 O64 1.880654 1_555
Nb8 O60 1.947261 1_555
Nb8 O136 1.976026 1_555
Nb8 O62 2.018679 1_555
Nb8 O134 2.023248 1_555
Nb8 O132 2.307030 1_555
Nb9 O65 1.883550 1_555
Nb9 O61 1.950765 1_555
Nb9 O137 1.971191 1_555
Nb9 O135 2.017930 1_555
Nb9 O63 2.020581 1_555
Nb9 O133 2.297885 1_555
Nb10 O68 1.898219 1_555
Nb10 O66 1.953755 1_555
Nb10 O140 1.980997 1_555
Nb10 O70 2.021140 1_555
Nb10 O142 2.079628 1_555
Nb10 O138 2.283983 1_555
Nb11 O69 1.964433 1_555
Nb11 O67 1.976421 1_555
Nb11 O71 1.977253 1_555
Nb11 O143 2.038007 1_555
Nb11 O141 2.088183 1_555
Nb11 O139 2.111165 1_555
O0 S0 1.473546 1_555
O0 Sc0 2.270151 1_445
O1 S1 1.471536 1_555
O1 Sc1 2.271440 1_545
O2 Si0 1.621513 1_555
O2 Sc1 2.013722 1_555
O3 Si1 1.619581 1_555
O3 Sc0 2.023448 1_555
O4 Si3 1.628135 1_555
O4 Sc1 2.040473 1_545
O5 Si2 1.628037 1_655
O5 Sc0 2.047639 1_545
O6 S2 1.478002 1_555
O6 Sc2 2.221938 1_445
O7 Si4 1.604974 1_555
O7 Sc3 2.080949 1_545
O8 Si6 1.606536 1_555
O8 Sc3 2.033616 1_555
O9 Si5 1.622680 1_655
O9 Sc2 2.056606 1_555
O10 Si7 1.613903 1_555
O10 Sc3 2.032498 1_545
O11 Si8 1.611668 1_555
O11 Sc2 2.026349 1_545
O12 Si7 1.705570 1_565
O13 Si8 1.617690 1_565
O13 Sc4 2.070772 1_555
O14 S2 1.479955 1_555
O14 Sc4 2.248423 1_445
O15 Si4 1.668853 1_555
O16 Si5 1.612531 1_555
O16 Sc4 2.030494 1_455
O17 Si6 1.688554 1_555
O18 Si0 1.629419 1_555
O18 Sc6 2.043117 1_565
O19 Si1 1.628971 1_555
O19 Sc5 2.046438 1_565
O20 Si2 1.621788 1_555
O20 Sc5 2.017164 1_455
O21 Si3 1.621375 1_555
O21 Sc6 2.020212 1_555
O22 S0 1.479479 1_565
O22 Sc5 2.267898 1_465
O23 S1 1.482096 1_565
O23 Sc6 2.273165 1_565
O24 Si9 1.620582 1_555
O24 Sc7 2.042770 1_555
O25 Si10 1.685036 1_555
O26 Si11 1.620228 1_555
O26 Sc7 1.991838 1_555
O27 Si12 1.654127 1_555
O28 Si13 1.619580 1_555
O28 Sc7 2.096743 1_555
O29 Si14 1.671945 1_555
O30 Si15 1.670454 1_555
O31 Si16 1.671646 1_555
O32 Si17 1.651774 1_555
O33 Si18 1.649909 1_555
O34 Si19 1.653771 1_555
O35 Si20 1.652686 1_555
O36 Si19 1.686312 1_555
O37 Si20 1.689131 1_555
O38 Si15 1.671423 1_555
O39 Si16 1.673662 1_555
O40 Si17 1.685684 1_555
O41 Si18 1.688815 1_555
O42 Si11 1.630047 1_555
O42 Sc8 2.029927 1_555
O43 Si12 1.611462 1_555
O43 Sc9 2.086946 1_555
O44 Si13 1.622337 1_555
O44 Sc8 2.085913 1_555
O45 Si14 1.611914 1_555
O45 Sc9 2.034394 1_555
O46 Si9 1.616974 1_555
O46 Sc8 2.077753 1_555
O47 Si10 1.614074 1_555
O47 Sc9 2.041460 1_555
O48 Si21 1.615791 1_555
O48 Sc10 2.022566 1_556
O49 Si22 1.607307 1_555
O49 Sc11 2.035020 1_556
O50 Si23 1.613124 1_555
O50 Sc10 2.039798 1_556
O51 Si24 1.610192 1_555
O51 Sc11 2.032665 1_556
O52 Si25 1.608390 1_555
O52 Sc10 2.063819 1_556
O53 Si26 1.608670 1_555
O53 Sc11 2.038293 1_556
O54 Si27 1.678318 1_555
O55 Si28 1.687555 1_555
O56 Si29 1.665092 1_555
O57 Si30 1.670727 1_555
O58 Si31 1.675990 1_555
O59 Si32 1.689636 1_555
O60 Si31 1.654950 1_555
O61 Si32 1.653935 1_555
O62 Si27 1.652212 1_555
O63 Si28 1.650161 1_555
O64 Si29 1.676684 1_555
O65 Si30 1.669981 1_555
O66 Si23 1.678912 1_555
O67 Si24 1.694312 1_555
O68 Si25 1.695509 1_555
O69 Si26 1.693762 1_555
O70 Si21 1.677746 1_555
O71 Si22 1.690425 1_555
O72 Si31 1.620283 1_555
O72 Sc0 2.158930 1_455
O73 Si32 1.621394 1_555
O73 Sc1 2.176172 1_555
O74 Si27 1.633238 1_555
O74 Sc1 2.087163 1_555
O75 Si28 1.627673 1_555
O75 Sc0 2.088468 1_555
O76 Si29 1.614842 1_555
O76 Sc0 2.172167 1_445
O77 Si30 1.613153 1_555
O77 Sc1 2.189797 1_545
O78 Si23 1.621161 1_555
O78 Sc2 2.131876 1_445
O79 Si24 1.616493 1_555
O79 Sc3 2.132386 1_545
O80 Si25 1.615734 1_555
O80 Sc2 2.138424 1_455
O81 Si26 1.614410 1_555
O81 Sc3 2.140829 1_555
O82 Si21 1.622360 1_555
O82 Sc3 2.129704 1_555
O83 Si22 1.624672 1_555
O83 Sc2 2.071557 1_555
O84 Si9 1.673347 1_555
O85 Si10 1.616883 1_555
O85 Sc4 2.137032 1_545
O86 Si11 1.632827 1_555
O86 Sc4 2.112169 1_445
O87 Si12 1.660912 1_555
O88 Si13 1.686247 1_555
O89 Si14 1.624547 1_555
O89 Sc4 2.071678 1_555
O90 Si15 1.613102 1_555
O90 Sc6 2.177732 1_565
O91 Si16 1.612933 1_555
O91 Sc5 2.182338 1_565
O92 Si17 1.631211 1_555
O92 Sc6 2.084130 1_555
O93 Si18 1.629324 1_555
O93 Sc5 2.089058 1_555
O94 Si19 1.621189 1_555
O94 Sc5 2.162919 1_455
O95 Si20 1.620370 1_555
O95 Sc6 2.164622 1_555
O96 Si7 1.615652 1_555
O96 Sc7 2.100930 1_555
O97 Si8 1.665454 1_555
O98 S2 1.491244 1_555
O98 Sc7 2.321312 1_555
O99 Si4 1.648489 1_555
O100 Si6 1.620838 1_555
O100 Sc7 2.183157 1_555
O101 Si5 1.687577 1_655
O102 Si0 1.666401 1_555
O103 Si1 1.666970 1_555
O104 Si3 1.681100 1_555
O105 Si2 1.684061 1_655
O106 S0 1.507360 1_555
O107 S1 1.506053 1_555
O108 Si21 1.674871 1_555
O109 Si22 1.662966 1_555
O110 Si24 1.665768 1_555
O111 Si23 1.670527 1_655
O112 Si25 1.658828 1_545
O113 Si26 1.669292 1_545
O114 Si27 1.619189 1_545
O114 Sc8 2.171495 1_555
O115 Si28 1.618076 1_545
O115 Sc9 2.155635 1_555
O116 Si29 1.614362 1_555
O116 Sc8 2.164655 1_555
O117 Si30 1.610874 1_555
O117 Sc9 2.160080 1_555
O118 Si32 1.616156 1_555
O118 Sc8 2.181176 1_555
O119 Si31 1.620083 1_655
O119 Sc9 2.164139 1_555
O120 Si19 1.617578 1_555
O120 Sc10 2.166803 1_555
O121 Si20 1.616661 1_555
O121 Sc11 2.166602 1_555
O122 Si16 1.610222 1_455
O122 Sc10 2.161978 1_555
O123 Si15 1.611299 1_555
O123 Sc11 2.156589 1_555
O124 Si17 1.618721 1_565
O124 Sc10 2.163289 1_555
O125 Si18 1.617928 1_565
O125 Sc11 2.160526 1_555
O126 Si11 1.689193 1_565
O127 Si12 1.665554 1_565
O128 Si13 1.667376 1_555
O129 Si14 1.671870 1_555
O130 Si10 1.658659 1_455
O131 Si9 1.670150 1_555
O132 S0 1.505956 1_565
O133 S1 1.507246 1_565
O134 Si0 1.681163 1_555
O135 Si1 1.684141 1_555
O136 Si2 1.665606 1_555
O137 Si3 1.667338 1_555
O138 S2 1.510540 1_555
O139 Si4 1.661711 1_555
O140 Si5 1.665650 1_555
O141 Si6 1.673940 1_555
O142 Si7 1.667926 1_565
O143 Si8 1.694766 1_565
