# generated using pymatgen
data_Na5MgSbO5
_symmetry_space_group_name_H-M   'P 1'
_cell_length_a   5.36166159
_cell_length_b   5.83264381
_cell_length_c   6.70583706
_cell_angle_alpha   79.58084349
_cell_angle_beta   86.92476302
_cell_angle_gamma   72.83564302
_symmetry_Int_Tables_number   1
_chemical_formula_structural   Na5MgSbO5
_chemical_formula_sum   'Na5 Mg1 Sb1 O5'
_cell_volume   197.06548261
_cell_formula_units_Z   1
loop_
 _symmetry_equiv_pos_site_id
 _symmetry_equiv_pos_as_xyz
  1  'x, y, z'
loop_
 _atom_site_type_symbol
 _atom_site_label
 _atom_site_symmetry_multiplicity
 _atom_site_fract_x
 _atom_site_fract_y
 _atom_site_fract_z
 _atom_site_occupancy
  Na  Na0  1  0.72057691  0.68185665  0.86677626  1
  Na  Na1  1  0.64351454  0.61293502  0.32911273  1
  Na  Na2  1  0.18037884  0.48045176  0.62415253  1
  Na  Na3  1  0.22238733  0.34961596  0.18600286  1
  Na  Na4  1  0.89015594  0.07800931  0.44853263  1
  Mg  Mg0  1  0.63146731  0.27215332  0.91163201  1
  Sb  Sb0  1  0.13646352  0.89780476  0.02034696  1
  O  O0  1  0.31522296  0.58889988  0.90420953  1
  O  O1  1  0.15906840  0.73159473  0.30961527  1
  O  O2  1  0.77577429  0.37451633  0.64388721  1
  O  O3  1  0.83497545  0.30075555  0.13606675  1
  O  O4  1  0.45583051  0.00823473  0.01415125  1
loop_
_geom_bond_atom_site_label_1
_geom_bond_atom_site_label_2
_geom_bond_distance
_geom_bond_site_symmetry_2
Na0 O4 2.355955 1_566
Na0 O0 2.380810 1_555
Na0 O2 2.478617 1_555
Na0 O3 2.537799 1_556
Na1 O2 2.325752 1_555
Na1 O3 2.377350 1_555
Na1 O1 2.487054 1_555
Na1 O4 2.808340 1_565
Na2 O0 2.301094 1_555
Na2 O1 2.327488 1_555
Na2 O2 2.415813 1_455
Na3 O3 2.228572 1_455
Na3 O0 2.263103 1_554
Na3 O1 2.440793 1_555
Na3 O4 2.462433 1_555
Na4 O3 2.240744 1_555
Na4 O2 2.278242 1_555
Na4 O1 2.417919 1_645
Mg0 O3 1.964171 1_556
Mg0 O2 1.978546 1_555
Mg0 O4 2.032825 1_556
Mg0 O0 2.101794 1_555
O0 Sb0 2.044403 1_556
O1 Sb0 1.998245 1_555
O3 Sb0 2.649838 1_645
O4 Sb0 1.995582 1_545
