# generated using pymatgen
data_PuGa3
_symmetry_space_group_name_H-M   'P 1'
_cell_length_a   10.02048007
_cell_length_b   10.02048007
_cell_length_c   10.02047993
_cell_angle_alpha   35.94595184
_cell_angle_beta   35.94595184
_cell_angle_gamma   35.94595643
_symmetry_Int_Tables_number   1
_chemical_formula_structural   PuGa3
_chemical_formula_sum   'Pu4 Ga12'
_cell_volume   310.08303406
_cell_formula_units_Z   4
loop_
 _symmetry_equiv_pos_site_id
 _symmetry_equiv_pos_as_xyz
  1  'x, y, z'
loop_
 _atom_site_type_symbol
 _atom_site_label
 _atom_site_symmetry_multiplicity
 _atom_site_fract_x
 _atom_site_fract_y
 _atom_site_fract_z
 _atom_site_occupancy
  Pu  Pu0  1  0.71197316  0.71197316  0.71197316  1
  Pu  Pu1  1  0.28802684  0.28802684  0.28802684  1
  Pu  Pu2  1  0.87082657  0.87082657  0.87082657  1
  Pu  Pu3  1  0.12917343  0.12917343  0.12917343  1
  Ga  Ga0  1  0.20647828  0.20647828  0.71249440  1
  Ga  Ga1  1  0.71249440  0.20647828  0.20647828  1
  Ga  Ga2  1  0.20647828  0.71249440  0.20647828  1
  Ga  Ga3  1  0.79352172  0.28750560  0.79352172  1
  Ga  Ga4  1  0.16759744  0.60330317  0.60330317  1
  Ga  Ga5  1  0.60330317  0.60330317  0.16759744  1
  Ga  Ga6  1  0.60330317  0.16759744  0.60330317  1
  Ga  Ga7  1  0.39669683  0.83240256  0.39669683  1
  Ga  Ga8  1  0.83240256  0.39669683  0.39669683  1
  Ga  Ga9  1  0.39669683  0.39669683  0.83240256  1
  Ga  Ga10  1  0.28750560  0.79352172  0.79352172  1
  Ga  Ga11  1  0.79352172  0.79352172  0.28750560  1
loop_
_geom_bond_atom_site_label_1
_geom_bond_atom_site_label_2
_geom_bond_distance
_geom_bond_site_symmetry_2
Ga0 Ga4 2.880601 1_555
Ga0 Ga6 2.880601 1_555
Ga0 Ga10 2.937537 1_545
Ga0 Ga3 2.937537 1_455
Ga0 Pu3 3.021805 1_556
Ga0 Pu1 3.041811 1_555
Ga0 Ga1 3.054800 1_456
Ga0 Ga2 3.054800 1_546
Ga0 Pu0 3.093631 1_455
Ga0 Pu0 3.093631 1_545
Ga0 Ga1 3.129207 1_555
Ga0 Ga2 3.129207 1_555
Ga1 Ga6 2.880601 1_555
Ga1 Ga5 2.880601 1_555
Ga1 Ga3 2.937537 1_554
Ga1 Ga11 2.937537 1_545
Ga1 Pu3 3.021805 1_655
Ga1 Pu1 3.041811 1_555
Ga1 Ga2 3.054800 1_645
Ga1 Pu0 3.093631 1_545
Ga1 Pu0 3.093631 1_554
Ga1 Ga2 3.129207 1_555
Ga2 Ga4 2.880601 1_555
Ga2 Ga5 2.880601 1_555
Ga2 Pu3 3.021805 1_565
Ga2 Pu1 3.041811 1_555
Ga2 Pu0 3.093631 1_455
Ga2 Pu0 3.093631 1_554
Ga3 Ga8 2.880601 1_555
Ga3 Ga9 2.880601 1_555
Ga3 Pu2 3.021805 1_545
Ga3 Pu0 3.041811 1_555
Ga3 Pu1 3.093631 1_655
Ga3 Pu1 3.093631 1_556
Ga4 Ga5 2.694407 1_555
Ga4 Ga6 2.694407 1_555
Ga4 Ga7 2.822921 1_555
Ga4 Ga9 2.822921 1_555
Ga4 Pu2 3.006025 1_455
Ga4 Pu0 3.006084 1_455
Ga4 Pu3 3.103019 1_556
Ga4 Pu3 3.103019 1_565
Ga5 Ga6 2.694407 1_555
Ga5 Ga7 2.822921 1_555
Ga5 Ga8 2.822921 1_555
Ga5 Pu2 3.006025 1_554
Ga5 Pu0 3.006083 1_554
Ga5 Pu3 3.103019 1_565
Ga5 Pu3 3.103019 1_655
Ga6 Ga8 2.822921 1_555
Ga6 Ga9 2.822921 1_555
Ga6 Pu2 3.006025 1_545
Ga6 Pu0 3.006084 1_545
Ga6 Pu3 3.103019 1_556
Ga6 Pu3 3.103019 1_655
Ga7 Ga9 2.694407 1_555
Ga7 Ga8 2.694407 1_555
Ga7 Pu3 3.006025 1_565
Ga7 Pu1 3.006084 1_565
Ga7 Pu2 3.103019 1_554
Ga7 Pu2 3.103019 1_455
Ga8 Ga9 2.694407 1_555
Ga8 Pu3 3.006025 1_655
Ga8 Pu1 3.006084 1_655
Ga8 Pu2 3.103019 1_554
Ga8 Pu2 3.103019 1_545
Ga9 Pu3 3.006025 1_556
Ga9 Pu1 3.006083 1_556
Ga9 Pu2 3.103019 1_455
Ga9 Pu2 3.103019 1_545
Ga10 Ga7 2.880601 1_555
Ga10 Ga9 2.880601 1_555
Ga10 Ga2 2.937537 1_556
Ga10 Pu2 3.021805 1_455
Ga10 Pu0 3.041811 1_555
Ga10 Ga11 3.054800 1_456
Ga10 Ga3 3.054800 1_465
Ga10 Pu1 3.093631 1_565
Ga10 Pu1 3.093631 1_556
Ga10 Ga11 3.129207 1_555
Ga10 Ga3 3.129207 1_555
Ga11 Ga7 2.880601 1_555
Ga11 Ga8 2.880601 1_555
Ga11 Ga2 2.937537 1_655
Ga11 Pu2 3.021805 1_554
Ga11 Pu0 3.041811 1_555
Ga11 Ga3 3.054800 1_564
Ga11 Pu1 3.093631 1_565
Ga11 Pu1 3.093631 1_655
Ga11 Ga3 3.129207 1_555
