# generated using pymatgen
data_Na6La5Ta3(PO4)12
_symmetry_space_group_name_H-M   'P 1'
_cell_length_a   18.60100451
_cell_length_b   9.30058144
_cell_length_c   23.66104986
_cell_angle_alpha   90.06220097
_cell_angle_beta   89.92302723
_cell_angle_gamma   119.95062087
_symmetry_Int_Tables_number   1
_chemical_formula_structural   Na6La5Ta3(PO4)12
_chemical_formula_sum   'Na18 La15 Ta9 P36 O144'
_cell_volume   3546.71734575
_cell_formula_units_Z   3
loop_
 _symmetry_equiv_pos_site_id
 _symmetry_equiv_pos_as_xyz
  1  'x, y, z'
loop_
 _atom_site_type_symbol
 _atom_site_label
 _atom_site_symmetry_multiplicity
 _atom_site_fract_x
 _atom_site_fract_y
 _atom_site_fract_z
 _atom_site_occupancy
  Na  Na0  1  0.67892480  0.37010324  0.25146696  1
  Na  Na1  1  0.00455342  0.63879607  0.25244972  1
  Na  Na2  1  0.00224413  0.37120909  0.74936952  1
  Na  Na3  1  0.50235883  0.37129489  0.74963078  1
  Na  Na4  1  0.18125523  0.99144345  0.74880562  1
  Na  Na5  1  0.68130417  0.99161277  0.74910381  1
  Na  Na6  1  0.00055738  0.99991194  0.50208759  1
  Na  Na7  1  0.50007823  0.00051809  0.50249263  1
  Na  Na8  1  0.99801492  0.99479350  0.00271767  1
  Na  Na9  1  0.50296166  0.00704512  0.00138960  1
  Na  Na10  1  0.33357838  0.34460902  0.83370302  1
  Na  Na11  1  0.83311603  0.34420090  0.83462548  1
  Na  Na12  1  0.33283176  0.33263123  0.33474039  1
  Na  Na13  1  0.83320666  0.32121436  0.33488449  1
  Na  Na14  1  0.17238432  0.66333264  0.16661919  1
  Na  Na15  1  0.66789400  0.68464907  0.16635407  1
  Na  Na16  1  0.17412225  0.66713417  0.66016830  1
  Na  Na17  1  0.67403203  0.66688396  0.66073962  1
  La  La0  1  0.99713870  0.99430442  0.64302066  1
  La  La1  1  0.49727390  0.99416838  0.64301014  1
  La  La2  1  0.99727421  0.00154443  0.14523862  1
  La  La3  1  0.50039391  0.99988699  0.14410000  1
  La  La4  1  0.33293782  0.34560759  0.67661578  1
  La  La5  1  0.83308952  0.34566476  0.67670188  1
  La  La6  1  0.83288555  0.31801213  0.18039354  1
  La  La7  1  0.33289118  0.33053521  0.97938225  1
  La  La8  1  0.83365876  0.33262326  0.98157563  1
  La  La9  1  0.33301039  0.33175402  0.48115988  1
  La  La10  1  0.83350209  0.33367561  0.47979537  1
  La  La11  1  0.17413232  0.67037174  0.31563279  1
  La  La12  1  0.66527888  0.67424408  0.31736068  1
  La  La13  1  0.17189837  0.66601650  0.82093232  1
  La  La14  1  0.67210871  0.66702474  0.82131269  1
  Ta  Ta0  1  0.00290350  0.00679322  0.35453538  1
  Ta  Ta1  1  0.49554846  0.99392847  0.35375059  1
  Ta  Ta2  1  0.99803865  0.99674715  0.85738880  1
  Ta  Ta3  1  0.49843840  0.99681380  0.85649602  1
  Ta  Ta4  1  0.33365665  0.33486254  0.18418938  1
  Ta  Ta5  1  0.16964478  0.67117040  0.01707423  1
  Ta  Ta6  1  0.66306801  0.66085709  0.01481286  1
  Ta  Ta7  1  0.16539298  0.66652085  0.51234122  1
  Ta  Ta8  1  0.66590156  0.66776229  0.51203704  1
  P  P0  1  0.15007898  0.01913883  0.25037603  1
  P  P1  1  0.64488882  0.01248063  0.25475667  1
  P  P2  1  0.35968585  0.69560953  0.24986502  1
  P  P3  1  0.85890598  0.70653363  0.25554749  1
  P  P4  1  0.99560337  0.28717332  0.25551012  1
  P  P5  1  0.48938594  0.27896549  0.25112187  1
  P  P6  1  0.14203938  0.27690640  0.75563976  1
  P  P7  1  0.64232520  0.27774435  0.75537748  1
  P  P8  1  0.99695549  0.70931075  0.75668085  1
  P  P9  1  0.49705124  0.70873007  0.75645604  1
  P  P10  1  0.35832750  0.01063529  0.75560789  1
  P  P11  1  0.85842130  0.01042705  0.75574246  1
  P  P12  1  0.49493737  0.35233280  0.58060053  1
  P  P13  1  0.99434717  0.35221580  0.58057288  1
  P  P14  1  0.18131276  0.01092523  0.58100806  1
  P  P15  1  0.68193497  0.01214846  0.58060060  1
  P  P16  1  0.32352964  0.63821089  0.57712864  1
  P  P17  1  0.82354095  0.63778943  0.57700713  1
  P  P18  1  0.48462692  0.61248002  0.08323125  1
  P  P19  1  0.99405226  0.63761804  0.08081276  1
  P  P20  1  0.32190871  0.03051958  0.08383057  1
  P  P21  1  0.82366675  0.00837527  0.07708736  1
  P  P22  1  0.19378783  0.35889499  0.08395540  1
  P  P23  1  0.68088525  0.34824487  0.08036624  1
  P  P24  1  0.32228133  0.68830654  0.91913166  1
  P  P25  1  0.82047557  0.68559743  0.91895298  1
  P  P26  1  0.02508663  0.36249966  0.91700380  1
  P  P27  1  0.52239123  0.35861829  0.91441162  1
  P  P28  1  0.15615125  0.95130638  0.91606692  1
  P  P29  1  0.65606136  0.95321529  0.91583895  1
  P  P30  1  0.31973996  0.95423540  0.41658139  1
  P  P31  1  0.82147106  0.95392962  0.41589497  1
  P  P32  1  0.15699508  0.36025513  0.41656859  1
  P  P33  1  0.65545457  0.35885142  0.41283396  1
  P  P34  1  0.02446520  0.68685813  0.41269528  1
  P  P35  1  0.52159811  0.68701436  0.41627154  1
  O  O0  1  0.10288867  0.03736382  0.30440602  1
  O  O1  1  0.58702354  0.01338666  0.30582506  1
  O  O2  1  0.41381864  0.79143460  0.30437525  1
  O  O3  1  0.91763529  0.82222444  0.30643726  1
  O  O4  1  0.47826816  0.15948852  0.30385611  1
  O  O5  1  0.99683935  0.17699599  0.30765912  1
  O  O6  1  0.08818121  0.16577177  0.80858071  1
  O  O7  1  0.58833055  0.16607521  0.80817175  1
  O  O8  1  0.49425569  0.81539840  0.80925967  1
  O  O9  1  0.99420900  0.81601335  0.80955765  1
  O  O10  1  0.41227876  0.00650267  0.80850843  1
  O  O11  1  0.91236796  0.00668784  0.80881580  1
  O  O12  1  0.39840195  0.99677671  0.70172883  1
  O  O13  1  0.89843540  0.99640608  0.70190495  1
  O  O14  1  0.09503780  0.19701081  0.70165310  1
  O  O15  1  0.59507862  0.19744721  0.70151811  1
  O  O16  1  0.00651478  0.80659837  0.70304145  1
  O  O17  1  0.50657033  0.80623267  0.70288937  1
  O  O18  1  0.39786296  0.79824756  0.19769327  1
  O  O19  1  0.89711205  0.79826864  0.20078165  1
  O  O20  1  0.00091933  0.20702585  0.20098604  1
  O  O21  1  0.50677087  0.20835360  0.19861523  1
  O  O22  1  0.09614069  0.98624878  0.19864412  1
  O  O23  1  0.60168876  0.00538877  0.19968858  1
  O  O24  1  0.46391734  0.38302724  0.63869319  1
  O  O25  1  0.96341635  0.38244571  0.63881323  1
  O  O26  1  0.22703636  0.07383956  0.63916769  1
  O  O27  1  0.72728396  0.07439141  0.63892956  1
  O  O28  1  0.30844089  0.54220532  0.63405686  1
  O  O29  1  0.80842211  0.54205992  0.63397002  1
  O  O30  1  0.43282104  0.49331277  0.13644343  1
  O  O31  1  0.96337566  0.54430374  0.13812339  1
  O  O32  1  0.31348606  0.13348998  0.13645607  1
  O  O33  1  0.80836529  0.07422244  0.13352506  1
  O  O34  1  0.25405736  0.37460011  0.13685685  1
  O  O35  1  0.72604269  0.37820343  0.13813068  1
  O  O36  1  0.22898928  0.32831487  0.03124614  1
  O  O37  1  0.72877959  0.32558801  0.03290050  1
  O  O38  1  0.43420474  0.53999165  0.03072505  1
  O  O39  1  0.93561551  0.54442908  0.03284989  1
  O  O40  1  0.33658202  0.12961776  0.03080442  1
  O  O41  1  0.83682521  0.12294024  0.02825753  1
  O  O42  1  0.22921549  0.13209789  0.53421365  1
  O  O43  1  0.72996281  0.13332208  0.53386057  1
  O  O44  1  0.33702415  0.54780401  0.52909705  1
  O  O45  1  0.83721208  0.54752046  0.52899343  1
  O  O46  1  0.43443979  0.32703708  0.53381707  1
  O  O47  1  0.93384752  0.32719639  0.53381063  1
  O  O48  1  0.26961263  0.70524927  0.96938637  1
  O  O49  1  0.76462908  0.69902656  0.96736110  1
  O  O50  1  0.08879398  0.47162132  0.96625387  1
  O  O51  1  0.58356755  0.46802445  0.96385977  1
  O  O52  1  0.15205962  0.82913771  0.96550796  1
  O  O53  1  0.64682052  0.82750595  0.96507469  1
  O  O54  1  0.26766649  0.83297204  0.46653650  1
  O  O55  1  0.76835208  0.83281480  0.46624247  1
  O  O56  1  0.14873503  0.46490041  0.46696807  1
  O  O57  1  0.64737926  0.46696605  0.46239491  1
  O  O58  1  0.08566418  0.70262611  0.46290025  1
  O  O59  1  0.58309678  0.70551251  0.46641485  1
  O  O60  1  0.05737063  0.66118473  0.35687303  1
  O  O61  1  0.55550863  0.65865798  0.36203744  1
  O  O62  1  0.27253507  0.89032985  0.36178944  1
  O  O63  1  0.77373373  0.88422223  0.36159515  1
  O  O64  1  0.16877477  0.45473655  0.36223358  1
  O  O65  1  0.66888567  0.44857395  0.35667071  1
  O  O66  1  0.05580176  0.45009582  0.86018721  1
  O  O67  1  0.55415304  0.44689432  0.85787184  1
  O  O68  1  0.16767033  0.88778984  0.85923088  1
  O  O69  1  0.66798999  0.88979408  0.85907022  1
  O  O70  1  0.27597948  0.66006475  0.86381020  1
  O  O71  1  0.77629497  0.65803644  0.86263583  1
  O  O72  1  0.02291075  0.85644543  0.40749807  1
  O  O73  1  0.51863478  0.85499885  0.40949662  1
  O  O74  1  0.40495666  0.95396505  0.40926694  1
  O  O75  1  0.90882726  0.96118148  0.40959385  1
  O  O76  1  0.07318026  0.18637046  0.41123338  1
  O  O77  1  0.57040638  0.18474955  0.40635515  1
  O  O78  1  0.02125080  0.18751897  0.91208383  1
  O  O79  1  0.52063855  0.18626467  0.91121973  1
  O  O80  1  0.07175397  0.95571770  0.91279214  1
  O  O81  1  0.57220650  0.95978519  0.91175963  1
  O  O82  1  0.40763304  0.85730280  0.91353582  1
  O  O83  1  0.90624468  0.85552614  0.91369910  1
  O  O84  1  0.51249275  0.20802677  0.58203446  1
  O  O85  1  0.01237590  0.20855516  0.58201488  1
  O  O86  1  0.09164624  0.97592100  0.58197148  1
  O  O87  1  0.59207747  0.97652687  0.58165445  1
  O  O88  1  0.39559649  0.81713258  0.57983129  1
  O  O89  1  0.89538068  0.81680388  0.57986583  1
  O  O90  1  0.50201598  0.78881987  0.09224508  1
  O  O91  1  0.01420492  0.81859317  0.08167089  1
  O  O92  1  0.39147183  0.99280683  0.09324759  1
  O  O93  1  0.89526040  0.97153040  0.07911846  1
  O  O94  1  0.10554404  0.22003221  0.09431972  1
  O  O95  1  0.59081997  0.20447713  0.07952668  1
  O  O96  1  0.35920122  0.17897242  0.75842241  1
  O  O97  1  0.85929306  0.17884388  0.75849406  1
  O  O98  1  0.22618580  0.27998351  0.75751029  1
  O  O99  1  0.72623285  0.28010057  0.75736998  1
  O  O100  1  0.41894186  0.53430781  0.75735116  1
  O  O101  1  0.91888595  0.53455598  0.75744662  1
  O  O102  1  0.35584003  0.51958360  0.24057600  1
  O  O103  1  0.86047563  0.54060011  0.25808388  1
  O  O104  1  0.40825217  0.29272793  0.24115974  1
  O  O105  1  0.91436201  0.29595859  0.25874128  1
  O  O106  1  0.23817302  0.18262034  0.24036598  1
  O  O107  1  0.72738549  0.18173428  0.25903331  1
  O  O108  1  0.34012651  0.54808280  0.92634076  1
  O  O109  1  0.83926089  0.54659501  0.92684405  1
  O  O110  1  0.43485158  0.32460081  0.92312564  1
  O  O111  1  0.93777347  0.33035954  0.92599524  1
  O  O112  1  0.22658795  0.12676933  0.92433428  1
  O  O113  1  0.72722654  0.12818455  0.92458836  1
  O  O114  1  0.34012157  0.13204011  0.42509866  1
  O  O115  1  0.83853239  0.12997440  0.42424682  1
  O  O116  1  0.22735005  0.32405608  0.42422545  1
  O  O117  1  0.72536051  0.32282201  0.42336459  1
  O  O118  1  0.43362351  0.54614390  0.42497047  1
  O  O119  1  0.93683597  0.54620734  0.42284222  1
  O  O120  1  0.19083906  0.52709338  0.07513292  1
  O  O121  1  0.67639462  0.51172924  0.06522203  1
  O  O122  1  0.07988024  0.64056405  0.06567743  1
  O  O123  1  0.57181839  0.62161493  0.07490594  1
  O  O124  1  0.23876742  0.85635037  0.07442365  1
  O  O125  1  0.73959896  0.83722973  0.06519833  1
  O  O126  1  0.17694252  0.83970233  0.56652531  1
  O  O127  1  0.67773407  0.84047932  0.56629431  1
  O  O128  1  0.24180278  0.64633755  0.56564049  1
  O  O129  1  0.74158378  0.64502089  0.56508843  1
  O  O130  1  0.07973209  0.51599859  0.56634422  1
  O  O131  1  0.58053595  0.51500646  0.56593498  1
  O  O132  1  0.16224779  0.86832922  0.25735288  1
  O  O133  1  0.65872297  0.86432631  0.25671292  1
  O  O134  1  0.27005933  0.65671849  0.25556239  1
  O  O135  1  0.76811300  0.66725358  0.25816004  1
  O  O136  1  0.06919057  0.46721435  0.25690018  1
  O  O137  1  0.56519507  0.45207889  0.25977887  1
  O  O138  1  0.14960080  0.44950999  0.75827429  1
  O  O139  1  0.64993645  0.45025528  0.75815984  1
  O  O140  1  0.07550714  0.69066241  0.75977485  1
  O  O141  1  0.57564706  0.69044003  0.75959703  1
  O  O142  1  0.26738408  0.86784980  0.75708197  1
  O  O143  1  0.76738006  0.86753898  0.75710353  1
loop_
_geom_bond_atom_site_label_1
_geom_bond_atom_site_label_2
_geom_bond_distance
_geom_bond_site_symmetry_2
Na0 O107 2.343478 1_555
Na0 O135 2.415968 1_555
Na0 O137 2.589265 1_555
Na0 O65 2.625771 1_555
Na0 O35 2.809500 1_555
Na1 O103 2.364230 1_455
Na1 O136 2.433057 1_555
Na1 O60 2.629523 1_555
Na1 O132 2.631100 1_555
Na1 O105 2.768172 1_455
Na1 O31 2.829268 1_455
Na2 O97 2.359466 1_455
Na2 O138 2.468969 1_555
Na2 O140 2.588751 1_555
Na2 O101 2.664475 1_455
Na2 O25 2.730641 1_455
Na2 O66 2.771100 1_555
Na3 O96 2.361563 1_555
Na3 O139 2.470589 1_555
Na3 O141 2.585231 1_555
Na3 O100 2.662170 1_555
Na3 O67 2.703352 1_555
Na3 O24 2.738042 1_555
Na4 O98 2.387960 1_565
Na4 O142 2.401357 1_555
Na4 O140 2.503597 1_555
Na4 O26 2.718238 1_565
Na4 O68 2.753232 1_555
Na4 O96 2.878620 1_565
Na4 O16 3.019715 1_555
Na5 O99 2.386641 1_565
Na5 O143 2.403558 1_555
Na5 O141 2.504714 1_555
Na5 O27 2.731430 1_565
Na5 O69 2.738161 1_555
Na5 O97 2.878786 1_565
Na5 O17 3.023624 1_555
Na6 O89 2.604770 1_455
Na6 O86 2.623017 1_555
Na6 O85 2.637721 1_565
Na6 O76 2.667316 1_565
Na6 O75 2.687985 1_455
Na6 O72 2.739950 1_555
Na7 O88 2.592701 1_545
Na7 O84 2.620764 1_555
Na7 O87 2.622475 1_545
Na7 O73 2.692677 1_545
Na7 O74 2.725288 1_545
Na7 O77 2.753888 1_555
Na8 O93 2.558619 1_555
Na8 O91 2.601353 1_655
Na8 O83 2.612280 1_554
Na8 O80 2.651205 1_654
Na8 O78 2.689024 1_664
Na8 O94 2.984067 1_665
Na9 O95 2.542631 1_555
Na9 O79 2.626205 1_554
Na9 O81 2.627865 1_544
Na9 O82 2.634896 1_544
Na9 O90 2.952078 1_545
Na9 O92 2.959137 1_545
Na10 O100 2.469750 1_555
Na10 O98 2.531846 1_555
Na10 O96 2.549113 1_555
Na10 O108 2.856941 1_555
Na10 O110 2.902001 1_555
Na10 O112 2.938696 1_555
Na11 O101 2.488639 1_555
Na11 O99 2.544285 1_555
Na11 O97 2.566415 1_555
Na11 O109 2.845069 1_555
Na11 O113 2.914390 1_555
Na11 O111 2.956742 1_555
Na12 O102 2.726424 1_555
Na12 O104 2.741960 1_555
Na12 O106 2.753898 1_555
Na12 O116 2.858675 1_555
Na12 O118 2.881042 1_555
Na12 O114 2.886496 1_555
Na13 O105 2.434271 1_555
Na13 O107 2.496629 1_555
Na13 O103 2.587448 1_555
Na13 O115 2.797993 1_555
Na13 O119 2.898186 1_555
Na13 O117 2.902744 1_555
Na14 O120 2.614482 1_555
Na14 O124 2.700735 1_555
Na14 O134 2.802814 1_555
Na14 O136 2.841849 1_555
Na14 O122 2.890685 1_555
Na14 O132 2.937445 1_555
Na15 O123 2.679699 1_555
Na15 O125 2.762294 1_555
Na15 O133 2.769220 1_555
Na15 O135 2.921075 1_555
Na15 O121 2.929497 1_555
Na15 O137 3.014561 1_555
Na16 O128 2.619053 1_555
Na16 O126 2.722380 1_555
Na16 O130 2.743396 1_555
Na16 O142 2.918951 1_555
Na16 O138 2.962882 1_555
Na16 O140 3.058634 1_555
Na17 O129 2.643635 1_555
Na17 O127 2.738915 1_555
Na17 O131 2.757237 1_555
Na17 O143 2.908994 1_555
Na17 O139 2.946039 1_555
Na17 O141 3.042382 1_555
La0 O13 2.311124 1_555
La0 O14 2.316922 1_665
La0 O16 2.324877 1_655
La0 O89 2.328766 1_555
La0 O86 2.344967 1_655
La0 O85 2.361314 1_665
La1 O12 2.313187 1_555
La1 O15 2.316741 1_565
La1 O17 2.323849 1_555
La1 O88 2.327137 1_555
La1 O87 2.350682 1_555
La1 O84 2.358119 1_565
La2 O19 2.292236 1_545
La2 O20 2.293936 1_655
La2 O22 2.294959 1_645
La2 O94 2.355673 1_655
La2 O93 2.367350 1_545
La2 O91 2.405193 1_645
La3 O18 2.278087 1_555
La3 O23 2.278813 1_565
La3 O21 2.280877 1_565
La3 O90 2.326728 1_555
La3 O92 2.330270 1_555
La3 O95 2.363870 1_565
La4 O28 2.324250 1_555
La4 O24 2.451573 1_555
La4 O26 2.466268 1_555
La4 O100 2.546769 1_555
La4 O98 2.600243 1_555
La4 O96 2.674371 1_555
La5 O29 2.326233 1_555
La5 O25 2.442188 1_555
La5 O27 2.465648 1_555
La5 O101 2.546504 1_555
La5 O99 2.597647 1_555
La5 O97 2.674757 1_555
La6 O33 2.354175 1_555
La6 O105 2.468652 1_555
La6 O31 2.493702 1_555
La6 O35 2.525968 1_555
La6 O107 2.536031 1_555
La6 O103 2.619471 1_555
La7 O40 2.260572 1_556
La7 O38 2.271019 1_556
La7 O36 2.279346 1_556
La7 O108 2.328124 1_555
La7 O112 2.336183 1_555
La7 O110 2.338673 1_555
La8 O41 2.268525 1_556
La8 O37 2.269636 1_556
La8 O39 2.284681 1_556
La8 O109 2.333755 1_555
La8 O111 2.348251 1_555
La8 O113 2.365539 1_555
La9 O42 2.273824 1_555
La9 O44 2.274910 1_555
La9 O46 2.280993 1_555
La9 O114 2.338089 1_555
La9 O118 2.349233 1_555
La9 O116 2.355639 1_555
La10 O45 2.274562 1_555
La10 O43 2.287591 1_555
La10 O47 2.289076 1_555
La10 O115 2.344522 1_555
La10 O119 2.371245 1_555
La10 O117 2.375595 1_555
La11 O62 2.233764 1_555
La11 O64 2.247846 1_555
La11 O134 2.332210 1_555
La11 O60 2.342164 1_555
La11 O136 2.372870 1_555
La11 O132 2.398512 1_555
La12 O61 2.237535 1_555
La12 O63 2.246436 1_555
La12 O65 2.328058 1_555
La12 O133 2.328238 1_555
La12 O135 2.396243 1_555
La12 O137 2.398177 1_555
La13 O70 2.211990 1_555
La13 O66 2.286359 1_555
La13 O68 2.288992 1_555
La13 O138 2.363466 1_555
La13 O142 2.372897 1_555
La13 O140 2.404021 1_555
La14 O71 2.210371 1_555
La14 O69 2.291506 1_555
La14 O67 2.295064 1_555
La14 O143 2.371806 1_555
La14 O139 2.373262 1_555
La14 O141 2.407723 1_555
O0 P0 1.605816 1_555
O0 Ta0 2.100822 1_555
O1 P1 1.619942 1_555
O1 Ta1 1.975253 1_545
O2 P2 1.605187 1_555
O2 Ta1 2.089032 1_555
O3 P3 1.621128 1_555
O3 Ta0 2.009856 1_665
O4 P5 1.614707 1_555
O4 Ta1 2.089784 1_545
O5 P4 1.612272 1_555
O5 Ta0 1.982726 1_655
O6 P6 1.614495 1_555
O6 Ta2 1.995797 1_445
O7 P7 1.614220 1_555
O7 Ta3 1.987937 1_545
O8 P9 1.611379 1_555
O8 Ta3 1.991773 1_555
O9 P8 1.612612 1_555
O9 Ta2 1.996984 1_555
O10 P10 1.617803 1_555
O10 Ta3 2.003786 1_545
O11 P11 1.619701 1_555
O11 Ta2 2.005271 1_545
O12 P10 1.513441 1_565
O13 P11 1.512513 1_565
O14 P6 1.516733 1_555
O15 P7 1.516474 1_555
O16 P8 1.517351 1_455
O17 P9 1.517126 1_555
O18 P2 1.504228 1_555
O19 P3 1.518757 1_555
O20 P4 1.516886 1_455
O21 P5 1.512791 1_555
O22 P0 1.514756 1_565
O23 P1 1.515750 1_555
O24 P12 1.570116 1_555
O25 P13 1.570853 1_555
O26 P14 1.569689 1_555
O27 P15 1.570102 1_555
O28 P16 1.562619 1_555
O29 P17 1.562030 1_555
O30 P18 1.635710 1_555
O30 Ta4 2.033267 1_555
O31 P19 1.556798 1_555
O32 P20 1.624459 1_555
O32 Ta4 2.054008 1_555
O33 P21 1.552592 1_555
O34 P22 1.638527 1_555
O34 Ta4 2.033435 1_555
O35 P23 1.555573 1_555
O36 P22 1.499339 1_555
O37 P23 1.511176 1_555
O38 P18 1.499187 1_555
O39 P19 1.510329 1_555
O40 P20 1.499512 1_555
O41 P21 1.507188 1_555
O42 P14 1.512384 1_555
O43 P15 1.511952 1_555
O44 P16 1.506485 1_555
O45 P17 1.506807 1_555
O46 P12 1.511768 1_555
O47 P13 1.511986 1_555
O48 P24 1.596604 1_555
O48 Ta5 2.058644 1_556
O49 P25 1.591434 1_555
O49 Ta6 2.069053 1_556
O50 P26 1.610123 1_555
O50 Ta5 2.089293 1_556
O51 P27 1.594995 1_555
O51 Ta6 2.051510 1_556
O52 P28 1.606744 1_555
O52 Ta5 2.058884 1_556
O53 P29 1.598565 1_555
O53 Ta6 2.085966 1_556
O54 P30 1.586292 1_555
O54 Ta7 2.060995 1_555
O55 P31 1.597714 1_555
O55 Ta8 2.058940 1_555
O56 P32 1.593491 1_555
O56 Ta7 2.044813 1_555
O57 P33 1.598929 1_555
O57 Ta8 2.083231 1_555
O58 P34 1.601577 1_555
O58 Ta7 2.045341 1_555
O59 P35 1.597664 1_555
O59 Ta8 2.050893 1_555
O60 P34 1.522915 1_555
O61 P35 1.509077 1_555
O62 P30 1.511713 1_555
O63 P31 1.511924 1_555
O64 P32 1.510778 1_555
O65 P33 1.522509 1_555
O66 P26 1.527399 1_555
O67 P27 1.526017 1_555
O68 P28 1.525536 1_555
O69 P29 1.526280 1_555
O70 P24 1.516755 1_555
O71 P25 1.519390 1_555
O72 P34 1.596771 1_555
O72 Ta0 2.046673 1_565
O73 P35 1.598825 1_555
O73 Ta1 2.037905 1_555
O74 P30 1.595554 1_555
O74 Ta1 2.018145 1_555
O75 P31 1.599081 1_555
O75 Ta0 2.047713 1_665
O76 P32 1.595147 1_555
O76 Ta0 2.029245 1_555
O77 P33 1.609487 1_555
O77 Ta1 2.042096 1_545
O78 P26 1.597126 1_555
O78 Ta2 2.059346 1_445
O79 P27 1.588679 1_555
O79 Ta3 2.054677 1_545
O80 P28 1.592746 1_555
O80 Ta2 2.067023 1_455
O81 P29 1.594228 1_555
O81 Ta3 2.046676 1_555
O82 P24 1.586433 1_555
O82 Ta3 2.041410 1_555
O83 P25 1.593973 1_555
O83 Ta2 2.043066 1_555
O84 P12 1.531940 1_555
O85 P13 1.531795 1_455
O86 P14 1.531693 1_565
O87 P15 1.533322 1_565
O88 P16 1.530631 1_555
O89 P17 1.529950 1_555
O90 P18 1.519753 1_555
O91 P19 1.530993 1_455
O92 P20 1.516932 1_565
O93 P21 1.532670 1_565
O94 P22 1.518308 1_555
O95 P23 1.535652 1_555
O96 P10 1.558934 1_555
O97 P11 1.559631 1_555
O98 P6 1.551808 1_555
O99 P7 1.550722 1_555
O100 P9 1.545828 1_555
O101 P8 1.547279 1_555
O102 P2 1.617400 1_555
O102 Ta4 2.047068 1_555
O103 P3 1.559282 1_555
O104 P5 1.594817 1_555
O104 Ta4 2.108322 1_555
O105 P4 1.555354 1_555
O106 P0 1.601569 1_555
O106 Ta4 2.100670 1_555
O107 P1 1.559188 1_555
O108 P24 1.507650 1_555
O109 P25 1.509988 1_555
O110 P27 1.509599 1_555
O111 P26 1.512220 1_655
O112 P28 1.510982 1_545
O113 P29 1.514062 1_545
O114 P30 1.514100 1_545
O115 P31 1.516973 1_545
O116 P32 1.516411 1_555
O117 P33 1.517016 1_555
O118 P35 1.515148 1_555
O119 P34 1.515353 1_655
O120 P22 1.606291 1_555
O120 Ta5 2.090716 1_555
O121 P23 1.604798 1_555
O121 Ta6 1.937899 1_555
O122 P19 1.622522 1_455
O122 Ta5 1.926768 1_555
O123 P18 1.593112 1_555
O123 Ta6 2.100461 1_555
O124 P20 1.601237 1_565
O124 Ta5 2.061361 1_555
O125 P21 1.604039 1_565
O125 Ta6 1.951214 1_555
O126 P14 1.590482 1_565
O126 Ta7 1.983651 1_555
O127 P15 1.595060 1_565
O127 Ta8 1.979954 1_555
O128 P16 1.583192 1_555
O128 Ta7 1.979262 1_555
O129 P17 1.584829 1_555
O129 Ta8 1.976064 1_555
O130 P13 1.593797 1_455
O130 Ta7 1.975473 1_555
O131 P12 1.593395 1_555
O131 Ta8 1.977900 1_555
O132 P0 1.537347 1_565
O133 P1 1.523564 1_565
O134 P2 1.525042 1_555
O135 P3 1.540512 1_555
O136 P4 1.545957 1_455
O137 P5 1.534848 1_555
O138 P6 1.541122 1_555
O139 P7 1.540008 1_555
O140 P8 1.556832 1_455
O141 P9 1.555773 1_555
O142 P10 1.543772 1_565
O143 P11 1.545226 1_565
