# generated using pymatgen
data_EuMgVO3
_symmetry_space_group_name_H-M   'P 1'
_cell_length_a   4.08047902
_cell_length_b   7.12424967
_cell_length_c   3.35997687
_cell_angle_alpha   91.82620279
_cell_angle_beta   90.10025273
_cell_angle_gamma   95.58697804
_symmetry_Int_Tables_number   1
_chemical_formula_structural   EuMgVO3
_chemical_formula_sum   'Eu1 Mg1 V1 O3'
_cell_volume   97.16117395
_cell_formula_units_Z   1
loop_
 _symmetry_equiv_pos_site_id
 _symmetry_equiv_pos_as_xyz
  1  'x, y, z'
loop_
 _atom_site_type_symbol
 _atom_site_label
 _atom_site_symmetry_multiplicity
 _atom_site_fract_x
 _atom_site_fract_y
 _atom_site_fract_z
 _atom_site_occupancy
  Eu  Eu0  1  0.93635549  0.07234097  0.98374209  1
  Mg  Mg0  1  0.03933568  0.56221974  0.01772783  1
  V  V0  1  0.50515301  0.36776961  0.50242609  1
  O  O0  1  0.01025431  0.38340581  0.50493855  1
  O  O1  1  0.47562808  0.09159152  0.47805530  1
  O  O2  1  0.53327344  0.52267334  0.01311215  1
loop_
_geom_bond_atom_site_label_1
_geom_bond_atom_site_label_2
_geom_bond_distance
_geom_bond_site_symmetry_2
Eu0 O1 2.521568 1_556
Eu0 O1 2.548327 1_555
Eu0 O1 2.744708 1_656
Eu0 O0 2.772903 1_655
Eu0 O0 2.772987 1_656
Eu0 O1 2.777961 1_655
Mg0 O2 2.056714 1_455
Mg0 O2 2.062102 1_555
Mg0 O0 2.102600 1_555
Mg0 O0 2.106060 1_554
O0 V0 2.033311 1_555
O0 V0 2.053193 1_455
O1 V0 1.958586 1_555
O2 V0 2.006413 1_555
O2 V0 2.007310 1_554
