# generated using pymatgen
data_NaMgH3
_symmetry_space_group_name_H-M   'P 1'
_cell_length_a   5.31825568
_cell_length_b   5.42821054
_cell_length_c   7.61022894
_cell_angle_alpha   90.00000000
_cell_angle_beta   90.00000000
_cell_angle_gamma   90.00000000
_symmetry_Int_Tables_number   1
_chemical_formula_structural   NaMgH3
_chemical_formula_sum   'Na4 Mg4 H12'
_cell_volume   219.69674297
_cell_formula_units_Z   4
loop_
 _symmetry_equiv_pos_site_id
 _symmetry_equiv_pos_as_xyz
  1  'x, y, z'
loop_
 _atom_site_type_symbol
 _atom_site_label
 _atom_site_symmetry_multiplicity
 _atom_site_fract_x
 _atom_site_fract_y
 _atom_site_fract_z
 _atom_site_occupancy
  Na  Na0  1  0.00995946  0.03278862  0.25000000  1
  Na  Na1  1  0.49004054  0.53278862  0.25000000  1
  Na  Na2  1  0.50995946  0.46721138  0.75000000  1
  Na  Na3  1  0.99004054  0.96721138  0.75000000  1
  Mg  Mg0  1  -0.00000000  0.50000000  0.50000000  1
  Mg  Mg1  1  -0.00000000  0.50000000  -0.00000000  1
  Mg  Mg2  1  0.50000000  0.00000000  -0.00000000  1
  Mg  Mg3  1  0.50000000  0.00000000  0.50000000  1
  H  H0  1  0.21084129  0.78745858  0.04467651  1
  H  H1  1  0.28915871  0.28745858  0.45532349  1
  H  H2  1  0.78915871  0.21254142  0.95532349  1
  H  H3  1  0.58384024  0.97460144  0.25000000  1
  H  H4  1  0.91615976  0.47460144  0.25000000  1
  H  H5  1  0.28915871  0.28745858  0.04467651  1
  H  H6  1  0.71084129  0.71254142  0.54467651  1
  H  H7  1  0.71084129  0.71254142  0.95532349  1
  H  H8  1  0.41615976  0.02539856  0.75000000  1
  H  H9  1  0.78915871  0.21254142  0.54467651  1
  H  H10  1  0.08384024  0.52539856  0.75000000  1
  H  H11  1  0.21084129  0.78745858  0.45532349  1
loop_
_geom_bond_atom_site_label_1
_geom_bond_atom_site_label_2
_geom_bond_distance
_geom_bond_site_symmetry_2
H0 Mg1 1.951342 1_555
H0 Mg2 1.952321 1_565
H0 Na0 2.314384 1_565
H0 Na1 2.560745 1_555
H1 Mg3 1.951342 1_555
H1 Mg0 1.952321 1_555
H1 Na1 2.314384 1_555
H1 Na0 2.560745 1_555
H2 Mg1 1.951342 1_656
H2 Mg2 1.952321 1_556
H2 Na3 2.314384 1_545
H2 Na2 2.560745 1_555
H3 Mg2 1.958965 1_565
H3 Mg3 1.958965 1_565
H3 Na0 2.288116 1_665
H3 Na1 2.449586 1_555
H4 Mg1 1.958965 1_655
H4 Mg0 1.958965 1_655
H4 Na1 2.288116 1_555
H4 Na0 2.449586 1_655
H5 Mg2 1.951342 1_555
H5 Mg1 1.952321 1_555
H5 Na1 2.314384 1_555
H5 Na0 2.560745 1_555
H6 Mg3 1.951342 1_565
H6 Mg0 1.952321 1_655
H6 Na2 2.314384 1_555
H6 Na3 2.560745 1_555
H7 Mg2 1.951342 1_566
H7 Mg1 1.952321 1_656
H7 Na2 2.314384 1_555
H7 Na3 2.560745 1_555
H8 Mg2 1.958965 1_556
H8 Mg3 1.958965 1_555
H8 Na3 2.288116 1_445
H8 Na2 2.449586 1_555
H9 Mg0 1.951342 1_655
H9 Mg3 1.952321 1_555
H9 Na3 2.314384 1_545
H9 Na2 2.560745 1_555
H10 Mg0 1.958965 1_555
H10 Mg1 1.958965 1_556
H10 Na2 2.288116 1_555
H10 Na3 2.449586 1_455
H11 Mg0 1.951342 1_555
H11 Mg3 1.952321 1_565
H11 Na0 2.314384 1_565
H11 Na1 2.560745 1_555
