# generated using pymatgen
data_Nd3S4
_symmetry_space_group_name_H-M   'P 1'
_cell_length_a   7.43195244
_cell_length_b   7.43195177
_cell_length_c   7.43195255
_cell_angle_alpha   109.47122278
_cell_angle_beta   109.47122097
_cell_angle_gamma   109.47122618
_symmetry_Int_Tables_number   1
_chemical_formula_structural   Nd3S4
_chemical_formula_sum   'Nd6 S8'
_cell_volume   315.99979358
_cell_formula_units_Z   2
loop_
 _symmetry_equiv_pos_site_id
 _symmetry_equiv_pos_as_xyz
  1  'x, y, z'
loop_
 _atom_site_type_symbol
 _atom_site_label
 _atom_site_symmetry_multiplicity
 _atom_site_fract_x
 _atom_site_fract_y
 _atom_site_fract_z
 _atom_site_occupancy
  Nd  Nd0  1  0.75000000  0.87500000  0.12500000  1
  Nd  Nd1  1  0.62500000  0.37500000  0.25000000  1
  Nd  Nd2  1  0.87500000  0.12500000  0.75000000  1
  Nd  Nd3  1  0.12500000  0.75000000  0.87500000  1
  Nd  Nd4  1  0.37500000  0.25000000  0.62500000  1
  Nd  Nd5  1  0.25000000  0.62500000  0.37500000  1
  S  S0  1  0.64789631  0.64789631  0.64789631  1
  S  S1  1  0.35210369  0.50000000  -0.00000000  1
  S  S2  1  0.50000000  -0.00000000  0.35210369  1
  S  S3  1  -0.00000000  0.35210369  0.50000000  1
  S  S4  1  0.50000000  -0.00000000  0.85210369  1
  S  S5  1  -0.00000000  0.85210369  0.50000000  1
  S  S6  1  0.14789631  0.14789631  0.14789631  1
  S  S7  1  0.85210369  0.50000000  -0.00000000  1
loop_
_geom_bond_atom_site_label_1
_geom_bond_atom_site_label_2
_geom_bond_distance
_geom_bond_site_symmetry_2
Nd0 S1 2.884989 1_555
Nd0 S6 2.884989 1_665
Nd0 S4 2.884989 1_564
Nd0 S5 2.884989 1_655
Nd0 S3 3.059399 1_665
Nd0 S7 3.059399 1_555
Nd0 S0 3.059399 1_554
Nd0 S2 3.059399 1_565
Nd1 S4 2.884989 1_554
Nd1 S0 2.884989 1_555
Nd1 S3 2.884989 1_655
Nd1 S1 2.884989 1_555
Nd1 S5 3.059399 1_655
Nd1 S2 3.059399 1_555
Nd1 S6 3.059399 1_555
Nd1 S7 3.059399 1_555
Nd2 S7 2.884989 1_556
Nd2 S5 2.884989 1_645
Nd2 S2 2.884989 1_555
Nd2 S6 2.884989 1_656
Nd2 S0 3.059399 1_545
Nd2 S1 3.059399 1_656
Nd2 S3 3.059399 1_655
Nd2 S4 3.059399 1_555
Nd3 S3 2.884989 1_555
Nd3 S6 2.884989 1_566
Nd3 S4 2.884989 1_565
Nd3 S7 2.884989 1_456
Nd3 S2 3.059399 1_566
Nd3 S0 3.059399 1_455
Nd3 S1 3.059399 1_556
Nd3 S5 3.059399 1_555
Nd4 S5 2.884989 1_545
Nd4 S0 2.884989 1_555
Nd4 S1 2.884989 1_556
Nd4 S2 2.884989 1_555
Nd4 S7 3.059399 1_556
Nd4 S4 3.059399 1_555
Nd4 S6 3.059399 1_555
Nd4 S3 3.059399 1_555
Nd5 S2 2.884989 1_565
Nd5 S3 2.884989 1_555
Nd5 S7 2.884989 1_455
Nd5 S0 2.884989 1_555
Nd5 S6 3.059399 1_555
Nd5 S4 3.059399 1_565
Nd5 S5 3.059399 1_555
Nd5 S1 3.059399 1_555
