# generated using pymatgen
data_Na5Sc2Al2P5SO24
_symmetry_space_group_name_H-M   'P 1'
_cell_length_a   8.76679495
_cell_length_b   8.75951833
_cell_length_c   22.04359392
_cell_angle_alpha   90.24170831
_cell_angle_beta   89.82774029
_cell_angle_gamma   119.92003093
_symmetry_Int_Tables_number   1
_chemical_formula_structural   Na5Sc2Al2P5SO24
_chemical_formula_sum   'Na15 Sc6 Al6 P15 S3 O72'
_cell_volume   1467.16652190
_cell_formula_units_Z   3
loop_
 _symmetry_equiv_pos_site_id
 _symmetry_equiv_pos_as_xyz
  1  'x, y, z'
loop_
 _atom_site_type_symbol
 _atom_site_label
 _atom_site_symmetry_multiplicity
 _atom_site_fract_x
 _atom_site_fract_y
 _atom_site_fract_z
 _atom_site_occupancy
  Na  Na0  1  0.63856600  0.00022764  0.25039594  1
  Na  Na1  1  0.99724110  0.35784100  0.75005329  1
  Na  Na2  1  0.36008831  0.99864807  0.75008556  1
  Na  Na3  1  0.03469517  0.70031231  0.58090100  1
  Na  Na4  1  0.66488269  0.96560377  0.58245043  1
  Na  Na5  1  0.30620620  0.97697861  0.08339637  1
  Na  Na6  1  0.02583354  0.33351119  0.08514608  1
  Na  Na7  1  0.96993837  0.66513533  0.91785320  1
  Na  Na8  1  0.69764088  0.67082433  0.41720754  1
  Na  Na9  1  0.02329083  0.02258271  0.49440303  1
  Na  Na10  1  0.99429609  0.00622869  0.00356427  1
  Na  Na11  1  0.65289161  0.32417359  0.83603648  1
  Na  Na12  1  0.68321423  0.34092823  0.33164502  1
  Na  Na13  1  0.33728100  0.64630816  0.16996720  1
  Na  Na14  1  0.34770579  0.64782219  0.66465592  1
  Sc  Sc0  1  0.00447220  0.01094202  0.85638348  1
  Sc  Sc1  1  0.00467921  0.00411932  0.64418257  1
  Sc  Sc2  1  0.66641974  0.34058069  0.68382418  1
  Sc  Sc3  1  0.66365925  0.32627344  0.98661530  1
  Sc  Sc4  1  0.32970411  0.66706904  0.51216774  1
  Sc  Sc5  1  0.33657381  0.66882087  0.81575243  1
  Al  Al0  1  0.98614766  0.99083344  0.34765963  1
  Al  Al1  1  0.99137250  0.99950379  0.15159126  1
  Al  Al2  1  0.67825885  0.35140181  0.18407496  1
  Al  Al3  1  0.67511972  0.32772303  0.47832483  1
  Al  Al4  1  0.33315344  0.66717533  0.02359428  1
  Al  Al5  1  0.32455382  0.65925840  0.31467326  1
  P  P0  1  0.70659642  0.70475574  0.25054473  1
  P  P1  1  0.00254785  0.29196527  0.24982399  1
  P  P2  1  0.29623173  0.29564634  0.75050876  1
  P  P3  1  0.99652543  0.70396615  0.75186743  1
  P  P4  1  0.70469357  0.99718833  0.74766564  1
  P  P5  1  0.95904830  0.33447911  0.57984466  1
  P  P6  1  0.38098332  0.05014852  0.57812726  1
  P  P7  1  0.66329711  0.61891211  0.57554563  1
  P  P8  1  0.96197919  0.63536351  0.08569233  1
  P  P9  1  0.66646728  0.03468744  0.08937485  1
  P  P10  1  0.37282867  0.33462415  0.08888515  1
  P  P11  1  0.04625585  0.37782080  0.92245978  1
  P  P12  1  0.33583137  0.95803987  0.92165370  1
  P  P13  1  0.63018016  0.96698084  0.41120568  1
  P  P14  1  0.03679859  0.66946379  0.41259107  1
  S  S0  1  0.28482669  0.99910728  0.25071678  1
  S  S1  1  0.62019908  0.66650491  0.92240424  1
  S  S2  1  0.32734465  0.36432509  0.41101363  1
  O  O0  1  0.19380714  0.01920521  0.30367733  1
  O  O1  1  0.81530135  0.78499073  0.30918617  1
  O  O2  1  0.96493137  0.16166713  0.30266138  1
  O  O3  1  0.20793203  0.18364832  0.80708820  1
  O  O4  1  0.98467947  0.79389128  0.81022604  1
  O  O5  1  0.82285297  0.02064966  0.80223487  1
  O  O6  1  0.78635552  0.98196273  0.68749334  1
  O  O7  1  0.18254703  0.20713492  0.69405894  1
  O  O8  1  0.01820530  0.81276673  0.69410967  1
  O  O9  1  0.79925972  0.83612481  0.19790079  1
  O  O10  1  0.03106430  0.20987577  0.19125591  1
  O  O11  1  0.18333360  0.97679383  0.19416150  1
  O  O12  1  0.88397456  0.35853280  0.64057712  1
  O  O13  1  0.47822082  0.12114877  0.63913879  1
  O  O14  1  0.64668017  0.51838110  0.63409523  1
  O  O15  1  0.86884522  0.49925344  0.13689650  1
  O  O16  1  0.62823337  0.12321473  0.14471292  1
  O  O17  1  0.49510364  0.36246975  0.14295529  1
  O  O18  1  0.44564566  0.28991439  0.03201247  1
  O  O19  1  0.85914544  0.56698236  0.02600811  1
  O  O20  1  0.71085753  0.15731154  0.03400202  1
  O  O21  1  0.48248757  0.16520784  0.52405713  1
  O  O22  1  0.68224885  0.52592667  0.51849488  1
  O  O23  1  0.83945515  0.31595152  0.52607783  1
  O  O24  1  0.52627734  0.67847547  0.97605144  1
  O  O25  1  0.15811213  0.47780353  0.97866217  1
  O  O26  1  0.32243022  0.84219640  0.97690189  1
  O  O27  1  0.55540808  0.84896911  0.46845231  1
  O  O28  1  0.29543041  0.43589774  0.46755556  1
  O  O29  1  0.13695136  0.70010303  0.47316739  1
  O  O30  1  0.13783063  0.64074109  0.36062894  1
  O  O31  1  0.50829793  0.86879269  0.35627345  1
  O  O32  1  0.36197900  0.48960115  0.36013569  1
  O  O33  1  0.12925823  0.47851248  0.86277516  1
  O  O34  1  0.34990579  0.87594287  0.86106577  1
  O  O35  1  0.52731869  0.65139434  0.86519384  1
  O  O36  1  0.01408411  0.83411317  0.40350438  1
  O  O37  1  0.81574620  0.98461352  0.40333310  1
  O  O38  1  0.17266987  0.18807056  0.40116630  1
  O  O39  1  0.02325573  0.19254337  0.92120825  1
  O  O40  1  0.16160592  0.96419781  0.92128769  1
  O  O41  1  0.79820310  0.82566341  0.92109533  1
  O  O42  1  0.97087492  0.16500881  0.58098453  1
  O  O43  1  0.19300304  0.02246246  0.58025784  1
  O  O44  1  0.83337941  0.80369947  0.57876135  1
  O  O45  1  0.99110265  0.82211144  0.09841358  1
  O  O46  1  0.83213625  0.01647945  0.09732457  1
  O  O47  1  0.18436677  0.16863667  0.09707547  1
  O  O48  1  0.68470641  0.16367083  0.74731701  1
  O  O49  1  0.47704676  0.30940383  0.74702939  1
  O  O50  1  0.83728010  0.51674529  0.74962729  1
  O  O51  1  0.68937730  0.52167897  0.24038059  1
  O  O52  1  0.83147270  0.30733246  0.24223563  1
  O  O53  1  0.46537406  0.15672790  0.24730740  1
  O  O54  1  0.64345139  0.51003585  0.92461991  1
  O  O55  1  0.86434893  0.36730536  0.92480427  1
  O  O56  1  0.49698095  0.14320319  0.92462707  1
  O  O57  1  0.64677477  0.14987229  0.42011996  1
  O  O58  1  0.49082451  0.35248749  0.41655625  1
  O  O59  1  0.84741031  0.50390506  0.41880391  1
  O  O60  1  0.34791781  0.49754750  0.07983528  1
  O  O61  1  0.14991650  0.65342440  0.07973770  1
  O  O62  1  0.49833252  0.85307990  0.07900134  1
  O  O63  1  0.36072657  0.86258017  0.57370659  1
  O  O64  1  0.50470812  0.64889891  0.57287180  1
  O  O65  1  0.14197554  0.50020971  0.57466165  1
  O  O66  1  0.30687796  0.83934921  0.25566045  1
  O  O67  1  0.52021164  0.68940794  0.25794838  1
  O  O68  1  0.16684851  0.47644592  0.25996141  1
  O  O69  1  0.31160801  0.47770502  0.75418050  1
  O  O70  1  0.16467171  0.68559109  0.75281856  1
  O  O71  1  0.51847401  0.83621540  0.75196473  1
loop_
_geom_bond_atom_site_label_1
_geom_bond_atom_site_label_2
_geom_bond_distance
_geom_bond_site_symmetry_2
Na0 O52 2.364922 1_555
Na0 O67 2.387818 1_545
Na0 O53 2.503413 1_555
Na0 O66 2.523169 1_545
Na0 O16 2.591483 1_555
Na0 O31 2.602293 1_545
Na0 O9 2.717777 1_545
Na0 O2 2.735555 1_555
Na1 O48 2.398941 1_555
Na1 O69 2.412509 1_655
Na1 O50 2.418997 1_555
Na1 O70 2.489118 1_655
Na1 O12 2.613495 1_555
Na1 O33 2.721347 1_655
Na1 O5 2.810303 1_555
Na1 O7 2.831774 1_655
Na2 O49 2.383769 1_565
Na2 O70 2.402631 1_555
Na2 O71 2.434320 1_555
Na2 O48 2.467402 1_565
Na2 O34 2.659565 1_555
Na2 O13 2.665253 1_565
Na2 O3 2.848415 1_565
Na2 O8 2.879915 1_555
Na3 O44 2.352137 1_455
Na3 O65 2.370127 1_555
Na3 O43 2.445952 1_565
Na3 O63 2.482219 1_555
Na3 O29 2.536196 1_555
Na3 O8 2.708877 1_555
Na4 O63 2.358547 1_555
Na4 O42 2.360895 1_565
Na4 O64 2.413131 1_555
Na4 O44 2.507616 1_555
Na4 O6 2.525084 1_555
Na4 O27 2.700812 1_555
Na4 O13 2.879828 1_565
Na4 O23 2.939356 1_565
Na5 O47 2.415163 1_565
Na5 O45 2.416792 1_455
Na5 O62 2.417835 1_555
Na5 O61 2.457898 1_555
Na5 O18 2.639393 1_565
Na5 O26 2.658400 1_554
Na5 O11 2.665436 1_555
Na5 O16 2.799765 1_565
Na6 O46 2.442714 1_455
Na6 O60 2.450166 1_555
Na6 O61 2.451817 1_555
Na6 O47 2.468667 1_555
Na6 O10 2.591841 1_555
Na6 O25 2.645481 1_554
Na6 O20 2.651523 1_455
Na6 O15 2.696881 1_455
Na7 O55 2.297792 1_555
Na7 O40 2.302092 1_655
Na7 O54 2.486039 1_555
Na7 O41 2.521812 1_555
Na7 O19 2.556749 1_556
Na7 O4 2.606293 1_555
Na8 O59 2.403930 1_555
Na8 O36 2.423515 1_655
Na8 O37 2.426263 1_555
Na8 O58 2.453450 1_555
Na8 O22 2.542739 1_555
Na8 O1 2.590438 1_555
Na8 O27 2.680231 1_555
Na8 O32 2.847357 1_555
Na9 O43 2.411202 1_555
Na9 O42 2.440654 1_455
Na9 O38 2.481058 1_555
Na9 O36 2.566530 1_545
Na9 O44 2.594805 1_445
Na9 O37 2.619911 1_445
Na10 O39 2.373312 1_654
Na10 O41 2.458425 1_544
Na10 O40 2.468493 1_644
Na10 O46 2.531580 1_555
Na10 O47 2.584686 1_655
Na10 O45 2.637503 1_545
Na11 O56 2.458326 1_555
Na11 O49 2.461691 1_555
Na11 O48 2.498775 1_555
Na11 O50 2.524885 1_555
Na11 O54 2.564583 1_555
Na11 O55 2.593283 1_555
Na12 O59 2.396865 1_555
Na12 O52 2.453914 1_555
Na12 O57 2.489377 1_555
Na12 O51 2.549104 1_555
Na12 O58 2.551125 1_555
Na12 O53 2.574672 1_555
Na13 O60 2.398427 1_555
Na13 O67 2.425762 1_555
Na13 O68 2.484170 1_555
Na13 O62 2.599503 1_555
Na13 O61 2.604008 1_555
Na13 O66 2.630256 1_555
Na14 O69 2.401204 1_555
Na14 O64 2.441024 1_555
Na14 O71 2.488893 1_555
Na14 O65 2.556116 1_555
Na14 O70 2.639425 1_555
Na14 O63 2.717997 1_555
Al0 O1 1.874661 1_555
Al0 O2 1.883899 1_565
Al0 O37 1.910262 1_555
Al0 O36 1.952288 1_655
Al0 O0 1.963689 1_665
Al0 O38 2.055750 1_665
Al1 O9 1.877306 1_555
Al1 O46 1.902761 1_565
Al1 O10 1.905227 1_665
Al1 O45 1.941551 1_555
Al1 O47 2.000981 1_665
Al1 O11 2.024179 1_655
Al2 O15 1.841953 1_555
Al2 O17 1.890507 1_555
Al2 O51 1.901265 1_555
Al2 O16 2.013359 1_555
Al2 O52 2.031914 1_555
Al2 O53 2.272325 1_555
Al3 O23 1.830992 1_555
Al3 O21 1.870387 1_555
Al3 O22 1.918697 1_555
Al3 O57 1.932311 1_555
Al3 O59 2.016031 1_555
Al3 O58 2.208344 1_555
Al4 O25 1.882396 1_554
Al4 O26 1.891110 1_554
Al4 O24 1.948761 1_554
Al4 O62 1.970266 1_555
Al4 O61 1.980649 1_555
Al4 O60 1.992457 1_555
Al5 O30 1.859765 1_555
Al5 O68 1.927557 1_555
Al5 O32 1.954856 1_555
Al5 O31 1.962082 1_555
Al5 O67 2.028178 1_555
Al5 O66 2.113565 1_555
O0 S0 1.470863 1_545
O1 P0 1.550717 1_555
O2 P1 1.549659 1_655
O3 P2 1.537582 1_555
O3 Sc0 1.990306 1_555
O4 P3 1.535715 1_555
O4 Sc0 2.082256 1_665
O5 P4 1.534696 1_545
O5 Sc0 2.028421 1_655
O6 P4 1.541992 1_555
O6 Sc1 2.057319 1_665
O7 P2 1.539909 1_555
O7 Sc1 2.007551 1_555
O8 P3 1.547095 1_455
O8 Sc1 2.061419 1_565
O9 P0 1.550429 1_555
O10 P1 1.554324 1_555
O11 S0 1.488365 1_555
O12 P5 1.549356 1_555
O12 Sc2 2.064539 1_555
O13 P6 1.547005 1_555
O13 Sc2 2.053570 1_555
O14 P7 1.530663 1_555
O14 Sc2 1.985362 1_555
O15 P8 1.548177 1_555
O16 P9 1.565431 1_555
O17 P10 1.540654 1_555
O18 P10 1.540473 1_555
O18 Sc3 2.034650 1_554
O19 P8 1.537616 1_555
O19 Sc3 2.127344 1_554
O20 P9 1.544768 1_555
O20 Sc3 2.019748 1_554
O21 P6 1.528836 1_555
O22 P7 1.548449 1_555
O23 P5 1.538318 1_555
O24 S1 1.471967 1_555
O25 P11 1.550781 1_555
O26 P12 1.554776 1_555
O27 P13 1.555886 1_555
O27 Sc4 2.058881 1_555
O28 S2 1.480241 1_555
O28 Sc4 2.129745 1_555
O29 P14 1.547571 1_555
O29 Sc4 2.043760 1_555
O30 P14 1.540650 1_555
O31 P13 1.558833 1_555
O32 S2 1.493376 1_555
O33 P11 1.549899 1_555
O33 Sc5 2.034069 1_555
O34 P12 1.547759 1_555
O34 Sc5 2.019138 1_555
O35 S1 1.472489 1_555
O35 Sc5 2.067472 1_555
O36 P14 1.564941 1_555
O37 P13 1.564730 1_555
O38 S2 1.476472 1_555
O39 P11 1.532501 1_555
O39 Sc0 2.078569 1_555
O40 P12 1.555053 1_555
O40 Sc0 2.166049 1_565
O41 S1 1.486422 1_555
O41 Sc0 2.239452 1_665
O42 P5 1.539132 1_555
O42 Sc1 2.109609 1_655
O43 P6 1.542014 1_555
O43 Sc1 2.111999 1_555
O44 P7 1.562156 1_555
O44 Sc1 2.186005 1_665
O45 P8 1.549081 1_555
O46 P9 1.548685 1_555
O47 P10 1.574924 1_555
O48 P4 1.553201 1_545
O48 Sc2 2.157195 1_555
O49 P2 1.530342 1_555
O49 Sc2 2.075821 1_555
O50 P3 1.535154 1_555
O50 Sc2 2.101738 1_555
O51 P0 1.549323 1_555
O52 P1 1.580676 1_655
O53 S0 1.495769 1_545
O54 S1 1.483849 1_555
O54 Sc3 2.189638 1_555
O55 P11 1.551567 1_655
O55 Sc3 2.107149 1_555
O56 P12 1.531233 1_545
O56 Sc3 2.056664 1_555
O57 P13 1.546391 1_545
O58 S2 1.493029 1_555
O59 P14 1.573807 1_655
O60 P10 1.561336 1_555
O61 P8 1.579783 1_455
O62 P9 1.554154 1_565
O63 P6 1.564670 1_565
O63 Sc4 2.089277 1_555
O64 P7 1.539606 1_555
O64 Sc4 2.104168 1_555
O65 P5 1.539538 1_455
O65 Sc4 2.084785 1_555
O66 S0 1.509592 1_555
O67 P0 1.579270 1_555
O68 P1 1.553350 1_555
O69 P2 1.533774 1_555
O69 Sc5 2.075988 1_555
O70 P3 1.560845 1_455
O70 Sc5 2.110077 1_555
O71 P4 1.538252 1_555
O71 Sc5 2.083620 1_555
