# generated using pymatgen
data_Eu3TaO6
_symmetry_space_group_name_H-M   'P 1'
_cell_length_a   6.01433491
_cell_length_b   6.01433491
_cell_length_c   6.01433491
_cell_angle_alpha   60.00000000
_cell_angle_beta   60.00000000
_cell_angle_gamma   60.00000000
_symmetry_Int_Tables_number   1
_chemical_formula_structural   Eu3TaO6
_chemical_formula_sum   'Eu3 Ta1 O6'
_cell_volume   153.83240407
_cell_formula_units_Z   1
loop_
 _symmetry_equiv_pos_site_id
 _symmetry_equiv_pos_as_xyz
  1  'x, y, z'
loop_
 _atom_site_type_symbol
 _atom_site_label
 _atom_site_symmetry_multiplicity
 _atom_site_fract_x
 _atom_site_fract_y
 _atom_site_fract_z
 _atom_site_occupancy
  Eu  Eu0  1  0.75000000  0.75000000  0.75000000  1
  Eu  Eu1  1  0.50000000  0.50000000  0.50000000  1
  Eu  Eu2  1  0.25000000  0.25000000  0.25000000  1
  Ta  Ta0  1  0.00000000  0.00000000  0.00000000  1
  O  O0  1  0.76636600  0.76636600  0.23363400  1
  O  O1  1  0.76636600  0.23363400  0.76636600  1
  O  O2  1  0.23363400  0.76636600  0.23363400  1
  O  O3  1  0.76636600  0.23363400  0.23363400  1
  O  O4  1  0.23363400  0.23363400  0.76636600  1
  O  O5  1  0.23363400  0.76636600  0.76636600  1
loop_
_geom_bond_atom_site_label_1
_geom_bond_atom_site_label_2
_geom_bond_distance
_geom_bond_site_symmetry_2
Eu0 O0 3.010388 1_556
Eu0 O4 3.010388 1_655
Eu0 O2 3.010388 1_655
Eu0 O2 3.010388 1_556
Eu0 O1 3.010388 1_565
Eu0 O5 3.010388 1_655
Eu0 O4 3.010388 1_565
Eu0 O3 3.010388 1_556
Eu0 O0 3.010388 1_555
Eu0 O3 3.010388 1_565
Eu0 O1 3.010388 1_555
Eu0 O5 3.010388 1_555
Eu1 O0 2.265590 1_555
Eu1 O2 2.265590 1_555
Eu1 O4 2.265590 1_555
Eu1 O1 2.265590 1_555
Eu1 O5 2.265590 1_555
Eu1 O3 2.265590 1_555
Eu2 O4 3.010388 1_555
Eu2 O0 3.010388 1_545
Eu2 O0 3.010388 1_455
Eu2 O1 3.010388 1_455
Eu2 O1 3.010388 1_554
Eu2 O4 3.010388 1_554
Eu2 O3 3.010388 1_555
Eu2 O2 3.010388 1_555
Eu2 O2 3.010388 1_545
Eu2 O5 3.010388 1_545
Eu2 O5 3.010388 1_554
Eu2 O3 3.010388 1_455
O0 Ta0 1.987187 1_665
O1 Ta0 1.987187 1_656
O2 Ta0 1.987187 1_565
O3 Ta0 1.987187 1_655
O4 Ta0 1.987187 1_556
O5 Ta0 1.987187 1_566
