# generated using pymatgen
data_Na5Ca2Y2P3(SO8)3
_symmetry_space_group_name_H-M   'P 1'
_cell_length_a   9.34639123
_cell_length_b   9.34576583
_cell_length_c   23.55035596
_cell_angle_alpha   90.06118729
_cell_angle_beta   90.16903382
_cell_angle_gamma   120.07870178
_symmetry_Int_Tables_number   1
_chemical_formula_structural   Na5Ca2Y2P3(SO8)3
_chemical_formula_sum   'Na15 Ca6 Y6 P9 S9 O72'
_cell_volume   1780.07468357
_cell_formula_units_Z   3
loop_
 _symmetry_equiv_pos_site_id
 _symmetry_equiv_pos_as_xyz
  1  'x, y, z'
loop_
 _atom_site_type_symbol
 _atom_site_label
 _atom_site_symmetry_multiplicity
 _atom_site_fract_x
 _atom_site_fract_y
 _atom_site_fract_z
 _atom_site_occupancy
  Na  Na0  1  0.64469086  0.01848701  0.25395111  1
  Na  Na1  1  0.00253886  0.63135366  0.24036583  1
  Na  Na2  1  0.63070395  0.63447167  0.74185496  1
  Na  Na3  1  0.99354489  0.34666885  0.74476991  1
  Na  Na4  1  0.30837388  0.34940856  0.58704807  1
  Na  Na5  1  0.67007938  0.96523082  0.57590670  1
  Na  Na6  1  0.29768559  0.95610844  0.07836332  1
  Na  Na7  1  0.69060272  0.02594551  0.90915210  1
  Na  Na8  1  0.96213430  0.28886127  0.41132043  1
  Na  Na9  1  0.97214114  0.96642618  0.49560258  1
  Na  Na10  1  0.01233273  0.98243702  0.99560792  1
  Na  Na11  1  0.62122734  0.30152248  0.82822002  1
  Na  Na12  1  0.63298647  0.30729565  0.33045019  1
  Na  Na13  1  0.30512289  0.63304305  0.16264063  1
  Na  Na14  1  0.32566699  0.66399247  0.66242591  1
  Ca  Ca0  1  0.00638254  0.00290180  0.34906085  1
  Ca  Ca1  1  0.02073155  0.00695135  0.85049712  1
  Ca  Ca2  1  0.66446548  0.33008075  0.68232597  1
  Ca  Ca3  1  0.66858218  0.33751511  0.18170610  1
  Ca  Ca4  1  0.32227054  0.66005501  0.01649080  1
  Ca  Ca5  1  0.33588056  0.67125138  0.51496036  1
  Y  Y0  1  0.99820250  0.99977406  0.65137520  1
  Y  Y1  1  0.00543070  0.00636087  0.15108250  1
  Y  Y2  1  0.67593099  0.34911722  0.98420035  1
  Y  Y3  1  0.67162814  0.33819444  0.48460734  1
  Y  Y4  1  0.33898148  0.67221559  0.31760180  1
  Y  Y5  1  0.33543031  0.67763178  0.81780702  1
  P  P0  1  0.30121605  0.99595042  0.24914038  1
  P  P1  1  0.99885970  0.30275671  0.25324808  1
  P  P2  1  0.30242915  0.30876485  0.74845046  1
  P  P3  1  0.70196279  0.99828783  0.75329406  1
  P  P4  1  0.96971961  0.33072739  0.58505485  1
  P  P5  1  0.66542170  0.63584003  0.58603230  1
  P  P6  1  0.97264838  0.64231764  0.08771940  1
  P  P7  1  0.34150666  0.97343128  0.92240131  1
  P  P8  1  0.64123020  0.97574522  0.41829912  1
  S  S0  1  0.70275691  0.70496759  0.25040643  1
  S  S1  1  0.99898013  0.69846368  0.75055660  1
  S  S2  1  0.36716870  0.03639132  0.58310389  1
  S  S3  1  0.66792076  0.03454279  0.08286564  1
  S  S4  1  0.36740577  0.33090269  0.08345392  1
  S  S5  1  0.63141958  0.66845868  0.91600713  1
  S  S6  1  0.02744908  0.36316157  0.91520545  1
  S  S7  1  0.33413116  0.36754240  0.41886189  1
  S  S8  1  0.03230783  0.66297747  0.41599368  1
  O  O0  1  0.21178218  0.00929097  0.30070312  1
  O  O1  1  0.80200657  0.78332648  0.30127452  1
  O  O2  1  0.97685811  0.20523283  0.30820555  1
  O  O3  1  0.21175003  0.20084424  0.79887014  1
  O  O4  1  0.98166372  0.77948674  0.80096261  1
  O  O5  1  0.80111694  0.01286314  0.80716480  1
  O  O6  1  0.78946331  0.97461366  0.70000545  1
  O  O7  1  0.20421774  0.22652449  0.69208204  1
  O  O8  1  0.02089514  0.79832433  0.69895611  1
  O  O9  1  0.78376004  0.80941265  0.19954549  1
  O  O10  1  0.01297082  0.20744314  0.20141481  1
  O  O11  1  0.19758390  0.97409516  0.19398674  1
  O  O12  1  0.88945830  0.34460476  0.63978411  1
  O  O13  1  0.46651691  0.11393485  0.63409971  1
  O  O14  1  0.64574852  0.54030268  0.64124817  1
  O  O15  1  0.89437476  0.55500814  0.14380895  1
  O  O16  1  0.64871337  0.11491836  0.13410532  1
  O  O17  1  0.46073841  0.34669354  0.13514041  1
  O  O18  1  0.45331622  0.31203846  0.03290707  1
  O  O19  1  0.86187577  0.54276116  0.03637711  1
  O  O20  1  0.68487316  0.13626161  0.03150365  1
  O  O21  1  0.44934460  0.14108470  0.53239924  1
  O  O22  1  0.67604784  0.53818178  0.53438811  1
  O  O23  1  0.85845689  0.30993561  0.53216890  1
  O  O24  1  0.54190717  0.68120404  0.96496849  1
  O  O25  1  0.12900335  0.44788984  0.96462798  1
  O  O26  1  0.32957964  0.88160921  0.97775728  1
  O  O27  1  0.55547721  0.88169054  0.47259724  1
  O  O28  1  0.31862760  0.44535796  0.47123271  1
  O  O29  1  0.13086458  0.67749568  0.46601905  1
  O  O30  1  0.11320540  0.64425340  0.36364360  1
  O  O31  1  0.53794246  0.88421231  0.36395624  1
  O  O32  1  0.34920958  0.47166426  0.36880300  1
  O  O33  1  0.10644832  0.45641779  0.86212004  1
  O  O34  1  0.36050048  0.87606099  0.87100300  1
  O  O35  1  0.53519858  0.64773721  0.86249918  1
  O  O36  1  0.00791433  0.80637117  0.41239800  1
  O  O37  1  0.81822262  0.00018639  0.41597695  1
  O  O38  1  0.18148337  0.20372671  0.41390200  1
  O  O39  1  0.99768132  0.19132931  0.91299536  1
  O  O40  1  0.19035230  0.99519898  0.91669428  1
  O  O41  1  0.79444850  0.82323226  0.91308982  1
  O  O42  1  0.97992675  0.16634358  0.58621649  1
  O  O43  1  0.20189812  0.02454963  0.58711790  1
  O  O44  1  0.82164662  0.81337572  0.58638222  1
  O  O45  1  0.99430979  0.82087494  0.08571616  1
  O  O46  1  0.81798395  0.01824131  0.08682452  1
  O  O47  1  0.20214152  0.17284664  0.08539632  1
  O  O48  1  0.69146237  0.15723445  0.74768134  1
  O  O49  1  0.48315066  0.34536596  0.74691997  1
  O  O50  1  0.84866697  0.53195984  0.74585702  1
  O  O51  1  0.68409520  0.53914948  0.24473483  1
  O  O52  1  0.84295303  0.32211534  0.24735343  1
  O  O53  1  0.48033017  0.14302721  0.24587393  1
  O  O54  1  0.65352070  0.52142121  0.92026481  1
  O  O55  1  0.85927096  0.34828866  0.91928646  1
  O  O56  1  0.50889916  0.14459021  0.92195137  1
  O  O57  1  0.66129907  0.15409525  0.41856939  1
  O  O58  1  0.48357158  0.34938516  0.42047884  1
  O  O59  1  0.86772429  0.50472454  0.41921794  1
  O  O60  1  0.34361668  0.47451568  0.07819371  1
  O  O61  1  0.14908105  0.66533355  0.08360191  1
  O  O62  1  0.51681840  0.86920379  0.07827699  1
  O  O63  1  0.35027986  0.87106055  0.57753543  1
  O  O64  1  0.51033331  0.65726380  0.58110894  1
  O  O65  1  0.14756937  0.47792539  0.57966433  1
  O  O66  1  0.31377239  0.83265543  0.25292258  1
  O  O67  1  0.53686005  0.69337618  0.25448214  1
  O  O68  1  0.15449130  0.48073081  0.25494573  1
  O  O69  1  0.30655758  0.48032547  0.75254044  1
  O  O70  1  0.14553870  0.67342959  0.75444686  1
  O  O71  1  0.52781423  0.83667055  0.75489493  1
loop_
_geom_bond_atom_site_label_1
_geom_bond_atom_site_label_2
_geom_bond_distance
_geom_bond_site_symmetry_2
Na0 O53 2.354091 1_555
Na0 O52 2.498393 1_555
Na0 O67 2.679269 1_545
Na0 O66 2.682906 1_545
Na0 O31 2.837060 1_545
Na0 O16 2.958331 1_555
Na0 O2 2.976153 1_555
Na1 O15 2.441697 1_455
Na1 O68 2.473576 1_555
Na1 O52 2.507156 1_455
Na1 O66 2.568404 1_555
Na1 O51 2.653802 1_455
Na2 O49 2.341596 1_555
Na2 O71 2.532214 1_555
Na2 O14 2.555304 1_555
Na2 O69 2.635825 1_555
Na2 O50 2.651832 1_555
Na2 O6 2.926705 1_555
Na2 O35 3.001633 1_555
Na3 O48 2.470123 1_555
Na3 O69 2.546739 1_655
Na3 O12 2.650792 1_555
Na3 O70 2.654041 1_655
Na3 O50 2.680201 1_555
Na3 O33 2.948741 1_655
Na3 O7 2.984140 1_655
Na4 O65 2.353731 1_555
Na4 O64 2.533604 1_555
Na4 O42 2.661986 1_455
Na4 O43 2.679449 1_555
Na4 O7 2.699047 1_555
Na4 O28 2.858869 1_555
Na5 O44 2.468945 1_555
Na5 O64 2.494495 1_555
Na5 O42 2.552852 1_565
Na5 O27 2.611231 1_555
Na5 O63 2.659681 1_555
Na6 O61 2.355322 1_555
Na6 O45 2.465445 1_455
Na6 O26 2.529019 1_554
Na6 O62 2.553782 1_555
Na6 O47 2.596372 1_565
Na6 O11 2.913737 1_555
Na7 O56 2.468675 1_555
Na7 O39 2.487177 1_555
Na7 O41 2.526420 1_545
Na7 O55 2.617900 1_555
Na7 O5 2.644101 1_555
Na7 O34 2.817288 1_545
Na8 O37 2.337491 1_555
Na8 O57 2.444336 1_555
Na8 O38 2.544440 1_655
Na8 O2 2.575385 1_555
Na8 O59 2.582187 1_555
Na9 O37 2.475037 1_565
Na9 O44 2.569548 1_555
Na9 O36 2.586093 1_655
Na9 O42 2.811466 1_565
Na9 O38 2.851409 1_665
Na9 O43 2.890034 1_665
Na10 O40 2.460936 1_555
Na10 O45 2.562317 1_456
Na10 O41 2.659076 1_455
Na10 O47 2.755103 1_566
Na10 O39 2.808872 1_465
Na10 O46 2.942268 1_466
Na11 O49 2.452824 1_555
Na11 O56 2.569644 1_555
Na11 O48 2.595388 1_555
Na11 O50 2.891974 1_555
Na11 O54 2.894539 1_555
Na11 O55 2.955608 1_555
Na12 O53 2.478092 1_555
Na12 O57 2.609502 1_555
Na12 O58 2.677034 1_555
Na12 O52 2.729614 1_555
Na12 O51 2.824143 1_555
Na12 O59 2.914637 1_555
Na13 O61 2.471681 1_555
Na13 O68 2.598015 1_555
Na13 O60 2.609949 1_555
Na13 O66 2.801194 1_555
Na13 O62 2.896324 1_555
Na13 O67 2.903930 1_555
Na14 O65 2.581803 1_555
Na14 O64 2.603524 1_555
Na14 O69 2.680461 1_555
Na14 O63 2.712840 1_555
Na14 O70 2.776420 1_555
Na14 O71 2.797895 1_555
Ca0 O0 2.209998 1_555
Ca0 O2 2.258960 1_455
Ca0 O1 2.275867 1_445
Ca0 O38 2.330880 1_555
Ca0 O37 2.355532 1_455
Ca0 O36 2.372925 1_545
Ca1 O3 2.173465 1_555
Ca1 O40 2.261874 1_545
Ca1 O4 2.286362 1_445
Ca1 O5 2.314968 1_455
Ca1 O39 2.355970 1_455
Ca1 O41 2.444945 1_445
Ca2 O13 2.242747 1_555
Ca2 O12 2.273950 1_555
Ca2 O14 2.274647 1_555
Ca2 O48 2.335309 1_555
Ca2 O49 2.337456 1_555
Ca2 O50 2.342020 1_555
Ca3 O15 2.257640 1_555
Ca3 O17 2.266779 1_555
Ca3 O16 2.285938 1_555
Ca3 O52 2.299490 1_555
Ca3 O51 2.343984 1_555
Ca3 O53 2.345011 1_555
Ca4 O26 2.233098 1_554
Ca4 O25 2.253430 1_554
Ca4 O61 2.283755 1_555
Ca4 O24 2.309515 1_554
Ca4 O60 2.347041 1_555
Ca4 O62 2.379058 1_555
Ca5 O27 2.246312 1_555
Ca5 O29 2.258922 1_555
Ca5 O28 2.279600 1_555
Ca5 O64 2.302508 1_555
Ca5 O63 2.327641 1_555
Ca5 O65 2.349103 1_555
O0 P0 1.516229 1_545
O1 S0 1.463739 1_555
O2 P1 1.537645 1_555
O3 P2 1.515633 1_555
O4 S1 1.459725 1_555
O5 P3 1.533976 1_545
O6 P3 1.574658 1_555
O6 Y0 2.174181 1_555
O7 P2 1.574488 1_555
O7 Y0 2.238757 1_445
O8 S1 1.483903 1_455
O8 Y0 2.290969 1_455
O9 S0 1.492575 1_555
O9 Y1 2.275718 1_665
O10 P1 1.554786 1_455
O10 Y1 2.191723 1_555
O11 P0 1.568659 1_555
O11 Y1 2.206819 1_565
O12 P4 1.530904 1_555
O13 S2 1.465184 1_555
O14 P5 1.536642 1_555
O15 P6 1.534766 1_555
O16 S3 1.478903 1_555
O17 S4 1.459006 1_555
O18 S4 1.496645 1_555
O18 Y2 2.248805 1_554
O19 P6 1.556989 1_555
O19 Y2 2.153003 1_554
O20 S3 1.498180 1_555
O20 Y2 2.318653 1_554
O21 S2 1.492574 1_555
O21 Y3 2.271226 1_555
O22 P5 1.552839 1_555
O22 Y3 2.187935 1_555
O23 P4 1.568337 1_555
O23 Y3 2.196550 1_555
O24 S5 1.465929 1_555
O25 S6 1.456289 1_555
O26 P7 1.534833 1_555
O27 P8 1.533777 1_555
O28 S7 1.475062 1_555
O29 S8 1.457002 1_555
O30 S8 1.503305 1_555
O30 Y4 2.271178 1_555
O31 P8 1.569772 1_555
O31 Y4 2.205785 1_555
O32 S7 1.490827 1_555
O32 Y4 2.271537 1_555
O33 S6 1.493469 1_555
O33 Y5 2.350791 1_555
O34 P7 1.576593 1_555
O34 Y5 2.149694 1_555
O35 S5 1.500809 1_555
O35 Y5 2.276813 1_555
O36 S8 1.470195 1_555
O37 P8 1.553537 1_545
O38 S7 1.483988 1_555
O39 S6 1.486917 1_655
O40 P7 1.530468 1_555
O41 S5 1.486715 1_555
O42 P4 1.586515 1_555
O42 Y0 2.253302 1_545
O43 S2 1.495580 1_555
O43 Y0 2.354579 1_445
O44 P5 1.567325 1_555
O44 Y0 2.280001 1_555
O45 P6 1.577824 1_555
O45 Y1 2.279990 1_665
O46 S3 1.487445 1_555
O46 Y1 2.356148 1_655
O47 S4 1.511102 1_555
O47 Y1 2.312710 1_555
O48 P3 1.542797 1_545
O49 P2 1.546796 1_555
O50 S1 1.488215 1_555
O51 S0 1.475908 1_555
O52 P1 1.561554 1_555
O53 P0 1.546684 1_545
O54 S5 1.491909 1_555
O54 Y2 2.290313 1_555
O55 S6 1.510368 1_655
O55 Y2 2.302643 1_555
O56 P7 1.580552 1_545
O56 Y2 2.286770 1_555
O57 P8 1.581165 1_545
O57 Y3 2.283683 1_555
O58 S7 1.489421 1_555
O58 Y3 2.355857 1_555
O59 S8 1.509927 1_655
O59 Y3 2.305494 1_555
O60 S4 1.471576 1_555
O61 P6 1.555745 1_455
O62 S3 1.484979 1_565
O63 S2 1.478020 1_565
O64 P5 1.563523 1_555
O65 P4 1.543096 1_455
O66 P0 1.590752 1_555
O66 Y4 2.231792 1_555
O67 S0 1.502546 1_555
O67 Y4 2.306395 1_555
O68 P1 1.567913 1_455
O68 Y4 2.288967 1_555
O69 P2 1.587193 1_555
O69 Y5 2.308314 1_555
O70 S1 1.503335 1_455
O70 Y5 2.300515 1_555
O71 P3 1.571076 1_555
O71 Y5 2.231363 1_555
