# generated using pymatgen
data_KNO3
_symmetry_space_group_name_H-M   'P 1'
_cell_length_a   5.33245425
_cell_length_b   4.62334623
_cell_length_c   6.87523397
_cell_angle_alpha   66.28963749
_cell_angle_beta   90.00000000
_cell_angle_gamma   90.00000000
_symmetry_Int_Tables_number   1
_chemical_formula_structural   KNO3
_chemical_formula_sum   'K2 N2 O6'
_cell_volume   155.19296205
_cell_formula_units_Z   2
loop_
 _symmetry_equiv_pos_site_id
 _symmetry_equiv_pos_as_xyz
  1  'x, y, z'
loop_
 _atom_site_type_symbol
 _atom_site_label
 _atom_site_symmetry_multiplicity
 _atom_site_fract_x
 _atom_site_fract_y
 _atom_site_fract_z
 _atom_site_occupancy
  K  K0  1  0.25000000  0.17238291  0.23213602  1
  K  K1  1  0.75000000  0.82761709  0.76786398  1
  N  N0  1  0.25000000  0.23683156  0.75560113  1
  N  N1  1  0.75000000  0.76316844  0.24439887  1
  O  O0  1  0.95492927  0.68200766  0.19011357  1
  O  O1  1  0.54507073  0.68200766  0.19011357  1
  O  O2  1  0.75000000  0.93386486  0.34876998  1
  O  O3  1  0.25000000  0.06613514  0.65123002  1
  O  O4  1  0.04507073  0.31799234  0.80988643  1
  O  O5  1  0.45492927  0.31799234  0.80988643  1
loop_
_geom_bond_atom_site_label_1
_geom_bond_atom_site_label_2
_geom_bond_distance
_geom_bond_site_symmetry_2
K0 O3 2.721267 1_555
K0 O0 2.750146 1_455
K0 O1 2.750146 1_555
K0 O0 2.868115 1_445
K0 O1 2.868115 1_545
K0 O2 2.873445 1_545
K0 O2 2.873445 1_445
K0 O5 2.916060 1_554
K0 O4 2.916060 1_554
K1 O2 2.721267 1_555
K1 O4 2.750146 1_655
K1 O5 2.750146 1_555
K1 O5 2.868115 1_565
K1 O4 2.868115 1_665
K1 O3 2.873445 1_565
K1 O3 2.873445 1_665
K1 O0 2.916060 1_556
K1 O1 2.916060 1_556
N0 O5 1.259716 1_555
N0 O4 1.259716 1_555
N0 O3 1.262208 1_555
N1 O1 1.259716 1_555
N1 O0 1.259716 1_555
N1 O2 1.262208 1_555
