# generated using pymatgen
data_Ba2YMgSbO6
_symmetry_space_group_name_H-M   'P 1'
_cell_length_a   7.46970728
_cell_length_b   7.46970739
_cell_length_c   7.47350745
_cell_angle_alpha   49.46825846
_cell_angle_beta   49.46825810
_cell_angle_gamma   49.48183610
_symmetry_Int_Tables_number   1
_chemical_formula_structural   Ba2YMgSbO6
_chemical_formula_sum   'Ba2 Y1 Mg1 Sb1 O6'
_cell_volume   221.44418044
_cell_formula_units_Z   1
loop_
 _symmetry_equiv_pos_site_id
 _symmetry_equiv_pos_as_xyz
  1  'x, y, z'
loop_
 _atom_site_type_symbol
 _atom_site_label
 _atom_site_symmetry_multiplicity
 _atom_site_fract_x
 _atom_site_fract_y
 _atom_site_fract_z
 _atom_site_occupancy
  Ba  Ba0  1  0.72150471  0.72150471  0.72011200  1
  Ba  Ba1  1  0.17308765  0.17308765  0.17183409  1
  Y  Y0  1  0.99613491  0.99613491  0.99565015  1
  Mg  Mg0  1  0.40336896  0.40336896  0.40219392  1
  Sb  Sb0  1  0.55067719  0.55067719  0.55072907  1
  O  O0  1  0.29133129  0.75589621  0.75747490  1
  O  O1  1  0.23091877  0.75923320  0.23009322  1
  O  O2  1  0.75589621  0.29133129  0.75747490  1
  O  O3  1  0.23088701  0.23088701  0.75798540  1
  O  O4  1  0.75923320  0.23091877  0.23009322  1
  O  O5  1  0.75675210  0.75675210  0.29354713  1
loop_
_geom_bond_atom_site_label_1
_geom_bond_atom_site_label_2
_geom_bond_distance
_geom_bond_site_symmetry_2
Ba0 O5 2.865274 1_555
Ba0 O0 2.885050 1_555
Ba0 O2 2.885050 1_555
Ba0 O1 3.148035 1_655
Ba0 O4 3.148035 1_565
Ba0 O3 3.149754 1_655
Ba0 O3 3.149754 1_565
Ba0 O1 3.152071 1_556
Ba0 O4 3.152071 1_556
Ba1 O4 2.587003 1_455
Ba1 O1 2.587003 1_545
Ba1 O3 2.590340 1_554
Mg0 O4 1.907890 1_555
Mg0 O1 1.907891 1_555
Mg0 O3 1.908333 1_555
O0 Sb0 1.954352 1_555
O0 Y0 2.271458 1_455
O1 Y0 2.282205 1_454
O2 Sb0 1.954352 1_555
O2 Y0 2.271458 1_545
O3 Y0 2.281154 1_445
O4 Y0 2.282205 1_544
O5 Sb0 1.954796 1_555
O5 Y0 2.271015 1_554
