# generated using pymatgen
data_MgV3OF11
_symmetry_space_group_name_H-M   'P 1'
_cell_length_a   7.40860831
_cell_length_b   5.79571762
_cell_length_c   5.19799007
_cell_angle_alpha   98.74079793
_cell_angle_beta   101.26386033
_cell_angle_gamma   95.49827567
_symmetry_Int_Tables_number   1
_chemical_formula_structural   MgV3OF11
_chemical_formula_sum   'Mg1 V3 O1 F11'
_cell_volume   214.53011471
_cell_formula_units_Z   1
loop_
 _symmetry_equiv_pos_site_id
 _symmetry_equiv_pos_as_xyz
  1  'x, y, z'
loop_
 _atom_site_type_symbol
 _atom_site_label
 _atom_site_symmetry_multiplicity
 _atom_site_fract_x
 _atom_site_fract_y
 _atom_site_fract_z
 _atom_site_occupancy
  Mg  Mg0  1  0.03127200  0.58292000  0.44258900  1
  V  V0  1  0.01842900  0.00228600  0.04268300  1
  V  V1  1  0.36542200  0.15714800  0.62214800  1
  V  V2  1  0.63105500  0.84954400  0.37793800  1
  O  O0  1  0.13251100  0.92657900  0.33441800  1
  F  F0  1  0.05314700  0.71986700  0.81988600  1
  F  F1  1  0.24582200  0.41929700  0.52099200  1
  F  F2  1  0.20881500  0.15417100  0.90666600  1
  F  F3  1  0.47639400  0.85179500  0.64193500  1
  F  F4  1  0.44462800  0.68181800  0.14341500  1
  F  F5  1  0.56340900  0.31941900  0.86053300  1
  F  F6  1  0.52675700  0.13510700  0.34141000  1
  F  F7  1  0.77610700  0.87914800  0.10511800  1
  F  F8  1  0.76211800  0.58975700  0.43465100  1
  F  F9  1  0.82936300  0.02189000  0.65014200  1
  F  F10  1  0.95443200  0.30793600  0.14673600  1
loop_
_geom_bond_atom_site_label_1
_geom_bond_atom_site_label_2
_geom_bond_distance
_geom_bond_site_symmetry_2
Mg0 O0 2.250472 1_555
O0 V0 1.725992 1_565
O0 V1 2.223199 1_565
F0 V0 1.925473 1_566
F0 Mg0 1.969917 1_555
F1 V1 1.920617 1_555
F1 Mg0 1.935253 1_555
F2 V0 1.898700 1_556
F2 V1 2.051319 1_555
F3 V2 1.951367 1_555
F3 V1 2.029678 1_565
F4 V2 1.750273 1_555
F5 V1 1.800796 1_555
F6 V2 1.911949 1_545
F6 V1 2.056321 1_555
F7 V2 1.956856 1_555
F7 V0 1.972339 1_665
F8 V2 1.897357 1_555
F8 Mg0 1.990736 1_655
F9 V2 1.906666 1_545
F9 V0 2.263336 1_656
F10 V0 1.904032 1_655
F10 Mg0 1.992044 1_655
