# generated using pymatgen
data_Na4Ta3InSi4(PO12)2
_symmetry_space_group_name_H-M   'P 1'
_cell_length_a   8.97462061
_cell_length_b   8.99236004
_cell_length_c   22.71833884
_cell_angle_alpha   89.98173322
_cell_angle_beta   89.91479315
_cell_angle_gamma   120.00846717
_symmetry_Int_Tables_number   1
_chemical_formula_structural   Na4Ta3InSi4(PO12)2
_chemical_formula_sum   'Na12 Ta9 In3 Si12 P6 O72'
_cell_volume   1587.66591646
_cell_formula_units_Z   3
loop_
 _symmetry_equiv_pos_site_id
 _symmetry_equiv_pos_as_xyz
  1  'x, y, z'
loop_
 _atom_site_type_symbol
 _atom_site_label
 _atom_site_symmetry_multiplicity
 _atom_site_fract_x
 _atom_site_fract_y
 _atom_site_fract_z
 _atom_site_occupancy
  Na  Na0  1  0.63312770  0.62484743  0.74579233  1
  Na  Na1  1  0.99478988  0.36886165  0.74678485  1
  Na  Na2  1  0.31349263  0.97568555  0.08419320  1
  Na  Na3  1  0.02589671  0.34166549  0.08411819  1
  Na  Na4  1  0.96441779  0.29427227  0.41294709  1
  Na  Na5  1  0.70733076  0.67796097  0.41502477  1
  Na  Na6  1  0.00633442  0.99563373  0.49977924  1
  Na  Na7  1  0.99022812  0.99001781  0.99597634  1
  Na  Na8  1  0.65298899  0.31863035  0.83294061  1
  Na  Na9  1  0.65641399  0.32341711  0.32475584  1
  Na  Na10  1  0.34514690  0.66511157  0.16496141  1
  Na  Na11  1  0.33467594  0.67225707  0.66567112  1
  Ta  Ta0  1  0.00360662  0.00719590  0.85697674  1
  Ta  Ta1  1  0.99495451  0.00158274  0.64431555  1
  Ta  Ta2  1  0.99645678  0.99689200  0.14640918  1
  Ta  Ta3  1  0.66674815  0.33418761  0.97784811  1
  Ta  Ta4  1  0.66995777  0.33232666  0.48175261  1
  Ta  Ta5  1  0.33698764  0.66719931  0.01749445  1
  Ta  Ta6  1  0.33490687  0.66898463  0.52172220  1
  Ta  Ta7  1  0.33136270  0.67180957  0.31044653  1
  Ta  Ta8  1  0.33622677  0.66961083  0.81410566  1
  In  In0  1  0.00328641  0.99838627  0.35214078  1
  In  In1  1  0.65945903  0.32680507  0.68510643  1
  In  In2  1  0.66755052  0.33438522  0.18274733  1
  Si  Si0  1  0.28890099  0.28769473  0.75037189  1
  Si  Si1  1  0.70976039  0.99868126  0.75088163  1
  Si  Si2  1  0.96026190  0.33426861  0.58566291  1
  Si  Si3  1  0.66800195  0.62566471  0.58496687  1
  Si  Si4  1  0.95526545  0.62245060  0.08298598  1
  Si  Si5  1  0.66417244  0.04135777  0.08331016  1
  Si  Si6  1  0.37976653  0.33866676  0.08416785  1
  Si  Si7  1  0.62460462  0.66459753  0.91526978  1
  Si  Si8  1  0.04141290  0.37848267  0.91601402  1
  Si  Si9  1  0.33452646  0.95771227  0.91687081  1
  Si  Si10  1  0.61725637  0.95843023  0.41607052  1
  Si  Si11  1  0.04551861  0.66760756  0.41704470  1
  P  P0  1  0.29323818  0.00149720  0.25036231  1
  P  P1  1  0.70548716  0.70537457  0.25229719  1
  P  P2  1  0.00102337  0.29318160  0.25193270  1
  P  P3  1  0.00777545  0.72184106  0.75084772  1
  P  P4  1  0.37330507  0.04099593  0.58311695  1
  P  P5  1  0.33777039  0.38501736  0.41669422  1
  O  O0  1  0.21172740  0.02172716  0.30584277  1
  O  O1  1  0.80087610  0.78236586  0.31001998  1
  O  O2  1  0.98132224  0.19530838  0.30925144  1
  O  O3  1  0.18837038  0.16998780  0.80773703  1
  O  O4  1  0.98460683  0.81100795  0.80518162  1
  O  O5  1  0.83189527  0.01625335  0.80695312  1
  O  O6  1  0.80361506  0.96563692  0.69270946  1
  O  O7  1  0.16396808  0.19027122  0.69297316  1
  O  O8  1  0.02966383  0.82939755  0.69460483  1
  O  O9  1  0.80556192  0.82799595  0.19866023  1
  O  O10  1  0.02363378  0.19782562  0.19698292  1
  O  O11  1  0.17785932  0.97521196  0.19441435  1
  O  O12  1  0.89053000  0.37161371  0.64526806  1
  O  O13  1  0.48050398  0.10547509  0.63842514  1
  O  O14  1  0.62702457  0.51843664  0.64485928  1
  O  O15  1  0.89579591  0.50077189  0.13958254  1
  O  O16  1  0.60822055  0.10481030  0.14037235  1
  O  O17  1  0.48615404  0.37878515  0.14319828  1
  O  O18  1  0.46557259  0.29303242  0.02784246  1
  O  O19  1  0.83055873  0.53172772  0.02599265  1
  O  O20  1  0.70742678  0.17214820  0.02699047  1
  O  O21  1  0.46685206  0.15930766  0.52851498  1
  O  O22  1  0.68941639  0.52474079  0.52608060  1
  O  O23  1  0.83314337  0.30444424  0.52697297  1
  O  O24  1  0.52714749  0.69267579  0.97128483  1
  O  O25  1  0.16001521  0.46954213  0.97387520  1
  O  O26  1  0.30667827  0.83989712  0.97510635  1
  O  O27  1  0.52272085  0.83134074  0.47161089  1
  O  O28  1  0.31347141  0.47391991  0.47109169  1
  O  O29  1  0.16404567  0.68222560  0.47281473  1
  O  O30  1  0.13667500  0.63125222  0.35915450  1
  O  O31  1  0.49655867  0.85786847  0.35793701  1
  O  O32  1  0.36791711  0.50014094  0.36130758  1
  O  O33  1  0.13585582  0.49590037  0.85720709  1
  O  O34  1  0.36010356  0.85852609  0.85980899  1
  O  O35  1  0.50385195  0.63795909  0.85643961  1
  O  O36  1  0.01243831  0.82689524  0.41534657  1
  O  O37  1  0.80938218  0.98432683  0.41351099  1
  O  O38  1  0.17495534  0.20927678  0.41323500  1
  O  O39  1  0.02363565  0.18852493  0.91003685  1
  O  O40  1  0.16273842  0.97381569  0.90901095  1
  O  O41  1  0.81339542  0.83445641  0.90837248  1
  O  O42  1  0.97750865  0.16011039  0.58926926  1
  O  O43  1  0.19369436  0.02417136  0.58790663  1
  O  O44  1  0.84508109  0.81407973  0.58895600  1
  O  O45  1  0.98106607  0.81749160  0.09329000  1
  O  O46  1  0.84142144  0.02891098  0.09352946  1
  O  O47  1  0.18300083  0.16090889  0.09335048  1
  O  O48  1  0.70361883  0.17364446  0.74875203  1
  O  O49  1  0.48264260  0.32244663  0.74975779  1
  O  O50  1  0.84707071  0.54208838  0.74855356  1
  O  O51  1  0.68281553  0.52693926  0.24608946  1
  O  O52  1  0.84612392  0.31823577  0.24644557  1
  O  O53  1  0.47531369  0.15251093  0.24585703  1
  O  O54  1  0.63739727  0.49212255  0.92377038  1
  O  O55  1  0.85274957  0.35964311  0.92319558  1
  O  O56  1  0.50602738  0.14523453  0.92410152  1
  O  O57  1  0.63429614  0.14814512  0.42351895  1
  O  O58  1  0.50353238  0.37258543  0.42363885  1
  O  O59  1  0.85344199  0.48851871  0.42435529  1
  O  O60  1  0.33552887  0.49275454  0.07306590  1
  O  O61  1  0.15259215  0.65801599  0.07189687  1
  O  O62  1  0.50028041  0.84882067  0.07196172  1
  O  O63  1  0.34906101  0.85916070  0.57152326  1
  O  O64  1  0.50390116  0.65478137  0.57208469  1
  O  O65  1  0.15150966  0.49842955  0.57229212  1
  O  O66  1  0.29993213  0.82738395  0.25547149  1
  O  O67  1  0.52466742  0.69590445  0.25511800  1
  O  O68  1  0.17356231  0.47264619  0.25579602  1
  O  O69  1  0.29497186  0.47604025  0.75539474  1
  O  O70  1  0.16903495  0.69939564  0.75598484  1
  O  O71  1  0.52257428  0.82020174  0.75561173  1
loop_
_geom_bond_atom_site_label_1
_geom_bond_atom_site_label_2
_geom_bond_distance
_geom_bond_site_symmetry_2
Na0 O49 2.356411 1_555
Na0 O50 2.382013 1_555
Na0 O71 2.421393 1_555
Na0 O14 2.475069 1_555
Na0 O69 2.642752 1_555
Na0 O35 2.794121 1_555
Na0 O6 2.913531 1_555
Na1 O48 2.307236 1_555
Na1 O69 2.372646 1_655
Na1 O12 2.494928 1_555
Na1 O50 2.500230 1_555
Na1 O70 2.583744 1_655
Na1 O33 2.786679 1_655
Na2 O62 2.469926 1_555
Na2 O47 2.477820 1_565
Na2 O61 2.489790 1_555
Na2 O45 2.592278 1_455
Na2 O16 2.629160 1_565
Na2 O26 2.750317 1_554
Na2 O11 2.781672 1_555
Na2 O18 2.782429 1_565
Na3 O60 2.419124 1_555
Na3 O46 2.457129 1_455
Na3 O61 2.495121 1_555
Na3 O15 2.581824 1_455
Na3 O47 2.639506 1_555
Na3 O25 2.765601 1_554
Na3 O20 2.798467 1_455
Na3 O10 2.866969 1_555
Na4 O38 2.366213 1_655
Na4 O37 2.413549 1_545
Na4 O59 2.418647 1_555
Na4 O2 2.549520 1_555
Na4 O57 2.581789 1_555
Na4 O23 2.864580 1_555
Na4 O30 2.893447 1_655
Na5 O36 2.371387 1_655
Na5 O58 2.428809 1_555
Na5 O37 2.430181 1_555
Na5 O1 2.545829 1_555
Na5 O59 2.627060 1_555
Na5 O22 2.839853 1_555
Na5 O32 2.909502 1_555
Na5 O27 2.929242 1_555
Na6 O36 2.463622 1_555
Na6 O43 2.545664 1_565
Na6 O44 2.547564 1_455
Na6 O42 2.602094 1_465
Na6 O37 2.608909 1_455
Na6 O38 2.631986 1_565
Na7 O41 2.495387 1_555
Na7 O40 2.557016 1_655
Na7 O39 2.559076 1_665
Na7 O45 2.677870 1_556
Na7 O46 2.697492 1_566
Na7 O47 2.757281 1_666
Na8 O49 2.443495 1_555
Na8 O48 2.481122 1_555
Na8 O56 2.528379 1_555
Na8 O55 2.627631 1_555
Na8 O54 2.632698 1_555
Na8 O50 2.689563 1_555
Na9 O53 2.393394 1_555
Na9 O52 2.477185 1_555
Na9 O51 2.482428 1_555
Na9 O57 2.690975 1_555
Na9 O58 2.779002 1_555
Na9 O59 2.799822 1_555
Na10 O67 2.536041 1_555
Na10 O60 2.576229 1_555
Na10 O62 2.611474 1_555
Na10 O68 2.635837 1_555
Na10 O66 2.667168 1_555
Na10 O61 2.713158 1_555
Na11 O71 2.560588 1_555
Na11 O69 2.600362 1_555
Na11 O70 2.614067 1_555
Na11 O64 2.661015 1_555
Na11 O65 2.662383 1_555
Na11 O63 2.682556 1_555
In0 O0 2.061814 1_565
In0 O1 2.113227 1_455
In0 O2 2.114851 1_465
In0 O36 2.138311 1_555
In0 O37 2.181930 1_455
In0 O38 2.232038 1_565
In1 O14 2.095656 1_555
In1 O12 2.107227 1_555
In1 O13 2.115283 1_555
In1 O49 2.146572 1_555
In1 O48 2.165885 1_555
In1 O50 2.325723 1_555
In2 O17 2.066695 1_555
In2 O15 2.079359 1_555
In2 O16 2.091746 1_555
In2 O51 2.202865 1_555
In2 O53 2.208106 1_555
In2 O52 2.218833 1_555
O0 P0 1.512418 1_555
O1 P1 1.530670 1_555
O2 P2 1.531169 1_655
O3 Si0 1.634991 1_555
O3 Ta0 1.925961 1_555
O4 P3 1.541580 1_655
O4 Ta0 2.055989 1_665
O5 Si1 1.637121 1_545
O5 Ta0 1.950301 1_655
O6 Si1 1.670819 1_555
O6 Ta1 1.923786 1_565
O7 Si0 1.657596 1_555
O7 Ta1 1.957944 1_455
O8 P3 1.554057 1_555
O8 Ta1 2.069318 1_465
O9 P1 1.585131 1_555
O9 Ta2 2.010229 1_555
O10 P2 1.583930 1_555
O10 Ta2 2.050778 1_445
O11 P0 1.582067 1_565
O11 Ta2 2.049506 1_455
O12 Si2 1.595643 1_555
O13 P4 1.512176 1_555
O14 Si3 1.599799 1_555
O15 Si4 1.596321 1_555
O16 Si5 1.594802 1_555
O17 Si6 1.581083 1_555
O18 Si6 1.646916 1_555
O18 Ta3 2.002998 1_554
O19 Si4 1.639005 1_555
O19 Ta3 1.976593 1_554
O20 Si5 1.646791 1_555
O20 Ta3 2.008771 1_554
O21 P4 1.574205 1_555
O21 Ta4 2.007071 1_555
O22 Si3 1.680699 1_555
O22 Ta4 1.933352 1_555
O23 Si2 1.688178 1_555
O23 Ta4 1.906495 1_555
O24 Si7 1.632779 1_555
O24 Ta5 1.915867 1_556
O25 Si8 1.632314 1_555
O25 Ta5 1.961080 1_556
O26 Si9 1.633557 1_555
O26 Ta5 1.958414 1_556
O27 Si10 1.626048 1_555
O27 Ta6 1.949464 1_555
O28 P5 1.545357 1_555
O28 Ta6 2.025171 1_555
O29 Si11 1.618134 1_555
O29 Ta6 1.946197 1_555
O30 Si11 1.664457 1_555
O30 Ta7 1.940868 1_555
O31 Si10 1.661493 1_555
O31 Ta7 1.919926 1_555
O32 P5 1.564035 1_555
O32 Ta7 2.081426 1_555
O33 Si8 1.648849 1_555
O33 Ta8 1.953628 1_555
O34 Si9 1.653291 1_555
O34 Ta8 1.909859 1_555
O35 Si7 1.662213 1_555
O35 Ta8 1.923939 1_555
O36 Si11 1.602084 1_555
O37 Si10 1.621336 1_555
O38 P5 1.526227 1_555
O39 Si8 1.639923 1_555
O39 Ta0 1.962878 1_555
O40 Si9 1.629082 1_555
O40 Ta0 1.990157 1_565
O41 Si7 1.624429 1_555
O41 Ta0 2.007705 1_665
O42 Si2 1.650982 1_555
O42 Ta1 1.960427 1_555
O43 P4 1.545511 1_555
O43 Ta1 2.120253 1_455
O44 Si3 1.646723 1_555
O44 Ta1 1.992926 1_565
O45 Si4 1.666947 1_555
O45 Ta2 1.963865 1_555
O46 Si5 1.666152 1_555
O46 Ta2 1.966605 1_545
O47 Si6 1.700660 1_555
O47 Ta2 1.988507 1_445
O48 Si1 1.602327 1_545
O49 Si0 1.605475 1_555
O50 P3 1.537530 1_655
O51 P1 1.519721 1_555
O52 P2 1.520733 1_655
O53 P0 1.518074 1_555
O54 Si7 1.622938 1_555
O54 Ta3 1.992429 1_555
O55 Si8 1.623091 1_655
O55 Ta3 1.997996 1_555
O56 Si9 1.626136 1_545
O56 Ta3 2.003399 1_555
O57 Si10 1.643688 1_545
O57 Ta4 2.016983 1_555
O58 P5 1.554841 1_555
O58 Ta4 2.156707 1_555
O59 Si11 1.677734 1_655
O59 Ta4 2.015860 1_555
O60 Si6 1.640575 1_555
O60 Ta5 2.008215 1_555
O61 Si4 1.653497 1_455
O61 Ta5 2.032273 1_555
O62 Si5 1.637588 1_565
O62 Ta5 1.989678 1_555
O63 P4 1.560429 1_565
O63 Ta6 2.001279 1_555
O64 Si3 1.646241 1_555
O64 Ta6 1.955628 1_555
O65 Si2 1.637430 1_455
O65 Ta6 1.961996 1_555
O66 P0 1.600766 1_565
O66 Ta7 1.997805 1_555
O67 P1 1.583117 1_555
O67 Ta7 2.062508 1_555
O68 P2 1.584540 1_555
O68 Ta7 2.055303 1_555
O69 Si0 1.671033 1_555
O69 Ta8 2.074690 1_555
O70 P3 1.562543 1_555
O70 Ta8 2.115258 1_555
O71 Si1 1.646824 1_555
O71 Ta8 2.030659 1_555
