# generated using pymatgen
data_Na15Nb2Zn10P9(SO8)9
_symmetry_space_group_name_H-M   'P 1'
_cell_length_a   8.97908978
_cell_length_b   8.97293041
_cell_length_c   22.14871755
_cell_angle_alpha   90.41504668
_cell_angle_beta   90.10636200
_cell_angle_gamma   120.12136747
_symmetry_Int_Tables_number   1
_chemical_formula_structural   Na15Nb2Zn10P9(SO8)9
_chemical_formula_sum   'Na15 Nb2 Zn10 P9 S9 O72'
_cell_volume   1543.45242843
_cell_formula_units_Z   1
loop_
 _symmetry_equiv_pos_site_id
 _symmetry_equiv_pos_as_xyz
  1  'x, y, z'
loop_
 _atom_site_type_symbol
 _atom_site_label
 _atom_site_symmetry_multiplicity
 _atom_site_fract_x
 _atom_site_fract_y
 _atom_site_fract_z
 _atom_site_occupancy
  Na  Na0  1  0.98955127  0.34719271  0.74679939  1
  Na  Na1  1  0.29923951  0.33276825  0.58492289  1
  Na  Na2  1  0.66973509  0.96925918  0.58659073  1
  Na  Na3  1  0.29934704  0.96811796  0.08614068  1
  Na  Na4  1  0.66866419  0.69882813  0.08918365  1
  Na  Na5  1  0.96668976  0.67256384  0.91259020  1
  Na  Na6  1  0.32645967  0.29154161  0.91383328  1
  Na  Na7  1  0.33350865  0.04143787  0.41017612  1
  Na  Na8  1  0.70370815  0.66867276  0.41312210  1
  Na  Na9  1  0.99978030  0.00864376  0.49730577  1
  Na  Na10  1  0.99227521  0.02549477  0.99763526  1
  Na  Na11  1  0.65334614  0.31224405  0.82830958  1
  Na  Na12  1  0.66808081  0.32782761  0.32732861  1
  Na  Na13  1  0.31559208  0.65075864  0.16301404  1
  Na  Na14  1  0.33107282  0.68142378  0.66229079  1
  Nb  Nb0  1  0.34438555  0.67108418  0.31184928  1
  Nb  Nb1  1  0.33210997  0.67466608  0.81215370  1
  Zn  Zn0  1  0.00147223  0.01002037  0.34495131  1
  Zn  Zn1  1  0.00351717  0.00484181  0.84339900  1
  Zn  Zn2  1  0.99686870  0.99237483  0.66293040  1
  Zn  Zn3  1  0.99991942  0.99675451  0.16199824  1
  Zn  Zn4  1  0.66250994  0.33633086  0.68779288  1
  Zn  Zn5  1  0.65693616  0.33033107  0.18763812  1
  Zn  Zn6  1  0.67621523  0.31544127  0.97998355  1
  Zn  Zn7  1  0.66592638  0.32890416  0.48103121  1
  Zn  Zn8  1  0.32263767  0.66309212  0.01249900  1
  Zn  Zn9  1  0.33479992  0.66300846  0.51127085  1
  P  P0  1  0.29905304  0.00277881  0.25099088  1
  P  P1  1  0.71029388  0.70049208  0.25094455  1
  P  P2  1  0.30160204  0.29837960  0.75091690  1
  P  P3  1  0.99328873  0.70262602  0.75268949  1
  P  P4  1  0.70533621  0.00189923  0.74774548  1
  P  P5  1  0.03822705  0.36808502  0.91665387  1
  P  P6  1  0.33392753  0.96598563  0.92151736  1
  P  P7  1  0.63428767  0.96549954  0.42044303  1
  P  P8  1  0.32854749  0.36777166  0.41941963  1
  S  S0  1  0.99914590  0.29846397  0.25003682  1
  S  S1  1  0.96406845  0.33616339  0.58367293  1
  S  S2  1  0.36797768  0.03560013  0.58144997  1
  S  S3  1  0.67104815  0.63052456  0.58136580  1
  S  S4  1  0.95934757  0.62617167  0.08234332  1
  S  S5  1  0.67039236  0.03696313  0.08446782  1
  S  S6  1  0.37025641  0.33411979  0.08111602  1
  S  S7  1  0.62823885  0.67012054  0.91972186  1
  S  S8  1  0.03993317  0.66408878  0.41734534  1
  O  O0  1  0.21329639  0.02143513  0.30802943  1
  O  O1  1  0.81012034  0.78965875  0.30860555  1
  O  O2  1  0.97801679  0.19993310  0.30502664  1
  O  O3  1  0.22186137  0.19823033  0.80885174  1
  O  O4  1  0.97517402  0.77987817  0.81209767  1
  O  O5  1  0.82511262  0.03215344  0.80083755  1
  O  O6  1  0.76716504  0.96317624  0.68764754  1
  O  O7  1  0.18189954  0.22641879  0.69443273  1
  O  O8  1  0.02985522  0.81243101  0.69680739  1
  O  O9  1  0.77620244  0.80671797  0.19278875  1
  O  O10  1  0.03307277  0.22522145  0.19537290  1
  O  O11  1  0.19395002  0.96871639  0.19200078  1
  O  O12  1  0.88512189  0.34900944  0.64070629  1
  O  O13  1  0.48420469  0.12504608  0.63324190  1
  O  O14  1  0.65215749  0.51995198  0.63291786  1
  O  O15  1  0.86992852  0.52270143  0.13519158  1
  O  O16  1  0.64751514  0.12454060  0.13714883  1
  O  O17  1  0.48214723  0.35817481  0.13391544  1
  O  O18  1  0.44829263  0.31142090  0.02439213  1
  O  O19  1  0.86212302  0.54713795  0.02477965  1
  O  O20  1  0.68814033  0.13025220  0.02751992  1
  O  O21  1  0.44261850  0.13400400  0.52403878  1
  O  O22  1  0.68202996  0.55174070  0.52297247  1
  O  O23  1  0.85514510  0.31664493  0.53037086  1
  O  O24  1  0.55269915  0.68814800  0.97675164  1
  O  O25  1  0.15448767  0.45058987  0.97219887  1
  O  O26  1  0.31530518  0.86609990  0.97976610  1
  O  O27  1  0.55363375  0.86046402  0.47815657  1
  O  O28  1  0.30923291  0.44392018  0.47929871  1
  O  O29  1  0.14301323  0.68762303  0.47217616  1
  O  O30  1  0.13164791  0.65090693  0.36261111  1
  O  O31  1  0.50537733  0.85526456  0.36555907  1
  O  O32  1  0.34218169  0.49288932  0.36603727  1
  O  O33  1  0.13999948  0.48814369  0.86017355  1
  O  O34  1  0.34610731  0.85607065  0.86638444  1
  O  O35  1  0.51323867  0.65394639  0.86709392  1
  O  O36  1  0.02153481  0.82005967  0.41298292  1
  O  O37  1  0.80815029  0.97632848  0.41109144  1
  O  O38  1  0.17515373  0.18453929  0.41122877  1
  O  O39  1  0.01666418  0.18858994  0.90872912  1
  O  O40  1  0.16923265  0.97814946  0.91424601  1
  O  O41  1  0.80254576  0.81974368  0.91358351  1
  O  O42  1  0.98152112  0.17699740  0.58407130  1
  O  O43  1  0.19711205  0.02349796  0.58799588  1
  O  O44  1  0.82356459  0.80733065  0.58539833  1
  O  O45  1  0.97606163  0.80268589  0.08551439  1
  O  O46  1  0.82300613  0.01267026  0.08937568  1
  O  O47  1  0.19708942  0.17644646  0.08694945  1
  O  O48  1  0.67851483  0.15781208  0.74355330  1
  O  O49  1  0.48342491  0.33011177  0.74365395  1
  O  O50  1  0.85021057  0.51300388  0.74697826  1
  O  O51  1  0.67815448  0.51702375  0.24636163  1
  O  O52  1  0.85356316  0.32858796  0.24379941  1
  O  O53  1  0.48489013  0.15170098  0.24660328  1
  O  O54  1  0.63497280  0.50694057  0.91805966  1
  O  O55  1  0.86765386  0.37224664  0.91730973  1
  O  O56  1  0.49541283  0.14699341  0.91853026  1
  O  O57  1  0.63476289  0.13742685  0.41872665  1
  O  O58  1  0.50168581  0.36592686  0.41652723  1
  O  O59  1  0.86624609  0.50795579  0.41798686  1
  O  O60  1  0.35801518  0.49497382  0.07881614  1
  O  O61  1  0.13832058  0.65251432  0.08083894  1
  O  O62  1  0.50983924  0.85898638  0.08189549  1
  O  O63  1  0.35237848  0.86124310  0.57789960  1
  O  O64  1  0.50968321  0.64634552  0.58171090  1
  O  O65  1  0.14126153  0.49065603  0.58020509  1
  O  O66  1  0.31296367  0.83017008  0.25969757  1
  O  O67  1  0.51914528  0.67986354  0.25936919  1
  O  O68  1  0.16231911  0.47775352  0.25706538  1
  O  O69  1  0.31642718  0.48513331  0.75921508  1
  O  O70  1  0.16618336  0.68510182  0.75861117  1
  O  O71  1  0.52033790  0.83646834  0.75993495  1
loop_
_geom_bond_atom_site_label_1
_geom_bond_atom_site_label_2
_geom_bond_distance
_geom_bond_site_symmetry_2
Na0 O50 2.376388 1_555
Na0 O48 2.434521 1_555
Na0 O12 2.531582 1_555
Na0 O69 2.562822 1_655
Na0 O70 2.633933 1_655
Na0 O7 2.714835 1_655
Na0 O5 2.733125 1_555
Na0 O33 2.820755 1_655
Na1 O43 2.448546 1_555
Na1 O65 2.459413 1_555
Na1 O42 2.467777 1_455
Na1 O64 2.481877 1_555
Na1 O28 2.533874 1_555
Na1 O7 2.633949 1_555
Na2 O6 2.412598 1_555
Na2 O44 2.456325 1_555
Na2 O42 2.465708 1_565
Na2 O64 2.507586 1_555
Na2 O63 2.513917 1_555
Na2 O27 2.596755 1_555
Na2 O13 2.849485 1_565
Na2 O23 2.982247 1_565
Na3 O61 2.451310 1_555
Na3 O47 2.461699 1_565
Na3 O45 2.510928 1_455
Na3 O62 2.529194 1_555
Na3 O11 2.531058 1_555
Na3 O26 2.551699 1_554
Na4 O45 2.431825 1_555
Na4 O46 2.435929 1_565
Na4 O60 2.459610 1_555
Na4 O9 2.481268 1_555
Na4 O62 2.486868 1_555
Na4 O24 2.679812 1_554
Na4 O17 2.835783 1_555
Na5 O55 2.379620 1_555
Na5 O40 2.412605 1_655
Na5 O4 2.417681 1_555
Na5 O41 2.422830 1_555
Na5 O54 2.579936 1_555
Na5 O19 2.703937 1_556
Na6 O40 2.432423 1_545
Na6 O56 2.443509 1_555
Na6 O39 2.454005 1_555
Na6 O54 2.457817 1_555
Na6 O3 2.482769 1_555
Na6 O18 2.648156 1_556
Na6 O25 2.878316 1_555
Na6 O35 3.006714 1_555
Na7 O38 2.345888 1_555
Na7 O57 2.398343 1_555
Na7 O0 2.471124 1_555
Na7 O36 2.492842 1_545
Na7 O58 2.521512 1_555
Na7 O21 2.674604 1_555
Na8 O58 2.394447 1_555
Na8 O37 2.430197 1_555
Na8 O36 2.469552 1_655
Na8 O59 2.517001 1_555
Na8 O1 2.540436 1_555
Na8 O22 2.625305 1_555
Na9 O38 2.483083 1_655
Na9 O37 2.483971 1_545
Na9 O42 2.491919 1_555
Na9 O36 2.583978 1_645
Na9 O44 2.601412 1_545
Na9 O43 2.633986 1_655
Na10 O39 2.406012 1_655
Na10 O46 2.508256 1_556
Na10 O41 2.560878 1_545
Na10 O47 2.564673 1_656
Na10 O40 2.606421 1_645
Na10 O45 2.751728 1_546
Na11 O48 2.402809 1_555
Na11 O49 2.471539 1_555
Na11 O56 2.479061 1_555
Na11 O50 2.545105 1_555
Na11 O55 2.609454 1_555
Na11 O54 2.696468 1_555
Na12 O53 2.395645 1_555
Na12 O51 2.448825 1_555
Na12 O52 2.489331 1_555
Na12 O57 2.577920 1_555
Na12 O58 2.601169 1_555
Na12 O59 2.619846 1_555
Na13 O61 2.421026 1_555
Na13 O60 2.464980 1_555
Na13 O62 2.559415 1_555
Na13 O68 2.560565 1_555
Na13 O66 2.676976 1_555
Na13 O67 2.731613 1_555
Na14 O63 2.422594 1_555
Na14 O65 2.481051 1_555
Na14 O64 2.523003 1_555
Na14 O70 2.608480 1_555
Na14 O71 2.659058 1_555
Na14 O69 2.747974 1_555
Nb0 O67 1.924492 1_555
Nb0 O31 1.950230 1_555
Nb0 O66 1.969367 1_555
Nb0 O32 1.998392 1_555
Nb0 O68 2.066397 1_555
Nb0 O30 2.146973 1_555
Nb1 O70 1.941625 1_555
Nb1 O71 1.967438 1_555
Nb1 O34 1.968204 1_555
Nb1 O69 2.004254 1_555
Nb1 O33 2.010686 1_555
Nb1 O35 2.111822 1_555
O0 P0 1.531952 1_555
O0 Zn0 2.026886 1_555
O1 P1 1.528323 1_555
O1 Zn0 2.017882 1_665
O2 S0 1.466004 1_555
O2 Zn0 2.027689 1_655
O3 P2 1.530062 1_555
O3 Zn1 2.012613 1_555
O4 P3 1.529400 1_555
O4 Zn1 2.020781 1_665
O5 P4 1.520131 1_555
O5 Zn1 1.976506 1_655
O6 P4 1.546089 1_565
O6 Zn2 2.021457 1_555
O7 P2 1.556934 1_555
O7 Zn2 2.032236 1_445
O8 P3 1.518223 1_455
O8 Zn2 1.937640 1_455
O9 P1 1.540243 1_555
O9 Zn3 1.997988 1_555
O10 S0 1.476947 1_455
O10 Zn3 2.049962 1_445
O11 P0 1.546372 1_565
O11 Zn3 1.994555 1_455
O12 S1 1.481458 1_555
O12 Zn4 2.208447 1_555
O13 S2 1.480111 1_555
O13 Zn4 2.128506 1_555
O14 S3 1.471432 1_555
O14 Zn4 2.093520 1_555
O15 S4 1.465543 1_555
O15 Zn5 2.170361 1_555
O16 S5 1.473364 1_555
O16 Zn5 2.116688 1_555
O17 S6 1.482527 1_555
O17 Zn5 2.081426 1_555
O18 S6 1.501232 1_555
O18 Zn6 2.256316 1_554
O19 S4 1.500652 1_555
O19 Zn6 2.138681 1_554
O20 S5 1.482965 1_555
O20 Zn6 2.021068 1_554
O21 S2 1.507060 1_555
O21 Zn7 2.120847 1_555
O22 S3 1.496454 1_555
O22 Zn7 2.136410 1_555
O23 S1 1.483837 1_555
O23 Zn7 2.067705 1_555
O24 S7 1.480568 1_555
O24 Zn8 2.118310 1_556
O25 P5 1.535486 1_555
O25 Zn8 1.947555 1_556
O26 P6 1.537153 1_555
O26 Zn8 1.996850 1_556
O27 P7 1.543559 1_555
O27 Zn9 2.016936 1_555
O28 P8 1.537051 1_555
O28 Zn9 1.986218 1_555
O29 S8 1.473788 1_555
O29 Zn9 2.035450 1_555
O30 S8 1.503733 1_555
O31 P7 1.619916 1_555
O32 P8 1.598486 1_555
O33 P5 1.611284 1_555
O34 P6 1.602222 1_555
O35 S7 1.512848 1_555
O36 S8 1.493057 1_555
O36 Zn0 2.356407 1_565
O37 P7 1.529284 1_555
O37 Zn0 2.177093 1_665
O38 P8 1.534621 1_555
O38 Zn0 2.132203 1_555
O39 P5 1.531377 1_555
O39 Zn1 2.143722 1_555
O40 P6 1.544700 1_555
O40 Zn1 2.255702 1_565
O41 S7 1.471396 1_555
O41 Zn1 2.339026 1_665
O42 S1 1.512996 1_555
O42 Zn2 2.466617 1_545
O43 S2 1.490126 1_555
O43 Zn2 2.362044 1_445
O44 S3 1.489027 1_555
O44 Zn2 2.341543 1_555
O45 S4 1.515195 1_555
O45 Zn3 2.351479 1_555
O46 S5 1.495570 1_555
O46 Zn3 2.313565 1_545
O47 S6 1.493814 1_555
O47 Zn3 2.383659 1_445
O48 P4 1.537454 1_555
O48 Zn4 2.090659 1_555
O49 P2 1.519022 1_555
O49 Zn4 2.009467 1_555
O50 P3 1.537479 1_555
O50 Zn4 2.086172 1_555
O51 P1 1.524588 1_555
O51 Zn5 2.044849 1_555
O52 S0 1.468136 1_555
O52 Zn5 2.164366 1_555
O53 P0 1.531009 1_555
O53 Zn5 2.052763 1_555
O54 S7 1.495655 1_555
O54 Zn6 2.375236 1_555
O55 P5 1.550760 1_655
O55 Zn6 2.069119 1_555
O56 P6 1.543705 1_545
O56 Zn6 2.066867 1_555
O57 P7 1.541300 1_545
O57 Zn7 2.101478 1_555
O58 P8 1.564423 1_555
O58 Zn7 2.194784 1_555
O59 S8 1.484114 1_655
O59 Zn7 2.215339 1_555
O60 S6 1.502715 1_555
O60 Zn8 2.246181 1_555
O61 S4 1.502846 1_455
O61 Zn8 2.211983 1_555
O62 S5 1.523005 1_565
O62 Zn8 2.294217 1_555
O63 S2 1.500561 1_565
O63 Zn9 2.246326 1_555
O64 S3 1.525129 1_555
O64 Zn9 2.269844 1_555
O65 S1 1.499105 1_455
O65 Zn9 2.255981 1_555
O66 P0 1.627879 1_565
O67 P1 1.642479 1_555
O68 S0 1.545574 1_455
O69 P2 1.622075 1_555
O70 P3 1.642113 1_455
O71 P4 1.602595 1_565
