# generated using pymatgen
data_La5C2Br9
_symmetry_space_group_name_H-M   'P 1'
_cell_length_a   10.00679136
_cell_length_b   11.38827436
_cell_length_c   16.73781158
_cell_angle_alpha   90.00000000
_cell_angle_beta   90.00000000
_cell_angle_gamma   90.00000000
_symmetry_Int_Tables_number   1
_chemical_formula_structural   La5C2Br9
_chemical_formula_sum   'La20 C8 Br36'
_cell_volume   1907.44243825
_cell_formula_units_Z   4
loop_
 _symmetry_equiv_pos_site_id
 _symmetry_equiv_pos_as_xyz
  1  'x, y, z'
loop_
 _atom_site_type_symbol
 _atom_site_label
 _atom_site_symmetry_multiplicity
 _atom_site_fract_x
 _atom_site_fract_y
 _atom_site_fract_z
 _atom_site_occupancy
  La  La0  1  0.54706722  0.30884696  0.55055538  1
  La  La1  1  0.04706722  0.69115304  0.44944462  1
  La  La2  1  0.95293278  0.80884696  0.94944462  1
  La  La3  1  0.45293278  0.19115304  0.05055538  1
  La  La4  1  0.45293278  0.69115304  0.44944462  1
  La  La5  1  0.95293278  0.30884696  0.55055538  1
  La  La6  1  0.04706722  0.19115304  0.05055538  1
  La  La7  1  0.54706722  0.80884696  0.94944462  1
  La  La8  1  0.25000000  0.96359739  0.56576038  1
  La  La9  1  0.75000000  0.03640261  0.43423962  1
  La  La10  1  0.25000000  0.46359739  0.93423962  1
  La  La11  1  0.75000000  0.53640261  0.06576038  1
  La  La12  1  0.25000000  0.63560819  0.64788085  1
  La  La13  1  0.75000000  0.36439181  0.35211915  1
  La  La14  1  0.25000000  0.13560819  0.85211915  1
  La  La15  1  0.75000000  0.86439181  0.14788085  1
  La  La16  1  0.25000000  0.93031573  0.34128452  1
  La  La17  1  0.75000000  0.06968427  0.65871548  1
  La  La18  1  0.25000000  0.43031573  0.15871548  1
  La  La19  1  0.75000000  0.56968427  0.84128452  1
  C  C0  1  0.25000000  0.74594573  0.52815366  1
  C  C1  1  0.75000000  0.25405427  0.47184634  1
  C  C2  1  0.25000000  0.24594573  0.97184634  1
  C  C3  1  0.75000000  0.75405427  0.02815366  1
  C  C4  1  0.25000000  0.82083413  0.45667666  1
  C  C5  1  0.75000000  0.17916587  0.54332334  1
  C  C6  1  0.25000000  0.32083413  0.04332334  1
  C  C7  1  0.75000000  0.67916587  0.95667666  1
  Br  Br0  1  0.53457864  0.56875975  0.60997646  1
  Br  Br1  1  0.03457864  0.43124025  0.39002354  1
  Br  Br2  1  0.96542136  0.06875975  0.89002354  1
  Br  Br3  1  0.46542136  0.93124025  0.10997646  1
  Br  Br4  1  0.46542136  0.43124025  0.39002354  1
  Br  Br5  1  0.96542136  0.56875975  0.60997646  1
  Br  Br6  1  0.03457864  0.93124025  0.10997646  1
  Br  Br7  1  0.53457864  0.06875975  0.89002354  1
  Br  Br8  1  0.42762422  0.11435826  0.43962051  1
  Br  Br9  1  0.92762422  0.88564174  0.56037949  1
  Br  Br10  1  0.07237578  0.61435826  0.06037949  1
  Br  Br11  1  0.57237578  0.38564174  0.93962051  1
  Br  Br12  1  0.57237578  0.88564174  0.56037949  1
  Br  Br13  1  0.07237578  0.11435826  0.43962051  1
  Br  Br14  1  0.92762422  0.38564174  0.93962051  1
  Br  Br15  1  0.42762422  0.61435826  0.06037949  1
  Br  Br16  1  0.44848408  0.13279376  0.67639606  1
  Br  Br17  1  0.94848408  0.86720624  0.32360394  1
  Br  Br18  1  0.05151592  0.63279376  0.82360394  1
  Br  Br19  1  0.55151592  0.36720624  0.17639606  1
  Br  Br20  1  0.55151592  0.86720624  0.32360394  1
  Br  Br21  1  0.05151592  0.13279376  0.67639606  1
  Br  Br22  1  0.94848408  0.36720624  0.17639606  1
  Br  Br23  1  0.44848408  0.63279376  0.82360394  1
  Br  Br24  1  0.25000000  0.86944936  0.72875188  1
  Br  Br25  1  0.75000000  0.13055064  0.27124812  1
  Br  Br26  1  0.25000000  0.36944936  0.77124812  1
  Br  Br27  1  0.75000000  0.63055064  0.22875188  1
  Br  Br28  1  0.25000000  0.65919289  0.29193876  1
  Br  Br29  1  0.75000000  0.34080711  0.70806124  1
  Br  Br30  1  0.25000000  0.15919289  0.20806124  1
  Br  Br31  1  0.75000000  0.84080711  0.79193876  1
  Br  Br32  1  0.25000000  0.38443422  0.56075355  1
  Br  Br33  1  0.75000000  0.61556578  0.43924645  1
  Br  Br34  1  0.25000000  0.88443422  0.93924645  1
  Br  Br35  1  0.75000000  0.11556578  0.06075355  1
loop_
_geom_bond_atom_site_label_1
_geom_bond_atom_site_label_2
_geom_bond_distance
_geom_bond_site_symmetry_2
C0 C4 1.469235 1_555
C0 La12 2.365339 1_555
C0 La4 2.499745 1_555
C0 La1 2.499745 1_555
C0 La8 2.557352 1_555
C1 C5 1.469235 1_555
C1 La13 2.365339 1_555
C1 La5 2.499745 1_555
C1 La0 2.499745 1_555
C1 La9 2.557352 1_555
C2 C6 1.469235 1_556
C2 La14 2.365339 1_555
C2 La3 2.499745 1_556
C2 La6 2.499745 1_556
C2 La10 2.557352 1_555
C3 C7 1.469235 1_554
C3 La15 2.365339 1_555
C3 La2 2.499745 1_554
C3 La7 2.499745 1_554
C3 La11 2.557352 1_555
C4 La16 2.298886 1_555
C4 La8 2.444779 1_555
C4 La1 2.513859 1_555
C4 La4 2.513859 1_555
C5 La17 2.298886 1_555
C5 La9 2.444779 1_555
C5 La5 2.513859 1_555
C5 La0 2.513859 1_555
C6 La18 2.298886 1_555
C6 La10 2.444779 1_554
C6 La3 2.513859 1_555
C6 La6 2.513859 1_555
C7 La19 2.298886 1_555
C7 La11 2.444779 1_556
C7 La2 2.513859 1_555
C7 La7 2.513859 1_555
Br0 La12 3.015224 1_555
Br0 La0 3.125085 1_555
Br0 La4 3.135288 1_555
Br1 La13 3.015224 1_455
Br1 La1 3.125085 1_555
Br1 La5 3.135288 1_455
Br2 La14 3.015224 1_655
Br2 La2 3.125085 1_545
Br2 La6 3.135288 1_656
Br3 La15 3.015224 1_555
Br3 La3 3.125085 1_565
Br3 La7 3.135288 1_554
Br4 La13 3.015224 1_555
Br4 La4 3.125085 1_555
Br4 La0 3.135288 1_555
Br5 La12 3.015224 1_655
Br5 La5 3.125085 1_555
Br5 La1 3.135288 1_655
Br6 La15 3.015224 1_455
Br6 La6 3.125085 1_565
Br6 La2 3.135288 1_454
Br7 La14 3.015224 1_555
Br7 La7 3.125085 1_545
Br7 La3 3.135288 1_556
Br8 La0 3.127631 1_555
Br8 La16 3.203329 1_545
Br8 La8 3.250338 1_545
Br8 La9 3.347088 1_555
Br9 La1 3.127631 1_655
Br9 La17 3.203329 1_565
Br9 La9 3.250338 1_565
Br9 La8 3.347088 1_655
Br10 La2 3.127631 1_454
Br10 La18 3.203329 1_555
Br10 La10 3.250338 1_554
Br10 La11 3.347088 1_455
Br11 La3 3.127631 1_556
Br11 La19 3.203329 1_555
Br11 La11 3.250338 1_556
Br11 La10 3.347088 1_555
Br12 La4 3.127631 1_555
Br12 La17 3.203329 1_565
Br12 La9 3.250338 1_565
Br12 La8 3.347088 1_555
Br13 La5 3.127631 1_455
Br13 La16 3.203329 1_545
Br13 La8 3.250338 1_545
Br13 La9 3.347088 1_455
Br14 La6 3.127631 1_656
Br14 La19 3.203329 1_555
Br14 La11 3.250338 1_556
Br14 La10 3.347088 1_655
Br15 La7 3.127631 1_554
Br15 La18 3.203329 1_555
Br15 La10 3.250338 1_554
Br15 La11 3.347088 1_555
Br16 La0 3.070744 1_555
Br16 La17 3.115711 1_555
Br16 La8 3.329696 1_545
Br16 La14 3.549190 1_555
Br17 La1 3.070744 1_655
Br17 La16 3.115711 1_655
Br17 La9 3.329696 1_565
Br17 La15 3.549190 1_555
Br18 La2 3.070744 1_455
Br18 La19 3.115711 1_455
Br18 La10 3.329696 1_555
Br18 La12 3.549190 1_555
Br19 La3 3.070744 1_555
Br19 La18 3.115711 1_555
Br19 La11 3.329696 1_555
Br19 La13 3.549190 1_555
Br20 La4 3.070744 1_555
Br20 La16 3.115711 1_555
Br20 La9 3.329696 1_565
Br20 La15 3.549190 1_555
Br21 La5 3.070744 1_455
Br21 La17 3.115711 1_455
Br21 La8 3.329696 1_545
Br21 La14 3.549190 1_555
Br22 La6 3.070744 1_655
Br22 La18 3.115711 1_655
Br22 La11 3.329696 1_555
Br22 La13 3.549190 1_555
Br23 La7 3.070744 1_555
Br23 La19 3.115711 1_555
Br23 La10 3.329696 1_555
Br23 La12 3.549190 1_555
Br24 La8 2.931249 1_555
Br24 La12 2.987317 1_555
Br24 La14 3.667603 1_565
Br25 La9 2.931249 1_555
Br25 La13 2.987317 1_555
Br25 La15 3.667603 1_545
Br26 La10 2.931249 1_555
Br26 La14 2.987317 1_555
Br26 La12 3.667603 1_555
Br27 La11 2.931249 1_555
Br27 La15 2.987317 1_555
Br27 La13 3.667603 1_555
Br28 La16 3.196182 1_555
Br28 La1 3.347587 1_555
Br28 La4 3.347587 1_555
Br28 La18 3.430194 1_555
Br29 La17 3.196182 1_555
Br29 La5 3.347587 1_555
Br29 La0 3.347587 1_555
Br29 La19 3.430194 1_555
Br30 La18 3.196182 1_555
Br30 La3 3.347587 1_555
Br30 La6 3.347587 1_555
Br30 La16 3.430194 1_545
Br31 La19 3.196182 1_555
Br31 La7 3.347587 1_555
Br31 La2 3.347587 1_555
Br31 La17 3.430194 1_565
Br32 La0 3.099518 1_555
Br32 La5 3.099518 1_455
Br32 La12 3.210733 1_555
Br33 La1 3.099518 1_655
Br33 La4 3.099518 1_555
Br33 La13 3.210733 1_555
Br34 La2 3.099518 1_455
Br34 La7 3.099518 1_555
Br34 La14 3.210733 1_565
Br35 La6 3.099518 1_655
Br35 La3 3.099518 1_555
Br35 La15 3.210733 1_545
