# generated using pymatgen
data_Na14In8Si7S5O48
_symmetry_space_group_name_H-M   'P 1'
_cell_length_a   18.51772737
_cell_length_b   9.27456958
_cell_length_c   22.68447441
_cell_angle_alpha   89.91572935
_cell_angle_beta   89.69366606
_cell_angle_gamma   120.10371553
_symmetry_Int_Tables_number   1
_chemical_formula_structural   Na14In8Si7S5O48
_chemical_formula_sum   'Na42 In24 Si21 S15 O144'
_cell_volume   3370.34810691
_cell_formula_units_Z   3
loop_
 _symmetry_equiv_pos_site_id
 _symmetry_equiv_pos_as_xyz
  1  'x, y, z'
loop_
 _atom_site_type_symbol
 _atom_site_label
 _atom_site_symmetry_multiplicity
 _atom_site_fract_x
 _atom_site_fract_y
 _atom_site_fract_z
 _atom_site_occupancy
  Na  Na0  1  0.81070393  0.98760149  0.23822326  1
  Na  Na1  1  0.18745032  0.36365886  0.25968668  1
  Na  Na2  1  0.68996850  0.36707972  0.25700375  1
  Na  Na3  1  0.99818117  0.64722214  0.23895589  1
  Na  Na4  1  0.50068108  0.64927459  0.24094175  1
  Na  Na5  1  0.31041631  0.63452090  0.75390108  1
  Na  Na6  1  0.99806189  0.34901709  0.74734658  1
  Na  Na7  1  0.50122290  0.35390883  0.74796138  1
  Na  Na8  1  0.18684498  0.00885363  0.76310624  1
  Na  Na9  1  0.68984360  0.01459973  0.76454531  1
  Na  Na10  1  0.14113225  0.33228244  0.58263136  1
  Na  Na11  1  0.64297659  0.33461031  0.58459683  1
  Na  Na12  1  0.33939348  0.97588774  0.57851803  1
  Na  Na13  1  0.83946116  0.97726292  0.58245233  1
  Na  Na14  1  0.14129272  0.95128063  0.08578127  1
  Na  Na15  1  0.65213926  0.95460461  0.08732602  1
  Na  Na16  1  0.33947809  0.70018841  0.08246261  1
  Na  Na17  1  0.83854643  0.71531846  0.07834051  1
  Na  Na18  1  0.48780382  0.68573790  0.92925919  1
  Na  Na19  1  0.98112668  0.68179447  0.93073645  1
  Na  Na20  1  0.34371597  0.01779970  0.91185755  1
  Na  Na21  1  0.84106978  0.01775702  0.92166258  1
  Na  Na22  1  0.17103384  0.29793875  0.90657431  1
  Na  Na23  1  0.67617311  0.30530356  0.90668324  1
  Na  Na24  1  0.48308843  0.28241015  0.42292251  1
  Na  Na25  1  0.98355044  0.28276073  0.42270034  1
  Na  Na26  1  0.17304993  0.04213814  0.40018987  1
  Na  Na27  1  0.67319299  0.04542287  0.40149167  1
  Na  Na28  1  0.34086373  0.66590936  0.40452468  1
  Na  Na29  1  0.84257276  0.66802673  0.40657564  1
  Na  Na30  1  0.99817347  0.01569236  0.49589573  1
  Na  Na31  1  0.49924124  0.01619655  0.49604152  1
  Na  Na32  1  0.98903812  0.98376917  0.00316962  1
  Na  Na33  1  0.50219904  0.98391997  0.99822277  1
  Na  Na34  1  0.32292864  0.32217977  0.83532899  1
  Na  Na35  1  0.81979691  0.33233072  0.83427677  1
  Na  Na36  1  0.32068315  0.30813877  0.32745230  1
  Na  Na37  1  0.82273310  0.32375891  0.32874626  1
  Na  Na38  1  0.16498152  0.67915614  0.17116366  1
  Na  Na39  1  0.66679672  0.67995893  0.16336847  1
  Na  Na40  1  0.15693269  0.65092070  0.67025173  1
  Na  Na41  1  0.66897014  0.65406537  0.67409072  1
  In  In0  1  -0.00003507  0.99609130  0.34748527  1
  In  In1  1  0.49818179  0.99872133  0.34752535  1
  In  In2  1  0.99883296  0.99784731  0.84792347  1
  In  In3  1  0.50110074  0.00408322  0.84865597  1
  In  In4  1  0.99795445  0.01743516  0.65443216  1
  In  In5  1  0.49973522  0.02054601  0.65382268  1
  In  In6  1  0.99470477  0.98431896  0.14879916  1
  In  In7  1  0.49957588  0.98064948  0.15346041  1
  In  In8  1  0.33599558  0.32850982  0.68395575  1
  In  In9  1  0.83602870  0.33318702  0.68519296  1
  In  In10  1  0.33546903  0.33787291  0.18480750  1
  In  In11  1  0.83582813  0.33557853  0.18090994  1
  In  In12  1  0.33397186  0.33823166  0.98335541  1
  In  In13  1  0.83371499  0.32761507  0.98676401  1
  In  In14  1  0.33240851  0.32842689  0.48333204  1
  In  In15  1  0.83298652  0.32785827  0.48351081  1
  In  In16  1  0.16467900  0.67319599  0.01430697  1
  In  In17  1  0.67089122  0.68775732  0.01726163  1
  In  In18  1  0.16471917  0.65489632  0.51324301  1
  In  In19  1  0.66523670  0.65516202  0.51428333  1
  In  In20  1  0.18166750  0.68891709  0.31397494  1
  In  In21  1  0.67555384  0.67488899  0.31797127  1
  In  In22  1  0.17495249  0.67588866  0.81874525  1
  In  In23  1  0.68471885  0.67647092  0.81715025  1
  Si  Si0  1  0.14957834  0.99968454  0.24795860  1
  Si  Si1  1  0.65198693  0.99938996  0.25172701  1
  Si  Si2  1  0.34861005  0.69578265  0.24885736  1
  Si  Si3  1  0.84889677  0.69454868  0.25133666  1
  Si  Si4  1  0.15247273  0.30497326  0.74854278  1
  Si  Si5  1  0.65309876  0.30750014  0.74851107  1
  Si  Si6  1  0.34847149  0.99747013  0.74938071  1
  Si  Si7  1  0.84855774  0.00061524  0.74788447  1
  Si  Si8  1  0.48550592  0.34056550  0.58313015  1
  Si  Si9  1  0.98532997  0.34103090  0.58324293  1
  Si  Si10  1  0.48401170  0.63082473  0.08316108  1
  Si  Si11  1  0.98733365  0.63086026  0.08305874  1
  Si  Si12  1  0.83676059  0.03600790  0.08391858  1
  Si  Si13  1  0.31692003  0.66548245  0.91808104  1
  Si  Si14  1  0.81712796  0.65996542  0.92105313  1
  Si  Si15  1  0.16593554  0.97063416  0.91644784  1
  Si  Si16  1  0.66451955  0.96651561  0.91415570  1
  Si  Si17  1  0.31562541  0.96635361  0.42225750  1
  Si  Si18  1  0.81659793  0.96720852  0.41972102  1
  Si  Si19  1  0.16604922  0.36368183  0.41672460  1
  Si  Si20  1  0.66520830  0.36039710  0.41790398  1
  S  S0  1  0.00042395  0.29859917  0.25244364  1
  S  S1  1  0.50023552  0.29684492  0.25083309  1
  S  S2  1  0.00109382  0.70540151  0.74920807  1
  S  S3  1  0.49848772  0.70491207  0.74842074  1
  S  S4  1  0.17908975  0.02852196  0.58454336  1
  S  S5  1  0.67972894  0.02911714  0.58382589  1
  S  S6  1  0.33611004  0.63380724  0.58409728  1
  S  S7  1  0.83635154  0.63293451  0.58255299  1
  S  S8  1  0.33626051  0.03897380  0.08228750  1
  S  S9  1  0.18342079  0.33566934  0.08292093  1
  S  S10  1  0.67727785  0.32806385  0.08448665  1
  S  S11  1  0.01961553  0.37232829  0.91352775  1
  S  S12  1  0.52013094  0.37511108  0.91586790  1
  S  S13  1  0.01881836  0.66692756  0.41647381  1
  S  S14  1  0.51834733  0.66690105  0.41676862  1
  O  O0  1  0.11230786  0.04106679  0.30796201  1
  O  O1  1  0.61002599  0.03624495  0.30960767  1
  O  O2  1  0.40266155  0.78560405  0.30855068  1
  O  O3  1  0.90345090  0.77456825  0.31193394  1
  O  O4  1  0.49031452  0.20836043  0.30775125  1
  O  O5  1  0.98919394  0.20374916  0.30830657  1
  O  O6  1  0.11193403  0.17957032  0.80542256  1
  O  O7  1  0.61080556  0.18199207  0.80553248  1
  O  O8  1  0.48638489  0.77720081  0.80371629  1
  O  O9  1  0.99295298  0.77731338  0.80559263  1
  O  O10  1  0.40639730  0.02480137  0.80730292  1
  O  O11  1  0.90797025  0.02486368  0.80467841  1
  O  O12  1  0.38565382  0.95484877  0.68998968  1
  O  O13  1  0.88469383  0.96841937  0.68589187  1
  O  O14  1  0.10154169  0.22538913  0.68700707  1
  O  O15  1  0.60014906  0.23099609  0.68673849  1
  O  O16  1  0.01160696  0.81375398  0.69797572  1
  O  O17  1  0.50991337  0.81316662  0.69678088  1
  O  O18  1  0.38817006  0.80554559  0.18868378  1
  O  O19  1  0.88976116  0.81883878  0.19510359  1
  O  O20  1  0.01306918  0.21371296  0.20138703  1
  O  O21  1  0.51007259  0.20738567  0.20034001  1
  O  O22  1  0.09415129  0.97933270  0.18921572  1
  O  O23  1  0.59833712  0.97421241  0.19144019  1
  O  O24  1  0.44223390  0.35477358  0.64438155  1
  O  O25  1  0.94168199  0.35710148  0.64369219  1
  O  O26  1  0.23150004  0.11122306  0.63770042  1
  O  O27  1  0.73243805  0.11286109  0.63600292  1
  O  O28  1  0.32613354  0.52998787  0.63709857  1
  O  O29  1  0.82463951  0.52268516  0.63310317  1
  O  O30  1  0.43910319  0.52729119  0.14369145  1
  O  O31  1  0.94414462  0.53441788  0.14481837  1
  O  O32  1  0.32403290  0.12583156  0.13288534  1
  O  O33  1  0.81948887  0.12023487  0.14190833  1
  O  O34  1  0.23659925  0.35900719  0.13521278  1
  O  O35  1  0.72893122  0.35179871  0.13790870  1
  O  O36  1  0.22018597  0.30378695  0.02884788  1
  O  O37  1  0.71575966  0.29869379  0.03112211  1
  O  O38  1  0.42469127  0.54621584  0.02504525  1
  O  O39  1  0.93049123  0.54289102  0.02484343  1
  O  O40  1  0.34099503  0.12565313  0.02566110  1
  O  O41  1  0.84128944  0.13002232  0.02149864  1
  O  O42  1  0.21739870  0.13661905  0.53119621  1
  O  O43  1  0.71637378  0.13572992  0.52975566  1
  O  O44  1  0.34012330  0.55044275  0.52915958  1
  O  O45  1  0.84084761  0.55541668  0.52588757  1
  O  O46  1  0.42715642  0.31264456  0.52523946  1
  O  O47  1  0.92807269  0.31223165  0.52451558  1
  O  O48  1  0.27131400  0.68971087  0.97689054  1
  O  O49  1  0.77607649  0.69050381  0.98077974  1
  O  O50  1  0.07247281  0.45337682  0.96561899  1
  O  O51  1  0.57191015  0.46030693  0.96773489  1
  O  O52  1  0.14686173  0.85442276  0.97508567  1
  O  O53  1  0.64187382  0.84821923  0.97282375  1
  O  O54  1  0.27663553  0.86001698  0.48446176  1
  O  O55  1  0.77402466  0.85587447  0.48031755  1
  O  O56  1  0.14597258  0.43301140  0.47786638  1
  O  O57  1  0.64493535  0.43290215  0.47784673  1
  O  O58  1  0.06969386  0.68991558  0.46967797  1
  O  O59  1  0.57036979  0.69015071  0.46906025  1
  O  O60  1  0.05685207  0.64177740  0.36265804  1
  O  O61  1  0.55571019  0.64075348  0.36235691  1
  O  O62  1  0.24748645  0.88284105  0.36992888  1
  O  O63  1  0.75547797  0.88896194  0.36295178  1
  O  O64  1  0.18044292  0.48420338  0.35973519  1
  O  O65  1  0.67906017  0.47625671  0.35963302  1
  O  O66  1  0.05864705  0.47039797  0.85872070  1
  O  O67  1  0.55559489  0.46960041  0.86060118  1
  O  O68  1  0.18140870  0.88794879  0.85698797  1
  O  O69  1  0.67545183  0.87497082  0.85553940  1
  O  O70  1  0.25918064  0.62368822  0.85892427  1
  O  O71  1  0.75225048  0.60212364  0.86598419  1
  O  O72  1  0.01086417  0.81871708  0.41351795  1
  O  O73  1  0.51018755  0.81795882  0.41322610  1
  O  O74  1  0.40630484  0.97389281  0.41454918  1
  O  O75  1  0.90817595  0.97754622  0.41412242  1
  O  O76  1  0.08542378  0.17310770  0.41210866  1
  O  O77  1  0.58380332  0.17085219  0.41311162  1
  O  O78  1  0.01141600  0.20419726  0.91076188  1
  O  O79  1  0.51128253  0.20523341  0.91439659  1
  O  O80  1  0.08544963  0.99946169  0.91205407  1
  O  O81  1  0.58322774  0.99525180  0.91135389  1
  O  O82  1  0.40795051  0.83986570  0.91420612  1
  O  O83  1  0.90776657  0.83566064  0.91322354  1
  O  O84  1  0.49153117  0.16503314  0.58260627  1
  O  O85  1  0.99299795  0.16737842  0.58297961  1
  O  O86  1  0.09479247  0.00626190  0.58999227  1
  O  O87  1  0.59473974  0.00638918  0.58960680  1
  O  O88  1  0.41212045  0.80106110  0.58620797  1
  O  O89  1  0.91230352  0.79972703  0.58623973  1
  O  O90  1  0.49199634  0.81967397  0.08298121  1
  O  O91  1  0.99793019  0.82038905  0.08178256  1
  O  O92  1  0.41239894  0.02550415  0.08658739  1
  O  O93  1  0.92009135  0.01664378  0.08616398  1
  O  O94  1  0.09943312  0.18858792  0.08907894  1
  O  O95  1  0.59298521  0.17621760  0.09015304  1
  O  O96  1  0.34255530  0.16968798  0.74798914  1
  O  O97  1  0.84645635  0.17764108  0.74856989  1
  O  O98  1  0.24928073  0.33849066  0.74381906  1
  O  O99  1  0.74536136  0.32340021  0.74329107  1
  O  O100  1  0.42013192  0.53908971  0.74399623  1
  O  O101  1  0.92681162  0.53631239  0.74502060  1
  O  O102  1  0.34669874  0.51469054  0.24956570  1
  O  O103  1  0.84268264  0.51073557  0.24653399  1
  O  O104  1  0.42567169  0.31757362  0.24596730  1
  O  O105  1  0.92395973  0.31143836  0.24758092  1
  O  O106  1  0.24317263  0.16666243  0.24234752  1
  O  O107  1  0.74659611  0.16238902  0.24782167  1
  O  O108  1  0.33049524  0.50298167  0.92026955  1
  O  O109  1  0.83347755  0.50099091  0.92510167  1
  O  O110  1  0.43392393  0.35094107  0.92104203  1
  O  O111  1  0.93622548  0.35574218  0.91766582  1
  O  O112  1  0.25447314  0.15258049  0.92150233  1
  O  O113  1  0.75101054  0.15008453  0.91848691  1
  O  O114  1  0.33267528  0.15897045  0.42225771  1
  O  O115  1  0.83108897  0.15778918  0.42142167  1
  O  O116  1  0.25440689  0.35749083  0.42145649  1
  O  O117  1  0.75351627  0.35523174  0.42225568  1
  O  O118  1  0.43339062  0.51798212  0.42203706  1
  O  O119  1  0.93343194  0.51834225  0.42166789  1
  O  O120  1  0.18083628  0.49263435  0.07756462  1
  O  O121  1  0.67053012  0.47960292  0.07861037  1
  O  O122  1  0.08315561  0.65650906  0.08184329  1
  O  O123  1  0.57790225  0.65672481  0.08062974  1
  O  O124  1  0.26068049  0.86717671  0.08251091  1
  O  O125  1  0.75326450  0.84584623  0.08478181  1
  O  O126  1  0.17691582  0.86639392  0.57924069  1
  O  O127  1  0.67704552  0.86661710  0.57826016  1
  O  O128  1  0.25990832  0.65172316  0.58406113  1
  O  O129  1  0.76032380  0.65265933  0.58287868  1
  O  O130  1  0.08138442  0.50394301  0.58109328  1
  O  O131  1  0.58133155  0.50231495  0.58106456  1
  O  O132  1  0.14646366  0.81906867  0.25341665  1
  O  O133  1  0.65304596  0.82239126  0.25619037  1
  O  O134  1  0.25089212  0.65211166  0.24863767  1
  O  O135  1  0.75332886  0.66407512  0.25259865  1
  O  O136  1  0.07454688  0.46891593  0.25555262  1
  O  O137  1  0.57609521  0.46611654  0.25229136  1
  O  O138  1  0.15314052  0.48306079  0.75454970  1
  O  O139  1  0.64927998  0.48007747  0.75540358  1
  O  O140  1  0.07723167  0.68797737  0.75075010  1
  O  O141  1  0.57087733  0.67965978  0.75147056  1
  O  O142  1  0.25336803  0.83677865  0.75142000  1
  O  O143  1  0.75124027  0.84868786  0.74974419  1
loop_
_geom_bond_atom_site_label_1
_geom_bond_atom_site_label_2
_geom_bond_distance
_geom_bond_site_symmetry_2
Na0 O107 2.452208 1_565
Na0 O33 2.469978 1_565
Na0 O133 2.556416 1_555
Na0 O135 2.652172 1_555
Na0 O105 2.674345 1_565
Na0 O19 2.799566 1_555
Na0 O63 2.985166 1_555
Na1 O134 2.332851 1_555
Na1 O106 2.538995 1_555
Na1 O102 2.561075 1_555
Na1 O64 2.562703 1_555
Na1 O136 2.717000 1_555
Na1 O0 2.807988 1_555
Na1 O34 2.969060 1_555
Na2 O135 2.393714 1_555
Na2 O103 2.457843 1_555
Na2 O65 2.587120 1_555
Na2 O107 2.596679 1_555
Na2 O137 2.691966 1_555
Na2 O35 2.814640 1_555
Na2 O1 2.905861 1_555
Na3 O31 2.373875 1_555
Na3 O132 2.410111 1_655
Na3 O103 2.502196 1_555
Na3 O136 2.688119 1_655
Na3 O105 2.706935 1_555
Na3 O22 2.897611 1_655
Na4 O133 2.475063 1_555
Na4 O102 2.479882 1_555
Na4 O30 2.487385 1_555
Na4 O104 2.667816 1_555
Na4 O137 2.698955 1_555
Na4 O23 2.848636 1_555
Na4 O61 2.956455 1_555
Na5 O98 2.399720 1_555
Na5 O138 2.520127 1_555
Na5 O70 2.542749 1_555
Na5 O142 2.574137 1_555
Na5 O100 2.600220 1_555
Na5 O28 2.885724 1_555
Na5 O12 2.946672 1_555
Na6 O97 2.435447 1_555
Na6 O138 2.498651 1_655
Na6 O25 2.593973 1_555
Na6 O101 2.657178 1_555
Na6 O140 2.723385 1_655
Na6 O66 2.771414 1_655
Na6 O11 2.906373 1_555
Na6 O14 3.006768 1_655
Na7 O139 2.387857 1_555
Na7 O96 2.552686 1_555
Na7 O24 2.598139 1_555
Na7 O141 2.624957 1_555
Na7 O67 2.765107 1_555
Na7 O100 2.792979 1_555
Na7 O15 2.942176 1_555
Na7 O10 2.966185 1_555
Na8 O68 2.383365 1_545
Na8 O142 2.470742 1_545
Na8 O96 2.515957 1_555
Na8 O140 2.646526 1_545
Na8 O98 2.705507 1_555
Na8 O6 2.747018 1_555
Na8 O26 2.976111 1_555
Na9 O143 2.350638 1_545
Na9 O69 2.376726 1_545
Na9 O97 2.533097 1_555
Na9 O99 2.555165 1_555
Na9 O7 2.772345 1_555
Na9 O141 2.781335 1_545
Na10 O130 2.351015 1_555
Na10 O85 2.378037 1_455
Na10 O14 2.524245 1_555
Na10 O56 2.536913 1_555
Na10 O128 2.660914 1_555
Na10 O86 2.702071 1_555
Na11 O131 2.347430 1_555
Na11 O84 2.432584 1_555
Na11 O15 2.475955 1_555
Na11 O57 2.579875 1_555
Na11 O129 2.644505 1_555
Na11 O87 2.710656 1_555
Na12 O54 2.416239 1_555
Na12 O84 2.463430 1_565
Na12 O88 2.581741 1_555
Na12 O128 2.603663 1_555
Na12 O126 2.649222 1_555
Na12 O12 2.712101 1_555
Na12 O46 2.955142 1_565
Na13 O85 2.482787 1_565
Na13 O13 2.510698 1_555
Na13 O89 2.601314 1_555
Na13 O55 2.602481 1_555
Na13 O129 2.604845 1_555
Na13 O127 2.648568 1_555
Na14 O91 2.302098 1_455
Na14 O122 2.385454 1_555
Na14 O22 2.557898 1_555
Na14 O94 2.676145 1_565
Na14 O52 2.686984 1_554
Na14 O124 2.688836 1_555
Na15 O123 2.395641 1_555
Na15 O125 2.534020 1_555
Na15 O90 2.578885 1_555
Na15 O23 2.600289 1_555
Na15 O53 2.753353 1_554
Na15 O95 2.772485 1_565
Na16 O90 2.462841 1_555
Na16 O120 2.584434 1_555
Na16 O18 2.592332 1_555
Na16 O124 2.606657 1_555
Na16 O92 2.617378 1_565
Na16 O48 2.692204 1_554
Na16 O38 2.910256 1_555
Na16 O34 2.998565 1_555
Na17 O93 2.427530 1_565
Na17 O125 2.428307 1_555
Na17 O49 2.459846 1_554
Na17 O91 2.604647 1_555
Na17 O121 2.763347 1_555
Na17 O19 2.820963 1_555
Na18 O38 2.491817 1_556
Na18 O81 2.535412 1_555
Na18 O108 2.540575 1_555
Na18 O82 2.543794 1_555
Na18 O53 2.666264 1_555
Na18 O110 2.750957 1_555
Na18 O8 2.974342 1_555
Na19 O109 2.389332 1_555
Na19 O39 2.419677 1_556
Na19 O83 2.447132 1_555
Na19 O80 2.621059 1_655
Na19 O111 2.721550 1_555
Na19 O52 2.846601 1_655
Na19 O9 2.946696 1_555
Na20 O82 2.471958 1_545
Na20 O112 2.531924 1_555
Na20 O10 2.621308 1_555
Na20 O110 2.684865 1_555
Na20 O79 2.691613 1_555
Na20 O40 2.779283 1_556
Na20 O68 2.906278 1_545
Na20 O48 3.017649 1_545
Na21 O41 2.493175 1_556
Na21 O113 2.519280 1_555
Na21 O83 2.550520 1_545
Na21 O111 2.719539 1_555
Na21 O78 2.742323 1_655
Na21 O11 2.909253 1_555
Na21 O49 2.960635 1_545
Na22 O80 2.405464 1_545
Na22 O112 2.532447 1_555
Na22 O6 2.548926 1_555
Na22 O108 2.609761 1_555
Na22 O78 2.630655 1_555
Na22 O70 2.825763 1_555
Na22 O36 2.915951 1_556
Na23 O113 2.463474 1_555
Na23 O81 2.504984 1_545
Na23 O71 2.550221 1_555
Na23 O109 2.581776 1_555
Na23 O7 2.585897 1_555
Na23 O79 2.714091 1_555
Na23 O37 2.928514 1_556
Na24 O114 2.422933 1_555
Na24 O74 2.483637 1_545
Na24 O77 2.555430 1_555
Na24 O46 2.608830 1_555
Na24 O4 2.721943 1_555
Na24 O118 2.763668 1_555
Na24 O57 2.886435 1_555
Na25 O115 2.456290 1_555
Na25 O75 2.457678 1_545
Na25 O76 2.563419 1_655
Na25 O47 2.592804 1_555
Na25 O5 2.713164 1_555
Na25 O119 2.769470 1_555
Na25 O56 2.897429 1_655
Na26 O0 2.378308 1_555
Na26 O76 2.480919 1_555
Na26 O62 2.567030 1_545
Na26 O116 2.578462 1_555
Na26 O114 2.639416 1_555
Na26 O72 2.674082 1_545
Na27 O1 2.376269 1_555
Na27 O77 2.467920 1_555
Na27 O117 2.532705 1_555
Na27 O115 2.607369 1_555
Na27 O73 2.689718 1_545
Na27 O63 2.720167 1_545
Na28 O2 2.444107 1_555
Na28 O74 2.492362 1_555
Na28 O116 2.507818 1_555
Na28 O118 2.709157 1_555
Na28 O73 2.725958 1_555
Na28 O64 2.777117 1_555
Na29 O3 2.388906 1_555
Na29 O75 2.500238 1_555
Na29 O117 2.540410 1_555
Na29 O119 2.687589 1_555
Na29 O72 2.706784 1_655
Na29 O65 2.846613 1_555
Na29 O45 2.893855 1_555
Na30 O75 2.405630 1_545
Na30 O76 2.438690 1_655
Na30 O85 2.456043 1_555
Na30 O72 2.705676 1_645
Na30 O89 2.738358 1_545
Na30 O86 2.821745 1_655
Na31 O77 2.399143 1_555
Na31 O74 2.427315 1_545
Na31 O84 2.446339 1_555
Na31 O73 2.707506 1_545
Na31 O88 2.736985 1_545
Na31 O87 2.800252 1_555
Na32 O93 2.373605 1_565
Na32 O91 2.397666 1_555
Na32 O83 2.506448 1_554
Na32 O80 2.679491 1_654
Na32 O94 2.782696 1_665
Na32 O78 2.805997 1_664
Na33 O90 2.398280 1_556
Na33 O81 2.440327 1_555
Na33 O82 2.483410 1_555
Na33 O95 2.719679 1_566
Na33 O79 2.737895 1_565
Na33 O92 2.746266 1_566
Na34 O112 2.422108 1_555
Na34 O108 2.514135 1_555
Na34 O98 2.535407 1_555
Na34 O96 2.563957 1_555
Na34 O110 2.751460 1_555
Na34 O100 2.809799 1_555
Na35 O113 2.435835 1_555
Na35 O99 2.466399 1_555
Na35 O109 2.524579 1_555
Na35 O97 2.605843 1_555
Na35 O101 2.791180 1_555
Na35 O111 2.801599 1_555
Na36 O106 2.378389 1_555
Na36 O102 2.465506 1_555
Na36 O116 2.607953 1_555
Na36 O114 2.625448 1_555
Na36 O104 2.644724 1_555
Na36 O118 2.955133 1_555
Na37 O107 2.348758 1_555
Na37 O103 2.441756 1_555
Na37 O117 2.564304 1_555
Na37 O115 2.654411 1_555
Na37 O105 2.663706 1_555
Na37 O119 2.872015 1_555
Na38 O132 2.393643 1_555
Na38 O134 2.472107 1_555
Na38 O122 2.481993 1_555
Na38 O136 2.636333 1_555
Na38 O124 2.660307 1_555
Na38 O120 2.846151 1_555
Na39 O125 2.366242 1_555
Na39 O123 2.440748 1_555
Na39 O133 2.565807 1_555
Na39 O135 2.637624 1_555
Na39 O121 2.700454 1_555
Na39 O137 2.726516 1_555
Na40 O138 2.442438 1_555
Na40 O130 2.455862 1_555
Na40 O140 2.472389 1_555
Na40 O142 2.550911 1_555
Na40 O128 2.721184 1_555
Na40 O126 2.762392 1_555
Na41 O139 2.352237 1_555
Na41 O143 2.408909 1_555
Na41 O131 2.611863 1_555
Na41 O141 2.614704 1_555
Na41 O129 2.669801 1_555
Na41 O127 2.884855 1_555
In0 O3 2.098218 1_455
In0 O0 2.100974 1_565
In0 O76 2.185025 1_565
In0 O75 2.209561 1_455
In0 O5 2.218353 1_465
In0 O72 2.306467 1_555
In1 O2 2.081329 1_555
In1 O1 2.099394 1_565
In1 O77 2.183827 1_565
In1 O74 2.199443 1_555
In1 O4 2.212697 1_565
In1 O73 2.334821 1_555
In2 O11 2.072683 1_565
In2 O6 2.142242 1_665
In2 O80 2.165672 1_655
In2 O83 2.173204 1_555
In2 O9 2.213802 1_555
In2 O78 2.305021 1_665
In3 O10 2.085049 1_555
In3 O7 2.101893 1_555
In3 O81 2.118997 1_545
In3 O82 2.199243 1_545
In3 O8 2.230557 1_545
In3 O79 2.323411 1_555
In4 O13 2.035031 1_545
In4 O14 2.062403 1_655
In4 O85 2.166231 1_555
In4 O16 2.254856 1_645
In4 O86 2.349897 1_655
In4 O89 2.410057 1_545
In5 O12 2.048393 1_545
In5 O15 2.050155 1_555
In5 O84 2.151550 1_555
In5 O17 2.246003 1_545
In5 O87 2.332192 1_555
In5 O88 2.418965 1_545
In6 O19 2.053497 1_555
In6 O22 2.082614 1_655
In6 O93 2.110203 1_565
In6 O91 2.173283 1_555
In6 O20 2.313254 1_665
In6 O94 2.337563 1_665
In7 O18 2.037033 1_555
In7 O23 2.053458 1_555
In7 O90 2.145696 1_555
In7 O95 2.272175 1_565
In7 O21 2.278059 1_565
In7 O92 2.403813 1_565
In8 O24 2.057970 1_555
In8 O96 2.114124 1_555
In8 O98 2.134778 1_555
In8 O28 2.234609 1_555
In8 O26 2.241130 1_555
In8 O100 2.252752 1_555
In9 O25 2.075475 1_555
In9 O99 2.094555 1_555
In9 O97 2.112262 1_555
In9 O29 2.213134 1_555
In9 O101 2.252114 1_555
In9 O27 2.279898 1_555
In10 O30 2.057451 1_555
In10 O106 2.096156 1_555
In10 O102 2.135131 1_555
In10 O32 2.211632 1_555
In10 O34 2.244431 1_555
In10 O104 2.256057 1_555
In11 O33 2.065202 1_555
In11 O31 2.088487 1_555
In11 O103 2.161826 1_555
In11 O107 2.217623 1_555
In11 O35 2.282862 1_555
In11 O105 2.322243 1_555
In12 O38 2.051608 1_556
In12 O108 2.116619 1_555
In12 O112 2.141746 1_555
In12 O36 2.215233 1_556
In12 O40 2.253440 1_556
In12 O110 2.278258 1_555
In13 O41 2.062444 1_556
In13 O39 2.091998 1_556
In13 O109 2.131375 1_555
In13 O113 2.226816 1_555
In13 O37 2.289860 1_556
In13 O111 2.366136 1_555
In14 O46 2.068461 1_555
In14 O114 2.098481 1_555
In14 O116 2.130788 1_555
In14 O42 2.246844 1_555
In14 O44 2.248070 1_555
In14 O118 2.277726 1_555
In15 O47 2.063898 1_555
In15 O115 2.103423 1_555
In15 O117 2.134599 1_555
In15 O43 2.247012 1_555
In15 O45 2.258050 1_555
In15 O119 2.284141 1_555
In16 O52 2.068954 1_554
In16 O48 2.078789 1_554
In16 O122 2.095289 1_555
In16 O50 2.196926 1_554
In16 O120 2.335203 1_555
In16 O124 2.370667 1_555
In17 O53 2.079239 1_554
In17 O49 2.100560 1_554
In17 O123 2.142293 1_555
In17 O125 2.147222 1_555
In17 O51 2.285198 1_554
In17 O121 2.375461 1_555
In18 O56 2.071384 1_555
In18 O54 2.089811 1_555
In18 O130 2.124015 1_555
In18 O58 2.183909 1_555
In18 O126 2.389122 1_555
In18 O128 2.402262 1_555
In19 O57 2.074776 1_555
In19 O55 2.081957 1_555
In19 O131 2.116038 1_555
In19 O59 2.198614 1_555
In19 O127 2.362569 1_555
In19 O129 2.364831 1_555
In20 O62 2.038552 1_555
In20 O134 2.092035 1_555
In20 O132 2.136180 1_555
In20 O64 2.152584 1_555
In20 O60 2.389655 1_555
In20 O136 2.414623 1_555
In21 O63 2.061056 1_555
In21 O135 2.099024 1_555
In21 O65 2.099217 1_555
In21 O133 2.140534 1_555
In21 O61 2.304208 1_555
In21 O137 2.412791 1_555
In22 O70 2.066205 1_555
In22 O68 2.098881 1_555
In22 O142 2.112730 1_555
In22 O138 2.184372 1_555
In22 O66 2.224762 1_555
In22 O140 2.428799 1_555
In23 O71 2.035685 1_555
In23 O143 2.098955 1_555
In23 O69 2.120642 1_555
In23 O139 2.128047 1_555
In23 O67 2.395247 1_555
In23 O141 2.600140 1_555
O0 Si0 1.653348 1_545
O1 Si1 1.643590 1_545
O2 Si2 1.646452 1_555
O3 Si3 1.651262 1_555
O4 S1 1.489102 1_555
O5 S0 1.494439 1_655
O6 Si4 1.640267 1_555
O7 Si5 1.646730 1_555
O8 S3 1.491080 1_555
O9 S2 1.484869 1_655
O10 Si6 1.638464 1_545
O11 Si7 1.639699 1_555
O12 Si6 1.646239 1_555
O13 Si7 1.645036 1_565
O14 Si4 1.643667 1_555
O15 Si5 1.657755 1_555
O16 S2 1.482000 1_555
O17 S3 1.485207 1_555
O18 Si2 1.635039 1_555
O19 Si3 1.624484 1_555
O20 S0 1.483498 1_555
O21 S1 1.478416 1_555
O22 Si0 1.638843 1_555
O23 Si1 1.641502 1_555
O24 Si8 1.638471 1_555
O25 Si9 1.632621 1_555
O26 S4 1.500923 1_555
O27 S5 1.487093 1_555
O28 S6 1.490834 1_555
O29 S7 1.476123 1_555
O30 Si10 1.637647 1_555
O31 Si11 1.633761 1_555
O32 S8 1.483421 1_555
O33 Si12 1.640769 1_555
O34 S9 1.491008 1_555
O35 S10 1.494625 1_555
O36 S9 1.499869 1_555
O37 S10 1.494616 1_555
O38 Si10 1.647499 1_555
O39 Si11 1.635269 1_555
O40 S8 1.493005 1_555
O41 Si12 1.641346 1_555
O42 S4 1.498879 1_555
O43 S5 1.502354 1_555
O44 S6 1.488588 1_555
O45 S7 1.495911 1_555
O46 Si8 1.641518 1_555
O47 Si9 1.643880 1_555
O48 Si13 1.650040 1_555
O49 Si14 1.643123 1_555
O50 S11 1.482002 1_555
O51 S12 1.477441 1_555
O52 Si15 1.632377 1_555
O53 Si16 1.636755 1_555
O54 Si17 1.660053 1_555
O55 Si18 1.656772 1_555
O56 Si19 1.646894 1_555
O57 Si20 1.640904 1_555
O58 S13 1.483597 1_555
O59 S14 1.478581 1_555
O60 S13 1.482294 1_555
O61 S14 1.490322 1_555
O62 Si17 1.624635 1_555
O63 Si18 1.631076 1_555
O64 Si19 1.638582 1_555
O65 Si20 1.638118 1_555
O66 S11 1.490977 1_555
O67 S12 1.477046 1_555
O68 Si15 1.645850 1_555
O69 Si16 1.644007 1_555
O70 Si13 1.641760 1_555
O71 Si14 1.631914 1_555
O72 S13 1.488582 1_555
O73 S14 1.484666 1_555
O74 Si17 1.653525 1_555
O75 Si18 1.653988 1_555
O76 Si19 1.648977 1_555
O77 Si20 1.648811 1_555
O78 S11 1.490444 1_555
O79 S12 1.500514 1_555
O80 Si15 1.644384 1_555
O81 Si16 1.656667 1_555
O82 Si13 1.651711 1_555
O83 Si14 1.660215 1_555
O84 Si8 1.686768 1_555
O85 Si9 1.686268 1_555
O86 S4 1.472815 1_555
O87 S5 1.484394 1_555
O88 S6 1.483380 1_555
O89 S7 1.482308 1_555
O90 Si10 1.682202 1_555
O91 Si11 1.668227 1_555
O92 S8 1.480233 1_555
O93 Si12 1.641587 1_555
O94 S9 1.472439 1_555
O95 S10 1.492810 1_555
O96 Si6 1.655179 1_545
O97 Si7 1.661790 1_555
O98 Si4 1.661504 1_555
O99 Si5 1.643097 1_555
O100 S3 1.498048 1_555
O101 S2 1.482696 1_655
O102 Si2 1.662133 1_555
O103 Si3 1.653875 1_555
O104 S1 1.491130 1_555
O105 S0 1.483918 1_655
O106 Si0 1.650133 1_545
O107 Si1 1.644290 1_545
O108 Si13 1.648347 1_555
O109 Si14 1.649758 1_555
O110 S12 1.500444 1_555
O111 S11 1.475511 1_655
O112 Si15 1.666132 1_545
O113 Si16 1.655371 1_545
O114 Si17 1.650834 1_545
O115 Si18 1.649927 1_545
O116 Si19 1.669735 1_555
O117 Si20 1.663256 1_555
O118 S14 1.488189 1_555
O119 S13 1.491569 1_655
O120 S9 1.485190 1_555
O121 S10 1.478003 1_555
O122 Si11 1.667902 1_455
O123 Si10 1.632118 1_555
O124 S8 1.503490 1_565
O125 Si12 1.663019 1_565
O126 S4 1.488949 1_565
O127 S5 1.488394 1_565
O128 S6 1.501326 1_555
O129 S7 1.507928 1_555
O130 Si9 1.658926 1_455
O131 Si8 1.652269 1_555
O132 Si0 1.651401 1_555
O133 Si1 1.654469 1_555
O134 Si2 1.644176 1_555
O135 Si3 1.646280 1_555
O136 S0 1.486796 1_555
O137 S1 1.492468 1_555
O138 Si4 1.651356 1_555
O139 Si5 1.644829 1_555
O140 S2 1.498073 1_555
O141 S3 1.473917 1_555
O142 Si6 1.640364 1_555
O143 Si7 1.639079 1_565
