# generated using pymatgen
data_BaP10
_symmetry_space_group_name_H-M   'P 1'
_cell_length_a   6.47984656
_cell_length_b   7.22169254
_cell_length_c   12.12473597
_cell_angle_alpha   90.00000000
_cell_angle_beta   90.00000000
_cell_angle_gamma   116.65631152
_symmetry_Int_Tables_number   1
_chemical_formula_structural   BaP10
_chemical_formula_sum   'Ba2 P20'
_cell_volume   507.07761662
_cell_formula_units_Z   2
loop_
 _symmetry_equiv_pos_site_id
 _symmetry_equiv_pos_as_xyz
  1  'x, y, z'
loop_
 _atom_site_type_symbol
 _atom_site_label
 _atom_site_symmetry_multiplicity
 _atom_site_fract_x
 _atom_site_fract_y
 _atom_site_fract_z
 _atom_site_occupancy
  Ba  Ba0  1  0.18739920  0.37479840  0.00576844  1
  Ba  Ba1  1  0.81260080  0.62520160  0.50576844  1
  P  P0  1  0.39028997  0.78057995  0.60558741  1
  P  P1  1  0.60971003  0.21942005  0.10558741  1
  P  P2  1  0.06738476  0.13477152  0.55840235  1
  P  P3  1  0.93261524  0.86522848  0.05840235  1
  P  P4  1  0.40851440  0.81702880  0.78205710  1
  P  P5  1  0.59148560  0.18297120  0.28205710  1
  P  P6  1  0.81335084  0.62670267  0.92929373  1
  P  P7  1  0.18664916  0.37329733  0.42929373  1
  P  P8  1  0.90889026  0.81778252  0.78104051  1
  P  P9  1  0.09110974  0.18221748  0.28104051  1
  P  P10  1  0.55207917  0.10416134  0.56616569  1
  P  P11  1  0.44792083  0.89583866  0.06616569  1
  P  P12  1  0.86909747  0.24740607  0.66537823  1
  P  P13  1  0.13090253  0.75259393  0.16537823  1
  P  P14  1  0.37830760  0.24740607  0.66537823  1
  P  P15  1  0.62169240  0.75259393  0.16537823  1
  P  P16  1  0.77193028  0.04336430  0.81516416  1
  P  P17  1  0.22806972  0.95663570  0.31516416  1
  P  P18  1  0.27143302  0.04336430  0.81516416  1
  P  P19  1  0.72856698  0.95663570  0.31516416  1
loop_
_geom_bond_atom_site_label_1
_geom_bond_atom_site_label_2
_geom_bond_distance
_geom_bond_site_symmetry_2
Ba0 P3 3.350173 1_445
Ba0 P11 3.441669 1_555
Ba0 P13 3.495580 1_555
Ba0 P15 3.495583 1_555
Ba0 P18 3.540581 1_554
Ba0 P16 3.540584 1_454
Ba0 P9 3.561528 1_555
Ba0 P1 3.601048 1_455
Ba0 P1 3.601048 1_555
Ba0 P6 3.741677 1_554
Ba0 P6 3.741682 1_454
Ba0 P4 3.937493 1_554
Ba1 P2 3.350173 1_665
Ba1 P10 3.441669 1_555
Ba1 P12 3.495580 1_555
Ba1 P14 3.495583 1_555
Ba1 P19 3.540581 1_555
Ba1 P17 3.540584 1_655
Ba1 P8 3.561528 1_555
Ba1 P0 3.601048 1_655
Ba1 P0 3.601048 1_555
Ba1 P7 3.741677 1_555
Ba1 P7 3.741682 1_655
Ba1 P5 3.937493 1_555
P0 P10 2.142434 1_565
P0 P4 2.152542 1_555
P1 P11 2.142434 1_545
P1 P5 2.152542 1_555
P2 P7 2.195561 1_555
P3 P6 2.195561 1_554
P6 P8 2.179916 1_555
P7 P9 2.179916 1_555
P10 P14 2.197779 1_555
P10 P12 2.197788 1_555
P11 P15 2.197779 1_555
P11 P13 2.197788 1_555
P12 P2 2.220958 1_655
P12 P16 2.243550 1_555
P13 P3 2.220958 1_455
P13 P17 2.243550 1_555
P14 P2 2.220962 1_555
P14 P18 2.243550 1_555
P15 P3 2.220962 1_555
P15 P19 2.243550 1_555
P16 P8 2.215845 1_545
P16 P4 2.219133 1_545
P17 P9 2.215845 1_565
P17 P5 2.219133 1_565
P18 P8 2.215850 1_445
P18 P4 2.219138 1_545
P19 P9 2.215850 1_665
P19 P5 2.219138 1_565
