# generated using pymatgen
data_Tb2Co7
_symmetry_space_group_name_H-M   'P 1'
_cell_length_a   4.95615242
_cell_length_b   4.95614490
_cell_length_c   12.25832914
_cell_angle_alpha   78.15730496
_cell_angle_beta   78.15734620
_cell_angle_gamma   61.99325801
_symmetry_Int_Tables_number   1
_chemical_formula_structural   Tb2Co7
_chemical_formula_sum   'Tb4 Co14'
_cell_volume   258.11309946
_cell_formula_units_Z   2
loop_
 _symmetry_equiv_pos_site_id
 _symmetry_equiv_pos_as_xyz
  1  'x, y, z'
loop_
 _atom_site_type_symbol
 _atom_site_label
 _atom_site_symmetry_multiplicity
 _atom_site_fract_x
 _atom_site_fract_y
 _atom_site_fract_z
 _atom_site_occupancy
  Tb  Tb0  1  0.05188718  0.05188718  0.84398654  1
  Tb  Tb1  1  0.94811282  0.94811282  0.15601346  1
  Tb  Tb2  1  0.15089541  0.15089441  0.55189851  1
  Tb  Tb3  1  0.84910459  0.84910559  0.44810149  1
  Co  Co0  1  0.50000000  0.50000000  0.50000000  1
  Co  Co1  1  0.27518866  0.27518466  0.16662891  1
  Co  Co2  1  0.72481134  0.72481534  0.83337109  1
  Co  Co3  1  0.38338962  0.38338562  0.84095013  1
  Co  Co4  1  0.61661038  0.61661438  0.15904987  1
  Co  Co5  1  0.50000000  0.50000000  -0.00000000  1
  Co  Co6  1  0.50000000  0.00000000  -0.00000000  1
  Co  Co7  1  0.00000000  0.50000000  -0.00000000  1
  Co  Co8  1  0.11502145  0.60804740  0.67428984  1
  Co  Co9  1  0.60419326  0.60419326  0.67491534  1
  Co  Co10  1  0.60804740  0.11502145  0.67428984  1
  Co  Co11  1  0.88497855  0.39195260  0.32571016  1
  Co  Co12  1  0.39580674  0.39580674  0.32508466  1
  Co  Co13  1  0.39195260  0.88497855  0.32571016  1
loop_
_geom_bond_atom_site_label_1
_geom_bond_atom_site_label_2
_geom_bond_distance
_geom_bond_site_symmetry_2
Co0 Co12 2.508022 1_555
Co0 Co9 2.508022 1_555
Co0 Co13 2.515699 1_555
Co0 Co10 2.515699 1_555
Co0 Co11 2.515701 1_555
Co0 Co8 2.515701 1_555
Co0 Tb2 2.880959 1_555
Co0 Tb3 2.880959 1_555
Co0 Tb2 2.992263 1_565
Co0 Tb3 2.992263 1_545
Co0 Tb2 2.992271 1_655
Co0 Tb3 2.992271 1_455
Co1 Co13 2.396230 1_545
Co1 Co11 2.396244 1_455
Co1 Co12 2.403443 1_555
Co1 Co5 2.439827 1_555
Co1 Co6 2.460873 1_555
Co1 Co7 2.460883 1_555
Co1 Tb1 2.813073 1_445
Co1 Tb1 2.932364 1_545
Co1 Tb1 2.932377 1_455
Co2 Co8 2.396244 1_655
Co2 Co9 2.403443 1_555
Co2 Co5 2.439827 1_556
Co2 Co6 2.460873 1_566
Co2 Co7 2.460883 1_656
Co2 Tb0 2.813073 1_665
Co2 Tb0 2.932364 1_565
Co2 Tb0 2.932377 1_655
Co3 Co6 2.378302 1_556
Co3 Co7 2.378316 1_556
Co3 Co5 2.389148 1_556
Co3 Co9 2.415361 1_555
Co3 Co8 2.444056 1_555
Co3 Tb0 2.808013 1_555
Co3 Tb0 2.931069 1_655
Co3 Tb0 2.931082 1_565
Co4 Co6 2.378302 1_565
Co4 Co7 2.378316 1_655
Co4 Co5 2.389148 1_555
Co4 Tb1 2.808013 1_555
Co4 Tb1 2.931069 1_455
Co4 Tb1 2.931082 1_545
Co5 Co6 2.478072 1_555
Co5 Co6 2.478072 1_565
Co5 Co7 2.478076 1_555
Co5 Co7 2.478076 1_655
Co5 Tb0 3.156370 1_564
Co5 Tb1 3.156370 1_545
Co5 Tb0 3.156373 1_654
Co5 Tb1 3.156373 1_455
Co6 Co7 2.552355 1_645
Co6 Co7 2.552355 1_555
Co6 Tb0 3.084935 1_654
Co6 Tb1 3.084935 1_445
Co6 Tb0 3.108251 1_554
Co6 Tb1 3.108251 1_545
Co7 Tb0 3.084931 1_564
Co7 Tb1 3.084931 1_445
Co7 Tb0 3.108249 1_554
Co7 Tb1 3.108249 1_455
Co8 Co9 2.417078 1_555
Co8 Co9 2.539199 1_455
Co8 Tb2 2.864251 1_565
Co8 Tb2 2.885039 1_555
Co8 Tb3 3.084407 1_455
Co8 Tb0 3.195669 1_555
Co8 Tb0 3.198211 1_565
Co9 Tb2 2.942693 1_565
Co9 Tb2 2.942699 1_655
Co9 Tb3 3.048015 1_555
Co9 Tb0 3.250594 1_655
Co9 Tb0 3.250597 1_565
Co10 Co2 2.396230 1_545
Co10 Co9 2.417074 1_555
Co10 Co3 2.444046 1_555
Co10 Co8 2.516755 1_555
Co10 Co9 2.539195 1_545
Co10 Co8 2.587956 1_645
Co10 Tb2 2.864257 1_655
Co10 Tb2 2.885039 1_555
Co10 Tb3 3.084405 1_545
Co10 Tb0 3.195673 1_555
Co10 Tb0 3.198213 1_655
Co11 Co12 2.417078 1_555
Co11 Co4 2.444056 1_555
Co11 Co13 2.516755 1_555
Co11 Co12 2.539199 1_655
Co11 Co13 2.587956 1_645
Co11 Tb3 2.864251 1_545
Co11 Tb3 2.885039 1_555
Co11 Tb2 3.084407 1_655
Co11 Tb1 3.195669 1_555
Co11 Tb1 3.198211 1_545
Co12 Co4 2.415361 1_555
Co12 Co13 2.417074 1_555
Co12 Co13 2.539195 1_545
Co12 Tb3 2.942693 1_545
Co12 Tb3 2.942699 1_455
Co12 Tb2 3.048015 1_555
Co12 Tb1 3.250594 1_455
Co12 Tb1 3.250597 1_545
Co13 Co4 2.444046 1_555
Co13 Tb3 2.864257 1_455
Co13 Tb3 2.885039 1_555
Co13 Tb2 3.084405 1_565
Co13 Tb1 3.195673 1_555
Co13 Tb1 3.198213 1_455
