# generated using pymatgen
data_Sr2GdMgRuO6
_symmetry_space_group_name_H-M   'P 1'
_cell_length_a   6.41448052
_cell_length_b   5.81660398
_cell_length_c   5.74945294
_cell_angle_alpha   60.25419730
_cell_angle_beta   62.79472762
_cell_angle_gamma   63.66682754
_symmetry_Int_Tables_number   1
_chemical_formula_structural   Sr2GdMgRuO6
_chemical_formula_sum   'Sr2 Gd1 Mg1 Ru1 O6'
_cell_volume   158.98534306
_cell_formula_units_Z   1
loop_
 _symmetry_equiv_pos_site_id
 _symmetry_equiv_pos_as_xyz
  1  'x, y, z'
loop_
 _atom_site_type_symbol
 _atom_site_label
 _atom_site_symmetry_multiplicity
 _atom_site_fract_x
 _atom_site_fract_y
 _atom_site_fract_z
 _atom_site_occupancy
  Sr  Sr0  1  0.44557969  0.19193882  0.15899877  1
  Sr  Sr1  1  0.82657478  0.72995851  0.69247396  1
  Gd  Gd0  1  0.03662506  0.99206458  0.96373257  1
  Mg  Mg0  1  0.92720349  0.38063316  0.29782354  1
  Ru  Ru0  1  0.44395079  0.52548393  0.50082071  1
  O  O0  1  0.17199151  0.32262928  0.89401362  1
  O  O1  1  0.72004838  0.75087177  0.15117709  1
  O  O2  1  0.72246180  0.18955177  0.32892414  1
  O  O3  1  0.72410314  0.36316472  0.69492069  1
  O  O4  1  0.21465636  0.87333221  0.59132465  1
  O  O5  1  0.19909700  0.61266324  0.28308226  1
loop_
_geom_bond_atom_site_label_1
_geom_bond_atom_site_label_2
_geom_bond_distance
_geom_bond_site_symmetry_2
Gd0 O4 2.213022 1_555
Gd0 O0 2.238256 1_565
Gd0 O5 2.239620 1_556
Gd0 O2 2.501968 1_466
Gd0 O1 2.505874 1_456
Gd0 O3 2.598109 1_465
Mg0 O1 1.948889 1_555
Mg0 O2 1.968535 1_555
Mg0 O3 2.021799 1_555
Mg0 O0 2.223409 1_654
Mg0 O5 2.590369 1_655
O0 Ru0 2.262585 1_555
O0 Sr0 2.467926 1_556
O0 Sr1 2.613679 1_455
O1 Ru0 2.255159 1_555
O1 Sr0 2.391317 1_565
O1 Sr1 2.456392 1_554
O2 Ru0 2.278445 1_555
O2 Sr0 2.379134 1_555
O2 Sr1 2.471668 1_545
O3 Ru0 2.156161 1_555
O3 Sr0 2.426111 1_556
O3 Sr1 2.487960 1_555
O4 Ru0 2.057316 1_555
O4 Sr0 2.510927 1_565
O4 Sr1 2.695794 1_455
O5 Ru0 2.180014 1_555
O5 Sr0 2.503172 1_555
O5 Sr1 2.592306 1_455
