# generated using pymatgen
data_MgMn6(O5F)2
_symmetry_space_group_name_H-M   'P 1'
_cell_length_a   5.11123356
_cell_length_b   7.54580590
_cell_length_c   5.72200616
_cell_angle_alpha   98.24931997
_cell_angle_beta   98.52322707
_cell_angle_gamma   84.68912541
_symmetry_Int_Tables_number   1
_chemical_formula_structural   MgMn6(O5F)2
_chemical_formula_sum   'Mg1 Mn6 O10 F2'
_cell_volume   215.41912746
_cell_formula_units_Z   1
loop_
 _symmetry_equiv_pos_site_id
 _symmetry_equiv_pos_as_xyz
  1  'x, y, z'
loop_
 _atom_site_type_symbol
 _atom_site_label
 _atom_site_symmetry_multiplicity
 _atom_site_fract_x
 _atom_site_fract_y
 _atom_site_fract_z
 _atom_site_occupancy
  Mg  Mg0  1  0.50103510  0.49909504  0.48800788  1
  Mn  Mn0  1  0.47663143  0.99078068  0.50475536  1
  Mn  Mn1  1  0.55280351  0.69276668  0.10943670  1
  Mn  Mn2  1  0.47361625  0.31188866  0.86695768  1
  Mn  Mn3  1  0.99823300  0.67078070  0.67095812  1
  Mn  Mn4  1  0.98424837  0.31608639  0.34399202  1
  Mn  Mn5  1  0.99252955  0.98921598  0.99729502  1
  O  O0  1  0.86633519  0.42793790  0.62514798  1
  O  O1  1  0.85421880  0.76325478  0.96500161  1
  O  O2  1  0.85904238  0.09652297  0.29364287  1
  O  O3  1  0.66719389  0.08351304  0.81301334  1
  O  O4  1  0.65359005  0.74591556  0.45987648  1
  O  O5  1  0.65603340  0.42658876  0.16717611  1
  O  O6  1  0.36369574  0.56211294  0.81627818  1
  O  O7  1  0.33585962  0.24867782  0.52226446  1
  O  O8  1  0.32566105  0.91112344  0.18043314  1
  O  O9  1  0.14010094  0.89461148  0.71286600  1
  F  F0  1  0.14185267  0.55936942  0.34298796  1
  F  F1  1  0.14343007  0.23833277  0.03657607  1
loop_
_geom_bond_atom_site_label_1
_geom_bond_atom_site_label_2
_geom_bond_distance
_geom_bond_site_symmetry_2
Mg0 O0 1.972634 1_555
Mg0 O6 2.078433 1_555
Mg0 O5 2.088009 1_555
Mg0 O4 2.120080 1_555
Mg0 O7 2.184589 1_555
Mn0 O8 1.934404 1_555
Mn0 O3 1.952498 1_565
Mn0 O4 1.980241 1_555
Mn0 O7 2.005252 1_565
Mn0 O9 2.447352 1_555
Mn0 O2 2.679834 1_565
Mn1 O8 1.954828 1_555
Mn1 O6 1.985275 1_554
Mn1 O4 1.987056 1_555
Mn1 O1 1.998663 1_554
Mn1 O5 2.089091 1_555
Mn2 O3 1.914724 1_555
Mn2 O5 1.953816 1_556
Mn2 O6 1.969082 1_555
Mn2 O7 1.998485 1_555
Mn3 O9 1.869471 1_655
Mn3 O1 1.948007 1_555
Mn3 O0 1.979779 1_555
Mn3 O4 2.065007 1_555
Mn3 O6 2.074800 1_655
Mn4 O2 1.800591 1_555
Mn4 O0 1.862078 1_555
Mn4 O7 1.991319 1_655
Mn4 O5 2.003299 1_555
Mn5 O1 1.880196 1_555
Mn5 O9 1.912618 1_655
Mn5 O8 1.951194 1_656
Mn5 O2 1.960416 1_566
Mn5 O3 1.964646 1_565
F0 Mg0 1.941133 1_555
F0 Mn4 2.072954 1_455
F0 Mn3 2.146811 1_455
F1 Mn4 2.034727 1_455
F1 Mn5 2.067551 1_444
F1 Mn2 2.216249 1_554
