# generated using pymatgen
data_MgNi2(BiO3)2
_symmetry_space_group_name_H-M   'P 1'
_cell_length_a   6.43344260
_cell_length_b   5.57824704
_cell_length_c   5.76777397
_cell_angle_alpha   60.57331019
_cell_angle_beta   70.57667286
_cell_angle_gamma   61.74487312
_symmetry_Int_Tables_number   1
_chemical_formula_structural   MgNi2(BiO3)2
_chemical_formula_sum   'Mg1 Ni2 Bi2 O6'
_cell_volume   157.45026182
_cell_formula_units_Z   1
loop_
 _symmetry_equiv_pos_site_id
 _symmetry_equiv_pos_as_xyz
  1  'x, y, z'
loop_
 _atom_site_type_symbol
 _atom_site_label
 _atom_site_symmetry_multiplicity
 _atom_site_fract_x
 _atom_site_fract_y
 _atom_site_fract_z
 _atom_site_occupancy
  Mg  Mg0  1  0.90867484  0.30165352  0.50860498  1
  Ni  Ni0  1  0.08063893  0.94122723  0.01722810  1
  Ni  Ni1  1  0.32311875  0.54810891  0.57549719  1
  Bi  Bi0  1  0.52226809  0.18283200  0.20894022  1
  Bi  Bi1  1  0.79752008  0.68321352  0.87185692  1
  O  O0  1  0.09319300  0.85987880  0.70178131  1
  O  O1  1  0.84797650  0.71386244  0.21404063  1
  O  O2  1  0.60210013  0.31821262  0.78334196  1
  O  O3  1  0.09447994  0.34281875  0.72164997  1
  O  O4  1  0.83875325  0.21495418  0.22730503  1
  O  O5  1  0.37535849  0.64815603  0.18508070  1
loop_
_geom_bond_atom_site_label_1
_geom_bond_atom_site_label_2
_geom_bond_distance
_geom_bond_site_symmetry_2
Mg0 O1 2.019567 1_555
Mg0 O0 2.033580 1_645
Mg0 O2 2.074201 1_555
Mg0 O3 2.122651 1_655
Mg0 O4 2.128640 1_555
Ni0 O5 1.983890 1_555
Ni0 O0 2.049778 1_554
Ni0 O3 2.065895 1_564
Ni0 O1 2.095299 1_455
Ni0 O4 2.129662 1_465
Ni1 O0 1.958480 1_555
Ni1 O5 1.983566 1_555
Ni1 O3 2.001807 1_555
Ni1 O2 2.011021 1_555
Bi0 O2 2.137064 1_554
Bi0 O4 2.167142 1_555
Bi0 O5 2.250019 1_555
Bi0 O1 2.451654 1_545
Bi1 O1 2.200012 1_556
Bi1 O3 2.255430 1_655
Bi1 O0 2.266206 1_655
Bi1 O4 2.353716 1_556
Bi1 O5 2.751510 1_556
