# generated using pymatgen
data_Sr5As3O13
_symmetry_space_group_name_H-M   'P 1'
_cell_length_a   10.07835362
_cell_length_b   10.07832188
_cell_length_c   7.43104792
_cell_angle_alpha   89.99988015
_cell_angle_beta   90.00002051
_cell_angle_gamma   119.99978521
_symmetry_Int_Tables_number   1
_chemical_formula_structural   Sr5As3O13
_chemical_formula_sum   'Sr10 As6 O26'
_cell_volume   653.67135029
_cell_formula_units_Z   2
loop_
 _symmetry_equiv_pos_site_id
 _symmetry_equiv_pos_as_xyz
  1  'x, y, z'
loop_
 _atom_site_type_symbol
 _atom_site_label
 _atom_site_symmetry_multiplicity
 _atom_site_fract_x
 _atom_site_fract_y
 _atom_site_fract_z
 _atom_site_occupancy
  Sr  Sr0  1  0.33333509  0.66666650  0.50124012  1
  Sr  Sr1  1  0.66666630  0.33333407  0.00123977  1
  Sr  Sr2  1  0.66666952  0.33333731  0.50349308  1
  Sr  Sr3  1  0.33333040  0.66666139  0.00349270  1
  Sr  Sr4  1  0.74349973  0.75410745  0.25265949  1
  Sr  Sr5  1  0.01061672  0.25650592  0.25264957  1
  Sr  Sr6  1  0.24588953  0.98938435  0.25266029  1
  Sr  Sr7  1  0.25650285  0.24589224  0.75265793  1
  Sr  Sr8  1  0.98938149  0.74349158  0.75264988  1
  Sr  Sr9  1  0.75411129  0.01061692  0.75265666  1
  As  As0  1  0.96686961  0.59971295  0.25281060  1
  As  As1  1  0.63285686  0.03313243  0.25280542  1
  As  As2  1  0.40027034  0.36714225  0.25280623  1
  As  As3  1  0.03313113  0.40028544  0.75280688  1
  As  As4  1  0.36714059  0.96686434  0.75281116  1
  As  As5  1  0.59972692  0.63285961  0.75281249  1
  O  O0  1  0.87225068  0.40459639  0.25154408  1
  O  O1  1  0.53235101  0.12774941  0.25155167  1
  O  O2  1  0.59539523  0.46765045  0.25155854  1
  O  O3  1  0.12775034  0.59540092  0.75154524  1
  O  O4  1  0.46764763  0.87224992  0.75155431  1
  O  O5  1  0.40460220  0.53235070  0.75155653  1
  O  O6  1  0.15989348  0.67462550  0.25299537  1
  O  O7  1  0.51474594  0.84011554  0.25300505  1
  O  O8  1  0.32536658  0.48525966  0.25300882  1
  O  O9  1  0.84010452  0.32537412  0.75299565  1
  O  O10  1  0.48525246  0.15987970  0.75300810  1
  O  O11  1  0.67463025  0.51474634  0.75300934  1
  O  O12  1  0.90527212  0.65319844  0.43686421  1
  O  O13  1  0.74793829  0.09473455  0.43687580  1
  O  O14  1  0.34678500  0.25205770  0.43687416  1
  O  O15  1  0.09473197  0.34680257  0.93686552  1
  O  O16  1  0.25206239  0.90526517  0.93688146  1
  O  O17  1  0.65321763  0.74794884  0.93688216  1
  O  O18  1  0.09342674  0.34448540  0.56946304  1
  O  O19  1  0.25105953  0.90657401  0.56947072  1
  O  O20  1  0.65551999  0.74894531  0.56946310  1
  O  O21  1  0.90657616  0.65551280  0.06946585  1
  O  O22  1  0.74894092  0.09342567  0.06946632  1
  O  O23  1  0.34448024  0.25105638  0.06946245  1
  O  O24  1  0.00000303  -0.00000247  0.25429405  1
  O  O25  1  -0.00000270  0.00000225  0.75429419  1
loop_
_geom_bond_atom_site_label_1
_geom_bond_atom_site_label_2
_geom_bond_distance
_geom_bond_site_symmetry_2
As0 O12 1.697421 1_555
As0 O21 1.698082 1_555
As0 O6 1.698743 1_655
As0 O0 1.703281 1_555
As1 O13 1.697517 1_555
As1 O22 1.698004 1_555
As1 O7 1.698683 1_545
As1 O1 1.703333 1_555
As2 O14 1.697513 1_555
As2 O23 1.698042 1_555
As2 O8 1.698721 1_555
As2 O2 1.703359 1_555
As3 O15 1.697453 1_555
As3 O18 1.698091 1_555
As3 O9 1.698770 1_455
As3 O3 1.703271 1_555
As4 O16 1.697498 1_555
As4 O19 1.697998 1_555
As4 O10 1.698672 1_565
As4 O4 1.703322 1_555
As5 O17 1.697550 1_555
As5 O20 1.698071 1_555
As5 O11 1.698679 1_555
As5 O5 1.703358 1_555
O0 Sr5 2.500711 1_655
O0 Sr1 2.603923 1_555
O0 Sr2 2.612649 1_555
O1 Sr6 2.500767 1_545
O1 Sr1 2.603951 1_555
O1 Sr2 2.612642 1_555
O2 Sr4 2.500722 1_555
O2 Sr1 2.604005 1_555
O2 Sr2 2.612587 1_555
O3 Sr8 2.500737 1_455
O3 Sr0 2.603925 1_555
O3 Sr3 2.612633 1_556
O4 Sr9 2.500786 1_565
O4 Sr0 2.603959 1_555
O4 Sr3 2.612622 1_556
O5 Sr7 2.500734 1_555
O5 Sr0 2.603963 1_555
O5 Sr3 2.612571 1_556
O6 Sr0 2.570050 1_555
O6 Sr3 2.576755 1_555
O6 Sr6 2.839881 1_555
O7 Sr0 2.570062 1_555
O7 Sr3 2.576921 1_555
O7 Sr4 2.839883 1_555
O8 Sr0 2.569990 1_555
O8 Sr3 2.576826 1_555
O8 Sr5 2.839807 1_555
O9 Sr1 2.570027 1_556
O9 Sr2 2.576736 1_555
O9 Sr9 2.839873 1_555
O10 Sr1 2.570076 1_556
O10 Sr2 2.576948 1_555
O10 Sr7 2.839874 1_555
O11 Sr1 2.570033 1_556
O11 Sr2 2.576893 1_555
O11 Sr8 2.839795 1_555
O12 Sr8 2.506374 1_555
O12 Sr4 2.687801 1_555
O12 Sr2 2.944124 1_555
O13 Sr9 2.506344 1_555
O13 Sr5 2.687869 1_655
O13 Sr2 2.944173 1_555
O14 Sr7 2.506349 1_555
O14 Sr6 2.687791 1_545
O14 Sr2 2.944283 1_555
O15 Sr5 2.506376 1_556
O15 Sr7 2.687811 1_555
O15 Sr3 2.944097 1_556
O16 Sr6 2.506338 1_556
O16 Sr8 2.687912 1_455
O16 Sr3 2.944169 1_556
O17 Sr4 2.506314 1_556
O17 Sr9 2.687790 1_565
O17 Sr3 2.944277 1_556
O18 Sr5 2.507043 1_555
O18 Sr7 2.678596 1_555
O18 Sr0 2.965728 1_555
O19 Sr6 2.507020 1_555
O19 Sr8 2.678613 1_455
O19 Sr0 2.965740 1_555
O20 Sr4 2.506985 1_555
O20 Sr9 2.678617 1_565
O20 Sr0 2.965751 1_555
O21 Sr8 2.507049 1_554
O21 Sr4 2.678607 1_555
O21 Sr1 2.965722 1_555
O22 Sr9 2.507013 1_554
O22 Sr5 2.678613 1_655
O22 Sr1 2.965735 1_555
O23 Sr7 2.506980 1_554
O23 Sr6 2.678632 1_545
O23 Sr1 2.965765 1_555
O24 Sr6 2.533336 1_545
O24 Sr4 2.533377 1_445
O24 Sr5 2.533414 1_555
O25 Sr9 2.533339 1_455
O25 Sr7 2.533389 1_555
O25 Sr8 2.533427 1_445
