# generated using pymatgen
data_Na6Y4Al4Si3(S3O16)3
_symmetry_space_group_name_H-M   'P 1'
_cell_length_a   17.70820777
_cell_length_b   8.86605820
_cell_length_c   22.99196083
_cell_angle_alpha   90.34858036
_cell_angle_beta   89.47548989
_cell_angle_gamma   119.97976997
_symmetry_Int_Tables_number   1
_chemical_formula_structural   Na6Y4Al4Si3(S3O16)3
_chemical_formula_sum   'Na18 Y12 Al12 Si9 S27 O144'
_cell_volume   3126.66582767
_cell_formula_units_Z   3
loop_
 _symmetry_equiv_pos_site_id
 _symmetry_equiv_pos_as_xyz
  1  'x, y, z'
loop_
 _atom_site_type_symbol
 _atom_site_label
 _atom_site_symmetry_multiplicity
 _atom_site_fract_x
 _atom_site_fract_y
 _atom_site_fract_z
 _atom_site_occupancy
  Na  Na0  1  0.00548741  0.64286007  0.25586931  1
  Na  Na1  1  0.50343010  0.36951754  0.74089905  1
  Na  Na2  1  0.15999395  0.31062269  0.91120019  1
  Na  Na3  1  0.66008101  0.30437672  0.90852308  1
  Na  Na4  1  0.16236170  0.02020794  0.41622365  1
  Na  Na5  1  0.65858773  0.00517764  0.41740221  1
  Na  Na6  1  0.99350686  0.98321904  0.49478789  1
  Na  Na7  1  0.49012112  0.00127069  0.49846881  1
  Na  Na8  1  0.99169616  0.00065163  0.99046514  1
  Na  Na9  1  0.49386982  0.00380233  0.99131439  1
  Na  Na10  1  0.33389974  0.33311298  0.82758059  1
  Na  Na11  1  0.84002728  0.33624641  0.83695195  1
  Na  Na12  1  0.34195742  0.34759732  0.34066024  1
  Na  Na13  1  0.83155700  0.33022084  0.33392071  1
  Na  Na14  1  0.17489870  0.68474733  0.17588512  1
  Na  Na15  1  0.66595237  0.68649305  0.17350272  1
  Na  Na16  1  0.17020354  0.64972659  0.67154272  1
  Na  Na17  1  0.66293898  0.64700554  0.66736950  1
  Y  Y0  1  0.99854010  0.00854251  0.64635676  1
  Y  Y1  1  0.50903037  0.01913217  0.64614174  1
  Y  Y2  1  0.00950597  0.00342152  0.14859318  1
  Y  Y3  1  0.49928795  0.98865219  0.14680491  1
  Y  Y4  1  0.82927821  0.33502310  0.69367896  1
  Y  Y5  1  0.33009513  0.32649831  0.19479533  1
  Y  Y6  1  0.15763901  0.65147891  0.01384843  1
  Y  Y7  1  0.66576080  0.65611074  0.01436522  1
  Y  Y8  1  0.16746620  0.67537962  0.51444926  1
  Y  Y9  1  0.64678370  0.64560689  0.51914650  1
  Y  Y10  1  0.66001195  0.67131931  0.31902672  1
  Y  Y11  1  0.16035101  0.64814460  0.81723097  1
  Al  Al0  1  0.00253005  0.99193277  0.35326665  1
  Al  Al1  1  0.50843635  0.99296101  0.34719643  1
  Al  Al2  1  0.00937071  0.02932831  0.84353259  1
  Al  Al3  1  0.50074672  0.01559303  0.84778710  1
  Al  Al4  1  0.32510808  0.32959842  0.68031907  1
  Al  Al5  1  0.82440577  0.31974224  0.18719818  1
  Al  Al6  1  0.34287932  0.33434073  0.97739167  1
  Al  Al7  1  0.83656231  0.32863143  0.98217554  1
  Al  Al8  1  0.35026694  0.35838071  0.48790735  1
  Al  Al9  1  0.84278906  0.34895894  0.47841854  1
  Al  Al10  1  0.16066914  0.67248985  0.32110666  1
  Al  Al11  1  0.65529264  0.64985657  0.81769767  1
  Si  Si0  1  0.14550215  0.98748900  0.25880112  1
  Si  Si1  1  0.65333680  0.01192200  0.24983241  1
  Si  Si2  1  0.15715228  0.29449517  0.74856073  1
  Si  Si3  1  0.64675635  0.30569860  0.75937028  1
  Si  Si4  1  0.46848752  0.32873199  0.58919445  1
  Si  Si5  1  0.00421256  0.34198647  0.91653786  1
  Si  Si6  1  0.51352847  0.35852982  0.91342656  1
  Si  Si7  1  0.01348595  0.66659373  0.41396535  1
  Si  Si8  1  0.50386856  0.66756504  0.41582195  1
  S  S0  1  0.34867910  0.71575013  0.25787821  1
  S  S1  1  0.85432881  0.70060278  0.24924803  1
  S  S2  1  0.00098669  0.29637772  0.25327201  1
  S  S3  1  0.50186201  0.28271199  0.25439991  1
  S  S4  1  0.00130038  0.72249841  0.75480916  1
  S  S5  1  0.50337445  0.71555965  0.75693458  1
  S  S6  1  0.35551593  0.00316608  0.75304593  1
  S  S7  1  0.84831639  0.98243768  0.75836955  1
  S  S8  1  0.97416466  0.33172227  0.57833364  1
  S  S9  1  0.19564880  0.05933933  0.57966926  1
  S  S10  1  0.69632540  0.05472240  0.57611382  1
  S  S11  1  0.33109002  0.60775279  0.58427937  1
  S  S12  1  0.83425522  0.61824573  0.57698740  1
  S  S13  1  0.47329667  0.61552149  0.07826326  1
  S  S14  1  0.96642142  0.60191078  0.08496947  1
  S  S15  1  0.33325932  0.04965328  0.07731709  1
  S  S16  1  0.83275571  0.05997797  0.08469228  1
  S  S17  1  0.19348782  0.33512299  0.07749506  1
  S  S18  1  0.69931084  0.33538753  0.08158860  1
  S  S19  1  0.32461195  0.66704047  0.91854452  1
  S  S20  1  0.81871970  0.66725254  0.91391451  1
  S  S21  1  0.16849611  0.98113887  0.91810178  1
  S  S22  1  0.66476139  0.96192049  0.91411465  1
  S  S23  1  0.31784961  0.96520391  0.41085567  1
  S  S24  1  0.82503391  0.97917742  0.41825937  1
  S  S25  1  0.16183451  0.36784821  0.41052322  1
  S  S26  1  0.66822093  0.35470716  0.41636316  1
  O  O0  1  0.09004318  0.01333959  0.31054337  1
  O  O1  1  0.60456316  0.02969272  0.30864087  1
  O  O2  1  0.40974004  0.81717256  0.30463097  1
  O  O3  1  0.90964944  0.78817311  0.30099212  1
  O  O4  1  0.49491682  0.17319808  0.30471150  1
  O  O5  1  0.98286755  0.17846785  0.30304060  1
  O  O6  1  0.10971866  0.18339041  0.80906347  1
  O  O7  1  0.59594605  0.17588007  0.81339453  1
  O  O8  1  0.48958806  0.80730965  0.80679581  1
  O  O9  1  0.99487807  0.82021669  0.80543278  1
  O  O10  1  0.40978121  0.01578081  0.80457323  1
  O  O11  1  0.91008386  0.00564238  0.80539374  1
  O  O12  1  0.39132741  0.97127313  0.69934838  1
  O  O13  1  0.87878354  0.95010265  0.70162459  1
  O  O14  1  0.09247225  0.20421072  0.69366550  1
  O  O15  1  0.59040439  0.23122004  0.69977629  1
  O  O16  1  0.00190933  0.80332709  0.69879573  1
  O  O17  1  0.51652733  0.80883351  0.70173971  1
  O  O18  1  0.37877658  0.80634887  0.20071945  1
  O  O19  1  0.89103649  0.80848264  0.19619268  1
  O  O20  1  0.01486601  0.22346658  0.19851002  1
  O  O21  1  0.50242750  0.20191125  0.19800722  1
  O  O22  1  0.08950345  0.94462726  0.19785990  1
  O  O23  1  0.59332504  0.97759331  0.19245461  1
  O  O24  1  0.41935436  0.34062653  0.64932506  1
  O  O25  1  0.93579596  0.34282696  0.63407833  1
  O  O26  1  0.24320753  0.14973727  0.63274087  1
  O  O27  1  0.74018654  0.13902658  0.63103593  1
  O  O28  1  0.32220944  0.50684952  0.63775296  1
  O  O29  1  0.82845126  0.52838372  0.63230146  1
  O  O30  1  0.43448649  0.52854755  0.13382291  1
  O  O31  1  0.92449835  0.50560271  0.13962224  1
  O  O32  1  0.32763162  0.12895346  0.13268886  1
  O  O33  1  0.82884387  0.15030038  0.13863201  1
  O  O34  1  0.23783436  0.34163658  0.13218604  1
  O  O35  1  0.74944029  0.34496262  0.13406207  1
  O  O36  1  0.24115942  0.32915968  0.02516210  1
  O  O37  1  0.74223204  0.32385947  0.02637365  1
  O  O38  1  0.42137208  0.51465304  0.02762909  1
  O  O39  1  0.91729470  0.51256820  0.03183902  1
  O  O40  1  0.33616103  0.15518927  0.02654518  1
  O  O41  1  0.83603337  0.15751676  0.03142365  1
  O  O42  1  0.23742069  0.15594264  0.52462132  1
  O  O43  1  0.74378155  0.16012856  0.52409201  1
  O  O44  1  0.33126989  0.51510001  0.53011096  1
  O  O45  1  0.83808280  0.51805571  0.52608223  1
  O  O46  1  0.41814842  0.32081904  0.52970916  1
  O  O47  1  0.92227719  0.32741186  0.52767702  1
  O  O48  1  0.28713177  0.70881535  0.97016982  1
  O  O49  1  0.78877787  0.71280267  0.96889030  1
  O  O50  1  0.07428425  0.41965739  0.97098648  1
  O  O51  1  0.58012367  0.43111399  0.96962380  1
  O  O52  1  0.15404650  0.87272986  0.97050892  1
  O  O53  1  0.65268310  0.86214311  0.96826292  1
  O  O54  1  0.28811529  0.86221238  0.46564482  1
  O  O55  1  0.78898841  0.86538542  0.46911134  1
  O  O56  1  0.14905688  0.44029402  0.46557145  1
  O  O57  1  0.65459506  0.43487810  0.46859780  1
  O  O58  1  0.08137128  0.72677137  0.46880660  1
  O  O59  1  0.57567969  0.72881165  0.46854284  1
  O  O60  1  0.06240596  0.63320118  0.35822662  1
  O  O61  1  0.54472704  0.61976389  0.35983736  1
  O  O62  1  0.25367563  0.86497918  0.36382429  1
  O  O63  1  0.76701371  0.90548474  0.36696354  1
  O  O64  1  0.17670549  0.48745760  0.36114569  1
  O  O65  1  0.68984982  0.46699210  0.36494979  1
  O  O66  1  0.04733912  0.47388245  0.86239856  1
  O  O67  1  0.56461731  0.49620289  0.86038995  1
  O  O68  1  0.18966948  0.90967896  0.86707418  1
  O  O69  1  0.68217244  0.87815245  0.86392765  1
  O  O70  1  0.26536759  0.62443681  0.86830621  1
  O  O71  1  0.75542974  0.63306935  0.86662188  1
  O  O72  1  0.00216001  0.84025542  0.40517912  1
  O  O73  1  0.49982943  0.84644966  0.40349238  1
  O  O74  1  0.40658052  0.00014501  0.39778422  1
  O  O75  1  0.91326780  0.00655154  0.40410802  1
  O  O76  1  0.08071644  0.19325316  0.40304966  1
  O  O77  1  0.58718293  0.18266441  0.40798326  1
  O  O78  1  0.00021429  0.15471119  0.90271947  1
  O  O79  1  0.50077814  0.16139861  0.90388529  1
  O  O80  1  0.08834177  0.99373962  0.91024309  1
  O  O81  1  0.58545653  0.97776365  0.90687131  1
  O  O82  1  0.41209906  0.81576070  0.90648835  1
  O  O83  1  0.90755656  0.80871115  0.90172059  1
  O  O84  1  0.47876103  0.15566705  0.58495228  1
  O  O85  1  0.97874778  0.16843526  0.57580245  1
  O  O86  1  0.10574020  0.03257669  0.58124610  1
  O  O87  1  0.60750587  0.03152480  0.57555085  1
  O  O88  1  0.41219880  0.77674108  0.58554598  1
  O  O89  1  0.91572598  0.79065859  0.57637619  1
  O  O90  1  0.47822284  0.78807113  0.07569562  1
  O  O91  1  0.97392344  0.77658349  0.08500752  1
  O  O92  1  0.41357513  0.03624222  0.07611367  1
  O  O93  1  0.91263804  0.04521125  0.08518020  1
  O  O94  1  0.10495788  0.17637111  0.07679382  1
  O  O95  1  0.61095408  0.18043187  0.08256950  1
  O  O96  1  0.35566452  0.17073759  0.75050192  1
  O  O97  1  0.84542591  0.14722319  0.75475186  1
  O  O98  1  0.25242648  0.30584179  0.73812603  1
  O  O99  1  0.74253132  0.32267695  0.75753161  1
  O  O100  1  0.42732059  0.53620537  0.75319233  1
  O  O101  1  0.92474878  0.54365213  0.75678050  1
  O  O102  1  0.34527396  0.54467329  0.25438544  1
  O  O103  1  0.85641885  0.53268042  0.24098640  1
  O  O104  1  0.42502989  0.30846788  0.25589530  1
  O  O105  1  0.92518980  0.32705554  0.24492847  1
  O  O106  1  0.24015042  0.16226363  0.25613541  1
  O  O107  1  0.74885347  0.19252618  0.24134724  1
  O  O108  1  0.32770062  0.50377854  0.92951085  1
  O  O109  1  0.81785114  0.49672197  0.92395324  1
  O  O110  1  0.41899197  0.34364106  0.92541715  1
  O  O111  1  0.91130852  0.32891174  0.93184667  1
  O  O112  1  0.24311382  0.16336003  0.92844604  1
  O  O113  1  0.74065404  0.14441770  0.92236909  1
  O  O114  1  0.31601733  0.13108159  0.41824477  1
  O  O115  1  0.82997810  0.15168422  0.42849831  1
  O  O116  1  0.23614288  0.33646989  0.41598552  1
  O  O117  1  0.74245904  0.31947789  0.42596960  1
  O  O118  1  0.40894771  0.49603771  0.42973124  1
  O  O119  1  0.91863637  0.49263376  0.42553971  1
  O  O120  1  0.18486395  0.49376744  0.07790998  1
  O  O121  1  0.69374856  0.49701362  0.08139704  1
  O  O122  1  0.05544394  0.62357746  0.08271738  1
  O  O123  1  0.56251536  0.64017222  0.07599207  1
  O  O124  1  0.25493119  0.87332570  0.07497589  1
  O  O125  1  0.75385734  0.88498124  0.08320169  1
  O  O126  1  0.19061046  0.88655572  0.58044789  1
  O  O127  1  0.69267388  0.88470224  0.57526671  1
  O  O128  1  0.25349518  0.63073827  0.58248675  1
  O  O129  1  0.75758767  0.64074043  0.57388528  1
  O  O130  1  0.06332151  0.48494920  0.57568946  1
  O  O131  1  0.56604736  0.50437125  0.59010716  1
  O  O132  1  0.15545914  0.81265709  0.26571709  1
  O  O133  1  0.66922975  0.84600341  0.25319111  1
  O  O134  1  0.25969087  0.68627178  0.26834483  1
  O  O135  1  0.76510187  0.66296990  0.25642027  1
  O  O136  1  0.08104472  0.47064645  0.26113429  1
  O  O137  1  0.58264864  0.45319258  0.25525745  1
  O  O138  1  0.17092744  0.49055843  0.75280006  1
  O  O139  1  0.65508093  0.49950903  0.76533967  1
  O  O140  1  0.08215856  0.71316091  0.75610262  1
  O  O141  1  0.58425893  0.70104703  0.76509580  1
  O  O142  1  0.26586482  0.85883103  0.75978372  1
  O  O143  1  0.76038331  0.83460873  0.77030917  1
loop_
_geom_bond_atom_site_label_1
_geom_bond_atom_site_label_2
_geom_bond_distance
_geom_bond_site_symmetry_2
Na0 O132 2.319867 1_555
Na0 O103 2.339862 1_455
Na0 O105 2.438017 1_455
Na0 O136 2.486568 1_555
Na0 O60 2.587249 1_555
Na0 O22 2.679476 1_555
Na0 O3 2.784429 1_455
Na1 O96 2.321012 1_555
Na1 O139 2.404660 1_555
Na1 O100 2.461498 1_555
Na1 O24 2.526839 1_555
Na1 O15 2.572168 1_555
Na1 O141 2.605399 1_555
Na2 O80 2.437392 1_545
Na2 O112 2.442541 1_555
Na2 O78 2.460175 1_555
Na2 O50 2.557273 1_555
Na2 O6 2.565560 1_555
Na2 O108 2.619352 1_555
Na2 O70 2.647042 1_555
Na2 O36 2.964111 1_556
Na3 O79 2.450759 1_555
Na3 O109 2.467547 1_555
Na3 O7 2.468531 1_555
Na3 O113 2.486865 1_555
Na3 O81 2.511665 1_545
Na3 O51 2.602944 1_555
Na3 O71 2.712654 1_555
Na4 O114 2.387631 1_555
Na4 O116 2.430687 1_555
Na4 O72 2.478464 1_545
Na4 O58 2.562145 1_545
Na4 O76 2.601232 1_555
Na4 O0 2.743150 1_555
Na4 O42 2.802129 1_555
Na4 O62 2.851053 1_545
Na5 O117 2.423289 1_555
Na5 O59 2.439295 1_545
Na5 O73 2.458323 1_545
Na5 O77 2.473797 1_555
Na5 O115 2.652152 1_555
Na5 O63 2.730464 1_545
Na5 O1 2.733840 1_555
Na5 O43 2.852368 1_555
Na6 O89 2.443837 1_555
Na6 O72 2.455892 1_655
Na6 O85 2.572412 1_565
Na6 O75 2.600347 1_565
Na6 O86 2.699174 1_665
Na6 O76 2.723168 1_665
Na7 O84 2.470408 1_555
Na7 O73 2.621973 1_545
Na7 O87 2.652960 1_555
Na7 O77 2.661132 1_555
Na7 O88 2.669812 1_545
Na7 O74 2.755936 1_555
Na8 O78 2.404282 1_655
Na8 O80 2.525946 1_645
Na8 O83 2.599740 1_545
Na8 O94 2.702225 1_656
Na8 O93 2.710127 1_556
Na8 O91 2.861091 1_546
Na9 O79 2.422170 1_555
Na9 O92 2.501381 1_556
Na9 O82 2.505894 1_545
Na9 O81 2.600808 1_545
Na9 O90 2.646650 1_546
Na9 O95 2.819238 1_556
Na10 O96 2.423366 1_555
Na10 O100 2.431654 1_555
Na10 O98 2.463694 1_555
Na10 O110 2.694111 1_555
Na10 O112 2.789983 1_555
Na10 O108 2.812847 1_555
Na11 O99 2.485367 1_555
Na11 O101 2.502698 1_555
Na11 O111 2.547948 1_555
Na11 O97 2.551058 1_555
Na11 O109 2.586354 1_555
Na11 O113 2.613901 1_555
Na12 O118 2.405138 1_555
Na12 O114 2.494685 1_555
Na12 O116 2.505617 1_555
Na12 O104 2.555771 1_555
Na12 O106 2.606092 1_555
Na12 O102 2.632246 1_555
Na13 O107 2.530641 1_555
Na13 O119 2.586915 1_555
Na13 O117 2.601659 1_555
Na13 O105 2.630631 1_555
Na13 O103 2.687237 1_555
Na13 O115 2.689145 1_555
Na14 O132 2.453395 1_555
Na14 O134 2.609923 1_555
Na14 O136 2.653297 1_555
Na14 O124 2.793874 1_555
Na14 O120 2.866621 1_555
Na14 O122 2.877445 1_555
Na15 O133 2.291011 1_555
Na15 O137 2.633437 1_555
Na15 O125 2.660493 1_555
Na15 O135 2.681933 1_555
Na15 O123 2.803982 1_555
Na15 O121 2.883244 1_555
Na16 O138 2.352158 1_555
Na16 O128 2.566130 1_555
Na16 O142 2.702104 1_555
Na16 O140 2.708246 1_555
Na16 O130 2.801313 1_555
Na16 O126 2.864882 1_555
Na17 O131 2.357705 1_555
Na17 O139 2.579068 1_555
Na17 O129 2.730888 1_555
Na17 O141 2.795747 1_555
Na17 O127 2.850921 1_555
Na17 O143 2.916215 1_555
Al0 O0 1.755832 1_565
Al0 O72 1.801018 1_555
Al0 O76 1.986804 1_565
Al0 O75 2.012668 1_465
Al0 O3 2.110363 1_455
Al0 O5 2.189985 1_465
Al1 O73 1.790227 1_555
Al1 O1 1.792023 1_565
Al1 O2 1.931820 1_555
Al1 O4 1.992653 1_565
Al1 O77 2.095192 1_565
Al1 O74 2.164640 1_565
Al2 O6 1.792523 1_555
Al2 O78 1.808753 1_555
Al2 O11 1.887130 1_455
Al2 O9 1.944058 1_445
Al2 O80 2.212212 1_545
Al2 O83 2.308613 1_445
Al3 O7 1.755509 1_555
Al3 O79 1.820367 1_555
Al3 O10 1.901048 1_555
Al3 O8 1.988713 1_545
Al3 O82 2.153043 1_545
Al3 O81 2.180309 1_545
Al4 O24 1.765986 1_555
Al4 O98 1.780041 1_555
Al4 O28 1.878927 1_555
Al4 O26 1.881350 1_555
Al4 O96 2.384473 1_555
Al4 O100 2.478612 1_555
Al5 O107 1.758021 1_555
Al5 O33 1.898912 1_555
Al5 O35 1.906436 1_555
Al5 O31 2.030034 1_555
Al5 O103 2.080833 1_555
Al5 O105 2.208588 1_555
Al6 O110 1.764106 1_555
Al6 O38 1.899494 1_556
Al6 O40 1.909136 1_556
Al6 O108 1.992483 1_555
Al6 O112 2.006169 1_555
Al6 O36 2.082007 1_556
Al7 O111 1.749201 1_555
Al7 O41 1.894822 1_556
Al7 O39 1.919478 1_556
Al7 O37 1.929656 1_556
Al7 O109 2.156071 1_555
Al7 O113 2.164724 1_555
Al8 O46 1.704316 1_555
Al8 O118 1.756542 1_555
Al8 O44 1.852068 1_555
Al8 O42 2.080940 1_555
Al8 O114 2.398218 1_555
Al8 O116 2.553684 1_555
Al9 O119 1.784332 1_555
Al9 O45 1.886471 1_555
Al9 O47 1.897640 1_555
Al9 O115 2.002947 1_555
Al9 O43 2.008417 1_555
Al9 O117 2.061638 1_555
Al10 O60 1.802285 1_555
Al10 O132 1.819540 1_555
Al10 O62 1.946769 1_555
Al10 O64 2.026846 1_555
Al10 O134 2.076058 1_555
Al10 O136 2.139106 1_555
Al11 O67 1.788557 1_555
Al11 O139 1.789303 1_555
Al11 O141 1.963677 1_555
Al11 O143 2.066785 1_555
Al11 O69 2.115066 1_555
Al11 O71 2.175822 1_555
O0 Si0 1.622507 1_545
O1 Si1 1.646526 1_555
O2 S0 1.473451 1_555
O3 S1 1.492593 1_555
O4 S3 1.479088 1_555
O5 S2 1.475733 1_655
O6 Si2 1.667138 1_555
O7 Si3 1.624547 1_555
O8 S5 1.489150 1_555
O9 S4 1.483936 1_655
O10 S6 1.500428 1_555
O11 S7 1.483814 1_545
O12 S6 1.472074 1_565
O12 Y1 2.257581 1_565
O13 S7 1.487478 1_555
O13 Y0 2.289322 1_565
O14 Si2 1.625897 1_555
O14 Y0 2.021335 1_455
O15 Si3 1.632395 1_555
O15 Y1 2.104601 1_555
O16 S4 1.474961 1_555
O16 Y0 2.214523 1_465
O17 S5 1.470868 1_555
O17 Y1 2.325427 1_565
O18 S0 1.492832 1_555
O18 Y3 2.287353 1_555
O19 S1 1.484494 1_555
O19 Y2 2.223361 1_665
O20 S2 1.485528 1_555
O20 Y2 2.218562 1_555
O21 S3 1.479882 1_555
O21 Y3 2.198420 1_545
O22 Si0 1.653285 1_555
O22 Y2 2.082346 1_565
O23 Si1 1.630910 1_565
O23 Y3 2.020058 1_555
O24 Si4 1.657526 1_555
O25 S8 1.470854 1_555
O25 Y4 2.294320 1_555
O26 S9 1.474079 1_555
O27 S10 1.477432 1_555
O27 Y4 2.203267 1_555
O28 S11 1.485223 1_555
O29 S12 1.480152 1_555
O29 Y4 2.232836 1_555
O30 S13 1.471407 1_555
O30 Y5 2.294598 1_555
O31 S14 1.490528 1_555
O32 S15 1.477112 1_555
O32 Y5 2.236705 1_555
O33 S16 1.491950 1_555
O34 S17 1.474140 1_555
O34 Y5 2.241422 1_555
O35 S18 1.481160 1_555
O36 S17 1.479340 1_555
O37 S18 1.502716 1_555
O38 S13 1.478407 1_555
O39 S14 1.481723 1_555
O40 S15 1.484921 1_555
O41 S16 1.487500 1_555
O42 S9 1.498506 1_555
O43 S10 1.490139 1_555
O44 S11 1.488632 1_555
O45 S12 1.486466 1_555
O46 Si4 1.621343 1_555
O47 S8 1.478577 1_555
O48 S19 1.487440 1_555
O48 Y6 2.307437 1_556
O49 S20 1.495807 1_555
O49 Y7 2.227494 1_556
O50 Si5 1.656835 1_555
O50 Y6 2.084321 1_556
O51 Si6 1.653379 1_555
O51 Y7 2.077884 1_556
O52 S21 1.484537 1_555
O52 Y6 2.234862 1_556
O53 S22 1.482469 1_555
O53 Y7 2.228191 1_556
O54 S23 1.489720 1_555
O54 Y8 2.238178 1_555
O55 S24 1.466079 1_555
O55 Y9 2.555780 1_555
O56 S25 1.481817 1_555
O56 Y8 2.238879 1_555
O57 S26 1.470209 1_555
O57 Y9 2.255983 1_555
O58 Si7 1.642632 1_555
O58 Y8 2.088683 1_555
O59 Si8 1.646628 1_555
O59 Y9 2.109223 1_555
O60 Si7 1.646763 1_555
O61 Si8 1.625652 1_555
O61 Y10 2.072346 1_555
O62 S23 1.500648 1_555
O63 S24 1.488422 1_555
O63 Y10 2.279099 1_555
O64 S25 1.487579 1_555
O65 S26 1.469721 1_555
O65 Y10 2.380321 1_555
O66 Si5 1.614918 1_555
O66 Y11 2.088520 1_555
O67 Si6 1.640017 1_555
O68 S21 1.462448 1_555
O68 Y11 2.394790 1_555
O69 S22 1.479877 1_555
O70 S19 1.482686 1_555
O70 Y11 2.305464 1_555
O71 S20 1.486308 1_555
O72 Si7 1.662780 1_555
O73 Si8 1.649270 1_555
O74 S23 1.470099 1_545
O75 S24 1.489542 1_545
O76 S25 1.506053 1_555
O77 S26 1.495668 1_555
O78 Si5 1.655103 1_555
O79 Si6 1.660026 1_555
O80 S21 1.491044 1_555
O81 S22 1.490425 1_555
O82 S19 1.473314 1_555
O83 S20 1.466544 1_555
O84 Si4 1.635187 1_555
O84 Y1 2.101178 1_555
O85 S8 1.490690 1_555
O85 Y0 2.301934 1_555
O86 S9 1.487940 1_555
O86 Y0 2.331886 1_455
O87 S10 1.480989 1_555
O87 Y1 2.333681 1_555
O88 S11 1.469073 1_555
O88 Y1 2.413353 1_565
O89 S12 1.488007 1_555
O89 Y0 2.376000 1_565
O90 S13 1.489672 1_555
O90 Y3 2.299474 1_555
O91 S14 1.486731 1_555
O91 Y2 2.300813 1_665
O92 S15 1.485241 1_555
O92 Y3 2.411856 1_545
O93 S16 1.484479 1_555
O93 Y2 2.427548 1_655
O94 S17 1.494662 1_555
O94 Y2 2.307148 1_555
O95 S18 1.479030 1_555
O95 Y3 2.366302 1_545
O96 S6 1.485893 1_555
O97 S7 1.490082 1_545
O97 Y4 2.310303 1_555
O98 Si2 1.654499 1_555
O99 Si3 1.626190 1_555
O99 Y4 2.078368 1_555
O100 S5 1.486609 1_555
O101 S4 1.485113 1_655
O101 Y4 2.295983 1_555
O102 S0 1.489262 1_555
O102 Y5 2.268480 1_555
O103 S1 1.518388 1_555
O104 S3 1.487950 1_555
O104 Y5 2.267106 1_555
O105 S2 1.510812 1_655
O106 Si0 1.617951 1_545
O106 Y5 2.076588 1_555
O107 Si1 1.659520 1_555
O108 S19 1.498535 1_555
O109 S20 1.523284 1_555
O110 Si6 1.633122 1_555
O111 Si5 1.625790 1_655
O112 S21 1.510056 1_545
O113 S22 1.512589 1_545
O114 S23 1.495783 1_545
O115 S24 1.504822 1_545
O116 S25 1.481210 1_555
O117 S26 1.513638 1_555
O118 Si8 1.637614 1_555
O119 Si7 1.636642 1_655
O120 S17 1.488716 1_555
O120 Y6 2.251402 1_555
O121 S18 1.484694 1_555
O121 Y7 2.312943 1_555
O122 S14 1.490200 1_455
O122 Y6 2.312647 1_555
O123 S13 1.483284 1_555
O123 Y7 2.251021 1_555
O124 S15 1.484608 1_565
O124 Y6 2.331589 1_555
O125 S16 1.481312 1_565
O125 Y7 2.428712 1_555
O126 S9 1.489543 1_565
O126 Y8 2.277286 1_555
O127 S10 1.476176 1_565
O127 Y9 2.254617 1_555
O128 S11 1.487372 1_555
O128 Y8 2.361841 1_555
O129 S12 1.469902 1_555
O129 Y9 2.359298 1_555
O130 S8 1.482438 1_455
O130 Y8 2.259169 1_555
O131 Si4 1.649747 1_555
O131 Y9 2.113503 1_555
O132 Si0 1.654009 1_555
O133 Si1 1.632382 1_565
O133 Y10 2.118468 1_555
O134 S0 1.480424 1_555
O135 S1 1.450553 1_555
O135 Y10 2.372334 1_555
O136 S2 1.497321 1_555
O137 S3 1.473339 1_555
O137 Y10 2.262971 1_555
O138 Si2 1.632581 1_555
O138 Y11 2.100698 1_555
O139 Si3 1.654567 1_555
O140 S4 1.475540 1_555
O140 Y11 2.251225 1_555
O141 S5 1.514167 1_555
O142 S6 1.466122 1_565
O142 Y11 2.285116 1_555
O143 S7 1.474716 1_555
