# generated using pymatgen
data_MgV8(PO4)12
_symmetry_space_group_name_H-M   'P 1'
_cell_length_a   8.56471178
_cell_length_b   8.54118885
_cell_length_c   11.96887682
_cell_angle_alpha   89.28397271
_cell_angle_beta   89.41462649
_cell_angle_gamma   89.58839352
_symmetry_Int_Tables_number   1
_chemical_formula_structural   MgV8(PO4)12
_chemical_formula_sum   'Mg1 V8 P12 O48'
_cell_volume   875.42123955
_cell_formula_units_Z   1
loop_
 _symmetry_equiv_pos_site_id
 _symmetry_equiv_pos_as_xyz
  1  'x, y, z'
loop_
 _atom_site_type_symbol
 _atom_site_label
 _atom_site_symmetry_multiplicity
 _atom_site_fract_x
 _atom_site_fract_y
 _atom_site_fract_z
 _atom_site_occupancy
  Mg  Mg0  1  0.43421600  0.04004000  0.17997500  1
  V  V0  1  0.24075300  0.97030700  0.39287600  1
  V  V1  1  0.25152800  0.46701700  0.11637800  1
  V  V2  1  0.24728700  0.02862500  0.87582300  1
  V  V3  1  0.25071600  0.53053600  0.62032300  1
  V  V4  1  0.74878300  0.47744400  0.38451500  1
  V  V5  1  0.76398800  0.96945700  0.11200000  1
  V  V6  1  0.74645000  0.53370400  0.88509400  1
  V  V7  1  0.75147500  0.02840900  0.61924400  1
  P  P0  1  0.02739200  0.25445800  0.50777500  1
  P  P1  1  0.10303000  0.12071600  0.14158700  1
  P  P2  1  0.10624000  0.38352900  0.85659400  1
  P  P3  1  0.39321200  0.61875000  0.35485100  1
  P  P4  1  0.39557300  0.88197100  0.64267600  1
  P  P5  1  0.46535200  0.75482800  0.99772300  1
  P  P6  1  0.52940000  0.24195400  0.99738100  1
  P  P7  1  0.61374300  0.12003300  0.36002500  1
  P  P8  1  0.60405100  0.38494400  0.64512100  1
  P  P9  1  0.89360100  0.61204800  0.14390500  1
  P  P10  1  0.97163500  0.75030100  0.49703100  1
  P  P11  1  0.89874900  0.87889000  0.85040000  1
  O  O0  1  0.07183500  0.61135200  0.13296800  1
  O  O1  1  0.06776700  0.82608300  0.40152000  1
  O  O2  1  0.07350800  0.64070900  0.57007300  1
  O  O3  1  0.07023600  0.91181300  0.82287200  1
  O  O4  1  0.11051200  0.13683400  0.42748200  1
  O  O5  1  0.12608400  0.29900800  0.16351500  1
  O  O6  1  0.15214600  0.07757800  0.02421400  1
  O  O7  1  0.15592900  0.21619000  0.82183000  1
  O  O8  1  0.15900400  0.49498600  0.75770400  1
  O  O9  1  0.16006300  0.34683900  0.56148400  1
  O  O10  1  0.21135800  0.02633000  0.22340000  1
  O  O11  1  0.19545800  0.43360400  0.95970900  1
  O  O12  1  0.31128600  0.51419600  0.27171600  1
  O  O13  1  0.29421400  0.92886000  0.54145000  1
  O  O14  1  0.32653300  0.83962000  0.94242400  1
  O  O15  1  0.34529300  0.57464200  0.47461000  1
  O  O16  1  0.35566000  0.99100900  0.73864800  1
  O  O17  1  0.92865300  0.39074800  0.86945500  1
  O  O18  1  0.34831300  0.71006300  0.67359500  1
  O  O19  1  0.39667100  0.61658600  0.06879000  1
  O  O20  1  0.42569100  0.28207600  0.10230000  1
  O  O21  1  0.43292100  0.10825500  0.36850200  1
  O  O22  1  0.42431000  0.41152800  0.65678200  1
  O  O23  1  0.44067600  0.13744300  0.91826100  1
  O  O24  1  0.53982600  0.87098700  0.08194800  1
  O  O25  1  0.57431600  0.59524800  0.34207800  1
  O  O26  1  0.57012400  0.88651100  0.61462000  1
  O  O27  1  0.58218800  0.69740500  0.91015400  1
  O  O28  1  0.59532100  0.38403900  0.93530900  1
  O  O29  1  0.65462300  0.29290500  0.33229700  1
  O  O30  1  0.62566600  0.20709600  0.65872300  1
  O  O31  1  0.64680300  0.02094500  0.25352900  1
  O  O32  1  0.65468000  0.44005900  0.52710800  1
  O  O33  1  0.66945800  0.14860100  0.04864700  1
  O  O34  1  0.70733400  0.06202600  0.45889500  1
  O  O35  1  0.68717500  0.48203500  0.73237300  1
  O  O36  1  0.80943700  0.55598700  0.04088000  1
  O  O37  1  0.79336700  0.97488900  0.76881900  1
  O  O38  1  0.84221000  0.65615700  0.43910100  1
  O  O39  1  0.84195100  0.50640700  0.24471700  1
  O  O40  1  0.83665900  0.78132400  0.17236200  1
  O  O41  1  0.85581400  0.92295900  0.97010700  1
  O  O42  1  0.87348900  0.70046900  0.83482700  1
  O  O43  1  0.89417600  0.86515600  0.57584400  1
  O  O44  1  0.93220000  0.08656600  0.17051600  1
  O  O45  1  0.92728200  0.36076900  0.43119800  1
  O  O46  1  0.92896100  0.17662300  0.59918500  1
  O  O47  1  0.36533000  0.79738500  0.33215400  1
loop_
_geom_bond_atom_site_label_1
_geom_bond_atom_site_label_2
_geom_bond_distance
_geom_bond_site_symmetry_2
Mg0 O10 1.976983 1_555
Mg0 O31 2.035103 1_555
Mg0 O24 2.069179 1_545
Mg0 O20 2.257089 1_555
Mg0 O21 2.337400 1_555
O0 P9 1.530767 1_455
O0 V1 1.974942 1_555
O1 P10 1.540648 1_455
O1 V0 1.934713 1_555
O2 P10 1.544390 1_455
O2 V3 1.880088 1_555
O3 P11 1.529231 1_455
O3 V2 1.937449 1_565
O4 P0 1.561905 1_555
O4 V0 1.849697 1_545
O5 P1 1.562765 1_555
O5 V1 1.876529 1_555
O6 P1 1.511581 1_555
O6 V2 1.994327 1_554
O7 P2 1.549054 1_555
O7 V2 1.887537 1_555
O8 P2 1.574320 1_555
O8 V3 1.837785 1_555
O9 P0 1.538657 1_555
O9 V3 1.901787 1_555
O10 P1 1.567691 1_555
O10 V0 2.095555 1_545
O11 P2 1.525501 1_555
O11 V1 1.965197 1_556
O12 P3 1.524922 1_555
O12 V1 1.980446 1_555
O13 P4 1.544751 1_555
O13 V0 1.869698 1_555
O14 P5 1.538794 1_555
O14 V2 1.914496 1_565
O15 P3 1.530246 1_555
O15 V3 1.949042 1_555
O16 P4 1.522433 1_555
O16 V2 1.907385 1_565
O17 P2 1.528067 1_655
O17 V6 1.983303 1_555
O18 P4 1.564795 1_555
O18 V3 1.873561 1_555
O19 P5 1.561522 1_554
O19 V1 1.868661 1_555
O20 P6 1.570647 1_554
O20 V1 2.171699 1_555
O21 P7 1.554871 1_555
O21 V0 2.047360 1_545
O22 P8 1.559570 1_555
O22 V3 1.847867 1_555
O23 P6 1.522040 1_555
O23 V2 1.978978 1_555
O24 P5 1.566727 1_554
O24 V5 2.137186 1_555
O25 P3 1.568769 1_555
O25 V4 1.866639 1_555
O26 P4 1.529535 1_555
O26 V7 1.978616 1_565
O27 P5 1.524720 1_555
O27 V6 1.999443 1_555
O28 P6 1.523883 1_555
O28 V6 1.912956 1_555
O29 P7 1.551026 1_555
O29 V4 1.891696 1_555
O30 P8 1.535784 1_555
O30 V7 1.922914 1_555
O31 P7 1.561183 1_555
O31 V5 2.011890 1_545
O32 P8 1.542251 1_555
O32 V4 1.904274 1_555
O33 P6 1.562135 1_554
O33 V5 1.880802 1_545
O34 P7 1.512405 1_555
O34 V7 1.976912 1_555
O35 P8 1.526578 1_555
O35 V6 1.958583 1_555
O36 P9 1.518975 1_555
O36 V6 1.958268 1_554
O37 P11 1.558115 1_555
O37 V7 1.879624 1_565
O38 P10 1.548714 1_555
O38 V4 1.857483 1_555
O39 P9 1.559920 1_555
O39 V4 1.860866 1_555
O40 P9 1.563018 1_555
O40 V5 1.859358 1_555
O41 P11 1.526572 1_555
O41 V5 1.909333 1_556
O42 P11 1.554529 1_555
O42 V6 1.887362 1_555
O43 P10 1.514360 1_555
O43 V7 1.920549 1_565
O44 P1 1.529350 1_655
O44 V5 1.904056 1_545
O45 P0 1.543949 1_655
O45 V4 1.903719 1_555
O46 P0 1.523383 1_655
O46 V7 1.995884 1_555
O47 P3 1.563485 1_555
O47 V0 1.958665 1_555
