# generated using pymatgen
data_Sr6Cu3N5
_symmetry_space_group_name_H-M   'P 1'
_cell_length_a   8.64558738
_cell_length_b   8.64558738
_cell_length_c   7.33400003
_cell_angle_alpha   90.00000000
_cell_angle_beta   90.00000000
_cell_angle_gamma   90.00000000
_symmetry_Int_Tables_number   1
_chemical_formula_structural   Sr6Cu3N5
_chemical_formula_sum   'Sr12 Cu6 N10'
_cell_volume   548.18849476
_cell_formula_units_Z   2
loop_
 _symmetry_equiv_pos_site_id
 _symmetry_equiv_pos_as_xyz
  1  'x, y, z'
loop_
 _atom_site_type_symbol
 _atom_site_label
 _atom_site_symmetry_multiplicity
 _atom_site_fract_x
 _atom_site_fract_y
 _atom_site_fract_z
 _atom_site_occupancy
  Sr  Sr0  1  0.00000000  -0.00000000  0.50335244  1
  Sr  Sr1  1  0.00000000  -0.00000000  0.00335244  1
  Sr  Sr2  1  0.00000000  0.50000000  0.02357540  1
  Sr  Sr3  1  0.50000000  -0.00000000  0.52357540  1
  Sr  Sr4  1  0.26652117  0.30372291  0.71083821  1
  Sr  Sr5  1  0.73347883  0.69627709  0.71083821  1
  Sr  Sr6  1  0.69627709  0.26652117  0.21083821  1
  Sr  Sr7  1  0.30372291  0.73347883  0.21083821  1
  Sr  Sr8  1  0.69627709  0.73347883  0.21083821  1
  Sr  Sr9  1  0.73347883  0.30372291  0.71083821  1
  Sr  Sr10  1  0.26652117  0.69627709  0.71083821  1
  Sr  Sr11  1  0.30372291  0.26652117  0.21083821  1
  Cu  Cu0  1  0.50000000  0.50000000  0.97234898  1
  Cu  Cu1  1  0.50000000  0.50000000  0.47234898  1
  Cu  Cu2  1  0.00000000  0.35973661  0.43315191  1
  Cu  Cu3  1  0.35973661  -0.00000000  0.93315191  1
  Cu  Cu4  1  0.64026339  -0.00000000  0.93315191  1
  Cu  Cu5  1  0.00000000  0.64026339  0.43315191  1
  N  N0  1  0.00000000  0.50000000  0.63070840  1
  N  N1  1  0.50000000  -0.00000000  0.13070840  1
  N  N2  1  0.00000000  0.77962516  0.24128429  1
  N  N3  1  0.77962516  -0.00000000  0.74128429  1
  N  N4  1  0.22037484  -0.00000000  0.74128429  1
  N  N5  1  0.00000000  0.22037484  0.24128429  1
  N  N6  1  0.50000000  0.71225204  0.48404478  1
  N  N7  1  0.71225204  0.50000000  0.98404478  1
  N  N8  1  0.28774796  0.50000000  0.98404478  1
  N  N9  1  0.50000000  0.28774796  0.48404478  1
loop_
_geom_bond_atom_site_label_1
_geom_bond_atom_site_label_2
_geom_bond_distance
_geom_bond_site_symmetry_2
Cu0 N7 1.837047 1_555
Cu0 N8 1.837047 1_555
Cu1 N6 1.837047 1_555
Cu1 N9 1.837047 1_555
Cu2 N5 1.852509 1_555
Cu2 N0 1.889390 1_555
Cu3 N4 1.852509 1_555
Cu3 N1 1.889390 1_556
Cu4 N3 1.852509 1_555
Cu4 N1 1.889390 1_556
Cu5 N2 1.852509 1_555
Cu5 N0 1.889390 1_555
N0 Sr2 2.881287 1_556
N0 Sr4 2.921373 1_555
N0 Sr10 2.921373 1_555
N0 Sr5 2.921373 1_455
N0 Sr9 2.921373 1_455
N1 Sr3 2.881287 1_555
N1 Sr6 2.921373 1_555
N1 Sr8 2.921373 1_545
N1 Sr7 2.921373 1_545
N1 Sr11 2.921373 1_555
N2 Sr1 2.583612 1_565
N2 Sr8 2.665368 1_455
N2 Sr7 2.665368 1_555
N2 Sr0 2.706320 1_565
N2 Sr2 2.897205 1_555
N3 Sr0 2.583612 1_655
N3 Sr5 2.665368 1_545
N3 Sr9 2.665368 1_555
N3 Sr1 2.706320 1_656
N3 Sr3 2.897205 1_555
N4 Sr0 2.583612 1_555
N4 Sr10 2.665368 1_545
N4 Sr4 2.665368 1_555
N4 Sr1 2.706320 1_556
N4 Sr3 2.897205 1_555
N5 Sr1 2.583612 1_555
N5 Sr6 2.665368 1_455
N5 Sr11 2.665368 1_555
N5 Sr0 2.706320 1_555
N5 Sr2 2.897205 1_555
N6 Sr3 2.504586 1_565
N6 Sr10 2.619207 1_555
N6 Sr5 2.619207 1_555
N6 Sr7 2.632120 1_555
N6 Sr8 2.632120 1_555
N7 Sr2 2.504586 1_656
N7 Sr6 2.619207 1_556
N7 Sr8 2.619207 1_556
N7 Sr5 2.632120 1_555
N7 Sr9 2.632120 1_555
N8 Sr2 2.504586 1_556
N8 Sr7 2.619207 1_556
N8 Sr11 2.619207 1_556
N8 Sr10 2.632120 1_555
N8 Sr4 2.632120 1_555
N9 Sr3 2.504586 1_555
N9 Sr9 2.619207 1_555
N9 Sr4 2.619207 1_555
N9 Sr11 2.632120 1_555
N9 Sr6 2.632120 1_555
