# generated using pymatgen
data_Na7Mg3Nb(PO4)6
_symmetry_space_group_name_H-M   'P 1'
_cell_length_a   9.01353067
_cell_length_b   8.99146479
_cell_length_c   22.17891855
_cell_angle_alpha   90.05164410
_cell_angle_beta   90.07341179
_cell_angle_gamma   119.97707499
_symmetry_Int_Tables_number   1
_chemical_formula_structural   Na7Mg3Nb(PO4)6
_chemical_formula_sum   'Na21 Mg9 Nb3 P18 O72'
_cell_volume   1557.02512758
_cell_formula_units_Z   3
loop_
 _symmetry_equiv_pos_site_id
 _symmetry_equiv_pos_as_xyz
  1  'x, y, z'
loop_
 _atom_site_type_symbol
 _atom_site_label
 _atom_site_symmetry_multiplicity
 _atom_site_fract_x
 _atom_site_fract_y
 _atom_site_fract_z
 _atom_site_occupancy
  Na  Na0  1  0.63497939  0.99977089  0.24912330  1
  Na  Na1  1  0.36463130  0.36496001  0.24907040  1
  Na  Na2  1  0.00022620  0.63536836  0.24919699  1
  Na  Na3  1  0.64724378  0.63567042  0.74834007  1
  Na  Na4  1  0.99120723  0.35483072  0.74837234  1
  Na  Na5  1  0.29687712  0.33390536  0.58586932  1
  Na  Na6  1  0.03703947  0.70369453  0.58608629  1
  Na  Na7  1  0.66596047  0.96384251  0.58605567  1
  Na  Na8  1  0.29632125  0.96309879  0.08671902  1
  Na  Na9  1  0.66593143  0.70326481  0.08675414  1
  Na  Na10  1  0.03800168  0.33321435  0.08725924  1
  Na  Na11  1  0.32296688  0.29658748  0.91318635  1
  Na  Na12  1  0.97808086  0.29974494  0.40839272  1
  Na  Na13  1  0.32129904  0.02148436  0.40843862  1
  Na  Na14  1  0.70068854  0.67837866  0.40835402  1
  Na  Na15  1  0.00008752  0.99990706  0.49900010  1
  Na  Na16  1  0.99048828  0.99113675  0.99707082  1
  Na  Na17  1  0.66547845  0.32408247  0.82829129  1
  Na  Na18  1  0.66687184  0.33347215  0.32318328  1
  Na  Na19  1  0.33341238  0.66644428  0.16983209  1
  Na  Na20  1  0.33425300  0.67589255  0.66404827  1
  Mg  Mg0  1  0.00039381  0.99997974  0.34554200  1
  Mg  Mg1  1  0.99519556  0.99465488  0.85104972  1
  Mg  Mg2  1  0.00130651  0.99935957  0.65257200  1
  Mg  Mg3  1  0.00015253  0.99984874  0.15235491  1
  Mg  Mg4  1  0.66098274  0.32722783  0.68630084  1
  Mg  Mg5  1  0.66645477  0.33341899  0.18503508  1
  Mg  Mg6  1  0.33423108  0.66788032  0.01710830  1
  Mg  Mg7  1  0.33328064  0.66693275  0.51596278  1
  Mg  Mg8  1  0.33326077  0.66661270  0.31458486  1
  Nb  Nb0  1  0.67181364  0.33458498  0.97934896  1
  Nb  Nb1  1  0.66594785  0.33277969  0.48151642  1
  Nb  Nb2  1  0.33357941  0.67364148  0.81436208  1
  P  P0  1  0.29566810  0.99944441  0.24999122  1
  P  P1  1  0.70383825  0.70442131  0.24995515  1
  P  P2  1  0.00045816  0.29612532  0.25001647  1
  P  P3  1  0.29474485  0.29139166  0.75138565  1
  P  P4  1  0.99861667  0.70825786  0.74936912  1
  P  P5  1  0.71023929  0.00303234  0.74980941  1
  P  P6  1  0.96244151  0.33516530  0.58592374  1
  P  P7  1  0.37349406  0.03813750  0.58532438  1
  P  P8  1  0.66507462  0.62776576  0.58590703  1
  P  P9  1  0.96179915  0.62659941  0.08523693  1
  P  P10  1  0.66483113  0.03861394  0.08512281  1
  P  P11  1  0.37425545  0.33479277  0.08412807  1
  P  P12  1  0.62986422  0.67252685  0.91905053  1
  P  P13  1  0.04196845  0.37288415  0.91852630  1
  P  P14  1  0.32942209  0.95895698  0.92012900  1
  P  P15  1  0.62704691  0.95756651  0.41791299  1
  P  P16  1  0.33082403  0.37308779  0.41791166  1
  P  P17  1  0.04182880  0.66899994  0.41794688  1
  O  O0  1  0.21489761  0.02902206  0.30729489  1
  O  O1  1  0.81407929  0.78532315  0.30736310  1
  O  O2  1  0.97124933  0.18585064  0.30734003  1
  O  O3  1  0.21068054  0.18968259  0.80798932  1
  O  O4  1  0.97062054  0.79378406  0.80314089  1
  O  O5  1  0.82334203  0.02826347  0.80371303  1
  O  O6  1  0.77314535  0.95649898  0.69144754  1
  O  O7  1  0.18300861  0.22288598  0.69387633  1
  O  O8  1  0.03459790  0.80971061  0.69012486  1
  O  O9  1  0.78637994  0.81634720  0.19338276  1
  O  O10  1  0.02960268  0.21341049  0.19333308  1
  O  O11  1  0.18376719  0.97005930  0.19332187  1
  O  O12  1  0.87711391  0.36339483  0.64016725  1
  O  O13  1  0.49235219  0.12772105  0.63727283  1
  O  O14  1  0.63805106  0.51446927  0.64018257  1
  O  O15  1  0.87785314  0.51361111  0.13993593  1
  O  O16  1  0.63634773  0.12253347  0.14004724  1
  O  O17  1  0.48761837  0.36339266  0.13887001  1
  O  O18  1  0.47118513  0.31121972  0.02638860  1
  O  O19  1  0.83735724  0.52559461  0.02842584  1
  O  O20  1  0.68828151  0.16342548  0.02857969  1
  O  O21  1  0.46788760  0.15633916  0.52656488  1
  O  O22  1  0.68749431  0.52973848  0.52829460  1
  O  O23  1  0.84158489  0.31160008  0.52832109  1
  O  O24  1  0.54170764  0.68681521  0.97518116  1
  O  O25  1  0.15042957  0.45756398  0.97409070  1
  O  O26  1  0.31055800  0.85554585  0.97614786  1
  O  O27  1  0.54677057  0.85255514  0.47510282  1
  O  O28  1  0.30619980  0.45340140  0.47520829  1
  O  O29  1  0.14709315  0.69391158  0.47516707  1
  O  O30  1  0.11338345  0.62717827  0.36223646  1
  O  O31  1  0.51366123  0.88585922  0.36216070  1
  O  O32  1  0.37215002  0.48642285  0.36223360  1
  O  O33  1  0.13111479  0.49203717  0.86138420  1
  O  O34  1  0.35751364  0.86456641  0.86392450  1
  O  O35  1  0.50598468  0.63710749  0.86212661  1
  O  O36  1  0.01221630  0.82339048  0.41242217  1
  O  O37  1  0.81068384  0.98747508  0.41247100  1
  O  O38  1  0.17696893  0.18903362  0.41237489  1
  O  O39  1  0.02394909  0.19701888  0.90945004  1
  O  O40  1  0.18115022  0.99109274  0.91046172  1
  O  O41  1  0.80661142  0.82293665  0.90997978  1
  O  O42  1  0.97250257  0.16860164  0.58577205  1
  O  O43  1  0.19753334  0.02890496  0.58547530  1
  O  O44  1  0.83118000  0.80407644  0.58528518  1
  O  O45  1  0.97082214  0.80217586  0.08490045  1
  O  O46  1  0.83060328  0.02879124  0.08472269  1
  O  O47  1  0.19788466  0.16887168  0.08438079  1
  O  O48  1  0.68758857  0.16047443  0.74390509  1
  O  O49  1  0.48049824  0.32990768  0.74553960  1
  O  O50  1  0.84473526  0.52202309  0.74479676  1
  O  O51  1  0.68484542  0.52267438  0.24500272  1
  O  O52  1  0.83813003  0.31519678  0.24509184  1
  O  O53  1  0.47688288  0.16212136  0.24511045  1
  O  O54  1  0.63370299  0.49542524  0.92187224  1
  O  O55  1  0.86039341  0.35991526  0.92243011  1
  O  O56  1  0.49978753  0.14249638  0.92203478  1
  O  O57  1  0.64801627  0.14685253  0.42547317  1
  O  O58  1  0.49927329  0.35292284  0.42547043  1
  O  O59  1  0.85319063  0.50084461  0.42568187  1
  O  O60  1  0.35535689  0.49499528  0.07635154  1
  O  O61  1  0.13907596  0.64402107  0.07636160  1
  O  O62  1  0.50511574  0.86059761  0.07644217  1
  O  O63  1  0.35394003  0.85881862  0.57689603  1
  O  O64  1  0.50473042  0.64535990  0.57728738  1
  O  O65  1  0.14045462  0.49532949  0.57718301  1
  O  O66  1  0.31437983  0.83677071  0.25553175  1
  O  O67  1  0.52278248  0.68556841  0.25550499  1
  O  O68  1  0.16287418  0.47745046  0.25557478  1
  O  O69  1  0.31236156  0.48207295  0.75876003  1
  O  O70  1  0.16409057  0.68359302  0.75859865  1
  O  O71  1  0.52359568  0.83327871  0.75969707  1
loop_
_geom_bond_atom_site_label_1
_geom_bond_atom_site_label_2
_geom_bond_distance
_geom_bond_site_symmetry_2
Na0 O67 2.483987 1_555
Na0 O52 2.493158 1_565
Na0 O53 2.499628 1_565
Na0 O66 2.507572 1_555
Na0 O16 2.657503 1_565
Na0 O31 2.724430 1_555
Na0 O9 2.891433 1_555
Na0 O2 2.927751 1_565
Na1 O68 2.487863 1_555
Na1 O53 2.490320 1_555
Na1 O67 2.500968 1_555
Na1 O51 2.502074 1_555
Na1 O17 2.687995 1_555
Na1 O32 2.723469 1_555
Na1 O10 2.894729 1_555
Na1 O0 2.924147 1_555
Na2 O66 2.488276 1_555
Na2 O52 2.495301 1_455
Na2 O51 2.497399 1_455
Na2 O68 2.503086 1_555
Na2 O15 2.658791 1_455
Na2 O30 2.720307 1_555
Na2 O11 2.892363 1_555
Na2 O1 2.925826 1_455
Na3 O49 2.385675 1_555
Na3 O50 2.457043 1_555
Na3 O71 2.537977 1_555
Na3 O14 2.617888 1_555
Na3 O69 2.628396 1_555
Na3 O4 2.800197 1_555
Na3 O6 2.817882 1_555
Na3 O35 2.831043 1_555
Na4 O48 2.402701 1_555
Na4 O50 2.447958 1_555
Na4 O69 2.535701 1_655
Na4 O70 2.571509 1_655
Na4 O12 2.626030 1_555
Na4 O33 2.797562 1_655
Na4 O7 2.812382 1_655
Na4 O5 2.826540 1_555
Na5 O43 2.422526 1_555
Na5 O64 2.479425 1_555
Na5 O65 2.485249 1_555
Na5 O42 2.532760 1_455
Na5 O7 2.602877 1_555
Na5 O28 2.664647 1_555
Na6 O44 2.435460 1_455
Na6 O65 2.482510 1_555
Na6 O63 2.483277 1_555
Na6 O8 2.500133 1_555
Na6 O43 2.533047 1_565
Na6 O29 2.671468 1_555
Na7 O42 2.437329 1_565
Na7 O63 2.487340 1_555
Na7 O64 2.487910 1_555
Na7 O44 2.533673 1_555
Na7 O6 2.541609 1_555
Na7 O27 2.669377 1_555
Na7 O13 2.866353 1_565
Na7 O23 2.998129 1_565
Na8 O47 2.419440 1_565
Na8 O62 2.485399 1_555
Na8 O61 2.495421 1_555
Na8 O45 2.541726 1_455
Na8 O11 2.586998 1_555
Na8 O26 2.661996 1_554
Na9 O45 2.429589 1_555
Na9 O60 2.481026 1_555
Na9 O62 2.490687 1_555
Na9 O46 2.535981 1_565
Na9 O9 2.586748 1_555
Na9 O24 2.688089 1_554
Na9 O17 2.891535 1_555
Na9 O19 3.013502 1_555
Na10 O46 2.424085 1_455
Na10 O61 2.481087 1_555
Na10 O60 2.490225 1_555
Na10 O47 2.528341 1_555
Na10 O10 2.573789 1_555
Na10 O25 2.730612 1_554
Na10 O15 2.901781 1_455
Na10 O20 3.022878 1_455
Na11 O39 2.379189 1_555
Na11 O40 2.381913 1_545
Na11 O54 2.464176 1_555
Na11 O3 2.531728 1_555
Na11 O56 2.589327 1_555
Na11 O18 2.814413 1_556
Na11 O35 2.888239 1_555
Na11 O25 2.930781 1_555
Na12 O37 2.436307 1_545
Na12 O38 2.448572 1_655
Na12 O2 2.451157 1_555
Na12 O59 2.591848 1_555
Na12 O57 2.607887 1_555
Na12 O30 2.761095 1_655
Na12 O23 2.956167 1_555
Na12 O28 2.958635 1_655
Na13 O38 2.434782 1_555
Na13 O36 2.446200 1_545
Na13 O0 2.452815 1_555
Na13 O57 2.600923 1_555
Na13 O58 2.610799 1_555
Na13 O31 2.768049 1_545
Na13 O21 2.909362 1_555
Na13 O29 2.953503 1_545
Na14 O36 2.435845 1_655
Na14 O37 2.441554 1_555
Na14 O1 2.452324 1_555
Na14 O58 2.588090 1_555
Na14 O59 2.603418 1_555
Na14 O32 2.770567 1_555
Na14 O22 2.953837 1_555
Na14 O27 2.956574 1_555
Na15 O36 2.527171 1_555
Na15 O37 2.531908 1_455
Na15 O44 2.532832 1_455
Na15 O38 2.535607 1_565
Na15 O42 2.537540 1_465
Na15 O43 2.537784 1_565
Na16 O41 2.499376 1_555
Na16 O45 2.533496 1_556
Na16 O46 2.542496 1_566
Na16 O40 2.579215 1_655
Na16 O39 2.597006 1_665
Na16 O47 2.607307 1_666
Na17 O48 2.448593 1_555
Na17 O49 2.496157 1_555
Na17 O50 2.519403 1_555
Na17 O56 2.606981 1_555
Na17 O55 2.640730 1_555
Na17 O54 2.683291 1_555
Na18 O53 2.378163 1_555
Na18 O51 2.378568 1_555
Na18 O52 2.381053 1_555
Na18 O59 2.776963 1_555
Na18 O57 2.777460 1_555
Na18 O58 2.780535 1_555
Na19 O66 2.499153 1_555
Na19 O67 2.500270 1_555
Na19 O68 2.503986 1_555
Na19 O60 2.648423 1_555
Na19 O61 2.653980 1_555
Na19 O62 2.654777 1_555
Na20 O63 2.487566 1_555
Na20 O65 2.559412 1_555
Na20 O64 2.562711 1_555
Na20 O70 2.620848 1_555
Na20 O71 2.643365 1_555
Na20 O69 2.674431 1_555
Mg0 O1 2.004199 1_455
Mg0 O2 2.005163 1_465
Mg0 O0 2.006493 1_565
Mg0 O38 2.214866 1_565
Mg0 O36 2.214868 1_555
Mg0 O37 2.225928 1_455
Mg1 O4 2.009064 1_555
Mg1 O5 2.014239 1_565
Mg1 O3 2.088966 1_665
Mg1 O41 2.090022 1_555
Mg1 O39 2.139920 1_665
Mg1 O40 2.143535 1_655
Mg2 O8 2.050555 1_555
Mg2 O7 2.065044 1_565
Mg2 O6 2.081929 1_455
Mg2 O43 2.225155 1_565
Mg2 O44 2.227196 1_455
Mg2 O42 2.230685 1_465
Mg3 O10 2.017581 1_565
Mg3 O11 2.018900 1_555
Mg3 O9 2.023187 1_455
Mg3 O45 2.234230 1_455
Mg3 O46 2.246223 1_465
Mg3 O47 2.250168 1_565
Mg4 O13 1.994533 1_555
Mg4 O14 2.067289 1_555
Mg4 O48 2.073603 1_555
Mg4 O12 2.078563 1_555
Mg4 O49 2.101872 1_555
Mg4 O50 2.141399 1_555
Mg5 O16 2.036261 1_555
Mg5 O17 2.037096 1_555
Mg5 O15 2.044261 1_555
Mg5 O51 2.098957 1_555
Mg5 O52 2.108072 1_555
Mg5 O53 2.108754 1_555
Mg6 O24 2.019290 1_554
Mg6 O26 2.019944 1_554
Mg6 O25 2.023109 1_554
Mg6 O62 2.104845 1_555
Mg6 O60 2.116129 1_555
Mg6 O61 2.120522 1_555
Mg7 O28 2.022579 1_555
Mg7 O29 2.024158 1_555
Mg7 O27 2.026704 1_555
Mg7 O63 2.124129 1_555
Mg7 O64 2.137834 1_555
Mg7 O65 2.138947 1_555
Mg8 O68 2.084449 1_555
Mg8 O66 2.085284 1_555
Mg8 O67 2.092688 1_555
Mg8 O31 2.105283 1_555
Mg8 O32 2.105779 1_555
Mg8 O30 2.115254 1_555
Nb0 O19 1.947424 1_556
Nb0 O20 1.952838 1_556
Nb0 O18 2.007080 1_556
Nb0 O55 2.038110 1_555
Nb0 O56 2.077971 1_555
Nb0 O54 2.081621 1_555
Nb1 O21 1.969602 1_555
Nb1 O22 1.975559 1_555
Nb1 O23 1.979273 1_555
Nb1 O57 2.022775 1_555
Nb1 O58 2.025454 1_555
Nb1 O59 2.031152 1_555
Nb2 O34 1.956480 1_555
Nb2 O70 2.000854 1_555
Nb2 O71 2.003849 1_555
Nb2 O33 2.028404 1_555
Nb2 O35 2.037534 1_555
Nb2 O69 2.047110 1_555
O0 P0 1.552825 1_545
O1 P1 1.552560 1_555
O2 P2 1.552774 1_655
O3 P3 1.516102 1_555
O4 P4 1.506778 1_555
O5 P5 1.511722 1_555
O6 P5 1.552422 1_565
O7 P3 1.547897 1_555
O8 P4 1.539950 1_455
O9 P1 1.548250 1_555
O10 P2 1.548235 1_555
O11 P0 1.548122 1_555
O12 P6 1.516644 1_555
O13 P7 1.502282 1_555
O14 P8 1.516955 1_555
O15 P9 1.520791 1_555
O16 P10 1.520503 1_555
O17 P11 1.522486 1_555
O18 P11 1.623455 1_555
O19 P9 1.626926 1_555
O20 P10 1.625715 1_555
O21 P7 1.628971 1_555
O22 P8 1.620823 1_555
O23 P6 1.621428 1_555
O24 P12 1.517227 1_555
O25 P13 1.518404 1_555
O26 P14 1.510549 1_555
O27 P15 1.531576 1_555
O28 P16 1.531292 1_555
O29 P17 1.531337 1_555
O30 P17 1.525662 1_555
O31 P15 1.525135 1_555
O32 P16 1.525208 1_555
O33 P13 1.595127 1_555
O34 P14 1.597488 1_555
O35 P12 1.606998 1_555
O36 P17 1.543970 1_555
O37 P15 1.543498 1_555
O38 P16 1.543622 1_555
O39 P13 1.519888 1_555
O40 P14 1.516853 1_555
O41 P12 1.501918 1_555
O42 P6 1.544962 1_555
O43 P7 1.546230 1_555
O44 P8 1.543755 1_555
O45 P9 1.539691 1_555
O46 P10 1.540259 1_555
O47 P11 1.543682 1_555
O48 P5 1.533603 1_555
O49 P3 1.536623 1_555
O50 P4 1.554502 1_555
O51 P1 1.559471 1_555
O52 P2 1.559645 1_655
O53 P0 1.559616 1_545
O54 P12 1.611240 1_555
O55 P13 1.584085 1_655
O56 P14 1.597053 1_545
O57 P15 1.624329 1_545
O58 P16 1.625049 1_555
O59 P17 1.624402 1_655
O60 P11 1.542481 1_555
O61 P9 1.538594 1_455
O62 P10 1.538698 1_565
O63 P7 1.543062 1_565
O64 P8 1.542140 1_555
O65 P6 1.542145 1_455
O66 P0 1.558768 1_555
O67 P1 1.559249 1_555
O68 P2 1.559008 1_555
O69 P3 1.648897 1_555
O70 P4 1.626504 1_455
O71 P5 1.625894 1_565
