# generated using pymatgen
data_MgTiZn2WO6
_symmetry_space_group_name_H-M   'P 1'
_cell_length_a   5.27657754
_cell_length_b   5.33965742
_cell_length_c   7.87261025
_cell_angle_alpha   90.85097674
_cell_angle_beta   130.46998713
_cell_angle_gamma   119.98939856
_symmetry_Int_Tables_number   1
_chemical_formula_structural   MgTiZn2WO6
_chemical_formula_sum   'Mg1 Ti1 Zn2 W1 O6'
_cell_volume   125.28685408
_cell_formula_units_Z   1
loop_
 _symmetry_equiv_pos_site_id
 _symmetry_equiv_pos_as_xyz
  1  'x, y, z'
loop_
 _atom_site_type_symbol
 _atom_site_label
 _atom_site_symmetry_multiplicity
 _atom_site_fract_x
 _atom_site_fract_y
 _atom_site_fract_z
 _atom_site_occupancy
  Mg  Mg0  1  0.62665772  0.29166265  0.96658428  1
  Ti  Ti0  1  0.88173517  0.92439508  0.40707919  1
  Zn  Zn0  1  0.29333666  0.62116980  0.47053002  1
  Zn  Zn1  1  0.96943523  0.46056597  0.72543138  1
  W  W0  1  0.01304892  0.98750375  0.00865339  1
  O  O0  1  0.94795132  0.77940696  0.22643192  1
  O  O1  1  0.97892143  0.09820866  0.72293449  1
  O  O2  1  0.28126993  0.47934658  0.21545910  1
  O  O3  1  0.33589937  0.83211363  0.72833043  1
  O  O4  1  0.65278311  0.13802071  0.23003125  1
  O  O5  1  0.59691014  0.45754720  0.72352055  1
loop_
_geom_bond_atom_site_label_1
_geom_bond_atom_site_label_2
_geom_bond_distance
_geom_bond_site_symmetry_2
Mg0 O3 2.063384 1_545
Mg0 O5 2.066475 1_555
Mg0 O1 2.080724 1_455
Mg0 O2 2.114286 1_656
Mg0 O0 2.183508 1_556
Mg0 O4 2.187705 1_556
O0 Ti0 1.904396 1_555
O0 W0 2.175233 1_655
O0 Zn0 2.183926 1_655
O1 Zn1 1.960499 1_555
O1 Zn0 2.197766 1_545
O1 W0 2.249790 1_646
O1 Ti0 2.260075 1_545
O2 Ti0 2.030715 1_555
O2 Zn0 2.085799 1_555
O2 W0 2.171909 1_545
O3 Zn1 1.944720 1_455
O3 Zn0 2.127391 1_555
O3 W0 2.251976 1_656
O3 Ti0 2.394150 1_455
O4 Ti0 1.985549 1_545
O4 Zn0 2.120207 1_655
O4 W0 2.165071 1_545
O5 Zn1 1.947878 1_555
O5 Zn0 2.146015 1_555
O5 W0 2.251541 1_656
O5 Ti0 2.323262 1_445
