# generated using pymatgen
data_Mg(MoO3)4
_symmetry_space_group_name_H-M   'P 1'
_cell_length_a   5.45579131
_cell_length_b   9.25239241
_cell_length_c   5.25817200
_cell_angle_alpha   90.66456303
_cell_angle_beta   89.48421575
_cell_angle_gamma   56.78598014
_symmetry_Int_Tables_number   1
_chemical_formula_structural   Mg(MoO3)4
_chemical_formula_sum   'Mg1 Mo4 O12'
_cell_volume   222.01268416
_cell_formula_units_Z   1
loop_
 _symmetry_equiv_pos_site_id
 _symmetry_equiv_pos_as_xyz
  1  'x, y, z'
loop_
 _atom_site_type_symbol
 _atom_site_label
 _atom_site_symmetry_multiplicity
 _atom_site_fract_x
 _atom_site_fract_y
 _atom_site_fract_z
 _atom_site_occupancy
  Mg  Mg0  1  0.18721100  0.20397900  0.00449400  1
  Mo  Mo0  1  0.82352500  0.98995900  0.99011800  1
  Mo  Mo1  1  0.33163900  0.97590800  0.47870300  1
  Mo  Mo2  1  0.82000000  0.48600900  0.53782600  1
  Mo  Mo3  1  0.30357100  0.49581000  0.02922600  1
  O  O0  1  0.02351300  0.43749600  0.20680900  1
  O  O1  1  0.51174000  0.47498700  0.29969800  1
  O  O2  1  0.52364300  0.06289600  0.27765500  1
  O  O3  1  0.03424400  0.07123800  0.18290100  1
  O  O4  1  0.54957200  0.75283600  0.40576100  1
  O  O5  1  0.02339700  0.76894200  0.08616800  1
  O  O6  1  0.52789500  0.54644500  0.78189500  1
  O  O7  1  0.01800200  0.55536700  0.71287500  1
  O  O8  1  0.03226200  0.25839300  0.62798800  1
  O  O9  1  0.50782800  0.26054900  0.91514300  1
  O  O10  1  0.51984000  0.98067000  0.79775500  1
  O  O11  1  0.03471600  0.96386300  0.70248600  1
loop_
_geom_bond_atom_site_label_1
_geom_bond_atom_site_label_2
_geom_bond_distance
_geom_bond_site_symmetry_2
Mg0 O3 2.054372 1_555
Mg0 O0 2.100731 1_555
Mg0 O8 2.115289 1_554
Mg0 O9 2.132695 1_554
Mg0 O10 2.132750 1_544
Mg0 O2 2.145258 1_555
Mo0 O5 1.793559 1_656
Mo0 O11 1.824467 1_655
Mo0 O3 1.966017 1_666
Mo0 O10 1.989914 1_555
Mo0 O2 2.034778 1_566
Mo0 O9 2.168189 1_565
Mo1 O4 1.762287 1_555
Mo1 O2 1.945793 1_565
Mo1 O10 1.987343 1_555
Mo1 O11 2.046402 1_555
Mo1 O3 2.083071 1_565
Mo1 O8 2.316826 1_565
Mo2 O7 1.785955 1_655
Mo2 O8 1.833643 1_655
Mo2 O6 1.862714 1_555
Mo2 O0 1.965930 1_655
Mo2 O1 2.151628 1_555
Mo2 O4 2.195841 1_555
Mo3 O1 1.773509 1_555
Mo3 O9 1.907893 1_554
Mo3 O6 2.005564 1_554
Mo3 O0 2.094460 1_555
Mo3 O5 2.134200 1_555
Mo3 O7 2.150673 1_554
