# generated using pymatgen
data_MgMnV2O6
_symmetry_space_group_name_H-M   'P 1'
_cell_length_a   3.89767445
_cell_length_b   5.24872074
_cell_length_c   6.84138185
_cell_angle_alpha   90.84884480
_cell_angle_beta   89.99589976
_cell_angle_gamma   111.78280525
_symmetry_Int_Tables_number   1
_chemical_formula_structural   MgMnV2O6
_chemical_formula_sum   'Mg1 Mn1 V2 O6'
_cell_volume   129.94966558
_cell_formula_units_Z   1
loop_
 _symmetry_equiv_pos_site_id
 _symmetry_equiv_pos_as_xyz
  1  'x, y, z'
loop_
 _atom_site_type_symbol
 _atom_site_label
 _atom_site_symmetry_multiplicity
 _atom_site_fract_x
 _atom_site_fract_y
 _atom_site_fract_z
 _atom_site_occupancy
  Mg  Mg0  1  0.22535848  0.44966811  0.16153723  1
  Mn  Mn0  1  0.83875103  0.67683416  0.87083011  1
  V  V0  1  0.88864416  0.77649933  0.41056597  1
  V  V1  1  0.17127635  0.34156692  0.60797367  1
  O  O0  1  0.79027574  0.57956962  0.16597359  1
  O  O1  1  0.25527465  0.50966248  0.86601412  1
  O  O2  1  0.06099896  0.12091049  0.32868257  1
  O  O3  1  -0.00286783  -0.00648800  0.68227623  1
  O  O4  1  0.72140483  0.44181819  0.59038264  1
  O  O5  1  0.33659762  0.67245872  0.42687487  1
loop_
_geom_bond_atom_site_label_1
_geom_bond_atom_site_label_2
_geom_bond_distance
_geom_bond_site_symmetry_2
Mg0 O2 1.983300 1_555
Mg0 O1 2.047426 1_554
Mg0 O0 2.049166 1_455
Mg0 O0 2.049192 1_555
Mg0 O5 2.100371 1_555
Mn0 O3 2.027249 1_665
Mn0 O0 2.081429 1_556
Mn0 O1 2.112139 1_555
Mn0 O1 2.112585 1_655
Mn0 O4 2.218847 1_555
O0 V0 1.915779 1_555
O1 V1 1.934332 1_555
O2 V0 1.778092 1_445
O2 V1 2.177636 1_555
O3 V1 1.778664 1_555
O3 V0 2.124038 1_445
O4 V1 2.013116 1_655
O4 V1 2.013333 1_555
O4 V0 2.058681 1_555
O5 V0 2.017064 1_455
O5 V0 2.017466 1_555
O5 V1 2.049302 1_555
