# generated using pymatgen
data_MgMn6(O5F)2
_symmetry_space_group_name_H-M   'P 1'
_cell_length_a   4.99806920
_cell_length_b   5.07640242
_cell_length_c   8.78032120
_cell_angle_alpha   89.11332415
_cell_angle_beta   91.44438384
_cell_angle_gamma   100.46640024
_symmetry_Int_Tables_number   1
_chemical_formula_structural   MgMn6(O5F)2
_chemical_formula_sum   'Mg1 Mn6 O10 F2'
_cell_volume   218.98646250
_cell_formula_units_Z   1
loop_
 _symmetry_equiv_pos_site_id
 _symmetry_equiv_pos_as_xyz
  1  'x, y, z'
loop_
 _atom_site_type_symbol
 _atom_site_label
 _atom_site_symmetry_multiplicity
 _atom_site_fract_x
 _atom_site_fract_y
 _atom_site_fract_z
 _atom_site_occupancy
  Mg  Mg0  1  0.49440363  0.96613592  0.31823306  1
  Mn  Mn0  1  0.00419146  0.00221036  -0.00068451  1
  Mn  Mn1  1  0.99927097  0.01353856  0.32321101  1
  Mn  Mn2  1  0.99204204  0.00547742  0.66626076  1
  Mn  Mn3  1  0.45555078  0.54297537  0.82846228  1
  Mn  Mn4  1  0.54235249  0.46717833  0.15301536  1
  Mn  Mn5  1  0.54623816  0.45919658  0.50757616  1
  O  O0  1  0.17762028  0.86099821  0.16688433  1
  O  O1  1  0.17025847  0.86051607  0.83726415  1
  O  O2  1  0.27644689  0.33397930  0.99893421  1
  O  O3  1  0.32615059  0.29336097  0.32950941  1
  O  O4  1  0.28479918  0.32717661  0.65958287  1
  O  O5  1  0.69680984  0.69794662  0.99539087  1
  O  O6  1  0.71137620  0.68171616  0.32890190  1
  O  O7  1  0.70251417  0.68559133  0.66760708  1
  O  O8  1  0.79901113  0.15598169  0.17269417  1
  O  O9  1  0.80431543  0.14220130  0.48219356  1
  F  F0  1  0.21371358  0.83231062  0.47403670  1
  F  F1  1  0.80293472  0.17150858  0.84807063  1
loop_
_geom_bond_atom_site_label_1
_geom_bond_atom_site_label_2
_geom_bond_distance
_geom_bond_site_symmetry_2
Mg0 O6 1.956782 1_555
Mg0 O3 1.998282 1_565
Mg0 O0 2.041206 1_555
Mg0 O8 2.099166 1_565
Mg0 O9 2.166809 1_565
Mn0 O1 1.881216 1_544
Mn0 O0 1.886478 1_545
Mn0 O2 1.963562 1_554
Mn0 O5 1.970781 1_444
Mn0 O8 2.093988 1_455
Mn1 O8 1.854179 1_555
Mn1 O0 1.903579 1_645
Mn1 O9 1.911192 1_555
Mn1 O3 1.960804 1_655
Mn1 O6 2.007687 1_545
Mn2 O1 1.930249 1_645
Mn2 O7 1.969176 1_545
Mn2 O4 1.986097 1_655
Mn2 O9 2.024727 1_555
Mn3 O4 1.942670 1_555
Mn3 O7 1.942696 1_555
Mn3 O5 1.955272 1_555
Mn3 O2 1.959770 1_555
Mn3 O1 2.341394 1_555
Mn4 O5 1.886496 1_554
Mn4 O2 1.914407 1_554
Mn4 O6 1.984130 1_555
Mn4 O3 2.010827 1_555
Mn4 O8 2.210817 1_555
Mn5 O7 1.890446 1_555
Mn5 O4 1.918332 1_555
Mn5 O3 1.995195 1_555
Mn5 O6 2.022403 1_555
Mn5 O9 2.254488 1_555
F0 Mn1 1.999469 1_465
F0 Mg0 2.005700 1_555
F0 Mn2 2.311479 1_465
F1 Mn0 1.930126 1_656
F1 Mn2 2.135227 1_555
