# generated using pymatgen
data_ReCl4O
_symmetry_space_group_name_H-M   'P 1'
_cell_length_a   6.15272500
_cell_length_b   13.56172600
_cell_length_c   19.74986856
_cell_angle_alpha   63.69720978
_cell_angle_beta   90.00000000
_cell_angle_gamma   90.00000000
_symmetry_Int_Tables_number   1
_chemical_formula_structural   ReCl4O
_chemical_formula_sum   'Re8 Cl32 O8'
_cell_volume   1477.33826435
_cell_formula_units_Z   8
loop_
 _symmetry_equiv_pos_site_id
 _symmetry_equiv_pos_as_xyz
  1  'x, y, z'
loop_
 _atom_site_type_symbol
 _atom_site_label
 _atom_site_symmetry_multiplicity
 _atom_site_fract_x
 _atom_site_fract_y
 _atom_site_fract_z
 _atom_site_occupancy
  Re  Re0  1  0.88965300  0.40213300  0.41964500  1
  Re  Re1  1  0.38965300  0.59786700  0.08035500  1
  Re  Re2  1  0.11034700  0.59786700  0.58035500  1
  Re  Re3  1  0.61034700  0.40213300  0.91964500  1
  Re  Re4  1  0.50899900  0.09780900  0.33185200  1
  Re  Re5  1  0.00899900  0.90219100  0.16814800  1
  Re  Re6  1  0.49100100  0.90219100  0.66814800  1
  Re  Re7  1  0.99100100  0.09780900  0.83185200  1
  Cl  Cl0  1  0.36801700  0.10671500  0.22197900  1
  Cl  Cl1  1  0.12737400  0.92313800  0.88818900  1
  Cl  Cl2  1  0.62737400  0.07686200  0.61181100  1
  Cl  Cl3  1  0.87262600  0.07686200  0.11181100  1
  Cl  Cl4  1  0.37262600  0.92313800  0.38818900  1
  Cl  Cl5  1  0.13198300  0.10671500  0.72197900  1
  Cl  Cl6  1  0.63198300  0.89328500  0.77802100  1
  Cl  Cl7  1  0.86801700  0.89328500  0.27802100  1
  Cl  Cl8  1  0.75114100  0.57554400  0.85902000  1
  Cl  Cl9  1  0.25114100  0.42445600  0.64098000  1
  Cl  Cl10  1  0.24885900  0.42445600  0.14098000  1
  Cl  Cl11  1  0.74885900  0.57554400  0.35902000  1
  Cl  Cl12  1  0.34546200  0.28873400  0.99508000  1
  Cl  Cl13  1  0.84546200  0.71126600  0.50492000  1
  Cl  Cl14  1  0.65453800  0.71126600  0.00492000  1
  Cl  Cl15  1  0.15453800  0.28873400  0.49508000  1
  Cl  Cl16  1  0.35418800  0.46066600  0.82616700  1
  Cl  Cl17  1  0.85418800  0.53933400  0.67383300  1
  Cl  Cl18  1  0.64581200  0.53933400  0.17383300  1
  Cl  Cl19  1  0.14581200  0.46066600  0.32616700  1
  Cl  Cl20  1  0.72956000  0.03431900  0.92371800  1
  Cl  Cl21  1  0.22956000  0.96568100  0.57628200  1
  Cl  Cl22  1  0.27044000  0.96568100  0.07628200  1
  Cl  Cl23  1  0.77044000  0.03431900  0.42371800  1
  Cl  Cl24  1  0.72910500  0.21470100  0.75707900  1
  Cl  Cl25  1  0.22910500  0.78529900  0.74292100  1
  Cl  Cl26  1  0.27089500  0.78529900  0.24292100  1
  Cl  Cl27  1  0.77089500  0.21470100  0.25707900  1
  Cl  Cl28  1  0.74671300  0.40129900  0.02794700  1
  Cl  Cl29  1  0.24671300  0.59870100  0.47205300  1
  Cl  Cl30  1  0.25328700  0.59870100  0.97205300  1
  Cl  Cl31  1  0.75328700  0.40129900  0.52794700  1
  O  O0  1  0.15933600  0.17476000  0.85644600  1
  O  O1  1  0.71999100  0.32069000  0.39966400  1
  O  O2  1  0.21999100  0.67931000  0.10033600  1
  O  O3  1  0.28000900  0.67931000  0.60033600  1
  O  O4  1  0.78000900  0.32069000  0.89966400  1
  O  O5  1  0.34066400  0.17476000  0.35644600  1
  O  O6  1  0.84066400  0.82524000  0.14355400  1
  O  O7  1  0.65933600  0.82524000  0.64355400  1
loop_
_geom_bond_atom_site_label_1
_geom_bond_atom_site_label_2
_geom_bond_distance
_geom_bond_site_symmetry_2
Cl0 Re4 2.289878 1_555
Cl1 Re7 2.284206 1_465
Cl2 Re6 2.284206 1_545
Cl3 Re5 2.284206 1_645
Cl4 Re4 2.284206 1_565
Cl5 Re7 2.289878 1_455
Cl6 Re6 2.289878 1_555
Cl7 Re5 2.289878 1_655
Cl8 Re3 2.284577 1_555
Cl9 Re2 2.284577 1_555
Cl10 Re1 2.284577 1_555
Cl11 Re0 2.284577 1_555
Cl12 Re3 2.282609 1_555
Cl13 Re2 2.282609 1_655
Cl14 Re1 2.282609 1_555
Cl15 Re0 2.282609 1_455
Cl16 Re3 2.285550 1_555
Cl17 Re2 2.285550 1_655
Cl18 Re1 2.285550 1_555
Cl19 Re0 2.285550 1_455
Cl20 Re7 2.288285 1_555
Cl21 Re6 2.288285 1_555
Cl22 Re5 2.288285 1_555
Cl23 Re4 2.288285 1_555
Cl24 Re7 2.283786 1_555
Cl25 Re6 2.283786 1_555
Cl26 Re5 2.283786 1_555
Cl27 Re4 2.283786 1_555
Cl28 Re3 2.292979 1_554
Cl29 Re2 2.292979 1_555
Cl30 Re1 2.292979 1_556
Cl31 Re0 2.292979 1_555
O0 Re7 1.687291 1_455
O1 Re0 1.688677 1_555
O2 Re1 1.688677 1_555
O3 Re2 1.688677 1_555
O4 Re3 1.688677 1_555
O5 Re4 1.687291 1_555
O6 Re5 1.687291 1_655
O7 Re6 1.687291 1_555
