# generated using pymatgen
data_NaCaNb3Si3(SO8)3
_symmetry_space_group_name_H-M   'P 1'
_cell_length_a   8.99450011
_cell_length_b   8.96999714
_cell_length_c   23.27598049
_cell_angle_alpha   90.09500315
_cell_angle_beta   89.66165245
_cell_angle_gamma   120.19949837
_symmetry_Int_Tables_number   1
_chemical_formula_structural   NaCaNb3Si3(SO8)3
_chemical_formula_sum   'Na3 Ca3 Nb9 Si9 S9 O72'
_cell_volume   1623.01790633
_cell_formula_units_Z   3
loop_
 _symmetry_equiv_pos_site_id
 _symmetry_equiv_pos_as_xyz
  1  'x, y, z'
loop_
 _atom_site_type_symbol
 _atom_site_label
 _atom_site_symmetry_multiplicity
 _atom_site_fract_x
 _atom_site_fract_y
 _atom_site_fract_z
 _atom_site_occupancy
  Na  Na0  1  0.99495066  0.00012617  0.99270363  1
  Na  Na1  1  0.69260629  0.34329841  0.84080851  1
  Na  Na2  1  0.65093477  0.33247262  0.33830925  1
  Ca  Ca0  1  0.99344174  0.00023191  0.85483670  1
  Ca  Ca1  1  0.68172896  0.34311113  0.97775030  1
  Ca  Ca2  1  0.65473230  0.33101175  0.47764124  1
  Nb  Nb0  1  0.01041092  0.01149404  0.35369777  1
  Nb  Nb1  1  0.99512480  0.98432695  0.65072831  1
  Nb  Nb2  1  0.00142620  0.99284816  0.15178916  1
  Nb  Nb3  1  0.66124707  0.31454477  0.68530676  1
  Nb  Nb4  1  0.68027725  0.34188586  0.19030947  1
  Nb  Nb5  1  0.31667846  0.65330316  0.02299406  1
  Nb  Nb6  1  0.33107062  0.66336860  0.52171072  1
  Nb  Nb7  1  0.33411543  0.65765088  0.30421686  1
  Nb  Nb8  1  0.32155506  0.66322969  0.80738832  1
  Si  Si0  1  0.29207983  0.00528906  0.25163588  1
  Si  Si1  1  0.72064384  0.71435517  0.25326316  1
  Si  Si2  1  0.99554702  0.28089053  0.24991705  1
  Si  Si3  1  0.98597366  0.69641801  0.75235456  1
  Si  Si4  1  0.71096638  0.99772957  0.75316368  1
  Si  Si5  1  0.36715244  0.04112557  0.57987120  1
  Si  Si6  1  0.95714377  0.63140750  0.08251401  1
  Si  Si7  1  0.04504717  0.37135328  0.91480345  1
  Si  Si8  1  0.33252854  0.38222436  0.41376827  1
  S  S0  1  0.29678737  0.29328086  0.74795477  1
  S  S1  1  0.96157729  0.33033998  0.58339129  1
  S  S2  1  0.66573959  0.62999948  0.58290273  1
  S  S3  1  0.67031946  0.03969560  0.08540937  1
  S  S4  1  0.37246724  0.33115340  0.08447860  1
  S  S5  1  0.60726086  0.66504158  0.91701748  1
  S  S6  1  0.33306649  0.94251632  0.91700140  1
  S  S7  1  0.61843040  0.94162090  0.41377353  1
  S  S8  1  0.05843589  0.67594381  0.41461979  1
  O  O0  1  0.20112794  0.04164370  0.30805529  1
  O  O1  1  0.84184516  0.80140485  0.30861544  1
  O  O2  1  0.96163365  0.15891979  0.30680072  1
  O  O3  1  0.23958244  0.19188867  0.80002686  1
  O  O4  1  0.94239521  0.76197065  0.80851138  1
  O  O5  1  0.82702138  0.06730107  0.80761180  1
  O  O6  1  0.81106738  0.97736032  0.69589053  1
  O  O7  1  0.18309046  0.20793296  0.69794869  1
  O  O8  1  0.01962517  0.82751903  0.69598628  1
  O  O9  1  0.80788117  0.83243724  0.19598297  1
  O  O10  1  0.02856658  0.19558740  0.19415616  1
  O  O11  1  0.16678677  0.97249347  0.19679247  1
  O  O12  1  0.87792053  0.36558875  0.63362877  1
  O  O13  1  0.49974016  0.13954195  0.63500562  1
  O  O14  1  0.63101626  0.51802410  0.63323642  1
  O  O15  1  0.85744847  0.50097269  0.13938762  1
  O  O16  1  0.64252843  0.12558142  0.13683708  1
  O  O17  1  0.48248551  0.35650365  0.13533416  1
  O  O18  1  0.43594946  0.29312076  0.03246032  1
  O  O19  1  0.84612051  0.56701378  0.02700125  1
  O  O20  1  0.70451990  0.14280215  0.03390343  1
  O  O21  1  0.43629550  0.15037375  0.52389793  1
  O  O22  1  0.70681997  0.56922326  0.53126731  1
  O  O23  1  0.86196087  0.29691284  0.53171492  1
  O  O24  1  0.51388187  0.66966403  0.97119535  1
  O  O25  1  0.15889085  0.49390586  0.97421313  1
  O  O26  1  0.33617775  0.84660069  0.97037347  1
  O  O27  1  0.52936737  0.84073987  0.46771659  1
  O  O28  1  0.31300459  0.48098909  0.47247790  1
  O  O29  1  0.16062505  0.69423979  0.46873454  1
  O  O30  1  0.14890583  0.66271937  0.36365297  1
  O  O31  1  0.51052607  0.85663203  0.36307559  1
  O  O32  1  0.33581258  0.50255196  0.35957996  1
  O  O33  1  0.16640679  0.49254629  0.85890872  1
  O  O34  1  0.34119828  0.85310293  0.86313396  1
  O  O35  1  0.51559707  0.67075416  0.86489768  1
  O  O36  1  0.04568261  0.83456274  0.41053527  1
  O  O37  1  0.78410992  0.94316306  0.40953303  1
  O  O38  1  0.15001903  0.19406089  0.40552826  1
  O  O39  1  0.05258946  0.20052488  0.92404177  1
  O  O40  1  0.17289926  0.94519843  0.91879754  1
  O  O41  1  0.77815934  0.81832683  0.92030475  1
  O  O42  1  0.99499052  0.19021184  0.59794061  1
  O  O43  1  0.18010850  0.01235305  0.60200295  1
  O  O44  1  0.81281771  0.80868643  0.59533871  1
  O  O45  1  0.99683167  0.82817971  0.09786162  1
  O  O46  1  0.82296612  0.01764091  0.09592204  1
  O  O47  1  0.19308982  0.18690005  0.09556770  1
  O  O48  1  0.67011834  0.15545277  0.73275013  1
  O  O49  1  0.47546686  0.32564357  0.73433530  1
  O  O50  1  0.83044515  0.50912891  0.72916835  1
  O  O51  1  0.69261131  0.52092191  0.24038664  1
  O  O52  1  0.82509884  0.30093685  0.24057455  1
  O  O53  1  0.47843174  0.17310701  0.23733002  1
  O  O54  1  0.60794642  0.50185385  0.91578727  1
  O  O55  1  0.86987738  0.37242017  0.91099533  1
  O  O56  1  0.48799451  0.11260339  0.91712909  1
  O  O57  1  0.64612504  0.11593763  0.41697064  1
  O  O58  1  0.49992767  0.36691170  0.41018796  1
  O  O59  1  0.89013725  0.52120231  0.41859414  1
  O  O60  1  0.36036964  0.49285194  0.07785009  1
  O  O61  1  0.15216340  0.65201196  0.07519065  1
  O  O62  1  0.51613312  0.86560960  0.07909118  1
  O  O63  1  0.34712679  0.84581732  0.56888432  1
  O  O64  1  0.51032866  0.65166179  0.57410699  1
  O  O65  1  0.13564847  0.49386040  0.57565616  1
  O  O66  1  0.31038177  0.83875494  0.26559323  1
  O  O67  1  0.53040614  0.69327594  0.26190408  1
  O  O68  1  0.15888953  0.47410232  0.26056080  1
  O  O69  1  0.31538782  0.46664272  0.75377571  1
  O  O70  1  0.16210368  0.68044409  0.75894045  1
  O  O71  1  0.52065977  0.82585069  0.76148413  1
loop_
_geom_bond_atom_site_label_1
_geom_bond_atom_site_label_2
_geom_bond_distance
_geom_bond_site_symmetry_2
Na0 O39 2.261948 1_655
Na0 O41 2.476286 1_545
Na0 O40 2.553777 1_645
Na0 O46 2.896383 1_556
Na0 O45 2.899903 1_546
Na0 O47 2.957832 1_656
Na1 O55 2.211279 1_555
Na1 O54 2.591129 1_555
Na1 O56 2.639534 1_555
Na2 O58 2.265585 1_555
Na2 O57 2.655761 1_555
Na2 O59 2.712883 1_555
Na2 O51 2.749200 1_555
Na2 O53 2.788512 1_555
Na2 O52 2.847914 1_555
Ca0 O5 2.176783 1_555
Ca0 O4 2.225337 1_545
Ca0 O39 2.268166 1_655
Ca0 O41 2.351336 1_545
Ca0 O3 2.372632 1_655
Ca0 O40 2.428564 1_645
Ca1 O19 2.135178 1_556
Ca1 O55 2.206800 1_555
Ca1 O20 2.315211 1_556
Ca1 O54 2.348793 1_555
Ca1 O18 2.383509 1_556
Ca1 O56 2.386903 1_555
Ca2 O21 2.103082 1_555
Ca2 O58 2.232948 1_555
Ca2 O22 2.309584 1_555
Ca2 O57 2.358830 1_555
Ca2 O59 2.371072 1_555
Ca2 O23 2.398831 1_555
Nb0 O38 1.912224 1_555
Nb0 O0 1.912356 1_555
Nb0 O2 1.930517 1_455
Nb0 O1 2.022129 1_445
Nb0 O36 2.210904 1_545
Nb0 O37 2.219031 1_445
Nb1 O8 1.859080 1_655
Nb1 O43 1.917201 1_665
Nb1 O6 1.930077 1_555
Nb1 O44 2.062133 1_555
Nb1 O7 2.166226 1_665
Nb1 O42 2.220378 1_565
Nb2 O9 1.903377 1_455
Nb2 O11 1.906563 1_555
Nb2 O45 1.921480 1_455
Nb2 O10 1.972190 1_565
Nb2 O47 2.162475 1_565
Nb2 O46 2.168333 1_465
Nb3 O48 1.839329 1_555
Nb3 O13 1.914453 1_555
Nb3 O50 1.935193 1_555
Nb3 O49 2.061292 1_555
Nb3 O12 2.128624 1_555
Nb3 O14 2.320507 1_555
Nb4 O15 1.917344 1_555
Nb4 O52 1.923870 1_555
Nb4 O51 1.940641 1_555
Nb4 O53 2.000697 1_555
Nb4 O16 2.182470 1_555
Nb4 O17 2.254257 1_555
Nb5 O25 1.822063 1_554
Nb5 O61 1.904562 1_555
Nb5 O26 2.058104 1_554
Nb5 O24 2.082017 1_554
Nb5 O60 2.106461 1_555
Nb5 O62 2.265475 1_555
Nb6 O63 1.913889 1_555
Nb6 O28 1.935058 1_555
Nb6 O65 2.066315 1_555
Nb6 O64 2.071714 1_555
Nb6 O29 2.097143 1_555
Nb6 O27 2.101740 1_555
Nb7 O67 1.897927 1_555
Nb7 O32 1.903650 1_555
Nb7 O68 1.905284 1_555
Nb7 O66 1.961829 1_555
Nb7 O30 2.177117 1_555
Nb7 O31 2.179158 1_555
Nb8 O33 1.888491 1_555
Nb8 O70 1.896008 1_555
Nb8 O71 1.957317 1_555
Nb8 O34 2.075626 1_555
Nb8 O69 2.136571 1_555
Nb8 O35 2.179739 1_555
O0 Si0 1.659634 1_555
O1 Si1 1.617077 1_555
O2 Si2 1.645412 1_555
O3 S0 1.444450 1_555
O4 Si3 1.559225 1_555
O5 Si4 1.562968 1_545
O6 Si4 1.664833 1_555
O7 S0 1.486654 1_555
O8 Si3 1.684722 1_455
O9 Si1 1.634429 1_555
O10 Si2 1.605920 1_455
O11 Si0 1.633499 1_565
O12 S1 1.503730 1_555
O13 Si5 1.674394 1_555
O14 S2 1.470700 1_555
O15 Si6 1.691464 1_555
O16 S3 1.508647 1_555
O17 S4 1.489523 1_555
O18 S4 1.447352 1_555
O19 Si6 1.559769 1_555
O20 S3 1.449259 1_555
O21 Si5 1.557564 1_555
O22 S2 1.439945 1_555
O23 S1 1.442480 1_555
O24 S5 1.523066 1_555
O25 Si7 1.745968 1_555
O26 S6 1.520678 1_555
O27 S7 1.516467 1_555
O28 Si8 1.683075 1_555
O29 S8 1.522995 1_555
O30 S8 1.472680 1_555
O31 S7 1.477102 1_555
O32 Si8 1.651874 1_555
O33 Si7 1.691167 1_555
O34 S6 1.508400 1_555
O35 S5 1.486137 1_555
O36 S8 1.487064 1_555
O37 S7 1.485992 1_555
O38 Si8 1.671999 1_555
O39 Si7 1.582631 1_555
O40 S6 1.453230 1_555
O41 S5 1.460818 1_555
O42 S1 1.472268 1_555
O43 Si5 1.647945 1_555
O44 S2 1.507554 1_555
O45 Si6 1.654079 1_555
O46 S3 1.503818 1_555
O47 S4 1.496650 1_555
O48 Si4 1.699873 1_545
O49 S0 1.514126 1_555
O50 Si3 1.646859 1_555
O51 Si1 1.650154 1_555
O52 Si2 1.646635 1_555
O53 Si0 1.625751 1_555
O54 S5 1.467136 1_555
O55 Si7 1.583406 1_655
O56 S6 1.459706 1_545
O57 S7 1.456189 1_545
O58 Si8 1.580947 1_555
O59 S8 1.453144 1_655
O60 S4 1.516286 1_555
O61 Si6 1.676460 1_455
O62 S3 1.485382 1_565
O63 Si5 1.687793 1_565
O64 S2 1.520001 1_555
O65 S1 1.523948 1_455
O66 Si0 1.616706 1_565
O67 Si1 1.635427 1_555
O68 Si2 1.632429 1_455
O69 S0 1.484043 1_555
O70 Si3 1.668840 1_455
O71 Si4 1.639087 1_555
