# generated using pymatgen
data_Na10Zn2Si7Sn6S5O48
_symmetry_space_group_name_H-M   'P 1'
_cell_length_a   17.95001611
_cell_length_b   9.02389991
_cell_length_c   22.74885896
_cell_angle_alpha   90.15609073
_cell_angle_beta   89.73337176
_cell_angle_gamma   120.13250925
_symmetry_Int_Tables_number   1
_chemical_formula_structural   Na10Zn2Si7Sn6S5O48
_chemical_formula_sum   'Na30 Zn6 Si21 Sn18 S15 O144'
_cell_volume   3186.86138623
_cell_formula_units_Z   3
loop_
 _symmetry_equiv_pos_site_id
 _symmetry_equiv_pos_as_xyz
  1  'x, y, z'
loop_
 _atom_site_type_symbol
 _atom_site_label
 _atom_site_symmetry_multiplicity
 _atom_site_fract_x
 _atom_site_fract_y
 _atom_site_fract_z
 _atom_site_occupancy
  Na  Na0  1  0.81791114  0.01026914  0.24860999  1
  Na  Na1  1  0.18699724  0.37498304  0.24800110  1
  Na  Na2  1  0.68909614  0.36295547  0.25293318  1
  Na  Na3  1  0.99304292  0.61728232  0.25272751  1
  Na  Na4  1  0.49554961  0.63449887  0.24639005  1
  Na  Na5  1  0.31825429  0.62492408  0.74850246  1
  Na  Na6  1  0.99576486  0.35588496  0.74776787  1
  Na  Na7  1  0.49253773  0.36976448  0.75215698  1
  Na  Na8  1  0.19121071  0.01858933  0.74933464  1
  Na  Na9  1  0.68666930  0.99779845  0.74861740  1
  Na  Na10  1  0.14818822  0.32784783  0.58220069  1
  Na  Na11  1  0.01618764  0.69408290  0.58268231  1
  Na  Na12  1  0.48656784  0.66437138  0.91768025  1
  Na  Na13  1  0.98914616  0.67138212  0.91898930  1
  Na  Na14  1  0.84982734  0.03038487  0.91416330  1
  Na  Na15  1  0.48974243  0.30834647  0.41891414  1
  Na  Na16  1  0.16535191  0.02763134  0.41916024  1
  Na  Na17  1  0.34978778  0.66719946  0.41394398  1
  Na  Na18  1  0.99642374  0.00241428  0.49949321  1
  Na  Na19  1  0.50805642  0.00581997  0.49635113  1
  Na  Na20  1  0.00725388  0.01031161  0.99627234  1
  Na  Na21  1  0.50161606  0.00688566  0.00029177  1
  Na  Na22  1  0.33001592  0.32048163  0.83085694  1
  Na  Na23  1  0.83132549  0.33269373  0.83332601  1
  Na  Na24  1  0.33494368  0.33743842  0.33205067  1
  Na  Na25  1  0.83285575  0.33813704  0.33238319  1
  Na  Na26  1  0.17305537  0.66972546  0.16345509  1
  Na  Na27  1  0.66344613  0.67018295  0.16378649  1
  Na  Na28  1  0.16953201  0.67371645  0.66492734  1
  Na  Na29  1  0.67166123  0.67543390  0.66378421  1
  Zn  Zn0  1  0.32949133  0.31967286  0.68991413  1
  Zn  Zn1  1  0.83810893  0.31965121  0.68036859  1
  Zn  Zn2  1  0.34000356  0.35608078  0.17920557  1
  Zn  Zn3  1  0.83367680  0.33423831  0.19101511  1
  Zn  Zn4  1  0.16120993  0.67018143  0.01167898  1
  Zn  Zn5  1  0.66032129  0.65262005  0.51139500  1
  Si  Si0  1  0.64649088  0.99885419  0.24988113  1
  Si  Si1  1  0.35170348  0.70612753  0.25136177  1
  Si  Si2  1  0.85354186  0.70917462  0.24997805  1
  Si  Si3  1  0.00142233  0.29380327  0.25036487  1
  Si  Si4  1  0.14688021  0.29643927  0.75080155  1
  Si  Si5  1  0.50080418  0.70762702  0.75050821  1
  Si  Si6  1  0.35377660  0.99810148  0.75051562  1
  Si  Si7  1  0.85231144  0.99645258  0.75074616  1
  Si  Si8  1  0.97764577  0.33331780  0.58279005  1
  Si  Si9  1  0.18856480  0.03859240  0.58646519  1
  Si  Si10  1  0.48141004  0.62484088  0.08270318  1
  Si  Si11  1  0.80956797  0.66517606  0.91764763  1
  Si  Si12  1  0.02425601  0.37838522  0.92020775  1
  Si  Si13  1  0.52042761  0.36916160  0.91498526  1
  Si  Si14  1  0.16840863  0.96263828  0.91805092  1
  Si  Si15  1  0.66517007  0.96309394  0.91703431  1
  Si  Si16  1  0.31227055  0.95573786  0.41618576  1
  Si  Si17  1  0.16426385  0.37080809  0.41810450  1
  Si  Si18  1  0.66832436  0.37429859  0.41777802  1
  Si  Si19  1  0.01754523  0.66497740  0.41414316  1
  Si  Si20  1  0.52343641  0.66951998  0.42022448  1
  Sn  Sn0  1  0.99565303  0.99768992  0.35369576  1
  Sn  Sn1  1  0.50442891  0.99311032  0.35477323  1
  Sn  Sn2  1  0.00293959  0.01340933  0.85541675  1
  Sn  Sn3  1  0.49941199  0.00319370  0.85311994  1
  Sn  Sn4  1  0.99785264  0.01407754  0.64683061  1
  Sn  Sn5  1  0.49905296  0.99384989  0.64960005  1
  Sn  Sn6  1  0.99819170  0.00555172  0.14888987  1
  Sn  Sn7  1  0.49456096  0.97291863  0.14654140  1
  Sn  Sn8  1  0.33533225  0.32336995  0.98206419  1
  Sn  Sn9  1  0.83191235  0.33693497  0.97987188  1
  Sn  Sn10  1  0.33146257  0.32718748  0.48121451  1
  Sn  Sn11  1  0.83448498  0.33953538  0.47946650  1
  Sn  Sn12  1  0.65983606  0.66103479  0.01472802  1
  Sn  Sn13  1  0.16330614  0.66998041  0.51546004  1
  Sn  Sn14  1  0.16859513  0.66229441  0.31714549  1
  Sn  Sn15  1  0.66702657  0.66527276  0.31843733  1
  Sn  Sn16  1  0.16741697  0.66991624  0.81862870  1
  Sn  Sn17  1  0.66969585  0.67602709  0.81733934  1
  S  S0  1  0.14795573  0.00142856  0.24896271  1
  S  S1  1  0.49754920  0.28576834  0.24935683  1
  S  S2  1  0.64832896  0.29497440  0.74873588  1
  S  S3  1  0.99708634  0.70639419  0.74986892  1
  S  S4  1  0.48210019  0.33298079  0.58598135  1
  S  S5  1  0.68516219  0.03835358  0.58461195  1
  S  S6  1  0.33575915  0.63006348  0.58381126  1
  S  S7  1  0.83007216  0.62266872  0.58601811  1
  S  S8  1  0.98054901  0.62902245  0.08604401  1
  S  S9  1  0.33271120  0.03798565  0.08659559  1
  S  S10  1  0.83341364  0.04047637  0.08377908  1
  S  S11  1  0.18512268  0.33176873  0.08486814  1
  S  S12  1  0.68695161  0.33419346  0.08536770  1
  S  S13  1  0.31242919  0.66456025  0.91906135  1
  S  S14  1  0.81218449  0.96007704  0.41924203  1
  O  O0  1  0.11011057  0.03346935  0.30300892  1
  O  O1  1  0.60628264  0.04627021  0.30608263  1
  O  O2  1  0.41284112  0.78874231  0.30951552  1
  O  O3  1  0.91734262  0.79365939  0.30618597  1
  O  O4  1  0.48675653  0.18793886  0.30407895  1
  O  O5  1  0.98219734  0.16749935  0.30676414  1
  O  O6  1  0.10324244  0.16331427  0.80506004  1
  O  O7  1  0.60999195  0.18420646  0.80150956  1
  O  O8  1  0.48320653  0.79353007  0.80927493  1
  O  O9  1  0.98665380  0.78593248  0.80370904  1
  O  O10  1  0.41748496  0.03706903  0.80624703  1
  O  O11  1  0.91302907  0.03711177  0.80907109  1
  O  O12  1  0.39378003  0.95170402  0.69209336  1
  O  O13  1  0.89420591  0.95795911  0.69263989  1
  O  O14  1  0.08726523  0.22232789  0.69079953  1
  O  O15  1  0.59109322  0.21748447  0.69590832  1
  O  O16  1  0.01399801  0.81508388  0.69624262  1
  O  O17  1  0.52794298  0.84183526  0.69422176  1
  O  O18  1  0.39172934  0.82796853  0.19354379  1
  O  O19  1  0.89406592  0.83615843  0.19201125  1
  O  O20  1  0.02836786  0.21672111  0.19305932  1
  O  O21  1  0.51548053  0.20865124  0.19699885  1
  O  O22  1  0.08994487  0.96540725  0.19677439  1
  O  O23  1  0.58399203  0.95575229  0.19245163  1
  O  O24  1  0.43977031  0.35253854  0.63783478  1
  O  O25  1  0.94524376  0.38317715  0.64197122  1
  O  O26  1  0.24322347  0.12481968  0.64381938  1
  O  O27  1  0.73326523  0.11925743  0.63916234  1
  O  O28  1  0.32361870  0.52747841  0.63618611  1
  O  O29  1  0.81819730  0.51710263  0.63779962  1
  O  O30  1  0.44474779  0.52028578  0.14299242  1
  O  O31  1  0.93685048  0.52428551  0.13763117  1
  O  O32  1  0.31962879  0.12053895  0.13795213  1
  O  O33  1  0.82305259  0.12072121  0.13652927  1
  O  O34  1  0.23304408  0.34700232  0.13932957  1
  O  O35  1  0.73849409  0.35720027  0.13774531  1
  O  O36  1  0.22488400  0.30084735  0.03162266  1
  O  O37  1  0.72573687  0.30170642  0.03113139  1
  O  O38  1  0.42018982  0.53881651  0.02337835  1
  O  O39  1  0.92691460  0.55396021  0.03070934  1
  O  O40  1  0.34887144  0.14307505  0.03129202  1
  O  O41  1  0.84674261  0.14554226  0.02917729  1
  O  O42  1  0.22526684  0.16133015  0.52621894  1
  O  O43  1  0.72444155  0.14831446  0.53159276  1
  O  O44  1  0.34938364  0.55405313  0.52884438  1
  O  O45  1  0.84909795  0.54961953  0.53153888  1
  O  O46  1  0.42879552  0.30069481  0.53046300  1
  O  O47  1  0.91598846  0.30064640  0.52584761  1
  O  O48  1  0.27295882  0.69207953  0.97004726  1
  O  O49  1  0.77062970  0.71232022  0.97545689  1
  O  O50  1  0.08199087  0.45914181  0.97604734  1
  O  O51  1  0.57916030  0.44923585  0.97301271  1
  O  O52  1  0.14693750  0.84113883  0.97359045  1
  O  O53  1  0.64415806  0.83825923  0.97305909  1
  O  O54  1  0.27310247  0.83053215  0.47339359  1
  O  O55  1  0.77251661  0.85402705  0.47020006  1
  O  O56  1  0.15086273  0.45401562  0.47794318  1
  O  O57  1  0.64726817  0.45355655  0.47351290  1
  O  O58  1  0.07800872  0.71331733  0.47329664  1
  O  O59  1  0.58144947  0.70556088  0.47601320  1
  O  O60  1  0.06083502  0.63806487  0.35447861  1
  O  O61  1  0.55667041  0.62153134  0.35759151  1
  O  O62  1  0.24829037  0.88102681  0.35958822  1
  O  O63  1  0.76387792  0.88907656  0.36210459  1
  O  O64  1  0.18812037  0.48875551  0.35900416  1
  O  O65  1  0.68604742  0.48535221  0.35520867  1
  O  O66  1  0.05729319  0.49224377  0.85768617  1
  O  O67  1  0.55941912  0.49018818  0.85553980  1
  O  O68  1  0.18620094  0.88733575  0.85534117  1
  O  O69  1  0.68911066  0.89371400  0.85716062  1
  O  O70  1  0.26365533  0.63798102  0.86230819  1
  O  O71  1  0.75151706  0.62429062  0.85880757  1
  O  O72  1  0.01392992  0.84429231  0.40976160  1
  O  O73  1  0.50334474  0.82625281  0.41408175  1
  O  O74  1  0.40816210  0.98123820  0.40926508  1
  O  O75  1  0.89968518  0.97871128  0.41355675  1
  O  O76  1  0.08222432  0.17667586  0.41115354  1
  O  O77  1  0.57760291  0.18966388  0.40959624  1
  O  O78  1  0.00391936  0.18100986  0.91436216  1
  O  O79  1  0.50930964  0.17893345  0.91098490  1
  O  O80  1  0.07761353  0.96580588  0.90962239  1
  O  O81  1  0.57628912  0.96977839  0.91058322  1
  O  O82  1  0.40089925  0.81788227  0.91289889  1
  O  O83  1  0.90636938  0.83429369  0.91052823  1
  O  O84  1  0.48929608  0.17017400  0.58909910  1
  O  O85  1  0.99075224  0.16465475  0.58368494  1
  O  O86  1  0.08764235  0.00974559  0.58986830  1
  O  O87  1  0.59620897  0.02646527  0.58759054  1
  O  O88  1  0.41445244  0.80602965  0.58589498  1
  O  O89  1  0.91453576  0.79391950  0.58954624  1
  O  O90  1  0.48985043  0.81831285  0.08190872  1
  O  O91  1  0.98828455  0.80620223  0.08924083  1
  O  O92  1  0.41612569  0.03249018  0.08982011  1
  O  O93  1  0.91436322  0.02655875  0.08541231  1
  O  O94  1  0.09618876  0.16537705  0.08727030  1
  O  O95  1  0.59835073  0.18024416  0.08901285  1
  O  O96  1  0.34570173  0.16684004  0.74747047  1
  O  O97  1  0.84145824  0.16745897  0.74596004  1
  O  O98  1  0.24212716  0.32417453  0.74639184  1
  O  O99  1  0.73296954  0.31043858  0.74112424  1
  O  O100  1  0.41585983  0.52314822  0.74270414  1
  O  O101  1  0.92177429  0.53406092  0.74513230  1
  O  O102  1  0.34070880  0.51342885  0.24668903  1
  O  O103  1  0.84334791  0.52240855  0.24382234  1
  O  O104  1  0.42232890  0.30835061  0.24452734  1
  O  O105  1  0.91644172  0.30907499  0.24382477  1
  O  O106  1  0.23245352  0.15520465  0.24140783  1
  O  O107  1  0.74116939  0.16379047  0.24356885  1
  O  O108  1  0.32302565  0.51107517  0.92216711  1
  O  O109  1  0.82638643  0.50336332  0.92484316  1
  O  O110  1  0.42765792  0.36610570  0.92101471  1
  O  O111  1  0.92617603  0.35960165  0.92454376  1
  O  O112  1  0.25237869  0.15810408  0.92394528  1
  O  O113  1  0.75392325  0.14769701  0.92481555  1
  O  O114  1  0.32298444  0.14706173  0.42317757  1
  O  O115  1  0.82073865  0.13223986  0.42212388  1
  O  O116  1  0.25262587  0.35646086  0.42286895  1
  O  O117  1  0.75144650  0.34466122  0.42327437  1
  O  O118  1  0.42548218  0.49133714  0.42503231  1
  O  O119  1  0.92425944  0.49313153  0.42055556  1
  O  O120  1  0.17579601  0.48266793  0.07903571  1
  O  O121  1  0.68098032  0.49156465  0.07810945  1
  O  O122  1  0.06612742  0.64876022  0.08037502  1
  O  O123  1  0.57908143  0.64602470  0.07848293  1
  O  O124  1  0.25841257  0.86469462  0.07883860  1
  O  O125  1  0.75713894  0.86706150  0.07818710  1
  O  O126  1  0.17466191  0.84475898  0.57841063  1
  O  O127  1  0.67620874  0.86900356  0.57886729  1
  O  O128  1  0.25620124  0.64226725  0.57822933  1
  O  O129  1  0.75702004  0.64982391  0.57803287  1
  O  O130  1  0.07700514  0.50368407  0.57698061  1
  O  O131  1  0.56797265  0.48373534  0.57998444  1
  O  O132  1  0.15173555  0.84166014  0.25386374  1
  O  O133  1  0.65262077  0.82133719  0.25749334  1
  O  O134  1  0.25526063  0.68514087  0.25477996  1
  O  O135  1  0.75786783  0.69526961  0.25564530  1
  O  O136  1  0.08722048  0.48691730  0.25472585  1
  O  O137  1  0.57837561  0.46176554  0.25306817  1
  O  O138  1  0.15185683  0.48536458  0.75786537  1
  O  O139  1  0.65159216  0.46150018  0.75452446  1
  O  O140  1  0.07807519  0.69344821  0.75324391  1
  O  O141  1  0.58735234  0.68757572  0.75492210  1
  O  O142  1  0.25802800  0.82049496  0.75562939  1
  O  O143  1  0.75577340  0.82547870  0.75389072  1
loop_
_geom_bond_atom_site_label_1
_geom_bond_atom_site_label_2
_geom_bond_distance
_geom_bond_site_symmetry_2
Na0 O105 2.371125 1_555
Na0 O107 2.397553 1_555
Na0 O135 2.488406 1_545
Na0 O133 2.582261 1_545
Na0 O33 2.724383 1_555
Na0 O63 2.780273 1_545
Na0 O19 2.850247 1_545
Na0 O5 2.878330 1_555
Na1 O102 2.390203 1_555
Na1 O134 2.432050 1_555
Na1 O136 2.462567 1_555
Na1 O106 2.498701 1_555
Na1 O34 2.654351 1_555
Na1 O64 2.719674 1_555
Na1 O20 2.765874 1_555
Na1 O0 2.950038 1_555
Na2 O103 2.403340 1_555
Na2 O107 2.414925 1_555
Na2 O137 2.554227 1_555
Na2 O65 2.584900 1_555
Na2 O135 2.608322 1_555
Na2 O1 2.752327 1_555
Na2 O35 2.771146 1_555
Na3 O103 2.385075 1_555
Na3 O105 2.413900 1_555
Na3 O136 2.498279 1_655
Na3 O132 2.534599 1_655
Na3 O60 2.582364 1_655
Na3 O31 2.782075 1_555
Na3 O3 2.829135 1_555
Na4 O102 2.422776 1_555
Na4 O133 2.467247 1_555
Na4 O30 2.547484 1_555
Na4 O104 2.550958 1_555
Na4 O137 2.644456 1_555
Na4 O61 2.788031 1_555
Na4 O23 2.794724 1_555
Na4 O2 2.871855 1_555
Na5 O98 2.347665 1_555
Na5 O100 2.354395 1_555
Na5 O142 2.494367 1_555
Na5 O138 2.602215 1_555
Na5 O28 2.716867 1_555
Na5 O70 2.787061 1_555
Na5 O12 2.858483 1_555
Na5 O8 2.914924 1_555
Na6 O97 2.415965 1_555
Na6 O138 2.446638 1_655
Na6 O101 2.549103 1_555
Na6 O25 2.631213 1_555
Na6 O140 2.637885 1_655
Na6 O66 2.762419 1_655
Na6 O14 2.790825 1_655
Na6 O11 2.852813 1_555
Na7 O96 2.338228 1_555
Na7 O100 2.402808 1_555
Na7 O141 2.494968 1_555
Na7 O139 2.543160 1_555
Na7 O67 2.618366 1_555
Na7 O24 2.749153 1_555
Na7 O10 2.878584 1_555
Na7 O15 3.010874 1_555
Na8 O96 2.399202 1_555
Na8 O98 2.431881 1_555
Na8 O26 2.577867 1_555
Na8 O140 2.599630 1_545
Na8 O142 2.609599 1_545
Na8 O68 2.670769 1_545
Na8 O6 2.801565 1_555
Na9 O97 2.407397 1_565
Na9 O143 2.431052 1_555
Na9 O141 2.454521 1_555
Na9 O99 2.515222 1_565
Na9 O69 2.652582 1_555
Na9 O27 2.678794 1_565
Na9 O17 2.761706 1_555
Na9 O7 2.910281 1_565
Na10 O85 2.444798 1_455
Na10 O130 2.490462 1_555
Na10 O128 2.508817 1_555
Na10 O86 2.514011 1_555
Na10 O56 2.623446 1_555
Na10 O14 2.673603 1_555
Na10 O42 2.802591 1_555
Na11 O89 2.410894 1_455
Na11 O130 2.457887 1_555
Na11 O126 2.462703 1_555
Na11 O86 2.473272 1_565
Na11 O58 2.690156 1_555
Na11 O25 2.780229 1_455
Na11 O16 2.809689 1_555
Na11 O45 2.854346 1_455
Na12 O110 2.347566 1_555
Na12 O81 2.399763 1_555
Na12 O82 2.537042 1_555
Na12 O108 2.542149 1_555
Na12 O38 2.667924 1_556
Na12 O8 2.744331 1_555
Na12 O53 2.759900 1_555
Na12 O67 2.865886 1_555
Na13 O80 2.321630 1_655
Na13 O111 2.452955 1_555
Na13 O109 2.530237 1_555
Na13 O83 2.569680 1_555
Na13 O52 2.752803 1_655
Na13 O39 2.762189 1_556
Na13 O9 2.830245 1_555
Na13 O66 2.830455 1_655
Na14 O78 2.392383 1_655
Na14 O113 2.442800 1_555
Na14 O83 2.443280 1_545
Na14 O111 2.582865 1_555
Na14 O11 2.629201 1_555
Na14 O41 2.823170 1_556
Na14 O69 2.824710 1_545
Na14 O49 2.847790 1_545
Na15 O77 2.317459 1_555
Na15 O118 2.446676 1_555
Na15 O74 2.562281 1_545
Na15 O114 2.590687 1_555
Na15 O46 2.745967 1_555
Na15 O57 2.749335 1_555
Na15 O4 2.816966 1_555
Na15 O61 2.823745 1_555
Na16 O72 2.378912 1_545
Na16 O76 2.467258 1_555
Na16 O114 2.473091 1_555
Na16 O116 2.568854 1_555
Na16 O42 2.692464 1_555
Na16 O58 2.748810 1_545
Na16 O62 2.784236 1_545
Na16 O0 2.836442 1_555
Na17 O73 2.384447 1_555
Na17 O116 2.456736 1_555
Na17 O74 2.481801 1_555
Na17 O118 2.568740 1_555
Na17 O2 2.621144 1_555
Na17 O44 2.807435 1_555
Na17 O54 2.811567 1_555
Na17 O64 2.812012 1_555
Na18 O85 2.440200 1_555
Na18 O76 2.537762 1_655
Na18 O75 2.557207 1_545
Na18 O72 2.594210 1_645
Na18 O86 2.614203 1_655
Na18 O89 2.667125 1_545
Na19 O73 2.445983 1_545
Na19 O77 2.474116 1_555
Na19 O87 2.564972 1_555
Na19 O74 2.611617 1_545
Na19 O88 2.677636 1_545
Na19 O84 2.691194 1_555
Na20 O78 2.440834 1_555
Na20 O80 2.474612 1_545
Na20 O94 2.562030 1_556
Na20 O83 2.595207 1_445
Na20 O93 2.669482 1_456
Na20 O91 2.714069 1_446
Na21 O90 2.457704 1_545
Na21 O79 2.521168 1_554
Na21 O81 2.548515 1_544
Na21 O95 2.612285 1_555
Na21 O92 2.623087 1_555
Na21 O82 2.654996 1_544
Na22 O96 2.443880 1_555
Na22 O98 2.502678 1_555
Na22 O112 2.552030 1_555
Na22 O110 2.598518 1_555
Na22 O100 2.627251 1_555
Na22 O108 2.735569 1_555
Na23 O97 2.541492 1_555
Na23 O113 2.590808 1_555
Na23 O109 2.613816 1_555
Na23 O111 2.622749 1_555
Na23 O101 2.643986 1_555
Na23 O99 2.689410 1_555
Na24 O102 2.480658 1_555
Na24 O116 2.589499 1_555
Na24 O118 2.606530 1_555
Na24 O104 2.622034 1_555
Na24 O114 2.634362 1_555
Na24 O106 2.705565 1_555
Na25 O119 2.526426 1_555
Na25 O117 2.543956 1_555
Na25 O103 2.561187 1_555
Na25 O107 2.584551 1_555
Na25 O105 2.596642 1_555
Na25 O115 2.697771 1_555
Na26 O134 2.516691 1_555
Na26 O124 2.536307 1_555
Na26 O120 2.569954 1_555
Na26 O136 2.615968 1_555
Na26 O122 2.637988 1_555
Na26 O132 2.712025 1_555
Na27 O123 2.408347 1_555
Na27 O133 2.586293 1_555
Na27 O125 2.601003 1_555
Na27 O135 2.633586 1_555
Na27 O121 2.642422 1_555
Na27 O137 2.665085 1_555
Na28 O126 2.477214 1_555
Na28 O142 2.537394 1_555
Na28 O130 2.563416 1_555
Na28 O128 2.608130 1_555
Na28 O138 2.632763 1_555
Na28 O140 2.650291 1_555
Na29 O143 2.505158 1_555
Na29 O129 2.555712 1_555
Na29 O127 2.581333 1_555
Na29 O141 2.595527 1_555
Na29 O131 2.621686 1_555
Na29 O139 2.726591 1_555
O0 S0 1.498069 1_555
O0 Sn0 2.229086 1_445
O1 Si0 1.623909 1_545
O1 Sn1 1.975629 1_545
O2 Si1 1.642252 1_555
O2 Sn1 2.031061 1_555
O3 Si2 1.630790 1_555
O3 Sn0 1.984628 1_555
O4 S1 1.482767 1_555
O4 Sn1 2.257419 1_545
O5 Si3 1.634998 1_655
O5 Sn0 1.982214 1_545
O6 Si4 1.623136 1_555
O6 Sn2 1.981854 1_555
O7 S2 1.490710 1_555
O7 Sn3 2.172558 1_555
O8 Si5 1.650511 1_555
O8 Sn3 2.024582 1_565
O9 S3 1.475936 1_555
O9 Sn2 2.251750 1_665
O10 Si6 1.626686 1_545
O10 Sn3 1.964893 1_555
O11 Si7 1.640808 1_545
O11 Sn2 2.031162 1_655
O12 Si6 1.657465 1_555
O12 Sn5 1.978215 1_555
O13 Si7 1.638284 1_555
O13 Sn4 1.960271 1_565
O14 Si4 1.656992 1_555
O14 Sn4 2.020995 1_455
O15 S2 1.508096 1_555
O15 Sn5 2.137530 1_545
O16 S3 1.498839 1_455
O16 Sn4 2.260216 1_465
O17 Si5 1.659487 1_555
O17 Sn5 1.976809 1_555
O18 Si1 1.631266 1_555
O18 Sn7 1.956144 1_555
O19 Si2 1.656363 1_555
O19 Sn6 1.978610 1_565
O20 Si3 1.656566 1_555
O20 Sn6 1.972957 1_455
O21 S1 1.491091 1_555
O21 Sn7 2.274287 1_545
O22 S0 1.506330 1_565
O22 Sn6 2.155975 1_465
O23 Si0 1.639954 1_555
O23 Sn7 1.989443 1_555
O24 S4 1.457775 1_555
O24 Zn0 2.191050 1_555
O25 Si8 1.614122 1_555
O25 Zn1 1.915749 1_555
O26 Si9 1.584397 1_555
O26 Zn0 1.964831 1_555
O27 S5 1.480088 1_555
O27 Zn1 2.069027 1_555
O28 S6 1.457769 1_555
O28 Zn0 2.287706 1_555
O29 S7 1.463024 1_555
O29 Zn1 2.211852 1_555
O30 Si10 1.606103 1_555
O30 Zn2 1.898532 1_555
O31 S8 1.462504 1_555
O31 Zn3 2.155774 1_555
O32 S9 1.464026 1_555
O32 Zn2 2.178099 1_555
O33 S10 1.458546 1_555
O33 Zn3 2.214808 1_555
O34 S11 1.477855 1_555
O34 Zn2 2.091316 1_555
O35 S12 1.461125 1_555
O35 Zn3 2.192399 1_555
O36 S11 1.498163 1_555
O36 Sn8 2.195160 1_554
O37 S12 1.512573 1_555
O37 Sn9 2.113327 1_554
O38 Si10 1.668282 1_555
O38 Sn8 2.003346 1_554
O39 S8 1.523864 1_555
O39 Sn9 2.175744 1_554
O40 S9 1.514320 1_555
O40 Sn8 2.090368 1_554
O41 S10 1.508288 1_555
O41 Sn9 2.187872 1_554
O42 Si9 1.675224 1_555
O42 Sn10 2.011875 1_555
O43 S5 1.494207 1_555
O43 Sn11 2.202880 1_555
O44 S6 1.501587 1_555
O44 Sn10 2.190560 1_555
O45 S7 1.518143 1_555
O45 Sn11 2.134812 1_555
O46 S4 1.524750 1_555
O46 Sn10 2.191761 1_555
O47 Si8 1.635076 1_555
O47 Sn11 1.977020 1_555
O48 S13 1.440958 1_555
O48 Zn4 2.131897 1_556
O49 Si11 1.638876 1_555
O49 Sn12 2.007253 1_556
O50 Si12 1.570878 1_555
O50 Zn4 1.894536 1_556
O51 Si13 1.618348 1_555
O51 Sn12 1.968403 1_556
O52 Si14 1.589254 1_555
O52 Zn4 1.898023 1_556
O53 Si15 1.616282 1_555
O53 Sn12 1.999494 1_556
O54 Si16 1.632938 1_555
O54 Sn13 2.005554 1_555
O55 S14 1.442523 1_555
O55 Zn5 2.134035 1_555
O56 Si17 1.627086 1_555
O56 Sn13 2.032724 1_555
O57 Si18 1.588702 1_555
O57 Zn5 1.896108 1_555
O58 Si19 1.647455 1_555
O58 Sn13 2.008493 1_555
O59 Si20 1.571899 1_555
O59 Zn5 1.890025 1_555
O60 Si19 1.637959 1_555
O60 Sn14 2.017845 1_555
O61 Si20 1.679771 1_555
O61 Sn15 2.018312 1_555
O62 Si16 1.631825 1_555
O62 Sn14 2.010516 1_555
O63 S14 1.516592 1_555
O63 Sn15 2.137269 1_555
O64 Si17 1.633594 1_555
O64 Sn14 2.011023 1_555
O65 Si18 1.677788 1_555
O65 Sn15 2.004732 1_555
O66 Si12 1.678875 1_555
O66 Sn16 2.019135 1_555
O67 Si13 1.656251 1_555
O67 Sn17 2.035897 1_555
O68 Si14 1.675480 1_555
O68 Sn16 1.997510 1_555
O69 Si15 1.640694 1_555
O69 Sn17 2.026527 1_555
O70 S13 1.512905 1_555
O70 Sn16 2.138211 1_555
O71 Si11 1.624168 1_555
O71 Sn17 1.992149 1_555
O72 Si19 1.654940 1_555
O72 Sn0 2.029768 1_455
O73 Si20 1.632060 1_555
O73 Sn1 2.017245 1_555
O74 Si16 1.624950 1_555
O74 Sn1 2.080631 1_555
O75 S14 1.498323 1_555
O75 Sn0 2.129418 1_555
O76 Si17 1.634950 1_555
O76 Sn0 2.054137 1_445
O77 Si18 1.655154 1_555
O77 Sn1 2.022560 1_545
O78 Si12 1.633898 1_555
O78 Sn2 2.012034 1_555
O79 Si13 1.627941 1_555
O79 Sn3 1.996808 1_555
O80 Si14 1.656337 1_555
O80 Sn2 2.024387 1_565
O81 Si15 1.633821 1_555
O81 Sn3 2.034875 1_565
O82 S13 1.499601 1_555
O82 Sn3 2.189464 1_565
O83 Si11 1.646451 1_555
O83 Sn2 2.089720 1_665
O84 S4 1.539903 1_555
O84 Sn5 2.179588 1_545
O85 Si8 1.652863 1_555
O85 Sn4 2.027877 1_555
O86 Si9 1.697307 1_555
O86 Sn4 2.078919 1_455
O87 S5 1.546817 1_555
O87 Sn5 2.140548 1_545
O88 S6 1.505727 1_555
O88 Sn5 2.168388 1_555
O89 S7 1.530135 1_555
O89 Sn4 2.214212 1_565
O90 Si10 1.675090 1_555
O90 Sn7 1.996739 1_555
O91 S8 1.535404 1_555
O91 Sn6 2.185582 1_565
O92 S9 1.524898 1_555
O92 Sn7 2.171810 1_545
O93 S10 1.520607 1_555
O93 Sn6 2.166445 1_555
O94 S11 1.548861 1_555
O94 Sn6 2.140147 1_455
O95 S12 1.499100 1_555
O95 Sn7 2.274860 1_545
O96 Si6 1.602066 1_545
O96 Zn0 2.029133 1_555
O97 Si7 1.653495 1_545
O97 Zn1 2.052098 1_555
O98 Si4 1.601453 1_555
O98 Zn0 2.038751 1_555
O99 S2 1.463745 1_555
O99 Zn1 2.301679 1_555
O100 Si5 1.606281 1_555
O100 Zn0 2.089116 1_555
O101 S3 1.465348 1_555
O101 Zn1 2.292867 1_555
O102 Si1 1.651858 1_555
O102 Zn2 2.084051 1_555
O103 Si2 1.607126 1_555
O103 Zn3 2.012820 1_555
O104 S1 1.467788 1_555
O104 Zn2 2.289185 1_555
O105 Si3 1.606631 1_655
O105 Zn3 2.014626 1_555
O106 S0 1.463339 1_555
O106 Zn2 2.343112 1_555
O107 Si0 1.607299 1_545
O107 Zn3 1.994906 1_555
O108 S13 1.491524 1_555
O108 Sn8 2.272789 1_555
O109 Si11 1.641465 1_555
O109 Sn9 1.998351 1_555
O110 Si13 1.656597 1_555
O110 Sn8 2.040540 1_555
O111 Si12 1.684286 1_655
O111 Sn9 2.030548 1_555
O112 Si14 1.652992 1_545
O112 Sn8 1.991829 1_555
O113 Si15 1.637346 1_545
O113 Sn9 2.012227 1_555
O114 Si16 1.645744 1_545
O114 Sn10 2.037192 1_555
O115 S14 1.483753 1_545
O115 Sn11 2.188157 1_555
O116 Si17 1.658936 1_555
O116 Sn10 2.056396 1_555
O117 Si18 1.648002 1_555
O117 Sn11 1.986253 1_555
O118 Si20 1.688068 1_555
O118 Sn10 2.038673 1_555
O119 Si19 1.619201 1_655
O119 Sn11 2.015303 1_555
O120 S11 1.459427 1_555
O120 Zn4 2.396317 1_555
O121 S12 1.486508 1_555
O121 Sn12 2.271905 1_555
O122 S8 1.460015 1_455
O122 Zn4 2.244570 1_555
O123 Si10 1.667792 1_555
O123 Sn12 2.001856 1_555
O124 S9 1.470357 1_565
O124 Zn4 2.322672 1_555
O125 S10 1.479522 1_565
O125 Sn12 2.310791 1_555
O126 Si9 1.647951 1_565
O126 Sn13 2.060940 1_555
O127 S5 1.459732 1_565
O127 Zn5 2.383003 1_555
O128 S6 1.492409 1_555
O128 Sn13 2.307542 1_555
O129 S7 1.462050 1_555
O129 Zn5 2.319520 1_555
O130 Si8 1.675674 1_455
O130 Sn13 2.065822 1_555
O131 S4 1.462521 1_555
O131 Zn5 2.226554 1_555
O132 S0 1.481482 1_565
O132 Sn14 2.300507 1_555
O133 Si0 1.669376 1_555
O133 Sn15 2.086127 1_555
O134 Si1 1.645740 1_555
O134 Sn14 2.033329 1_555
O135 Si2 1.662328 1_555
O135 Sn15 2.076023 1_555
O136 Si3 1.650580 1_555
O136 Sn14 2.083421 1_555
O137 S1 1.523603 1_555
O137 Sn15 2.277984 1_555
O138 Si4 1.669140 1_555
O138 Sn16 2.070331 1_555
O139 S2 1.479708 1_555
O139 Sn17 2.291895 1_555
O140 S3 1.518069 1_455
O140 Sn16 2.279293 1_555
O141 Si5 1.655321 1_555
O141 Sn17 2.094447 1_555
O142 Si6 1.664230 1_555
O142 Sn16 2.077432 1_555
O143 Si7 1.644235 1_555
O143 Sn17 2.046272 1_555
