# generated using pymatgen
data_Na2MgV2Cd2O8
_symmetry_space_group_name_H-M   'P 1'
_cell_length_a   6.50051291
_cell_length_b   6.19468823
_cell_length_c   6.95929244
_cell_angle_alpha   92.80515485
_cell_angle_beta   78.52737125
_cell_angle_gamma   120.53184468
_symmetry_Int_Tables_number   1
_chemical_formula_structural   Na2MgV2Cd2O8
_chemical_formula_sum   'Na2 Mg1 V2 Cd2 O8'
_cell_volume   236.11100202
_cell_formula_units_Z   1
loop_
 _symmetry_equiv_pos_site_id
 _symmetry_equiv_pos_as_xyz
  1  'x, y, z'
loop_
 _atom_site_type_symbol
 _atom_site_label
 _atom_site_symmetry_multiplicity
 _atom_site_fract_x
 _atom_site_fract_y
 _atom_site_fract_z
 _atom_site_occupancy
  Na  Na0  1  0.69260039  0.49631579  0.03413732  1
  Na  Na1  1  0.57453344  0.47839607  0.55164688  1
  Mg  Mg0  1  0.17370958  0.42644369  -0.02268842  1
  V  V0  1  0.80806401  0.06881362  0.77420813  1
  V  V1  1  0.13883572  0.93129478  0.20312488  1
  Cd  Cd0  1  0.21873442  0.93196787  0.70947317  1
  Cd  Cd1  1  0.66445524  0.00775729  0.31318030  1
  O  O0  1  0.81246057  0.75768875  0.28927044  1
  O  O1  1  0.27784644  0.25955067  0.13772511  1
  O  O2  1  0.27618565  0.88542830  0.39380455  1
  O  O3  1  0.18805095  0.75682181  0.98654553  1
  O  O4  1  0.66745166  0.16221594  0.61995841  1
  O  O5  1  0.80764766  0.20573031  0.02366990  1
  O  O6  1  0.15732173  0.26132161  0.71938811  1
  O  O7  1  0.72067353  0.75120548  0.79433368  1
loop_
_geom_bond_atom_site_label_1
_geom_bond_atom_site_label_2
_geom_bond_distance
_geom_bond_site_symmetry_2
Na0 O5 2.266765 1_555
Na0 O7 2.270580 1_554
Na0 O1 2.291823 1_555
Na0 O0 2.316974 1_555
Na0 O3 2.726527 1_654
Na1 O0 2.277402 1_555
Na1 O7 2.310550 1_555
Na1 O6 2.390643 1_555
Na1 O4 2.415468 1_555
Mg0 O1 1.974345 1_555
Mg0 O3 1.999251 1_554
Mg0 O6 2.016227 1_554
Mg0 O5 2.016935 1_455
Cd0 O3 2.183327 1_555
Cd0 O2 2.183962 1_555
Cd0 O6 2.264850 1_565
Cd0 O4 2.463275 1_565
Cd1 O5 2.183066 1_555
Cd1 O0 2.185962 1_545
Cd1 O2 2.189606 1_545
Cd1 O4 2.295996 1_555
O0 V1 1.804463 1_655
O1 V1 1.794051 1_545
O2 V1 1.845206 1_555
O3 V1 1.882104 1_556
O4 V0 1.819634 1_555
O5 V0 1.894645 1_554
O6 V0 1.916058 1_455
O7 V0 1.753006 1_565
