# generated using pymatgen
data_MgV4O10
_symmetry_space_group_name_H-M   'P 1'
_cell_length_a   4.91609105
_cell_length_b   5.39144157
_cell_length_c   6.63017987
_cell_angle_alpha   102.50314261
_cell_angle_beta   111.88514913
_cell_angle_gamma   88.35407132
_symmetry_Int_Tables_number   1
_chemical_formula_structural   MgV4O10
_chemical_formula_sum   'Mg1 V4 O10'
_cell_volume   158.93773505
_cell_formula_units_Z   1
loop_
 _symmetry_equiv_pos_site_id
 _symmetry_equiv_pos_as_xyz
  1  'x, y, z'
loop_
 _atom_site_type_symbol
 _atom_site_label
 _atom_site_symmetry_multiplicity
 _atom_site_fract_x
 _atom_site_fract_y
 _atom_site_fract_z
 _atom_site_occupancy
  Mg  Mg0  1  0.22489000  0.84611800  0.93985000  1
  V  V0  1  0.37697800  0.27398500  0.29767900  1
  V  V1  1  0.10713300  0.23214700  0.69821100  1
  V  V2  1  0.60007200  0.71983200  0.69437900  1
  V  V3  1  0.88721700  0.75790300  0.28265900  1
  O  O0  1  0.71026900  0.37857900  0.58664900  1
  O  O1  1  0.13368200  0.14117300  0.39735300  1
  O  O2  1  0.26384200  0.62896200  0.39111100  1
  O  O3  1  0.89511700  0.87872500  0.61074100  1
  O  O4  1  0.88946900  0.74680500  0.00533600  1
  O  O5  1  0.14047500  0.23957200  0.01249900  1
  O  O6  1  0.31875600  0.51833800  0.77900000  1
  O  O7  1  0.55864800  0.98625200  0.23155900  1
  O  O8  1  0.67343200  0.49887900  0.22496600  1
  O  O9  1  0.44224300  0.00273000  0.77509100  1
loop_
_geom_bond_atom_site_label_1
_geom_bond_atom_site_label_2
_geom_bond_distance
_geom_bond_site_symmetry_2
Mg0 O4 1.969619 1_456
Mg0 O6 1.994317 1_555
Mg0 O7 2.019014 1_556
Mg0 O9 2.090304 1_565
Mg0 O5 2.135442 1_566
Mg0 O3 2.221045 1_455
O0 V2 1.962370 1_555
O0 V0 1.979497 1_555
O0 V1 2.016283 1_655
O1 V0 1.795377 1_555
O1 V1 2.000847 1_555
O1 V3 2.256731 1_445
O2 V3 1.891675 1_455
O2 V0 2.009536 1_555
O2 V2 2.038992 1_555
O3 V2 2.005476 1_555
O3 V1 2.058749 1_665
O3 V3 2.117183 1_555
O4 V3 1.830854 1_555
O4 V2 1.997807 1_554
O5 V0 1.784083 1_555
O5 V1 2.019966 1_554
O6 V1 1.751849 1_555
O6 V2 2.082353 1_555
O7 V0 1.820487 1_565
O7 V3 1.974328 1_555
O8 V3 1.659655 1_555
O8 V0 2.169099 1_555
O9 V2 1.761495 1_545
O9 V1 2.008396 1_555
