# generated using pymatgen
data_Rb3BiSe3
_symmetry_space_group_name_H-M   'P 1'
_cell_length_a   10.24403392
_cell_length_b   10.24403392
_cell_length_c   10.24403392
_cell_angle_alpha   90.00000000
_cell_angle_beta   90.00000000
_cell_angle_gamma   90.00000000
_symmetry_Int_Tables_number   1
_chemical_formula_structural   Rb3BiSe3
_chemical_formula_sum   'Rb12 Bi4 Se12'
_cell_volume   1075.01128547
_cell_formula_units_Z   4
loop_
 _symmetry_equiv_pos_site_id
 _symmetry_equiv_pos_as_xyz
  1  'x, y, z'
loop_
 _atom_site_type_symbol
 _atom_site_label
 _atom_site_symmetry_multiplicity
 _atom_site_fract_x
 _atom_site_fract_y
 _atom_site_fract_z
 _atom_site_occupancy
  Rb  Rb0  1  0.32076730  0.32076730  0.32076730  1
  Rb  Rb1  1  0.17923270  0.67923270  0.82076730  1
  Rb  Rb2  1  0.82076730  0.17923270  0.67923270  1
  Rb  Rb3  1  0.67923270  0.82076730  0.17923270  1
  Rb  Rb4  1  0.57205664  0.57205664  0.57205664  1
  Rb  Rb5  1  0.92794336  0.42794336  0.07205664  1
  Rb  Rb6  1  0.07205664  0.92794336  0.42794336  1
  Rb  Rb7  1  0.42794336  0.07205664  0.92794336  1
  Rb  Rb8  1  0.81281767  0.81281767  0.81281767  1
  Rb  Rb9  1  0.68718233  0.18718233  0.31281767  1
  Rb  Rb10  1  0.31281767  0.68718233  0.18718233  1
  Rb  Rb11  1  0.18718233  0.31281767  0.68718233  1
  Bi  Bi0  1  0.03105875  0.03105875  0.03105875  1
  Bi  Bi1  1  0.46894125  0.96894125  0.53105875  1
  Bi  Bi2  1  0.53105875  0.46894125  0.96894125  1
  Bi  Bi3  1  0.96894125  0.53105875  0.46894125  1
  Se  Se0  1  0.21761063  0.60589953  0.49727574  1
  Se  Se1  1  0.49727574  0.21761063  0.60589953  1
  Se  Se2  1  0.60589953  0.49727574  0.21761063  1
  Se  Se3  1  0.89410047  0.50272426  0.71761063  1
  Se  Se4  1  0.99727574  0.28238937  0.39410047  1
  Se  Se5  1  0.39410047  0.99727574  0.28238937  1
  Se  Se6  1  0.00272426  0.78238937  0.10589953  1
  Se  Se7  1  0.50272426  0.71761063  0.89410047  1
  Se  Se8  1  0.10589953  0.00272426  0.78238937  1
  Se  Se9  1  0.71761063  0.89410047  0.50272426  1
  Se  Se10  1  0.78238937  0.10589953  0.00272426  1
  Se  Se11  1  0.28238937  0.39410047  0.99727574  1
loop_
_geom_bond_atom_site_label_1
_geom_bond_atom_site_label_2
_geom_bond_distance
_geom_bond_site_symmetry_2
Rb0 Se11 3.420609 1_554
Rb0 Se5 3.420609 1_545
Rb0 Se4 3.420609 1_455
Rb0 Se0 3.594137 1_555
Rb0 Se1 3.594137 1_555
Rb0 Se2 3.594137 1_555
Rb1 Se8 3.420609 1_565
Rb1 Se0 3.420609 1_555
Rb1 Se7 3.420609 1_555
Rb1 Se3 3.594137 1_455
Rb1 Se11 3.594137 1_555
Rb1 Se6 3.594137 1_556
Rb2 Se10 3.420609 1_556
Rb2 Se1 3.420609 1_555
Rb2 Se3 3.420609 1_555
Rb2 Se9 3.594137 1_545
Rb2 Se4 3.594137 1_555
Rb2 Se8 3.594137 1_655
Rb3 Se6 3.420609 1_655
Rb3 Se2 3.420609 1_555
Rb3 Se9 3.420609 1_555
Rb3 Se7 3.594137 1_554
Rb3 Se5 3.594137 1_555
Rb3 Se10 3.594137 1_565
Rb4 Se3 3.689348 1_555
Rb4 Se9 3.689348 1_555
Rb4 Se7 3.689348 1_555
Rb4 Se1 3.727048 1_555
Rb4 Se2 3.727048 1_555
Rb4 Se0 3.727048 1_555
Rb5 Se4 3.689348 1_555
Rb5 Se10 3.689348 1_555
Rb5 Se2 3.689348 1_555
Rb5 Se6 3.727048 1_655
Rb5 Se11 3.727048 1_654
Rb5 Se3 3.727048 1_554
Rb6 Se5 3.689348 1_555
Rb6 Se6 3.689348 1_555
Rb6 Se0 3.689348 1_555
Rb6 Se8 3.727048 1_565
Rb6 Se4 3.727048 1_465
Rb6 Se9 3.727048 1_455
Rb7 Se11 3.689348 1_555
Rb7 Se8 3.689348 1_555
Rb7 Se1 3.689348 1_555
Rb7 Se10 3.727048 1_556
Rb7 Se7 3.727048 1_545
Rb7 Se5 3.727048 1_546
Rb8 Se7 3.425694 1_555
Rb8 Se9 3.425694 1_555
Rb8 Se3 3.425694 1_555
Rb8 Se8 3.591076 1_665
Rb8 Se10 3.591076 1_566
Rb8 Se6 3.591076 1_656
Rb9 Se4 3.425694 1_555
Rb9 Se10 3.425694 1_555
Rb9 Se2 3.425694 1_555
Rb9 Se1 3.591076 1_555
Rb9 Se9 3.591076 1_545
Rb9 Se5 3.591076 1_545
Rb10 Se5 3.425694 1_555
Rb10 Se6 3.425694 1_555
Rb10 Se0 3.425694 1_555
Rb10 Se7 3.591076 1_554
Rb10 Se2 3.591076 1_555
Rb10 Se11 3.591076 1_554
Rb11 Se11 3.425694 1_555
Rb11 Se8 3.425694 1_555
Rb11 Se1 3.425694 1_555
Rb11 Se3 3.591076 1_455
Rb11 Se0 3.591076 1_555
Rb11 Se4 3.591076 1_455
Bi0 Se10 2.676036 1_455
Bi0 Se6 2.676036 1_545
Bi0 Se8 2.676036 1_554
Bi1 Se9 2.676036 1_555
Bi1 Se5 2.676036 1_555
Bi1 Se1 2.676036 1_565
Bi2 Se7 2.676036 1_555
Bi2 Se11 2.676036 1_555
Bi2 Se2 2.676036 1_556
Bi3 Se3 2.676036 1_555
Bi3 Se4 2.676036 1_555
Bi3 Se0 2.676036 1_655
