# generated using pymatgen
data_HN
_symmetry_space_group_name_H-M   'P 1'
_cell_length_a   3.74637139
_cell_length_b   8.55668247
_cell_length_c   8.91059680
_cell_angle_alpha   90.00000000
_cell_angle_beta   90.00000000
_cell_angle_gamma   90.00000000
_symmetry_Int_Tables_number   1
_chemical_formula_structural   HN
_chemical_formula_sum   'H16 N16'
_cell_volume   285.64263898
_cell_formula_units_Z   16
loop_
 _symmetry_equiv_pos_site_id
 _symmetry_equiv_pos_as_xyz
  1  'x, y, z'
loop_
 _atom_site_type_symbol
 _atom_site_label
 _atom_site_symmetry_multiplicity
 _atom_site_fract_x
 _atom_site_fract_y
 _atom_site_fract_z
 _atom_site_occupancy
  H  H0  1  0.38989375  0.20713364  0.66410792  1
  H  H1  1  0.38989375  0.29286636  0.83589208  1
  H  H2  1  0.61010625  0.70713364  0.83589208  1
  H  H3  1  0.61010625  0.79286636  0.66410792  1
  H  H4  1  0.61010625  0.79286636  0.33589208  1
  H  H5  1  0.61010625  0.70713364  0.16410792  1
  H  H6  1  0.38989375  0.29286636  0.16410792  1
  H  H7  1  0.38989375  0.20713364  0.33589208  1
  H  H8  1  0.70855959  0.33918628  0.70943200  1
  H  H9  1  0.70855959  0.16081372  0.79056800  1
  H  H10  1  0.29144041  0.83918628  0.79056800  1
  H  H11  1  0.29144041  0.66081372  0.70943200  1
  H  H12  1  0.29144041  0.66081372  0.29056800  1
  H  H13  1  0.29144041  0.83918628  0.20943200  1
  H  H14  1  0.70855959  0.16081372  0.20943200  1
  H  H15  1  0.70855959  0.33918628  0.29056800  1
  N  N0  1  0.54853380  0.25000000  0.75000000  1
  N  N1  1  0.45146620  0.75000000  0.75000000  1
  N  N2  1  0.45146620  0.75000000  0.25000000  1
  N  N3  1  0.54853380  0.25000000  0.25000000  1
  N  N4  1  0.88175300  0.87215856  0.50000000  1
  N  N5  1  0.88175300  0.62784144  -0.00000000  1
  N  N6  1  0.11824700  0.37215856  -0.00000000  1
  N  N7  1  0.11824700  0.12784144  0.50000000  1
  N  N8  1  -0.00000000  0.50000000  -0.00000000  1
  N  N9  1  -0.00000000  0.00000000  0.50000000  1
  N  N10  1  -0.00000000  0.50000000  0.63243180  1
  N  N11  1  -0.00000000  0.00000000  0.86756820  1
  N  N12  1  -0.00000000  0.50000000  0.36756820  1
  N  N13  1  -0.00000000  0.00000000  0.13243180  1
  N  N14  1  -0.00000000  0.50000000  0.50000000  1
  N  N15  1  -0.00000000  0.00000000  -0.00000000  1
loop_
_geom_bond_atom_site_label_1
_geom_bond_atom_site_label_2
_geom_bond_distance
_geom_bond_site_symmetry_2
H0 N0 1.036108 1_555
H1 N0 1.036108 1_555
H2 N1 1.036108 1_555
H3 N1 1.036108 1_555
H4 N2 1.036108 1_555
H5 N2 1.036108 1_555
H6 N3 1.036108 1_555
H7 N3 1.036108 1_555
H8 N0 1.035602 1_555
H9 N0 1.035602 1_555
H10 N1 1.035602 1_555
H11 N1 1.035602 1_555
H12 N2 1.035602 1_555
H13 N2 1.035602 1_555
H14 N3 1.035602 1_555
H15 N3 1.035602 1_555
N4 N9 1.180195 1_665
N5 N8 1.180195 1_655
N6 N8 1.180195 1_555
N7 N9 1.180195 1_555
N10 N14 1.180046 1_555
N11 N15 1.180046 1_556
N12 N14 1.180046 1_555
N13 N15 1.180046 1_555
