# generated using pymatgen
data_Na2Zr4Zn4SiS11O48
_symmetry_space_group_name_H-M   'P 1'
_cell_length_a   17.69076500
_cell_length_b   8.86682408
_cell_length_c   23.06806025
_cell_angle_alpha   89.79018543
_cell_angle_beta   89.97312991
_cell_angle_gamma   119.94482161
_symmetry_Int_Tables_number   1
_chemical_formula_structural   Na2Zr4Zn4SiS11O48
_chemical_formula_sum   'Na6 Zr12 Zn12 Si3 S33 O144'
_cell_volume   3135.40164769
_cell_formula_units_Z   3
loop_
 _symmetry_equiv_pos_site_id
 _symmetry_equiv_pos_as_xyz
  1  'x, y, z'
loop_
 _atom_site_type_symbol
 _atom_site_label
 _atom_site_symmetry_multiplicity
 _atom_site_fract_x
 _atom_site_fract_y
 _atom_site_fract_z
 _atom_site_occupancy
  Na  Na0  1  0.99521362  0.98532455  0.48941999  1
  Na  Na1  1  0.49820219  0.00219312  0.99948783  1
  Na  Na2  1  0.33107309  0.32529144  0.83718765  1
  Na  Na3  1  0.84224127  0.34345933  0.83174142  1
  Na  Na4  1  0.33710327  0.33277976  0.32994355  1
  Na  Na5  1  0.84034953  0.34105835  0.34145428  1
  Zr  Zr0  1  0.49949665  0.00844465  0.35609521  1
  Zr  Zr1  1  0.49677705  0.00644473  0.85462265  1
  Zr  Zr2  1  0.99977726  0.99551442  0.64987948  1
  Zr  Zr3  1  0.50059445  0.00209598  0.64001520  1
  Zr  Zr4  1  0.00098898  0.00226345  0.14497429  1
  Zr  Zr5  1  0.50038267  0.00877066  0.14980687  1
  Zr  Zr6  1  0.16333116  0.66380111  0.01842594  1
  Zr  Zr7  1  0.66489180  0.65583811  0.02131493  1
  Zr  Zr8  1  0.16053808  0.66619008  0.52036928  1
  Zr  Zr9  1  0.15772096  0.66049097  0.31291341  1
  Zr  Zr10  1  0.66640124  0.66272397  0.31141079  1
  Zr  Zr11  1  0.66402633  0.65926488  0.81169272  1
  Zn  Zn0  1  0.99676610  0.98467753  0.35577340  1
  Zn  Zn1  1  0.00569882  0.00462274  0.85353555  1
  Zn  Zn2  1  0.33097488  0.33111437  0.68227971  1
  Zn  Zn3  1  0.83569807  0.33842577  0.67818984  1
  Zn  Zn4  1  0.33800372  0.33034683  0.18537158  1
  Zn  Zn5  1  0.83533783  0.33485884  0.18375088  1
  Zn  Zn6  1  0.33537755  0.32755747  0.97946689  1
  Zn  Zn7  1  0.83985916  0.33934845  0.98272036  1
  Zn  Zn8  1  0.33753421  0.34065410  0.48461847  1
  Zn  Zn9  1  0.83830283  0.34172973  0.48012336  1
  Zn  Zn10  1  0.67014293  0.67472444  0.52173343  1
  Zn  Zn11  1  0.15980285  0.66063410  0.81120668  1
  Si  Si0  1  0.49379846  0.29477780  0.25081145  1
  Si  Si1  1  0.51483926  0.37526752  0.91737688  1
  Si  Si2  1  0.01200135  0.66570787  0.41734708  1
  S  S0  1  0.14578467  0.00771720  0.25112005  1
  S  S1  1  0.64945182  0.00867728  0.25033054  1
  S  S2  1  0.35390714  0.70486250  0.25131324  1
  S  S3  1  0.85720951  0.70491002  0.25022431  1
  S  S4  1  0.99552934  0.28242791  0.25148286  1
  S  S5  1  0.14864761  0.29388808  0.75246710  1
  S  S6  1  0.64824840  0.28713024  0.74885672  1
  S  S7  1  0.99747962  0.70193384  0.75347792  1
  S  S8  1  0.49704346  0.70658719  0.74937194  1
  S  S9  1  0.35156931  0.00004309  0.74843212  1
  S  S10  1  0.85642853  0.00972835  0.75280516  1
  S  S11  1  0.47862527  0.34368783  0.58290549  1
  S  S12  1  0.97640695  0.32744340  0.58401841  1
  S  S13  1  0.19053064  0.04920771  0.58314996  1
  S  S14  1  0.69388632  0.04590316  0.58254903  1
  S  S15  1  0.33173418  0.61646714  0.58323227  1
  S  S16  1  0.83106986  0.62182128  0.58336326  1
  S  S17  1  0.47637934  0.62426966  0.08227210  1
  S  S18  1  0.97565486  0.61924615  0.08375954  1
  S  S19  1  0.33247928  0.04214818  0.08197709  1
  S  S20  1  0.83276741  0.04904933  0.08362473  1
  S  S21  1  0.19370389  0.33592487  0.08319389  1
  S  S22  1  0.69159860  0.32882865  0.08272488  1
  S  S23  1  0.30863419  0.65972777  0.91481713  1
  S  S24  1  0.81537518  0.66752580  0.91622800  1
  S  S25  1  0.01830514  0.37183471  0.91413588  1
  S  S26  1  0.16591661  0.95751732  0.91341761  1
  S  S27  1  0.66985999  0.96264989  0.91653652  1
  S  S28  1  0.31012081  0.96091604  0.41717390  1
  S  S29  1  0.81156557  0.95853066  0.41832601  1
  S  S30  1  0.16958918  0.37546505  0.41695909  1
  S  S31  1  0.66878432  0.37970000  0.41933751  1
  S  S32  1  0.51984389  0.66039992  0.41823569  1
  O  O0  1  0.10392912  0.02966877  0.30215259  1
  O  O1  1  0.60448320  0.02803638  0.30165904  1
  O  O2  1  0.41063444  0.79146110  0.30236644  1
  O  O3  1  0.91034779  0.78485444  0.30131114  1
  O  O4  1  0.48544481  0.16734358  0.30569000  1
  O  O5  1  0.98501729  0.17812537  0.30282723  1
  O  O6  1  0.10781426  0.18247185  0.80362230  1
  O  O7  1  0.60370814  0.17864998  0.80167227  1
  O  O8  1  0.48724504  0.79345806  0.80202332  1
  O  O9  1  0.98293125  0.78503747  0.80391479  1
  O  O10  1  0.40992065  0.02610681  0.80132058  1
  O  O11  1  0.91018370  0.03276500  0.80370049  1
  O  O12  1  0.39846440  0.98025436  0.69766979  1
  O  O13  1  0.89692252  0.98115373  0.69941579  1
  O  O14  1  0.09224176  0.20236477  0.69936679  1
  O  O15  1  0.59277230  0.20372331  0.69792274  1
  O  O16  1  0.00857808  0.81349077  0.69967847  1
  O  O17  1  0.50897107  0.81630692  0.69781334  1
  O  O18  1  0.39769222  0.81413334  0.19853220  1
  O  O19  1  0.89856600  0.81491876  0.19687498  1
  O  O20  1  0.00752591  0.19900316  0.19798884  1
  O  O21  1  0.51098462  0.20109510  0.19400565  1
  O  O22  1  0.09002566  0.97695287  0.19781037  1
  O  O23  1  0.59450731  0.97811788  0.19753811  1
  O  O24  1  0.43853982  0.36692303  0.63562012  1
  O  O25  1  0.94111519  0.35777550  0.63717527  1
  O  O26  1  0.24026790  0.12376845  0.63604319  1
  O  O27  1  0.74439143  0.12212053  0.63602688  1
  O  O28  1  0.31766365  0.51371892  0.63580511  1
  O  O29  1  0.81948023  0.52146996  0.63720981  1
  O  O30  1  0.44045087  0.52308166  0.13523487  1
  O  O31  1  0.93934137  0.51377732  0.13597998  1
  O  O32  1  0.31799657  0.11292985  0.13481934  1
  O  O33  1  0.81716577  0.12253022  0.13585744  1
  O  O34  1  0.24544847  0.36666122  0.13567720  1
  O  O35  1  0.74015797  0.34978409  0.13580581  1
  O  O36  1  0.22930177  0.30160713  0.03099401  1
  O  O37  1  0.73011498  0.30485180  0.02985600  1
  O  O38  1  0.42395192  0.54898410  0.03020070  1
  O  O39  1  0.92317035  0.54939022  0.03149222  1
  O  O40  1  0.34995515  0.14923648  0.02998436  1
  O  O41  1  0.85058665  0.15594189  0.03139204  1
  O  O42  1  0.22734009  0.15356237  0.53055621  1
  O  O43  1  0.72957038  0.15734850  0.53134082  1
  O  O44  1  0.35012443  0.54587762  0.53135799  1
  O  O45  1  0.85136083  0.55087551  0.53222909  1
  O  O46  1  0.42270251  0.30006659  0.53132287  1
  O  O47  1  0.92399464  0.29590161  0.53224883  1
  O  O48  1  0.27000805  0.69128239  0.96828653  1
  O  O49  1  0.77121583  0.68981129  0.96888146  1
  O  O50  1  0.07350615  0.46219967  0.96787533  1
  O  O51  1  0.57887413  0.46845678  0.97334058  1
  O  O52  1  0.15625580  0.84606646  0.96752865  1
  O  O53  1  0.65751430  0.85512180  0.96881599  1
  O  O54  1  0.27005408  0.85362926  0.46952390  1
  O  O55  1  0.77139929  0.84937594  0.46989944  1
  O  O56  1  0.16151959  0.46736711  0.46908096  1
  O  O57  1  0.65253109  0.45503246  0.47004363  1
  O  O58  1  0.07703149  0.68480890  0.47274420  1
  O  O59  1  0.57185587  0.68875373  0.46988250  1
  O  O60  1  0.06632863  0.64475986  0.36065896  1
  O  O61  1  0.56360170  0.63846014  0.36519755  1
  O  O62  1  0.25746238  0.87336022  0.36475152  1
  O  O63  1  0.75803515  0.86771061  0.36483029  1
  O  O64  1  0.18219381  0.48768338  0.36416868  1
  O  O65  1  0.67931706  0.48636320  0.36548452  1
  O  O66  1  0.05911273  0.48426509  0.86353946  1
  O  O67  1  0.56882089  0.49404383  0.86049234  1
  O  O68  1  0.18154952  0.87551409  0.86311744  1
  O  O69  1  0.68039620  0.87783396  0.86391617  1
  O  O70  1  0.25916190  0.64643759  0.86306710  1
  O  O71  1  0.75701113  0.64281855  0.86476353  1
  O  O72  1  0.01310348  0.84792737  0.41538683  1
  O  O73  1  0.51082997  0.81698859  0.40645775  1
  O  O74  1  0.39677976  0.97158148  0.41104518  1
  O  O75  1  0.90001274  0.98223099  0.41118928  1
  O  O76  1  0.08903417  0.20903283  0.41179591  1
  O  O77  1  0.58912334  0.20244865  0.40915079  1
  O  O78  1  0.01256280  0.20218408  0.91034573  1
  O  O79  1  0.51143424  0.18487449  0.91092113  1
  O  O80  1  0.08486511  0.96392212  0.91024703  1
  O  O81  1  0.58778292  0.97263182  0.91023803  1
  O  O82  1  0.39935218  0.82187380  0.91125889  1
  O  O83  1  0.89945030  0.82263231  0.90870813  1
  O  O84  1  0.48752262  0.18061789  0.59313799  1
  O  O85  1  0.98919595  0.17208264  0.59213710  1
  O  O86  1  0.09935374  0.02232632  0.59026520  1
  O  O87  1  0.60266950  0.02676634  0.59345004  1
  O  O88  1  0.41078416  0.79580949  0.59215152  1
  O  O89  1  0.91241728  0.80430297  0.59259709  1
  O  O90  1  0.49001476  0.80586929  0.08876235  1
  O  O91  1  0.98811710  0.79785265  0.09291581  1
  O  O92  1  0.41074163  0.01459335  0.08857733  1
  O  O93  1  0.91090406  0.02628521  0.09328906  1
  O  O94  1  0.10299012  0.18199929  0.09332862  1
  O  O95  1  0.60048372  0.17179824  0.08740878  1
  O  O96  1  0.34692000  0.16058778  0.74371461  1
  O  O97  1  0.84433144  0.16055603  0.74398950  1
  O  O98  1  0.23578116  0.31092619  0.74349180  1
  O  O99  1  0.73445750  0.30518752  0.74420218  1
  O  O100  1  0.42133988  0.53251938  0.74417135  1
  O  O101  1  0.91932260  0.52830594  0.74436316  1
  O  O102  1  0.34357840  0.53267809  0.24481702  1
  O  O103  1  0.84467154  0.52929295  0.24156224  1
  O  O104  1  0.40842434  0.31102051  0.24705400  1
  O  O105  1  0.92015456  0.30817635  0.24328677  1
  O  O106  1  0.23169751  0.16061889  0.24187842  1
  O  O107  1  0.73518707  0.16382579  0.24376039  1
  O  O108  1  0.31885878  0.50758755  0.92307596  1
  O  O109  1  0.81915192  0.50537300  0.92203936  1
  O  O110  1  0.42053161  0.35491913  0.91946109  1
  O  O111  1  0.93103784  0.35626429  0.92291775  1
  O  O112  1  0.24256956  0.13134227  0.92265301  1
  O  O113  1  0.74561219  0.13726286  0.92210954  1
  O  O114  1  0.32074935  0.13477130  0.42215517  1
  O  O115  1  0.81412635  0.12706857  0.42112814  1
  O  O116  1  0.24830640  0.35919975  0.42208449  1
  O  O117  1  0.74476941  0.35654371  0.42202302  1
  O  O118  1  0.43181265  0.50445522  0.42136794  1
  O  O119  1  0.92093895  0.48671548  0.41925235  1
  O  O120  1  0.17923153  0.48768388  0.07307334  1
  O  O121  1  0.68070120  0.48603011  0.07705620  1
  O  O122  1  0.06503609  0.64325535  0.07477212  1
  O  O123  1  0.56688722  0.64954435  0.07399170  1
  O  O124  1  0.25556860  0.86391817  0.07270000  1
  O  O125  1  0.75694685  0.87130454  0.07431096  1
  O  O126  1  0.18080350  0.87239505  0.57614097  1
  O  O127  1  0.67814987  0.86886720  0.57538433  1
  O  O128  1  0.25616098  0.64235085  0.57418910  1
  O  O129  1  0.75587900  0.64647072  0.57594859  1
  O  O130  1  0.06644118  0.48104438  0.57619216  1
  O  O131  1  0.56618582  0.49093721  0.57454189  1
  O  O132  1  0.15428849  0.84755963  0.25622749  1
  O  O133  1  0.65697712  0.85127133  0.25787999  1
  O  O134  1  0.26963780  0.69868953  0.25851414  1
  O  O135  1  0.77048004  0.69430754  0.25580169  1
  O  O136  1  0.07785193  0.45672862  0.25490578  1
  O  O137  1  0.58346165  0.47897410  0.26087498  1
  O  O138  1  0.15400623  0.46379397  0.75679958  1
  O  O139  1  0.65528034  0.46063934  0.75622662  1
  O  O140  1  0.07795132  0.69322450  0.75661509  1
  O  O141  1  0.57883566  0.69796999  0.75609070  1
  O  O142  1  0.26840453  0.84356410  0.75688920  1
  O  O143  1  0.76906867  0.84757481  0.75900141  1
loop_
_geom_bond_atom_site_label_1
_geom_bond_atom_site_label_2
_geom_bond_distance
_geom_bond_site_symmetry_2
Na0 O72 2.213730 1_655
Na0 O75 2.459876 1_555
Na0 O76 2.565190 1_665
Na0 O89 2.829885 1_555
Na0 O86 2.884379 1_665
Na0 O85 2.927876 1_565
Na1 O79 2.539574 1_555
Na1 O92 2.607315 1_556
Na1 O95 2.637858 1_556
Na1 O82 2.644353 1_545
Na1 O90 2.648413 1_546
Na1 O81 2.689696 1_545
Na2 O110 2.401457 1_555
Na2 O112 2.565137 1_555
Na2 O108 2.637536 1_555
Na2 O96 2.700363 1_555
Na2 O98 2.705686 1_555
Na2 O100 2.751171 1_555
Na3 O101 2.520041 1_555
Na3 O111 2.594427 1_555
Na3 O97 2.610174 1_555
Na3 O109 2.678319 1_555
Na3 O99 2.681682 1_555
Na3 O113 2.731136 1_555
Na4 O104 2.351333 1_555
Na4 O102 2.604320 1_555
Na4 O118 2.655716 1_555
Na4 O106 2.668119 1_555
Na4 O114 2.675054 1_555
Na4 O116 2.721812 1_555
Na5 O119 2.258876 1_555
Na5 O115 2.507635 1_555
Na5 O117 2.561818 1_555
Na5 O105 2.760274 1_555
Na5 O103 2.818809 1_555
Na5 O107 2.849663 1_555
O0 S0 1.454907 1_555
O0 Zn0 2.126579 1_445
O1 S1 1.483656 1_555
O1 Zr0 2.175017 1_555
O2 S2 1.490679 1_555
O2 Zr0 2.169994 1_565
O3 S3 1.454953 1_555
O3 Zn0 2.090165 1_555
O4 Si0 1.650408 1_555
O4 Zr0 1.933079 1_555
O5 S4 1.453550 1_555
O5 Zn0 2.194969 1_545
O6 S5 1.472590 1_555
O6 Zn1 2.053459 1_555
O7 S6 1.504767 1_555
O7 Zr1 2.121905 1_555
O8 S8 1.496155 1_555
O8 Zr1 2.183169 1_565
O9 S7 1.469091 1_555
O9 Zn1 2.120664 1_665
O10 S9 1.540317 1_555
O10 Zr1 2.042277 1_555
O11 S10 1.460601 1_555
O11 Zn1 2.158636 1_655
O12 S9 1.495383 1_565
O12 Zr3 2.171927 1_565
O13 S10 1.508924 1_565
O13 Zr2 2.097269 1_555
O14 S5 1.534510 1_555
O14 Zr2 2.089210 1_445
O15 S6 1.474268 1_555
O15 Zr3 2.179181 1_555
O16 S7 1.534299 1_455
O16 Zr2 2.046036 1_455
O17 S8 1.480511 1_555
O17 Zr3 2.177436 1_565
O18 S2 1.504131 1_555
O18 Zr5 2.096659 1_565
O19 S3 1.509696 1_555
O19 Zr4 2.110562 1_665
O20 S4 1.509353 1_455
O20 Zr4 2.089605 1_555
O21 Si0 1.661122 1_555
O21 Zr5 1.917394 1_555
O22 S0 1.514822 1_565
O22 Zr4 2.090367 1_565
O23 S1 1.497296 1_565
O23 Zr5 2.123734 1_565
O24 S11 1.473406 1_555
O24 Zn2 2.067070 1_555
O25 S12 1.461196 1_555
O25 Zn3 2.019952 1_555
O26 S13 1.458153 1_555
O26 Zn2 2.040433 1_555
O27 S14 1.476884 1_555
O27 Zn3 2.038605 1_555
O28 S15 1.458756 1_555
O28 Zn2 2.048056 1_555
O29 S16 1.478585 1_555
O29 Zn3 2.015950 1_555
O30 S17 1.457250 1_555
O30 Zn4 2.105774 1_555
O31 S18 1.459322 1_555
O31 Zn5 2.046378 1_555
O32 S19 1.453018 1_555
O32 Zn4 2.130077 1_555
O33 S20 1.462003 1_555
O33 Zn5 2.068761 1_555
O34 S21 1.460272 1_555
O34 Zn4 2.150394 1_555
O35 S22 1.454350 1_555
O35 Zn5 2.073423 1_555
O36 S21 1.460287 1_555
O36 Zn6 2.133566 1_554
O37 S22 1.463763 1_555
O37 Zn7 2.108989 1_554
O38 S17 1.462019 1_555
O38 Zn6 2.151037 1_554
O39 S18 1.460086 1_555
O39 Zn7 2.045271 1_554
O40 S19 1.460797 1_555
O40 Zn6 2.078075 1_554
O41 S20 1.463726 1_555
O41 Zn7 2.058198 1_554
O42 S13 1.463441 1_555
O42 Zn8 2.105193 1_555
O43 S14 1.462319 1_555
O43 Zn9 2.147790 1_555
O44 S15 1.462176 1_555
O44 Zn8 2.033055 1_555
O45 S16 1.465067 1_555
O45 Zn9 2.127450 1_555
O46 S11 1.471971 1_555
O46 Zn8 2.024943 1_555
O47 S12 1.452141 1_555
O47 Zn9 2.126545 1_555
O48 S23 1.503058 1_555
O48 Zr6 2.120248 1_556
O49 S24 1.509836 1_555
O49 Zr7 2.126322 1_556
O50 S25 1.536123 1_555
O50 Zr6 2.064343 1_556
O51 Si1 1.645408 1_555
O51 Zr7 1.947262 1_556
O52 S26 1.544677 1_555
O52 Zr6 2.047974 1_556
O53 S27 1.481412 1_555
O53 Zr7 2.195614 1_556
O54 S28 1.477607 1_555
O54 Zr8 2.158821 1_555
O55 S29 1.470113 1_555
O55 Zn10 2.061965 1_555
O56 S30 1.501068 1_555
O56 Zr8 2.133966 1_555
O57 S31 1.447125 1_555
O57 Zn10 2.173681 1_555
O58 Si2 1.671426 1_555
O58 Zr8 1.913189 1_555
O59 S32 1.449670 1_555
O59 Zn10 2.164777 1_555
O60 Si2 1.687322 1_555
O60 Zr9 1.902271 1_555
O61 S32 1.511690 1_555
O61 Zr10 2.120943 1_555
O62 S28 1.489568 1_555
O62 Zr9 2.190796 1_555
O63 S29 1.521575 1_555
O63 Zr10 2.127620 1_555
O64 S30 1.513976 1_555
O64 Zr9 2.140725 1_555
O65 S31 1.512516 1_555
O65 Zr10 2.096709 1_555
O66 S25 1.466100 1_555
O66 Zn11 2.068597 1_555
O67 Si1 1.651570 1_555
O67 Zr11 1.942417 1_555
O68 S26 1.469068 1_555
O68 Zn11 2.120734 1_555
O69 S27 1.490022 1_555
O69 Zr11 2.179030 1_555
O70 S23 1.450520 1_555
O70 Zn11 2.181382 1_555
O71 S24 1.516808 1_555
O71 Zr11 2.113297 1_555
O72 Si2 1.606534 1_555
O72 Zn0 1.944966 1_455
O73 S32 1.498445 1_555
O73 Zr0 2.144140 1_565
O74 S28 1.494716 1_555
O74 Zr0 2.101777 1_565
O75 S29 1.480129 1_555
O75 Zn0 2.127206 1_555
O76 S30 1.457646 1_555
O76 Zn0 2.251880 1_445
O77 S31 1.517623 1_555
O77 Zr0 2.065262 1_555
O78 S25 1.459172 1_555
O78 Zn1 2.146010 1_555
O79 Si1 1.666160 1_555
O79 Zr1 1.965380 1_555
O80 S26 1.464889 1_555
O80 Zn1 2.075082 1_565
O81 S27 1.505214 1_555
O81 Zr1 2.192899 1_565
O82 S23 1.531305 1_555
O82 Zr1 2.126511 1_565
O83 S24 1.445555 1_555
O83 Zn1 2.170581 1_665
O84 S11 1.547869 1_555
O84 Zr3 2.020300 1_555
O85 S12 1.514339 1_555
O85 Zr2 2.130239 1_545
O86 S13 1.516948 1_555
O86 Zr2 2.151296 1_445
O87 S14 1.556273 1_555
O87 Zr3 2.016099 1_555
O88 S15 1.519636 1_555
O88 Zr3 2.050419 1_565
O89 S16 1.553253 1_555
O89 Zr2 2.100359 1_555
O90 S17 1.512421 1_555
O90 Zr5 2.223219 1_565
O91 S18 1.501721 1_555
O91 Zr4 2.093612 1_665
O92 S19 1.528858 1_555
O92 Zr5 2.143781 1_555
O93 S20 1.509865 1_555
O93 Zr4 2.084583 1_655
O94 S21 1.517722 1_555
O94 Zr4 2.080489 1_555
O95 S22 1.518777 1_555
O95 Zr5 2.173525 1_555
O96 S9 1.469961 1_555
O96 Zn2 2.187395 1_555
O97 S10 1.469513 1_555
O97 Zn3 2.244502 1_555
O98 S5 1.486194 1_555
O98 Zn2 2.134690 1_555
O99 S6 1.455696 1_555
O99 Zn3 2.254032 1_555
O100 S8 1.458793 1_555
O100 Zn2 2.225729 1_555
O101 S7 1.484470 1_555
O101 Zn3 2.210820 1_555
O102 S2 1.452564 1_555
O102 Zn4 2.224914 1_555
O103 S3 1.473566 1_555
O103 Zn5 2.123868 1_555
O104 Si0 1.589513 1_555
O104 Zn4 1.954226 1_555
O105 S4 1.473014 1_555
O105 Zn5 2.132490 1_555
O106 S0 1.460807 1_555
O106 Zn4 2.158375 1_555
O107 S1 1.459836 1_555
O107 Zn5 2.157574 1_555
O108 S23 1.459646 1_555
O108 Zn6 2.185536 1_555
O109 S24 1.477886 1_555
O109 Zn7 2.187347 1_555
O110 Si1 1.586721 1_555
O110 Zn6 1.968501 1_555
O111 S25 1.493390 1_655
O111 Zn7 2.069372 1_555
O112 S26 1.475095 1_545
O112 Zn6 2.146440 1_555
O113 S27 1.462800 1_545
O113 Zn7 2.232373 1_555
O114 S28 1.461802 1_545
O114 Zn8 2.230569 1_555
O115 S29 1.473965 1_545
O115 Zn9 2.205581 1_555
O116 S30 1.474638 1_555
O116 Zn8 2.204355 1_555
O117 S31 1.458934 1_555
O117 Zn9 2.183870 1_555
O118 S32 1.480490 1_555
O118 Zn8 2.141011 1_555
O119 Si2 1.600919 1_655
O119 Zn9 1.967271 1_555
O120 S21 1.507463 1_555
O120 Zr6 2.128685 1_555
O121 S22 1.504698 1_555
O121 Zr7 2.098851 1_555
O122 S18 1.500626 1_455
O122 Zr6 2.103895 1_555
O123 S17 1.513794 1_555
O123 Zr7 2.094426 1_555
O124 S19 1.500210 1_565
O124 Zr6 2.122792 1_555
O125 S20 1.490468 1_565
O125 Zr7 2.170143 1_555
O126 S13 1.498732 1_565
O126 Zr8 2.118955 1_555
O127 S14 1.461025 1_565
O127 Zn10 2.070611 1_555
O128 S15 1.479816 1_555
O128 Zr8 2.191970 1_555
O129 S16 1.461710 1_555
O129 Zn10 2.075132 1_555
O130 S12 1.502233 1_455
O130 Zr8 2.092512 1_555
O131 S11 1.456073 1_555
O131 Zn10 2.124430 1_555
O132 S0 1.505071 1_565
O132 Zr9 2.132988 1_555
O133 S1 1.476395 1_565
O133 Zr10 2.147314 1_555
O134 S2 1.473526 1_555
O134 Zr9 2.221379 1_555
O135 S3 1.495067 1_555
O135 Zr10 2.143481 1_555
O136 S4 1.506558 1_455
O136 Zr9 2.126541 1_555
O137 Si0 1.629173 1_555
O137 Zr10 1.948163 1_555
O138 S5 1.465308 1_555
O138 Zn11 2.114102 1_555
O139 S6 1.490688 1_555
O139 Zr11 2.123074 1_555
O140 S7 1.465491 1_455
O140 Zn11 2.045222 1_555
O141 S8 1.494680 1_555
O141 Zr11 2.132881 1_555
O142 S9 1.444835 1_565
O142 Zn11 2.182633 1_555
O143 S10 1.502021 1_565
O143 Zr11 2.145681 1_555
