# generated using pymatgen
data_Sc(US2)3
_symmetry_space_group_name_H-M   'P 1'
_cell_length_a   3.77200500
_cell_length_b   13.32969100
_cell_length_c   16.39112900
_cell_angle_alpha   90.00000000
_cell_angle_beta   90.00000000
_cell_angle_gamma   90.00000000
_symmetry_Int_Tables_number   1
_chemical_formula_structural   Sc(US2)3
_chemical_formula_sum   'Sc4 U12 S24'
_cell_volume   824.14041117
_cell_formula_units_Z   4
loop_
 _symmetry_equiv_pos_site_id
 _symmetry_equiv_pos_as_xyz
  1  'x, y, z'
loop_
 _atom_site_type_symbol
 _atom_site_label
 _atom_site_symmetry_multiplicity
 _atom_site_fract_x
 _atom_site_fract_y
 _atom_site_fract_z
 _atom_site_occupancy
  Sc  Sc0  1  0.50000000  0.00000000  0.00000000  1
  Sc  Sc1  1  0.00000000  0.50000000  0.50000000  1
  Sc  Sc2  1  0.50000000  0.00000000  0.50000000  1
  Sc  Sc3  1  0.00000000  0.50000000  0.00000000  1
  U  U0  1  0.50000000  0.55080400  0.28327000  1
  U  U1  1  0.50000000  0.44919600  0.71673000  1
  U  U2  1  0.00000000  0.94919600  0.78327000  1
  U  U3  1  0.00000000  0.05080400  0.21673000  1
  U  U4  1  0.50000000  0.25055500  0.90113100  1
  U  U5  1  0.50000000  0.74944500  0.09886900  1
  U  U6  1  0.00000000  0.24944500  0.40113100  1
  U  U7  1  0.00000000  0.75055500  0.59886900  1
  U  U8  1  0.50000000  0.67906700  0.84889800  1
  U  U9  1  0.50000000  0.32093300  0.15110200  1
  U  U10  1  0.00000000  0.82093300  0.34889800  1
  U  U11  1  0.00000000  0.17906700  0.65110200  1
  S  S0  1  0.50000000  0.59260100  0.57850800  1
  S  S1  1  0.50000000  0.40739900  0.42149200  1
  S  S2  1  0.00000000  0.90739900  0.07850800  1
  S  S3  1  0.00000000  0.09260100  0.92149200  1
  S  S4  1  0.50000000  0.87402800  0.89071600  1
  S  S5  1  0.50000000  0.12597200  0.10928400  1
  S  S6  1  0.00000000  0.62597200  0.39071600  1
  S  S7  1  0.00000000  0.37402800  0.60928400  1
  S  S8  1  0.50000000  0.90045700  0.24611600  1
  S  S9  1  0.50000000  0.09954300  0.75388400  1
  S  S10  1  0.00000000  0.59954300  0.74611600  1
  S  S11  1  0.00000000  0.40045700  0.25388400  1
  S  S12  1  0.50000000  0.80990900  0.47574300  1
  S  S13  1  0.50000000  0.19009100  0.52425700  1
  S  S14  1  0.00000000  0.69009100  0.97574300  1
  S  S15  1  0.00000000  0.30990900  0.02425700  1
  S  S16  1  0.50000000  0.52476100  0.10639800  1
  S  S17  1  0.50000000  0.47523900  0.89360200  1
  S  S18  1  0.00000000  0.97523900  0.60639800  1
  S  S19  1  0.00000000  0.02476100  0.39360200  1
  S  S20  1  0.50000000  0.81475500  0.71123400  1
  S  S21  1  0.50000000  0.18524500  0.28876600  1
  S  S22  1  0.00000000  0.68524500  0.21123400  1
  S  S23  1  0.00000000  0.31475500  0.78876600  1
loop_
_geom_bond_atom_site_label_1
_geom_bond_atom_site_label_2
_geom_bond_distance
_geom_bond_site_symmetry_2
S0 Sc1 2.595487 1_655
S0 Sc1 2.595487 1_555
S0 U7 2.846300 1_555
S0 U7 2.846300 1_655
S0 U1 2.964289 1_555
S1 Sc1 2.595487 1_655
S1 Sc1 2.595487 1_555
S1 U6 2.846300 1_555
S1 U6 2.846300 1_655
S1 U0 2.964289 1_555
S2 Sc0 2.595487 1_565
S2 Sc0 2.595487 1_465
S2 U5 2.846300 1_555
S2 U5 2.846300 1_455
S2 U3 2.964289 1_565
S3 Sc0 2.595487 1_556
S3 Sc0 2.595487 1_456
S3 U4 2.846300 1_555
S3 U4 2.846300 1_455
S3 U2 2.964289 1_545
S4 Sc0 2.455263 1_566
S4 U8 2.687646 1_555
S4 U2 2.768146 1_555
S4 U2 2.768146 1_655
S5 Sc0 2.455263 1_555
S5 U9 2.687646 1_555
S5 U3 2.768146 1_555
S5 U3 2.768146 1_655
S6 Sc1 2.455263 1_555
S6 U10 2.687646 1_555
S6 U0 2.768146 1_555
S6 U0 2.768146 1_455
S7 Sc1 2.455263 1_555
S7 U11 2.687646 1_555
S7 U1 2.768146 1_555
S7 U1 2.768146 1_455
S8 U10 2.742066 1_555
S8 U10 2.742066 1_655
S8 U3 2.793805 1_665
S8 U3 2.793805 1_565
S8 U5 3.142791 1_555
S9 U11 2.742066 1_555
S9 U11 2.742066 1_655
S9 U2 2.793805 1_545
S9 U2 2.793805 1_645
S9 U4 3.142791 1_555
S10 U8 2.742066 1_555
S10 U8 2.742066 1_455
S10 U1 2.793805 1_455
S10 U1 2.793805 1_555
S10 U7 3.142791 1_555
S11 U9 2.742066 1_555
S11 U9 2.742066 1_455
S11 U0 2.793805 1_455
S11 U0 2.793805 1_555
S11 U6 3.142791 1_555
S12 Sc2 2.564859 1_565
S12 U10 2.810941 1_555
S12 U10 2.810941 1_655
S12 U7 2.873323 1_655
S12 U7 2.873323 1_555
S13 Sc2 2.564859 1_555
S13 U11 2.810941 1_555
S13 U11 2.810941 1_655
S13 U6 2.873323 1_555
S13 U6 2.873323 1_655
S14 Sc3 2.564859 1_556
S14 U8 2.810941 1_455
S14 U8 2.810941 1_555
S14 U5 2.873323 1_456
S14 U5 2.873323 1_556
S15 Sc3 2.564859 1_555
S15 U9 2.810941 1_555
S15 U9 2.810941 1_455
S15 U4 2.873323 1_554
S15 U4 2.873323 1_454
S16 Sc3 2.589869 1_555
S16 Sc3 2.589869 1_655
S16 U9 2.814039 1_555
S16 U0 2.919842 1_555
S16 U5 2.997510 1_555
S17 Sc3 2.589869 1_556
S17 Sc3 2.589869 1_656
S17 U8 2.814039 1_555
S17 U1 2.919842 1_555
S17 U4 2.997510 1_555
S18 Sc2 2.589869 1_465
S18 Sc2 2.589869 1_565
S18 U11 2.814039 1_565
S18 U2 2.919842 1_555
S18 U7 2.997510 1_555
S19 Sc2 2.589869 1_455
S19 Sc2 2.589869 1_555
S19 U10 2.814039 1_545
S19 U3 2.919842 1_555
S19 U6 2.997510 1_555
S20 U7 2.771557 1_655
S20 U7 2.771557 1_555
S20 U2 2.857035 1_555
S20 U2 2.857035 1_655
S20 U8 2.891880 1_555
S21 U6 2.771557 1_555
S21 U6 2.771557 1_655
S21 U3 2.857035 1_655
S21 U3 2.857035 1_555
S21 U9 2.891880 1_555
S22 U5 2.771557 1_455
S22 U5 2.771557 1_555
S22 U0 2.857035 1_455
S22 U0 2.857035 1_555
S22 U10 2.891880 1_555
S23 U4 2.771557 1_555
S23 U4 2.771557 1_455
S23 U1 2.857035 1_455
S23 U1 2.857035 1_555
S23 U11 2.891880 1_555
