# generated using pymatgen
data_Sr4Cl6O
_symmetry_space_group_name_H-M   'P 1'
_cell_length_a   9.50175624
_cell_length_b   9.50173389
_cell_length_c   7.23811139
_cell_angle_alpha   90.00021387
_cell_angle_beta   89.99987958
_cell_angle_gamma   120.00002252
_symmetry_Int_Tables_number   1
_chemical_formula_structural   Sr4Cl6O
_chemical_formula_sum   'Sr8 Cl12 O2'
_cell_volume   565.92977437
_cell_formula_units_Z   2
loop_
 _symmetry_equiv_pos_site_id
 _symmetry_equiv_pos_as_xyz
  1  'x, y, z'
loop_
 _atom_site_type_symbol
 _atom_site_label
 _atom_site_symmetry_multiplicity
 _atom_site_fract_x
 _atom_site_fract_y
 _atom_site_fract_z
 _atom_site_occupancy
  Sr  Sr0  1  0.19668170  0.39336391  0.89514625  1
  Sr  Sr1  1  0.80330816  0.60661609  0.39515979  1
  Sr  Sr2  1  0.39338452  0.19669283  0.39515950  1
  Sr  Sr3  1  0.19668098  0.80332071  0.89514596  1
  Sr  Sr4  1  0.60664124  0.80332190  0.89514462  1
  Sr  Sr5  1  0.80330819  0.19669250  0.39515892  1
  Sr  Sr6  1  0.33333250  0.66666723  0.32624248  1
  Sr  Sr7  1  0.66666636  0.33333337  0.82615039  1
  Cl  Cl0  1  0.85907229  0.71814475  0.78583742  1
  Cl  Cl1  1  0.14093462  0.28186991  0.28587269  1
  Cl  Cl2  1  0.71813070  0.85906512  0.28587404  1
  Cl  Cl3  1  0.85907378  0.14092776  0.78583677  1
  Cl  Cl4  1  0.53368413  0.46631559  0.10746105  1
  Cl  Cl5  1  0.06738136  0.53369026  0.60746920  1
  Cl  Cl6  1  0.46630939  0.93261926  0.60746865  1
  Cl  Cl7  1  0.53368511  0.06737084  0.10746221  1
  Cl  Cl8  1  0.93263137  0.46631093  0.10745407  1
  Cl  Cl9  1  0.46630889  0.53369027  0.60746940  1
  Cl  Cl10  1  0.14093459  0.85906516  0.28587403  1
  Cl  Cl11  1  0.28185379  0.14092759  0.78583719  1
  O  O0  1  0.66666656  0.33333370  0.49983095  1
  O  O1  1  0.33333080  0.66666132  -0.00016056  1
loop_
_geom_bond_atom_site_label_1
_geom_bond_atom_site_label_2
_geom_bond_distance
_geom_bond_site_symmetry_2
Cl0 Sr1 2.972962 1_555
Cl0 Sr4 2.995858 1_555
Cl0 Sr3 2.995872 1_655
Cl0 Sr7 3.179930 1_555
Cl1 Sr0 2.973216 1_554
Cl1 Sr5 2.995981 1_455
Cl1 Sr2 2.995990 1_555
Cl1 Sr6 3.179850 1_555
Cl2 Sr4 2.973223 1_554
Cl2 Sr5 2.995978 1_565
Cl2 Sr1 2.995979 1_555
Cl2 Sr6 3.179865 1_555
Cl3 Sr5 2.972974 1_555
Cl3 Sr4 2.995847 1_545
Cl3 Sr0 2.995873 1_655
Cl3 Sr7 3.179947 1_555
Cl4 Sr7 2.989262 1_554
Cl4 Sr2 3.043279 1_555
Cl4 Sr1 3.043287 1_555
Cl4 Sr0 3.297887 1_554
Cl4 Sr4 3.297906 1_554
Cl5 Sr6 2.988774 1_555
Cl5 Sr0 3.043203 1_555
Cl5 Sr3 3.043212 1_555
Cl5 Sr5 3.297893 1_455
Cl5 Sr1 3.297909 1_455
Cl6 Sr6 2.988768 1_555
Cl6 Sr3 3.043211 1_555
Cl6 Sr4 3.043214 1_555
Cl6 Sr2 3.297903 1_565
Cl6 Sr5 3.297905 1_565
Cl7 Sr7 2.989263 1_554
Cl7 Sr2 3.043265 1_555
Cl7 Sr5 3.043272 1_555
Cl7 Sr3 3.297894 1_544
Cl7 Sr4 3.297894 1_544
Cl8 Sr7 2.989237 1_554
Cl8 Sr5 3.043284 1_555
Cl8 Sr1 3.043341 1_555
Cl8 Sr0 3.297827 1_654
Cl8 Sr3 3.297898 1_654
Cl9 Sr6 2.988792 1_555
Cl9 Sr0 3.043201 1_555
Cl9 Sr4 3.043212 1_555
Cl9 Sr2 3.297887 1_555
Cl9 Sr1 3.297907 1_555
Cl10 Sr3 2.973214 1_554
Cl10 Sr1 2.995980 1_455
Cl10 Sr2 2.995983 1_565
Cl10 Sr6 3.179844 1_555
Cl11 Sr2 2.972971 1_555
Cl11 Sr3 2.995858 1_545
Cl11 Sr0 2.995871 1_555
Cl11 Sr7 3.179946 1_555
O0 Sr7 2.361936 1_555
O0 Sr1 2.372966 1_555
O0 Sr2 2.372967 1_555
O0 Sr5 2.372970 1_555
O1 Sr6 2.362542 1_555
O1 Sr0 2.373130 1_554
O1 Sr3 2.373230 1_554
O1 Sr4 2.373242 1_554
