# generated using pymatgen
data_Na6Zr4In4Si5S7O48
_symmetry_space_group_name_H-M   'P 1'
_cell_length_a   18.14424057
_cell_length_b   9.04562228
_cell_length_c   23.49494688
_cell_angle_alpha   90.01431794
_cell_angle_beta   89.81391855
_cell_angle_gamma   119.97801160
_symmetry_Int_Tables_number   1
_chemical_formula_structural   Na6Zr4In4Si5S7O48
_chemical_formula_sum   'Na18 Zr12 In12 Si15 S21 O144'
_cell_volume   3340.22476374
_cell_formula_units_Z   3
loop_
 _symmetry_equiv_pos_site_id
 _symmetry_equiv_pos_as_xyz
  1  'x, y, z'
loop_
 _atom_site_type_symbol
 _atom_site_label
 _atom_site_symmetry_multiplicity
 _atom_site_fract_x
 _atom_site_fract_y
 _atom_site_fract_z
 _atom_site_occupancy
  Na  Na0  1  0.00049839  0.63221821  0.25495297  1
  Na  Na1  1  0.49541423  0.62795387  0.25054981  1
  Na  Na2  1  0.99537083  0.36627030  0.74950036  1
  Na  Na3  1  0.50350965  0.36432474  0.75301487  1
  Na  Na4  1  0.66298533  0.29902788  0.91624452  1
  Na  Na5  1  0.16471771  0.02419580  0.42530532  1
  Na  Na6  1  0.00305852  0.99603866  0.50379349  1
  Na  Na7  1  0.50321661  0.99473731  0.50289579  1
  Na  Na8  1  0.00428060  0.00929963  0.99669984  1
  Na  Na9  1  0.50403548  0.01220957  0.99912482  1
  Na  Na10  1  0.33156668  0.32393407  0.83607983  1
  Na  Na11  1  0.82916166  0.32787048  0.82220304  1
  Na  Na12  1  0.33836271  0.34456476  0.32800915  1
  Na  Na13  1  0.82862770  0.33652565  0.33943450  1
  Na  Na14  1  0.18019433  0.66160375  0.16743897  1
  Na  Na15  1  0.67148079  0.65866720  0.16380152  1
  Na  Na16  1  0.17251246  0.68538707  0.66608472  1
  Na  Na17  1  0.67798547  0.68375613  0.67389351  1
  Zr  Zr0  1  0.49844640  0.01189934  0.35070196  1
  Zr  Zr1  1  0.99844710  0.98437466  0.84993409  1
  Zr  Zr2  1  0.99946847  0.98724147  0.65011238  1
  Zr  Zr3  1  0.50763735  0.99969155  0.64397907  1
  Zr  Zr4  1  0.00116838  0.01411133  0.14059670  1
  Zr  Zr5  1  0.49902808  0.01157604  0.14932833  1
  Zr  Zr6  1  0.32788375  0.32223581  0.97727249  1
  Zr  Zr7  1  0.82849176  0.33532380  0.47864683  1
  Zr  Zr8  1  0.16560395  0.66502194  0.01731992  1
  Zr  Zr9  1  0.66555105  0.65486186  0.02190794  1
  Zr  Zr10  1  0.16489191  0.67527946  0.52439917  1
  Zr  Zr11  1  0.66456079  0.66246842  0.51944104  1
  In  In0  1  0.99626829  0.99146041  0.35332758  1
  In  In1  1  0.50118712  0.01115849  0.85068489  1
  In  In2  1  0.32397685  0.33145609  0.67779166  1
  In  In3  1  0.82359637  0.31470763  0.69113609  1
  In  In4  1  0.33187067  0.34430995  0.18654330  1
  In  In5  1  0.82131054  0.31536375  0.17624418  1
  In  In6  1  0.82924122  0.31677137  0.98782542  1
  In  In7  1  0.33106935  0.34394706  0.49168038  1
  In  In8  1  0.17111115  0.66680065  0.31732246  1
  In  In9  1  0.66401113  0.64532088  0.31663363  1
  In  In10  1  0.16623603  0.68556992  0.81536151  1
  In  In11  1  0.66881527  0.66117356  0.81260755  1
  Si  Si0  1  0.35176328  0.70978473  0.25132227  1
  Si  Si1  1  0.49927475  0.30056669  0.24887864  1
  Si  Si2  1  0.64505372  0.29253589  0.75108199  1
  Si  Si3  1  0.00114450  0.69906102  0.74865031  1
  Si  Si4  1  0.85336950  0.99591255  0.75127602  1
  Si  Si5  1  0.18367010  0.04256178  0.58219902  1
  Si  Si6  1  0.69116997  0.04284114  0.58290203  1
  Si  Si7  1  0.33406877  0.63336085  0.58338546  1
  Si  Si8  1  0.83070863  0.03648698  0.08276105  1
  Si  Si9  1  0.19150427  0.34055394  0.08373250  1
  Si  Si10  1  0.68375623  0.32785161  0.08204785  1
  Si  Si11  1  0.52025966  0.37609055  0.91478506  1
  Si  Si12  1  0.16280445  0.95768961  0.91724335  1
  Si  Si13  1  0.66416001  0.36914531  0.41685805  1
  Si  Si14  1  0.02161566  0.66372954  0.41332227  1
  S  S0  1  0.14390230  0.99901904  0.25017323  1
  S  S1  1  0.64731399  0.00148897  0.25169099  1
  S  S2  1  0.85532848  0.70748441  0.24835148  1
  S  S3  1  0.99761822  0.28989604  0.25019178  1
  S  S4  1  0.14745094  0.29324748  0.75179776  1
  S  S5  1  0.49607913  0.70336575  0.75036116  1
  S  S6  1  0.35364773  0.00156472  0.74827080  1
  S  S7  1  0.48093383  0.33299157  0.58414014  1
  S  S8  1  0.97753980  0.33013190  0.58315006  1
  S  S9  1  0.83297842  0.62567114  0.58279767  1
  S  S10  1  0.47925675  0.62738946  0.08281961  1
  S  S11  1  0.98178846  0.62797451  0.08514321  1
  S  S12  1  0.33212300  0.04025469  0.08322664  1
  S  S13  1  0.31246747  0.66811954  0.91504149  1
  S  S14  1  0.81452769  0.66473939  0.91864291  1
  S  S15  1  0.01799484  0.37325354  0.91665158  1
  S  S16  1  0.66688785  0.95794031  0.91656637  1
  S  S17  1  0.31406754  0.96440110  0.41805015  1
  S  S18  1  0.81126664  0.95668028  0.41545651  1
  S  S19  1  0.16739969  0.37125303  0.41622533  1
  S  S20  1  0.51769867  0.66269452  0.41660534  1
  O  O0  1  0.10654073  0.02485445  0.30352886  1
  O  O1  1  0.60495504  0.02242075  0.30273643  1
  O  O2  1  0.41485552  0.80478164  0.30628867  1
  O  O3  1  0.90713082  0.78363882  0.30087748  1
  O  O4  1  0.48961393  0.18322388  0.30496811  1
  O  O5  1  0.98670060  0.18789456  0.30231142  1
  O  O6  1  0.10507899  0.18754313  0.80293556  1
  O  O7  1  0.60800122  0.18526433  0.81084444  1
  O  O8  1  0.48154927  0.77764961  0.80244152  1
  O  O9  1  0.99148935  0.79759566  0.80492700  1
  O  O10  1  0.40296769  0.02652963  0.80158111  1
  O  O11  1  0.91647368  0.02440538  0.80644527  1
  O  O12  1  0.39573152  0.98149953  0.69783520  1
  O  O13  1  0.90380559  0.97761469  0.69513737  1
  O  O14  1  0.09542815  0.21517945  0.70003657  1
  O  O15  1  0.57900533  0.18901983  0.69820210  1
  O  O16  1  0.01740591  0.82677676  0.69452395  1
  O  O17  1  0.50422741  0.80722105  0.69944661  1
  O  O18  1  0.40191415  0.82550153  0.19491517  1
  O  O19  1  0.89988998  0.81348569  0.19823896  1
  O  O20  1  0.00688654  0.20170706  0.19973168  1
  O  O21  1  0.51528890  0.20685397  0.19448055  1
  O  O22  1  0.08786383  0.97579084  0.20098952  1
  O  O23  1  0.59537932  0.97559677  0.19999743  1
  O  O24  1  0.44541421  0.36256606  0.63665358  1
  O  O25  1  0.94436635  0.36392434  0.63572162  1
  O  O26  1  0.24330057  0.11299128  0.63808801  1
  O  O27  1  0.74765209  0.11823671  0.63860772  1
  O  O28  1  0.31539036  0.52181645  0.64109359  1
  O  O29  1  0.81986997  0.52645748  0.63407219  1
  O  O30  1  0.44661421  0.52742399  0.13639132  1
  O  O31  1  0.94604093  0.52846427  0.13821413  1
  O  O32  1  0.31862970  0.11315055  0.13531476  1
  O  O33  1  0.81782632  0.10920561  0.14289190  1
  O  O34  1  0.24383622  0.36790446  0.14151569  1
  O  O35  1  0.74202646  0.37800206  0.13923478  1
  O  O36  1  0.23555405  0.31092275  0.02798670  1
  O  O37  1  0.72225977  0.30384020  0.02195132  1
  O  O38  1  0.42505970  0.54026098  0.03339682  1
  O  O39  1  0.92937176  0.55324558  0.03398029  1
  O  O40  1  0.34516586  0.14655499  0.03221176  1
  O  O41  1  0.85982500  0.15784300  0.02706095  1
  O  O42  1  0.22098650  0.13755769  0.52036682  1
  O  O43  1  0.73596638  0.16048714  0.52635054  1
  O  O44  1  0.35964666  0.56794674  0.52581101  1
  O  O45  1  0.84572558  0.54592287  0.53095224  1
  O  O46  1  0.42986516  0.30748857  0.53229009  1
  O  O47  1  0.92512898  0.31078430  0.53241927  1
  O  O48  1  0.26993770  0.69016761  0.96644258  1
  O  O49  1  0.77397323  0.69036122  0.96959351  1
  O  O50  1  0.07358824  0.46194953  0.96722871  1
  O  O51  1  0.58516388  0.47383131  0.96824919  1
  O  O52  1  0.15351022  0.83780919  0.97289021  1
  O  O53  1  0.66027169  0.85872353  0.96805682  1
  O  O54  1  0.27287925  0.85594814  0.46837703  1
  O  O55  1  0.76956356  0.84942765  0.46609740  1
  O  O56  1  0.15743349  0.45460613  0.46674745  1
  O  O57  1  0.65338494  0.46895488  0.47174170  1
  O  O58  1  0.08737138  0.69944163  0.46595954  1
  O  O59  1  0.57308464  0.68494733  0.46647533  1
  O  O60  1  0.06023171  0.63939169  0.35233757  1
  O  O61  1  0.55678757  0.64456874  0.36285871  1
  O  O62  1  0.26151038  0.89122149  0.36603348  1
  O  O63  1  0.76108284  0.88388841  0.36300228  1
  O  O64  1  0.17992306  0.47053675  0.36347437  1
  O  O65  1  0.68860577  0.48702655  0.36032388  1
  O  O66  1  0.05798687  0.47075518  0.86374054  1
  O  O67  1  0.55842605  0.48377153  0.85594857  1
  O  O68  1  0.18733687  0.88658163  0.86181646  1
  O  O69  1  0.67873866  0.88104375  0.86455346  1
  O  O70  1  0.26025279  0.63699775  0.86358651  1
  O  O71  1  0.76223232  0.63432192  0.86722301  1
  O  O72  1  0.01790879  0.84520930  0.41129308  1
  O  O73  1  0.51022425  0.81843272  0.41278148  1
  O  O74  1  0.39856796  0.97768460  0.41177754  1
  O  O75  1  0.89779112  0.97477510  0.41131943  1
  O  O76  1  0.08846914  0.19748392  0.41112215  1
  O  O77  1  0.58000681  0.17849405  0.41120158  1
  O  O78  1  0.01045993  0.20260171  0.91377777  1
  O  O79  1  0.51370433  0.18588800  0.91521222  1
  O  O80  1  0.07930106  0.98107751  0.91305759  1
  O  O81  1  0.58820336  0.97322626  0.91425591  1
  O  O82  1  0.39802852  0.82201501  0.91062683  1
  O  O83  1  0.89951435  0.82043531  0.91314155  1
  O  O84  1  0.49087646  0.18119690  0.58928898  1
  O  O85  1  0.98748835  0.17734532  0.58772992  1
  O  O86  1  0.08984267  0.02658170  0.58870061  1
  O  O87  1  0.59527013  0.02122493  0.58801530  1
  O  O88  1  0.41536226  0.82559728  0.59293612  1
  O  O89  1  0.90957404  0.80024520  0.58625951  1
  O  O90  1  0.48794850  0.79861899  0.08866683  1
  O  O91  1  0.99264798  0.80182478  0.09244317  1
  O  O92  1  0.40865930  0.01969009  0.08764059  1
  O  O93  1  0.91460068  0.00912275  0.09199332  1
  O  O94  1  0.09517670  0.16830935  0.09086634  1
  O  O95  1  0.59006283  0.15460621  0.09012928  1
  O  O96  1  0.34875145  0.16349689  0.74382038  1
  O  O97  1  0.85591229  0.17732331  0.74895720  1
  O  O98  1  0.23291819  0.31053170  0.74821613  1
  O  O99  1  0.73926949  0.31924841  0.74823399  1
  O  O100  1  0.42139999  0.52394679  0.74432509  1
  O  O101  1  0.91823612  0.51338667  0.74319454  1
  O  O102  1  0.34954986  0.52658454  0.24948882  1
  O  O103  1  0.85018495  0.53647074  0.24386363  1
  O  O104  1  0.41380593  0.31584662  0.24375592  1
  O  O105  1  0.92246578  0.31546358  0.24489039  1
  O  O106  1  0.23002382  0.14699893  0.24489969  1
  O  O107  1  0.73324521  0.15584891  0.24810168  1
  O  O108  1  0.32219503  0.51583828  0.92362444  1
  O  O109  1  0.82358406  0.50983384  0.92504624  1
  O  O110  1  0.42684497  0.35769148  0.92646640  1
  O  O111  1  0.93445722  0.36329101  0.92350731  1
  O  O112  1  0.24809443  0.14786855  0.92462822  1
  O  O113  1  0.74191840  0.13741290  0.91993123  1
  O  O114  1  0.32322637  0.13712768  0.42407082  1
  O  O115  1  0.82253070  0.12966364  0.42299903  1
  O  O116  1  0.24172729  0.34262762  0.41978011  1
  O  O117  1  0.74904787  0.34884853  0.42424456  1
  O  O118  1  0.43354722  0.50525991  0.42263459  1
  O  O119  1  0.92795480  0.49707500  0.42355672  1
  O  O120  1  0.17543869  0.50314125  0.07386011  1
  O  O121  1  0.67182900  0.49670170  0.07684130  1
  O  O122  1  0.06797283  0.64707379  0.07745365  1
  O  O123  1  0.56590369  0.64994846  0.07463784  1
  O  O124  1  0.25611296  0.86615028  0.07507954  1
  O  O125  1  0.74668131  0.85037712  0.07372948  1
  O  O126  1  0.17198938  0.84909769  0.57695765  1
  O  O127  1  0.67552122  0.84850399  0.57109800  1
  O  O128  1  0.24716964  0.64387954  0.57221606  1
  O  O129  1  0.75687007  0.64736810  0.57389809  1
  O  O130  1  0.06505175  0.48191232  0.57425047  1
  O  O131  1  0.56738164  0.48870614  0.57656619  1
  O  O132  1  0.14730717  0.83753039  0.25347688  1
  O  O133  1  0.65367349  0.84349970  0.25786495  1
  O  O134  1  0.25718376  0.69245001  0.25538727  1
  O  O135  1  0.77098533  0.69392562  0.25302765  1
  O  O136  1  0.07521864  0.46204937  0.25259345  1
  O  O137  1  0.58114715  0.49708807  0.25222427  1
  O  O138  1  0.15352001  0.46362806  0.75797152  1
  O  O139  1  0.64374623  0.47353434  0.75030855  1
  O  O140  1  0.08420746  0.67040848  0.75164158  1
  O  O141  1  0.57401257  0.69060415  0.75309538  1
  O  O142  1  0.26833669  0.84678915  0.75270060  1
  O  O143  1  0.75906196  0.82982905  0.75559722  1
loop_
_geom_bond_atom_site_label_1
_geom_bond_atom_site_label_2
_geom_bond_distance
_geom_bond_site_symmetry_2
Na0 O132 2.366745 1_555
Na0 O103 2.429042 1_455
Na0 O105 2.493576 1_455
Na0 O136 2.509075 1_555
Na0 O60 2.521859 1_555
Na0 O3 2.866431 1_455
Na0 O31 2.910246 1_455
Na0 O22 2.973988 1_555
Na1 O102 2.328333 1_555
Na1 O137 2.379751 1_555
Na1 O104 2.451980 1_555
Na1 O133 2.546488 1_555
Na1 O30 2.830973 1_555
Na1 O61 2.842000 1_555
Na1 O2 2.955148 1_555
Na1 O23 2.979474 1_555
Na2 O97 2.236607 1_555
Na2 O101 2.369448 1_555
Na2 O140 2.395469 1_655
Na2 O138 2.554885 1_655
Na2 O25 2.828327 1_555
Na2 O66 2.886820 1_655
Na2 O11 2.994638 1_555
Na2 O14 2.996576 1_655
Na3 O139 2.222919 1_555
Na3 O96 2.477415 1_555
Na3 O100 2.549087 1_555
Na3 O141 2.564021 1_555
Na3 O67 2.635809 1_555
Na3 O15 2.864908 1_555
Na3 O10 2.895550 1_555
Na3 O24 2.930450 1_555
Na4 O79 2.369529 1_555
Na4 O113 2.507790 1_555
Na4 O81 2.555925 1_545
Na4 O109 2.573107 1_555
Na4 O7 2.678710 1_555
Na4 O37 2.701339 1_556
Na4 O51 2.864598 1_555
Na4 O71 2.880682 1_555
Na5 O72 2.349632 1_545
Na5 O42 2.459607 1_555
Na5 O116 2.498593 1_555
Na5 O114 2.525734 1_555
Na5 O76 2.579244 1_555
Na5 O58 2.717388 1_545
Na6 O86 2.474016 1_565
Na6 O89 2.597328 1_455
Na6 O72 2.649401 1_555
Na6 O85 2.667659 1_465
Na6 O76 2.760569 1_565
Na6 O75 2.839931 1_455
Na7 O87 2.543259 1_565
Na7 O88 2.626711 1_555
Na7 O77 2.648263 1_565
Na7 O73 2.690980 1_555
Na7 O84 2.718038 1_565
Na7 O74 2.818824 1_555
Na8 O80 2.471748 1_545
Na8 O78 2.582634 1_555
Na8 O83 2.676457 1_445
Na8 O94 2.708360 1_556
Na8 O93 2.763001 1_456
Na8 O91 2.868807 1_446
Na9 O79 2.471777 1_555
Na9 O95 2.584238 1_556
Na9 O81 2.636399 1_545
Na9 O92 2.723586 1_556
Na9 O90 2.771000 1_546
Na9 O82 2.774887 1_545
Na10 O112 2.594072 1_555
Na10 O110 2.662256 1_555
Na10 O98 2.699449 1_555
Na10 O96 2.710762 1_555
Na10 O108 2.750239 1_555
Na10 O100 2.758544 1_555
Na11 O99 2.361745 1_555
Na11 O97 2.388623 1_555
Na11 O101 2.479052 1_555
Na11 O113 2.828257 1_555
Na11 O109 2.953106 1_555
Na11 O111 2.972405 1_555
Na12 O102 2.412594 1_555
Na12 O104 2.489433 1_555
Na12 O106 2.717212 1_555
Na12 O118 2.748254 1_555
Na12 O116 2.769187 1_555
Na12 O114 2.858895 1_555
Na13 O117 2.491957 1_555
Na13 O119 2.582547 1_555
Na13 O115 2.676171 1_555
Na13 O107 2.732524 1_555
Na13 O103 2.784863 1_555
Na13 O105 2.858114 1_555
Na14 O134 2.434735 1_555
Na14 O120 2.602324 1_555
Na14 O136 2.725845 1_555
Na14 O124 2.732270 1_555
Na14 O132 2.813238 1_555
Na14 O122 2.897154 1_555
Na15 O121 2.515657 1_555
Na15 O137 2.593072 1_555
Na15 O125 2.639305 1_555
Na15 O135 2.684189 1_555
Na15 O123 2.817694 1_555
Na15 O133 2.883964 1_555
Na16 O140 2.527545 1_555
Na16 O126 2.567832 1_555
Na16 O142 2.603963 1_555
Na16 O128 2.707085 1_555
Na16 O138 2.847781 1_555
Na16 O130 2.878155 1_555
Na17 O143 2.381073 1_555
Na17 O139 2.457482 1_555
Na17 O141 2.668223 1_555
Na17 O127 2.850437 1_555
Na17 O129 2.850466 1_555
Na17 O131 2.976352 1_555
In0 O72 2.069436 1_655
In0 O3 2.154464 1_555
In0 O75 2.187841 1_555
In0 O0 2.201004 1_665
In0 O5 2.221434 1_565
In0 O76 2.239069 1_665
In1 O7 2.012785 1_555
In1 O79 2.119068 1_555
In1 O10 2.187998 1_555
In1 O8 2.263308 1_545
In1 O82 2.279882 1_545
In1 O81 2.323416 1_545
In2 O28 2.000609 1_555
In2 O26 2.008794 1_555
In2 O98 2.274470 1_555
In2 O24 2.288005 1_555
In2 O100 2.353888 1_555
In2 O96 2.367527 1_555
In3 O27 2.035437 1_555
In3 O99 2.047396 1_555
In3 O97 2.113743 1_555
In3 O101 2.145471 1_555
In3 O29 2.366890 1_555
In3 O25 2.387858 1_555
In4 O34 2.016915 1_555
In4 O104 2.116362 1_555
In4 O102 2.117043 1_555
In4 O30 2.237261 1_555
In4 O106 2.273543 1_555
In4 O32 2.318879 1_555
In5 O35 1.992352 1_555
In5 O33 1.994343 1_555
In5 O107 2.272698 1_555
In5 O31 2.294351 1_555
In5 O103 2.399036 1_555
In5 O105 2.446929 1_555
In6 O41 2.006400 1_556
In6 O37 2.046323 1_556
In6 O113 2.265701 1_555
In6 O39 2.276013 1_556
In6 O111 2.298686 1_555
In6 O109 2.327522 1_555
In7 O44 1.992339 1_555
In7 O42 2.048065 1_555
In7 O46 2.198746 1_555
In7 O116 2.340957 1_555
In7 O118 2.342722 1_555
In7 O114 2.403621 1_555
In8 O134 2.057575 1_555
In8 O60 2.067992 1_555
In8 O64 2.153809 1_555
In8 O62 2.191959 1_555
In8 O132 2.343857 1_555
In8 O136 2.359200 1_555
In9 O65 1.986292 1_555
In9 O137 2.085091 1_555
In9 O61 2.222059 1_555
In9 O63 2.271320 1_555
In9 O135 2.307082 1_555
In9 O133 2.343979 1_555
In10 O68 1.987468 1_555
In10 O140 2.070185 1_555
In10 O142 2.238210 1_555
In10 O66 2.257894 1_555
In10 O70 2.269053 1_555
In10 O138 2.332293 1_555
In11 O143 2.072000 1_555
In11 O67 2.097458 1_555
In11 O139 2.112293 1_555
In11 O71 2.237014 1_555
In11 O69 2.262716 1_555
In11 O141 2.336277 1_555
O0 S0 1.496092 1_545
O1 S1 1.484662 1_555
O1 Zr0 2.194494 1_555
O2 Si0 1.656105 1_555
O2 Zr0 2.017155 1_565
O3 S2 1.497007 1_555
O4 Si1 1.645384 1_555
O4 Zr0 1.957573 1_555
O5 S3 1.485399 1_555
O6 S4 1.486211 1_555
O6 Zr1 2.184923 1_445
O7 Si2 1.645510 1_555
O8 S5 1.480808 1_555
O9 Si3 1.651461 1_655
O9 Zr1 1.943054 1_555
O10 S6 1.491911 1_555
O11 Si4 1.664962 1_545
O11 Zr1 1.983833 1_545
O12 S6 1.467205 1_565
O12 Zr3 2.323877 1_555
O13 Si4 1.657697 1_555
O13 Zr2 1.994112 1_555
O14 S4 1.486446 1_555
O14 Zr2 2.254564 1_445
O15 Si2 1.656569 1_555
O15 Zr3 2.006542 1_545
O16 Si3 1.642124 1_555
O16 Zr2 1.943354 1_455
O17 S5 1.481887 1_555
O17 Zr3 2.150878 1_555
O18 Si0 1.649559 1_555
O18 Zr5 2.027273 1_565
O19 S2 1.476144 1_555
O19 Zr4 2.270863 1_665
O20 S3 1.484077 1_455
O20 Zr4 2.155105 1_555
O21 Si1 1.636975 1_555
O21 Zr5 1.952674 1_555
O22 S0 1.485710 1_555
O22 Zr4 2.273224 1_565
O23 S1 1.484807 1_565
O23 Zr5 2.271939 1_565
O24 S7 1.475177 1_555
O25 S8 1.469765 1_555
O26 Si5 1.618864 1_555
O27 Si6 1.593158 1_555
O28 Si7 1.620869 1_555
O29 S9 1.448667 1_555
O30 S10 1.487687 1_555
O31 S11 1.482414 1_555
O32 S12 1.466771 1_555
O33 Si8 1.623046 1_555
O34 Si9 1.606040 1_555
O35 Si10 1.630491 1_555
O36 Si9 1.622708 1_555
O36 Zr6 2.013071 1_554
O37 Si10 1.635226 1_555
O38 S10 1.472740 1_555
O38 Zr6 2.296933 1_554
O39 S11 1.473426 1_555
O40 S12 1.479372 1_555
O40 Zr6 2.188946 1_554
O41 Si8 1.616611 1_555
O42 Si5 1.649273 1_555
O43 Si6 1.639451 1_555
O43 Zr7 1.977654 1_555
O44 Si7 1.632566 1_555
O45 S9 1.490677 1_555
O45 Zr7 2.154778 1_555
O46 S7 1.479673 1_555
O47 S8 1.482077 1_555
O47 Zr7 2.263477 1_555
O48 S13 1.497108 1_555
O48 Zr8 2.149284 1_556
O49 S14 1.480787 1_555
O49 Zr9 2.199339 1_556
O50 S15 1.507252 1_555
O50 Zr8 2.119820 1_556
O51 Si11 1.647712 1_555
O51 Zr9 2.005584 1_556
O52 Si12 1.652339 1_555
O52 Zr8 1.981346 1_556
O53 S16 1.474904 1_555
O53 Zr9 2.277938 1_556
O54 S17 1.476897 1_555
O54 Zr10 2.242030 1_555
O55 S18 1.480044 1_555
O55 Zr11 2.196878 1_555
O56 S19 1.464445 1_555
O56 Zr10 2.359547 1_555
O57 Si13 1.640212 1_555
O57 Zr11 2.001732 1_555
O58 Si14 1.637526 1_555
O58 Zr10 2.057010 1_555
O59 S20 1.492870 1_555
O59 Zr11 2.166927 1_555
O60 Si14 1.655254 1_555
O61 S20 1.494921 1_555
O62 S17 1.489125 1_555
O63 S18 1.479600 1_555
O64 S19 1.479542 1_555
O65 Si13 1.619346 1_555
O66 S15 1.484901 1_555
O67 Si11 1.630832 1_555
O68 Si12 1.609241 1_555
O69 S16 1.473357 1_555
O70 S13 1.476166 1_555
O71 S14 1.477140 1_555
O72 Si14 1.676913 1_555
O73 S20 1.483949 1_555
O73 Zr0 2.369108 1_565
O74 S17 1.483673 1_555
O74 Zr0 2.204969 1_565
O75 S18 1.497703 1_555
O76 S19 1.512453 1_555
O77 Si13 1.641009 1_555
O77 Zr0 2.065274 1_555
O78 S15 1.481627 1_555
O78 Zr1 2.401013 1_445
O79 Si11 1.664292 1_555
O80 Si12 1.634402 1_555
O80 Zr1 2.100117 1_455
O81 S16 1.502694 1_555
O82 S13 1.482585 1_555
O83 S14 1.485442 1_555
O83 Zr1 2.224932 1_555
O84 S7 1.476579 1_555
O84 Zr3 2.222999 1_545
O85 S8 1.484497 1_555
O85 Zr2 2.351461 1_545
O86 Si5 1.641611 1_555
O86 Zr2 2.073427 1_445
O87 Si6 1.654998 1_555
O87 Zr3 1.993001 1_545
O88 Si7 1.639677 1_555
O88 Zr3 2.024490 1_555
O89 S9 1.496406 1_555
O89 Zr2 2.242703 1_555
O90 S10 1.482800 1_555
O90 Zr5 2.322920 1_565
O91 S11 1.493885 1_555
O91 Zr4 2.166721 1_665
O92 S12 1.494297 1_555
O92 Zr5 2.220425 1_555
O93 Si8 1.674509 1_555
O93 Zr4 1.927163 1_655
O94 Si9 1.669518 1_555
O94 Zr4 1.957152 1_555
O95 Si10 1.648520 1_555
O95 Zr5 2.046244 1_555
O96 S6 1.514787 1_555
O97 Si4 1.619339 1_545
O98 S4 1.480940 1_555
O99 Si2 1.603633 1_555
O100 S5 1.514467 1_555
O101 Si3 1.605151 1_655
O102 Si0 1.638021 1_555
O103 S2 1.506159 1_555
O104 Si1 1.629076 1_555
O105 S3 1.498210 1_555
O106 S0 1.468817 1_545
O107 S1 1.487049 1_555
O108 S13 1.487480 1_555
O108 Zr6 2.202020 1_555
O109 S14 1.497801 1_555
O110 Si11 1.640408 1_555
O110 Zr6 2.040250 1_555
O111 S15 1.481017 1_655
O112 Si12 1.650908 1_545
O112 Zr6 1.960163 1_555
O113 S16 1.512330 1_545
O114 S17 1.493101 1_545
O115 S18 1.483948 1_545
O115 Zr7 2.231711 1_555
O116 S19 1.497500 1_555
O117 Si13 1.649384 1_555
O117 Zr7 1.978575 1_555
O118 S20 1.484981 1_555
O119 Si14 1.629639 1_655
O119 Zr7 2.102379 1_555
O120 Si9 1.652505 1_555
O120 Zr8 2.050453 1_555
O121 Si10 1.650815 1_555
O121 Zr9 1.972380 1_555
O122 S11 1.495326 1_455
O122 Zr8 2.203845 1_555
O123 S10 1.492543 1_555
O123 Zr9 2.170471 1_555
O124 S12 1.499984 1_565
O124 Zr8 2.208154 1_555
O125 Si8 1.624976 1_565
O125 Zr9 2.045978 1_555
O126 Si5 1.658918 1_565
O126 Zr10 1.952252 1_555
O127 Si6 1.658077 1_565
O127 Zr11 2.002627 1_555
O128 Si7 1.648206 1_555
O128 Zr10 2.001567 1_555
O129 S9 1.503976 1_555
O129 Zr11 2.168766 1_555
O130 S8 1.506438 1_455
O130 Zr10 2.129240 1_555
O131 S7 1.505448 1_555
O131 Zr11 2.144060 1_555
O132 S0 1.494640 1_555
O133 S1 1.497238 1_565
O134 Si0 1.645799 1_555
O135 S2 1.476620 1_555
O136 S3 1.489957 1_455
O137 Si1 1.653695 1_555
O138 S4 1.496278 1_555
O139 Si2 1.649331 1_555
O140 Si3 1.653650 1_555
O141 S5 1.476715 1_555
O142 S6 1.483338 1_565
O143 Si4 1.620265 1_555
