# generated using pymatgen
data_Na5Y3Hf(PO4)6
_symmetry_space_group_name_H-M   'P 1'
_cell_length_a   9.21824800
_cell_length_b   9.20740191
_cell_length_c   23.57713000
_cell_angle_alpha   89.90414063
_cell_angle_beta   89.94960516
_cell_angle_gamma   120.01809247
_symmetry_Int_Tables_number   1
_chemical_formula_structural   Na5Y3Hf(PO4)6
_chemical_formula_sum   'Na15 Y9 Hf3 P18 O72'
_cell_volume   1732.71203320
_cell_formula_units_Z   3
loop_
 _symmetry_equiv_pos_site_id
 _symmetry_equiv_pos_as_xyz
  1  'x, y, z'
loop_
 _atom_site_type_symbol
 _atom_site_label
 _atom_site_symmetry_multiplicity
 _atom_site_fract_x
 _atom_site_fract_y
 _atom_site_fract_z
 _atom_site_occupancy
  Na  Na0  1  0.63753836  0.99943907  0.25336987  1
  Na  Na1  1  0.36235111  0.36331078  0.25428486  1
  Na  Na2  1  -0.00000157  0.63759044  0.25354204  1
  Na  Na3  1  0.64294566  0.63938472  0.74985160  1
  Na  Na4  1  0.99716964  0.35895687  0.75013164  1
  Na  Na5  1  0.03267600  0.69923720  0.58073538  1
  Na  Na6  1  0.66398099  0.96606442  0.58055116  1
  Na  Na7  1  0.66371069  0.69857964  0.08065029  1
  Na  Na8  1  0.03353095  0.33335129  0.08062797  1
  Na  Na9  1  0.01017505  0.01058869  0.49550283  1
  Na  Na10  1  0.01016209  0.99956996  0.99478373  1
  Na  Na11  1  0.65643425  0.32266803  0.83480139  1
  Na  Na12  1  0.66654171  0.33336269  0.34079109  1
  Na  Na13  1  0.33313814  0.67695484  0.16612602  1
  Na  Na14  1  0.33356935  0.66599209  0.66445310  1
  Y  Y0  1  0.99839628  0.99867638  0.35483218  1
  Y  Y1  1  0.00158766  0.99962417  0.85312798  1
  Y  Y2  1  0.01165780  0.00862910  0.64991536  1
  Y  Y3  1  0.00802532  0.99938466  0.14693443  1
  Y  Y4  1  0.65536110  0.32530245  0.68369989  1
  Y  Y5  1  0.66276765  0.32950256  0.18125753  1
  Y  Y6  1  0.33298693  0.67360826  0.01431669  1
  Y  Y7  1  0.33260899  0.65774624  0.51400555  1
  Y  Y8  1  0.33333159  0.66617679  0.32536852  1
  Hf  Hf0  1  0.66476623  0.33173906  0.97799982  1
  Hf  Hf1  1  0.66406359  0.33355172  0.48135368  1
  Hf  Hf2  1  0.33343968  0.67270791  0.82071589  1
  P  P0  1  0.29691272  0.99734153  0.25066175  1
  P  P1  1  0.70104268  0.70318507  0.24830240  1
  P  P2  1  0.00212184  0.29896516  0.24836451  1
  P  P3  1  0.29819821  0.30777724  0.75322686  1
  P  P4  1  0.00610116  0.70143242  0.75046658  1
  P  P5  1  0.69847028  0.99340071  0.75087936  1
  P  P6  1  0.95436436  0.33297590  0.58321236  1
  P  P7  1  0.37367462  0.03867013  0.58042686  1
  P  P8  1  0.66859367  0.62758139  0.58343958  1
  P  P9  1  0.95458680  0.62082225  0.08117190  1
  P  P10  1  0.66784773  0.04128710  0.08164291  1
  P  P11  1  0.37539968  0.33489644  0.08055328  1
  P  P12  1  0.62517380  0.65958622  0.91751383  1
  P  P13  1  0.03394679  0.37441859  0.91789491  1
  P  P14  1  0.34040463  0.96764909  0.91699328  1
  P  P15  1  0.63464823  0.97553190  0.41901316  1
  P  P16  1  0.34044726  0.36373602  0.41670857  1
  P  P17  1  0.02489604  0.65943024  0.41917399  1
  O  O0  1  0.21305136  0.02649820  0.30188421  1
  O  O1  1  0.81641388  0.79058082  0.29879185  1
  O  O2  1  0.97445887  0.18337501  0.29895169  1
  O  O3  1  0.21324441  0.19541857  0.80412462  1
  O  O4  1  0.97332170  0.78815713  0.79990511  1
  O  O5  1  0.81656318  0.02277962  0.80050552  1
  O  O6  1  0.76958510  0.95878288  0.69570373  1
  O  O7  1  0.18908395  0.23308135  0.69951052  1
  O  O8  1  0.03453151  0.80184859  0.69479071  1
  O  O9  1  0.77910337  0.80617463  0.19317510  1
  O  O10  1  0.02773396  0.22141906  0.19335209  1
  O  O11  1  0.18950471  0.96997617  0.19715503  1
  O  O12  1  0.87981961  0.35657205  0.63875499  1
  O  O13  1  0.47699788  0.11564804  0.63424047  1
  O  O14  1  0.64776060  0.53200891  0.63912477  1
  O  O15  1  0.88186059  0.52495600  0.13735763  1
  O  O16  1  0.64741029  0.11384124  0.13786740  1
  O  O17  1  0.47159478  0.35844017  0.13650701  1
  O  O18  1  0.47682149  0.32061823  0.03038979  1
  O  O19  1  0.83694403  0.52018633  0.03101842  1
  O  O20  1  0.68331260  0.15875053  0.03147432  1
  O  O21  1  0.47024997  0.15178261  0.52925539  1
  O  O22  1  0.68444602  0.52723278  0.53303571  1
  O  O23  1  0.83758263  0.31490526  0.53269936  1
  O  O24  1  0.54729463  0.68203256  0.97165924  1
  O  O25  1  0.13454736  0.45219484  0.97196313  1
  O  O26  1  0.31564894  0.86452455  0.97001023  1
  O  O27  1  0.54700172  0.86608437  0.47105482  1
  O  O28  1  0.31759033  0.45536850  0.46657800  1
  O  O29  1  0.13380496  0.68076186  0.47114714  1
  O  O30  1  0.10111676  0.63246880  0.36393533  1
  O  O31  1  0.53180556  0.89853236  0.36385099  1
  O  O32  1  0.36829984  0.46400712  0.36064687  1
  O  O33  1  0.12840986  0.49014494  0.86525614  1
  O  O34  1  0.36179852  0.87324256  0.86488048  1
  O  O35  1  0.51086915  0.64033378  0.86487164  1
  O  O36  1  0.00436564  0.81421108  0.41408362  1
  O  O37  1  0.80975838  0.99570709  0.41397981  1
  O  O38  1  0.18563743  0.18840280  0.41307056  1
  O  O39  1  0.01088474  0.19938811  0.91021122  1
  O  O40  1  0.18864290  0.99039922  0.90972242  1
  O  O41  1  0.80044141  0.81157331  0.91005233  1
  O  O42  1  0.96140889  0.16817604  0.58571693  1
  O  O43  1  0.19572240  0.01594437  0.58393568  1
  O  O44  1  0.83419875  0.80163739  0.58515809  1
  O  O45  1  0.96071413  0.79196530  0.08288335  1
  O  O46  1  0.83345452  0.03350278  0.08293797  1
  O  O47  1  0.19696554  0.18037259  0.08232483  1
  O  O48  1  0.68355633  0.15236432  0.74556334  1
  O  O49  1  0.47924724  0.34147409  0.74698447  1
  O  O50  1  0.84985957  0.52200062  0.74563352  1
  O  O51  1  0.68012893  0.52493323  0.24430449  1
  O  O52  1  0.84467235  0.31945313  0.24438434  1
  O  O53  1  0.47426232  0.15483391  0.24517207  1
  O  O54  1  0.63663320  0.49554078  0.92300312  1
  O  O55  1  0.85849003  0.36269344  0.92354826  1
  O  O56  1  0.50447661  0.14218447  0.92267173  1
  O  O57  1  0.64987962  0.15128636  0.42660639  1
  O  O58  1  0.50143603  0.35104498  0.42601272  1
  O  O59  1  0.84936893  0.49881635  0.42708821  1
  O  O60  1  0.35953368  0.49462658  0.07574766  1
  O  O61  1  0.12682785  0.63344570  0.07583110  1
  O  O62  1  0.51961104  0.86083767  0.07690641  1
  O  O63  1  0.35641393  0.86233877  0.57552355  1
  O  O64  1  0.51973484  0.65887692  0.57762889  1
  O  O65  1  0.12694464  0.49290014  0.57682910  1
  O  O66  1  0.31641317  0.83955405  0.25619258  1
  O  O67  1  0.52502707  0.68582078  0.25499318  1
  O  O68  1  0.16015967  0.47584751  0.25490323  1
  O  O69  1  0.31300619  0.48551170  0.76171220  1
  O  O70  1  0.16075068  0.67648680  0.76139138  1
  O  O71  1  0.52400950  0.83136177  0.76181725  1
loop_
_geom_bond_atom_site_label_1
_geom_bond_atom_site_label_2
_geom_bond_distance
_geom_bond_site_symmetry_2
Na0 O67 2.533469 1_555
Na0 O53 2.550322 1_565
Na0 O66 2.563898 1_555
Na0 O52 2.596273 1_565
Na0 O31 2.771227 1_555
Na0 O2 2.901448 1_565
Na0 O16 2.903065 1_565
Na1 O68 2.545610 1_555
Na1 O51 2.546957 1_555
Na1 O67 2.571309 1_555
Na1 O53 2.603328 1_555
Na1 O32 2.666155 1_555
Na1 O0 2.913088 1_555
Na1 O17 2.961045 1_555
Na2 O52 2.546232 1_455
Na2 O66 2.557993 1_555
Na2 O68 2.568746 1_555
Na2 O51 2.599902 1_455
Na2 O30 2.773676 1_555
Na2 O1 2.893698 1_455
Na2 O15 2.941083 1_455
Na2 O11 2.969569 1_555
Na3 O49 2.380123 1_555
Na3 O71 2.519177 1_555
Na3 O50 2.622746 1_555
Na3 O69 2.649850 1_555
Na3 O14 2.801264 1_555
Na3 O6 2.861983 1_555
Na3 O4 2.895128 1_555
Na3 O35 2.973453 1_555
Na4 O50 2.479570 1_555
Na4 O70 2.546406 1_655
Na4 O48 2.546892 1_555
Na4 O69 2.552839 1_655
Na4 O7 2.819552 1_655
Na4 O12 2.836844 1_555
Na4 O5 2.931118 1_555
Na4 O33 2.974009 1_655
Na5 O44 2.444027 1_455
Na5 O65 2.454640 1_555
Na5 O43 2.526612 1_565
Na5 O63 2.586696 1_555
Na5 O29 2.780251 1_555
Na5 O8 2.848959 1_555
Na6 O42 2.427238 1_565
Na6 O64 2.451637 1_555
Na6 O63 2.501281 1_555
Na6 O44 2.672551 1_555
Na6 O27 2.773912 1_555
Na6 O6 2.896991 1_555
Na6 O13 2.974471 1_565
Na6 O23 2.998681 1_565
Na7 O45 2.425475 1_555
Na7 O62 2.447371 1_555
Na7 O60 2.476887 1_555
Na7 O46 2.670905 1_565
Na7 O24 2.760575 1_554
Na7 O9 2.847944 1_555
Na8 O46 2.435439 1_455
Na8 O61 2.451173 1_555
Na8 O47 2.525572 1_555
Na8 O60 2.604464 1_555
Na8 O25 2.755952 1_554
Na8 O10 2.839703 1_555
Na9 O38 2.531428 1_555
Na9 O36 2.621467 1_545
Na9 O37 2.623019 1_445
Na9 O43 2.682796 1_555
Na9 O42 2.737289 1_455
Na9 O44 2.767458 1_445
Na10 O40 2.621045 1_555
Na10 O47 2.673215 1_566
Na10 O45 2.699883 1_456
Na10 O39 2.708563 1_565
Na10 O41 2.719329 1_455
Na10 O46 2.752511 1_466
Na11 O56 2.582652 1_555
Na11 O54 2.681876 1_555
Na11 O49 2.696740 1_555
Na11 O55 2.702934 1_555
Na11 O48 2.711161 1_555
Na11 O50 2.770141 1_555
Na12 O58 2.573674 1_555
Na12 O57 2.580349 1_555
Na12 O59 2.597775 1_555
Na12 O53 2.833795 1_555
Na12 O51 2.840248 1_555
Na12 O52 2.843249 1_555
Na13 O66 2.648666 1_555
Na13 O62 2.704814 1_555
Na13 O68 2.716501 1_555
Na13 O67 2.718127 1_555
Na13 O61 2.749050 1_555
Na13 O60 2.799608 1_555
Na14 O64 2.691950 1_555
Na14 O63 2.704521 1_555
Na14 O65 2.723349 1_555
Na14 O69 2.779738 1_555
Na14 O70 2.814115 1_555
Na14 O71 2.830936 1_555
Hf0 O19 2.085094 1_556
Hf0 O18 2.087142 1_556
Hf0 O56 2.088487 1_555
Hf0 O55 2.098561 1_555
Hf0 O54 2.099671 1_555
Hf0 O20 2.102815 1_556
Hf1 O58 2.054301 1_555
Hf1 O59 2.063788 1_555
Hf1 O21 2.065647 1_555
Hf1 O57 2.070638 1_555
Hf1 O23 2.081106 1_555
Hf1 O22 2.091091 1_555
Hf2 O34 2.021326 1_555
Hf2 O33 2.076618 1_555
Hf2 O35 2.082687 1_555
Hf2 O70 2.133275 1_555
Hf2 O71 2.137679 1_555
Hf2 O69 2.150618 1_555
O0 P0 1.528155 1_545
O0 Y0 2.242069 1_445
O1 P1 1.531275 1_555
O1 Y0 2.242201 1_555
O2 P2 1.530992 1_655
O2 Y0 2.246107 1_545
O3 P3 1.518940 1_555
O3 Y1 2.204852 1_545
O4 P4 1.526926 1_655
O4 Y1 2.221422 1_655
O5 P5 1.528368 1_545
O5 Y1 2.204656 1_645
O6 P5 1.559678 1_555
O6 Y2 2.307598 1_665
O7 P3 1.549740 1_555
O7 Y2 2.223238 1_555
O8 P4 1.549042 1_555
O8 Y2 2.276860 1_565
O9 P1 1.554941 1_555
O9 Y3 2.244955 1_655
O10 P2 1.555333 1_555
O10 Y3 2.246404 1_545
O11 P0 1.545617 1_555
O11 Y3 2.174770 1_555
O12 P6 1.543709 1_555
O12 Y4 2.210454 1_555
O13 P7 1.532645 1_555
O13 Y4 2.150533 1_555
O14 P8 1.536730 1_555
O14 Y4 2.204212 1_555
O15 P9 1.544617 1_555
O15 Y5 2.177709 1_555
O16 P10 1.538655 1_555
O16 Y5 2.176078 1_555
O17 P11 1.544139 1_555
O17 Y5 2.182191 1_555
O18 P11 1.552977 1_555
O19 P9 1.559935 1_555
O20 P10 1.558936 1_555
O21 P7 1.548879 1_555
O22 P8 1.557479 1_555
O23 P6 1.558414 1_555
O24 P12 1.528242 1_555
O24 Y6 2.182480 1_556
O25 P13 1.529229 1_555
O25 Y6 2.185908 1_556
O26 P14 1.514873 1_555
O26 Y6 2.117082 1_556
O27 P15 1.534043 1_555
O27 Y7 2.192679 1_555
O28 P16 1.522965 1_555
O28 Y7 2.119160 1_555
O29 P17 1.534183 1_555
O29 Y7 2.194448 1_555
O30 P17 1.557388 1_555
O30 Y8 2.199152 1_555
O31 P15 1.557443 1_555
O31 Y8 2.200148 1_555
O32 P16 1.556766 1_555
O32 Y8 2.203727 1_555
O33 P13 1.580888 1_555
O34 P14 1.574410 1_555
O35 P12 1.580599 1_555
O36 P17 1.533148 1_555
O36 Y0 2.219235 1_455
O37 P15 1.534219 1_555
O37 Y0 2.217502 1_555
O38 P16 1.531558 1_555
O38 Y0 2.216203 1_445
O39 P13 1.527560 1_555
O39 Y1 2.247776 1_545
O40 P14 1.524437 1_555
O40 Y1 2.216113 1_555
O41 P12 1.528437 1_555
O41 Y1 2.238957 1_655
O42 P6 1.551914 1_555
O42 Y2 2.310457 1_655
O43 P7 1.548494 1_555
O43 Y2 2.276861 1_555
O44 P8 1.566182 1_555
O44 Y2 2.352473 1_665
O45 P9 1.548894 1_555
O45 Y3 2.301192 1_655
O46 P10 1.564015 1_555
O46 Y3 2.339541 1_645
O47 P11 1.545865 1_555
O47 Y3 2.283375 1_545
O48 P5 1.541949 1_545
O48 Y4 2.266582 1_555
O49 P3 1.544233 1_555
O49 Y4 2.263275 1_555
O50 P4 1.561073 1_655
O50 Y4 2.321937 1_555
O51 P1 1.556815 1_555
O51 Y5 2.279101 1_555
O52 P2 1.557274 1_655
O52 Y5 2.279192 1_555
O53 P0 1.555405 1_545
O53 Y5 2.251211 1_555
O54 P12 1.571091 1_555
O55 P13 1.571713 1_655
O56 P14 1.567532 1_545
O57 P15 1.563377 1_545
O58 P16 1.561450 1_555
O59 P17 1.563416 1_655
O60 P11 1.553021 1_555
O60 Y6 2.295549 1_555
O61 P9 1.537954 1_455
O61 Y6 2.267606 1_555
O62 P10 1.539320 1_565
O62 Y6 2.270401 1_555
O63 P7 1.554606 1_565
O63 Y7 2.301422 1_555
O64 P8 1.542920 1_555
O64 Y7 2.283077 1_555
O65 P6 1.541683 1_455
O65 Y7 2.280438 1_555
O66 P0 1.555857 1_555
O66 Y8 2.339566 1_555
O67 P1 1.556612 1_555
O67 Y8 2.362731 1_555
O68 P2 1.557515 1_555
O68 Y8 2.365350 1_555
O69 P3 1.585666 1_555
O70 P4 1.574641 1_555
O71 P5 1.573561 1_555
