# generated using pymatgen
data_Na4YHfSi2PO12
_symmetry_space_group_name_H-M   'P 1'
_cell_length_a   9.34961360
_cell_length_b   9.34961325
_cell_length_c   22.82806466
_cell_angle_alpha   90.02612655
_cell_angle_beta   89.97387345
_cell_angle_gamma   119.80868143
_symmetry_Int_Tables_number   1
_chemical_formula_structural   Na4YHfSi2PO12
_chemical_formula_sum   'Na24 Y6 Hf6 Si12 P6 O72'
_cell_volume   1731.49406268
_cell_formula_units_Z   6
loop_
 _symmetry_equiv_pos_site_id
 _symmetry_equiv_pos_as_xyz
  1  'x, y, z'
loop_
 _atom_site_type_symbol
 _atom_site_label
 _atom_site_symmetry_multiplicity
 _atom_site_fract_x
 _atom_site_fract_y
 _atom_site_fract_z
 _atom_site_occupancy
  Na  Na0  1  0.64479065  0.00635047  0.25139969  1
  Na  Na1  1  0.36972880  0.36876835  0.24477963  1
  Na  Na2  1  0.98836842  0.62515882  0.24960511  1
  Na  Na3  1  0.63123165  0.63027120  0.74477963  1
  Na  Na4  1  0.99364953  0.35520935  0.75139969  1
  Na  Na5  1  0.37484118  0.01163158  0.74960511  1
  Na  Na6  1  0.31145765  0.33968347  0.58473269  1
  Na  Na7  1  0.03639580  0.70210135  0.57811263  1
  Na  Na8  1  0.65503542  0.95849182  0.58293811  1
  Na  Na9  1  0.29789865  0.96360420  0.07811263  1
  Na  Na10  1  0.66031653  0.68854235  0.08473269  1
  Na  Na11  1  0.04150818  0.34496458  0.08293811  1
  Na  Na12  1  0.97812365  0.67301747  0.91806669  1
  Na  Na13  1  0.70306180  0.03543535  0.91144663  1
  Na  Na14  1  0.32170142  0.29182582  0.91627211  1
  Na  Na15  1  0.96456465  0.29693820  0.41144663  1
  Na  Na16  1  0.32698253  0.02187635  0.41806669  1
  Na  Na17  1  0.70817418  0.67829858  0.41627211  1
  Na  Na18  1  0.99360659  0.98856681  0.49847165  1
  Na  Na19  1  0.01143319  0.00639341  0.99847165  1
  Na  Na20  1  0.66027359  0.32189981  0.83180465  1
  Na  Na21  1  0.67810019  0.33972641  0.33180465  1
  Na  Na22  1  0.32693959  0.65523381  0.16513865  1
  Na  Na23  1  0.34476619  0.67306041  0.66513865  1
  Y  Y0  1  0.99556657  0.99671685  0.34924885  1
  Y  Y1  1  0.00328315  0.00443343  0.84924885  1
  Y  Y2  1  0.66223357  0.33004985  0.68258185  1
  Y  Y3  1  0.66995015  0.33776643  0.18258185  1
  Y  Y4  1  0.32889957  0.66338385  0.01591585  1
  Y  Y5  1  0.33661615  0.67110043  0.51591585  1
  Hf  Hf0  1  0.99895006  0.00108968  0.64874127  1
  Hf  Hf1  1  0.99891032  0.00104994  0.14874127  1
  Hf  Hf2  1  0.66561706  0.33442268  0.98207427  1
  Hf  Hf3  1  0.66557732  0.33438294  0.48207427  1
  Hf  Hf4  1  0.33228306  0.66775668  0.31540827  1
  Hf  Hf5  1  0.33224332  0.66771694  0.81540827  1
  Si  Si0  1  0.69716279  0.70305290  0.25022617  1
  Si  Si1  1  0.00578256  0.30176849  0.25079236  1
  Si  Si2  1  0.29694710  0.30283721  0.75022617  1
  Si  Si3  1  0.69823151  0.99421744  0.75079236  1
  Si  Si4  1  0.36382979  0.03638590  0.58355917  1
  Si  Si5  1  0.67244956  0.63510149  0.58412536  1
  Si  Si6  1  0.96361410  0.63617021  0.08355917  1
  Si  Si7  1  0.36489851  0.32755044  0.08412536  1
  Si  Si8  1  0.03049579  0.36971990  0.91689317  1
  Si  Si9  1  0.33911556  0.96843549  0.91745936  1
  Si  Si10  1  0.63028010  0.96950421  0.41689317  1
  Si  Si11  1  0.03156451  0.66088444  0.41745936  1
  P  P0  1  0.29239948  0.99245064  0.24978852  1
  P  P1  1  0.00754936  0.70760052  0.74978852  1
  P  P2  1  0.95906648  0.32578364  0.58312152  1
  P  P3  1  0.67421636  0.04093352  0.08312152  1
  P  P4  1  0.62573248  0.65911764  0.91645552  1
  P  P5  1  0.34088236  0.37426752  0.41645552  1
  O  O0  1  0.22170682  0.02480528  0.30553091  1
  O  O1  1  0.80871149  0.77914001  0.30820672  1
  O  O2  1  0.97990308  0.19649716  0.30959870  1
  O  O3  1  0.22085999  0.19128851  0.80820672  1
  O  O4  1  0.97519472  0.77829318  0.80553091  1
  O  O5  1  0.80350284  0.02009692  0.80959870  1
  O  O6  1  0.79621903  0.96932466  0.69365879  1
  O  O7  1  0.17361711  0.20411600  0.69331717  1
  O  O8  1  0.02956233  0.82205174  0.69621503  1
  O  O9  1  0.79588400  0.82638289  0.19331717  1
  O  O10  1  0.03067534  0.20378097  0.19365879  1
  O  O11  1  0.17794826  0.97043767  0.19621503  1
  O  O12  1  0.88837382  0.35813828  0.63886391  1
  O  O13  1  0.47537849  0.11247301  0.64153972  1
  O  O14  1  0.64657008  0.52983016  0.64293170  1
  O  O15  1  0.88752699  0.52462151  0.14153972  1
  O  O16  1  0.64186172  0.11162618  0.13886391  1
  O  O17  1  0.47016984  0.35342992  0.14293170  1
  O  O18  1  0.46288603  0.30265766  0.02699179  1
  O  O19  1  0.84028411  0.53744900  0.02665017  1
  O  O20  1  0.69622933  0.15538474  0.02954803  1
  O  O21  1  0.46255100  0.15971589  0.52665017  1
  O  O22  1  0.69734234  0.53711397  0.52699179  1
  O  O23  1  0.84461526  0.30377067  0.52954803  1
  O  O24  1  0.55503982  0.69147228  0.97219791  1
  O  O25  1  0.14204449  0.44580701  0.97487372  1
  O  O26  1  0.31323608  0.86316416  0.97626570  1
  O  O27  1  0.55419299  0.85795551  0.47487372  1
  O  O28  1  0.30852772  0.44496018  0.47219791  1
  O  O29  1  0.13683584  0.68676392  0.47626570  1
  O  O30  1  0.12955203  0.63599166  0.36032579  1
  O  O31  1  0.50695011  0.87078300  0.35998417  1
  O  O32  1  0.36289533  0.48871874  0.36288203  1
  O  O33  1  0.12921700  0.49304989  0.85998417  1
  O  O34  1  0.36400834  0.87044797  0.86032579  1
  O  O35  1  0.51128126  0.63710467  0.86288203  1
  O  O36  1  0.01273488  0.82504581  0.41369110  1
  O  O37  1  0.81752488  0.99950788  0.41316996  1
  O  O38  1  0.19434141  0.19802332  0.40969243  1
  O  O39  1  0.00049212  0.18247512  0.91316996  1
  O  O40  1  0.17495419  0.98726512  0.91369110  1
  O  O41  1  0.80197668  0.80565859  0.90969243  1
  O  O42  1  0.96599292  0.16236530  0.58779990  1
  O  O43  1  0.18310798  0.02988700  0.58833826  1
  O  O44  1  0.84331889  0.81840958  0.58772777  1
  O  O45  1  0.97011300  0.81689202  0.08833826  1
  O  O46  1  0.83763470  0.03400708  0.08779990  1
  O  O47  1  0.18159042  0.15668111  0.08772777  1
  O  O48  1  0.67940188  0.15837881  0.74702410  1
  O  O49  1  0.48419188  0.33284088  0.74650296  1
  O  O50  1  0.86100841  0.53135632  0.74302543  1
  O  O51  1  0.66715912  0.51580812  0.24650296  1
  O  O52  1  0.84162119  0.32059812  0.24702410  1
  O  O53  1  0.46864368  0.13899159  0.24302543  1
  O  O54  1  0.63265992  0.49569830  0.92113290  1
  O  O55  1  0.84977498  0.36322000  0.92167126  1
  O  O56  1  0.50998589  0.15174258  0.92106077  1
  O  O57  1  0.63678000  0.15022502  0.42167126  1
  O  O58  1  0.50430170  0.36734008  0.42113290  1
  O  O59  1  0.84825742  0.49001411  0.42106077  1
  O  O60  1  0.34606788  0.49171281  0.08035810  1
  O  O61  1  0.15085788  0.66617488  0.07983696  1
  O  O62  1  0.52767441  0.86469032  0.07635943  1
  O  O63  1  0.33382512  0.84914212  0.57983696  1
  O  O64  1  0.50828719  0.65393212  0.58035810  1
  O  O65  1  0.13530968  0.47232559  0.57635943  1
  O  O66  1  0.29932592  0.82903230  0.25446690  1
  O  O67  1  0.51644098  0.69655400  0.25500526  1
  O  O68  1  0.17665189  0.48507658  0.25439477  1
  O  O69  1  0.30344600  0.48355902  0.75500526  1
  O  O70  1  0.17096770  0.70067408  0.75446690  1
  O  O71  1  0.51492342  0.82334811  0.75439477  1
loop_
_geom_bond_atom_site_label_1
_geom_bond_atom_site_label_2
_geom_bond_distance
_geom_bond_site_symmetry_2
Na0 O53 2.513539 1_555
Na0 O67 2.526029 1_545
Na0 O52 2.579437 1_555
Na0 O16 2.756514 1_555
Na0 O31 2.790642 1_545
Na0 O66 2.803949 1_545
Na0 O9 2.990716 1_545
Na0 O2 3.034168 1_555
Na1 O51 2.413267 1_555
Na1 O17 2.537642 1_555
Na1 O68 2.537817 1_555
Na1 O67 2.673652 1_555
Na1 O53 2.728988 1_555
Na1 O32 2.932375 1_555
Na1 O10 2.988390 1_555
Na2 O52 2.471838 1_555
Na2 O66 2.566840 1_655
Na2 O15 2.641420 1_555
Na2 O51 2.648940 1_555
Na2 O68 2.668106 1_655
Na2 O30 2.830377 1_655
Na3 O49 2.413267 1_555
Na3 O14 2.537642 1_555
Na3 O71 2.537817 1_555
Na3 O69 2.673652 1_555
Na3 O50 2.728988 1_555
Na3 O35 2.932375 1_555
Na3 O6 2.988389 1_555
Na4 O50 2.513539 1_555
Na4 O69 2.526029 1_655
Na4 O48 2.579437 1_555
Na4 O12 2.756514 1_555
Na4 O33 2.790642 1_655
Na4 O70 2.803949 1_655
Na4 O7 2.990716 1_655
Na4 O5 3.034168 1_555
Na5 O48 2.471838 1_555
Na5 O70 2.566840 1_545
Na5 O13 2.641420 1_555
Na5 O49 2.648940 1_555
Na5 O71 2.668106 1_545
Na5 O34 2.830377 1_545
Na6 O65 2.513553 1_555
Na6 O43 2.526029 1_555
Na6 O64 2.579442 1_555
Na6 O28 2.756497 1_555
Na6 O7 2.790642 1_555
Na6 O42 2.803949 1_455
Na6 O21 2.990716 1_555
Na6 O14 3.034168 1_555
Na7 O63 2.413259 1_555
Na7 O29 2.537615 1_555
Na7 O44 2.537817 1_455
Na7 O43 2.673652 1_565
Na7 O65 2.728972 1_555
Na7 O8 2.932375 1_555
Na7 O22 2.988390 1_455
Na8 O64 2.471829 1_555
Na8 O42 2.566840 1_565
Na8 O27 2.641399 1_555
Na8 O63 2.648950 1_555
Na8 O44 2.668106 1_555
Na8 O6 2.830377 1_555
Na9 O61 2.413259 1_555
Na9 O26 2.537615 1_554
Na9 O47 2.537817 1_565
Na9 O45 2.673652 1_455
Na9 O62 2.728972 1_555
Na9 O11 2.932375 1_555
Na9 O18 2.988389 1_565
Na10 O62 2.513553 1_555
Na10 O45 2.526029 1_555
Na10 O60 2.579442 1_555
Na10 O24 2.756497 1_554
Na10 O9 2.790642 1_555
Na10 O46 2.803949 1_565
Na10 O19 2.990716 1_555
Na10 O17 3.034168 1_555
Na11 O60 2.471829 1_555
Na11 O46 2.566840 1_455
Na11 O25 2.641399 1_554
Na11 O61 2.648950 1_555
Na11 O47 2.668106 1_555
Na11 O10 2.830377 1_555
Na12 O41 2.513539 1_555
Na12 O55 2.526037 1_555
Na12 O40 2.579437 1_655
Na12 O4 2.756514 1_555
Na12 O19 2.790621 1_556
Na12 O54 2.803941 1_555
Na12 O33 2.990716 1_655
Na12 O26 3.034168 1_655
Na13 O39 2.413267 1_655
Na13 O5 2.537642 1_555
Na13 O56 2.537799 1_555
Na13 O55 2.673641 1_555
Na13 O41 2.728988 1_545
Na13 O20 2.932349 1_556
Na13 O34 2.988390 1_545
Na14 O40 2.471838 1_545
Na14 O54 2.566845 1_555
Na14 O3 2.641420 1_555
Na14 O39 2.648940 1_555
Na14 O56 2.668121 1_555
Na14 O18 2.830362 1_556
Na15 O37 2.413267 1_545
Na15 O2 2.537642 1_555
Na15 O59 2.537799 1_555
Na15 O57 2.673641 1_555
Na15 O38 2.728988 1_655
Na15 O23 2.932349 1_555
Na15 O30 2.988389 1_655
Na16 O38 2.513539 1_555
Na16 O57 2.526038 1_555
Na16 O36 2.579437 1_545
Na16 O0 2.756514 1_555
Na16 O21 2.790621 1_555
Na16 O58 2.803940 1_555
Na16 O31 2.990716 1_545
Na16 O29 3.034168 1_545
Na17 O36 2.471838 1_655
Na17 O58 2.566845 1_555
Na17 O1 2.641420 1_555
Na17 O37 2.648940 1_555
Na17 O59 2.668121 1_555
Na17 O22 2.830362 1_555
Na18 O36 2.526638 1_655
Na18 O44 2.536694 1_555
Na18 O37 2.585181 1_555
Na18 O43 2.611330 1_665
Na18 O42 2.697964 1_565
Na18 O38 2.794783 1_665
Na19 O40 2.526638 1_545
Na19 O47 2.536694 1_556
Na19 O39 2.585181 1_555
Na19 O45 2.611330 1_446
Na19 O46 2.697964 1_456
Na19 O41 2.794783 1_445
Na20 O48 2.526638 1_555
Na20 O56 2.536694 1_555
Na20 O49 2.585181 1_555
Na20 O55 2.611330 1_555
Na20 O54 2.697964 1_555
Na20 O50 2.794783 1_555
Na21 O52 2.526638 1_555
Na21 O59 2.536694 1_555
Na21 O51 2.585181 1_555
Na21 O57 2.611330 1_555
Na21 O58 2.697964 1_555
Na21 O53 2.794783 1_555
Na22 O60 2.526638 1_555
Na22 O68 2.536694 1_555
Na22 O61 2.585181 1_555
Na22 O67 2.611330 1_555
Na22 O66 2.697964 1_555
Na22 O62 2.794783 1_555
Na23 O64 2.526638 1_555
Na23 O71 2.536694 1_555
Na23 O63 2.585181 1_555
Na23 O69 2.611330 1_555
Na23 O70 2.697964 1_555
Na23 O65 2.794783 1_555
Hf0 O6 2.042350 1_545
Hf0 O7 2.055090 1_655
Hf0 O43 2.115585 1_655
Hf0 O44 2.122086 1_545
Hf0 O8 2.129958 1_645
Hf0 O42 2.183623 1_555
Hf1 O10 2.042350 1_655
Hf1 O9 2.055090 1_545
Hf1 O45 2.115585 1_545
Hf1 O47 2.122086 1_655
Hf1 O11 2.129959 1_645
Hf1 O46 2.183623 1_555
Hf2 O18 2.042350 1_556
Hf2 O19 2.055090 1_556
Hf2 O55 2.115585 1_555
Hf2 O56 2.122086 1_555
Hf2 O20 2.129958 1_556
Hf2 O54 2.183623 1_555
Hf3 O22 2.042350 1_555
Hf3 O21 2.055090 1_555
Hf3 O57 2.115585 1_555
Hf3 O59 2.122086 1_555
Hf3 O23 2.129959 1_555
Hf3 O58 2.183623 1_555
Hf4 O30 2.042350 1_555
Hf4 O31 2.055090 1_555
Hf4 O67 2.115585 1_555
Hf4 O68 2.122086 1_555
Hf4 O32 2.129958 1_555
Hf4 O66 2.183623 1_555
Hf5 O34 2.042350 1_555
Hf5 O33 2.055090 1_555
Hf5 O69 2.115585 1_555
Hf5 O71 2.122086 1_555
Hf5 O35 2.129959 1_555
Hf5 O70 2.183623 1_555
O0 P0 1.531424 1_545
O0 Y0 2.231950 1_445
O1 Si0 1.615062 1_555
O1 Y0 2.129445 1_555
O2 Si1 1.610452 1_655
O2 Y0 2.145525 1_545
O3 Si2 1.615062 1_555
O3 Y1 2.129445 1_555
O4 P1 1.531424 1_655
O4 Y1 2.231950 1_665
O5 Si3 1.610452 1_545
O5 Y1 2.145525 1_655
O6 Si3 1.674866 1_555
O7 Si2 1.676722 1_555
O8 P1 1.570064 1_555
O9 Si0 1.676722 1_555
O10 Si1 1.674866 1_555
O11 P0 1.570064 1_555
O12 P2 1.531424 1_555
O12 Y2 2.231950 1_555
O13 Si4 1.615062 1_555
O13 Y2 2.129445 1_555
O14 Si5 1.610452 1_555
O14 Y2 2.145525 1_555
O15 Si6 1.615062 1_555
O15 Y3 2.129445 1_555
O16 P3 1.531424 1_555
O16 Y3 2.231950 1_555
O17 Si7 1.610452 1_555
O17 Y3 2.145525 1_555
O18 Si7 1.674866 1_555
O19 Si6 1.676722 1_555
O20 P3 1.570064 1_555
O21 Si4 1.676722 1_555
O22 Si5 1.674866 1_555
O23 P2 1.570064 1_555
O24 P4 1.531424 1_555
O24 Y4 2.231950 1_556
O25 Si8 1.615062 1_555
O25 Y4 2.129445 1_556
O26 Si9 1.610452 1_555
O26 Y4 2.145525 1_556
O27 Si10 1.615062 1_555
O27 Y5 2.129445 1_555
O28 P5 1.531424 1_555
O28 Y5 2.231950 1_555
O29 Si11 1.610452 1_555
O29 Y5 2.145525 1_555
O30 Si11 1.674866 1_555
O31 Si10 1.676722 1_555
O32 P5 1.570064 1_555
O33 Si8 1.676722 1_555
O34 Si9 1.674866 1_555
O35 P4 1.570064 1_555
O36 Si11 1.631846 1_555
O36 Y0 2.241563 1_455
O37 Si10 1.631679 1_555
O37 Y0 2.223023 1_555
O38 P5 1.540021 1_555
O38 Y0 2.328637 1_445
O39 Si8 1.631679 1_555
O39 Y1 2.223023 1_555
O40 Si9 1.631846 1_555
O40 Y1 2.241563 1_565
O41 P4 1.540021 1_555
O41 Y1 2.328637 1_665
O42 P2 1.564801 1_555
O43 Si4 1.663843 1_555
O44 Si5 1.665571 1_555
O45 Si6 1.663843 1_555
O46 P3 1.564801 1_555
O47 Si7 1.665571 1_555
O48 Si3 1.631846 1_545
O48 Y2 2.241563 1_555
O49 Si2 1.631679 1_555
O49 Y2 2.223023 1_555
O50 P1 1.540021 1_655
O50 Y2 2.328637 1_555
O51 Si0 1.631679 1_555
O51 Y3 2.223023 1_555
O52 Si1 1.631846 1_655
O52 Y3 2.241563 1_555
O53 P0 1.540021 1_545
O53 Y3 2.328637 1_555
O54 P4 1.564813 1_555
O55 Si8 1.663828 1_655
O56 Si9 1.665569 1_545
O57 Si10 1.663828 1_545
O58 P5 1.564813 1_555
O59 Si11 1.665569 1_655
O60 Si7 1.631860 1_555
O60 Y4 2.241563 1_555
O61 Si6 1.631665 1_455
O61 Y4 2.223023 1_555
O62 P3 1.540016 1_565
O62 Y4 2.328637 1_555
O63 Si4 1.631665 1_565
O63 Y5 2.223023 1_555
O64 Si5 1.631860 1_555
O64 Y5 2.241563 1_555
O65 P2 1.540016 1_455
O65 Y5 2.328637 1_555
O66 P0 1.564801 1_555
O67 Si0 1.663843 1_555
O68 Si1 1.665571 1_555
O69 Si2 1.663843 1_555
O70 P1 1.564801 1_555
O71 Si3 1.665571 1_555
