# generated using pymatgen
data_DyB4
_symmetry_space_group_name_H-M   'P 1'
_cell_length_a   4.01251287
_cell_length_b   7.09273195
_cell_length_c   7.09273195
_cell_angle_alpha   90.00000000
_cell_angle_beta   90.00000000
_cell_angle_gamma   90.00000000
_symmetry_Int_Tables_number   1
_chemical_formula_structural   DyB4
_chemical_formula_sum   'Dy4 B16'
_cell_volume   201.85686909
_cell_formula_units_Z   4
loop_
 _symmetry_equiv_pos_site_id
 _symmetry_equiv_pos_as_xyz
  1  'x, y, z'
loop_
 _atom_site_type_symbol
 _atom_site_label
 _atom_site_symmetry_multiplicity
 _atom_site_fract_x
 _atom_site_fract_y
 _atom_site_fract_z
 _atom_site_occupancy
  Dy  Dy0  1  0.00000000  0.68235421  0.18235421  1
  Dy  Dy1  1  0.00000000  0.81764579  0.68235421  1
  Dy  Dy2  1  0.00000000  0.18235421  0.31764579  1
  Dy  Dy3  1  0.00000000  0.31764579  0.81764579  1
  B  B0  1  0.50000000  0.46157322  0.32410764  1
  B  B1  1  0.50000000  0.53842678  0.67589236  1
  B  B2  1  0.50000000  0.32410764  0.53842678  1
  B  B3  1  0.50000000  0.67589236  0.46157322  1
  B  B4  1  0.20286735  -0.00000000  0.00000000  1
  B  B5  1  0.79713265  0.50000000  0.50000000  1
  B  B6  1  0.79713265  -0.00000000  0.00000000  1
  B  B7  1  0.20286735  0.50000000  0.50000000  1
  B  B8  1  0.50000000  0.08713546  0.58713546  1
  B  B9  1  0.50000000  0.41286454  0.08713546  1
  B  B10  1  0.50000000  0.58713546  0.91286454  1
  B  B11  1  0.50000000  0.91286454  0.41286454  1
  B  B12  1  0.50000000  0.17589236  0.03842678  1
  B  B13  1  0.50000000  0.96157322  0.17589236  1
  B  B14  1  0.50000000  0.03842678  0.82410764  1
  B  B15  1  0.50000000  0.82410764  0.96157322  1
loop_
_geom_bond_atom_site_label_1
_geom_bond_atom_site_label_2
_geom_bond_distance
_geom_bond_site_symmetry_2
B0 B9 1.715919 1_555
B0 B5 1.747037 1_555
B0 B7 1.747037 1_555
B0 B3 1.805925 1_555
B0 B2 1.805925 1_555
B0 Dy0 2.736440 1_655
B0 Dy0 2.736440 1_555
B0 Dy2 2.819442 1_655
B0 Dy2 2.819442 1_555
B1 B10 1.715919 1_555
B1 B5 1.747037 1_555
B1 B7 1.747037 1_555
B1 B3 1.805925 1_555
B1 B2 1.805925 1_555
B1 Dy3 2.736440 1_655
B1 Dy3 2.736440 1_555
B1 Dy1 2.819442 1_655
B1 Dy1 2.819442 1_555
B2 B8 1.715919 1_555
B2 B5 1.747037 1_555
B2 B7 1.747037 1_555
B2 Dy2 2.736440 1_555
B2 Dy2 2.736440 1_655
B2 Dy3 2.819442 1_555
B2 Dy3 2.819442 1_655
B3 B5 1.747037 1_555
B3 B7 1.747037 1_555
B3 Dy1 2.736440 1_555
B3 Dy1 2.736440 1_655
B3 Dy0 2.819442 1_655
B3 Dy0 2.819442 1_555
B4 B6 1.628016 1_455
B4 Dy2 2.722383 1_555
B4 Dy1 2.722383 1_544
B4 Dy3 2.722383 1_554
B4 Dy0 2.722383 1_545
B5 B7 1.628016 1_655
B5 Dy0 2.722383 1_655
B5 Dy2 2.722383 1_655
B5 Dy1 2.722383 1_655
B5 Dy3 2.722383 1_655
B6 Dy1 2.722383 1_644
B6 Dy2 2.722383 1_655
B6 Dy3 2.722383 1_654
B6 Dy0 2.722383 1_645
B7 Dy2 2.722383 1_555
B7 Dy0 2.722383 1_555
B7 Dy3 2.722383 1_555
B7 Dy1 2.722383 1_555
B8 Dy2 2.852139 1_555
B8 Dy2 2.852139 1_655
B8 Dy1 2.852139 1_645
B8 Dy1 2.852139 1_545
B8 Dy3 3.061237 1_655
B8 Dy3 3.061237 1_555
B9 Dy0 2.852139 1_555
B9 Dy3 2.852139 1_554
B9 Dy3 2.852139 1_654
B9 Dy0 2.852139 1_655
B9 Dy2 3.061237 1_555
B9 Dy2 3.061237 1_655
B10 B15 1.715919 1_555
B10 B9 1.748048 1_556
B10 Dy0 2.852139 1_556
B10 Dy0 2.852139 1_656
B10 Dy3 2.852139 1_655
B10 Dy3 2.852139 1_555
B10 Dy1 3.061237 1_655
B10 Dy1 3.061237 1_555
B11 B13 1.715919 1_555
B11 B3 1.715919 1_555
B11 B8 1.748048 1_565
B11 Dy2 2.852139 1_565
B11 Dy2 2.852139 1_665
B11 Dy1 2.852139 1_655
B11 Dy1 2.852139 1_555
B11 Dy0 3.061237 1_655
B11 Dy0 3.061237 1_555
B12 B9 1.715919 1_555
B12 B6 1.747037 1_555
B12 B4 1.747037 1_555
B12 B14 1.805925 1_554
B12 B13 1.805925 1_545
B12 Dy3 2.736440 1_554
B12 Dy3 2.736440 1_654
B12 Dy2 2.819442 1_555
B12 Dy2 2.819442 1_655
B13 B6 1.747037 1_565
B13 B4 1.747037 1_565
B13 B15 1.805925 1_554
B13 Dy2 2.736440 1_565
B13 Dy2 2.736440 1_665
B13 Dy0 2.819442 1_655
B13 Dy0 2.819442 1_555
B14 B8 1.715919 1_555
B14 B4 1.747037 1_556
B14 B6 1.747037 1_556
B14 B15 1.805925 1_545
B14 Dy1 2.736440 1_545
B14 Dy1 2.736440 1_645
B14 Dy3 2.819442 1_555
B14 Dy3 2.819442 1_655
B15 B4 1.747037 1_566
B15 B6 1.747037 1_566
B15 Dy0 2.736440 1_556
B15 Dy0 2.736440 1_656
B15 Dy1 2.819442 1_655
B15 Dy1 2.819442 1_555
