# generated using pymatgen
data_MgV2Pb(OF4)2
_symmetry_space_group_name_H-M   'P 1'
_cell_length_a   5.16222555
_cell_length_b   5.81850023
_cell_length_c   7.23194774
_cell_angle_alpha   104.45530689
_cell_angle_beta   105.58950118
_cell_angle_gamma   90.63688731
_symmetry_Int_Tables_number   1
_chemical_formula_structural   MgV2Pb(OF4)2
_chemical_formula_sum   'Mg1 V2 Pb1 O2 F8'
_cell_volume   201.89351822
_cell_formula_units_Z   1
loop_
 _symmetry_equiv_pos_site_id
 _symmetry_equiv_pos_as_xyz
  1  'x, y, z'
loop_
 _atom_site_type_symbol
 _atom_site_label
 _atom_site_symmetry_multiplicity
 _atom_site_fract_x
 _atom_site_fract_y
 _atom_site_fract_z
 _atom_site_occupancy
  Mg  Mg0  1  0.73511000  0.12913000  0.42210300  1
  V  V0  1  0.37767500  0.36034400  0.76184100  1
  V  V1  1  0.62950100  0.64109900  0.24491500  1
  Pb  Pb0  1  0.99538800  0.94656400  0.94911500  1
  O  O0  1  0.47124900  0.30597000  0.55385000  1
  O  O1  1  0.62763800  0.76316000  0.47601000  1
  F  F0  1  0.53053900  0.10159600  0.86096700  1
  F  F1  1  0.44494400  0.92787800  0.17444400  1
  F  F2  1  0.02528100  0.17286400  0.67521000  1
  F  F3  1  0.94256300  0.87378000  0.28093700  1
  F  F4  1  0.16413500  0.62835300  0.75222200  1
  F  F5  1  0.81932800  0.35982200  0.28484900  1
  F  F6  1  0.68824200  0.57928100  0.94933800  1
  F  F7  1  0.31090700  0.43635000  0.07253100  1
loop_
_geom_bond_atom_site_label_1
_geom_bond_atom_site_label_2
_geom_bond_distance
_geom_bond_site_symmetry_2
Mg0 O0 2.015226 1_555
Mg0 O1 2.344899 1_545
O0 V0 1.659016 1_555
O1 V1 1.647371 1_555
F0 V0 1.914263 1_555
F0 Pb0 2.547828 1_545
F1 V1 2.037315 1_555
F1 Mg0 2.072377 1_565
F1 Pb0 2.472736 1_454
F2 V0 1.973281 1_555
F2 Mg0 1.986042 1_455
F2 Pb0 2.672708 1_445
F3 V1 2.015328 1_555
F3 Mg0 2.064539 1_565
F3 Pb0 2.620857 1_554
F4 V0 1.924296 1_555
F4 Pb0 2.366601 1_455
F5 V1 1.960019 1_555
F5 Mg0 1.964731 1_555
F6 V0 1.988846 1_555
F6 V1 2.181195 1_556
F6 Pb0 2.647392 1_555
F7 V1 1.947119 1_555
F7 V0 2.299230 1_554
