# generated using pymatgen
data_CaAs(HO)7
_symmetry_space_group_name_H-M   'P 1'
_cell_length_a   10.85382200
_cell_length_b   11.11791300
_cell_length_c   11.37086000
_cell_angle_alpha   90.00000000
_cell_angle_beta   90.00000000
_cell_angle_gamma   90.00000000
_symmetry_Int_Tables_number   1
_chemical_formula_structural   CaAs(HO)7
_chemical_formula_sum   'Ca8 As8 H56 O56'
_cell_volume   1372.14269766
_cell_formula_units_Z   8
loop_
 _symmetry_equiv_pos_site_id
 _symmetry_equiv_pos_as_xyz
  1  'x, y, z'
loop_
 _atom_site_type_symbol
 _atom_site_label
 _atom_site_symmetry_multiplicity
 _atom_site_fract_x
 _atom_site_fract_y
 _atom_site_fract_z
 _atom_site_occupancy
  Ca  Ca0  1  0.08603600  0.24856500  0.19956800  1
  Ca  Ca1  1  0.58603600  0.75143500  0.30043200  1
  Ca  Ca2  1  0.91396400  0.25143500  0.69956800  1
  Ca  Ca3  1  0.41396400  0.74856500  0.80043200  1
  Ca  Ca4  1  0.91396400  0.75143500  0.80043200  1
  Ca  Ca5  1  0.41396400  0.24856500  0.69956800  1
  Ca  Ca6  1  0.08603600  0.74856500  0.30043200  1
  Ca  Ca7  1  0.58603600  0.25143500  0.19956800  1
  As  As0  1  0.65067100  0.36708900  0.50356400  1
  As  As1  1  0.15067100  0.63291100  0.99643600  1
  As  As2  1  0.34932900  0.13291100  0.00356400  1
  As  As3  1  0.84932900  0.86708900  0.49643600  1
  As  As4  1  0.34932900  0.63291100  0.49643600  1
  As  As5  1  0.84932900  0.36708900  0.00356400  1
  As  As6  1  0.65067100  0.86708900  0.99643600  1
  As  As7  1  0.15067100  0.13291100  0.50356400  1
  H  H0  1  0.84296400  0.32612600  0.33986000  1
  H  H1  1  0.34296400  0.67387400  0.16014000  1
  H  H2  1  0.15703600  0.17387400  0.83986000  1
  H  H3  1  0.65703600  0.82612600  0.66014000  1
  H  H4  1  0.15703600  0.67387400  0.66014000  1
  H  H5  1  0.65703600  0.32612600  0.83986000  1
  H  H6  1  0.84296400  0.82612600  0.16014000  1
  H  H7  1  0.34296400  0.17387400  0.33986000  1
  H  H8  1  0.95245400  0.27498800  0.41655200  1
  H  H9  1  0.45245400  0.72501200  0.08344800  1
  H  H10  1  0.04754600  0.22501200  0.91655200  1
  H  H11  1  0.54754600  0.77498800  0.58344800  1
  H  H12  1  0.04754600  0.72501200  0.58344800  1
  H  H13  1  0.54754600  0.27498800  0.91655200  1
  H  H14  1  0.95245400  0.77498800  0.08344800  1
  H  H15  1  0.45245400  0.22501200  0.41655200  1
  H  H16  1  0.87046200  0.10534400  0.13145300  1
  H  H17  1  0.37046200  0.89465600  0.36854700  1
  H  H18  1  0.12953800  0.39465600  0.63145300  1
  H  H19  1  0.62953800  0.60534400  0.86854700  1
  H  H20  1  0.12953800  0.89465600  0.86854700  1
  H  H21  1  0.62953800  0.10534400  0.63145300  1
  H  H22  1  0.87046200  0.60534400  0.36854700  1
  H  H23  1  0.37046200  0.39465600  0.13145300  1
  H  H24  1  0.96117100  0.99475000  0.14261400  1
  H  H25  1  0.46117100  0.00525000  0.35738600  1
  H  H26  1  0.03882900  0.50525000  0.64261400  1
  H  H27  1  0.53882900  0.49475000  0.85738600  1
  H  H28  1  0.03882900  0.00525000  0.85738600  1
  H  H29  1  0.53882900  0.99475000  0.64261400  1
  H  H30  1  0.96117100  0.49475000  0.35738600  1
  H  H31  1  0.46117100  0.50525000  0.14261400  1
  H  H32  1  0.18662600  0.50602100  0.21237900  1
  H  H33  1  0.68662600  0.49397900  0.28762100  1
  H  H34  1  0.81337400  0.99397900  0.71237900  1
  H  H35  1  0.31337400  0.00602100  0.78762100  1
  H  H36  1  0.81337400  0.49397900  0.78762100  1
  H  H37  1  0.31337400  0.50602100  0.71237900  1
  H  H38  1  0.18662600  0.00602100  0.28762100  1
  H  H39  1  0.68662600  0.99397900  0.21237900  1
  H  H40  1  0.23648900  0.44308600  0.32829400  1
  H  H41  1  0.73648900  0.55691400  0.17170600  1
  H  H42  1  0.76351100  0.05691400  0.82829400  1
  H  H43  1  0.26351100  0.94308600  0.67170600  1
  H  H44  1  0.76351100  0.55691400  0.67170600  1
  H  H45  1  0.26351100  0.44308600  0.82829400  1
  H  H46  1  0.23648900  0.94308600  0.17170600  1
  H  H47  1  0.73648900  0.05691400  0.32829400  1
  H  H48  1  0.60624700  0.57323900  0.51824400  1
  H  H49  1  0.10624700  0.42676100  0.98175600  1
  H  H50  1  0.39375300  0.92676100  0.01824400  1
  H  H51  1  0.89375300  0.07323900  0.48175600  1
  H  H52  1  0.39375300  0.42676100  0.48175600  1
  H  H53  1  0.89375300  0.57323900  0.01824400  1
  H  H54  1  0.60624700  0.07323900  0.98175600  1
  H  H55  1  0.10624700  0.92676100  0.51824400  1
  O  O0  1  0.93486500  0.32192100  0.34383600  1
  O  O1  1  0.43486500  0.67807900  0.15616400  1
  O  O2  1  0.06513500  0.17807900  0.84383600  1
  O  O3  1  0.56513500  0.82192100  0.65616400  1
  O  O4  1  0.06513500  0.67807900  0.65616400  1
  O  O5  1  0.56513500  0.32192100  0.84383600  1
  O  O6  1  0.93486500  0.82192100  0.15616400  1
  O  O7  1  0.43486500  0.17807900  0.34383600  1
  O  O8  1  0.95733000  0.08347700  0.14133900  1
  O  O9  1  0.45733000  0.91652300  0.35866100  1
  O  O10  1  0.04267000  0.41652300  0.64133900  1
  O  O11  1  0.54267000  0.58347700  0.85866100  1
  O  O12  1  0.04267000  0.91652300  0.85866100  1
  O  O13  1  0.54267000  0.08347700  0.64133900  1
  O  O14  1  0.95733000  0.58347700  0.35866100  1
  O  O15  1  0.45733000  0.41652300  0.14133900  1
  O  O16  1  0.18862400  0.42807800  0.25559600  1
  O  O17  1  0.68862400  0.57192200  0.24440400  1
  O  O18  1  0.81137600  0.07192200  0.75559600  1
  O  O19  1  0.31137600  0.92807800  0.74440400  1
  O  O20  1  0.81137600  0.57192200  0.74440400  1
  O  O21  1  0.31137600  0.42807800  0.75559600  1
  O  O22  1  0.18862400  0.92807800  0.24440400  1
  O  O23  1  0.68862400  0.07192200  0.25559600  1
  O  O24  1  0.67779600  0.51915200  0.54396600  1
  O  O25  1  0.17779600  0.48084800  0.95603400  1
  O  O26  1  0.32220400  0.98084800  0.04396600  1
  O  O27  1  0.82220400  0.01915200  0.45603400  1
  O  O28  1  0.32220400  0.48084800  0.45603400  1
  O  O29  1  0.82220400  0.51915200  0.04396600  1
  O  O30  1  0.67779600  0.01915200  0.95603400  1
  O  O31  1  0.17779600  0.98084800  0.54396600  1
  O  O32  1  0.74120200  0.28319700  0.59051800  1
  O  O33  1  0.24120200  0.71680300  0.90948200  1
  O  O34  1  0.25879800  0.21680300  0.09051800  1
  O  O35  1  0.75879800  0.78319700  0.40948200  1
  O  O36  1  0.25879800  0.71680300  0.40948200  1
  O  O37  1  0.75879800  0.28319700  0.09051800  1
  O  O38  1  0.74120200  0.78319700  0.90948200  1
  O  O39  1  0.24120200  0.21680300  0.59051800  1
  O  O40  1  0.68362600  0.35472100  0.35602300  1
  O  O41  1  0.18362600  0.64527900  0.14397700  1
  O  O42  1  0.31637400  0.14527900  0.85602300  1
  O  O43  1  0.81637400  0.85472100  0.64397700  1
  O  O44  1  0.31637400  0.64527900  0.64397700  1
  O  O45  1  0.81637400  0.35472100  0.85602300  1
  O  O46  1  0.68362600  0.85472100  0.14397700  1
  O  O47  1  0.18362600  0.14527900  0.35602300  1
  O  O48  1  0.49658500  0.33671900  0.52627600  1
  O  O49  1  0.99658500  0.66328100  0.97372400  1
  O  O50  1  0.50341500  0.16328100  0.02627600  1
  O  O51  1  0.00341500  0.83671900  0.47372400  1
  O  O52  1  0.50341500  0.66328100  0.47372400  1
  O  O53  1  0.00341500  0.33671900  0.02627600  1
  O  O54  1  0.49658500  0.83671900  0.97372400  1
  O  O55  1  0.99658500  0.16328100  0.52627600  1
loop_
_geom_bond_atom_site_label_1
_geom_bond_atom_site_label_2
_geom_bond_distance
_geom_bond_site_symmetry_2
Ca0 O34 2.275606 1_555
Ca0 O47 2.367604 1_555
Ca0 O16 2.372542 1_555
Ca0 O53 2.376453 1_555
Ca0 O8 2.399727 1_455
Ca0 O0 2.459349 1_455
Ca1 O35 2.275606 1_555
Ca1 O46 2.367604 1_555
Ca1 O17 2.372542 1_555
Ca1 O52 2.376453 1_555
Ca1 O9 2.399727 1_555
Ca1 O1 2.459349 1_555
Ca2 O32 2.275606 1_555
Ca2 O45 2.367604 1_555
Ca2 O18 2.372542 1_555
Ca2 O55 2.376453 1_555
Ca2 O10 2.399727 1_655
Ca2 O2 2.459349 1_655
Ca3 O33 2.275606 1_555
Ca3 O44 2.367604 1_555
Ca3 O19 2.372542 1_555
Ca3 O54 2.376453 1_555
Ca3 O11 2.399727 1_555
Ca3 O3 2.459349 1_555
Ca4 O38 2.275606 1_555
Ca4 O43 2.367604 1_555
Ca4 O20 2.372542 1_555
Ca4 O49 2.376453 1_555
Ca4 O12 2.399727 1_655
Ca4 O4 2.459349 1_655
Ca5 O39 2.275606 1_555
Ca5 O42 2.367604 1_555
Ca5 O21 2.372542 1_555
Ca5 O48 2.376453 1_555
Ca5 O13 2.399727 1_555
Ca5 O5 2.459349 1_555
Ca6 O36 2.275606 1_555
Ca6 O41 2.367604 1_555
Ca6 O22 2.372542 1_555
Ca6 O51 2.376453 1_555
Ca6 O14 2.399727 1_455
Ca6 O6 2.459349 1_455
Ca7 O37 2.275606 1_555
Ca7 O40 2.367604 1_555
Ca7 O23 2.372542 1_555
Ca7 O50 2.376453 1_555
Ca7 O15 2.399727 1_555
Ca7 O7 2.459349 1_555
As0 O32 1.677219 1_555
As0 O40 1.720877 1_555
As0 O48 1.725601 1_555
As0 O24 1.776496 1_555
As1 O33 1.677219 1_555
As1 O41 1.720877 1_556
As1 O49 1.725601 1_455
As1 O25 1.776496 1_555
As2 O34 1.677219 1_555
As2 O42 1.720877 1_554
As2 O50 1.725601 1_555
As2 O26 1.776496 1_545
As3 O35 1.677219 1_555
As3 O43 1.720877 1_555
As3 O51 1.725601 1_655
As3 O27 1.776496 1_565
As4 O36 1.677219 1_555
As4 O44 1.720877 1_555
As4 O52 1.725601 1_555
As4 O28 1.776496 1_555
As5 O37 1.677219 1_555
As5 O45 1.720877 1_554
As5 O53 1.725601 1_655
As5 O29 1.776496 1_555
As6 O38 1.677219 1_555
As6 O46 1.720877 1_556
As6 O54 1.725601 1_555
As6 O30 1.776496 1_565
As7 O39 1.677219 1_555
As7 O47 1.720877 1_555
As7 O55 1.725601 1_455
As7 O31 1.776496 1_545
H0 O0 0.999595 1_555
H0 O40 1.767983 1_555
H1 O1 0.999595 1_555
H1 O41 1.767983 1_555
H2 O2 0.999595 1_555
H2 O42 1.767983 1_555
H3 O3 0.999595 1_555
H3 O43 1.767983 1_555
H4 O4 0.999595 1_555
H4 O44 1.767983 1_555
H5 O5 0.999595 1_555
H5 O45 1.767983 1_555
H6 O6 0.999595 1_555
H6 O46 1.767983 1_555
H7 O7 0.999595 1_555
H7 O47 1.767983 1_555
H8 O0 0.996187 1_555
H9 O1 0.996187 1_555
H10 O2 0.996187 1_555
H11 O3 0.996187 1_555
H12 O4 0.996187 1_555
H13 O5 0.996187 1_555
H14 O6 0.996187 1_555
H15 O7 0.996187 1_555
H16 O8 0.980157 1_555
H17 O9 0.980157 1_555
H18 O10 0.980157 1_555
H19 O11 0.980157 1_555
H20 O12 0.980157 1_555
H21 O13 0.980157 1_555
H22 O14 0.980157 1_555
H23 O15 0.980157 1_555
H24 O8 0.987446 1_565
H25 O9 0.987446 1_545
H26 O10 0.987446 1_555
H27 O11 0.987446 1_555
H28 O12 0.987446 1_545
H29 O13 0.987446 1_565
H30 O14 0.987446 1_555
H31 O15 0.987446 1_555
H32 O16 0.996439 1_555
H32 O41 1.732951 1_555
H33 O17 0.996439 1_555
H33 O40 1.732951 1_555
H34 O18 0.996439 1_565
H34 O43 1.732951 1_555
H35 O19 0.996439 1_545
H35 O42 1.732951 1_555
H36 O20 0.996439 1_555
H36 O45 1.732951 1_555
H37 O21 0.996439 1_555
H37 O44 1.732951 1_555
H38 O22 0.996439 1_545
H38 O47 1.732951 1_555
H39 O23 0.996439 1_565
H39 O46 1.732951 1_555
H40 O16 0.990491 1_555
H41 O17 0.990491 1_555
H42 O18 0.990491 1_555
H43 O19 0.990491 1_555
H44 O20 0.990491 1_555
H45 O21 0.990491 1_555
H46 O22 0.990491 1_555
H47 O23 0.990491 1_555
H48 O24 1.024805 1_555
H48 O52 1.582452 1_555
H49 O25 1.024805 1_555
H49 O53 1.582452 1_556
H50 O26 1.024805 1_555
H50 O54 1.582452 1_554
H51 O27 1.024805 1_555
H51 O55 1.582452 1_555
H52 O28 1.024805 1_555
H52 O48 1.582452 1_555
H53 O29 1.024805 1_555
H53 O49 1.582452 1_554
H54 O30 1.024805 1_555
H54 O50 1.582452 1_556
H55 O31 1.024805 1_555
H55 O51 1.582452 1_555
