# generated using pymatgen
data_Na3ScTi3Si3(SO8)3
_symmetry_space_group_name_H-M   'P 1'
_cell_length_a   8.82785558
_cell_length_b   8.83978361
_cell_length_c   22.67014261
_cell_angle_alpha   89.92160878
_cell_angle_beta   90.11254845
_cell_angle_gamma   120.23187346
_symmetry_Int_Tables_number   1
_chemical_formula_structural   Na3ScTi3Si3(SO8)3
_chemical_formula_sum   'Na9 Sc3 Ti9 Si9 S9 O72'
_cell_volume   1528.48568129
_cell_formula_units_Z   3
loop_
 _symmetry_equiv_pos_site_id
 _symmetry_equiv_pos_as_xyz
  1  'x, y, z'
loop_
 _atom_site_type_symbol
 _atom_site_label
 _atom_site_symmetry_multiplicity
 _atom_site_fract_x
 _atom_site_fract_y
 _atom_site_fract_z
 _atom_site_occupancy
  Na  Na0  1  0.36043824  0.36223213  0.24703093  1
  Na  Na1  1  0.63513780  0.62925564  0.75162570  1
  Na  Na2  1  0.96817492  0.29452941  0.41600264  1
  Na  Na3  1  0.99783938  0.00008188  0.49992065  1
  Na  Na4  1  0.99822426  0.99559336  0.00037053  1
  Na  Na5  1  0.66538198  0.33290614  0.83354198  1
  Na  Na6  1  0.66913046  0.32966844  0.33212810  1
  Na  Na7  1  0.32506247  0.66568968  0.16479981  1
  Na  Na8  1  0.31921747  0.66154674  0.66597177  1
  Sc  Sc0  1  0.99570953  0.00751798  0.35424758  1
  Sc  Sc1  1  0.68000383  0.33989727  0.68710670  1
  Sc  Sc2  1  0.68340250  0.34136874  0.18232211  1
  Ti  Ti0  1  0.00389741  0.98351580  0.85299225  1
  Ti  Ti1  1  0.01735973  0.01773347  0.64831764  1
  Ti  Ti2  1  0.01496224  0.01646352  0.14168995  1
  Ti  Ti3  1  0.66293874  0.35858501  0.98228871  1
  Ti  Ti4  1  0.66088372  0.31325093  0.47908430  1
  Ti  Ti5  1  0.33998110  0.66141244  0.02327729  1
  Ti  Ti6  1  0.33621113  0.65192908  0.51880894  1
  Ti  Ti7  1  0.34038036  0.66213574  0.31569361  1
  Ti  Ti8  1  0.32362546  0.64816249  0.81300391  1
  Si  Si0  1  0.99624215  0.29370873  0.24988808  1
  Si  Si1  1  0.28655661  0.28446979  0.75298152  1
  Si  Si2  1  0.00998315  0.71584425  0.74871536  1
  Si  Si3  1  0.96136459  0.33338483  0.58264296  1
  Si  Si4  1  0.96501593  0.63242846  0.08290840  1
  Si  Si5  1  0.38075094  0.33640943  0.08469905  1
  Si  Si6  1  0.62250349  0.67189789  0.91648841  1
  Si  Si7  1  0.61458986  0.94684831  0.41785825  1
  Si  Si8  1  0.34405388  0.37793679  0.41765893  1
  S  S0  1  0.28807288  0.99492321  0.24966017  1
  S  S1  1  0.71150923  0.71288860  0.24947971  1
  S  S2  1  0.71378148  0.99997649  0.75111455  1
  S  S3  1  0.37556052  0.03973437  0.58305211  1
  S  S4  1  0.66864639  0.62551009  0.58231899  1
  S  S5  1  0.66654782  0.04310643  0.08166414  1
  S  S6  1  0.04310221  0.37545898  0.91744183  1
  S  S7  1  0.33660397  0.95432980  0.91662495  1
  S  S8  1  0.04737069  0.66751319  0.41770089  1
  O  O0  1  0.20966799  0.02541313  0.30285013  1
  O  O1  1  0.81558628  0.78692052  0.30355132  1
  O  O2  1  0.97522490  0.18094667  0.30900458  1
  O  O3  1  0.18245637  0.16196076  0.80900067  1
  O  O4  1  0.96871942  0.80627044  0.80648152  1
  O  O5  1  0.82194752  0.02780157  0.80425606  1
  O  O6  1  0.78979517  0.96542007  0.69726396  1
  O  O7  1  0.16348980  0.19972189  0.69317530  1
  O  O8  1  0.02907078  0.84086429  0.69198458  1
  O  O9  1  0.79066549  0.81928051  0.19687776  1
  O  O10  1  0.03489899  0.19310437  0.19378911  1
  O  O11  1  0.17841505  0.96747479  0.19608176  1
  O  O12  1  0.87399926  0.36619890  0.63946361  1
  O  O13  1  0.48067150  0.11887106  0.63597414  1
  O  O14  1  0.63265010  0.52033214  0.63701157  1
  O  O15  1  0.88508205  0.50948256  0.13958016  1
  O  O16  1  0.63305033  0.11340348  0.13570217  1
  O  O17  1  0.48492156  0.36816977  0.14530839  1
  O  O18  1  0.46811388  0.30009509  0.02593803  1
  O  O19  1  0.83314999  0.53056060  0.02544992  1
  O  O20  1  0.69701253  0.15226535  0.02878260  1
  O  O21  1  0.45677052  0.15361068  0.52950706  1
  O  O22  1  0.69182409  0.53932542  0.53019669  1
  O  O23  1  0.83473172  0.30722506  0.52382684  1
  O  O24  1  0.52202953  0.69469006  0.97303551  1
  O  O25  1  0.15461876  0.46042038  0.96949303  1
  O  O26  1  0.30268936  0.84629391  0.96982817  1
  O  O27  1  0.51500414  0.82929340  0.47530663  1
  O  O28  1  0.30080471  0.47214795  0.47261603  1
  O  O29  1  0.15484707  0.69421949  0.47087277  1
  O  O30  1  0.12344277  0.63177060  0.36389705  1
  O  O31  1  0.49147646  0.85984324  0.35893499  1
  O  O32  1  0.36619961  0.50059677  0.35872368  1
  O  O33  1  0.12506566  0.48836877  0.86330233  1
  O  O34  1  0.35809266  0.87115410  0.86300331  1
  O  O35  1  0.49957385  0.64088257  0.85748087  1
  O  O36  1  0.02677641  0.82078891  0.41081655  1
  O  O37  1  0.81055540  0.97777085  0.41404570  1
  O  O38  1  0.16659461  0.19068413  0.41278702  1
  O  O39  1  0.02784474  0.20268182  0.90960005  1
  O  O40  1  0.17653786  0.97492572  0.91001318  1
  O  O41  1  0.81753829  0.84478343  0.90789284  1
  O  O42  1  0.97632633  0.15454311  0.59051331  1
  O  O43  1  0.19896517  0.02460656  0.58770696  1
  O  O44  1  0.82485971  0.80188684  0.58879168  1
  O  O45  1  0.97536515  0.82135122  0.09329825  1
  O  O46  1  0.82290968  0.02130525  0.08945773  1
  O  O47  1  0.18226159  0.16164719  0.08939480  1
  O  O48  1  0.69083220  0.15279407  0.74511082  1
  O  O49  1  0.48053422  0.31565492  0.74472111  1
  O  O50  1  0.82957657  0.52835362  0.74630872  1
  O  O51  1  0.67926538  0.53037322  0.24561033  1
  O  O52  1  0.82427333  0.31199645  0.24635382  1
  O  O53  1  0.46251679  0.15614807  0.24376429  1
  O  O54  1  0.64160776  0.49476450  0.92337312  1
  O  O55  1  0.86727947  0.35707296  0.92290180  1
  O  O56  1  0.49428847  0.13129925  0.92250106  1
  O  O57  1  0.64265863  0.14844306  0.42490673  1
  O  O58  1  0.51967219  0.36656577  0.42762709  1
  O  O59  1  0.87017558  0.50506890  0.42358880  1
  O  O60  1  0.35236998  0.50403715  0.07248345  1
  O  O61  1  0.15725407  0.65480001  0.06874700  1
  O  O62  1  0.50784689  0.86498749  0.07508383  1
  O  O63  1  0.35478369  0.86480632  0.57477819  1
  O  O64  1  0.50838642  0.64415243  0.57575174  1
  O  O65  1  0.15458088  0.50982427  0.57238129  1
  O  O66  1  0.30561415  0.83732000  0.25575693  1
  O  O67  1  0.53046140  0.69319910  0.25544108  1
  O  O68  1  0.18198519  0.48760889  0.25798285  1
  O  O69  1  0.31022752  0.48386690  0.75869879  1
  O  O70  1  0.18280019  0.69913178  0.76100836  1
  O  O71  1  0.53652865  0.83787693  0.75679202  1
loop_
_geom_bond_atom_site_label_1
_geom_bond_atom_site_label_2
_geom_bond_distance
_geom_bond_site_symmetry_2
Na0 O68 2.352067 1_555
Na0 O53 2.406245 1_555
Na0 O51 2.433009 1_555
Na0 O67 2.535182 1_555
Na0 O17 2.545556 1_555
Na0 O10 2.759631 1_555
Na0 O32 2.802749 1_555
Na0 O0 2.871143 1_555
Na1 O50 2.302009 1_555
Na1 O49 2.400516 1_555
Na1 O71 2.406251 1_555
Na1 O69 2.488677 1_555
Na1 O35 2.708759 1_555
Na1 O14 2.768424 1_555
Na1 O4 2.831546 1_555
Na1 O6 2.850331 1_555
Na2 O38 2.352878 1_655
Na2 O37 2.419749 1_545
Na2 O59 2.421700 1_555
Na2 O57 2.496139 1_555
Na2 O2 2.639318 1_555
Na2 O23 2.742363 1_555
Na2 O30 2.836056 1_655
Na2 O28 2.843041 1_655
Na3 O37 2.494478 1_545
Na3 O42 2.527570 1_555
Na3 O38 2.536719 1_655
Na3 O43 2.599948 1_655
Na3 O44 2.601686 1_545
Na3 O36 2.660094 1_645
Na4 O47 2.541851 1_665
Na4 O45 2.555591 1_555
Na4 O41 2.563183 1_554
Na4 O46 2.625549 1_565
Na4 O40 2.647744 1_654
Na4 O39 2.676521 1_664
Na5 O50 2.544985 1_555
Na5 O49 2.545174 1_555
Na5 O54 2.559400 1_555
Na5 O56 2.610755 1_555
Na5 O55 2.632442 1_555
Na5 O48 2.641051 1_555
Na6 O52 2.430644 1_555
Na6 O57 2.580815 1_555
Na6 O51 2.614199 1_555
Na6 O53 2.620922 1_555
Na6 O58 2.642123 1_555
Na6 O59 2.660133 1_555
Na7 O68 2.556388 1_555
Na7 O61 2.605709 1_555
Na7 O60 2.614775 1_555
Na7 O66 2.618289 1_555
Na7 O62 2.642826 1_555
Na7 O67 2.666845 1_555
Na8 O65 2.538806 1_555
Na8 O70 2.572462 1_555
Na8 O69 2.599675 1_555
Na8 O63 2.650526 1_555
Na8 O64 2.696017 1_555
Na8 O71 2.707588 1_555
O0 S0 1.482480 1_545
O0 Sc0 2.158123 1_455
O1 S1 1.472184 1_555
O1 Sc0 2.128008 1_565
O2 Si0 1.623325 1_555
O2 Sc0 1.925914 1_555
O3 Si1 1.621345 1_555
O3 Ti0 1.861593 1_545
O4 Si2 1.668704 1_655
O4 Ti0 1.782236 1_655
O5 S2 1.477643 1_545
O5 Ti0 2.139854 1_645
O6 S2 1.498204 1_555
O6 Ti1 2.133698 1_665
O7 Si1 1.660472 1_555
O7 Ti1 1.787686 1_555
O8 Si2 1.647188 1_555
O8 Ti1 1.895595 1_565
O9 S1 1.460566 1_555
O9 Ti2 2.247758 1_665
O10 Si0 1.683794 1_455
O10 Ti2 1.895160 1_555
O11 S0 1.493642 1_555
O11 Ti2 2.100203 1_565
O12 Si3 1.602640 1_555
O12 Sc1 1.938843 1_555
O13 S3 1.460835 1_555
O13 Sc1 2.189431 1_555
O14 S4 1.484458 1_555
O14 Sc1 2.161743 1_555
O15 Si4 1.599115 1_555
O15 Sc2 1.911977 1_555
O16 S5 1.470678 1_555
O16 Sc2 2.115994 1_555
O17 Si5 1.596412 1_555
O17 Sc2 2.059611 1_555
O18 Si5 1.651332 1_555
O18 Ti3 1.820530 1_554
O19 Si4 1.674634 1_555
O19 Ti3 1.795637 1_554
O20 S5 1.475606 1_555
O20 Ti3 2.252489 1_554
O21 S3 1.508021 1_555
O21 Ti4 1.996989 1_555
O22 S4 1.476109 1_555
O22 Ti4 2.206008 1_555
O23 Si3 1.678008 1_555
O23 Ti4 1.860930 1_555
O24 Si6 1.629658 1_555
O24 Ti5 1.869973 1_556
O25 S6 1.476126 1_555
O25 Ti5 2.095584 1_556
O26 S7 1.471993 1_555
O26 Ti5 2.186864 1_556
O27 Si7 1.621639 1_555
O27 Ti6 1.852543 1_555
O28 Si8 1.648170 1_555
O28 Ti6 1.795277 1_555
O29 S8 1.476374 1_555
O29 Ti6 2.116335 1_555
O30 S8 1.502172 1_555
O30 Ti7 2.103228 1_555
O31 Si7 1.646950 1_555
O31 Ti7 1.856508 1_555
O32 Si8 1.668108 1_555
O32 Ti7 1.834588 1_555
O33 S6 1.516254 1_555
O33 Ti8 1.969297 1_555
O34 S7 1.482599 1_555
O34 Ti8 2.159581 1_555
O35 Si6 1.654688 1_555
O35 Ti8 1.878220 1_555
O36 S8 1.463077 1_555
O36 Sc0 2.212047 1_465
O37 Si7 1.612224 1_555
O37 Sc0 2.037997 1_565
O38 Si8 1.610855 1_555
O38 Sc0 2.048633 1_455
O39 S6 1.475101 1_555
O39 Ti0 2.244618 1_545
O40 S7 1.520018 1_555
O40 Ti0 2.026823 1_555
O41 Si6 1.639746 1_555
O41 Ti0 1.931766 1_655
O42 Si3 1.660723 1_555
O42 Ti1 1.935449 1_655
O43 S3 1.500014 1_555
O43 Ti1 2.090995 1_555
O44 S4 1.479471 1_555
O44 Ti1 2.254412 1_665
O45 Si4 1.643227 1_555
O45 Ti2 1.922763 1_665
O46 S5 1.496837 1_555
O46 Ti2 2.084088 1_655
O47 Si5 1.656088 1_555
O47 Ti2 1.824233 1_555
O48 S2 1.469494 1_545
O48 Sc1 2.150949 1_555
O49 Si1 1.602857 1_555
O49 Sc1 2.116812 1_555
O50 Si2 1.621154 1_655
O50 Sc1 2.025856 1_555
O51 S1 1.493183 1_555
O51 Sc2 2.217994 1_555
O52 Si0 1.607436 1_555
O52 Sc2 2.009507 1_555
O53 S0 1.486845 1_545
O53 Sc2 2.283127 1_555
O54 Si6 1.664257 1_555
O54 Ti3 1.868519 1_555
O55 S6 1.482409 1_655
O55 Ti3 2.258455 1_555
O56 S7 1.486498 1_545
O56 Ti3 2.253375 1_555
O57 Si7 1.678872 1_545
O57 Ti4 1.850659 1_555
O58 Si8 1.618700 1_555
O58 Ti4 1.929078 1_555
O59 S8 1.505014 1_655
O59 Ti4 2.172577 1_555
O60 Si5 1.645487 1_555
O60 Ti5 1.827607 1_555
O61 Si4 1.638953 1_455
O61 Ti5 1.891942 1_555
O62 S5 1.497549 1_565
O62 Ti5 2.031577 1_555
O63 S3 1.474789 1_565
O63 Ti6 2.207480 1_555
O64 S4 1.511531 1_555
O64 Ti6 2.019562 1_555
O65 Si3 1.648547 1_455
O65 Ti6 1.897128 1_555
O66 S0 1.483463 1_555
O66 Ti7 2.193126 1_555
O67 S1 1.524357 1_555
O67 Ti7 2.073854 1_555
O68 Si0 1.682179 1_455
O68 Ti7 1.968004 1_555
O69 Si1 1.672404 1_555
O69 Ti8 1.862857 1_555
O70 Si2 1.628538 1_555
O70 Ti8 1.922184 1_555
O71 S2 1.503570 1_555
O71 Ti8 2.190513 1_555
