# generated using pymatgen
data_ScIn(SO4)3
_symmetry_space_group_name_H-M   'P 1'
_cell_length_a   8.88411308
_cell_length_b   8.88411279
_cell_length_c   22.93728435
_cell_angle_alpha   90.00000000
_cell_angle_beta   90.00000000
_cell_angle_gamma   120.00000109
_symmetry_Int_Tables_number   1
_chemical_formula_structural   ScIn(SO4)3
_chemical_formula_sum   'Sc6 In6 S18 O72'
_cell_volume   1567.83648503
_cell_formula_units_Z   6
loop_
 _symmetry_equiv_pos_site_id
 _symmetry_equiv_pos_as_xyz
  1  'x, y, z'
loop_
 _atom_site_type_symbol
 _atom_site_label
 _atom_site_symmetry_multiplicity
 _atom_site_fract_x
 _atom_site_fract_y
 _atom_site_fract_z
 _atom_site_occupancy
  Sc  Sc0  1  0.00000000  0.00000000  0.35457320  1
  Sc  Sc1  1  0.00000000  0.00000000  0.64504156  1
  Sc  Sc2  1  0.00000000  0.00000000  0.14549687  1
  Sc  Sc3  1  0.66666700  0.33333300  0.68783613  1
  Sc  Sc4  1  0.66666700  0.33333300  0.18829144  1
  Sc  Sc5  1  0.66666700  0.33333300  0.47875980  1
  In  In0  1  0.00000000  0.00000000  0.85322787  1
  In  In1  1  0.66666700  0.33333300  0.98010513  1
  In  In2  1  0.33333300  0.66666700  0.02069064  1
  In  In3  1  0.33333300  0.66666700  0.52063655  1
  In  In4  1  0.33333300  0.66666700  0.31269745  1
  In  In5  1  0.33333300  0.66666700  0.81264336  1
  S  S0  1  0.28943384  0.00081385  0.24983079  1
  S  S1  1  0.71138001  0.71056616  0.24983079  1
  S  S2  1  0.99918615  0.28861999  0.24983079  1
  S  S3  1  0.29111231  0.29023246  0.74925875  1
  S  S4  1  0.99912016  0.70888769  0.74925875  1
  S  S5  1  0.70976754  0.00087984  0.74925875  1
  S  S6  1  0.95528699  0.33251915  0.58350221  1
  S  S7  1  0.37723316  0.04471301  0.58350221  1
  S  S8  1  0.66748085  0.62276684  0.58350221  1
  S  S9  1  0.95689946  0.62444531  0.08407425  1
  S  S10  1  0.66754684  0.04310054  0.08407425  1
  S  S11  1  0.37555469  0.33245316  0.08407425  1
  S  S12  1  0.62546003  0.66666700  0.91666700  1
  S  S13  1  0.04120597  0.37453997  0.91666700  1
  S  S14  1  0.33333300  0.95879403  0.91666700  1
  S  S15  1  0.62623973  0.95957373  0.41666700  1
  S  S16  1  0.33333300  0.37376027  0.41666700  1
  S  S17  1  0.04042627  0.66666700  0.41666700  1
  O  O0  1  0.20898100  0.02893256  0.30225469  1
  O  O1  1  0.81995156  0.79101900  0.30225469  1
  O  O2  1  0.97106744  0.18004844  0.30225469  1
  O  O3  1  0.21739674  0.18379354  0.80259039  1
  O  O4  1  0.96639680  0.78260326  0.80259039  1
  O  O5  1  0.81620646  0.03360320  0.80259039  1
  O  O6  1  0.79307116  0.97198272  0.69789136  1
  O  O7  1  0.17891156  0.20692884  0.69789136  1
  O  O8  1  0.02801728  0.82108844  0.69789136  1
  O  O9  1  0.79290260  0.82071199  0.19778477  1
  O  O10  1  0.02780939  0.20709740  0.19778477  1
  O  O11  1  0.17928801  0.97219061  0.19778477  1
  O  O12  1  0.87376440  0.36114239  0.63554823  1
  O  O13  1  0.48737899  0.12623560  0.63554823  1
  O  O14  1  0.63885761  0.51262101  0.63554823  1
  O  O15  1  0.87359584  0.51224456  0.13544164  1
  O  O16  1  0.63864972  0.12640416  0.13544164  1
  O  O17  1  0.48775544  0.36135028  0.13544164  1
  O  O18  1  0.44927026  0.29972980  0.03074261  1
  O  O19  1  0.85046054  0.55072974  0.03074261  1
  O  O20  1  0.70027020  0.14953946  0.03074261  1
  O  O21  1  0.45768600  0.15328456  0.53107831  1
  O  O22  1  0.69559956  0.54231400  0.53107831  1
  O  O23  1  0.84671544  0.30440044  0.53107831  1
  O  O24  1  0.54863146  0.69872895  0.96934136  1
  O  O25  1  0.15009649  0.45136854  0.96934136  1
  O  O26  1  0.30127105  0.84990351  0.96934136  1
  O  O27  1  0.55018645  0.84910320  0.46913841  1
  O  O28  1  0.29891575  0.44981355  0.46913841  1
  O  O29  1  0.15089680  0.70108425  0.46913841  1
  O  O30  1  0.11647955  0.63224975  0.36419559  1
  O  O31  1  0.51576920  0.88352045  0.36419559  1
  O  O32  1  0.36775025  0.48423080  0.36419559  1
  O  O33  1  0.11803454  0.48343049  0.86399264  1
  O  O34  1  0.36539495  0.88196546  0.86399264  1
  O  O35  1  0.51656951  0.63460505  0.86399264  1
  O  O36  1  0.02261135  0.82134588  0.40738462  1
  O  O37  1  0.79873453  0.97738865  0.40738462  1
  O  O38  1  0.17865412  0.20126547  0.40738462  1
  O  O39  1  0.02403873  0.20129090  0.90956443  1
  O  O40  1  0.17725217  0.97596127  0.90956443  1
  O  O41  1  0.79870910  0.82274783  0.90956443  1
  O  O42  1  0.97403189  0.17776614  0.59222406  1
  O  O43  1  0.20373425  0.02596811  0.59222406  1
  O  O44  1  0.82223386  0.79626575  0.59222406  1
  O  O45  1  0.97599820  0.79766529  0.09308093  1
  O  O46  1  0.82166709  0.02400180  0.09308093  1
  O  O47  1  0.20233471  0.17833291  0.09308093  1
  O  O48  1  0.69066880  0.15500009  0.74025207  1
  O  O49  1  0.46433229  0.30933120  0.74025207  1
  O  O50  1  0.84499991  0.53566771  0.74025207  1
  O  O51  1  0.69263511  0.53706725  0.24110894  1
  O  O52  1  0.84443314  0.30736489  0.24110894  1
  O  O53  1  0.46293275  0.15556686  0.24110894  1
  O  O54  1  0.64262827  0.51058517  0.92376857  1
  O  O55  1  0.86795790  0.35737173  0.92376857  1
  O  O56  1  0.48941483  0.13204210  0.92376857  1
  O  O57  1  0.64405565  0.13206753  0.42594838  1
  O  O58  1  0.48801288  0.35594435  0.42594838  1
  O  O59  1  0.86793247  0.51198712  0.42594838  1
  O  O60  1  0.35849531  0.48894857  0.07708578  1
  O  O61  1  0.13045225  0.64150469  0.07708578  1
  O  O62  1  0.51105143  0.86954775  0.07708578  1
  O  O63  1  0.35870728  0.87042150  0.57651542  1
  O  O64  1  0.51171322  0.64129272  0.57651542  1
  O  O65  1  0.12957850  0.48828678  0.57651542  1
  O  O66  1  0.30795872  0.84504722  0.25681858  1
  O  O67  1  0.53708750  0.69204128  0.25681858  1
  O  O68  1  0.15495278  0.46291250  0.25681858  1
  O  O69  1  0.30817069  0.46378625  0.75624822  1
  O  O70  1  0.15561457  0.69182931  0.75624822  1
  O  O71  1  0.53621375  0.84438543  0.75624822  1
loop_
_geom_bond_atom_site_label_1
_geom_bond_atom_site_label_2
_geom_bond_distance
_geom_bond_site_symmetry_2
In0 O39 2.128728 1_555
In0 O41 2.128728 1_445
In0 O40 2.128728 1_545
In0 O4 2.142850 1_445
In0 O3 2.142850 1_555
In0 O5 2.142851 1_455
In1 O56 2.128728 1_555
In1 O54 2.128728 1_555
In1 O55 2.128728 1_555
In1 O19 2.142850 1_556
In1 O20 2.142850 1_556
In1 O18 2.142851 1_556
In2 O60 2.137528 1_555
In2 O62 2.137529 1_555
In2 O61 2.137529 1_555
In2 O25 2.140586 1_554
In2 O26 2.140586 1_554
In2 O24 2.140586 1_554
In3 O63 2.135949 1_555
In3 O65 2.135949 1_555
In3 O64 2.135949 1_555
In3 O28 2.147397 1_555
In3 O27 2.147397 1_555
In3 O29 2.147397 1_555
In4 O68 2.135949 1_555
In4 O66 2.135949 1_555
In4 O67 2.135949 1_555
In4 O31 2.147397 1_555
In4 O32 2.147397 1_555
In4 O30 2.147397 1_555
In5 O70 2.137529 1_555
In5 O71 2.137529 1_555
In5 O69 2.137529 1_555
In5 O34 2.140586 1_555
In5 O33 2.140586 1_555
In5 O35 2.140586 1_555
O0 S0 1.482478 1_555
O0 Sc0 2.115646 1_555
O1 S1 1.482478 1_555
O1 Sc0 2.115646 1_665
O2 S2 1.482478 1_555
O2 Sc0 2.115646 1_655
O3 S3 1.483314 1_555
O4 S4 1.483314 1_555
O5 S5 1.483314 1_555
O6 S5 1.480488 1_565
O6 Sc1 2.110334 1_665
O7 S3 1.480488 1_555
O7 Sc1 2.110334 1_555
O8 S4 1.480488 1_455
O8 Sc1 2.110334 1_565
O9 S1 1.482744 1_555
O9 Sc2 2.104767 1_665
O10 S2 1.482744 1_455
O10 Sc2 2.104767 1_555
O11 S0 1.482744 1_565
O11 Sc2 2.104767 1_565
O12 S6 1.482744 1_555
O12 Sc3 2.104767 1_555
O13 S7 1.482744 1_555
O13 Sc3 2.104767 1_555
O14 S8 1.482744 1_555
O14 Sc3 2.104767 1_555
O15 S9 1.480488 1_555
O15 Sc4 2.110334 1_555
O16 S10 1.480488 1_555
O16 Sc4 2.110334 1_555
O17 S11 1.480488 1_555
O17 Sc4 2.110334 1_555
O18 S11 1.483314 1_555
O19 S9 1.483314 1_555
O20 S10 1.483314 1_555
O21 S7 1.482478 1_555
O21 Sc5 2.115646 1_555
O22 S8 1.482478 1_555
O22 Sc5 2.115646 1_555
O23 S6 1.482478 1_555
O23 Sc5 2.115646 1_555
O24 S12 1.483644 1_555
O25 S13 1.483644 1_555
O26 S14 1.483643 1_555
O27 S15 1.484975 1_555
O28 S16 1.484975 1_555
O29 S17 1.484975 1_555
O30 S17 1.484975 1_555
O31 S15 1.484975 1_555
O32 S16 1.484975 1_555
O33 S13 1.483643 1_555
O34 S14 1.483644 1_555
O35 S12 1.483644 1_555
O36 S17 1.475214 1_555
O36 Sc0 2.084637 1_565
O37 S15 1.475223 1_555
O37 Sc0 2.084637 1_665
O38 S16 1.475219 1_555
O38 Sc0 2.084637 1_555
O39 S13 1.477864 1_555
O40 S14 1.477855 1_555
O41 S12 1.477860 1_555
O42 S6 1.478818 1_555
O42 Sc1 2.092714 1_655
O43 S7 1.478827 1_555
O43 Sc1 2.092714 1_555
O44 S8 1.478824 1_555
O44 Sc1 2.092714 1_665
O45 S9 1.476003 1_555
O45 Sc2 2.082998 1_665
O46 S10 1.475995 1_555
O46 Sc2 2.082998 1_655
O47 S11 1.476000 1_555
O47 Sc2 2.082998 1_555
O48 S5 1.475995 1_555
O48 Sc3 2.082998 1_555
O49 S3 1.476003 1_555
O49 Sc3 2.082998 1_555
O50 S4 1.476000 1_555
O50 Sc3 2.082998 1_555
O51 S1 1.478827 1_555
O51 Sc4 2.092714 1_555
O52 S2 1.478818 1_555
O52 Sc4 2.092714 1_555
O53 S0 1.478824 1_555
O53 Sc4 2.092714 1_555
O54 S12 1.477867 1_555
O55 S13 1.477849 1_655
O56 S14 1.477856 1_545
O57 S15 1.475207 1_545
O57 Sc5 2.084637 1_555
O58 S16 1.475225 1_555
O58 Sc5 2.084637 1_555
O59 S17 1.475214 1_655
O59 Sc5 2.084637 1_555
O60 S11 1.480667 1_555
O61 S9 1.480650 1_455
O62 S10 1.480657 1_565
O63 S7 1.481737 1_565
O64 S8 1.481754 1_555
O65 S6 1.481744 1_455
O66 S0 1.481743 1_565
O67 S1 1.481752 1_555
O68 S2 1.481748 1_455
O69 S3 1.480665 1_555
O70 S4 1.480656 1_455
O71 S5 1.480661 1_565
