# generated using pymatgen
data_Na3La2Hf2P5SO24
_symmetry_space_group_name_H-M   'P 1'
_cell_length_a   9.21303204
_cell_length_b   9.20855317
_cell_length_c   23.87140774
_cell_angle_alpha   90.13207544
_cell_angle_beta   89.89937029
_cell_angle_gamma   119.60868386
_symmetry_Int_Tables_number   1
_chemical_formula_structural   Na3La2Hf2P5SO24
_chemical_formula_sum   'Na9 La6 Hf6 P15 S3 O72'
_cell_volume   1760.76097392
_cell_formula_units_Z   3
loop_
 _symmetry_equiv_pos_site_id
 _symmetry_equiv_pos_as_xyz
  1  'x, y, z'
loop_
 _atom_site_type_symbol
 _atom_site_label
 _atom_site_symmetry_multiplicity
 _atom_site_fract_x
 _atom_site_fract_y
 _atom_site_fract_z
 _atom_site_occupancy
  Na  Na0  1  0.00363751  0.36339157  0.75091815  1
  Na  Na1  1  0.66906365  0.96105783  0.58350788  1
  Na  Na2  1  0.04026261  0.33199712  0.08360606  1
  Na  Na3  1  0.00674048  0.99263877  0.49940804  1
  Na  Na4  1  0.00796552  0.99546513  0.99848548  1
  Na  Na5  1  0.65864021  0.32610750  0.83363051  1
  Na  Na6  1  0.67828291  0.33622642  0.33277690  1
  Na  Na7  1  0.34602792  0.66892425  0.16722837  1
  Na  Na8  1  0.33511894  0.66732543  0.66680450  1
  La  La0  1  0.01178629  0.99587707  0.64520478  1
  La  La1  1  0.99470282  0.98947724  0.14524916  1
  La  La2  1  0.33496760  0.67577659  0.01679865  1
  La  La3  1  0.32158677  0.66450107  0.51663184  1
  La  La4  1  0.32930852  0.66555431  0.31985794  1
  La  La5  1  0.33714376  0.67894071  0.82136689  1
  Hf  Hf0  1  0.98156415  0.99180774  0.34811027  1
  Hf  Hf1  1  0.00724547  0.00585002  0.84724064  1
  Hf  Hf2  1  0.66140496  0.33743094  0.68694533  1
  Hf  Hf3  1  0.67022900  0.33908686  0.18673840  1
  Hf  Hf4  1  0.66346903  0.32723484  0.98214078  1
  Hf  Hf5  1  0.67397319  0.33814361  0.48200417  1
  P  P0  1  0.70609456  0.69642281  0.25021482  1
  P  P1  1  0.98853298  0.28944050  0.24839032  1
  P  P2  1  0.29906730  0.29194827  0.75073206  1
  P  P3  1  0.98756700  0.69573516  0.75132991  1
  P  P4  1  0.71127021  0.01034139  0.74786419  1
  P  P5  1  0.94462530  0.33539551  0.58541659  1
  P  P6  1  0.39498451  0.05920170  0.58216639  1
  P  P7  1  0.66204437  0.61237318  0.58295993  1
  P  P8  1  0.94251141  0.60705287  0.08233372  1
  P  P9  1  0.66402359  0.05574286  0.08457837  1
  P  P10  1  0.38880488  0.33638059  0.08392077  1
  P  P11  1  0.01761975  0.34908911  0.91660484  1
  P  P12  1  0.33103905  0.98507632  0.91701245  1
  P  P13  1  0.64616142  0.98058942  0.41849994  1
  P  P14  1  0.01706370  0.66997150  0.41598720  1
  S  S0  1  0.30246969  0.01386044  0.25110493  1
  S  S1  1  0.65337026  0.66894272  0.91659168  1
  S  S2  1  0.33046010  0.34606051  0.41637321  1
  O  O0  1  0.21137482  0.02889319  0.30057977  1
  O  O1  1  0.82132325  0.79457764  0.30173612  1
  O  O2  1  0.97304070  0.17086270  0.29863931  1
  O  O3  1  0.20434526  0.17569112  0.80190620  1
  O  O4  1  0.97434542  0.79465278  0.80244248  1
  O  O5  1  0.83198548  0.03119706  0.79790329  1
  O  O6  1  0.78399879  0.98834750  0.69291626  1
  O  O7  1  0.19259754  0.21937393  0.69838271  1
  O  O8  1  0.01690413  0.79560580  0.69789673  1
  O  O9  1  0.78371632  0.79750976  0.19745431  1
  O  O10  1  0.01440450  0.21830363  0.19355134  1
  O  O11  1  0.20727533  0.99041670  0.19958931  1
  O  O12  1  0.85333442  0.34223569  0.63988295  1
  O  O13  1  0.49217737  0.15177083  0.63643572  1
  O  O14  1  0.65844108  0.51379405  0.63678537  1
  O  O15  1  0.85078203  0.50895703  0.13670166  1
  O  O16  1  0.65909924  0.15083850  0.13780564  1
  O  O17  1  0.48864206  0.34164852  0.13750456  1
  O  O18  1  0.48383947  0.33151855  0.03101667  1
  O  O19  1  0.84274228  0.51182046  0.02998388  1
  O  O20  1  0.66895180  0.15459264  0.03110918  1
  O  O21  1  0.49054498  0.15786048  0.52972295  1
  O  O22  1  0.66675805  0.51646911  0.53039799  1
  O  O23  1  0.84386508  0.33198102  0.53260416  1
  O  O24  1  0.57859106  0.70303884  0.96593009  1
  O  O25  1  0.12926166  0.42538676  0.96880323  1
  O  O26  1  0.29510387  0.87092097  0.96804849  1
  O  O27  1  0.57743195  0.87328468  0.47170497  1
  O  O28  1  0.29532922  0.41945226  0.46594905  1
  O  O29  1  0.12911320  0.70719473  0.46781982  1
  O  O30  1  0.09072608  0.62734614  0.36532530  1
  O  O31  1  0.53136057  0.90060957  0.36818914  1
  O  O32  1  0.36747298  0.45525590  0.36716308  1
  O  O33  1  0.09233945  0.45926293  0.86440833  1
  O  O34  1  0.37519876  0.91500465  0.86565382  1
  O  O35  1  0.54547278  0.63207503  0.86695926  1
  O  O36  1  0.99954117  0.82739241  0.40347328  1
  O  O37  1  0.82365673  0.00125955  0.40496392  1
  O  O38  1  0.18174853  0.17842184  0.40548205  1
  O  O39  1  0.99655001  0.17189073  0.90462319  1
  O  O40  1  0.17284592  0.00087900  0.90494031  1
  O  O41  1  0.82049962  0.81815791  0.90652254  1
  O  O42  1  0.94690244  0.16896790  0.58344885  1
  O  O43  1  0.22037047  0.03889385  0.57983886  1
  O  O44  1  0.81743339  0.78838178  0.58139605  1
  O  O45  1  0.96368505  0.78192990  0.08070244  1
  O  O46  1  0.83085999  0.05353123  0.08293141  1
  O  O47  1  0.21270298  0.18057552  0.08295362  1
  O  O48  1  0.70686192  0.17972698  0.74486157  1
  O  O49  1  0.47291513  0.30421871  0.74459790  1
  O  O50  1  0.82508689  0.52032481  0.74594383  1
  O  O51  1  0.69697302  0.52249892  0.24539532  1
  O  O52  1  0.82334296  0.29944604  0.24453305  1
  O  O53  1  0.46908143  0.16966357  0.24698354  1
  O  O54  1  0.67391905  0.52008102  0.92617332  1
  O  O55  1  0.84075484  0.32817357  0.92734294  1
  O  O56  1  0.48309166  0.16178576  0.92809234  1
  O  O57  1  0.67094963  0.15899175  0.42775726  1
  O  O58  1  0.47942331  0.32574262  0.42607033  1
  O  O59  1  0.84038459  0.51706035  0.42731017  1
  O  O60  1  0.36666622  0.49270980  0.08337421  1
  O  O61  1  0.11253873  0.61025878  0.08236781  1
  O  O62  1  0.51088239  0.88072518  0.08406351  1
  O  O63  1  0.39046732  0.88822941  0.58266391  1
  O  O64  1  0.50552754  0.63339102  0.58301960  1
  O  O65  1  0.11934243  0.48933684  0.58444742  1
  O  O66  1  0.32819089  0.86827492  0.25639609  1
  O  O67  1  0.53054624  0.67211569  0.25767093  1
  O  O68  1  0.13834171  0.46480476  0.25723874  1
  O  O69  1  0.31531562  0.46473007  0.75960810  1
  O  O70  1  0.13268215  0.65768106  0.75759186  1
  O  O71  1  0.53582966  0.86222168  0.75624656  1
loop_
_geom_bond_atom_site_label_1
_geom_bond_atom_site_label_2
_geom_bond_distance
_geom_bond_site_symmetry_2
Na0 O70 2.365973 1_555
Na0 O48 2.405820 1_455
Na0 O69 2.552000 1_555
Na0 O50 2.675635 1_455
Na0 O33 2.840894 1_555
Na0 O5 2.888921 1_455
Na0 O7 2.937401 1_555
Na0 O12 2.953798 1_455
Na1 O63 2.310276 1_555
Na1 O42 2.318427 1_565
Na1 O44 2.558641 1_555
Na1 O64 2.623388 1_555
Na1 O6 2.783758 1_555
Na1 O27 2.795117 1_555
Na2 O61 2.307457 1_555
Na2 O46 2.325759 1_455
Na2 O47 2.580171 1_555
Na2 O60 2.614500 1_555
Na2 O10 2.793766 1_555
Na2 O25 2.868527 1_554
Na3 O43 2.631094 1_565
Na3 O44 2.678354 1_455
Na3 O36 2.729321 1_455
Na3 O42 2.798357 1_465
Na3 O38 2.798748 1_565
Na3 O37 2.842672 1_465
Na4 O45 2.665933 1_456
Na4 O40 2.685199 1_565
Na4 O47 2.711031 1_566
Na4 O41 2.770985 1_455
Na4 O39 2.803090 1_465
Na4 O46 2.803125 1_466
Na5 O48 2.660819 1_555
Na5 O49 2.674976 1_555
Na5 O50 2.688415 1_555
Na5 O56 2.752238 1_555
Na5 O55 2.793080 1_555
Na5 O54 2.797332 1_555
Na6 O52 2.602356 1_555
Na6 O51 2.654495 1_555
Na6 O53 2.709222 1_555
Na6 O59 2.762761 1_555
Na6 O57 2.777861 1_555
Na6 O58 2.852635 1_555
Na7 O60 2.639069 1_555
Na7 O62 2.670608 1_555
Na7 O67 2.741395 1_555
Na7 O61 2.807993 1_555
Na7 O66 2.864704 1_555
Na7 O68 2.874248 1_555
Na8 O64 2.652096 1_555
Na8 O65 2.698633 1_555
Na8 O63 2.724435 1_555
Na8 O71 2.813519 1_555
Na8 O70 2.829521 1_555
Na8 O69 2.846553 1_555
La0 O8 2.254395 1_555
La0 O7 2.286863 1_565
La0 O43 2.350469 1_565
La0 O6 2.356768 1_455
La0 O44 2.406786 1_455
La0 O42 2.454917 1_465
La1 O9 2.250023 1_555
La1 O10 2.326836 1_665
La1 O11 2.347413 1_655
La1 O45 2.357287 1_555
La1 O46 2.393994 1_565
La1 O47 2.418898 1_665
La2 O26 2.319840 1_554
La2 O62 2.395727 1_555
La2 O61 2.405145 1_555
La2 O25 2.428626 1_554
La2 O60 2.439944 1_555
La2 O24 2.451616 1_554
La3 O29 2.314090 1_555
La3 O65 2.392882 1_555
La3 O63 2.414225 1_555
La3 O27 2.434152 1_555
La3 O64 2.440628 1_555
La3 O28 2.462383 1_555
La4 O30 2.315706 1_555
La4 O31 2.344351 1_555
La4 O67 2.350483 1_555
La4 O68 2.351570 1_555
La4 O66 2.410807 1_555
La4 O32 2.415229 1_555
La5 O34 2.281143 1_555
La5 O70 2.355566 1_555
La5 O71 2.359034 1_555
La5 O69 2.387591 1_555
La5 O33 2.393261 1_555
La5 O35 2.425416 1_555
Hf0 O1 2.012595 1_555
Hf0 O37 2.020794 1_565
Hf0 O2 2.063177 1_565
Hf0 O36 2.079446 1_555
Hf0 O38 2.257525 1_665
Hf0 O0 2.272799 1_665
Hf1 O3 2.027115 1_555
Hf1 O40 2.074522 1_555
Hf1 O39 2.088693 1_455
Hf1 O4 2.104009 1_445
Hf1 O5 2.104547 1_455
Hf1 O41 2.239267 1_445
Hf2 O14 2.030990 1_555
Hf2 O13 2.042227 1_555
Hf2 O12 2.075270 1_555
Hf2 O49 2.114706 1_555
Hf2 O50 2.140318 1_555
Hf2 O48 2.192724 1_555
Hf3 O15 2.017689 1_555
Hf3 O16 2.048269 1_555
Hf3 O17 2.055891 1_555
Hf3 O51 2.110216 1_555
Hf3 O52 2.131797 1_555
Hf3 O53 2.254015 1_555
Hf4 O20 1.996128 1_556
Hf4 O19 2.035937 1_556
Hf4 O18 2.039398 1_556
Hf4 O56 2.060124 1_555
Hf4 O55 2.087486 1_555
Hf4 O54 2.188459 1_555
Hf5 O23 2.001716 1_555
Hf5 O22 2.033317 1_555
Hf5 O21 2.034505 1_555
Hf5 O59 2.067979 1_555
Hf5 O57 2.084262 1_555
Hf5 O58 2.194077 1_555
O0 S0 1.492959 1_555
O1 P0 1.583630 1_555
O2 P1 1.582071 1_555
O3 P2 1.574507 1_555
O4 P3 1.561174 1_555
O5 P4 1.578974 1_555
O6 P4 1.529800 1_565
O7 P2 1.524180 1_555
O8 P3 1.518016 1_455
O9 P0 1.519415 1_555
O10 P1 1.532601 1_455
O11 S0 1.464085 1_565
O12 P5 1.565241 1_555
O13 P6 1.565714 1_555
O14 P7 1.565739 1_555
O15 P8 1.569005 1_555
O16 P9 1.554758 1_555
O17 P10 1.563425 1_555
O18 P10 1.548580 1_555
O19 P8 1.542094 1_555
O20 P9 1.556956 1_555
O21 P6 1.542317 1_555
O22 P7 1.545560 1_555
O23 P5 1.557951 1_555
O24 S1 1.472948 1_555
O25 P11 1.546151 1_555
O26 P12 1.536063 1_555
O27 P13 1.541145 1_555
O28 S2 1.474165 1_555
O29 P14 1.538506 1_555
O30 P14 1.528193 1_555
O31 P13 1.527779 1_555
O32 S2 1.473956 1_555
O33 P11 1.538959 1_555
O34 P12 1.529370 1_555
O35 S1 1.475114 1_555
O36 P14 1.565281 1_655
O37 P13 1.582910 1_545
O38 S2 1.495734 1_555
O39 P11 1.570706 1_655
O40 P12 1.561919 1_545
O41 S1 1.492067 1_555
O42 P5 1.543637 1_555
O43 P6 1.526121 1_555
O44 P7 1.544376 1_555
O45 P8 1.524037 1_555
O46 P9 1.547662 1_555
O47 P10 1.546318 1_555
O48 P4 1.582048 1_555
O49 P2 1.555623 1_555
O50 P3 1.573809 1_555
O51 P0 1.565748 1_555
O52 P1 1.572337 1_555
O53 S0 1.499418 1_555
O54 S1 1.491740 1_555
O55 P11 1.564159 1_655
O56 P12 1.557909 1_545
O57 P13 1.558089 1_545
O58 S2 1.492356 1_555
O59 P14 1.562276 1_655
O60 P10 1.550599 1_555
O61 P8 1.552095 1_455
O62 P9 1.530118 1_565
O63 P6 1.554339 1_565
O64 P7 1.546797 1_555
O65 P5 1.531777 1_455
O66 S0 1.477908 1_565
O67 P0 1.529377 1_555
O68 P1 1.534391 1_455
O69 P2 1.536884 1_555
O70 P3 1.548053 1_455
O71 P4 1.527946 1_565
