# generated using pymatgen
data_Na3TiSi2GePO12
_symmetry_space_group_name_H-M   'P 1'
_cell_length_a   15.22240304
_cell_length_b   8.81028822
_cell_length_c   8.86947613
_cell_angle_alpha   90.05334999
_cell_angle_beta   125.25391164
_cell_angle_gamma   90.03806075
_symmetry_Int_Tables_number   1
_chemical_formula_structural   Na3TiSi2GePO12
_chemical_formula_sum   'Na12 Ti4 Si8 Ge4 P4 O48'
_cell_volume   971.36211846
_cell_formula_units_Z   4
loop_
 _symmetry_equiv_pos_site_id
 _symmetry_equiv_pos_as_xyz
  1  'x, y, z'
loop_
 _atom_site_type_symbol
 _atom_site_label
 _atom_site_symmetry_multiplicity
 _atom_site_fract_x
 _atom_site_fract_y
 _atom_site_fract_z
 _atom_site_occupancy
  Na  Na0  1  0.24828433  0.77119849  0.99876016  1
  Na  Na1  1  0.74466173  0.73302961  0.49648865  1
  Na  Na2  1  0.74368256  0.26855966  0.99574261  1
  Na  Na3  1  0.24760630  0.22825168  0.49910807  1
  Na  Na4  1  0.50166725  0.12654221  0.75337826  1
  Na  Na5  1  0.50269514  0.87159623  0.25139118  1
  Na  Na6  1  0.00220895  0.62220747  0.75468460  1
  Na  Na7  1  0.00404889  0.37987872  0.25317490  1
  Na  Na8  1  0.80771880  0.93932514  0.22392686  1
  Na  Na9  1  0.81094849  0.05971671  0.72964994  1
  Na  Na10  1  0.31095979  0.43728146  0.22938873  1
  Na  Na11  1  0.31216729  0.56082426  0.73282730  1
  Ti  Ti0  1  0.89359543  0.74234593  0.93384515  1
  Ti  Ti1  1  0.89113660  0.25880249  0.42940353  1
  Ti  Ti2  1  0.10678184  0.25163385  0.06221416  1
  Ti  Ti3  1  0.39213245  0.23776763  0.93434796  1
  Si  Si0  1  0.35588610  0.88741989  0.74820826  1
  Si  Si1  1  0.64092920  0.89292560  0.74243008  1
  Si  Si2  1  0.64265923  0.10567230  0.24457800  1
  Si  Si3  1  0.35956221  0.10412188  0.26184737  1
  Si  Si4  1  0.85178052  0.39100089  0.75125592  1
  Si  Si5  1  0.14389315  0.39547697  0.74041660  1
  Si  Si6  1  0.14813265  0.61260179  0.25119910  1
  Si  Si7  1  0.85404586  0.61110754  0.25382742  1
  Ge  Ge0  1  0.10561205  0.74939658  0.56266261  1
  Ge  Ge1  1  0.60587090  0.24762548  0.56201955  1
  Ge  Ge2  1  0.39603322  0.75758357  0.43583358  1
  Ge  Ge3  1  0.60389142  0.75229166  0.05837901  1
  P  P0  1  0.00348922  0.96340123  0.74134989  1
  P  P1  1  0.00562374  0.03359169  0.25152079  1
  P  P2  1  0.50485529  0.46940815  0.74544335  1
  P  P3  1  0.50491446  0.53347965  0.25050339  1
  O  O0  1  0.14820330  0.58373102  0.73902309  1
  O  O1  1  0.85012063  0.57592259  0.75506480  1
  O  O2  1  0.85009667  0.42590149  0.25491443  1
  O  O3  1  0.15299507  0.42534932  0.23816538  1
  O  O4  1  0.64624892  0.08167445  0.73606440  1
  O  O5  1  0.35222167  0.07254481  0.76236834  1
  O  O6  1  0.35733706  0.91839520  0.26300645  1
  O  O7  1  0.64628126  0.91732130  0.23483163  1
  O  O8  1  0.43079927  0.56434573  0.56658527  1
  O  O9  1  0.57262236  0.56895769  0.92080286  1
  O  O10  1  0.57295242  0.43374554  0.42521418  1
  O  O11  1  0.43272377  0.43817312  0.07330553  1
  O  O12  1  0.93556541  0.05733379  0.56369373  1
  O  O13  1  0.06591342  0.06681652  0.91373128  1
  O  O14  1  0.07168323  0.93316592  0.42623144  1
  O  O15  1  0.93828633  0.93843804  0.07289554  1
  O  O16  1  0.25251420  0.80728232  0.72879720  1
  O  O17  1  0.74920499  0.83084359  0.76400310  1
  O  O18  1  0.74810064  0.17019054  0.25913342  1
  O  O19  1  0.25569342  0.18298521  0.23701659  1
  O  O20  1  0.75049862  0.30735687  0.73267949  1
  O  O21  1  0.24922813  0.32878442  0.75791617  1
  O  O22  1  0.25517684  0.67858668  0.26832177  1
  O  O23  1  0.75003663  0.69141234  0.22974342  1
  O  O24  1  0.36462721  0.86050613  0.57584530  1
  O  O25  1  0.63794312  0.86798778  0.92332311  1
  O  O26  1  0.64090419  0.13318082  0.42617840  1
  O  O27  1  0.36301732  0.14643276  0.08414530  1
  O  O28  1  0.85833009  0.34362799  0.57829403  1
  O  O29  1  0.14271823  0.35875931  0.92157164  1
  O  O30  1  0.14065344  0.63417519  0.42773856  1
  O  O31  1  0.86149862  0.65370412  0.08082768  1
  O  O32  1  0.45947292  0.80891469  0.93809884  1
  O  O33  1  0.53826932  0.81754209  0.55330155  1
  O  O34  1  0.53736323  0.17634744  0.05763675  1
  O  O35  1  0.46331401  0.18668960  0.44502311  1
  O  O36  1  0.95994042  0.32194172  0.93883129  1
  O  O37  1  0.03562377  0.32988872  0.55416810  1
  O  O38  1  0.04054899  0.67693438  0.06052184  1
  O  O39  1  0.96042941  0.68542997  0.44218480  1
  O  O40  1  0.08687803  0.85976965  0.74265478  1
  O  O41  1  0.92264485  0.86174865  0.74965210  1
  O  O42  1  0.92220443  0.13409012  0.25418810  1
  O  O43  1  0.08489071  0.14046100  0.24847548  1
  O  O44  1  0.58510531  0.36624065  0.73859133  1
  O  O45  1  0.42524862  0.36628824  0.75492738  1
  O  O46  1  0.42291735  0.63525073  0.25890001  1
  O  O47  1  0.58347709  0.63876335  0.24160401  1
loop_
_geom_bond_atom_site_label_1
_geom_bond_atom_site_label_2
_geom_bond_distance
_geom_bond_site_symmetry_2
Na0 O40 2.317013 1_555
Na0 O6 2.330379 1_556
Na0 O16 2.453136 1_555
Na0 O22 2.471272 1_556
Na0 O0 2.508799 1_555
Na0 O46 2.598793 1_556
Na1 O47 2.326198 1_555
Na1 O1 2.347660 1_555
Na1 O23 2.441405 1_555
Na1 O17 2.486740 1_555
Na1 O7 2.502610 1_555
Na1 O41 2.576187 1_555
Na2 O44 2.328166 1_555
Na2 O2 2.349944 1_556
Na2 O20 2.419190 1_555
Na2 O18 2.456754 1_556
Na2 O4 2.502353 1_555
Na2 O42 2.619397 1_556
Na3 O43 2.304988 1_555
Na3 O5 2.363548 1_555
Na3 O19 2.430377 1_555
Na3 O21 2.446459 1_555
Na3 O3 2.570806 1_555
Na3 O45 2.616707 1_555
Na4 O4 2.326999 1_555
Na4 O5 2.369806 1_555
Na4 O45 2.415902 1_555
Na4 O34 2.464755 1_556
Na4 O35 2.502287 1_555
Na4 O44 2.505879 1_555
Na4 O25 2.857862 1_545
Na4 O24 2.918815 1_545
Na5 O7 2.308851 1_555
Na5 O6 2.311047 1_555
Na5 O47 2.419477 1_555
Na5 O46 2.430092 1_555
Na5 O33 2.453431 1_555
Na5 O32 2.519001 1_554
Na5 O26 2.891835 1_565
Na6 O0 2.330342 1_555
Na6 O1 2.352441 1_455
Na6 O41 2.421561 1_455
Na6 O38 2.470015 1_556
Na6 O40 2.491738 1_555
Na6 O39 2.522997 1_455
Na7 O3 2.380395 1_555
Na7 O2 2.387412 1_455
Na7 O43 2.455186 1_555
Na7 O37 2.464392 1_555
Na7 O42 2.500180 1_455
Na7 O36 2.514064 1_454
Na7 O30 2.830453 1_555
Na8 O18 2.320917 1_565
Na8 O42 2.347090 1_565
Na8 O23 2.365220 1_555
Na8 O25 2.494600 1_554
Na8 O7 2.521878 1_555
Na8 O12 2.677884 1_565
Na9 O17 2.317642 1_545
Na9 O41 2.370828 1_545
Na9 O20 2.374605 1_555
Na9 O26 2.515258 1_555
Na9 O4 2.547864 1_555
Na9 O15 2.713644 1_546
Na10 O46 2.344222 1_555
Na10 O22 2.387378 1_555
Na10 O19 2.407347 1_555
Na10 O3 2.452548 1_555
Na10 O29 2.532554 1_554
Na10 O8 2.686726 1_555
Na10 O11 2.883464 1_555
Na10 O35 2.967336 1_555
Na11 O21 2.321879 1_555
Na11 O16 2.346483 1_555
Na11 O45 2.356710 1_555
Na11 O30 2.531057 1_555
Na11 O0 2.536214 1_555
Na11 O11 2.695582 1_556
Na11 O32 2.897167 1_555
Na11 O8 2.917198 1_555
Ge0 O30 1.866143 1_555
Ge0 O39 1.901235 1_455
Ge0 O16 1.903992 1_555
Ge0 O14 1.906743 1_555
Ge0 O0 1.957610 1_555
Ge0 O40 2.024493 1_555
Ge1 O35 1.863344 1_555
Ge1 O26 1.868924 1_555
Ge1 O20 1.888138 1_555
Ge1 O10 1.927474 1_555
Ge1 O4 1.951538 1_555
Ge1 O44 2.052695 1_555
Ge2 O24 1.810187 1_555
Ge2 O33 1.856298 1_555
Ge2 O22 1.899429 1_555
Ge2 O6 1.914895 1_555
Ge2 O8 1.954429 1_555
Ge2 O46 2.128533 1_555
Ge3 O25 1.860364 1_554
Ge3 O32 1.874821 1_554
Ge3 O23 1.909641 1_555
Ge3 O9 1.910311 1_554
Ge3 O7 1.951522 1_555
Ge3 O47 2.079323 1_555
O0 Si5 1.660166 1_555
O1 Si4 1.630047 1_555
O1 Ti0 1.971087 1_555
O2 Si7 1.633028 1_555
O2 Ti1 1.960132 1_555
O3 Si6 1.658372 1_555
O3 Ti2 1.999872 1_555
O4 Si1 1.667442 1_545
O5 Si0 1.639172 1_545
O5 Ti3 1.933826 1_555
O6 Si3 1.636798 1_565
O7 Si2 1.664201 1_565
O8 P2 1.557657 1_555
O9 P2 1.548081 1_555
O10 P3 1.548235 1_555
O11 P3 1.544441 1_555
O11 Ti3 2.033131 1_554
O12 P0 1.536104 1_645
O12 Ti1 2.025415 1_555
O13 P0 1.545900 1_545
O13 Ti2 1.954897 1_556
O14 P1 1.549246 1_565
O15 P1 1.544411 1_665
O15 Ti0 1.998613 1_554
O16 Si0 1.640060 1_555
O17 Si1 1.640038 1_555
O17 Ti0 1.972422 1_555
O18 Si2 1.635687 1_555
O18 Ti1 1.957205 1_555
O19 Si3 1.622036 1_555
O19 Ti2 1.963259 1_555
O20 Si4 1.628568 1_555
O21 Si5 1.629269 1_555
O21 Ti3 1.974558 1_555
O22 Si6 1.651999 1_555
O23 Si7 1.632264 1_555
O24 Si0 1.626425 1_555
O25 Si1 1.646012 1_555
O26 Si2 1.644009 1_555
O27 Si3 1.650047 1_555
O27 Ti3 1.813967 1_554
O28 Si4 1.647109 1_555
O28 Ti1 1.819839 1_555
O29 Si5 1.649469 1_555
O29 Ti2 1.880252 1_556
O30 Si6 1.645031 1_555
O31 Si7 1.646244 1_555
O31 Ti0 1.812411 1_554
O32 Si0 1.655066 1_555
O33 Si1 1.633244 1_555
O34 Si2 1.625214 1_555
O34 Ti3 1.894199 1_554
O35 Si3 1.642330 1_555
O36 Si4 1.640110 1_555
O36 Ti2 1.938300 1_656
O37 Si5 1.622679 1_555
O37 Ti1 1.908278 1_455
O38 Si6 1.633754 1_555
O38 Ti0 1.923557 1_454
O39 Si7 1.647926 1_555
O40 P0 1.558739 1_555
O41 P0 1.557325 1_655
O41 Ti0 2.192647 1_555
O42 P1 1.559860 1_655
O42 Ti1 2.166102 1_555
O43 P1 1.542521 1_555
O43 Ti2 2.106593 1_555
O44 P2 1.552171 1_555
O45 P2 1.554768 1_555
O45 Ti3 2.235479 1_555
O46 P3 1.573580 1_555
O47 P3 1.550637 1_555
