# generated using pymatgen
data_NaTaIn(PO4)3
_symmetry_space_group_name_H-M   'P 1'
_cell_length_a   8.80893750
_cell_length_b   8.80893722
_cell_length_c   23.00741059
_cell_angle_alpha   90.00000000
_cell_angle_beta   90.00000000
_cell_angle_gamma   120.00000106
_symmetry_Int_Tables_number   1
_chemical_formula_structural   NaTaIn(PO4)3
_chemical_formula_sum   'Na6 Ta6 In6 P18 O72'
_cell_volume   1546.12788693
_cell_formula_units_Z   6
loop_
 _symmetry_equiv_pos_site_id
 _symmetry_equiv_pos_as_xyz
  1  'x, y, z'
loop_
 _atom_site_type_symbol
 _atom_site_label
 _atom_site_symmetry_multiplicity
 _atom_site_fract_x
 _atom_site_fract_y
 _atom_site_fract_z
 _atom_site_occupancy
  Na  Na0  1  0.00000000  -0.00000000  0.49574273  1
  Na  Na1  1  0.00000000  -0.00000000  0.99574273  1
  Na  Na2  1  0.66666700  0.33333300  0.82907573  1
  Na  Na3  1  0.66666700  0.33333300  0.32907573  1
  Na  Na4  1  0.33333300  0.66666700  0.16240973  1
  Na  Na5  1  0.33333300  0.66666700  0.66240973  1
  Ta  Ta0  1  0.00000000  -0.00000000  0.64568887  1
  Ta  Ta1  1  0.00000000  -0.00000000  0.14568887  1
  Ta  Ta2  1  0.66666700  0.33333300  0.97902187  1
  Ta  Ta3  1  0.66666700  0.33333300  0.47902187  1
  Ta  Ta4  1  0.33333300  0.66666700  0.31235587  1
  Ta  Ta5  1  0.33333300  0.66666700  0.81235587  1
  In  In0  1  0.00000000  -0.00000000  0.35181620  1
  In  In1  1  0.00000000  -0.00000000  0.85181620  1
  In  In2  1  0.66666700  0.33333300  0.68514920  1
  In  In3  1  0.66666700  0.33333300  0.18514920  1
  In  In4  1  0.33333300  0.66666700  0.01848320  1
  In  In5  1  0.33333300  0.66666700  0.51848320  1
  P  P0  1  0.29009771  -0.00040879  0.25054732  1
  P  P1  1  0.70949350  0.70990229  0.25054732  1
  P  P2  1  0.00040879  0.29050650  0.25054732  1
  P  P3  1  0.29009771  0.29050650  0.75054732  1
  P  P4  1  0.00040879  0.70990229  0.75054732  1
  P  P5  1  0.70949350  -0.00040879  0.75054732  1
  P  P6  1  0.95676471  0.33292421  0.58388032  1
  P  P7  1  0.37616050  0.04323529  0.58388032  1
  P  P8  1  0.66707579  0.62383950  0.58388032  1
  P  P9  1  0.95676471  0.62383950  0.08388032  1
  P  P10  1  0.66707579  0.04323529  0.08388032  1
  P  P11  1  0.37616050  0.33292421  0.08388032  1
  P  P12  1  0.62343071  0.66625821  0.91721432  1
  P  P13  1  0.04282650  0.37656929  0.91721432  1
  P  P14  1  0.33374179  0.95717350  0.91721432  1
  P  P15  1  0.62343071  0.95717350  0.41721432  1
  P  P16  1  0.33374179  0.37656929  0.41721432  1
  P  P17  1  0.04282650  0.66625821  0.41721432  1
  O  O0  1  0.21318096  0.02730221  0.30505136  1
  O  O1  1  0.81412126  0.78681904  0.30505136  1
  O  O2  1  0.97269779  0.18587874  0.30505136  1
  O  O3  1  0.21318096  0.18587874  0.80505136  1
  O  O4  1  0.97269779  0.78681904  0.80505136  1
  O  O5  1  0.81412126  0.02730221  0.80505136  1
  O  O6  1  0.80065256  0.97017371  0.69555991  1
  O  O7  1  0.16952115  0.19934744  0.69555991  1
  O  O8  1  0.02982629  0.83047885  0.69555991  1
  O  O9  1  0.80065256  0.83047885  0.19555991  1
  O  O10  1  0.02982629  0.19934744  0.19555991  1
  O  O11  1  0.16952115  0.97017371  0.19555991  1
  O  O12  1  0.87984796  0.36063521  0.63838436  1
  O  O13  1  0.48078826  0.12015204  0.63838436  1
  O  O14  1  0.63936479  0.51921174  0.63838436  1
  O  O15  1  0.87984796  0.51921174  0.13838436  1
  O  O16  1  0.63936479  0.12015204  0.13838436  1
  O  O17  1  0.48078826  0.36063521  0.13838436  1
  O  O18  1  0.46731956  0.30350671  0.02889291  1
  O  O19  1  0.83618815  0.53268044  0.02889291  1
  O  O20  1  0.69649329  0.16381185  0.02889291  1
  O  O21  1  0.46731956  0.16381185  0.52889291  1
  O  O22  1  0.69649329  0.53268044  0.52889291  1
  O  O23  1  0.83618815  0.30350671  0.52889291  1
  O  O24  1  0.54651396  0.69396921  0.97171836  1
  O  O25  1  0.14745426  0.45348604  0.97171836  1
  O  O26  1  0.30603079  0.85254574  0.97171836  1
  O  O27  1  0.54651396  0.85254574  0.47171836  1
  O  O28  1  0.30603079  0.45348604  0.47171836  1
  O  O29  1  0.14745426  0.69396921  0.47171836  1
  O  O30  1  0.13398556  0.63684071  0.36222691  1
  O  O31  1  0.50285415  0.86601444  0.36222691  1
  O  O32  1  0.36315929  0.49714585  0.36222691  1
  O  O33  1  0.13398556  0.49714585  0.86222691  1
  O  O34  1  0.36315929  0.86601444  0.86222691  1
  O  O35  1  0.50285415  0.63684071  0.86222691  1
  O  O36  1  0.01297776  0.82026360  0.41037229  1
  O  O37  1  0.80728585  0.98702224  0.41037229  1
  O  O38  1  0.17973640  0.19271415  0.41037229  1
  O  O39  1  0.01297776  0.19271415  0.91037229  1
  O  O40  1  0.17973640  0.98702224  0.91037229  1
  O  O41  1  0.80728585  0.82026360  0.91037229  1
  O  O42  1  0.96714060  0.15908111  0.59071985  1
  O  O43  1  0.19194051  0.03285940  0.59071985  1
  O  O44  1  0.84091889  0.80805949  0.59071985  1
  O  O45  1  0.96714060  0.80805949  0.09071985  1
  O  O46  1  0.84091889  0.03285940  0.09071985  1
  O  O47  1  0.19194051  0.15908111  0.09071985  1
  O  O48  1  0.67964476  0.15359660  0.74370529  1
  O  O49  1  0.47395285  0.32035524  0.74370529  1
  O  O50  1  0.84640340  0.52604715  0.74370529  1
  O  O51  1  0.67964476  0.52604715  0.24370529  1
  O  O52  1  0.84640340  0.32035524  0.24370529  1
  O  O53  1  0.47395285  0.15359660  0.24370529  1
  O  O54  1  0.63380760  0.49241411  0.92405285  1
  O  O55  1  0.85860751  0.36619240  0.92405285  1
  O  O56  1  0.50758589  0.14139249  0.92405285  1
  O  O57  1  0.63380760  0.14139249  0.42405285  1
  O  O58  1  0.50758589  0.36619240  0.42405285  1
  O  O59  1  0.85860751  0.49241411  0.42405285  1
  O  O60  1  0.34631076  0.48693060  0.07703929  1
  O  O61  1  0.14061885  0.65368924  0.07703929  1
  O  O62  1  0.51306940  0.85938115  0.07703929  1
  O  O63  1  0.34631076  0.85938115  0.57703929  1
  O  O64  1  0.51306940  0.65368924  0.57703929  1
  O  O65  1  0.14061885  0.48693060  0.57703929  1
  O  O66  1  0.30047360  0.82574811  0.25738685  1
  O  O67  1  0.52527351  0.69952640  0.25738685  1
  O  O68  1  0.17425189  0.47472649  0.25738685  1
  O  O69  1  0.30047360  0.47472649  0.75738685  1
  O  O70  1  0.17425189  0.69952640  0.75738685  1
  O  O71  1  0.52527351  0.82574811  0.75738685  1
loop_
_geom_bond_atom_site_label_1
_geom_bond_atom_site_label_2
_geom_bond_distance
_geom_bond_site_symmetry_2
Na0 O38 2.561008 1_555
Na0 O37 2.561008 1_445
Na0 O36 2.561008 1_545
Na0 O44 2.688522 1_445
Na0 O42 2.688522 1_455
Na0 O43 2.688522 1_555
Na1 O39 2.561008 1_555
Na1 O41 2.561008 1_445
Na1 O40 2.561008 1_545
Na1 O45 2.688522 1_446
Na1 O47 2.688522 1_556
Na1 O46 2.688522 1_456
Na2 O50 2.561008 1_555
Na2 O49 2.561008 1_555
Na2 O48 2.561008 1_555
Na2 O56 2.688522 1_555
Na2 O54 2.688522 1_555
Na2 O55 2.688522 1_555
Na3 O51 2.561008 1_555
Na3 O53 2.561008 1_555
Na3 O52 2.561008 1_555
Na3 O57 2.688522 1_555
Na3 O59 2.688522 1_555
Na3 O58 2.688522 1_555
Na4 O62 2.561008 1_555
Na4 O61 2.561008 1_555
Na4 O60 2.561008 1_555
Na4 O68 2.688522 1_555
Na4 O66 2.688522 1_555
Na4 O67 2.688522 1_555
Na5 O63 2.561008 1_555
Na5 O65 2.561008 1_555
Na5 O64 2.561008 1_555
Na5 O69 2.688522 1_555
Na5 O71 2.688522 1_555
Na5 O70 2.688522 1_555
In0 O2 2.071314 1_455
In0 O1 2.071314 1_445
In0 O0 2.071314 1_555
In0 O38 2.125060 1_555
In0 O37 2.125060 1_445
In0 O36 2.125060 1_545
In1 O5 2.071314 1_455
In1 O3 2.071314 1_555
In1 O4 2.071314 1_445
In1 O39 2.125060 1_555
In1 O41 2.125060 1_445
In1 O40 2.125060 1_545
In2 O14 2.071314 1_555
In2 O13 2.071314 1_555
In2 O12 2.071314 1_555
In2 O50 2.125060 1_555
In2 O49 2.125060 1_555
In2 O48 2.125060 1_555
In3 O17 2.071314 1_555
In3 O15 2.071314 1_555
In3 O16 2.071314 1_555
In3 O51 2.125060 1_555
In3 O53 2.125060 1_555
In3 O52 2.125060 1_555
In4 O26 2.071314 1_554
In4 O25 2.071314 1_554
In4 O24 2.071314 1_554
In4 O62 2.125060 1_555
In4 O61 2.125060 1_555
In4 O60 2.125060 1_555
In5 O29 2.071314 1_555
In5 O27 2.071314 1_555
In5 O28 2.071314 1_555
In5 O63 2.125060 1_555
In5 O65 2.125060 1_555
In5 O64 2.125060 1_555
O0 P0 1.502188 1_555
O1 P1 1.502188 1_555
O2 P2 1.502188 1_655
O3 P3 1.502188 1_555
O4 P4 1.502188 1_655
O5 P5 1.502188 1_555
O6 P5 1.587639 1_565
O6 Ta0 2.001964 1_665
O7 P3 1.587639 1_555
O7 Ta0 2.001964 1_555
O8 P4 1.587639 1_555
O8 Ta0 2.001964 1_565
O9 P1 1.587639 1_555
O9 Ta1 2.001964 1_665
O10 P2 1.587639 1_555
O10 Ta1 2.001964 1_555
O11 P0 1.587639 1_565
O11 Ta1 2.001964 1_565
O12 P6 1.502188 1_555
O13 P7 1.502188 1_555
O14 P8 1.502188 1_555
O15 P9 1.502188 1_555
O16 P10 1.502188 1_555
O17 P11 1.502188 1_555
O18 P11 1.587639 1_555
O18 Ta2 2.001964 1_554
O19 P9 1.587639 1_555
O19 Ta2 2.001964 1_554
O20 P10 1.587639 1_555
O20 Ta2 2.001964 1_554
O21 P7 1.587639 1_555
O21 Ta3 2.001964 1_555
O22 P8 1.587639 1_555
O22 Ta3 2.001964 1_555
O23 P6 1.587639 1_555
O23 Ta3 2.001964 1_555
O24 P12 1.502188 1_555
O25 P13 1.502188 1_555
O26 P14 1.502188 1_555
O27 P15 1.502188 1_555
O28 P16 1.502188 1_555
O29 P17 1.502188 1_555
O30 P17 1.587639 1_555
O30 Ta4 2.001964 1_555
O31 P15 1.587639 1_555
O31 Ta4 2.001964 1_555
O32 P16 1.587639 1_555
O32 Ta4 2.001964 1_555
O33 P13 1.587639 1_555
O33 Ta5 2.001964 1_555
O34 P14 1.587639 1_555
O34 Ta5 2.001964 1_555
O35 P12 1.587639 1_555
O35 Ta5 2.001964 1_555
O36 P17 1.513621 1_555
O37 P15 1.513630 1_555
O38 P16 1.513626 1_555
O39 P13 1.513630 1_555
O40 P14 1.513621 1_555
O41 P12 1.513626 1_555
O42 P6 1.586880 1_555
O42 Ta0 2.013108 1_655
O43 P7 1.586889 1_555
O43 Ta0 2.013108 1_555
O44 P8 1.586885 1_555
O44 Ta0 2.013108 1_665
O45 P9 1.586889 1_555
O45 Ta1 2.013108 1_665
O46 P10 1.586880 1_555
O46 Ta1 2.013108 1_655
O47 P11 1.586885 1_555
O47 Ta1 2.013108 1_555
O48 P5 1.513621 1_555
O49 P3 1.513630 1_555
O50 P4 1.513626 1_655
O51 P1 1.513630 1_555
O52 P2 1.513621 1_655
O53 P0 1.513626 1_555
O54 P12 1.586891 1_555
O54 Ta2 2.013108 1_555
O55 P13 1.586874 1_655
O55 Ta2 2.013108 1_555
O56 P14 1.586882 1_545
O56 Ta2 2.013108 1_555
O57 P15 1.586874 1_545
O57 Ta3 2.013108 1_555
O58 P16 1.586891 1_555
O58 Ta3 2.013108 1_555
O59 P17 1.586882 1_655
O59 Ta3 2.013108 1_555
O60 P11 1.513633 1_555
O61 P9 1.513616 1_455
O62 P10 1.513622 1_565
O63 P7 1.513615 1_565
O64 P8 1.513633 1_555
O65 P6 1.513622 1_455
O66 P0 1.586880 1_565
O66 Ta4 2.013108 1_555
O67 P1 1.586889 1_555
O67 Ta4 2.013108 1_555
O68 P2 1.586885 1_555
O68 Ta4 2.013108 1_555
O69 P3 1.586889 1_555
O69 Ta5 2.013108 1_555
O70 P4 1.586880 1_555
O70 Ta5 2.013108 1_555
O71 P5 1.586885 1_565
O71 Ta5 2.013108 1_555
