# generated using pymatgen
data_NaMgMoO3
_symmetry_space_group_name_H-M   'P 1'
_cell_length_a   4.36772922
_cell_length_b   4.36772922
_cell_length_c   4.38449931
_cell_angle_alpha   98.15920552
_cell_angle_beta   98.15920552
_cell_angle_gamma   82.20916591
_symmetry_Int_Tables_number   1
_chemical_formula_structural   NaMgMoO3
_chemical_formula_sum   'Na1 Mg1 Mo1 O3'
_cell_volume   81.38804179
_cell_formula_units_Z   1
loop_
 _symmetry_equiv_pos_site_id
 _symmetry_equiv_pos_as_xyz
  1  'x, y, z'
loop_
 _atom_site_type_symbol
 _atom_site_label
 _atom_site_symmetry_multiplicity
 _atom_site_fract_x
 _atom_site_fract_y
 _atom_site_fract_z
 _atom_site_occupancy
  Na  Na0  1  0.62714701  0.62714701  0.37239222  1
  Mg  Mg0  1  0.27975624  0.27975624  0.72694704  1
  Mo  Mo0  1  0.96594176  0.96594176  0.03706537  1
  O  O0  1  0.47192352  0.98537574  0.01674959  1
  O  O1  1  0.98537574  0.47192352  0.01674959  1
  O  O2  1  0.98652273  0.98652273  0.53009619  1
loop_
_geom_bond_atom_site_label_1
_geom_bond_atom_site_label_2
_geom_bond_distance
_geom_bond_site_symmetry_2
Na0 O1 2.333256 1_555
Na0 O0 2.333256 1_555
Na0 O2 2.336146 1_555
Mg0 O0 1.959759 1_546
Mg0 O1 1.959759 1_456
Mg0 O2 1.960313 1_445
Mo0 O1 2.137500 1_555
Mo0 O0 2.137500 1_555
Mo0 O2 2.140317 1_555
Mo0 O1 2.237874 1_565
Mo0 O0 2.237874 1_655
Mo0 O2 2.252255 1_554
