# generated using pymatgen
data_Na7Sc4SiP5O24
_symmetry_space_group_name_H-M   'P 1'
_cell_length_a   9.08470039
_cell_length_b   9.07853531
_cell_length_c   22.70928142
_cell_angle_alpha   90.03624709
_cell_angle_beta   89.91770943
_cell_angle_gamma   120.03339458
_symmetry_Int_Tables_number   1
_chemical_formula_structural   Na7Sc4SiP5O24
_chemical_formula_sum   'Na21 Sc12 Si3 P15 O72'
_cell_volume   1621.48796081
_cell_formula_units_Z   3
loop_
 _symmetry_equiv_pos_site_id
 _symmetry_equiv_pos_as_xyz
  1  'x, y, z'
loop_
 _atom_site_type_symbol
 _atom_site_label
 _atom_site_symmetry_multiplicity
 _atom_site_fract_x
 _atom_site_fract_y
 _atom_site_fract_z
 _atom_site_occupancy
  Na  Na0  1  0.36505420  0.36505131  0.25036129  1
  Na  Na1  1  0.99849981  0.63347195  0.24912400  1
  Na  Na2  1  0.63589262  0.63814757  0.74934359  1
  Na  Na3  1  0.99613042  0.36177479  0.75112250  1
  Na  Na4  1  0.36921672  0.00060371  0.74914765  1
  Na  Na5  1  0.30143231  0.32911615  0.58237398  1
  Na  Na6  1  0.03486750  0.70217750  0.58288656  1
  Na  Na7  1  0.66418356  0.96807921  0.58495243  1
  Na  Na8  1  0.29907893  0.96574928  0.08332772  1
  Na  Na9  1  0.66987401  0.69821402  0.08280200  1
  Na  Na10  1  0.03145290  0.33639352  0.08401511  1
  Na  Na11  1  0.96693760  0.66588469  0.91784444  1
  Na  Na12  1  0.69956988  0.03232111  0.91559506  1
  Na  Na13  1  0.96828746  0.30156997  0.41615784  1
  Na  Na14  1  0.33482696  0.03324016  0.41756485  1
  Na  Na15  1  0.99647733  0.99300440  0.49951573  1
  Na  Na16  1  0.00703865  0.00395167  0.99917751  1
  Na  Na17  1  0.65984413  0.33012662  0.83405694  1
  Na  Na18  1  0.66666833  0.33332012  0.33331270  1
  Na  Na19  1  0.33714549  0.67343213  0.16735678  1
  Na  Na20  1  0.33723622  0.67244213  0.66662373  1
  Sc  Sc0  1  0.99273343  0.99389235  0.35059088  1
  Sc  Sc1  1  0.00234977  0.00727254  0.85073316  1
  Sc  Sc2  1  0.99864663  0.99897633  0.64992726  1
  Sc  Sc3  1  0.99730067  0.99543695  0.15000938  1
  Sc  Sc4  1  0.66340302  0.32471679  0.68351430  1
  Sc  Sc5  1  0.67172340  0.33052530  0.18411932  1
  Sc  Sc6  1  0.66416844  0.33808862  0.98283584  1
  Sc  Sc7  1  0.66128023  0.33603497  0.48238900  1
  Sc  Sc8  1  0.32893069  0.66425733  0.01683089  1
  Sc  Sc9  1  0.33647476  0.67149769  0.51645361  1
  Sc  Sc10  1  0.34062167  0.67279930  0.31608240  1
  Sc  Sc11  1  0.33812626  0.66907066  0.81672043  1
  Si  Si0  1  0.70555786  0.00010023  0.75026628  1
  Si  Si1  1  0.37034919  0.03758948  0.58269347  1
  Si  Si2  1  0.96129643  0.62801119  0.08334694  1
  P  P0  1  0.29417176  0.00050760  0.25061363  1
  P  P1  1  0.70467598  0.70607392  0.24950817  1
  P  P2  1  0.99886983  0.29284258  0.25064538  1
  P  P3  1  0.29289475  0.29344178  0.74969161  1
  P  P4  1  0.99965223  0.70661138  0.75071208  1
  P  P5  1  0.95984873  0.33367378  0.58249957  1
  P  P6  1  0.66666907  0.62542575  0.58382534  1
  P  P7  1  0.66680202  0.04109565  0.08240847  1
  P  P8  1  0.37451413  0.33345187  0.08444741  1
  P  P9  1  0.62697299  0.66499539  0.91670973  1
  P  P10  1  0.03962271  0.37147301  0.91673569  1
  P  P11  1  0.33312228  0.96171515  0.91674102  1
  P  P12  1  0.62884989  0.96075751  0.41708343  1
  P  P13  1  0.33440126  0.37370729  0.41596432  1
  P  P14  1  0.03906617  0.66607053  0.41602337  1
  O  O0  1  0.20915667  0.02905027  0.30539925  1
  O  O1  1  0.82300582  0.79246876  0.30247966  1
  O  O2  1  0.97623601  0.18415419  0.30577908  1
  O  O3  1  0.20956748  0.17589331  0.80274683  1
  O  O4  1  0.97110797  0.78972873  0.80542944  1
  O  O5  1  0.82588356  0.03302336  0.80787223  1
  O  O6  1  0.79013488  0.96545959  0.69204249  1
  O  O7  1  0.18328368  0.21491858  0.69381487  1
  O  O8  1  0.03306088  0.81900162  0.69527172  1
  O  O9  1  0.78591696  0.81312607  0.19326598  1
  O  O10  1  0.03000095  0.21181982  0.19519701  1
  O  O11  1  0.18099788  0.97003347  0.19521741  1
  O  O12  1  0.88141399  0.36745302  0.63805448  1
  O  O13  1  0.49027022  0.12263182  0.64087497  1
  O  O14  1  0.63624175  0.51687330  0.63990360  1
  O  O15  1  0.87532493  0.50748154  0.14114107  1
  O  O16  1  0.63219846  0.12326108  0.13593793  1
  O  O17  1  0.48428739  0.36410139  0.13987418  1
  O  O18  1  0.45662767  0.29876124  0.03072258  1
  O  O19  1  0.84090701  0.54213658  0.02551215  1
  O  O20  1  0.69752326  0.15106158  0.02678622  1
  O  O21  1  0.45831586  0.15874237  0.52530120  1
  O  O22  1  0.69937323  0.54169027  0.53063200  1
  O  O23  1  0.84812002  0.30433769  0.52800767  1
  O  O24  1  0.54491021  0.69601205  0.97161076  1
  O  O25  1  0.14801195  0.45684173  0.97212037  1
  O  O26  1  0.30447838  0.84821667  0.97176745  1
  O  O27  1  0.54748048  0.85351962  0.47334461  1
  O  O28  1  0.30314215  0.45473912  0.47148431  1
  O  O29  1  0.15237005  0.69659361  0.47146974  1
  O  O30  1  0.12423787  0.63760482  0.36126026  1
  O  O31  1  0.51033164  0.87428477  0.36415141  1
  O  O32  1  0.35701648  0.48258548  0.36088106  1
  O  O33  1  0.12180384  0.48451786  0.86169554  1
  O  O34  1  0.36206344  0.87697587  0.86163034  1
  O  O35  1  0.51864015  0.64186009  0.86121017  1
  O  O36  1  0.02885943  0.83099176  0.41006719  1
  O  O37  1  0.80937109  0.98573162  0.41061618  1
  O  O38  1  0.17111753  0.19372112  0.41061792  1
  O  O39  1  0.01619627  0.19134619  0.91213459  1
  O  O40  1  0.16905667  0.97115730  0.91080328  1
  O  O41  1  0.80659097  0.82743092  0.91140010  1
  O  O42  1  0.97702160  0.17263592  0.58882916  1
  O  O43  1  0.18150984  0.01872603  0.58846484  1
  O  O44  1  0.82630288  0.80543693  0.58868190  1
  O  O45  1  0.98100986  0.81821347  0.08909579  1
  O  O46  1  0.82860291  0.02519051  0.08958406  1
  O  O47  1  0.19343480  0.17502443  0.09019404  1
  O  O48  1  0.68877044  0.17216151  0.74569355  1
  O  O49  1  0.47345350  0.31647318  0.74408696  1
  O  O50  1  0.83835510  0.52928953  0.74423652  1
  O  O51  1  0.68753453  0.52660798  0.24458671  1
  O  O52  1  0.84284882  0.31737158  0.24562946  1
  O  O53  1  0.46833535  0.16380304  0.24420147  1
  O  O54  1  0.65036348  0.50813974  0.92127328  1
  O  O55  1  0.86012667  0.35450722  0.92197939  1
  O  O56  1  0.49765437  0.13569683  0.92261609  1
  O  O57  1  0.64614234  0.14014305  0.42204895  1
  O  O58  1  0.49030600  0.34932892  0.42093365  1
  O  O59  1  0.86519107  0.50284494  0.42245335  1
  O  O60  1  0.35828502  0.49508123  0.07708755  1
  O  O61  1  0.15123217  0.64741209  0.07760179  1
  O  O62  1  0.50851838  0.86012116  0.07660511  1
  O  O63  1  0.35243245  0.84802149  0.57737956  1
  O  O64  1  0.50484898  0.64179452  0.57694078  1
  O  O65  1  0.14049729  0.49288023  0.57662998  1
  O  O66  1  0.30447201  0.83562755  0.25657924  1
  O  O67  1  0.52401715  0.68096777  0.25599807  1
  O  O68  1  0.16214800  0.47292150  0.25600769  1
  O  O69  1  0.30817218  0.47103425  0.75649652  1
  O  O70  1  0.15889153  0.68558579  0.75653730  1
  O  O71  1  0.51540887  0.82939842  0.75589915  1
loop_
_geom_bond_atom_site_label_1
_geom_bond_atom_site_label_2
_geom_bond_distance
_geom_bond_site_symmetry_2
Na0 O53 2.439940 1_555
Na0 O68 2.485872 1_555
Na0 O67 2.486301 1_555
Na0 O51 2.539505 1_555
Na0 O17 2.733204 1_555
Na0 O32 2.741751 1_555
Na0 O10 2.922285 1_555
Na0 O0 2.923716 1_555
Na1 O66 2.453120 1_655
Na1 O52 2.485795 1_555
Na1 O51 2.487933 1_555
Na1 O68 2.555246 1_655
Na1 O15 2.701285 1_555
Na1 O30 2.785033 1_655
Na1 O1 2.896449 1_555
Na1 O11 2.917422 1_655
Na2 O71 2.477188 1_555
Na2 O50 2.488375 1_555
Na2 O49 2.531099 1_555
Na2 O69 2.582545 1_555
Na2 O14 2.718260 1_555
Na2 O35 2.759988 1_555
Na2 O6 2.884148 1_555
Na2 O4 2.933246 1_555
Na3 O48 2.442225 1_555
Na3 O69 2.494199 1_655
Na3 O70 2.548015 1_655
Na3 O50 2.564113 1_555
Na3 O33 2.753486 1_655
Na3 O12 2.782705 1_555
Na3 O5 2.887749 1_555
Na3 O7 2.936417 1_655
Na4 O71 2.504089 1_545
Na4 O48 2.516564 1_555
Na4 O70 2.527403 1_545
Na4 O49 2.532802 1_555
Na4 O13 2.694163 1_555
Na4 O34 2.778312 1_545
Na4 O3 2.901806 1_555
Na4 O8 2.917096 1_545
Na5 O43 2.464454 1_555
Na5 O64 2.497390 1_555
Na5 O42 2.556065 1_455
Na5 O65 2.557665 1_555
Na5 O7 2.741018 1_555
Na5 O28 2.761913 1_555
Na5 O21 2.881392 1_555
Na5 O14 2.946633 1_555
Na6 O43 2.493432 1_565
Na6 O44 2.502664 1_455
Na6 O63 2.503463 1_555
Na6 O65 2.525066 1_555
Na6 O29 2.755034 1_555
Na6 O8 2.766344 1_555
Na6 O22 2.895424 1_455
Na6 O12 2.916601 1_455
Na7 O63 2.479890 1_555
Na7 O42 2.500194 1_565
Na7 O44 2.556155 1_555
Na7 O64 2.571165 1_555
Na7 O6 2.694338 1_555
Na7 O27 2.744120 1_555
Na7 O13 2.879033 1_565
Na7 O23 2.945548 1_565
Na8 O45 2.507123 1_455
Na8 O61 2.507513 1_555
Na8 O47 2.525779 1_565
Na8 O62 2.527557 1_555
Na8 O26 2.758251 1_554
Na8 O11 2.764493 1_555
Na8 O18 2.878186 1_565
Na8 O16 2.882188 1_565
Na9 O45 2.472918 1_555
Na9 O60 2.491146 1_555
Na9 O62 2.546919 1_555
Na9 O46 2.574897 1_565
Na9 O9 2.719550 1_555
Na9 O24 2.765983 1_554
Na9 O19 2.882769 1_555
Na9 O17 2.932999 1_555
Na10 O61 2.470309 1_555
Na10 O46 2.486402 1_455
Na10 O47 2.547594 1_555
Na10 O60 2.575518 1_555
Na10 O25 2.758741 1_554
Na10 O10 2.764547 1_555
Na10 O15 2.881791 1_455
Na10 O20 2.936354 1_455
Na11 O40 2.446158 1_655
Na11 O55 2.489128 1_555
Na11 O54 2.490961 1_555
Na11 O41 2.536486 1_555
Na11 O19 2.694289 1_556
Na11 O4 2.782690 1_555
Na11 O26 2.927439 1_655
Na11 O33 2.937256 1_655
Na12 O56 2.448112 1_555
Na12 O39 2.491387 1_655
Na12 O41 2.494828 1_545
Na12 O55 2.536419 1_555
Na12 O5 2.699241 1_555
Na12 O20 2.748614 1_556
Na12 O34 2.927814 1_545
Na12 O24 2.935966 1_545
Na13 O59 2.439070 1_555
Na13 O38 2.484955 1_655
Na13 O37 2.485578 1_545
Na13 O57 2.537007 1_555
Na13 O2 2.738211 1_555
Na13 O23 2.768315 1_555
Na13 O28 2.922447 1_655
Na13 O30 2.922582 1_655
Na14 O36 2.453309 1_545
Na14 O58 2.485628 1_555
Na14 O57 2.490810 1_555
Na14 O38 2.555275 1_555
Na14 O21 2.695834 1_555
Na14 O0 2.785294 1_555
Na14 O31 2.896784 1_545
Na14 O29 2.917979 1_545
Na15 O43 2.564504 1_665
Na15 O44 2.598095 1_555
Na15 O36 2.608403 1_655
Na15 O37 2.620453 1_555
Na15 O38 2.648525 1_665
Na15 O42 2.662294 1_565
Na16 O39 2.582752 1_555
Na16 O45 2.583177 1_446
Na16 O40 2.590794 1_545
Na16 O47 2.631558 1_556
Na16 O41 2.634940 1_445
Na16 O46 2.680082 1_456
Na17 O48 2.554307 1_555
Na17 O54 2.583959 1_555
Na17 O56 2.593040 1_555
Na17 O49 2.618517 1_555
Na17 O55 2.636849 1_555
Na17 O50 2.668295 1_555
Na18 O52 2.601950 1_555
Na18 O58 2.602128 1_555
Na18 O51 2.616370 1_555
Na18 O57 2.616729 1_555
Na18 O53 2.634556 1_555
Na18 O59 2.635764 1_555
Na19 O61 2.583189 1_555
Na19 O66 2.606486 1_555
Na19 O67 2.613856 1_555
Na19 O62 2.626327 1_555
Na19 O68 2.644356 1_555
Na19 O60 2.677089 1_555
Na20 O63 2.539745 1_555
Na20 O71 2.541201 1_555
Na20 O64 2.637883 1_555
Na20 O70 2.644290 1_555
Na20 O69 2.664291 1_555
Na20 O65 2.668019 1_555
O0 P0 1.552001 1_555
O0 Sc0 2.094574 1_445
O1 P1 1.541552 1_555
O1 Sc0 2.023608 1_555
O2 P2 1.543135 1_555
O2 Sc0 2.074469 1_545
O3 P3 1.534241 1_555
O3 Sc1 2.046049 1_555
O4 P4 1.540921 1_555
O4 Sc1 2.115825 1_665
O5 Si0 1.634678 1_555
O5 Sc1 1.987974 1_655
O6 Si0 1.635842 1_565
O6 Sc2 2.003431 1_555
O7 P3 1.549785 1_555
O7 Sc2 2.088264 1_445
O8 P4 1.552047 1_455
O8 Sc2 2.083785 1_455
O9 P1 1.549644 1_555
O9 Sc3 2.051137 1_555
O10 P2 1.553273 1_455
O10 Sc3 2.101065 1_445
O11 P0 1.560372 1_565
O11 Sc3 2.069463 1_455
O12 P5 1.552131 1_555
O12 Sc4 2.089107 1_555
O13 Si1 1.639993 1_555
O13 Sc4 1.972558 1_555
O14 P6 1.548321 1_555
O14 Sc4 2.125741 1_555
O15 Si2 1.635020 1_555
O15 Sc5 1.994240 1_555
O16 P7 1.538006 1_555
O16 Sc5 2.046692 1_555
O17 P8 1.543266 1_555
O17 Sc5 2.127650 1_555
O18 P8 1.541516 1_555
O18 Sc6 2.045906 1_554
O19 Si2 1.636542 1_555
O19 Sc6 1.993417 1_554
O20 P7 1.546530 1_555
O20 Sc6 2.118725 1_554
O21 Si1 1.632803 1_555
O21 Sc7 1.991533 1_555
O22 P6 1.532738 1_555
O22 Sc7 2.039025 1_555
O23 P5 1.537897 1_555
O23 Sc7 2.128736 1_555
O24 P9 1.548072 1_555
O24 Sc8 2.101406 1_556
O25 P10 1.546153 1_555
O25 Sc8 2.045101 1_556
O26 P11 1.556682 1_555
O26 Sc8 2.063969 1_556
O27 P12 1.550845 1_555
O27 Sc9 2.046821 1_555
O28 P13 1.555124 1_555
O28 Sc9 2.099731 1_555
O29 P14 1.561897 1_555
O29 Sc9 2.068695 1_555
O30 P14 1.552127 1_555
O30 Sc10 2.094008 1_555
O31 P12 1.541725 1_555
O31 Sc10 2.023334 1_555
O32 P13 1.543226 1_555
O32 Sc10 2.073488 1_555
O33 P10 1.550779 1_555
O33 Sc11 2.100683 1_555
O34 P11 1.558071 1_555
O34 Sc11 2.058476 1_555
O35 P9 1.548390 1_555
O35 Sc11 2.044922 1_555
O36 P14 1.551739 1_555
O36 Sc0 2.146812 1_455
O37 P12 1.545852 1_555
O37 Sc0 2.123334 1_555
O38 P13 1.568156 1_555
O38 Sc0 2.199071 1_445
O39 P10 1.543324 1_555
O39 Sc1 2.130703 1_555
O40 P11 1.541288 1_555
O40 Sc1 2.183030 1_565
O41 P9 1.562943 1_555
O41 Sc1 2.194489 1_665
O42 P5 1.552757 1_555
O42 Sc2 2.182410 1_545
O43 Si1 1.641617 1_555
O43 Sc2 2.106083 1_445
O44 P6 1.553666 1_555
O44 Sc2 2.173118 1_555
O45 Si2 1.649556 1_555
O45 Sc3 2.069662 1_555
O46 P7 1.556029 1_555
O46 Sc3 2.173847 1_545
O47 P8 1.556623 1_555
O47 Sc3 2.183131 1_445
O48 Si0 1.647060 1_555
O48 Sc4 2.070762 1_555
O49 P3 1.551350 1_555
O49 Sc4 2.177067 1_555
O50 P4 1.548990 1_555
O50 Sc4 2.219274 1_555
O51 P1 1.561142 1_555
O51 Sc5 2.194689 1_555
O52 P2 1.545332 1_555
O52 Sc5 2.138829 1_555
O53 P0 1.540784 1_555
O53 Sc5 2.182323 1_555
O54 P9 1.544953 1_555
O54 Sc6 2.133227 1_555
O55 P10 1.563659 1_655
O55 Sc6 2.197480 1_555
O56 P11 1.543964 1_545
O56 Sc6 2.180617 1_555
O57 P12 1.559909 1_545
O57 Sc7 2.193619 1_555
O58 P13 1.543383 1_555
O58 Sc7 2.137512 1_555
O59 P14 1.539110 1_655
O59 Sc7 2.182836 1_555
O60 P8 1.555556 1_555
O60 Sc8 2.171680 1_555
O61 Si2 1.649420 1_455
O61 Sc8 2.069006 1_555
O62 P7 1.555581 1_565
O62 Sc8 2.183018 1_555
O63 Si1 1.649934 1_565
O63 Sc9 2.066104 1_555
O64 P6 1.557901 1_555
O64 Sc9 2.172261 1_555
O65 P5 1.557355 1_455
O65 Sc9 2.184646 1_555
O66 P0 1.551848 1_565
O66 Sc10 2.146801 1_555
O67 P1 1.546674 1_555
O67 Sc10 2.124398 1_555
O68 P2 1.568642 1_455
O68 Sc10 2.200210 1_555
O69 P3 1.555101 1_555
O69 Sc11 2.164506 1_555
O70 P4 1.556825 1_455
O70 Sc11 2.189239 1_555
O71 Si0 1.649826 1_565
O71 Sc11 2.066347 1_555
