# generated using pymatgen
data_Th2AuF11
_symmetry_space_group_name_H-M   'P 1'
_cell_length_a   8.62406053
_cell_length_b   8.62406053
_cell_length_c   8.62408955
_cell_angle_alpha   97.69547645
_cell_angle_beta   97.69516816
_cell_angle_gamma   137.07012459
_symmetry_Int_Tables_number   1
_chemical_formula_structural   Th2AuF11
_chemical_formula_sum   'Th4 Au2 F22'
_cell_volume   406.56723181
_cell_formula_units_Z   2
loop_
 _symmetry_equiv_pos_site_id
 _symmetry_equiv_pos_as_xyz
  1  'x, y, z'
loop_
 _atom_site_type_symbol
 _atom_site_label
 _atom_site_symmetry_multiplicity
 _atom_site_fract_x
 _atom_site_fract_y
 _atom_site_fract_z
 _atom_site_occupancy
  Th  Th0  1  0.35577255  0.14422608  0.49999856  1
  Th  Th1  1  0.85578003  0.35577710  0.21155588  1
  Th  Th2  1  0.14422727  0.64422454  0.78845246  1
  Th  Th3  1  0.64422269  0.85577603  0.49999860  1
  Au  Au0  1  0.49999925  0.50000499  0.00000438  1
  Au  Au1  1  0.00000095  0.00000391  0.00000488  1
  F  F0  1  0.63274783  0.39404100  0.02678917  1
  F  F1  1  0.36726923  0.60594323  0.97321214  1
  F  F2  1  0.60594674  0.63273371  0.23867838  1
  F  F3  1  0.39404428  0.36725233  0.76129871  1
  F  F4  1  0.13273074  0.10594271  0.23867128  1
  F  F5  1  0.89405251  0.13273342  0.02678627  1
  F  F6  1  0.50000005  0.00000257  0.50000264  1
  F  F7  1  0.00000022  0.50000265  0.50000284  1
  F  F8  1  0.00000290  0.00000401  0.50000670  1
  F  F9  1  0.49999705  0.00000353  0.00000083  1
  F  F10  1  -0.00000270  0.50000376  0.00000085  1
  F  F11  1  0.50000270  0.50000388  0.50000669  1
  F  F12  1  0.25000175  0.55713886  0.30713856  1
  F  F13  1  0.94286604  0.25000150  0.69286791  1
  F  F14  1  0.55713353  0.25000202  0.30713711  1
  F  F15  1  0.24999987  0.94287009  0.69287007  1
  F  F16  1  0.74999874  0.44287000  0.69287017  1
  F  F17  1  0.05713493  0.75000430  0.30713681  1
  F  F18  1  0.44286529  0.75000166  0.69286770  1
  F  F19  1  0.74999990  0.05713802  0.30713877  1
  F  F20  1  0.86725054  0.89404053  0.76129326  1
  F  F21  1  0.10595512  0.86725359  0.97320838  1
loop_
_geom_bond_atom_site_label_1
_geom_bond_atom_site_label_2
_geom_bond_distance
_geom_bond_site_symmetry_2
Au0 F1 1.927562 1_554
Au0 F2 1.927605 1_555
Au0 F3 1.927872 1_554
Au0 F0 1.927909 1_555
Au1 F4 1.927555 1_555
Au1 F5 1.927629 1_455
Au1 F21 1.927854 1_544
Au1 F20 1.927912 1_444
F0 Th1 2.568479 1_555
F1 Th2 2.568625 1_555
F2 Th3 2.568632 1_555
F3 Th0 2.568445 1_555
F4 Th0 2.568649 1_555
F5 Th1 2.568617 1_555
F6 Th3 2.315067 1_545
F6 Th0 2.315082 1_555
F7 Th1 2.315059 1_455
F7 Th2 2.315081 1_555
F8 Th0 2.317872 1_555
F8 Th3 2.317900 1_445
F9 Th2 2.317884 1_544
F9 Th1 2.317926 1_555
F10 Th2 2.317879 1_554
F10 Th1 2.317918 1_455
F11 Th0 2.317872 1_555
F11 Th3 2.317900 1_555
F12 Th1 2.339710 1_455
F12 Th3 2.339711 1_555
F13 Th2 2.339719 1_655
F13 Th3 2.339756 1_545
F14 Th0 2.339717 1_555
F14 Th1 2.339767 1_555
F15 Th0 2.339773 1_565
F15 Th2 2.339777 1_555
F16 Th0 2.339770 1_555
F16 Th2 2.339783 1_655
F17 Th0 2.339717 1_565
F17 Th1 2.339768 1_455
F18 Th2 2.339714 1_555
F18 Th3 2.339758 1_555
F19 Th1 2.339707 1_555
F19 Th3 2.339713 1_545
F20 Th3 2.568458 1_555
F21 Th2 2.568455 1_555
