# generated using pymatgen
data_Na2CaScP(SO6)2
_symmetry_space_group_name_H-M   'P 1'
_cell_length_a   9.13639444
_cell_length_b   9.11679748
_cell_length_c   23.31722141
_cell_angle_alpha   90.30213080
_cell_angle_beta   90.00000000
_cell_angle_gamma   120.07113185
_symmetry_Int_Tables_number   1
_chemical_formula_structural   Na2CaScP(SO6)2
_chemical_formula_sum   'Na12 Ca6 Sc6 P6 S12 O72'
_cell_volume   1680.75641657
_cell_formula_units_Z   6
loop_
 _symmetry_equiv_pos_site_id
 _symmetry_equiv_pos_as_xyz
  1  'x, y, z'
loop_
 _atom_site_type_symbol
 _atom_site_label
 _atom_site_symmetry_multiplicity
 _atom_site_fract_x
 _atom_site_fract_y
 _atom_site_fract_z
 _atom_site_occupancy
  Na  Na0  1  0.00008879  0.63824369  0.24367885  1
  Na  Na1  1  0.63815490  0.63824369  0.74367885  1
  Na  Na2  1  0.65864833  0.96118976  0.57874326  1
  Na  Na3  1  0.30254243  0.96118976  0.07874326  1
  Na  Na4  1  0.69304755  0.02624475  0.91109761  1
  Na  Na5  1  0.33319619  0.02624475  0.41109761  1
  Na  Na6  1  0.98199255  0.99146309  0.49806473  1
  Na  Na7  1  0.00947054  0.99146309  0.99806473  1
  Na  Na8  1  0.65820409  0.31285881  0.83160863  1
  Na  Na9  1  0.65465572  0.31285881  0.33160863  1
  Na  Na10  1  0.33269523  0.65573077  0.16539947  1
  Na  Na11  1  0.32303454  0.65573077  0.66539947  1
  Ca  Ca0  1  0.99221251  0.00625553  0.35111006  1
  Ca  Ca1  1  0.01404303  0.00625553  0.85111006  1
  Ca  Ca2  1  0.66446171  0.32664404  0.68399228  1
  Ca  Ca3  1  0.66218333  0.32664404  0.18399228  1
  Ca  Ca4  1  0.32438749  0.65899239  0.01703550  1
  Ca  Ca5  1  0.33460390  0.65899239  0.51703550  1
  Sc  Sc0  1  0.99143307  0.99175959  0.65099674  1
  Sc  Sc1  1  0.00032653  0.99175959  0.15099674  1
  Sc  Sc2  1  0.67465901  0.34755811  0.98418079  1
  Sc  Sc3  1  0.67290010  0.34755811  0.48418079  1
  Sc  Sc4  1  0.34896315  0.68513631  0.31698970  1
  Sc  Sc5  1  0.33617216  0.68513631  0.81698970  1
  P  P0  1  0.29354636  0.99157577  0.25274428  1
  P  P1  1  0.69802941  0.99157577  0.75274428  1
  P  P2  1  0.67499508  0.63680650  0.58723301  1
  P  P3  1  0.96181242  0.63680650  0.08723301  1
  P  P4  1  0.34570008  0.97470811  0.92125159  1
  P  P5  1  0.62900703  0.97470811  0.42125159  1
  S  S0  1  0.70047779  0.70743146  0.24982617  1
  S  S1  1  0.01021130  0.30435434  0.24925893  1
  S  S2  1  0.29414304  0.30435434  0.74925893  1
  S  S3  1  0.00695366  0.70743146  0.74982617  1
  S  S4  1  0.95777884  0.32472749  0.58352287  1
  S  S5  1  0.36377820  0.04029705  0.58121650  1
  S  S6  1  0.67651984  0.04029705  0.08121650  1
  S  S7  1  0.36694965  0.32472749  0.08352287  1
  S  S8  1  0.62503104  0.65971242  0.91530132  1
  S  S9  1  0.02966457  0.37297822  0.91595938  1
  S  S10  1  0.34331265  0.37297822  0.41595938  1
  S  S11  1  0.03468037  0.65971242  0.41530132  1
  O  O0  1  0.21109727  0.00553049  0.30776093  1
  O  O1  1  0.80129477  0.78563758  0.30129131  1
  O  O2  1  0.98697014  0.20775543  0.30116805  1
  O  O3  1  0.22078529  0.20775543  0.80116805  1
  O  O4  1  0.98434281  0.78563758  0.80129131  1
  O  O5  1  0.79443322  0.00553049  0.80776093  1
  O  O6  1  0.79235715  0.96795896  0.69890168  1
  O  O7  1  0.19124341  0.21275129  0.69764884  1
  O  O8  1  0.02902879  0.81417688  0.69822649  1
  O  O9  1  0.78514809  0.81417688  0.19822649  1
  O  O10  1  0.02150788  0.21275129  0.19764884  1
  O  O11  1  0.17560181  0.96795896  0.19890168  1
  O  O12  1  0.88231932  0.34548086  0.63582005  1
  O  O13  1  0.47136852  0.12005712  0.63125974  1
  O  O14  1  0.65834305  0.54540735  0.64340673  1
  O  O15  1  0.88706530  0.54540735  0.14340673  1
  O  O16  1  0.64868959  0.12005712  0.13125974  1
  O  O17  1  0.46316255  0.34548086  0.13582005  1
  O  O18  1  0.45438748  0.30238205  0.03239897  1
  O  O19  1  0.84670404  0.53586024  0.03470474  1
  O  O20  1  0.69443874  0.14189615  0.02826416  1
  O  O21  1  0.44745841  0.14189615  0.52826416  1
  O  O22  1  0.68915719  0.53586024  0.53470474  1
  O  O23  1  0.84799556  0.30238205  0.53239897  1
  O  O24  1  0.54229291  0.68122841  0.96567863  1
  O  O25  1  0.12564130  0.44523764  0.96815211  1
  O  O26  1  0.32887158  0.87920069  0.97663159  1
  O  O27  1  0.55032811  0.87920069  0.47663159  1
  O  O28  1  0.31959534  0.44523764  0.46815211  1
  O  O29  1  0.13893450  0.68122841  0.46567863  1
  O  O30  1  0.11534659  0.63854214  0.36200780  1
  O  O31  1  0.50672612  0.87291653  0.36859055  1
  O  O32  1  0.35708159  0.47567122  0.36461942  1
  O  O33  1  0.11858864  0.47567122  0.86461942  1
  O  O34  1  0.36618941  0.87291653  0.86859055  1
  O  O35  1  0.52319455  0.63854214  0.86200780  1
  O  O36  1  0.02078239  0.81534877  0.41113345  1
  O  O37  1  0.80601240  0.00007377  0.41406337  1
  O  O38  1  0.20037688  0.19500602  0.41105857  1
  O  O39  1  0.99462914  0.19500602  0.91105857  1
  O  O40  1  0.19406137  0.00007377  0.91406337  1
  O  O41  1  0.79456638  0.81534877  0.91113345  1
  O  O42  1  0.96313448  0.16147646  0.58689295  1
  O  O43  1  0.19509835  0.02760719  0.58741586  1
  O  O44  1  0.84069422  0.81936310  0.58850615  1
  O  O45  1  0.97866889  0.81936310  0.08850615  1
  O  O46  1  0.83250884  0.02760719  0.08741586  1
  O  O47  1  0.19834198  0.16147646  0.08689295  1
  O  O48  1  0.66934150  0.14158614  0.74655978  1
  O  O49  1  0.47084275  0.33607815  0.74471650  1
  O  O50  1  0.85317303  0.53859240  0.74390171  1
  O  O51  1  0.68542037  0.53859240  0.24390171  1
  O  O52  1  0.86523640  0.33607815  0.24471650  1
  O  O53  1  0.47224563  0.14158614  0.24655978  1
  O  O54  1  0.64312996  0.50602906  0.92047954  1
  O  O55  1  0.85784024  0.36013728  0.91976337  1
  O  O56  1  0.51854884  0.14851719  0.92269183  1
  O  O57  1  0.62996935  0.14851719  0.42269183  1
  O  O58  1  0.50229805  0.36013728  0.41976337  1
  O  O59  1  0.86290010  0.50602906  0.42047954  1
  O  O60  1  0.34120040  0.47078976  0.07753006  1
  O  O61  1  0.14438049  0.66959065  0.08113364  1
  O  O62  1  0.52454986  0.86826230  0.07646134  1
  O  O63  1  0.34371144  0.86826230  0.57646134  1
  O  O64  1  0.52520916  0.66959065  0.58113364  1
  O  O65  1  0.12958836  0.47078976  0.57753006  1
  O  O66  1  0.29649455  0.81795430  0.25500291  1
  O  O67  1  0.52895794  0.69007067  0.25426682  1
  O  O68  1  0.16853718  0.47585756  0.25267870  1
  O  O69  1  0.30731937  0.47585756  0.75267870  1
  O  O70  1  0.16111173  0.69007067  0.75426682  1
  O  O71  1  0.52145875  0.81795430  0.75500291  1
loop_
_geom_bond_atom_site_label_1
_geom_bond_atom_site_label_2
_geom_bond_distance
_geom_bond_site_symmetry_2
Na0 O66 2.374183 1_555
Na0 O52 2.388876 1_455
Na0 O15 2.520414 1_455
Na0 O51 2.544250 1_455
Na0 O68 2.625050 1_555
Na0 O11 2.810649 1_555
Na0 O30 2.952727 1_555
Na1 O71 2.374190 1_555
Na1 O49 2.388876 1_555
Na1 O14 2.520416 1_555
Na1 O50 2.544258 1_555
Na1 O69 2.625058 1_555
Na1 O6 2.810649 1_555
Na1 O35 2.952730 1_555
Na2 O64 2.304417 1_555
Na2 O42 2.452555 1_565
Na2 O27 2.539096 1_555
Na2 O63 2.560566 1_555
Na2 O44 2.578443 1_555
Na2 O23 2.911858 1_565
Na2 O13 2.998306 1_565
Na2 O6 3.044444 1_555
Na3 O61 2.304417 1_555
Na3 O47 2.452562 1_565
Na3 O26 2.539092 1_554
Na3 O62 2.560549 1_555
Na3 O45 2.578451 1_455
Na3 O18 2.911858 1_565
Na3 O16 2.998306 1_565
Na3 O11 3.044448 1_555
Na4 O56 2.373883 1_555
Na4 O39 2.389733 1_555
Na4 O41 2.518775 1_545
Na4 O5 2.621070 1_555
Na4 O55 2.640900 1_555
Na4 O34 2.767016 1_545
Na4 O20 2.920936 1_556
Na5 O57 2.373900 1_555
Na5 O38 2.389726 1_555
Na5 O36 2.518768 1_545
Na5 O0 2.621066 1_555
Na5 O58 2.640900 1_555
Na5 O31 2.767016 1_545
Na5 O21 2.920939 1_555
Na6 O37 2.560428 1_565
Na6 O44 2.565264 1_555
Na6 O42 2.637398 1_565
Na6 O36 2.710753 1_655
Na6 O43 2.754978 1_665
Na6 O38 2.805266 1_665
Na7 O40 2.560428 1_565
Na7 O45 2.565264 1_456
Na7 O47 2.637398 1_566
Na7 O41 2.710753 1_455
Na7 O46 2.754978 1_466
Na7 O39 2.805266 1_465
Na8 O56 2.549734 1_555
Na8 O48 2.551034 1_555
Na8 O55 2.634495 1_555
Na8 O49 2.729061 1_555
Na8 O54 2.760272 1_555
Na8 O50 2.821575 1_555
Na9 O57 2.549734 1_555
Na9 O53 2.551034 1_555
Na9 O58 2.634495 1_555
Na9 O52 2.729061 1_555
Na9 O59 2.760272 1_555
Na9 O51 2.821575 1_555
Na10 O68 2.578893 1_555
Na10 O67 2.652862 1_555
Na10 O61 2.656548 1_555
Na10 O66 2.668243 1_555
Na10 O60 2.672379 1_555
Na10 O62 2.786784 1_555
Na11 O69 2.578893 1_555
Na11 O70 2.652862 1_555
Na11 O64 2.656548 1_555
Na11 O71 2.668243 1_555
Na11 O65 2.672379 1_555
Na11 O63 2.786784 1_555
Ca0 O2 2.200865 1_555
Ca0 O1 2.212889 1_545
Ca0 O37 2.226378 1_555
Ca0 O0 2.243695 1_655
Ca0 O38 2.286277 1_655
Ca0 O36 2.353109 1_645
Ca1 O3 2.200865 1_555
Ca1 O4 2.212889 1_445
Ca1 O40 2.226378 1_555
Ca1 O5 2.243696 1_455
Ca1 O39 2.286277 1_455
Ca1 O41 2.353109 1_445
Ca2 O13 2.194807 1_555
Ca2 O12 2.216409 1_555
Ca2 O14 2.237865 1_555
Ca2 O48 2.253473 1_555
Ca2 O50 2.300137 1_555
Ca2 O49 2.300588 1_555
Ca3 O16 2.194807 1_555
Ca3 O17 2.216409 1_555
Ca3 O15 2.237865 1_555
Ca3 O53 2.253473 1_555
Ca3 O51 2.300137 1_555
Ca3 O52 2.300588 1_555
Ca4 O25 2.196461 1_554
Ca4 O26 2.203906 1_554
Ca4 O24 2.244274 1_554
Ca4 O61 2.259562 1_555
Ca4 O60 2.290618 1_555
Ca4 O62 2.319469 1_555
Ca5 O28 2.196461 1_555
Ca5 O27 2.203906 1_555
Ca5 O29 2.244274 1_555
Ca5 O64 2.259562 1_555
Ca5 O65 2.290618 1_555
Ca5 O63 2.319469 1_555
O0 P0 1.524340 1_545
O1 S0 1.459339 1_555
O2 S1 1.452419 1_655
O3 S2 1.452419 1_555
O4 S3 1.459339 1_655
O5 P1 1.524340 1_545
O6 P1 1.596361 1_555
O6 Sc0 2.051830 1_555
O7 S2 1.494004 1_555
O7 Sc0 2.205917 1_445
O8 S3 1.500332 1_555
O8 Sc0 2.127907 1_455
O9 S0 1.500332 1_555
O9 Sc1 2.127908 1_655
O10 S1 1.494004 1_555
O10 Sc1 2.205917 1_545
O11 P0 1.596361 1_555
O11 Sc1 2.051830 1_555
O12 S4 1.458217 1_555
O13 S5 1.459909 1_555
O14 P2 1.522354 1_555
O15 P3 1.522354 1_555
O16 S6 1.459909 1_555
O17 S7 1.458217 1_555
O18 S7 1.503744 1_555
O18 Sc2 2.158253 1_554
O19 P3 1.572044 1_555
O19 Sc2 2.019943 1_554
O20 S6 1.506432 1_555
O20 Sc2 2.228155 1_554
O21 S5 1.506432 1_555
O21 Sc3 2.228155 1_555
O22 P2 1.572044 1_555
O22 Sc3 2.019943 1_555
O23 S4 1.503744 1_555
O23 Sc3 2.158253 1_555
O24 S8 1.461471 1_555
O25 S9 1.447965 1_555
O26 P4 1.525440 1_555
O27 P5 1.525440 1_555
O28 S10 1.447965 1_555
O29 S11 1.461471 1_555
O30 S11 1.504870 1_555
O30 Sc4 2.221285 1_555
O31 P5 1.601902 1_555
O31 Sc4 1.990334 1_555
O32 S10 1.489700 1_555
O32 Sc4 2.247221 1_555
O33 S9 1.489700 1_555
O33 Sc5 2.247221 1_555
O34 P4 1.601902 1_555
O34 Sc5 1.990334 1_555
O35 S8 1.504870 1_555
O35 Sc5 2.221285 1_555
O36 S11 1.490258 1_555
O37 P5 1.523975 1_545
O38 S10 1.491876 1_555
O39 S9 1.491879 1_655
O40 P4 1.523966 1_545
O41 S8 1.490264 1_555
O42 S4 1.515883 1_555
O42 Sc0 2.262829 1_545
O43 S5 1.493602 1_555
O43 Sc0 2.272186 1_445
O44 P2 1.592858 1_555
O44 Sc0 2.072860 1_555
O45 P3 1.592861 1_555
O45 Sc1 2.072860 1_655
O46 S6 1.493593 1_555
O46 Sc1 2.272186 1_645
O47 S7 1.515888 1_555
O47 Sc1 2.262829 1_545
O48 P1 1.523539 1_545
O49 S2 1.494507 1_555
O50 S3 1.480844 1_655
O51 S0 1.480848 1_555
O52 S1 1.494498 1_655
O53 P0 1.523544 1_545
O54 S8 1.496319 1_555
O54 Sc2 2.194585 1_555
O55 S9 1.517218 1_655
O55 Sc2 2.209010 1_555
O56 P4 1.580383 1_545
O56 Sc2 2.182109 1_555
O57 P5 1.580374 1_545
O57 Sc3 2.182109 1_555
O58 S10 1.517236 1_555
O58 Sc3 2.209009 1_555
O59 S11 1.496308 1_655
O59 Sc3 2.194585 1_555
O60 S7 1.471051 1_555
O61 P3 1.546823 1_455
O62 S6 1.488565 1_565
O63 S5 1.488558 1_565
O64 P2 1.546840 1_555
O65 S4 1.471039 1_455
O66 P0 1.597682 1_555
O66 Sc4 2.094098 1_555
O67 S0 1.497699 1_555
O67 Sc4 2.184478 1_555
O68 S1 1.508513 1_555
O68 Sc4 2.328996 1_555
O69 S2 1.508517 1_555
O69 Sc5 2.328996 1_555
O70 S3 1.497690 1_555
O70 Sc5 2.184478 1_555
O71 P1 1.597687 1_555
O71 Sc5 2.094098 1_555
