# generated using pymatgen
data_NaZr2CoF11
_symmetry_space_group_name_H-M   'P 1'
_cell_length_a   5.75203704
_cell_length_b   5.75203704
_cell_length_c   7.90405849
_cell_angle_alpha   69.19540685
_cell_angle_beta   69.19540685
_cell_angle_gamma   72.68120569
_symmetry_Int_Tables_number   1
_chemical_formula_structural   NaZr2CoF11
_chemical_formula_sum   'Na1 Zr2 Co1 F11'
_cell_volume   224.07610685
_cell_formula_units_Z   1
loop_
 _symmetry_equiv_pos_site_id
 _symmetry_equiv_pos_as_xyz
  1  'x, y, z'
loop_
 _atom_site_type_symbol
 _atom_site_label
 _atom_site_symmetry_multiplicity
 _atom_site_fract_x
 _atom_site_fract_y
 _atom_site_fract_z
 _atom_site_occupancy
  Na  Na0  1  0.00000000  0.00000000  0.00000000  1
  Zr  Zr0  1  0.49404400  0.49404400  0.23633200  1
  Zr  Zr1  1  0.50595600  0.50595600  0.76366800  1
  Co  Co0  1  0.00000000  0.00000000  0.50000000  1
  F  F0  1  0.81024100  0.21976200  0.68814800  1
  F  F1  1  0.18975900  0.78023800  0.31185200  1
  F  F2  1  0.73239700  0.73239700  0.11002000  1
  F  F3  1  0.67135800  0.32864200  0.00000000  1
  F  F4  1  0.24686900  0.24686900  0.35162300  1
  F  F5  1  0.32864200  0.67135800  0.00000000  1
  F  F6  1  0.78023800  0.18975900  0.31185200  1
  F  F7  1  0.21976200  0.81024100  0.68814800  1
  F  F8  1  0.26760300  0.26760300  0.88998000  1
  F  F9  1  0.75313100  0.75313100  0.64837700  1
  F  F10  1  0.50000000  0.50000000  0.50000000  1
loop_
_geom_bond_atom_site_label_1
_geom_bond_atom_site_label_2
_geom_bond_distance
_geom_bond_site_symmetry_2
Co0 F4 2.059787 1_555
Co0 F9 2.059787 1_445
Co0 F1 2.088464 1_545
Co0 F6 2.088464 1_455
Co0 F0 2.088464 1_455
Co0 F7 2.088464 1_545
F0 Zr1 2.090482 1_555
F0 Na0 2.782326 1_656
F1 Zr0 2.090482 1_555
F1 Na0 2.782326 1_565
F2 Zr0 1.982565 1_555
F2 Na0 2.236917 1_665
F3 Zr1 2.183141 1_554
F3 Zr0 2.183141 1_555
F3 Na0 2.240396 1_655
F4 Zr0 2.058156 1_555
F5 Zr1 2.183141 1_554
F5 Zr0 2.183141 1_555
F5 Na0 2.240396 1_565
F6 Zr0 2.090482 1_555
F6 Na0 2.782326 1_655
F7 Zr1 2.090482 1_555
F7 Na0 2.782326 1_566
F8 Zr1 1.982565 1_555
F8 Na0 2.236917 1_556
F9 Zr1 2.058156 1_555
F10 Zr1 2.108966 1_555
F10 Zr0 2.108966 1_555
