# generated using pymatgen
data_Na2ZnGe3P4(SO12)2
_symmetry_space_group_name_H-M   'P 1'
_cell_length_a   8.43884668
_cell_length_b   8.44828167
_cell_length_c   21.95377679
_cell_angle_alpha   89.83410630
_cell_angle_beta   89.81707371
_cell_angle_gamma   119.90971225
_symmetry_Int_Tables_number   1
_chemical_formula_structural   Na2ZnGe3P4(SO12)2
_chemical_formula_sum   'Na6 Zn3 Ge9 P12 S6 O72'
_cell_volume   1356.68095072
_cell_formula_units_Z   3
loop_
 _symmetry_equiv_pos_site_id
 _symmetry_equiv_pos_as_xyz
  1  'x, y, z'
loop_
 _atom_site_type_symbol
 _atom_site_label
 _atom_site_symmetry_multiplicity
 _atom_site_fract_x
 _atom_site_fract_y
 _atom_site_fract_z
 _atom_site_occupancy
  Na  Na0  1  0.00014876  0.99487068  0.50449448  1
  Na  Na1  1  0.00531610  0.99921675  0.00187553  1
  Na  Na2  1  0.66400068  0.32961452  0.83233978  1
  Na  Na3  1  0.66750340  0.33329928  0.33707179  1
  Na  Na4  1  0.32996649  0.66277710  0.16895455  1
  Na  Na5  1  0.34116175  0.66864771  0.66566133  1
  Zn  Zn0  1  0.99862741  0.99938617  0.64671869  1
  Zn  Zn1  1  0.00739328  0.99943265  0.14375157  1
  Zn  Zn2  1  0.33375411  0.66858205  0.32239719  1
  Ge  Ge0  1  0.00200974  0.00099692  0.35903771  1
  Ge  Ge1  1  0.00169474  0.00909844  0.85242398  1
  Ge  Ge2  1  0.64523253  0.31774704  0.68464463  1
  Ge  Ge3  1  0.66998331  0.34387934  0.18408142  1
  Ge  Ge4  1  0.66467129  0.33847673  0.97707887  1
  Ge  Ge5  1  0.66127785  0.33550767  0.47992638  1
  Ge  Ge6  1  0.32611295  0.65811127  0.01792618  1
  Ge  Ge7  1  0.34248299  0.67288950  0.51711535  1
  Ge  Ge8  1  0.33971040  0.66768842  0.81557685  1
  P  P0  1  0.28876035  0.29301755  0.75049388  1
  P  P1  1  0.70853373  0.00055145  0.75005572  1
  P  P2  1  0.37878958  0.04079120  0.58093284  1
  P  P3  1  0.66227535  0.61648101  0.58220410  1
  P  P4  1  0.95436990  0.61627916  0.08046289  1
  P  P5  1  0.38397762  0.33940289  0.08082523  1
  P  P6  1  0.62319763  0.67067972  0.91696719  1
  P  P7  1  0.04479847  0.37868949  0.91639902  1
  P  P8  1  0.33180664  0.95264658  0.91702816  1
  P  P9  1  0.62579942  0.96327599  0.41627457  1
  P  P10  1  0.33500979  0.37795703  0.41665851  1
  P  P11  1  0.04083946  0.66260363  0.41730299  1
  S  S0  1  0.29541096  0.00290295  0.24909131  1
  S  S1  1  0.71017001  0.70958333  0.24906097  1
  S  S2  1  0.99655000  0.28978934  0.24837097  1
  S  S3  1  0.00074043  0.70657631  0.75150232  1
  S  S4  1  0.95382592  0.33910679  0.58224406  1
  S  S5  1  0.66087981  0.04542621  0.08153170  1
  O  O0  1  0.21547035  0.03947966  0.30556174  1
  O  O1  1  0.82492948  0.78781092  0.30529390  1
  O  O2  1  0.96104672  0.17488628  0.30523602  1
  O  O3  1  0.21037961  0.17053726  0.80926227  1
  O  O4  1  0.96380737  0.78621088  0.80767431  1
  O  O5  1  0.82732786  0.03854029  0.80912209  1
  O  O6  1  0.77958672  0.95793516  0.69364140  1
  O  O7  1  0.17913701  0.21975355  0.69368161  1
  O  O8  1  0.03827568  0.81452062  0.69654527  1
  O  O9  1  0.79280600  0.81452066  0.19372531  1
  O  O10  1  0.01901064  0.20652477  0.19344924  1
  O  O11  1  0.18956653  0.97828461  0.19425071  1
  O  O12  1  0.87397570  0.37230462  0.63912021  1
  O  O13  1  0.49808441  0.11577361  0.64024462  1
  O  O14  1  0.62546463  0.49622263  0.64150631  1
  O  O15  1  0.87678710  0.49586132  0.13984850  1
  O  O16  1  0.62519407  0.12347705  0.13829042  1
  O  O17  1  0.50233348  0.37667668  0.13993768  1
  O  O18  1  0.47040066  0.30322313  0.02422586  1
  O  O19  1  0.83601985  0.52531523  0.02396157  1
  O  O20  1  0.69236423  0.15887713  0.02606715  1
  O  O21  1  0.47238396  0.16158988  0.52510169  1
  O  O22  1  0.69489452  0.52941339  0.52557297  1
  O  O23  1  0.84194327  0.31071523  0.52718149  1
  O  O24  1  0.54140924  0.70893486  0.97460047  1
  O  O25  1  0.16332205  0.45527951  0.97423261  1
  O  O26  1  0.29407381  0.83331819  0.97515960  1
  O  O27  1  0.54720218  0.83836202  0.47369916  1
  O  O28  1  0.29262180  0.45890783  0.47414608  1
  O  O29  1  0.16521132  0.70486237  0.47436839  1
  O  O30  1  0.10526399  0.62338301  0.35870177  1
  O  O31  1  0.51876569  0.89770868  0.35868762  1
  O  O32  1  0.37515005  0.48313238  0.35837787  1
  O  O33  1  0.12734672  0.50115520  0.86011209  1
  O  O34  1  0.37078344  0.87110059  0.86033609  1
  O  O35  1  0.50221500  0.62828831  0.86051269  1
  O  O36  1  0.02081908  0.83815288  0.41130996  1
  O  O37  1  0.81936991  0.98017549  0.41021879  1
  O  O38  1  0.16039859  0.18288994  0.41127804  1
  O  O39  1  0.02624418  0.18794183  0.90967002  1
  O  O40  1  0.15960922  0.97146283  0.90917631  1
  O  O41  1  0.81471279  0.84042545  0.90872808  1
  O  O42  1  0.97283319  0.17792194  0.58626311  1
  O  O43  1  0.19425821  0.02586740  0.58626427  1
  O  O44  1  0.82778096  0.80385656  0.58663289  1
  O  O45  1  0.97000873  0.80128950  0.08511366  1
  O  O46  1  0.82189300  0.02633552  0.08672302  1
  O  O47  1  0.19520208  0.17520843  0.08535916  1
  O  O48  1  0.69160498  0.17730235  0.74388285  1
  O  O49  1  0.48510701  0.31521263  0.74554916  1
  O  O50  1  0.83642899  0.52173440  0.74639984  1
  O  O51  1  0.69920033  0.52179830  0.24515425  1
  O  O52  1  0.81958915  0.30008632  0.24424938  1
  O  O53  1  0.48204235  0.17796475  0.24395923  1
  O  O54  1  0.64161642  0.49728940  0.92310947  1
  O  O55  1  0.85207911  0.35687074  0.92392828  1
  O  O56  1  0.50546319  0.14397510  0.92427485  1
  O  O57  1  0.65498325  0.15631937  0.42772073  1
  O  O58  1  0.50134474  0.35021616  0.42602577  1
  O  O59  1  0.84806719  0.49617565  0.42781246  1
  O  O60  1  0.37687408  0.52023937  0.07478089  1
  O  O61  1  0.14622088  0.63097779  0.07518262  1
  O  O62  1  0.49072641  0.86413394  0.07663660  1
  O  O63  1  0.36653526  0.85063525  0.57476393  1
  O  O64  1  0.48065042  0.62322088  0.57557558  1
  O  O65  1  0.13565641  0.50951846  0.57698680  1
  O  O66  1  0.32060915  0.84597384  0.25538599  1
  O  O67  1  0.52712364  0.68231892  0.25495930  1
  O  O68  1  0.15291683  0.47192497  0.25432677  1
  O  O69  1  0.31067936  0.48545530  0.76125179  1
  O  O70  1  0.16686360  0.68765268  0.76053147  1
  O  O71  1  0.51314930  0.83260532  0.76089520  1
loop_
_geom_bond_atom_site_label_1
_geom_bond_atom_site_label_2
_geom_bond_distance
_geom_bond_site_symmetry_2
Na0 O43 2.359685 1_565
Na0 O44 2.365834 1_455
Na0 O42 2.456854 1_465
Na0 O36 2.492432 1_555
Na0 O38 2.522137 1_565
Na0 O37 2.541499 1_455
Na1 O45 2.388760 1_455
Na1 O47 2.407490 1_565
Na1 O40 2.486415 1_554
Na1 O46 2.501176 1_465
Na1 O39 2.523717 1_564
Na1 O41 2.540395 1_454
Na2 O49 2.400182 1_555
Na2 O48 2.406615 1_555
Na2 O50 2.433271 1_555
Na2 O56 2.489001 1_555
Na2 O55 2.504729 1_555
Na2 O54 2.508812 1_555
Na3 O58 2.446275 1_555
Na3 O57 2.455818 1_555
Na3 O59 2.475477 1_555
Na3 O52 2.494856 1_555
Na3 O51 2.496556 1_555
Na3 O53 2.517532 1_555
Na4 O68 2.430434 1_555
Na4 O67 2.471514 1_555
Na4 O66 2.477908 1_555
Na4 O61 2.514502 1_555
Na4 O60 2.523049 1_555
Na4 O62 2.550072 1_555
Na5 O64 2.425767 1_555
Na5 O63 2.458267 1_555
Na5 O65 2.513227 1_555
Na5 O71 2.535274 1_555
Na5 O69 2.538926 1_555
Na5 O70 2.597119 1_555
Ge0 O37 1.840215 1_445
Ge0 O38 1.853350 1_555
Ge0 O36 1.855966 1_545
Ge0 O0 2.032022 1_555
Ge0 O2 2.042490 1_455
Ge0 O1 2.051465 1_445
Ge1 O3 1.856319 1_555
Ge1 O5 1.871718 1_455
Ge1 O39 1.898883 1_555
Ge1 O41 1.945071 1_445
Ge1 O40 1.964730 1_545
Ge1 O4 2.006352 1_445
Ge2 O13 1.818778 1_555
Ge2 O14 1.855212 1_555
Ge2 O49 1.890407 1_555
Ge2 O48 1.926041 1_555
Ge2 O12 2.008781 1_555
Ge2 O50 2.160051 1_555
Ge3 O15 1.839721 1_555
Ge3 O17 1.848157 1_555
Ge3 O51 1.939590 1_555
Ge3 O16 1.982922 1_555
Ge3 O52 1.987270 1_555
Ge3 O53 1.991777 1_555
Ge4 O18 1.829803 1_556
Ge4 O19 1.839698 1_556
Ge4 O54 1.869335 1_555
Ge4 O55 1.904977 1_555
Ge4 O56 1.915297 1_555
Ge4 O20 1.964502 1_556
Ge5 O22 1.821038 1_555
Ge5 O21 1.824601 1_555
Ge5 O58 1.847660 1_555
Ge5 O59 1.865963 1_555
Ge5 O57 1.881044 1_555
Ge5 O23 1.942128 1_555
Ge6 O25 1.847710 1_554
Ge6 O26 1.881032 1_554
Ge6 O61 1.891100 1_555
Ge6 O60 1.894924 1_555
Ge6 O24 1.897011 1_554
Ge6 O62 2.057588 1_555
Ge7 O27 1.849492 1_555
Ge7 O28 1.894418 1_555
Ge7 O29 1.897910 1_555
Ge7 O63 1.899099 1_555
Ge7 O64 1.917578 1_555
Ge7 O65 2.061895 1_555
Ge8 O35 1.851100 1_555
Ge8 O71 1.862782 1_555
Ge8 O69 1.867886 1_555
Ge8 O34 1.884024 1_555
Ge8 O33 1.900888 1_555
Ge8 O70 1.967695 1_555
O0 S0 1.514036 1_555
O1 S1 1.507572 1_555
O2 S2 1.513653 1_555
O3 P0 1.573867 1_555
O4 S3 1.510623 1_655
O5 P1 1.574592 1_555
O6 P1 1.495387 1_565
O6 Zn0 1.985141 1_555
O7 P0 1.495103 1_555
O7 Zn0 2.010564 1_445
O8 S3 1.445949 1_555
O8 Zn0 2.064293 1_455
O9 S1 1.455977 1_555
O9 Zn1 2.019785 1_655
O10 S2 1.456360 1_455
O10 Zn1 2.025263 1_545
O11 S0 1.453836 1_565
O11 Zn1 1.976882 1_555
O12 S4 1.508964 1_555
O13 P2 1.577158 1_555
O14 P3 1.580723 1_555
O15 P4 1.576694 1_555
O16 S5 1.509494 1_555
O17 P5 1.574120 1_555
O18 P5 1.545323 1_555
O19 P4 1.541005 1_555
O20 S5 1.486321 1_555
O21 P2 1.533104 1_555
O22 P3 1.538697 1_555
O23 S4 1.481001 1_555
O24 P6 1.549509 1_555
O25 P7 1.548736 1_555
O26 P8 1.554420 1_555
O27 P9 1.559438 1_555
O28 P10 1.560309 1_555
O29 P11 1.560717 1_555
O30 P11 1.496044 1_555
O30 Zn2 1.937300 1_555
O31 P9 1.494455 1_555
O31 Zn2 1.955071 1_555
O32 P10 1.493928 1_555
O32 Zn2 1.934181 1_555
O33 P7 1.533308 1_555
O34 P8 1.536287 1_555
O35 P6 1.533852 1_555
O36 P11 1.579336 1_555
O37 P9 1.572368 1_555
O38 P10 1.575306 1_555
O39 P7 1.546975 1_555
O40 P8 1.548687 1_555
O41 P6 1.544837 1_555
O42 S4 1.450881 1_555
O42 Zn0 2.098005 1_545
O43 P2 1.502504 1_555
O43 Zn0 2.037877 1_445
O44 P3 1.504296 1_555
O44 Zn0 2.048678 1_555
O45 P4 1.505380 1_555
O45 Zn1 2.011793 1_655
O46 S5 1.450750 1_555
O46 Zn1 2.106023 1_645
O47 P5 1.505434 1_555
O47 Zn1 1.997330 1_545
O48 P1 1.574877 1_555
O49 P0 1.575208 1_555
O50 S3 1.488757 1_655
O51 S1 1.545044 1_555
O52 S2 1.541495 1_555
O53 S0 1.534758 1_555
O54 P6 1.553765 1_555
O55 P7 1.550932 1_655
O56 P8 1.557660 1_545
O57 P9 1.544603 1_545
O58 P10 1.548275 1_555
O59 P11 1.546360 1_655
O60 P5 1.563795 1_555
O61 P4 1.564687 1_455
O62 S5 1.492611 1_565
O63 P2 1.563816 1_565
O64 P3 1.569080 1_555
O65 S4 1.495109 1_455
O66 S0 1.449926 1_565
O66 Zn2 2.139303 1_555
O67 S1 1.449014 1_555
O67 Zn2 2.159384 1_555
O68 S2 1.450307 1_455
O68 Zn2 2.196096 1_555
O69 P0 1.560679 1_555
O70 S3 1.501747 1_555
O71 P1 1.565528 1_565
