# generated using pymatgen
data_Sr2MgVO4
_symmetry_space_group_name_H-M   'P 1'
_cell_length_a   3.97388034
_cell_length_b   3.97387925
_cell_length_c   9.42606210
_cell_angle_alpha   102.16877757
_cell_angle_beta   102.16876889
_cell_angle_gamma   89.99999420
_symmetry_Int_Tables_number   1
_chemical_formula_structural   Sr2MgVO4
_chemical_formula_sum   'Sr2 Mg1 V1 O4'
_cell_volume   142.08582005
_cell_formula_units_Z   1
loop_
 _symmetry_equiv_pos_site_id
 _symmetry_equiv_pos_as_xyz
  1  'x, y, z'
loop_
 _atom_site_type_symbol
 _atom_site_label
 _atom_site_symmetry_multiplicity
 _atom_site_fract_x
 _atom_site_fract_y
 _atom_site_fract_z
 _atom_site_occupancy
  Sr  Sr0  1  0.68395700  0.68395800  0.36791500  1
  Sr  Sr1  1  0.31604400  0.31604200  0.63208400  1
  Mg  Mg0  1  0.50000000  0.50000000  0.00000000  1
  V  V0  1  0.00000000  0.00000000  0.00000000  1
  O  O0  1  0.81346800  0.81347000  0.62693700  1
  O  O1  1  0.18653100  0.18653100  0.37306300  1
  O  O2  1  0.50000100  0.00000000  0.00000000  1
  O  O3  1  0.00000100  0.50000000  0.00000000  1
loop_
_geom_bond_atom_site_label_1
_geom_bond_atom_site_label_2
_geom_bond_distance
_geom_bond_site_symmetry_2
Mg0 O3 1.986936 1_555
Mg0 O2 1.986940 1_555
Mg0 O2 1.986940 1_565
Mg0 O3 1.986944 1_655
O0 Sr0 2.330547 1_555
O0 Sr1 2.810328 1_565
O0 Sr1 2.810336 1_555
O0 Sr1 2.810342 1_665
O0 Sr1 2.810350 1_655
O1 Sr1 2.330538 1_555
O1 Sr0 2.810336 1_545
O1 Sr0 2.810336 1_445
O1 Sr0 2.810342 1_455
O1 Sr0 2.810342 1_555
O2 V0 1.986936 1_655
O2 V0 1.986944 1_555
O3 V0 1.986940 1_565
O3 V0 1.986940 1_555
