# generated using pymatgen
data_NaYZrSi(SO6)2
_symmetry_space_group_name_H-M   'P 1'
_cell_length_a   9.10607858
_cell_length_b   9.14300755
_cell_length_c   23.95179905
_cell_angle_alpha   90.29917957
_cell_angle_beta   90.00000000
_cell_angle_gamma   119.86647933
_symmetry_Int_Tables_number   1
_chemical_formula_structural   NaYZrSi(SO6)2
_chemical_formula_sum   'Na6 Y6 Zr6 Si6 S12 O72'
_cell_volume   1729.27521786
_cell_formula_units_Z   6
loop_
 _symmetry_equiv_pos_site_id
 _symmetry_equiv_pos_as_xyz
  1  'x, y, z'
loop_
 _atom_site_type_symbol
 _atom_site_label
 _atom_site_symmetry_multiplicity
 _atom_site_fract_x
 _atom_site_fract_y
 _atom_site_fract_z
 _atom_site_occupancy
  Na  Na0  1  0.02393766  0.01106518  0.50228323  1
  Na  Na1  1  0.98712753  0.01106518  0.00228323  1
  Na  Na2  1  0.68929818  0.33211213  0.83504380  1
  Na  Na3  1  0.64281495  0.33211213  0.33504380  1
  Na  Na4  1  0.34074529  0.69277406  0.16826541  1
  Na  Na5  1  0.35202777  0.69277406  0.66826541  1
  Y  Y0  1  0.99827896  0.99746752  0.64788266  1
  Y  Y1  1  0.99918856  0.99746752  0.14788266  1
  Y  Y2  1  0.67597387  0.32541889  0.98079633  1
  Y  Y3  1  0.64944602  0.32541889  0.48079633  1
  Y  Y4  1  0.33691619  0.66795763  0.31419708  1
  Y  Y5  1  0.33104044  0.66795763  0.81419708  1
  Zr  Zr0  1  0.02264804  0.01341962  0.35254835  1
  Zr  Zr1  1  0.99077158  0.01341962  0.85254835  1
  Zr  Zr2  1  0.65728613  0.30912049  0.68542981  1
  Zr  Zr3  1  0.65183536  0.30912049  0.18542981  1
  Zr  Zr4  1  0.33117968  0.66447722  0.01871302  1
  Zr  Zr5  1  0.33329653  0.66447722  0.51871302  1
  Si  Si0  1  0.29618127  0.99901159  0.24821998  1
  Si  Si1  1  0.70283032  0.99901159  0.74821998  1
  Si  Si2  1  0.36785372  0.03016183  0.58190502  1
  Si  Si3  1  0.66230912  0.03016183  0.08190502  1
  Si  Si4  1  0.04210311  0.37454504  0.91551847  1
  Si  Si5  1  0.33244093  0.37454504  0.41551847  1
  S  S0  1  0.71171490  0.70458225  0.25030425  1
  S  S1  1  0.99435635  0.29075652  0.25047210  1
  S  S2  1  0.29640018  0.29075652  0.75047210  1
  S  S3  1  0.99286735  0.70458225  0.75030425  1
  S  S4  1  0.96179749  0.33898900  0.58293200  1
  S  S5  1  0.66188550  0.62272665  0.58367874  1
  S  S6  1  0.96084215  0.62272665  0.08367874  1
  S  S7  1  0.37719251  0.33898900  0.08293200  1
  S  S8  1  0.62830831  0.67071369  0.91694989  1
  S  S9  1  0.32571901  0.95665415  0.91719175  1
  S  S10  1  0.63093414  0.95665415  0.41719175  1
  S  S11  1  0.04240438  0.67071369  0.41694989  1
  O  O0  1  0.20065049  0.02549198  0.30490944  1
  O  O1  1  0.81504292  0.79062853  0.30103770  1
  O  O2  1  0.96902138  0.18360153  0.30072710  1
  O  O3  1  0.21458015  0.18360153  0.80072710  1
  O  O4  1  0.97558560  0.79062853  0.80103770  1
  O  O5  1  0.82484149  0.02549198  0.80490944  1
  O  O6  1  0.79473378  0.98171204  0.69403180  1
  O  O7  1  0.19599622  0.21150916  0.69992867  1
  O  O8  1  0.01916178  0.80661983  0.70010052  1
  O  O9  1  0.78745805  0.80661983  0.20010052  1
  O  O10  1  0.01551294  0.21150916  0.19992867  1
  O  O11  1  0.18697825  0.98171204  0.19403180  1
  O  O12  1  0.87839571  0.36283781  0.63370762  1
  O  O13  1  0.49104666  0.12902638  0.63855330  1
  O  O14  1  0.64092395  0.51968016  0.63392341  1
  O  O15  1  0.87875721  0.51968016  0.13392341  1
  O  O16  1  0.63798072  0.12902638  0.13855330  1
  O  O17  1  0.48444310  0.36283781  0.13370762  1
  O  O18  1  0.45637534  0.31893500  0.03254080  1
  O  O19  1  0.85915689  0.54694133  0.03305079  1
  O  O20  1  0.68408474  0.14455532  0.02878768  1
  O  O21  1  0.46047159  0.14455532  0.52878768  1
  O  O22  1  0.68778544  0.54694133  0.53305079  1
  O  O23  1  0.86256066  0.31893500  0.53254080  1
  O  O24  1  0.54692380  0.69850171  0.96754269  1
  O  O25  1  0.16153288  0.47202467  0.97170390  1
  O  O26  1  0.30854773  0.85148602  0.96749303  1
  O  O27  1  0.54293730  0.85148602  0.46749303  1
  O  O28  1  0.31049080  0.47202467  0.47170390  1
  O  O29  1  0.15157691  0.69850171  0.46754269  1
  O  O30  1  0.12164560  0.65074249  0.36652358  1
  O  O31  1  0.52677784  0.88279231  0.36691914  1
  O  O32  1  0.34714643  0.48027689  0.36090260  1
  O  O33  1  0.13312946  0.48027689  0.86090260  1
  O  O34  1  0.35601346  0.88279231  0.86691914  1
  O  O35  1  0.52909589  0.65074249  0.86652358  1
  O  O36  1  0.02368371  0.82485066  0.41169018  1
  O  O37  1  0.79707738  0.96314617  0.41156014  1
  O  O38  1  0.15469636  0.18365349  0.41055885  1
  O  O39  1  0.02895714  0.18365349  0.91055885  1
  O  O40  1  0.16606879  0.96314617  0.91156014  1
  O  O41  1  0.80116694  0.82485066  0.91169018  1
  O  O42  1  0.98362861  0.19131936  0.58895115  1
  O  O43  1  0.18109931  0.00708629  0.58779962  1
  O  O44  1  0.80794103  0.79428597  0.58860181  1
  O  O45  1  0.98634494  0.79428597  0.08860181  1
  O  O46  1  0.82598698  0.00708629  0.08779962  1
  O  O47  1  0.20769075  0.19131936  0.08895115  1
  O  O48  1  0.69427072  0.17841497  0.74367607  1
  O  O49  1  0.46873132  0.30823967  0.74492173  1
  O  O50  1  0.83585531  0.53654507  0.74418446  1
  O  O51  1  0.70069076  0.53654507  0.24418446  1
  O  O52  1  0.83950935  0.30823967  0.24492173  1
  O  O53  1  0.48414525  0.17841497  0.24367607  1
  O  O54  1  0.64535753  0.52110536  0.92385133  1
  O  O55  1  0.85281798  0.34821079  0.91888781  1
  O  O56  1  0.46962963  0.12864765  0.92344580  1
  O  O57  1  0.65901902  0.12864765  0.42344580  1
  O  O58  1  0.49539381  0.34821079  0.41888781  1
  O  O59  1  0.87574884  0.52110536  0.42385133  1
  O  O60  1  0.36277455  0.49558753  0.07851045  1
  O  O61  1  0.13220898  0.63593600  0.07756573  1
  O  O62  1  0.48677998  0.84392627  0.07544522  1
  O  O63  1  0.35714529  0.84392627  0.57544522  1
  O  O64  1  0.50372602  0.63593600  0.57756573  1
  O  O65  1  0.13281198  0.49558753  0.57851045  1
  O  O66  1  0.32411655  0.83956934  0.25421650  1
  O  O67  1  0.53952491  0.68101257  0.25512090  1
  O  O68  1  0.14301166  0.45914620  0.25629659  1
  O  O69  1  0.31613354  0.45914620  0.75629659  1
  O  O70  1  0.14148667  0.68101257  0.75512090  1
  O  O71  1  0.51545179  0.83956934  0.75421650  1
loop_
_geom_bond_atom_site_label_1
_geom_bond_atom_site_label_2
_geom_bond_distance
_geom_bond_site_symmetry_2
Na0 O43 2.509481 1_555
Na0 O38 2.626656 1_555
Na0 O36 2.750370 1_545
Na0 O42 2.779708 1_455
Na0 O44 2.869086 1_445
Na0 O37 2.875760 1_445
Na1 O46 2.509481 1_555
Na1 O39 2.626656 1_654
Na1 O41 2.750370 1_544
Na1 O47 2.779708 1_655
Na1 O45 2.869086 1_545
Na1 O40 2.875760 1_644
Na2 O55 2.459759 1_555
Na2 O48 2.607151 1_555
Na2 O50 2.751151 1_555
Na2 O56 2.877543 1_555
Na2 O49 2.880914 1_555
Na2 O54 2.884572 1_555
Na3 O58 2.459759 1_555
Na3 O53 2.607151 1_555
Na3 O51 2.751151 1_555
Na3 O57 2.877543 1_555
Na3 O52 2.880914 1_555
Na3 O59 2.884572 1_555
Na4 O66 2.497204 1_555
Na4 O62 2.612023 1_555
Na4 O61 2.756962 1_555
Na4 O67 2.795009 1_555
Na4 O60 2.869136 1_555
Na4 O68 2.909821 1_555
Na5 O71 2.497204 1_555
Na5 O63 2.612023 1_555
Na5 O64 2.756962 1_555
Na5 O70 2.795008 1_555
Na5 O65 2.869136 1_555
Na5 O69 2.909821 1_555
O0 Si0 1.692735 1_545
O0 Zr0 1.940260 1_555
O1 S0 1.494532 1_555
O1 Zr0 2.320305 1_665
O2 S1 1.499722 1_555
O2 Zr0 2.230932 1_655
O3 S2 1.499722 1_555
O3 Zr1 2.230932 1_455
O4 S3 1.494532 1_555
O4 Zr1 2.320305 1_565
O5 Si1 1.692735 1_545
O5 Zr1 1.940260 1_555
O6 Si1 1.593622 1_555
O6 Y0 2.100894 1_555
O7 S2 1.468854 1_555
O7 Y0 2.256253 1_445
O8 S3 1.470667 1_455
O8 Y0 2.235724 1_455
O9 S0 1.470667 1_555
O9 Y1 2.235724 1_555
O10 S1 1.468854 1_455
O10 Y1 2.256253 1_445
O11 Si0 1.593623 1_555
O11 Y1 2.100894 1_455
O12 S4 1.505176 1_555
O12 Zr2 2.202579 1_555
O13 Si2 1.701107 1_555
O13 Zr2 1.939494 1_555
O14 S5 1.484962 1_555
O14 Zr2 2.358140 1_555
O15 S6 1.484962 1_555
O15 Zr3 2.358140 1_555
O16 Si3 1.701107 1_555
O16 Zr3 1.939494 1_555
O17 S7 1.505176 1_555
O17 Zr3 2.202579 1_555
O18 S7 1.462750 1_555
O18 Y2 2.328301 1_554
O19 S6 1.469762 1_555
O19 Y2 2.249401 1_554
O20 Si3 1.599751 1_555
O20 Y2 2.050065 1_554
O21 Si2 1.599751 1_555
O21 Y3 2.050065 1_555
O22 S5 1.469762 1_555
O22 Y3 2.249401 1_555
O23 S4 1.462750 1_555
O23 Y3 2.328301 1_555
O24 S8 1.505494 1_555
O24 Zr4 2.203135 1_556
O25 Si4 1.676369 1_555
O25 Zr4 2.005602 1_556
O26 S9 1.504309 1_555
O26 Zr4 2.200884 1_556
O27 S10 1.504309 1_555
O27 Zr5 2.200884 1_555
O28 Si5 1.676369 1_555
O28 Zr5 2.005602 1_555
O29 S11 1.505494 1_555
O29 Zr5 2.203135 1_555
O30 S11 1.463462 1_555
O30 Y4 2.265611 1_555
O31 S10 1.469392 1_555
O31 Y4 2.243611 1_555
O32 Si5 1.596241 1_555
O32 Y4 2.093782 1_555
O33 Si4 1.596241 1_555
O33 Y5 2.093782 1_555
O34 S9 1.469392 1_555
O34 Y5 2.243611 1_555
O35 S8 1.463462 1_555
O35 Y5 2.265611 1_555
O36 S11 1.507353 1_555
O36 Zr0 2.240734 1_565
O37 S10 1.490392 1_555
O37 Zr0 2.344080 1_665
O38 Si5 1.692433 1_555
O38 Zr0 1.977985 1_555
O39 Si4 1.692437 1_555
O39 Zr1 1.977985 1_455
O40 S9 1.490383 1_555
O40 Zr1 2.344080 1_465
O41 S8 1.507359 1_555
O41 Zr1 2.240734 1_565
O42 S4 1.467156 1_555
O42 Y0 2.326619 1_545
O43 Si2 1.612283 1_555
O43 Y0 2.169267 1_445
O44 S5 1.470885 1_555
O44 Y0 2.288411 1_555
O45 S6 1.470888 1_555
O45 Y1 2.288411 1_555
O46 Si3 1.612274 1_555
O46 Y1 2.169267 1_545
O47 S7 1.467162 1_555
O47 Y1 2.326619 1_445
O48 Si1 1.684535 1_545
O48 Zr2 1.976390 1_555
O49 S2 1.502064 1_555
O49 Zr2 2.228213 1_555
O50 S3 1.495329 1_555
O50 Zr2 2.355875 1_555
O51 S0 1.495333 1_555
O51 Zr3 2.355875 1_555
O52 S1 1.502055 1_555
O52 Zr3 2.228213 1_555
O53 Si0 1.684540 1_545
O53 Zr3 1.976390 1_555
O54 S8 1.461631 1_555
O54 Y2 2.379376 1_555
O55 Si4 1.619354 1_655
O55 Y2 2.122365 1_555
O56 S9 1.468924 1_545
O56 Y2 2.293815 1_555
O57 S10 1.468917 1_545
O57 Y3 2.293815 1_555
O58 Si5 1.619372 1_555
O58 Y3 2.122365 1_555
O59 S11 1.461620 1_655
O59 Y3 2.379376 1_555
O60 S7 1.505741 1_555
O60 Zr4 2.232516 1_555
O61 S6 1.511160 1_455
O61 Zr4 2.207004 1_555
O62 Si3 1.662746 1_565
O62 Zr4 2.051185 1_555
O63 Si2 1.662738 1_565
O63 Zr5 2.051185 1_555
O64 S5 1.511178 1_555
O64 Zr5 2.207005 1_555
O65 S4 1.505731 1_455
O65 Zr5 2.232516 1_555
O66 Si0 1.606856 1_555
O66 Y4 2.178329 1_555
O67 S0 1.477168 1_555
O67 Y4 2.280958 1_555
O68 S1 1.464340 1_455
O68 Y4 2.302357 1_555
O69 S2 1.464344 1_555
O69 Y5 2.302357 1_555
O70 S3 1.477159 1_455
O70 Y5 2.280958 1_555
O71 Si1 1.606862 1_555
O71 Y5 2.178329 1_555
