# generated using pymatgen
data_Ca4GeN4
_symmetry_space_group_name_H-M   'P 1'
_cell_length_a   6.04092888
_cell_length_b   9.25799049
_cell_length_c   11.13477694
_cell_angle_alpha   63.64062201
_cell_angle_beta   90.00000000
_cell_angle_gamma   90.00000000
_symmetry_Int_Tables_number   1
_chemical_formula_structural   Ca4GeN4
_chemical_formula_sum   'Ca16 Ge4 N16'
_cell_volume   557.98556314
_cell_formula_units_Z   4
loop_
 _symmetry_equiv_pos_site_id
 _symmetry_equiv_pos_as_xyz
  1  'x, y, z'
loop_
 _atom_site_type_symbol
 _atom_site_label
 _atom_site_symmetry_multiplicity
 _atom_site_fract_x
 _atom_site_fract_y
 _atom_site_fract_z
 _atom_site_occupancy
  Ca  Ca0  1  0.58383106  0.65530866  0.84537174  1
  Ca  Ca1  1  0.08383106  0.34469134  0.65462826  1
  Ca  Ca2  1  0.41616894  0.34469134  0.15462826  1
  Ca  Ca3  1  0.91616894  0.65530866  0.34537174  1
  Ca  Ca4  1  0.07688882  0.45264243  0.87907435  1
  Ca  Ca5  1  0.57688882  0.54735757  0.62092565  1
  Ca  Ca6  1  0.84435871  0.14653834  0.22987976  1
  Ca  Ca7  1  0.34435871  0.85346166  0.27012024  1
  Ca  Ca8  1  0.15564129  0.85346166  0.77012024  1
  Ca  Ca9  1  0.65564129  0.14653834  0.72987976  1
  Ca  Ca10  1  0.25575791  0.07777937  0.45598795  1
  Ca  Ca11  1  0.75575791  0.92222063  0.04401205  1
  Ca  Ca12  1  0.74424209  0.92222063  0.54401205  1
  Ca  Ca13  1  0.24424209  0.07777937  0.95598795  1
  Ca  Ca14  1  0.92311118  0.54735757  0.12092565  1
  Ca  Ca15  1  0.42311118  0.45264243  0.37907435  1
  Ge  Ge0  1  0.85918030  0.26950534  0.44717274  1
  Ge  Ge1  1  0.35918030  0.73049466  0.05282726  1
  Ge  Ge2  1  0.14081970  0.73049466  0.55282726  1
  Ge  Ge3  1  0.64081970  0.26950534  0.94717274  1
  N  N0  1  0.74681709  0.41122069  0.01422422  1
  N  N1  1  0.24681709  0.58877931  0.48577578  1
  N  N2  1  0.25318291  0.58877931  0.98577578  1
  N  N3  1  0.75318291  0.41122069  0.51422422  1
  N  N4  1  0.91538666  0.66428999  0.68620679  1
  N  N5  1  0.41538666  0.33571001  0.81379321  1
  N  N6  1  0.61207931  0.19777034  0.38350193  1
  N  N7  1  0.11207931  0.80222966  0.11649807  1
  N  N8  1  0.38792069  0.80222966  0.61649807  1
  N  N9  1  0.88792069  0.19777034  0.88350193  1
  N  N10  1  0.51939363  0.09642448  0.10942030  1
  N  N11  1  0.01939363  0.90357552  0.39057970  1
  N  N12  1  0.48060637  0.90357552  0.89057970  1
  N  N13  1  0.98060637  0.09642448  0.60942030  1
  N  N14  1  0.08461334  0.33571001  0.31379321  1
  N  N15  1  0.58461334  0.66428999  0.18620679  1
loop_
_geom_bond_atom_site_label_1
_geom_bond_atom_site_label_2
_geom_bond_distance
_geom_bond_site_symmetry_2
Ca0 N0 2.416204 1_556
Ca0 N2 2.440923 1_555
Ca0 N8 2.582098 1_555
Ca0 N12 2.636765 1_555
Ca0 N4 2.651152 1_555
Ca1 N1 2.416204 1_555
Ca1 N3 2.440923 1_455
Ca1 N9 2.582098 1_455
Ca1 N13 2.636765 1_455
Ca1 N5 2.651152 1_555
Ca2 N2 2.416204 1_554
Ca2 N0 2.440923 1_555
Ca2 N6 2.582098 1_555
Ca2 N10 2.636765 1_555
Ca2 N14 2.651152 1_555
Ca3 N3 2.416204 1_555
Ca3 N1 2.440923 1_655
Ca3 N7 2.582098 1_655
Ca3 N11 2.636765 1_655
Ca3 N15 2.651152 1_555
Ca4 N2 2.337511 1_555
Ca4 N4 2.380434 1_455
Ca4 N0 2.423843 1_456
Ca4 N5 2.565239 1_555
Ca4 N9 2.601918 1_455
Ca5 N3 2.337511 1_555
Ca5 N5 2.380434 1_555
Ca5 N1 2.423843 1_555
Ca5 N4 2.565239 1_555
Ca5 N8 2.601918 1_555
Ca6 N11 2.409420 1_645
Ca6 N6 2.416675 1_555
Ca6 N10 2.533897 1_555
Ca6 N0 2.625414 1_555
Ca6 N14 2.738578 1_655
Ca7 N10 2.409420 1_565
Ca7 N7 2.416675 1_555
Ca7 N11 2.533897 1_555
Ca7 N1 2.625414 1_555
Ca7 N15 2.738578 1_555
Ca8 N13 2.409420 1_465
Ca8 N8 2.416675 1_555
Ca8 N12 2.533897 1_555
Ca8 N2 2.625414 1_555
Ca8 N4 2.738578 1_455
Ca9 N12 2.409420 1_545
Ca9 N9 2.416675 1_555
Ca9 N13 2.533897 1_555
Ca9 N3 2.625414 1_555
Ca9 N5 2.738578 1_555
Ca10 N6 2.392196 1_555
Ca10 N14 2.433219 1_555
Ca10 N13 2.444020 1_455
Ca10 N11 2.492651 1_545
Ca10 N8 2.508141 1_545
Ca11 N7 2.392196 1_655
Ca11 N15 2.433219 1_555
Ca11 N12 2.444020 1_554
Ca11 N10 2.492651 1_565
Ca11 N9 2.508141 1_564
Ca12 N8 2.392196 1_555
Ca12 N4 2.433219 1_555
Ca12 N11 2.444020 1_655
Ca12 N13 2.492651 1_565
Ca12 N6 2.508141 1_565
Ca13 N9 2.392196 1_455
Ca13 N5 2.433219 1_555
Ca13 N10 2.444020 1_556
Ca13 N12 2.492651 1_545
Ca13 N7 2.508141 1_546
Ca14 N0 2.337511 1_555
Ca14 N14 2.380434 1_655
Ca14 N2 2.423843 1_654
Ca14 N15 2.565239 1_555
Ca14 N7 2.601918 1_655
Ca15 N1 2.337511 1_555
Ca15 N15 2.380434 1_555
Ca15 N3 2.423843 1_555
Ca15 N14 2.565239 1_555
Ca15 N6 2.601918 1_555
Ge0 N3 1.886427 1_555
Ge0 N6 1.894729 1_555
Ge0 N14 1.904622 1_655
Ge0 N13 1.949059 1_555
Ge1 N2 1.886427 1_554
Ge1 N7 1.894729 1_555
Ge1 N15 1.904622 1_555
Ge1 N12 1.949059 1_554
Ge2 N1 1.886427 1_555
Ge2 N8 1.894729 1_555
Ge2 N4 1.904622 1_455
Ge2 N11 1.949059 1_555
Ge3 N0 1.886427 1_556
Ge3 N9 1.894729 1_555
Ge3 N5 1.904622 1_555
Ge3 N10 1.949059 1_556
