# generated using pymatgen
data_Na6Ca2Nb4Si3(PO6)6
_symmetry_space_group_name_H-M   'P 1'
_cell_length_a   9.08803468
_cell_length_b   9.08803437
_cell_length_c   22.68163854
_cell_angle_alpha   89.97152838
_cell_angle_beta   90.02847162
_cell_angle_gamma   120.12644921
_symmetry_Int_Tables_number   1
_chemical_formula_structural   Na6Ca2Nb4Si3(PO6)6
_chemical_formula_sum   'Na12 Ca4 Nb8 Si6 P12 O72'
_cell_volume   1620.28025194
_cell_formula_units_Z   2
loop_
 _symmetry_equiv_pos_site_id
 _symmetry_equiv_pos_as_xyz
  1  'x, y, z'
loop_
 _atom_site_type_symbol
 _atom_site_label
 _atom_site_symmetry_multiplicity
 _atom_site_fract_x
 _atom_site_fract_y
 _atom_site_fract_z
 _atom_site_occupancy
  Na  Na0  1  0.36117285  0.34753317  0.24006463  1
  Na  Na1  1  0.98455086  0.63885508  0.24131055  1
  Na  Na2  1  0.65246683  0.63882715  0.74006463  1
  Na  Na3  1  0.36114492  0.01544914  0.74131055  1
  Na  Na4  1  0.71321584  0.03283771  0.91234564  1
  Na  Na5  1  0.96716229  0.28678416  0.41234564  1
  Na  Na6  1  0.00850100  0.98755164  0.49650422  1
  Na  Na7  1  0.01244836  0.99149900  0.99650422  1
  Na  Na8  1  0.68851649  0.34839175  0.82744922  1
  Na  Na9  1  0.65160825  0.31148351  0.32744922  1
  Na  Na10  1  0.35126350  0.70591094  0.16282348  1
  Na  Na11  1  0.29408906  0.64873650  0.66282348  1
  Ca  Ca0  1  0.00039388  0.99315901  0.35844921  1
  Ca  Ca1  1  0.00684099  0.99960612  0.85844921  1
  Ca  Ca2  1  0.67637610  0.32936773  0.67844038  1
  Ca  Ca3  1  0.67063227  0.32362390  0.17844038  1
  Nb  Nb0  1  0.00302641  0.00663270  0.64423076  1
  Nb  Nb1  1  0.99336730  0.99697359  0.14423076  1
  Nb  Nb2  1  0.67150256  0.34393596  0.98449565  1
  Nb  Nb3  1  0.65606404  0.32849744  0.48449565  1
  Nb  Nb4  1  0.33749167  0.66526324  0.02087239  1
  Nb  Nb5  1  0.33473676  0.66250833  0.52087239  1
  Nb  Nb6  1  0.34175745  0.67044927  0.31277841  1
  Nb  Nb7  1  0.32955073  0.65824255  0.81277841  1
  Si  Si0  1  0.96372380  0.33292320  0.58233970  1
  Si  Si1  1  0.36209036  0.02766341  0.58721123  1
  Si  Si2  1  0.97233659  0.63790964  0.08721123  1
  Si  Si3  1  0.66707680  0.03627620  0.08233970  1
  Si  Si4  1  0.61557565  0.64884923  0.91718913  1
  Si  Si5  1  0.35115077  0.38442435  0.41718913  1
  P  P0  1  0.28859807  0.99407504  0.25095848  1
  P  P1  1  0.70157342  0.71201460  0.24971425  1
  P  P2  1  0.00757447  0.29953073  0.25499966  1
  P  P3  1  0.28798540  0.29842658  0.74971425  1
  P  P4  1  0.00592496  0.71140193  0.75095848  1
  P  P5  1  0.70046927  0.99242553  0.75499966  1
  P  P6  1  0.67039308  0.63532030  0.58491361  1
  P  P7  1  0.36467970  0.32960692  0.08491361  1
  P  P8  1  0.03537558  0.38778981  0.91897905  1
  P  P9  1  0.34887470  0.95958164  0.91775604  1
  P  P10  1  0.61221019  0.96462442  0.41897905  1
  P  P11  1  0.04041836  0.65112530  0.41775604  1
  O  O0  1  0.20800907  0.01041444  0.30656347  1
  O  O1  1  0.80625275  0.78754400  0.30393637  1
  O  O2  1  -0.00014885  0.21548105  0.31332042  1
  O  O3  1  0.21245600  0.19374725  0.80393637  1
  O  O4  1  0.98958556  0.79199093  0.80656347  1
  O  O5  1  0.78451895  0.00014885  0.81332042  1
  O  O6  1  0.80279512  0.97220066  0.70204231  1
  O  O7  1  0.17425000  0.20028915  0.69390648  1
  O  O8  1  0.02798446  0.83096965  0.69612638  1
  O  O9  1  0.79971085  0.82575000  0.19390648  1
  O  O10  1  0.02779934  0.19720488  0.20204231  1
  O  O11  1  0.16903035  0.97201554  0.19612638  1
  O  O12  1  0.91816563  0.39331987  0.64089415  1
  O  O13  1  0.45531479  0.08365941  0.64864036  1
  O  O14  1  0.62883123  0.54179179  0.64286148  1
  O  O15  1  0.91634059  0.54468521  0.14864036  1
  O  O16  1  0.60668013  0.08183437  0.14089415  1
  O  O17  1  0.45820821  0.37116877  0.14286148  1
  O  O18  1  0.46894100  0.30772156  0.03281649  1
  O  O19  1  0.83133637  0.52409633  0.03254701  1
  O  O20  1  0.69307923  0.16231424  0.02421694  1
  O  O21  1  0.47590367  0.16866363  0.53254701  1
  O  O22  1  0.69227844  0.53105900  0.53281649  1
  O  O23  1  0.83768576  0.30692077  0.52421694  1
  O  O24  1  0.48506982  0.63797603  0.96830590  1
  O  O25  1  0.13770374  0.49033709  0.97224059  1
  O  O26  1  0.34839353  0.84955289  0.96983413  1
  O  O27  1  0.50966291  0.86229626  0.47224059  1
  O  O28  1  0.36202397  0.51493018  0.46830590  1
  O  O29  1  0.15044711  0.65160647  0.46983413  1
  O  O30  1  0.13876545  0.64256734  0.36010316  1
  O  O31  1  0.50567777  0.86652499  0.36184163  1
  O  O32  1  0.36566061  0.50112790  0.35565574  1
  O  O33  1  0.13347501  0.49432223  0.86184163  1
  O  O34  1  0.35743266  0.86123455  0.86010316  1
  O  O35  1  0.49887210  0.63433939  0.85565574  1
  O  O36  1  0.01870259  0.80444521  0.42073942  1
  O  O37  1  0.79070913  0.99113142  0.41889112  1
  O  O38  1  0.17534283  0.20985598  0.42257265  1
  O  O39  1  0.00886858  0.20929087  0.91889112  1
  O  O40  1  0.19555479  0.98129741  0.92073942  1
  O  O41  1  0.79014402  0.82465717  0.92257265  1
  O  O42  1  0.96443566  0.15040672  0.59130022  1
  O  O43  1  0.17657910  0.02258088  0.58931236  1
  O  O44  1  0.83880984  0.80979475  0.58853808  1
  O  O45  1  0.97741912  0.82342090  0.08931236  1
  O  O46  1  0.84959328  0.03556434  0.09130022  1
  O  O47  1  0.19020525  0.16119016  0.08853808  1
  O  O48  1  0.66172018  0.13682670  0.74977033  1
  O  O49  1  0.47235508  0.33976521  0.74270181  1
  O  O50  1  0.84937823  0.53550864  0.74508555  1
  O  O51  1  0.66023479  0.52764492  0.24270181  1
  O  O52  1  0.86317330  0.33827982  0.24977033  1
  O  O53  1  0.46449136  0.15062177  0.24508555  1
  O  O54  1  0.62895622  0.47510799  0.92291998  1
  O  O55  1  0.85675391  0.37473451  0.92027288  1
  O  O56  1  0.52017706  0.13174557  0.91897070  1
  O  O57  1  0.62526549  0.14324609  0.42027288  1
  O  O58  1  0.52489201  0.37104378  0.42291998  1
  O  O59  1  0.86825443  0.47982294  0.41897070  1
  O  O60  1  0.32561889  0.47384979  0.07020112  1
  O  O61  1  0.16294217  0.67445058  0.07031760  1
  O  O62  1  0.52439014  0.83628950  0.06665856  1
  O  O63  1  0.32554942  0.83705783  0.57031760  1
  O  O64  1  0.52615021  0.67438111  0.57020112  1
  O  O65  1  0.16371050  0.47560986  0.56665856  1
  O  O66  1  0.29288537  0.82066901  0.25258325  1
  O  O67  1  0.52564267  0.71144014  0.25277488  1
  O  O68  1  0.18406046  0.48099585  0.25337777  1
  O  O69  1  0.28855986  0.47435733  0.75277488  1
  O  O70  1  0.17933099  0.70711463  0.75258325  1
  O  O71  1  0.51900415  0.81593954  0.75337777  1
loop_
_geom_bond_atom_site_label_1
_geom_bond_atom_site_label_2
_geom_bond_distance
_geom_bond_site_symmetry_2
Na0 O17 2.344344 1_555
Na0 O51 2.367263 1_555
Na0 O53 2.404887 1_555
Na0 O68 2.472606 1_555
Na0 O10 2.762783 1_555
Na0 O67 2.879786 1_555
Na0 O32 2.961473 1_555
Na1 O15 2.236667 1_555
Na1 O52 2.385459 1_555
Na1 O66 2.449403 1_655
Na1 O51 2.592184 1_555
Na1 O11 2.816305 1_655
Na1 O68 2.833874 1_655
Na1 O1 2.944736 1_555
Na1 O30 3.028875 1_655
Na2 O14 2.344344 1_555
Na2 O49 2.367263 1_555
Na2 O50 2.404887 1_555
Na2 O71 2.472606 1_555
Na2 O6 2.762783 1_555
Na2 O69 2.879786 1_555
Na2 O35 2.961473 1_555
Na3 O13 2.236667 1_555
Na3 O48 2.385459 1_555
Na3 O70 2.449403 1_545
Na3 O49 2.592184 1_555
Na3 O8 2.816305 1_545
Na3 O71 2.833874 1_545
Na3 O3 2.944736 1_555
Na3 O34 3.028875 1_545
Na4 O41 2.334360 1_545
Na4 O39 2.342582 1_655
Na4 O56 2.343425 1_555
Na4 O5 2.397557 1_555
Na4 O55 2.705568 1_555
Na4 O20 2.841864 1_556
Na5 O38 2.334360 1_655
Na5 O37 2.342581 1_545
Na5 O59 2.343425 1_555
Na5 O2 2.397557 1_655
Na5 O57 2.705568 1_555
Na5 O23 2.841864 1_555
Na6 O36 2.426676 1_555
Na6 O38 2.473216 1_565
Na6 O43 2.524903 1_565
Na6 O44 2.616213 1_455
Na6 O37 2.660599 1_455
Na6 O42 2.751892 1_465
Na7 O40 2.426676 1_555
Na7 O41 2.473216 1_455
Na7 O45 2.524903 1_456
Na7 O47 2.616213 1_566
Na7 O39 2.660599 1_565
Na7 O46 2.751892 1_466
Na8 O50 2.454176 1_555
Na8 O48 2.528493 1_555
Na8 O55 2.541169 1_555
Na8 O54 2.633941 1_555
Na8 O49 2.720666 1_555
Na8 O56 2.738915 1_555
Na9 O53 2.454176 1_555
Na9 O52 2.528494 1_555
Na9 O57 2.541169 1_555
Na9 O58 2.633942 1_555
Na9 O51 2.720666 1_555
Na9 O59 2.738915 1_555
Na10 O66 2.464278 1_555
Na10 O67 2.567791 1_555
Na10 O62 2.601242 1_555
Na10 O61 2.630415 1_555
Na10 O68 2.754405 1_555
Na10 O60 2.902776 1_555
Na10 O16 3.057162 1_565
Na11 O70 2.464278 1_555
Na11 O69 2.567791 1_555
Na11 O65 2.601242 1_555
Na11 O63 2.630415 1_555
Na11 O71 2.754405 1_555
Na11 O64 2.902776 1_555
Na11 O12 3.057162 1_455
Ca0 O0 2.162094 1_565
Ca0 O1 2.196393 1_455
Ca0 O2 2.266719 1_565
Ca0 O36 2.291066 1_555
Ca0 O38 2.319276 1_565
Ca0 O37 2.340616 1_455
Ca1 O4 2.162094 1_455
Ca1 O3 2.196393 1_565
Ca1 O5 2.266719 1_465
Ca1 O40 2.291066 1_555
Ca1 O41 2.319276 1_455
Ca1 O39 2.340616 1_565
Ca2 O12 2.147307 1_555
Ca2 O13 2.230736 1_555
Ca2 O50 2.304426 1_555
Ca2 O14 2.323849 1_555
Ca2 O48 2.336791 1_555
Ca2 O49 2.397908 1_555
Ca3 O16 2.147307 1_555
Ca3 O15 2.230736 1_555
Ca3 O53 2.304426 1_555
Ca3 O17 2.323849 1_555
Ca3 O52 2.336791 1_555
Ca3 O51 2.397908 1_555
Nb0 O42 1.931220 1_455
Nb0 O43 1.957715 1_555
Nb0 O7 2.009847 1_555
Nb0 O44 2.084097 1_445
Nb0 O8 2.084924 1_545
Nb0 O6 2.135188 1_445
Nb1 O46 1.931220 1_565
Nb1 O45 1.957715 1_555
Nb1 O9 2.009847 1_555
Nb1 O47 2.084097 1_665
Nb1 O11 2.084924 1_655
Nb1 O10 2.135188 1_665
Nb2 O19 1.895097 1_556
Nb2 O20 1.974291 1_556
Nb2 O54 1.995421 1_555
Nb2 O18 2.022833 1_556
Nb2 O55 2.136274 1_555
Nb2 O56 2.271015 1_555
Nb3 O21 1.895097 1_555
Nb3 O23 1.974291 1_555
Nb3 O58 1.995421 1_555
Nb3 O22 2.022833 1_555
Nb3 O57 2.136274 1_555
Nb3 O59 2.271015 1_555
Nb4 O24 1.902004 1_554
Nb4 O62 1.931086 1_555
Nb4 O61 1.978871 1_555
Nb4 O26 1.996647 1_554
Nb4 O60 2.024688 1_555
Nb4 O25 2.035422 1_554
Nb5 O28 1.902004 1_555
Nb5 O65 1.931086 1_555
Nb5 O63 1.978871 1_555
Nb5 O29 1.996648 1_555
Nb5 O64 2.024688 1_555
Nb5 O27 2.035422 1_555
Nb6 O32 1.922176 1_555
Nb6 O31 1.992126 1_555
Nb6 O30 2.037679 1_555
Nb6 O67 2.039761 1_555
Nb6 O68 2.087350 1_555
Nb6 O66 2.128703 1_555
Nb7 O35 1.922176 1_555
Nb7 O33 1.992126 1_555
Nb7 O34 2.037679 1_555
Nb7 O69 2.039761 1_555
Nb7 O71 2.087350 1_555
Nb7 O70 2.128703 1_555
O0 P0 1.503125 1_545
O1 P1 1.494286 1_555
O2 P2 1.511120 1_555
O3 P3 1.494286 1_555
O4 P4 1.503125 1_655
O5 P5 1.511120 1_545
O6 P5 1.585644 1_555
O7 P3 1.593909 1_555
O8 P4 1.596227 1_555
O9 P1 1.593909 1_555
O10 P2 1.585644 1_555
O11 P0 1.596227 1_555
O12 Si0 1.570343 1_555
O13 Si1 1.576333 1_555
O14 P6 1.506578 1_555
O15 Si2 1.576332 1_555
O16 Si3 1.570343 1_555
O17 P7 1.506578 1_555
O18 P7 1.588770 1_555
O19 Si2 1.708328 1_555
O20 Si3 1.683132 1_555
O21 Si1 1.708328 1_555
O22 P6 1.588770 1_555
O23 Si0 1.683132 1_555
O24 Si4 1.626131 1_555
O25 P8 1.524068 1_555
O26 P9 1.545841 1_555
O27 P10 1.524068 1_555
O28 Si5 1.626131 1_555
O29 P11 1.545841 1_555
O30 P11 1.608078 1_555
O31 P10 1.595359 1_555
O32 Si5 1.717123 1_555
O33 P8 1.595359 1_555
O34 P9 1.608078 1_555
O35 Si4 1.717123 1_555
O36 P11 1.503719 1_555
O37 P10 1.515688 1_555
O38 Si5 1.593787 1_555
O39 P8 1.515688 1_555
O40 P9 1.503719 1_555
O41 Si4 1.593787 1_555
O42 Si0 1.674253 1_555
O43 Si1 1.663935 1_555
O44 P6 1.558028 1_555
O45 Si2 1.663935 1_555
O46 Si3 1.674253 1_555
O47 P7 1.558028 1_555
O48 P5 1.524460 1_545
O49 P3 1.530441 1_555
O50 P4 1.521255 1_655
O51 P1 1.530441 1_555
O52 P2 1.524460 1_655
O53 P0 1.521255 1_545
O54 Si4 1.648435 1_555
O55 P8 1.567422 1_655
O56 P9 1.557991 1_545
O57 P10 1.567422 1_545
O58 Si5 1.648435 1_555
O59 P11 1.557991 1_655
O60 P7 1.556394 1_555
O61 Si2 1.637319 1_455
O62 Si3 1.657006 1_565
O63 Si1 1.637319 1_565
O64 P6 1.556394 1_555
O65 Si0 1.657006 1_455
O66 P0 1.596239 1_555
O67 P1 1.597794 1_555
O68 P2 1.624316 1_555
O69 P3 1.597794 1_555
O70 P4 1.596239 1_555
O71 P5 1.624316 1_555
