# generated using pymatgen
data_MgV4O7F5
_symmetry_space_group_name_H-M   'P 1'
_cell_length_a   5.24900439
_cell_length_b   7.19172174
_cell_length_c   5.57919910
_cell_angle_alpha   93.19734389
_cell_angle_beta   88.75950329
_cell_angle_gamma   89.57062609
_symmetry_Int_Tables_number   1
_chemical_formula_structural   MgV4O7F5
_chemical_formula_sum   'Mg1 V4 O7 F5'
_cell_volume   210.22618185
_cell_formula_units_Z   1
loop_
 _symmetry_equiv_pos_site_id
 _symmetry_equiv_pos_as_xyz
  1  'x, y, z'
loop_
 _atom_site_type_symbol
 _atom_site_label
 _atom_site_symmetry_multiplicity
 _atom_site_fract_x
 _atom_site_fract_y
 _atom_site_fract_z
 _atom_site_occupancy
  Mg  Mg0  1  0.00758300  0.71849400  0.60111000  1
  V  V0  1  0.48848300  0.48844700  0.43840300  1
  V  V1  1  0.46669700  0.00517700  0.53403800  1
  V  V2  1  0.02135300  0.49011800  0.99305900  1
  V  V3  1  0.96743400  0.99774000  0.04036100  1
  O  O0  1  0.91409300  0.26350500  0.00900200  1
  O  O1  1  0.72924100  0.95761200  0.23737100  1
  O  O2  1  0.57974500  0.26818600  0.50472300  1
  O  O3  1  0.37951600  0.73822800  0.49139600  1
  O  O4  1  0.32983200  0.44670300  0.18001800  1
  O  O5  1  0.28111100  0.04351700  0.78115200  1
  O  O6  1  0.08396700  0.74166900  0.97040300  1
  F  F0  1  0.82638800  0.57366800  0.31347100  1
  F  F1  1  0.79392600  0.94339800  0.70877300  1
  F  F2  1  0.72863200  0.56425700  0.76154500  1
  F  F3  1  0.21752100  0.05627400  0.28821300  1
  F  F4  1  0.18447500  0.45300900  0.65946100  1
loop_
_geom_bond_atom_site_label_1
_geom_bond_atom_site_label_2
_geom_bond_distance
_geom_bond_site_symmetry_2
Mg0 O3 2.041646 1_555
Mg0 O6 2.105249 1_555
O0 V2 1.734557 1_654
O0 V3 1.947692 1_545
O1 V3 1.684017 1_555
O1 V1 2.141668 1_565
O2 V0 1.713855 1_555
O2 V1 2.000929 1_555
O3 V0 1.886660 1_555
O3 V1 1.979561 1_565
O4 V0 1.693878 1_555
O4 V2 1.977175 1_554
O5 V1 1.679644 1_555
O5 V3 2.206555 1_446
O6 V2 1.851865 1_555
O6 V3 1.952064 1_456
F0 V0 2.004438 1_555
F0 V2 2.096605 1_654
F0 Mg0 2.111693 1_655
F1 Mg0 2.017410 1_655
F1 V1 2.051198 1_565
F1 V3 2.098168 1_556
F2 Mg0 2.062491 1_655
F2 V2 2.112811 1_655
F2 V0 2.266191 1_555
F3 V3 1.958196 1_445
F3 V1 1.963014 1_555
F4 V0 2.021974 1_555
F4 V2 2.034851 1_555
F4 Mg0 2.160872 1_555
