# generated using pymatgen
data_Na15Mg10Ta2P9(SO8)9
_symmetry_space_group_name_H-M   'P 1'
_cell_length_a   8.91053179
_cell_length_b   8.89695096
_cell_length_c   22.22351115
_cell_angle_alpha   89.99516446
_cell_angle_beta   90.20091689
_cell_angle_gamma   119.93899427
_symmetry_Int_Tables_number   1
_chemical_formula_structural   Na15Mg10Ta2P9(SO8)9
_chemical_formula_sum   'Na15 Mg10 Ta2 P9 S9 O72'
_cell_volume   1526.69155449
_cell_formula_units_Z   1
loop_
 _symmetry_equiv_pos_site_id
 _symmetry_equiv_pos_as_xyz
  1  'x, y, z'
loop_
 _atom_site_type_symbol
 _atom_site_label
 _atom_site_symmetry_multiplicity
 _atom_site_fract_x
 _atom_site_fract_y
 _atom_site_fract_z
 _atom_site_occupancy
  Na  Na0  1  0.99017412  0.34729639  0.74864831  1
  Na  Na1  1  0.30134650  0.33399042  0.58521324  1
  Na  Na2  1  0.66899346  0.96960555  0.58676431  1
  Na  Na3  1  0.30131746  0.96834583  0.08625344  1
  Na  Na4  1  0.66931524  0.69885278  0.08977054  1
  Na  Na5  1  0.97159423  0.67133814  0.91208917  1
  Na  Na6  1  0.32650048  0.29244056  0.91263620  1
  Na  Na7  1  0.33501894  0.04143424  0.41012651  1
  Na  Na8  1  0.69827471  0.66728974  0.41269553  1
  Na  Na9  1  0.99944570  0.00867743  0.49644349  1
  Na  Na10  1  0.99533243  0.02205129  0.99678713  1
  Na  Na11  1  0.65527322  0.31361194  0.82775279  1
  Na  Na12  1  0.66456783  0.32755989  0.32681825  1
  Na  Na13  1  0.32070694  0.65629721  0.16592427  1
  Na  Na14  1  0.33285981  0.67895675  0.66539055  1
  Mg  Mg0  1  0.00043491  0.00629040  0.34798934  1
  Mg  Mg1  1  0.00071458  0.00297955  0.84718334  1
  Mg  Mg2  1  0.99928783  0.99438464  0.65667451  1
  Mg  Mg3  1  0.00062475  0.00044283  0.15622179  1
  Mg  Mg4  1  0.66286335  0.33535905  0.68838317  1
  Mg  Mg5  1  0.66189042  0.33090559  0.18824257  1
  Mg  Mg6  1  0.67293687  0.32156242  0.97886192  1
  Mg  Mg7  1  0.66795646  0.33087937  0.47954138  1
  Mg  Mg8  1  0.32547430  0.66239862  0.01617870  1
  Mg  Mg9  1  0.33235436  0.66397604  0.51564703  1
  Ta  Ta0  1  0.34323173  0.67025139  0.31179003  1
  Ta  Ta1  1  0.33248315  0.67451216  0.81197035  1
  P  P0  1  0.29622715  0.00363478  0.25085511  1
  P  P1  1  0.71249582  0.70310338  0.25067557  1
  P  P2  1  0.29814829  0.29454638  0.75089108  1
  P  P3  1  0.99269768  0.70498718  0.75215270  1
  P  P4  1  0.70793802  0.00117610  0.74808955  1
  P  P5  1  0.03993147  0.37053845  0.91731432  1
  P  P6  1  0.33299930  0.96317846  0.92038565  1
  P  P7  1  0.63116623  0.96255410  0.41979403  1
  P  P8  1  0.32855051  0.36934485  0.41973693  1
  S  S0  1  0.99894458  0.29490265  0.25066484  1
  S  S1  1  0.96150525  0.33571816  0.58364199  1
  S  S2  1  0.37091602  0.03856277  0.58199820  1
  S  S3  1  0.67064827  0.62861086  0.58171457  1
  S  S4  1  0.95861330  0.62461608  0.08290172  1
  S  S5  1  0.67002775  0.04035029  0.08394585  1
  S  S6  1  0.37307437  0.33400629  0.08207146  1
  S  S7  1  0.62696087  0.67019917  0.91937301  1
  S  S8  1  0.04143367  0.66454265  0.41706280  1
  O  O0  1  0.20925220  0.02118469  0.30726717  1
  O  O1  1  0.81240653  0.79207603  0.30762099  1
  O  O2  1  0.97833420  0.19403291  0.30460392  1
  O  O3  1  0.21352872  0.19193759  0.80778239  1
  O  O4  1  0.97423596  0.78208778  0.81097057  1
  O  O5  1  0.82557084  0.02839320  0.80131731  1
  O  O6  1  0.77200349  0.96341975  0.68894738  1
  O  O7  1  0.18100372  0.22539203  0.69440333  1
  O  O8  1  0.02944059  0.81690044  0.69711265  1
  O  O9  1  0.78082376  0.81173747  0.19313456  1
  O  O10  1  0.03482158  0.22323311  0.19618368  1
  O  O11  1  0.18939993  0.96903969  0.19271091  1
  O  O12  1  0.88197104  0.35226861  0.63958465  1
  O  O13  1  0.48496380  0.12566993  0.63404613  1
  O  O14  1  0.64757873  0.51690047  0.63363758  1
  O  O15  1  0.87100964  0.51979529  0.13534896  1
  O  O16  1  0.64401201  0.12337560  0.13671336  1
  O  O17  1  0.48497397  0.35829519  0.13426402  1
  O  O18  1  0.45119359  0.30867303  0.02622131  1
  O  O19  1  0.85736056  0.54640967  0.02658116  1
  O  O20  1  0.68876547  0.13897602  0.02850400  1
  O  O21  1  0.44890216  0.14135533  0.52606463  1
  O  O22  1  0.68580627  0.54891435  0.52505504  1
  O  O23  1  0.85162537  0.31308809  0.53081192  1
  O  O24  1  0.54818857  0.69112835  0.97454887  1
  O  O25  1  0.15939419  0.45815592  0.97097649  1
  O  O26  1  0.31064727  0.85622713  0.97694638  1
  O  O27  1  0.54643916  0.85239215  0.47599117  1
  O  O28  1  0.30781792  0.45084373  0.47736104  1
  O  O29  1  0.14995332  0.69121601  0.47041903  1
  O  O30  1  0.12830723  0.64451708  0.36239190  1
  O  O31  1  0.50278391  0.85688664  0.36443027  1
  O  O32  1  0.34731434  0.49417167  0.36511757  1
  O  O33  1  0.13871447  0.49064779  0.86014081  1
  O  O34  1  0.35052837  0.85843083  0.86502653  1
  O  O35  1  0.51153434  0.64613067  0.86619696  1
  O  O36  1  0.02392908  0.82178208  0.41112759  1
  O  O37  1  0.80548440  0.97260830  0.41001746  1
  O  O38  1  0.17464611  0.18654249  0.41082955  1
  O  O39  1  0.02057687  0.19134717  0.90892865  1
  O  O40  1  0.16707880  0.97529685  0.91209184  1
  O  O41  1  0.80071177  0.82077145  0.91195777  1
  O  O42  1  0.98041893  0.17609383  0.58614350  1
  O  O43  1  0.19832211  0.02496004  0.58851292  1
  O  O44  1  0.82283930  0.80617396  0.58669834  1
  O  O45  1  0.97705618  0.80308233  0.08701496  1
  O  O46  1  0.82351550  0.01553145  0.08933816  1
  O  O47  1  0.19829529  0.17690890  0.08839863  1
  O  O48  1  0.68130665  0.15831796  0.74271621  1
  O  O49  1  0.48056755  0.32587409  0.74335099  1
  O  O50  1  0.84886392  0.51525373  0.74548962  1
  O  O51  1  0.68077484  0.51945918  0.24499669  1
  O  O52  1  0.85249438  0.32418950  0.24352425  1
  O  O53  1  0.48208876  0.15245325  0.24542189  1
  O  O54  1  0.63775179  0.50803068  0.92120883  1
  O  O55  1  0.86718113  0.37067485  0.91931529  1
  O  O56  1  0.49326026  0.14549407  0.91990158  1
  O  O57  1  0.63566092  0.13707481  0.42004097  1
  O  O58  1  0.50114669  0.36470972  0.41900535  1
  O  O59  1  0.86712395  0.51014906  0.42070103  1
  O  O60  1  0.35982033  0.49495452  0.07777882  1
  O  O61  1  0.13797033  0.65069534  0.07928762  1
  O  O62  1  0.51052778  0.86060948  0.07972702  1
  O  O63  1  0.35412094  0.86310516  0.57717254  1
  O  O64  1  0.50925394  0.64594304  0.57971246  1
  O  O65  1  0.13925477  0.49005009  0.57875089  1
  O  O66  1  0.31065513  0.82875286  0.26011109  1
  O  O67  1  0.51847637  0.68200927  0.25941955  1
  O  O68  1  0.16154086  0.47600886  0.25825811  1
  O  O69  1  0.31487836  0.48409516  0.76012126  1
  O  O70  1  0.16692174  0.68540756  0.75898475  1
  O  O71  1  0.52102474  0.83542186  0.76024190  1
loop_
_geom_bond_atom_site_label_1
_geom_bond_atom_site_label_2
_geom_bond_distance
_geom_bond_site_symmetry_2
Na0 O50 2.387633 1_555
Na0 O48 2.407785 1_555
Na0 O69 2.529311 1_655
Na0 O12 2.613886 1_555
Na0 O70 2.617416 1_655
Na0 O7 2.715936 1_655
Na0 O5 2.725633 1_555
Na0 O33 2.794693 1_655
Na1 O43 2.426638 1_555
Na1 O64 2.453425 1_555
Na1 O65 2.456562 1_555
Na1 O42 2.478308 1_455
Na1 O28 2.601883 1_555
Na1 O7 2.637313 1_555
Na1 O14 2.879240 1_555
Na1 O21 2.942048 1_555
Na2 O44 2.446033 1_555
Na2 O42 2.446908 1_565
Na2 O6 2.457263 1_555
Na2 O63 2.481407 1_555
Na2 O64 2.500003 1_555
Na2 O27 2.680524 1_555
Na2 O13 2.829484 1_565
Na2 O23 2.929659 1_565
Na3 O47 2.447180 1_565
Na3 O61 2.453990 1_555
Na3 O62 2.490068 1_555
Na3 O45 2.504064 1_455
Na3 O11 2.571870 1_555
Na3 O26 2.643387 1_554
Na3 O16 2.873433 1_565
Na3 O18 2.950767 1_565
Na4 O45 2.417850 1_555
Na4 O46 2.441752 1_565
Na4 O60 2.443055 1_555
Na4 O62 2.480529 1_555
Na4 O9 2.502191 1_555
Na4 O24 2.762798 1_554
Na4 O17 2.810589 1_555
Na5 O55 2.358763 1_555
Na5 O40 2.376031 1_655
Na5 O4 2.449130 1_555
Na5 O41 2.471165 1_555
Na5 O54 2.586717 1_555
Na5 O19 2.762958 1_556
Na6 O39 2.407841 1_555
Na6 O56 2.424996 1_555
Na6 O40 2.445126 1_545
Na6 O54 2.468544 1_555
Na6 O3 2.515599 1_555
Na6 O18 2.729006 1_556
Na6 O25 2.876978 1_555
Na6 O35 2.918620 1_555
Na7 O38 2.355987 1_555
Na7 O57 2.381093 1_555
Na7 O36 2.469151 1_545
Na7 O58 2.500173 1_555
Na7 O0 2.508827 1_555
Na7 O21 2.745955 1_555
Na7 O31 2.902185 1_545
Na7 O29 3.018184 1_545
Na8 O58 2.373576 1_555
Na8 O37 2.388551 1_555
Na8 O36 2.515996 1_655
Na8 O59 2.519433 1_555
Na8 O1 2.570772 1_555
Na8 O22 2.690978 1_555
Na8 O32 2.905038 1_555
Na8 O27 2.959546 1_555
Na9 O38 2.473015 1_655
Na9 O37 2.490436 1_545
Na9 O42 2.544821 1_555
Na9 O36 2.602480 1_645
Na9 O44 2.633837 1_545
Na9 O43 2.658239 1_655
Na10 O39 2.407496 1_655
Na10 O46 2.551695 1_556
Na10 O41 2.578002 1_545
Na10 O40 2.591048 1_645
Na10 O47 2.607966 1_656
Na10 O45 2.743635 1_546
Na11 O48 2.420240 1_555
Na11 O49 2.470334 1_555
Na11 O56 2.525859 1_555
Na11 O50 2.543403 1_555
Na11 O55 2.641977 1_555
Na11 O54 2.757244 1_555
Na12 O53 2.407170 1_555
Na12 O51 2.448969 1_555
Na12 O52 2.510641 1_555
Na12 O57 2.607297 1_555
Na12 O58 2.632180 1_555
Na12 O59 2.701334 1_555
Na13 O61 2.501571 1_555
Na13 O60 2.554198 1_555
Na13 O68 2.558143 1_555
Na13 O62 2.605356 1_555
Na13 O66 2.623460 1_555
Na13 O67 2.654625 1_555
Na14 O63 2.501195 1_555
Na14 O65 2.567350 1_555
Na14 O70 2.573364 1_555
Na14 O64 2.581489 1_555
Na14 O71 2.615028 1_555
Na14 O69 2.681018 1_555
Mg0 O1 2.011641 1_445
Mg0 O0 2.016023 1_555
Mg0 O2 2.021180 1_455
Mg0 O38 2.105265 1_555
Mg0 O37 2.122429 1_445
Mg0 O36 2.246767 1_545
Mg1 O5 1.966384 1_455
Mg1 O3 2.004552 1_555
Mg1 O4 2.025265 1_445
Mg1 O39 2.103689 1_555
Mg1 O40 2.165251 1_545
Mg1 O41 2.238319 1_445
Mg2 O8 1.948027 1_655
Mg2 O6 2.035946 1_555
Mg2 O7 2.053764 1_665
Mg2 O44 2.247159 1_555
Mg2 O43 2.247468 1_665
Mg2 O42 2.316846 1_565
Mg3 O11 2.006129 1_545
Mg3 O9 2.014063 1_445
Mg3 O10 2.050859 1_555
Mg3 O46 2.216499 1_455
Mg3 O47 2.257682 1_555
Mg3 O45 2.263389 1_445
Mg4 O49 2.003740 1_555
Mg4 O48 2.054916 1_555
Mg4 O50 2.063245 1_555
Mg4 O14 2.079806 1_555
Mg4 O13 2.118147 1_555
Mg4 O12 2.175338 1_555
Mg5 O51 2.037258 1_555
Mg5 O53 2.043833 1_555
Mg5 O17 2.086536 1_555
Mg5 O16 2.109830 1_555
Mg5 O52 2.117561 1_555
Mg5 O15 2.137159 1_555
Mg6 O20 2.025628 1_556
Mg6 O55 2.049136 1_555
Mg6 O56 2.053363 1_555
Mg6 O19 2.129263 1_556
Mg6 O18 2.193918 1_556
Mg6 O54 2.237895 1_555
Mg7 O23 2.060873 1_555
Mg7 O57 2.075296 1_555
Mg7 O21 2.109680 1_555
Mg7 O22 2.121937 1_555
Mg7 O58 2.131249 1_555
Mg7 O59 2.143342 1_555
Mg8 O25 1.951111 1_554
Mg8 O26 1.994448 1_554
Mg8 O24 2.089504 1_554
Mg8 O61 2.147570 1_555
Mg8 O60 2.153804 1_555
Mg8 O62 2.214702 1_555
Mg9 O28 1.988109 1_555
Mg9 O27 2.011315 1_555
Mg9 O29 2.022931 1_555
Mg9 O65 2.163486 1_555
Mg9 O63 2.168282 1_555
Mg9 O64 2.184972 1_555
O0 P0 1.524574 1_555
O1 P1 1.519729 1_555
O2 S0 1.453577 1_555
O3 P2 1.523109 1_555
O4 P3 1.523322 1_555
O5 P4 1.514786 1_555
O6 P4 1.537195 1_565
O7 P2 1.547233 1_555
O8 P3 1.507308 1_455
O9 P1 1.535563 1_555
O10 S0 1.476835 1_455
O11 P0 1.539325 1_565
O12 S1 1.476465 1_555
O13 S2 1.475482 1_555
O14 S3 1.469392 1_555
O15 S4 1.455042 1_555
O16 S5 1.465443 1_555
O17 S6 1.470752 1_555
O18 S6 1.496190 1_555
O19 S4 1.493438 1_555
O20 S5 1.473416 1_555
O21 S2 1.495307 1_555
O22 S3 1.484405 1_555
O23 S1 1.474043 1_555
O24 S7 1.472224 1_555
O25 P5 1.525114 1_555
O26 P6 1.528881 1_555
O27 P7 1.535627 1_555
O28 P8 1.528191 1_555
O29 S8 1.469807 1_555
O30 S8 1.500476 1_555
O30 Ta0 2.135886 1_555
O31 P7 1.619610 1_555
O31 Ta0 1.944040 1_555
O32 P8 1.597055 1_555
O32 Ta0 1.978955 1_555
O33 P5 1.612407 1_555
O33 Ta1 1.999129 1_555
O34 P6 1.597907 1_555
O34 Ta1 1.957044 1_555
O35 S7 1.507291 1_555
O35 Ta1 2.109516 1_555
O36 S8 1.488763 1_555
O37 P7 1.526933 1_555
O38 P8 1.528678 1_555
O39 P5 1.526929 1_555
O40 P6 1.545501 1_555
O41 S7 1.466383 1_555
O42 S1 1.512348 1_555
O43 S2 1.488803 1_555
O44 S3 1.485784 1_555
O45 S4 1.515241 1_555
O46 S5 1.494620 1_555
O47 S6 1.492486 1_555
O48 P4 1.534970 1_555
O49 P2 1.515767 1_555
O50 P3 1.534035 1_555
O51 P1 1.517953 1_555
O52 S0 1.460789 1_555
O53 P0 1.524155 1_555
O54 S7 1.493664 1_555
O55 P5 1.540701 1_655
O56 P6 1.535726 1_545
O57 P7 1.533117 1_545
O58 P8 1.559056 1_555
O59 S8 1.475497 1_655
O60 S6 1.497406 1_555
O61 S4 1.498395 1_455
O62 S5 1.521999 1_565
O63 S2 1.495817 1_565
O64 S3 1.521453 1_555
O65 S1 1.495385 1_455
O66 P0 1.636807 1_565
O66 Ta0 1.948811 1_555
O67 P1 1.655380 1_555
O67 Ta0 1.911422 1_555
O68 S0 1.546604 1_455
O68 Ta0 2.053551 1_555
O69 P2 1.630084 1_555
O69 Ta1 1.989022 1_555
O70 P3 1.652788 1_455
O70 Ta1 1.924275 1_555
O71 P4 1.604081 1_565
O71 Ta1 1.950914 1_555
