# generated using pymatgen
data_Na14La4Zr4Si9(SO16)3
_symmetry_space_group_name_H-M   'P 1'
_cell_length_a   19.06370606
_cell_length_b   9.52675508
_cell_length_c   23.21129063
_cell_angle_alpha   90.00272387
_cell_angle_beta   89.83968113
_cell_angle_gamma   119.97758446
_symmetry_Int_Tables_number   1
_chemical_formula_structural   Na14La4Zr4Si9(SO16)3
_chemical_formula_sum   'Na42 La12 Zr12 Si27 S9 O144'
_cell_volume   3651.55694611
_cell_formula_units_Z   3
loop_
 _symmetry_equiv_pos_site_id
 _symmetry_equiv_pos_as_xyz
  1  'x, y, z'
loop_
 _atom_site_type_symbol
 _atom_site_label
 _atom_site_symmetry_multiplicity
 _atom_site_fract_x
 _atom_site_fract_y
 _atom_site_fract_z
 _atom_site_occupancy
  Na  Na0  1  0.82361463  0.01601131  0.25669082  1
  Na  Na1  1  0.17448739  0.35173958  0.25452036  1
  Na  Na2  1  0.69502792  0.36936016  0.25185991  1
  Na  Na3  1  0.99852158  0.62974844  0.24379790  1
  Na  Na4  1  0.49899633  0.64957365  0.24589221  1
  Na  Na5  1  0.32228452  0.62975479  0.75214676  1
  Na  Na6  1  0.99641701  0.34586578  0.73613711  1
  Na  Na7  1  0.50074052  0.37031214  0.74038561  1
  Na  Na8  1  0.19290071  0.01966604  0.74631059  1
  Na  Na9  1  0.68138636  0.00466882  0.74700633  1
  Na  Na10  1  0.14179881  0.31079428  0.58087844  1
  Na  Na11  1  0.65420309  0.32705300  0.58227056  1
  Na  Na12  1  0.33625147  0.99153873  0.58823551  1
  Na  Na13  1  0.83366840  0.97277550  0.58443349  1
  Na  Na14  1  0.14694684  0.98110239  0.08061067  1
  Na  Na15  1  0.64550885  0.97330900  0.07766223  1
  Na  Na16  1  0.33399951  0.68231800  0.08314835  1
  Na  Na17  1  0.83651107  0.68303491  0.08906860  1
  Na  Na18  1  0.47995023  0.67843739  0.91603007  1
  Na  Na19  1  0.97860071  0.68186642  0.92879478  1
  Na  Na20  1  0.34091180  0.01703140  0.90564920  1
  Na  Na21  1  0.83993197  0.01608309  0.90704708  1
  Na  Na22  1  0.17529365  0.29460279  0.91070864  1
  Na  Na23  1  0.66990365  0.28662060  0.90863426  1
  Na  Na24  1  0.48392716  0.28496703  0.43316347  1
  Na  Na25  1  0.97746028  0.27774037  0.42200567  1
  Na  Na26  1  0.16794063  0.05279387  0.41318182  1
  Na  Na27  1  0.67822355  0.05712991  0.41889519  1
  Na  Na28  1  0.34200357  0.66605224  0.41163700  1
  Na  Na29  1  0.84186621  0.66476183  0.42262510  1
  Na  Na30  1  0.99532569  0.99436078  0.50357235  1
  Na  Na31  1  0.50934626  0.01802255  0.50588562  1
  Na  Na32  1  0.00489730  0.99447262  0.00316711  1
  Na  Na33  1  0.50549440  0.99477963  0.99698710  1
  Na  Na34  1  0.32908997  0.33529842  0.82327649  1
  Na  Na35  1  0.81559488  0.32502199  0.82547957  1
  Na  Na36  1  0.31515437  0.30125131  0.33498657  1
  Na  Na37  1  0.82726065  0.31992880  0.33205109  1
  Na  Na38  1  0.15346575  0.64763493  0.16817788  1
  Na  Na39  1  0.66340585  0.65772166  0.16683019  1
  Na  Na40  1  0.16140686  0.66761241  0.66488664  1
  Na  Na41  1  0.66111273  0.66218328  0.66352858  1
  La  La0  1  0.00118209  0.00714545  0.34756252  1
  La  La1  1  0.49947388  0.00498081  0.34862386  1
  La  La2  1  0.99814541  0.99474119  0.84566206  1
  La  La3  1  0.50176700  0.99551705  0.84520882  1
  La  La4  1  0.33688768  0.33081939  0.67625716  1
  La  La5  1  0.83703972  0.34339328  0.17705335  1
  La  La6  1  0.33190498  0.33879852  0.98973311  1
  La  La7  1  0.82539133  0.33733327  0.98738982  1
  La  La8  1  0.32666426  0.31580300  0.48791959  1
  La  La9  1  0.83242606  0.33573980  0.49384365  1
  La  La10  1  0.67522595  0.67617104  0.31691352  1
  La  La11  1  0.17363585  0.67134614  0.81411852  1
  Zr  Zr0  1  0.99610188  0.00148001  0.64916586  1
  Zr  Zr1  1  0.50916379  0.01219546  0.65640343  1
  Zr  Zr2  1  0.00805168  0.00621538  0.15597006  1
  Zr  Zr3  1  0.50116052  0.99261326  0.15142579  1
  Zr  Zr4  1  0.82861408  0.32724577  0.67595310  1
  Zr  Zr5  1  0.33009969  0.34387243  0.18081811  1
  Zr  Zr6  1  0.16712881  0.66870171  0.01906954  1
  Zr  Zr7  1  0.66425249  0.66319074  0.01891905  1
  Zr  Zr8  1  0.16360533  0.66428742  0.51886404  1
  Zr  Zr9  1  0.67343613  0.66499064  0.52199182  1
  Zr  Zr10  1  0.17664627  0.67219547  0.30911058  1
  Zr  Zr11  1  0.67750978  0.68394957  0.80790670  1
  Si  Si0  1  0.15714512  0.00329579  0.25024088  1
  Si  Si1  1  0.64943393  0.99539032  0.25007049  1
  Si  Si2  1  0.35074836  0.69460131  0.24942287  1
  Si  Si3  1  0.85063348  0.70249416  0.24776455  1
  Si  Si4  1  0.00266522  0.30610882  0.25335694  1
  Si  Si5  1  0.14815699  0.29909466  0.75004247  1
  Si  Si6  1  0.65774482  0.31204210  0.75182636  1
  Si  Si7  1  0.50246726  0.69872710  0.75426874  1
  Si  Si8  1  0.35030050  -0.00012947  0.74878287  1
  Si  Si9  1  0.85124564  0.01628325  0.75107127  1
  Si  Si10  1  0.49198023  0.32477580  0.58238041  1
  Si  Si11  1  0.98820144  0.33682357  0.58499542  1
  Si  Si12  1  0.17155769  0.01190169  0.58466580  1
  Si  Si13  1  0.67686977  0.01952799  0.58258766  1
  Si  Si14  1  0.83640359  0.64197727  0.57996547  1
  Si  Si15  1  0.48794684  0.64081364  0.08488135  1
  Si  Si16  1  0.99305374  0.65916417  0.08241701  1
  Si  Si17  1  0.17775619  0.33604042  0.08299217  1
  Si  Si18  1  0.66985291  0.32914863  0.08470493  1
  Si  Si19  1  0.31891758  0.67207489  0.92108426  1
  Si  Si20  1  0.80891655  0.66615707  0.91739969  1
  Si  Si21  1  0.16649614  0.96439422  0.91722630  1
  Si  Si22  1  0.66796373  0.95600552  0.91716010  1
  Si  Si23  1  0.30868734  0.95302573  0.41744319  1
  Si  Si24  1  0.81885817  0.97078045  0.42016363  1
  Si  Si25  1  0.16853792  0.38036103  0.41652589  1
  Si  Si26  1  0.66658276  0.36645616  0.41604325  1
  S  S0  1  0.49280905  0.29713114  0.24481661  1
  S  S1  1  0.99339248  0.68821903  0.74588731  1
  S  S2  1  0.33318795  0.65565560  0.58197143  1
  S  S3  1  0.33352128  0.02609342  0.08372860  1
  S  S4  1  0.83325711  0.01159462  0.08174293  1
  S  S5  1  0.01994722  0.37198942  0.92066138  1
  S  S6  1  0.52590708  0.38556184  0.91509715  1
  S  S7  1  0.02627420  0.66384539  0.41387093  1
  S  S8  1  0.51925470  0.66602412  0.41957473  1
  O  O0  1  0.13008244  0.05777698  0.30910216  1
  O  O1  1  0.61160107  0.01727576  0.31058214  1
  O  O2  1  0.40317969  0.75811211  0.30836207  1
  O  O3  1  0.89693679  0.78056003  0.30837933  1
  O  O4  1  0.48293014  0.21960982  0.30193038  1
  O  O5  1  0.98757961  0.21245159  0.31477389  1
  O  O6  1  0.11354745  0.21066865  0.81324191  1
  O  O7  1  0.62727581  0.20723909  0.81168673  1
  O  O8  1  0.48645369  0.75816881  0.81663411  1
  O  O9  1  0.98517867  0.74636179  0.80388316  1
  O  O10  1  0.39318248  0.01068366  0.81110202  1
  O  O11  1  0.90038261  0.04821493  0.81191191  1
  O  O12  1  0.40784945  0.99456219  0.69617572  1
  O  O13  1  0.90362911  0.99686117  0.69889868  1
  O  O14  1  0.08823642  0.17253576  0.69988881  1
  O  O15  1  0.59285847  0.20754783  0.69941283  1
  O  O16  1  0.99802478  0.80252454  0.70124994  1
  O  O17  1  0.51396676  0.83706124  0.70591981  1
  O  O18  1  0.40019410  0.81356604  0.19511060  1
  O  O19  1  0.90621663  0.81965372  0.19339675  1
  O  O20  1  0.01471119  0.19333980  0.20379298  1
  O  O21  1  0.49710938  0.19229076  0.19926975  1
  O  O22  1  0.09280886  0.97821176  0.19738564  1
  O  O23  1  0.58929948  0.99946257  0.19786859  1
  O  O24  1  0.45387598  0.35480295  0.64053421  1
  O  O25  1  0.93637117  0.35504567  0.63876368  1
  O  O26  1  0.23468382  0.08851417  0.63855194  1
  O  O27  1  0.74475891  0.12680302  0.63408979  1
  O  O28  1  0.31880474  0.55230624  0.63343335  1
  O  O29  1  0.82132131  0.49639666  0.62599243  1
  O  O30  1  0.43494654  0.51489276  0.13762124  1
  O  O31  1  0.95549291  0.55317854  0.14044825  1
  O  O32  1  0.32349128  0.12445017  0.12927558  1
  O  O33  1  0.81877814  0.08552685  0.13329179  1
  O  O34  1  0.24714848  0.36264564  0.13326202  1
  O  O35  1  0.73174934  0.37405845  0.13880592  1
  O  O36  1  0.21009578  0.29140548  0.02443230  1
  O  O37  1  0.70644375  0.27666351  0.02936102  1
  O  O38  1  0.43679993  0.57767362  0.02550842  1
  O  O39  1  0.93347340  0.57370087  0.02639007  1
  O  O40  1  0.34811848  0.10737271  0.02747290  1
  O  O41  1  0.84280870  0.10875704  0.02968390  1
  O  O42  1  0.20940782  0.13543661  0.52877939  1
  O  O43  1  0.70736342  0.12896904  0.52407199  1
  O  O44  1  0.34299495  0.57805249  0.52982365  1
  O  O45  1  0.85399200  0.59351015  0.51688684  1
  O  O46  1  0.43069235  0.28598996  0.52693421  1
  O  O47  1  0.93820760  0.29904425  0.52526494  1
  O  O48  1  0.26120066  0.66966097  0.97603944  1
  O  O49  1  0.75824147  0.66608857  0.97557281  1
  O  O50  1  0.07300845  0.47264547  0.96913642  1
  O  O51  1  0.57206269  0.47966812  0.96675373  1
  O  O52  1  0.16585996  0.84539630  0.97072318  1
  O  O53  1  0.66495476  0.85120039  0.97549029  1
  O  O54  1  0.25783949  0.85094922  0.47511802  1
  O  O55  1  0.76012690  0.85186618  0.47309968  1
  O  O56  1  0.16638001  0.48190728  0.47404214  1
  O  O57  1  0.66573175  0.48505717  0.46832259  1
  O  O58  1  0.07275193  0.66317045  0.46545515  1
  O  O59  1  0.57226143  0.67091916  0.46678724  1
  O  O60  1  0.06860881  0.66014325  0.36069510  1
  O  O61  1  0.55112492  0.65003964  0.36282496  1
  O  O62  1  0.25464780  0.85073715  0.36114104  1
  O  O63  1  0.77148763  0.89765720  0.35864927  1
  O  O64  1  0.17051499  0.48603278  0.35892945  1
  O  O65  1  0.66579086  0.44628274  0.35338055  1
  O  O66  1  0.05304365  0.45667028  0.86550453  1
  O  O67  1  0.56632059  0.47457847  0.86202663  1
  O  O68  1  0.16909502  0.88328233  0.85578990  1
  O  O69  1  0.67016805  0.85301445  0.86050756  1
  O  O70  1  0.26897101  0.64791042  0.86119419  1
  O  O71  1  0.75420779  0.65890674  0.86174101  1
  O  O72  1  0.02279990  0.81612683  0.41690035  1
  O  O73  1  0.51357384  0.81590463  0.42185169  1
  O  O74  1  0.39741396  0.96440282  0.41822352  1
  O  O75  1  0.90474286  0.96864494  0.42431866  1
  O  O76  1  0.08955107  0.19821638  0.42042972  1
  O  O77  1  0.58230924  0.18851507  0.42350580  1
  O  O78  1  0.01661649  0.21359481  0.92287985  1
  O  O79  1  0.52232796  0.22625707  0.91828536  1
  O  O80  1  0.08306141  0.97553214  0.92327016  1
  O  O81  1  0.58831161  0.97907306  0.92056167  1
  O  O82  1  0.40448150  0.84516286  0.92482534  1
  O  O83  1  0.89809881  0.83174350  0.91828976  1
  O  O84  1  0.50046171  0.15984234  0.58902071  1
  O  O85  1  0.99800539  0.17439875  0.59585077  1
  O  O86  1  0.08380837  0.00051704  0.59512145  1
  O  O87  1  0.58898115  0.00201033  0.59754887  1
  O  O88  1  0.40389749  0.81908212  0.58877914  1
  O  O89  1  0.90757020  0.82486635  0.59669193  1
  O  O90  1  0.49462863  0.82165278  0.09509502  1
  O  O91  1  0.00104219  0.84106536  0.08772067  1
  O  O92  1  0.40067824  0.99451740  0.09588434  1
  O  O93  1  0.90413665  0.98961382  0.08814697  1
  O  O94  1  0.09031334  0.17739132  0.09676369  1
  O  O95  1  0.57947721  0.16712466  0.09430665  1
  O  O96  1  0.33988016  0.16051797  0.74704566  1
  O  O97  1  0.84016959  0.17613202  0.74086396  1
  O  O98  1  0.24121113  0.33317415  0.74507112  1
  O  O99  1  0.74555842  0.32555298  0.73708665  1
  O  O100  1  0.42276329  0.52185774  0.74384416  1
  O  O101  1  0.92309083  0.52328889  0.73838349  1
  O  O102  1  0.34020524  0.51055448  0.23911480  1
  O  O103  1  0.83967714  0.52061394  0.24583793  1
  O  O104  1  0.42238842  0.32108054  0.23631574  1
  O  O105  1  0.92320460  0.32410355  0.24330855  1
  O  O106  1  0.24647507  0.16074301  0.23289618  1
  O  O107  1  0.74140209  0.14736615  0.24423906  1
  O  O108  1  0.33215849  0.51415001  0.92245071  1
  O  O109  1  0.81871643  0.50342966  0.91558674  1
  O  O110  1  0.44295700  0.36196288  0.91754628  1
  O  O111  1  0.93771935  0.34967069  0.92717269  1
  O  O112  1  0.25043916  0.14133054  0.92026135  1
  O  O113  1  0.75280198  0.13334964  0.91545344  1
  O  O114  1  0.31784407  0.13466765  0.41494518  1
  O  O115  1  0.83153053  0.15410356  0.42260440  1
  O  O116  1  0.25370592  0.37374692  0.41452199  1
  O  O117  1  0.74919784  0.35346855  0.41779533  1
  O  O118  1  0.43658162  0.52232118  0.42502714  1
  O  O119  1  0.94468532  0.52021008  0.41490916  1
  O  O120  1  0.17838002  0.50989176  0.08026324  1
  O  O121  1  0.66403267  0.49375144  0.07391339  1
  O  O122  1  0.08615496  0.68787417  0.07432610  1
  O  O123  1  0.58174936  0.67656898  0.08122047  1
  O  O124  1  0.25648271  0.86446515  0.08243388  1
  O  O125  1  0.75880901  0.84588413  0.07717416  1
  O  O126  1  0.16474992  0.83485074  0.57369565  1
  O  O127  1  0.67621671  0.84672719  0.57902764  1
  O  O128  1  0.25867799  0.67191108  0.57728440  1
  O  O129  1  0.75087342  0.64991567  0.58019011  1
  O  O130  1  0.08221535  0.49111247  0.58096259  1
  O  O131  1  0.58289270  0.48138735  0.57270653  1
  O  O132  1  0.15485459  0.82888338  0.25486997  1
  O  O133  1  0.64300622  0.81823296  0.24320756  1
  O  O134  1  0.25837100  0.66592991  0.25245576  1
  O  O135  1  0.76161950  0.69109957  0.24206375  1
  O  O136  1  0.08592059  0.48633864  0.25314886  1
  O  O137  1  0.56814441  0.45706829  0.24243605  1
  O  O138  1  0.14353448  0.46631025  0.74289219  1
  O  O139  1  0.65623317  0.48297906  0.75555606  1
  O  O140  1  0.06910432  0.67937635  0.74307960  1
  O  O141  1  0.58558049  0.68482948  0.75389794  1
  O  O142  1  0.26148002  0.83340056  0.74155126  1
  O  O143  1  0.75915222  0.85502459  0.75321651  1
loop_
_geom_bond_atom_site_label_1
_geom_bond_atom_site_label_2
_geom_bond_distance
_geom_bond_site_symmetry_2
Na0 O107 2.463404 1_555
Na0 O63 2.593637 1_545
Na0 O105 2.596921 1_555
Na0 O135 2.727569 1_545
Na0 O33 2.951897 1_555
Na0 O133 3.004297 1_545
Na0 O5 3.044336 1_555
Na1 O136 2.580677 1_555
Na1 O134 2.595214 1_555
Na1 O64 2.758849 1_555
Na1 O102 2.759468 1_555
Na1 O0 2.791017 1_555
Na1 O106 2.817376 1_555
Na1 O20 2.892723 1_555
Na2 O103 2.393120 1_555
Na2 O65 2.607889 1_555
Na2 O107 2.674528 1_555
Na2 O135 2.677365 1_555
Na2 O35 2.708605 1_555
Na2 O137 2.935935 1_555
Na3 O105 2.522381 1_555
Na3 O31 2.524379 1_555
Na3 O132 2.627037 1_655
Na3 O136 2.639432 1_655
Na3 O103 2.665699 1_555
Na4 O133 2.390290 1_555
Na4 O102 2.634124 1_555
Na4 O104 2.722194 1_555
Na4 O137 2.742776 1_555
Na4 O30 2.811433 1_555
Na4 O61 2.892220 1_555
Na4 O2 2.894956 1_555
Na5 O98 2.456895 1_555
Na5 O100 2.593917 1_555
Na5 O142 2.723424 1_555
Na5 O70 2.762382 1_555
Na5 O28 2.844899 1_555
Na6 O138 2.448166 1_655
Na6 O25 2.557509 1_555
Na6 O97 2.585359 1_555
Na6 O101 2.678528 1_555
Na6 O140 2.764532 1_655
Na7 O24 2.464000 1_555
Na7 O100 2.538630 1_555
Na7 O141 2.617653 1_555
Na7 O139 2.624731 1_555
Na7 O96 2.700924 1_555
Na8 O96 2.427939 1_555
Na8 O26 2.605318 1_555
Na8 O98 2.649627 1_555
Na8 O142 2.681017 1_545
Na8 O68 2.784996 1_545
Na8 O140 2.905212 1_545
Na9 O143 2.522753 1_545
Na9 O97 2.628253 1_555
Na9 O141 2.661356 1_545
Na9 O99 2.675073 1_555
Na9 O27 2.874113 1_555
Na9 O17 2.927413 1_545
Na9 O69 2.960099 1_545
Na9 O7 3.003787 1_555
Na10 O85 2.399740 1_455
Na10 O130 2.488205 1_555
Na10 O86 2.607958 1_555
Na10 O42 2.838532 1_555
Na10 O56 2.873488 1_555
Na11 O131 2.461365 1_555
Na11 O84 2.546365 1_555
Na11 O129 2.682213 1_555
Na11 O87 2.722260 1_555
Na11 O43 2.883793 1_555
Na11 O29 2.943496 1_555
Na11 O15 2.951079 1_555
Na11 O57 2.996004 1_555
Na12 O88 2.545557 1_555
Na12 O128 2.650601 1_555
Na12 O84 2.712070 1_565
Na12 O26 2.782352 1_565
Na12 O46 2.841483 1_565
Na12 O12 2.849715 1_555
Na12 O126 2.856659 1_555
Na12 O54 2.990494 1_555
Na13 O89 2.457126 1_555
Na13 O127 2.620596 1_555
Na13 O129 2.666629 1_555
Na13 O85 2.750574 1_565
Na13 O55 2.894241 1_555
Na13 O13 2.933329 1_555
Na13 O27 2.971339 1_565
Na13 O47 3.051890 1_565
Na14 O91 2.415139 1_555
Na14 O122 2.435926 1_555
Na14 O94 2.611192 1_565
Na14 O124 2.813565 1_555
Na14 O36 2.885100 1_565
Na14 O22 2.892866 1_555
Na14 O52 2.960998 1_554
Na15 O123 2.457973 1_555
Na15 O90 2.522918 1_555
Na15 O95 2.731870 1_565
Na15 O53 2.746030 1_554
Na15 O37 2.756180 1_565
Na15 O125 2.959588 1_555
Na15 O23 3.040598 1_555
Na16 O120 2.575885 1_555
Na16 O92 2.602543 1_555
Na16 O90 2.675555 1_555
Na16 O124 2.785304 1_555
Na16 O48 2.823738 1_554
Na16 O34 2.884394 1_555
Na16 O18 2.889776 1_555
Na16 O38 2.926101 1_555
Na17 O93 2.535751 1_555
Na17 O125 2.641257 1_555
Na17 O91 2.717746 1_655
Na17 O19 2.759215 1_555
Na17 O35 2.845796 1_555
Na17 O121 2.875433 1_555
Na17 O39 2.920134 1_555
Na17 O49 2.995607 1_554
Na18 O8 2.412373 1_555
Na18 O108 2.449670 1_555
Na18 O81 2.563220 1_555
Na18 O82 2.629905 1_555
Na18 O38 2.693502 1_556
Na18 O110 2.731982 1_555
Na19 O39 2.457035 1_556
Na19 O80 2.498045 1_655
Na19 O83 2.577845 1_555
Na19 O109 2.664826 1_555
Na19 O111 2.856538 1_555
Na19 O9 2.953079 1_555
Na20 O10 2.420886 1_555
Na20 O82 2.516679 1_545
Na20 O112 2.555331 1_555
Na20 O110 2.876393 1_555
Na20 O40 2.939251 1_556
Na21 O113 2.428514 1_555
Na21 O11 2.435415 1_555
Na21 O83 2.515850 1_545
Na21 O111 2.806687 1_555
Na22 O6 2.493440 1_555
Na22 O112 2.515095 1_555
Na22 O80 2.659430 1_545
Na22 O108 2.673136 1_555
Na22 O36 2.727449 1_556
Na22 O78 2.736455 1_555
Na23 O7 2.385787 1_555
Na23 O109 2.547015 1_555
Na23 O81 2.554204 1_545
Na23 O79 2.583696 1_555
Na23 O113 2.638582 1_555
Na23 O37 2.902357 1_556
Na24 O46 2.401014 1_555
Na24 O77 2.476291 1_555
Na24 O74 2.671445 1_545
Na24 O114 2.780398 1_555
Na24 O118 2.829126 1_555
Na25 O115 2.419112 1_555
Na25 O47 2.547036 1_555
Na25 O75 2.552645 1_545
Na25 O5 2.595423 1_555
Na25 O76 2.599782 1_655
Na25 O119 2.682594 1_555
Na26 O76 2.499675 1_555
Na26 O0 2.530482 1_555
Na26 O72 2.551715 1_545
Na26 O114 2.559251 1_555
Na26 O116 2.650997 1_555
Na26 O42 2.798908 1_555
Na27 O117 2.446241 1_555
Na27 O43 2.522773 1_555
Na27 O115 2.589535 1_555
Na27 O77 2.684678 1_555
Na27 O1 2.759302 1_555
Na27 O73 2.815774 1_545
Na28 O116 2.430573 1_555
Na28 O74 2.493677 1_555
Na28 O2 2.614962 1_555
Na28 O118 2.773579 1_555
Na28 O73 2.851366 1_555
Na28 O44 2.871417 1_555
Na29 O45 2.336888 1_555
Na29 O75 2.520304 1_555
Na29 O117 2.587255 1_555
Na29 O3 2.859808 1_555
Na29 O119 2.909643 1_555
Na29 O72 3.003570 1_655
Na30 O75 2.453779 1_555
Na30 O76 2.686526 1_665
Na30 O86 2.699158 1_665
Na30 O89 2.712643 1_555
Na30 O85 2.728532 1_565
Na30 O72 2.843805 1_655
Na31 O84 2.409222 1_555
Na31 O77 2.440673 1_555
Na31 O87 2.665392 1_555
Na31 O88 2.739793 1_545
Na31 O73 2.769943 1_545
Na31 O74 2.808801 1_545
Na32 O91 2.425948 1_555
Na32 O80 2.438311 1_554
Na32 O83 2.701457 1_454
Na32 O78 2.722599 1_564
Na32 O93 2.733600 1_455
Na32 O94 2.755314 1_565
Na33 O82 2.412532 1_555
Na33 O81 2.425331 1_555
Na33 O95 2.736973 1_566
Na33 O79 2.755541 1_565
Na33 O90 2.757755 1_556
Na34 O98 2.466837 1_555
Na34 O96 2.507117 1_555
Na34 O100 2.560718 1_555
Na34 O112 2.818362 1_555
Na34 O108 2.847177 1_555
Na34 O110 3.006651 1_555
Na35 O99 2.452401 1_555
Na35 O97 2.597603 1_555
Na35 O113 2.632631 1_555
Na35 O109 2.676940 1_555
Na35 O101 2.821915 1_555
Na36 O114 2.459239 1_555
Na36 O116 2.460425 1_555
Na36 O106 2.717892 1_555
Na36 O102 2.863370 1_555
Na37 O117 2.595442 1_555
Na37 O107 2.620194 1_555
Na37 O115 2.655167 1_555
Na37 O103 2.694671 1_555
Na37 O105 2.737904 1_555
Na37 O119 2.847098 1_555
Na38 O136 2.432689 1_555
Na38 O120 2.593999 1_555
Na38 O132 2.643028 1_555
Na38 O122 2.654498 1_555
Na38 O134 2.744113 1_555
Na38 O124 2.830091 1_555
Na39 O135 2.465647 1_555
Na39 O133 2.494510 1_555
Na39 O137 2.558351 1_555
Na39 O123 2.588581 1_555
Na39 O121 2.666447 1_555
Na39 O125 2.751907 1_555
Na40 O142 2.511636 1_555
Na40 O130 2.525968 1_555
Na40 O138 2.533002 1_555
Na40 O140 2.565562 1_555
Na40 O126 2.630745 1_555
Na40 O128 2.734568 1_555
Na41 O127 2.551886 1_555
Na41 O141 2.610232 1_555
Na41 O129 2.620105 1_555
Na41 O131 2.661749 1_555
Na41 O139 2.706780 1_555
Na41 O143 2.791444 1_555
La0 O5 2.231616 1_455
La0 O3 2.271387 1_445
La0 O0 2.423074 1_555
La0 O76 2.441986 1_555
La0 O75 2.448788 1_445
La0 O72 2.612498 1_545
La1 O1 2.258718 1_555
La1 O2 2.338678 1_545
La1 O74 2.403254 1_545
La1 O77 2.414074 1_555
La1 O4 2.470133 1_555
La1 O73 2.587005 1_545
La2 O6 2.259695 1_665
La2 O11 2.302970 1_565
La2 O83 2.431750 1_555
La2 O9 2.453006 1_555
La2 O80 2.492273 1_655
La2 O78 2.636854 1_665
La3 O8 2.231426 1_555
La3 O10 2.289253 1_565
La3 O7 2.359150 1_565
La3 O81 2.465801 1_555
La3 O82 2.496558 1_555
La3 O79 2.646726 1_565
La4 O24 2.279058 1_555
La4 O26 2.324987 1_555
La4 O96 2.329919 1_555
La4 O100 2.343103 1_555
La4 O98 2.429634 1_555
La4 O28 2.507628 1_555
La5 O31 2.301057 1_555
La5 O103 2.305957 1_555
La5 O105 2.326551 1_555
La5 O35 2.344872 1_555
La5 O107 2.413590 1_555
La5 O33 2.516960 1_555
La6 O36 2.277429 1_556
La6 O108 2.285121 1_555
La6 O38 2.308382 1_556
La6 O112 2.375982 1_555
La6 O40 2.531098 1_556
La6 O110 2.617523 1_555
La7 O37 2.258987 1_556
La7 O109 2.345294 1_555
La7 O39 2.347174 1_556
La7 O113 2.409287 1_555
La7 O111 2.506934 1_555
La7 O41 2.557434 1_556
La8 O42 2.235778 1_555
La8 O46 2.325215 1_555
La8 O114 2.363577 1_555
La8 O116 2.433566 1_555
La8 O118 2.501208 1_555
La8 O44 2.551291 1_555
La9 O43 2.313945 1_555
La9 O47 2.330990 1_555
La9 O45 2.340474 1_555
La9 O115 2.387299 1_555
La9 O117 2.438300 1_555
La9 O119 2.691688 1_555
La10 O63 2.213274 1_555
La10 O65 2.269577 1_555
La10 O135 2.345448 1_555
La10 O133 2.443898 1_555
La10 O61 2.488392 1_555
La10 O137 2.697018 1_555
La11 O70 2.227901 1_555
La11 O68 2.278966 1_555
La11 O142 2.329344 1_555
La11 O138 2.400602 1_555
La11 O66 2.485315 1_555
La11 O140 2.620415 1_555
O0 Si0 1.632718 1_555
O1 Si1 1.637375 1_545
O2 Si2 1.624791 1_555
O3 Si3 1.631748 1_555
O4 S0 1.482576 1_555
O5 Si4 1.628636 1_655
O6 Si5 1.654133 1_555
O7 Si6 1.637332 1_555
O8 Si7 1.636940 1_555
O9 S1 1.492952 1_555
O10 Si8 1.641260 1_555
O11 Si9 1.639172 1_555
O12 Si8 1.656851 1_565
O12 Zr1 2.068010 1_565
O13 Si9 1.635802 1_565
O13 Zr0 2.086459 1_565
O14 Si5 1.656725 1_555
O14 Zr0 2.068293 1_455
O15 Si6 1.667013 1_555
O15 Zr1 2.011784 1_555
O16 S1 1.473300 1_555
O16 Zr0 2.263916 1_565
O17 Si7 1.659618 1_555
O17 Zr1 2.065566 1_565
O18 Si2 1.639561 1_555
O18 Zr3 2.085859 1_555
O19 Si3 1.664889 1_555
O19 Zr2 2.055493 1_665
O20 Si4 1.665944 1_555
O20 Zr2 2.049561 1_555
O21 S0 1.484323 1_555
O21 Zr3 2.236966 1_545
O22 Si0 1.667935 1_565
O22 Zr2 2.011353 1_565
O23 Si1 1.684066 1_555
O23 Zr3 1.972348 1_555
O24 Si10 1.622855 1_555
O25 Si11 1.651818 1_555
O25 Zr4 2.116987 1_555
O26 Si12 1.635829 1_555
O27 Si13 1.683827 1_555
O27 Zr4 2.025862 1_555
O28 S2 1.483208 1_555
O29 Si14 1.657551 1_555
O29 Zr4 2.045944 1_555
O30 Si15 1.655443 1_555
O30 Zr5 2.095120 1_555
O31 Si16 1.618271 1_555
O32 S3 1.486630 1_555
O32 Zr5 2.356757 1_555
O33 S4 1.481984 1_555
O34 Si17 1.687977 1_555
O34 Zr5 2.010859 1_555
O35 Si18 1.629738 1_555
O36 Si17 1.632697 1_555
O37 Si18 1.652356 1_555
O38 Si15 1.622682 1_555
O39 Si16 1.651727 1_555
O40 S3 1.471320 1_555
O41 S4 1.476664 1_555
O42 Si12 1.653698 1_555
O43 Si13 1.630887 1_555
O44 S2 1.477637 1_555
O45 Si14 1.619019 1_555
O46 Si10 1.653749 1_555
O47 Si11 1.620061 1_555
O48 Si19 1.674859 1_555
O48 Zr6 2.046310 1_556
O49 Si20 1.657881 1_555
O49 Zr7 2.040587 1_556
O50 S5 1.498563 1_555
O50 Zr6 2.171115 1_556
O51 S6 1.494357 1_555
O51 Zr7 2.133706 1_556
O52 Si21 1.677364 1_555
O52 Zr6 2.033343 1_556
O53 Si22 1.666060 1_555
O53 Zr7 2.049529 1_556
O54 Si23 1.651756 1_555
O54 Zr8 2.053801 1_555
O55 Si24 1.664814 1_555
O55 Zr9 2.058667 1_555
O56 Si25 1.661085 1_555
O56 Zr8 2.048271 1_555
O57 Si26 1.663577 1_555
O57 Zr9 2.064234 1_555
O58 S7 1.493435 1_555
O58 Zr8 2.128467 1_555
O59 S8 1.477603 1_555
O59 Zr9 2.342633 1_555
O60 S7 1.482867 1_555
O60 Zr10 2.332088 1_555
O61 S8 1.488420 1_555
O62 Si23 1.650135 1_555
O62 Zr10 2.011250 1_555
O63 Si24 1.648620 1_555
O64 Si25 1.662552 1_555
O64 Zr10 2.070871 1_555
O65 Si26 1.644928 1_555
O66 S5 1.474753 1_555
O67 S6 1.473780 1_555
O67 Zr11 2.410359 1_555
O68 Si21 1.634276 1_555
O69 Si22 1.653603 1_555
O69 Zr11 2.080519 1_555
O70 Si19 1.637191 1_555
O71 Si20 1.642283 1_555
O71 Zr11 2.028560 1_555
O72 S7 1.486603 1_555
O73 S8 1.485880 1_555
O74 Si23 1.640143 1_555
O75 Si24 1.650628 1_555
O76 Si25 1.635479 1_555
O77 Si26 1.661815 1_555
O78 S5 1.479177 1_555
O79 S6 1.486579 1_555
O80 Si21 1.651750 1_555
O81 Si22 1.641054 1_555
O82 Si19 1.643227 1_555
O83 Si20 1.643003 1_555
O84 Si10 1.665194 1_555
O84 Zr1 2.164972 1_555
O85 Si11 1.667968 1_555
O85 Zr0 2.046151 1_555
O86 Si12 1.638729 1_555
O86 Zr0 2.091152 1_455
O87 Si13 1.634935 1_555
O87 Zr1 2.080103 1_555
O88 S2 1.473067 1_555
O88 Zr1 2.490678 1_565
O89 Si14 1.633330 1_555
O89 Zr0 2.082420 1_565
O90 Si15 1.679682 1_555
O90 Zr3 2.043474 1_555
O91 Si16 1.666656 1_455
O91 Zr2 2.189445 1_565
O92 S3 1.481911 1_565
O92 Zr3 2.319541 1_555
O93 S4 1.475008 1_565
O93 Zr2 2.476292 1_665
O94 Si17 1.626239 1_555
O94 Zr2 2.107069 1_555
O95 Si18 1.655571 1_555
O95 Zr3 2.063852 1_545
O96 Si8 1.639277 1_555
O97 Si9 1.655719 1_555
O97 Zr4 2.170269 1_555
O98 Si5 1.639802 1_555
O99 Si6 1.648497 1_555
O99 Zr4 2.117237 1_555
O100 Si7 1.627873 1_555
O101 S1 1.480617 1_555
O101 Zr4 2.341946 1_555
O102 Si2 1.679287 1_555
O102 Zr5 2.021188 1_555
O103 Si3 1.639009 1_555
O104 S0 1.483515 1_555
O104 Zr5 2.279554 1_555
O105 Si4 1.624789 1_655
O106 Si0 1.660004 1_555
O106 Zr5 2.063106 1_555
O107 Si1 1.628016 1_545
O108 Si19 1.645551 1_555
O109 Si20 1.652080 1_555
O110 S6 1.482775 1_555
O111 S5 1.480176 1_655
O112 Si21 1.646861 1_545
O113 Si22 1.655531 1_545
O114 Si23 1.651183 1_545
O115 Si24 1.640177 1_545
O116 Si25 1.656527 1_555
O117 Si26 1.640891 1_555
O118 S8 1.488925 1_555
O119 S7 1.471443 1_655
O120 Si17 1.651546 1_555
O120 Zr6 2.163030 1_555
O121 Si18 1.645647 1_555
O121 Zr7 2.056335 1_555
O122 Si16 1.665295 1_455
O122 Zr6 2.081325 1_555
O123 Si15 1.646643 1_555
O123 Zr7 2.183750 1_555
O124 S3 1.506368 1_565
O124 Zr6 2.319921 1_555
O125 S4 1.509823 1_565
O125 Zr7 2.232747 1_555
O126 Si12 1.645629 1_565
O126 Zr8 2.055517 1_555
O127 Si13 1.642124 1_565
O127 Zr9 2.159056 1_555
O128 S2 1.508027 1_555
O128 Zr8 2.238564 1_555
O129 Si14 1.669590 1_555
O129 Zr9 2.061014 1_555
O130 Si11 1.657690 1_455
O130 Zr8 2.153253 1_555
O131 Si10 1.641340 1_555
O131 Zr9 2.096730 1_555
O132 Si0 1.643715 1_565
O132 Zr10 2.146787 1_555
O133 Si1 1.637759 1_555
O134 Si2 1.643012 1_555
O134 Zr10 2.059520 1_555
O135 Si3 1.651078 1_555
O136 Si4 1.656455 1_555
O136 Zr10 2.183063 1_555
O137 S0 1.483249 1_555
O138 Si5 1.647247 1_555
O139 Si6 1.645334 1_555
O139 Zr11 2.129135 1_555
O140 S1 1.488482 1_455
O141 Si7 1.654580 1_555
O141 Zr11 2.160994 1_555
O142 Si8 1.651797 1_565
O143 Si9 1.658038 1_565
O143 Zr11 2.035759 1_555
