# generated using pymatgen
data_LaMgCoO3
_symmetry_space_group_name_H-M   'P 1'
_cell_length_a   4.52145363
_cell_length_b   4.52145363
_cell_length_c   4.52145363
_cell_angle_alpha   98.84038280
_cell_angle_beta   98.84038280
_cell_angle_gamma   81.15961720
_symmetry_Int_Tables_number   1
_chemical_formula_structural   LaMgCoO3
_chemical_formula_sum   'La1 Mg1 Co1 O3'
_cell_volume   89.44705060
_cell_formula_units_Z   1
loop_
 _symmetry_equiv_pos_site_id
 _symmetry_equiv_pos_as_xyz
  1  'x, y, z'
loop_
 _atom_site_type_symbol
 _atom_site_label
 _atom_site_symmetry_multiplicity
 _atom_site_fract_x
 _atom_site_fract_y
 _atom_site_fract_z
 _atom_site_occupancy
  La  La0  1  0.63808640  0.63808640  0.36191360  1
  Mg  Mg0  1  0.23680363  0.23680363  0.76319637  1
  Co  Co0  1  0.95811119  0.95811119  0.04188881  1
  O  O0  1  0.47336264  0.97181807  0.02818193  1
  O  O1  1  0.97181807  0.47336264  0.02818193  1
  O  O2  1  0.97181807  0.97181807  0.52663736  1
loop_
_geom_bond_atom_site_label_1
_geom_bond_atom_site_label_2
_geom_bond_distance
_geom_bond_site_symmetry_2
La0 O1 2.262205 1_555
La0 O2 2.262205 1_555
La0 O0 2.262205 1_555
Mg0 O2 1.915320 1_445
Mg0 O0 1.915320 1_546
Mg0 O1 1.915320 1_456
Co0 O0 2.174674 1_555
Co0 O2 2.174674 1_555
Co0 O1 2.174674 1_555
Co0 O2 2.350543 1_554
Co0 O1 2.350543 1_565
Co0 O0 2.350543 1_655
