# generated using pymatgen
data_NaMgGa3(SO4)6
_symmetry_space_group_name_H-M   'P 1'
_cell_length_a   8.49731849
_cell_length_b   8.49731824
_cell_length_c   22.08482750
_cell_angle_alpha   90.00000000
_cell_angle_beta   90.00000000
_cell_angle_gamma   120.00000103
_symmetry_Int_Tables_number   1
_chemical_formula_structural   NaMgGa3(SO4)6
_chemical_formula_sum   'Na3 Mg3 Ga9 S18 O72'
_cell_volume   1380.98327384
_cell_formula_units_Z   3
loop_
 _symmetry_equiv_pos_site_id
 _symmetry_equiv_pos_as_xyz
  1  'x, y, z'
loop_
 _atom_site_type_symbol
 _atom_site_label
 _atom_site_symmetry_multiplicity
 _atom_site_fract_x
 _atom_site_fract_y
 _atom_site_fract_z
 _atom_site_occupancy
  Na  Na0  1  -0.00000000  -0.00000000  0.99928335  1
  Na  Na1  1  0.66666700  0.33333300  0.83409904  1
  Na  Na2  1  0.66666700  0.33333300  0.33327598  1
  Mg  Mg0  1  -0.00000000  -0.00000000  0.35451420  1
  Mg  Mg1  1  -0.00000000  -0.00000000  0.85234587  1
  Mg  Mg2  1  0.66666700  0.33333300  0.98093570  1
  Ga  Ga0  1  -0.00000000  -0.00000000  0.64740964  1
  Ga  Ga1  1  -0.00000000  -0.00000000  0.14986048  1
  Ga  Ga2  1  0.66666700  0.33333300  0.68424203  1
  Ga  Ga3  1  0.66666700  0.33333300  0.18350959  1
  Ga  Ga4  1  0.66666700  0.33333300  0.48220392  1
  Ga  Ga5  1  0.33333300  0.66666700  0.02012636  1
  Ga  Ga6  1  0.33333300  0.66666700  0.51991491  1
  Ga  Ga7  1  0.33333300  0.66666700  0.31335447  1
  Ga  Ga8  1  0.33333300  0.66666700  0.81323350  1
  S  S0  1  0.29135027  0.99965989  0.25036491  1
  S  S1  1  0.70830962  0.70864973  0.25036491  1
  S  S2  1  0.00034011  0.29169038  0.25036491  1
  S  S3  1  0.29105182  0.29152560  0.74998539  1
  S  S4  1  0.00047378  0.70894818  0.74998539  1
  S  S5  1  0.70847440  0.99952622  0.74998539  1
  S  S6  1  0.95798219  0.33312755  0.58333389  1
  S  S7  1  0.37514636  0.04201781  0.58333389  1
  S  S8  1  0.66687245  0.62485364  0.58333389  1
  S  S9  1  0.95865482  0.62507023  0.08312975  1
  S  S10  1  0.66641641  0.04134518  0.08312975  1
  S  S11  1  0.37492977  0.33358359  0.08312975  1
  S  S12  1  0.62194466  0.66667378  0.91666494  1
  S  S13  1  0.04472812  0.37805534  0.91666494  1
  S  S14  1  0.33332622  0.95527188  0.91666494  1
  S  S15  1  0.62281383  0.95592645  0.41721429  1
  S  S16  1  0.33311162  0.37718617  0.41721429  1
  S  S17  1  0.04407355  0.66688838  0.41721429  1
  O  O0  1  0.21324534  0.03486895  0.30377479  1
  O  O1  1  0.82162361  0.78675466  0.30377479  1
  O  O2  1  0.96513105  0.17837639  0.30377479  1
  O  O3  1  0.21383137  0.17875141  0.80363471  1
  O  O4  1  0.96492004  0.78616863  0.80363471  1
  O  O5  1  0.82124859  0.03507996  0.80363471  1
  O  O6  1  0.78784043  0.96671754  0.69467439  1
  O  O7  1  0.17887712  0.21215957  0.69467439  1
  O  O8  1  0.03328246  0.82112288  0.69467439  1
  O  O9  1  0.78690138  0.82044262  0.19484822  1
  O  O10  1  0.03354125  0.21309862  0.19484822  1
  O  O11  1  0.17955738  0.96645875  0.19484822  1
  O  O12  1  0.87783933  0.36867265  0.63776495  1
  O  O13  1  0.49083432  0.12216067  0.63776495  1
  O  O14  1  0.63132735  0.50916568  0.63776495  1
  O  O15  1  0.87955528  0.51276703  0.13848980  1
  O  O16  1  0.63321274  0.12044472  0.13848980  1
  O  O17  1  0.48723297  0.36678726  0.13848980  1
  O  O18  1  0.45288340  0.29828812  0.02962568  1
  O  O19  1  0.84540572  0.54711660  0.02962568  1
  O  O20  1  0.70171188  0.15459428  0.02962568  1
  O  O21  1  0.45538139  0.15761242  0.52883186  1
  O  O22  1  0.70223203  0.54461861  0.52883186  1
  O  O23  1  0.84238758  0.29776797  0.52883186  1
  O  O24  1  0.54126176  0.69984063  0.97173629  1
  O  O25  1  0.15857787  0.45873824  0.97173629  1
  O  O26  1  0.30015937  0.84142213  0.97173629  1
  O  O27  1  0.54028352  0.84326901  0.47196752  1
  O  O28  1  0.30298449  0.45971648  0.47196752  1
  O  O29  1  0.15673099  0.69701551  0.47196752  1
  O  O30  1  0.12178951  0.62823447  0.36231484  1
  O  O31  1  0.50644396  0.87821049  0.36231484  1
  O  O32  1  0.37176553  0.49355604  0.36231484  1
  O  O33  1  0.12538390  0.49189985  0.86157659  1
  O  O34  1  0.36651495  0.87461610  0.86157659  1
  O  O35  1  0.50810015  0.63348505  0.86157659  1
  O  O36  1  0.02482748  0.82505367  0.40928854  1
  O  O37  1  0.80022619  0.97517252  0.40928854  1
  O  O38  1  0.17494632  0.19977381  0.40928854  1
  O  O39  1  0.02785909  0.19837562  0.91032764  1
  O  O40  1  0.17051653  0.97214091  0.91032764  1
  O  O41  1  0.80162438  0.82948347  0.91032764  1
  O  O42  1  0.97500419  0.17005724  0.59164798  1
  O  O43  1  0.19505306  0.02499581  0.59164798  1
  O  O44  1  0.82994276  0.80494694  0.59164798  1
  O  O45  1  0.97728999  0.80891715  0.09125956  1
  O  O46  1  0.83162716  0.02271001  0.09125956  1
  O  O47  1  0.19108285  0.16837284  0.09125956  1
  O  O48  1  0.68949577  0.16489504  0.74199929  1
  O  O49  1  0.47540027  0.31050423  0.74199929  1
  O  O50  1  0.83510496  0.52459973  0.74199929  1
  O  O51  1  0.68924929  0.52449352  0.24211672  1
  O  O52  1  0.83524523  0.31075071  0.24211672  1
  O  O53  1  0.47550648  0.16475477  0.24211672  1
  O  O54  1  0.63878904  0.50387001  0.92298885  1
  O  O55  1  0.86508197  0.36121096  0.92298885  1
  O  O56  1  0.49612999  0.13491803  0.92298885  1
  O  O57  1  0.63851128  0.13946725  0.42405254  1
  O  O58  1  0.50095697  0.36148872  0.42405254  1
  O  O59  1  0.86053275  0.49904303  0.42405254  1
  O  O60  1  0.35590237  0.49612592  0.07600791  1
  O  O61  1  0.14022255  0.64409763  0.07600791  1
  O  O62  1  0.50387408  0.85977745  0.07600791  1
  O  O63  1  0.35814288  0.86193537  0.57512681  1
  O  O64  1  0.50379149  0.64185712  0.57512681  1
  O  O65  1  0.13806463  0.49620851  0.57512681  1
  O  O66  1  0.31058999  0.83698444  0.25748401  1
  O  O67  1  0.52639344  0.68941001  0.25748401  1
  O  O68  1  0.16301556  0.47360656  0.25748401  1
  O  O69  1  0.31068305  0.47339045  0.75721963  1
  O  O70  1  0.16270640  0.68931695  0.75721963  1
  O  O71  1  0.52660955  0.83729360  0.75721963  1
loop_
_geom_bond_atom_site_label_1
_geom_bond_atom_site_label_2
_geom_bond_distance
_geom_bond_site_symmetry_2
Na0 O39 2.521506 1_555
Na0 O41 2.521506 1_445
Na0 O40 2.521506 1_545
Na0 O45 2.546837 1_446
Na0 O47 2.546837 1_556
Na0 O46 2.546837 1_456
Na1 O56 2.520541 1_555
Na1 O54 2.520541 1_555
Na1 O55 2.520541 1_555
Na1 O50 2.549705 1_555
Na1 O48 2.549705 1_555
Na1 O49 2.549705 1_555
Na2 O57 2.529032 1_555
Na2 O59 2.529032 1_555
Na2 O58 2.529032 1_555
Na2 O51 2.533134 1_555
Na2 O53 2.533134 1_555
Na2 O52 2.533134 1_555
Mg0 O38 2.007825 1_555
Mg0 O36 2.007825 1_545
Mg0 O37 2.007825 1_445
Mg0 O1 2.022369 1_445
Mg0 O2 2.022369 1_455
Mg0 O0 2.022369 1_555
Mg1 O4 2.001499 1_445
Mg1 O3 2.001499 1_555
Mg1 O5 2.001499 1_455
Mg1 O39 2.034250 1_555
Mg1 O41 2.034250 1_445
Mg1 O40 2.034250 1_545
Mg2 O19 2.001000 1_556
Mg2 O20 2.001000 1_556
Mg2 O18 2.001000 1_556
Mg2 O56 2.033975 1_555
Mg2 O54 2.033975 1_555
Mg2 O55 2.033975 1_555
Ga0 O7 1.977312 1_555
Ga0 O6 1.977313 1_445
Ga0 O8 1.977313 1_545
Ga0 O42 1.989147 1_455
Ga0 O44 1.989147 1_445
Ga0 O43 1.989147 1_555
Ga1 O10 1.957333 1_555
Ga1 O9 1.957333 1_445
Ga1 O11 1.957334 1_545
Ga1 O45 2.008784 1_445
Ga1 O47 2.008784 1_555
Ga1 O46 2.008784 1_455
Ga2 O13 1.955703 1_555
Ga2 O14 1.955703 1_555
Ga2 O12 1.955703 1_555
Ga2 O50 1.997714 1_555
Ga2 O48 1.997714 1_555
Ga2 O49 1.997714 1_555
Ga3 O16 1.956404 1_555
Ga3 O15 1.956404 1_555
Ga3 O17 1.956404 1_555
Ga3 O51 2.009709 1_555
Ga3 O53 2.009709 1_555
Ga3 O52 2.009709 1_555
Ga4 O22 1.957679 1_555
Ga4 O21 1.957679 1_555
Ga4 O23 1.957679 1_555
Ga4 O57 2.006533 1_555
Ga4 O59 2.006533 1_555
Ga4 O58 2.006533 1_555
Ga5 O25 1.960922 1_554
Ga5 O26 1.960922 1_554
Ga5 O24 1.960922 1_554
Ga5 O62 1.984388 1_555
Ga5 O60 1.984388 1_555
Ga5 O61 1.984388 1_555
Ga6 O28 1.956198 1_555
Ga6 O27 1.956198 1_555
Ga6 O29 1.956198 1_555
Ga6 O63 1.983578 1_555
Ga6 O65 1.983578 1_555
Ga6 O64 1.983578 1_555
Ga7 O31 1.979894 1_555
Ga7 O32 1.979894 1_555
Ga7 O30 1.979894 1_555
Ga7 O68 1.983438 1_555
Ga7 O67 1.983438 1_555
Ga7 O66 1.983438 1_555
Ga8 O34 1.960478 1_555
Ga8 O33 1.960478 1_555
Ga8 O35 1.960478 1_555
Ga8 O69 1.987088 1_555
Ga8 O71 1.987088 1_555
Ga8 O70 1.987088 1_555
O0 S0 1.455981 1_545
O1 S1 1.455981 1_555
O2 S2 1.455981 1_655
O3 S3 1.457360 1_555
O4 S4 1.457360 1_655
O5 S5 1.457360 1_545
O6 S5 1.487512 1_555
O7 S3 1.487512 1_555
O8 S4 1.487512 1_555
O9 S1 1.489041 1_555
O10 S2 1.489041 1_555
O11 S0 1.489041 1_555
O12 S6 1.485167 1_555
O13 S7 1.485167 1_555
O14 S8 1.485167 1_555
O15 S9 1.488556 1_555
O16 S10 1.488556 1_555
O17 S11 1.488556 1_555
O18 S11 1.457268 1_555
O19 S9 1.457268 1_555
O20 S10 1.457268 1_555
O21 S7 1.486193 1_555
O22 S8 1.486193 1_555
O23 S6 1.486193 1_555
O24 S12 1.490611 1_555
O25 S13 1.490611 1_555
O26 S14 1.490611 1_555
O27 S15 1.482926 1_555
O28 S16 1.482926 1_555
O29 S17 1.482926 1_555
O30 S17 1.493622 1_555
O31 S15 1.493622 1_555
O32 S16 1.493622 1_555
O33 S13 1.490867 1_555
O34 S14 1.490867 1_555
O35 S12 1.490867 1_555
O36 S17 1.443421 1_555
O37 S15 1.443429 1_555
O38 S16 1.443426 1_555
O39 S13 1.467102 1_555
O40 S14 1.467093 1_555
O41 S12 1.467098 1_555
O42 S6 1.474827 1_555
O43 S7 1.474835 1_555
O44 S8 1.474832 1_555
O45 S9 1.500141 1_555
O46 S10 1.500133 1_555
O47 S11 1.500138 1_555
O48 S5 1.502760 1_545
O49 S3 1.502769 1_555
O50 S4 1.502765 1_655
O51 S1 1.501558 1_555
O52 S2 1.501549 1_655
O53 S0 1.501554 1_545
O54 S12 1.466896 1_555
O55 S13 1.466879 1_655
O56 S14 1.466886 1_545
O57 S15 1.504970 1_545
O58 S16 1.504987 1_555
O59 S17 1.504978 1_655
O60 S11 1.477102 1_555
O61 S9 1.477086 1_455
O62 S10 1.477093 1_565
O63 S7 1.474518 1_565
O64 S8 1.474535 1_555
O65 S6 1.474525 1_455
O66 S0 1.479257 1_555
O67 S1 1.479266 1_555
O68 S2 1.479262 1_555
O69 S3 1.477739 1_555
O70 S4 1.477731 1_555
O71 S5 1.477736 1_555
