# generated using pymatgen
data_FeB
_symmetry_space_group_name_H-M   'P 1'
_cell_length_a   2.90917576
_cell_length_b   4.04919325
_cell_length_c   5.46924527
_cell_angle_alpha   90.00630192
_cell_angle_beta   90.00000000
_cell_angle_gamma   90.00000000
_symmetry_Int_Tables_number   1
_chemical_formula_structural   FeB
_chemical_formula_sum   'Fe4 B4'
_cell_volume   64.42669618
_cell_formula_units_Z   4
loop_
 _symmetry_equiv_pos_site_id
 _symmetry_equiv_pos_as_xyz
  1  'x, y, z'
loop_
 _atom_site_type_symbol
 _atom_site_label
 _atom_site_symmetry_multiplicity
 _atom_site_fract_x
 _atom_site_fract_y
 _atom_site_fract_z
 _atom_site_occupancy
  Fe  Fe0  1  0.25000000  0.38200586  0.67919903  1
  Fe  Fe1  1  0.75000000  0.61799414  0.32080097  1
  Fe  Fe2  1  0.75000000  0.88193432  0.82064184  1
  Fe  Fe3  1  0.25000000  0.11806568  0.17935816  1
  B  B0  1  0.25000000  0.88646459  0.53511685  1
  B  B1  1  0.75000000  0.11353641  0.46488315  1
  B  B2  1  0.75000000  0.38646351  0.96488194  1
  B  B3  1  0.25000000  0.61353549  0.03511806  1
loop_
_geom_bond_atom_site_label_1
_geom_bond_atom_site_label_2
_geom_bond_distance
_geom_bond_site_symmetry_2
B0 B1 1.763195 1_565
B0 B1 1.763195 1_465
B0 Fe2 2.134194 1_455
B0 Fe2 2.134194 1_555
B0 Fe0 2.155653 1_565
B0 Fe3 2.160032 1_565
B0 Fe1 2.161304 1_555
B0 Fe1 2.161304 1_455
B0 Fe0 2.189464 1_555
B1 Fe3 2.134194 1_555
B1 Fe3 2.134194 1_655
B1 Fe1 2.155657 1_545
B1 Fe2 2.160033 1_545
B1 Fe0 2.161302 1_655
B1 Fe0 2.161302 1_555
B1 Fe1 2.189460 1_555
B2 B3 1.763155 1_556
B2 B3 1.763155 1_656
B2 Fe0 2.134820 1_655
B2 Fe0 2.134820 1_555
B2 Fe2 2.155865 1_555
B2 Fe1 2.160512 1_556
B2 Fe3 2.161761 1_656
B2 Fe3 2.161761 1_556
B2 Fe2 2.189880 1_545
B3 Fe1 2.134820 1_555
B3 Fe1 2.134820 1_455
B3 Fe3 2.155861 1_555
B3 Fe0 2.160510 1_554
B3 Fe2 2.161763 1_554
B3 Fe2 2.161763 1_454
B3 Fe3 2.189883 1_565
