# generated using pymatgen
data_Ti(Bi3O5)4
_symmetry_space_group_name_H-M   'P 1'
_cell_length_a   8.81599964
_cell_length_b   8.81602369
_cell_length_c   8.81602297
_cell_angle_alpha   109.47133544
_cell_angle_beta   109.47127317
_cell_angle_gamma   109.47111363
_symmetry_Int_Tables_number   1
_chemical_formula_structural   Ti(Bi3O5)4
_chemical_formula_sum   'Ti1 Bi12 O20'
_cell_volume   527.46641358
_cell_formula_units_Z   1
loop_
 _symmetry_equiv_pos_site_id
 _symmetry_equiv_pos_as_xyz
  1  'x, y, z'
loop_
 _atom_site_type_symbol
 _atom_site_label
 _atom_site_symmetry_multiplicity
 _atom_site_fract_x
 _atom_site_fract_y
 _atom_site_fract_z
 _atom_site_occupancy
  Ti  Ti0  1  -0.00000452  0.00000219  -0.00000062  1
  Bi  Bi0  1  0.19139459  0.69534652  0.85714042  1
  Bi  Bi1  1  0.83820847  0.33425289  0.14286131  1
  Bi  Bi2  1  0.80860632  0.66574675  0.50395286  1
  Bi  Bi3  1  0.14286068  0.83820887  0.33425521  1
  Bi  Bi4  1  0.69534620  0.85713867  0.19139271  1
  Bi  Bi5  1  0.30465329  0.49604571  0.16179249  1
  Bi  Bi6  1  0.49604582  0.16179173  0.30465390  1
  Bi  Bi7  1  0.33425415  0.14286161  0.83820785  1
  Bi  Bi8  1  0.50395531  0.80860895  0.66574439  1
  Bi  Bi9  1  0.66574596  0.50395361  0.80860787  1
  Bi  Bi10  1  0.85713798  0.19139161  0.69534623  1
  Bi  Bi11  1  0.16179271  0.30465352  0.49604633  1
  O  O0  1  0.79213667  0.00000046  0.00000028  1
  O  O1  1  0.20786618  0.20786638  0.20786606  1
  O  O2  1  0.00000070  0.79213113  -0.00000026  1
  O  O3  1  0.00000015  -0.00000043  0.79213074  1
  O  O4  1  0.38825751  -0.00000028  0.00000035  1
  O  O5  1  0.61174300  0.61174147  0.61174241  1
  O  O6  1  -0.00000027  0.38825812  -0.00000003  1
  O  O7  1  0.00000027  0.00000055  0.38825889  1
  O  O8  1  0.62066825  0.23716359  0.88059695  1
  O  O9  1  0.35656629  0.74007160  0.11940165  1
  O  O10  1  0.37933134  0.25992868  0.61649592  1
  O  O11  1  0.11940476  0.35656765  0.74007246  1
  O  O12  1  0.23716392  0.88059737  0.62066827  1
  O  O13  1  0.64343458  0.76283653  0.38350665  1
  O  O14  1  0.88059737  0.62066986  0.23716469  1
  O  O15  1  0.25992738  0.61649295  0.37933019  1
  O  O16  1  0.61649440  0.37933167  0.25992831  1
  O  O17  1  0.74007108  0.11940325  0.35656735  1
  O  O18  1  0.38350365  0.64343232  0.76283722  1
  O  O19  1  0.76283582  0.38350451  0.64343293  1
loop_
_geom_bond_atom_site_label_1
_geom_bond_atom_site_label_2
_geom_bond_distance
_geom_bond_site_symmetry_2
Bi0 O9 2.094421 1_556
Bi0 O18 2.229539 1_555
Bi0 O4 2.234298 1_566
Bi0 O11 2.575439 1_555
Bi0 O2 2.611793 1_556
Bi1 O8 2.094453 1_554
Bi1 O14 2.229582 1_555
Bi1 O6 2.234299 1_655
Bi1 O16 2.575457 1_555
Bi1 O0 2.611801 1_555
Bi2 O13 2.094421 1_555
Bi2 O16 2.229560 1_555
Bi2 O5 2.234297 1_555
Bi2 O14 2.575438 1_555
Bi2 O3 2.611791 1_665
Bi3 O14 2.094441 1_455
Bi3 O12 2.229550 1_555
Bi3 O7 2.234289 1_565
Bi3 O15 2.575464 1_555
Bi3 O2 2.611805 1_555
Bi4 O17 2.094453 1_565
Bi4 O13 2.229573 1_555
Bi4 O7 2.234302 1_665
Bi4 O9 2.575439 1_555
Bi4 O0 2.611821 1_565
Bi5 O15 2.094439 1_555
Bi5 O9 2.229577 1_555
Bi5 O6 2.234299 1_555
Bi5 O13 2.575453 1_555
Bi5 O1 2.611803 1_555
Bi6 O16 2.094460 1_555
Bi6 O17 2.229552 1_555
Bi6 O4 2.234301 1_555
Bi6 O19 2.575439 1_555
Bi6 O1 2.611802 1_555
Bi7 O12 2.094450 1_545
Bi7 O8 2.229554 1_555
Bi7 O4 2.234310 1_556
Bi7 O10 2.575443 1_555
Bi7 O3 2.611793 1_555
Bi8 O18 2.094496 1_555
Bi8 O15 2.229565 1_555
Bi8 O5 2.234311 1_555
Bi8 O12 2.575446 1_555
Bi8 O0 2.611817 1_566
Bi9 O19 2.094451 1_555
Bi9 O10 2.229557 1_555
Bi9 O5 2.234303 1_555
Bi9 O8 2.575446 1_555
Bi9 O2 2.611800 1_656
Bi10 O11 2.094466 1_655
Bi10 O19 2.229566 1_555
Bi10 O6 2.234304 1_656
Bi10 O17 2.575442 1_555
Bi10 O3 2.611795 1_655
Bi11 O10 2.094442 1_555
Bi11 O11 2.229561 1_555
Bi11 O7 2.234302 1_555
Bi11 O18 2.575441 1_555
Bi11 O1 2.611805 1_555
O0 Ti0 1.832481 1_655
O1 Ti0 1.832559 1_555
O2 Ti0 1.832613 1_565
O3 Ti0 1.832581 1_556
