# generated using pymatgen
data_Na4Hf2Nb2Si5SO24
_symmetry_space_group_name_H-M   'P 1'
_cell_length_a   9.04505489
_cell_length_b   9.05631721
_cell_length_c   22.77298703
_cell_angle_alpha   89.69423059
_cell_angle_beta   90.28727181
_cell_angle_gamma   119.96835505
_symmetry_Int_Tables_number   1
_chemical_formula_structural   Na4Hf2Nb2Si5SO24
_chemical_formula_sum   'Na12 Hf6 Nb6 Si15 S3 O72'
_cell_volume   1616.01013761
_cell_formula_units_Z   3
loop_
 _symmetry_equiv_pos_site_id
 _symmetry_equiv_pos_as_xyz
  1  'x, y, z'
loop_
 _atom_site_type_symbol
 _atom_site_label
 _atom_site_symmetry_multiplicity
 _atom_site_fract_x
 _atom_site_fract_y
 _atom_site_fract_z
 _atom_site_occupancy
  Na  Na0  1  0.64563429  0.00021566  0.25124390  1
  Na  Na1  1  0.99255443  0.35827223  0.74945039  1
  Na  Na2  1  0.29638907  0.33583789  0.58055610  1
  Na  Na3  1  0.66835926  0.96794063  0.57908537  1
  Na  Na4  1  0.02296551  0.33217762  0.08523209  1
  Na  Na5  1  0.96073592  0.66412133  0.91268864  1
  Na  Na6  1  0.99850809  0.99968932  0.49212474  1
  Na  Na7  1  0.97258044  0.98994730  0.00206037  1
  Na  Na8  1  0.64740897  0.32947445  0.83238688  1
  Na  Na9  1  0.65714863  0.34157084  0.33469597  1
  Na  Na10  1  0.32660599  0.68002511  0.16733657  1
  Na  Na11  1  0.32894546  0.68138159  0.66417149  1
  Hf  Hf0  1  0.00153873  0.00497930  0.35203657  1
  Hf  Hf1  1  0.99225827  0.00511702  0.85329979  1
  Hf  Hf2  1  0.99393960  0.98962585  0.14853111  1
  Hf  Hf3  1  0.67980157  0.34012667  0.97799373  1
  Hf  Hf4  1  0.34259608  0.67177246  0.02268823  1
  Hf  Hf5  1  0.33399467  0.66464329  0.52071276  1
  Nb  Nb0  1  0.99553728  0.99257853  0.64623762  1
  Nb  Nb1  1  0.66630730  0.33706035  0.68772691  1
  Nb  Nb2  1  0.67760422  0.33321503  0.19007285  1
  Nb  Nb3  1  0.65485717  0.32322378  0.47858511  1
  Nb  Nb4  1  0.34492288  0.66697382  0.31174454  1
  Nb  Nb5  1  0.33710658  0.65325241  0.80861172  1
  Si  Si0  1  0.28995122  0.00027444  0.25073527  1
  Si  Si1  1  0.71453631  0.70601712  0.25147618  1
  Si  Si2  1  0.01127840  0.29526510  0.24766292  1
  Si  Si3  1  0.28940045  0.27954462  0.74951492  1
  Si  Si4  1  0.00164121  0.71174533  0.75320540  1
  Si  Si5  1  0.70424560  0.99755015  0.74820637  1
  Si  Si6  1  0.95453348  0.33552167  0.58432465  1
  Si  Si7  1  0.37485339  0.04341663  0.58474213  1
  Si  Si8  1  0.67255557  0.62228206  0.58118653  1
  Si  Si9  1  0.95966604  0.62985325  0.08182393  1
  Si  Si10  1  0.66648728  0.04117009  0.08400853  1
  Si  Si11  1  0.62449986  0.66507133  0.91751537  1
  Si  Si12  1  0.04792202  0.37521816  0.91816783  1
  Si  Si13  1  0.62902885  0.95845313  0.41829100  1
  Si  Si14  1  0.33185882  0.37267458  0.41911227  1
  S  S0  1  0.37947741  0.33207381  0.08260632  1
  S  S1  1  0.33491615  0.95377113  0.91561064  1
  S  S2  1  0.04229132  0.66305658  0.41660382  1
  O  O0  1  0.20489803  0.03144935  0.30781543  1
  O  O1  1  0.82838568  0.78942857  0.30910430  1
  O  O2  1  0.96153792  0.16228039  0.30202883  1
  O  O3  1  0.20007851  0.16712094  0.80672600  1
  O  O4  1  0.97472860  0.79226845  0.81226036  1
  O  O5  1  0.83201785  0.03824560  0.80374770  1
  O  O6  1  0.79446580  0.97087145  0.68920431  1
  O  O7  1  0.16714124  0.19834529  0.69101707  1
  O  O8  1  0.02296408  0.83600051  0.69606000  1
  O  O9  1  0.79121467  0.83424297  0.19519852  1
  O  O10  1  0.03794409  0.21840156  0.18710788  1
  O  O11  1  0.17230674  0.96940184  0.19318586  1
  O  O12  1  0.86518859  0.35642180  0.64381841  1
  O  O13  1  0.50249766  0.14310946  0.63991565  1
  O  O14  1  0.64379642  0.50108654  0.63880249  1
  O  O15  1  0.84758093  0.49885937  0.13653033  1
  O  O16  1  0.64963613  0.13817586  0.14323052  1
  O  O17  1  0.47931390  0.35017279  0.13618223  1
  O  O18  1  0.46337048  0.31784307  0.02928198  1
  O  O19  1  0.84980597  0.54222870  0.02129465  1
  O  O20  1  0.68450674  0.16332413  0.02797668  1
  O  O21  1  0.46418491  0.16686074  0.52624064  1
  O  O22  1  0.69518332  0.52639583  0.52473353  1
  O  O23  1  0.82586755  0.30166924  0.52845197  1
  O  O24  1  0.53194483  0.69199256  0.97385937  1
  O  O25  1  0.15522620  0.47497484  0.97635602  1
  O  O26  1  0.31198090  0.84837791  0.96915937  1
  O  O27  1  0.53051953  0.85092394  0.47718096  1
  O  O28  1  0.31194606  0.46048270  0.47890405  1
  O  O29  1  0.14433715  0.68025384  0.47044335  1
  O  O30  1  0.12714795  0.64638200  0.36395952  1
  O  O31  1  0.50871677  0.86373381  0.35991805  1
  O  O32  1  0.34903261  0.49946212  0.36346591  1
  O  O33  1  0.14447282  0.49809898  0.85914543  1
  O  O34  1  0.35720461  0.87331428  0.86267365  1
  O  O35  1  0.50609039  0.65416303  0.85889864  1
  O  O36  1  0.02413882  0.81645568  0.41382991  1
  O  O37  1  0.81472535  0.97455981  0.41367637  1
  O  O38  1  0.17022433  0.18249819  0.41266915  1
  O  O39  1  0.03042042  0.18870704  0.91337072  1
  O  O40  1  0.17575997  0.96367195  0.91202567  1
  O  O41  1  0.81965857  0.82565572  0.91251066  1
  O  O42  1  0.96799361  0.15951191  0.58987642  1
  O  O43  1  0.19187142  0.03735227  0.59121310  1
  O  O44  1  0.83816797  0.81432043  0.58857092  1
  O  O45  1  0.98241432  0.81789259  0.08738643  1
  O  O46  1  0.84660503  0.03995348  0.08687543  1
  O  O47  1  0.20501288  0.18208951  0.08552909  1
  O  O48  1  0.69137935  0.17081732  0.74155679  1
  O  O49  1  0.48197850  0.31288034  0.74216214  1
  O  O50  1  0.83821047  0.51872161  0.74251926  1
  O  O51  1  0.68044439  0.51376607  0.24000470  1
  O  O52  1  0.83508261  0.31274236  0.24216258  1
  O  O53  1  0.48683586  0.16431577  0.24104193  1
  O  O54  1  0.63407101  0.48918170  0.91798183  1
  O  O55  1  0.85920417  0.36426683  0.91853452  1
  O  O56  1  0.48457803  0.12626567  0.92161626  1
  O  O57  1  0.64470866  0.15015491  0.42367047  1
  O  O58  1  0.51334941  0.36741916  0.42195303  1
  O  O59  1  0.87161991  0.50631308  0.42107301  1
  O  O60  1  0.35946191  0.48750314  0.07913026  1
  O  O61  1  0.14029723  0.62735749  0.08111046  1
  O  O62  1  0.49771268  0.85239455  0.08136283  1
  O  O63  1  0.36361566  0.86028694  0.57987896  1
  O  O64  1  0.50196383  0.64222802  0.57847749  1
  O  O65  1  0.14669374  0.49712505  0.57991996  1
  O  O66  1  0.32331955  0.83668347  0.25940140  1
  O  O67  1  0.52275178  0.68959400  0.25941276  1
  O  O68  1  0.16907262  0.48720246  0.26004060  1
  O  O69  1  0.30066860  0.46965853  0.75576398  1
  O  O70  1  0.16881496  0.68443373  0.75632015  1
  O  O71  1  0.51522694  0.83013914  0.75608956  1
loop_
_geom_bond_atom_site_label_1
_geom_bond_atom_site_label_2
_geom_bond_distance
_geom_bond_site_symmetry_2
Na0 O67 2.460945 1_545
Na0 O52 2.478282 1_555
Na0 O66 2.533012 1_545
Na0 O53 2.539922 1_555
Na0 O2 2.729738 1_555
Na0 O16 2.745141 1_555
Na0 O9 2.763497 1_545
Na0 O31 2.766783 1_545
Na1 O48 2.390277 1_555
Na1 O69 2.448273 1_655
Na1 O50 2.471292 1_555
Na1 O70 2.566902 1_655
Na1 O12 2.658479 1_555
Na1 O5 2.795120 1_555
Na1 O33 2.827208 1_655
Na1 O7 2.947677 1_655
Na2 O43 2.387896 1_555
Na2 O65 2.437728 1_555
Na2 O64 2.450303 1_555
Na2 O28 2.543538 1_555
Na2 O42 2.584961 1_455
Na2 O7 2.790483 1_555
Na2 O21 2.921423 1_555
Na2 O14 3.025646 1_555
Na3 O42 2.390806 1_565
Na3 O63 2.421618 1_555
Na3 O44 2.543526 1_555
Na3 O64 2.555656 1_555
Na3 O27 2.596195 1_555
Na3 O6 2.744502 1_555
Na3 O23 2.858569 1_565
Na4 O46 2.309071 1_455
Na4 O61 2.333523 1_555
Na4 O10 2.563852 1_555
Na4 O47 2.606684 1_555
Na4 O60 2.643212 1_555
Na4 O25 2.775079 1_554
Na4 O15 2.930818 1_455
Na4 O20 2.952094 1_455
Na5 O41 2.373450 1_555
Na5 O55 2.396110 1_555
Na5 O40 2.423019 1_655
Na5 O4 2.534031 1_555
Na5 O54 2.565089 1_555
Na5 O19 2.689174 1_556
Na6 O37 2.367134 1_555
Na6 O38 2.419636 1_665
Na6 O36 2.531127 1_655
Na6 O44 2.702929 1_555
Na6 O42 2.750696 1_565
Na6 O43 2.764036 1_665
Na7 O46 2.404381 1_565
Na7 O41 2.496767 1_554
Na7 O45 2.513167 1_555
Na7 O39 2.573732 1_664
Na7 O47 2.720561 1_665
Na7 O40 2.849189 1_654
Na8 O54 2.472422 1_555
Na8 O49 2.496223 1_555
Na8 O56 2.639566 1_555
Na8 O55 2.642701 1_555
Na8 O48 2.666865 1_555
Na8 O50 2.673419 1_555
Na9 O58 2.455645 1_555
Na9 O51 2.601299 1_555
Na9 O57 2.625498 1_555
Na9 O59 2.638196 1_555
Na9 O53 2.651760 1_555
Na9 O52 2.749295 1_555
Na10 O61 2.469198 1_555
Na10 O62 2.499901 1_555
Na10 O66 2.546356 1_555
Na10 O68 2.653613 1_555
Na10 O67 2.713472 1_555
Na10 O60 2.779251 1_555
Na11 O63 2.423538 1_555
Na11 O65 2.537230 1_555
Na11 O70 2.563863 1_555
Na11 O71 2.600497 1_555
Na11 O64 2.641139 1_555
Na11 O69 2.750524 1_555
Hf0 O2 1.987639 1_455
Hf0 O0 2.007602 1_555
Hf0 O1 2.042081 1_445
Hf0 O38 2.090722 1_555
Hf0 O37 2.110958 1_445
Hf0 O36 2.292853 1_545
Hf1 O5 1.969401 1_555
Hf1 O3 2.014711 1_655
Hf1 O39 2.049668 1_655
Hf1 O4 2.080080 1_545
Hf1 O41 2.088006 1_545
Hf1 O40 2.297623 1_645
Hf2 O9 1.974256 1_555
Hf2 O11 1.986785 1_655
Hf2 O45 2.056289 1_555
Hf2 O10 2.101163 1_665
Hf2 O46 2.129875 1_565
Hf2 O47 2.327609 1_665
Hf3 O19 1.969567 1_556
Hf3 O20 1.977212 1_556
Hf3 O55 2.044240 1_555
Hf3 O54 2.096067 1_555
Hf3 O18 2.205213 1_556
Hf3 O56 2.259353 1_555
Hf4 O24 1.976580 1_554
Hf4 O62 2.035033 1_555
Hf4 O25 2.036294 1_554
Hf4 O26 2.130497 1_554
Hf4 O61 2.136226 1_555
Hf4 O60 2.165590 1_555
Hf5 O27 1.998116 1_555
Hf5 O28 2.003341 1_555
Hf5 O64 2.089296 1_555
Hf5 O65 2.103104 1_555
Hf5 O29 2.119953 1_555
Hf5 O63 2.138730 1_555
Nb0 O8 1.921223 1_655
Nb0 O6 1.990565 1_555
Nb0 O7 2.009094 1_665
Nb0 O44 2.016198 1_555
Nb0 O43 2.045913 1_665
Nb0 O42 2.085037 1_565
Nb1 O14 1.942077 1_555
Nb1 O13 1.967299 1_555
Nb1 O12 1.991898 1_555
Nb1 O49 2.004380 1_555
Nb1 O50 2.031767 1_555
Nb1 O48 2.034569 1_555
Nb2 O52 1.927435 1_555
Nb2 O15 1.948331 1_555
Nb2 O16 1.973036 1_555
Nb2 O51 1.986172 1_555
Nb2 O53 2.007151 1_555
Nb2 O17 2.235539 1_555
Nb3 O21 1.928710 1_555
Nb3 O57 1.976113 1_555
Nb3 O58 1.987833 1_555
Nb3 O22 1.992329 1_555
Nb3 O23 2.000497 1_555
Nb3 O59 2.250227 1_555
Nb4 O32 1.930531 1_555
Nb4 O67 1.933092 1_555
Nb4 O31 1.985150 1_555
Nb4 O68 1.995375 1_555
Nb4 O66 2.024701 1_555
Nb4 O30 2.232242 1_555
Nb5 O35 1.902021 1_555
Nb5 O69 1.947170 1_555
Nb5 O33 1.972699 1_555
Nb5 O71 2.003235 1_555
Nb5 O70 2.054902 1_555
Nb5 O34 2.276539 1_555
O0 Si0 1.610028 1_555
O1 Si1 1.604134 1_555
O2 Si2 1.622976 1_655
O3 Si3 1.600444 1_555
O4 Si4 1.609594 1_655
O5 Si5 1.623608 1_545
O6 Si5 1.655642 1_555
O7 Si3 1.649724 1_555
O8 Si4 1.663465 1_555
O9 Si1 1.631092 1_555
O10 Si2 1.620413 1_555
O11 Si0 1.618882 1_565
O12 Si6 1.640442 1_555
O13 Si7 1.637987 1_555
O14 Si8 1.642177 1_555
O15 Si9 1.668113 1_555
O16 Si10 1.662044 1_555
O17 S0 1.474497 1_555
O18 S0 1.475019 1_555
O19 Si9 1.651476 1_555
O20 Si10 1.638744 1_555
O21 Si7 1.664343 1_555
O22 Si8 1.625071 1_555
O23 Si6 1.643238 1_555
O24 Si11 1.620096 1_555
O25 Si12 1.624195 1_555
O26 S1 1.494472 1_555
O27 Si13 1.634617 1_555
O28 Si14 1.635841 1_555
O29 S2 1.492169 1_555
O30 S2 1.475178 1_555
O31 Si13 1.658991 1_555
O32 Si14 1.660328 1_555
O33 Si12 1.683039 1_555
O34 S1 1.477647 1_555
O35 Si11 1.679318 1_555
O36 S2 1.479105 1_555
O37 Si13 1.615652 1_555
O38 Si14 1.615621 1_555
O39 Si12 1.620101 1_555
O40 S1 1.488215 1_555
O41 Si11 1.636927 1_555
O42 Si6 1.662293 1_555
O43 Si7 1.635719 1_555
O44 Si8 1.641571 1_555
O45 Si9 1.615667 1_555
O46 Si10 1.635681 1_555
O47 S0 1.482672 1_555
O48 Si5 1.636603 1_545
O49 Si3 1.621832 1_555
O50 Si4 1.649100 1_655
O51 Si1 1.631683 1_555
O52 Si2 1.682385 1_655
O53 Si0 1.668676 1_555
O54 Si11 1.637851 1_555
O55 Si12 1.659708 1_655
O56 S1 1.476250 1_545
O57 Si13 1.674908 1_545
O58 Si14 1.666804 1_555
O59 S2 1.489723 1_655
O60 S0 1.507876 1_555
O61 Si9 1.645388 1_455
O62 Si10 1.627777 1_565
O63 Si7 1.614493 1_565
O64 Si8 1.641556 1_555
O65 Si6 1.622291 1_455
O66 Si0 1.663727 1_565
O67 Si1 1.676029 1_555
O68 Si2 1.631153 1_555
O69 Si3 1.679928 1_555
O70 Si4 1.650766 1_555
O71 Si5 1.632313 1_555
