# generated using pymatgen
data_Fe2Re3
_symmetry_space_group_name_H-M   'P 1'
_cell_length_a   6.43676111
_cell_length_b   6.43623981
_cell_length_c   6.47231569
_cell_angle_alpha   89.99989599
_cell_angle_beta   89.99998101
_cell_angle_gamma   92.72157455
_symmetry_Int_Tables_number   1
_chemical_formula_structural   Fe2Re3
_chemical_formula_sum   'Fe8 Re12'
_cell_volume   267.83613485
_cell_formula_units_Z   4
loop_
 _symmetry_equiv_pos_site_id
 _symmetry_equiv_pos_as_xyz
  1  'x, y, z'
loop_
 _atom_site_type_symbol
 _atom_site_label
 _atom_site_symmetry_multiplicity
 _atom_site_fract_x
 _atom_site_fract_y
 _atom_site_fract_z
 _atom_site_occupancy
  Fe  Fe0  1  0.19049078  0.81340580  0.30814111  1
  Fe  Fe1  1  0.30950155  0.18659248  0.80814684  1
  Fe  Fe2  1  0.81445306  0.30714711  0.19291534  1
  Fe  Fe3  1  0.68555159  0.69285094  0.69291565  1
  Fe  Fe4  1  0.56344784  0.44051752  0.94186946  1
  Fe  Fe5  1  0.44291895  0.93552285  0.55711380  1
  Fe  Fe6  1  0.93655328  0.55947839  0.44186332  1
  Fe  Fe7  1  0.05707844  0.06447918  0.05711519  1
  Re  Re0  1  0.80257680  0.94748832  0.37503322  1
  Re  Re1  1  0.69743071  0.05251267  0.87503835  1
  Re  Re2  1  0.20032959  0.45035217  0.12500622  1
  Re  Re3  1  0.29966694  0.54965133  0.62500928  1
  Re  Re4  1  0.94724023  0.38654751  0.80459544  1
  Re  Re5  1  0.04956111  0.86696211  0.69728391  1
  Re  Re6  1  0.45043822  0.13303767  0.19728195  1
  Re  Re7  1  0.55275998  0.61344872  0.30459100  1
  Re  Re8  1  0.36341299  0.80276456  0.94535069  1
  Re  Re9  1  0.88291596  0.70040259  0.05268958  1
  Re  Re10  1  0.13658462  0.19723888  0.44535002  1
  Re  Re11  1  0.61708636  0.29960120  0.55268765  1
loop_
_geom_bond_atom_site_label_1
_geom_bond_atom_site_label_2
_geom_bond_distance
_geom_bond_site_symmetry_2
Fe0 Fe5 2.394417 1_555
Fe0 Fe6 2.416226 1_455
Fe0 Fe7 2.473920 1_565
Fe0 Re8 2.600841 1_554
Fe0 Re2 2.623584 1_555
Fe0 Re9 2.654319 1_455
Fe0 Re10 2.663370 1_565
Fe0 Re6 2.686965 1_565
Fe0 Re5 2.704630 1_555
Fe0 Re0 2.715028 1_455
Fe0 Re7 2.716486 1_555
Fe0 Re3 2.773986 1_555
Fe1 Fe7 2.394366 1_556
Fe1 Fe4 2.416256 1_555
Fe1 Fe5 2.473950 1_545
Fe1 Re10 2.600866 1_555
Fe1 Re3 2.623616 1_555
Fe1 Re11 2.654403 1_555
Fe1 Re8 2.663331 1_545
Fe1 Re5 2.686941 1_545
Fe1 Re6 2.704597 1_556
Fe1 Re1 2.715113 1_555
Fe1 Re4 2.716434 1_455
Fe1 Re2 2.773961 1_556
Fe2 Fe6 2.393796 1_555
Fe2 Fe7 2.425405 1_655
Fe2 Fe4 2.473672 1_554
Fe2 Re6 2.548966 1_555
Fe2 Re0 2.595564 1_545
Fe2 Re2 2.644721 1_655
Fe2 Re11 2.651907 1_555
Fe2 Re4 2.695745 1_554
Fe2 Re9 2.705250 1_555
Fe2 Re1 2.714592 1_554
Fe2 Re7 2.749861 1_555
Fe2 Re10 2.758343 1_655
Fe3 Fe4 2.393833 1_555
Fe3 Fe5 2.425456 1_555
Fe3 Fe6 2.473690 1_555
Fe3 Re5 2.548939 1_655
Fe3 Re1 2.595598 1_565
Fe3 Re3 2.644757 1_555
Fe3 Re9 2.651910 1_556
Fe3 Re7 2.695787 1_555
Fe3 Re11 2.705225 1_555
Fe3 Re0 2.714629 1_555
Fe3 Re4 2.749856 1_555
Fe3 Re8 2.758390 1_555
Fe4 Re7 2.600441 1_556
Fe4 Re2 2.624125 1_556
Fe4 Re6 2.653617 1_556
Fe4 Re4 2.663518 1_555
Fe4 Re9 2.685932 1_556
Fe4 Re11 2.704892 1_555
Fe4 Re1 2.715117 1_555
Fe4 Re8 2.716501 1_555
Fe4 Re3 2.774048 1_555
Fe5 Re11 2.549350 1_565
Fe5 Re0 2.595610 1_555
Fe5 Re3 2.644605 1_555
Fe5 Re6 2.652651 1_565
Fe5 Re8 2.695291 1_555
Fe5 Re5 2.706002 1_555
Fe5 Re1 2.714369 1_565
Fe5 Re10 2.750293 1_565
Fe5 Re7 2.758163 1_555
Fe6 Re4 2.600498 1_555
Fe6 Re3 2.624123 1_655
Fe6 Re5 2.653670 1_655
Fe6 Re7 2.663520 1_555
Fe6 Re11 2.685902 1_555
Fe6 Re9 2.704857 1_555
Fe6 Re0 2.715130 1_555
Fe6 Re10 2.716447 1_655
Fe6 Re2 2.774002 1_655
Fe7 Re9 2.549328 1_445
Fe7 Re1 2.595542 1_454
Fe7 Re2 2.644609 1_555
Fe7 Re5 2.652659 1_544
Fe7 Re10 2.695285 1_555
Fe7 Re6 2.706006 1_555
Fe7 Re0 2.714297 1_445
Fe7 Re8 2.750290 1_544
Fe7 Re4 2.758114 1_454
Re0 Re10 2.661774 1_665
Re0 Re7 2.662252 1_555
Re0 Re5 2.687832 1_655
Re0 Re9 2.688360 1_555
Re0 Re11 2.853185 1_565
Re0 Re6 2.853849 1_565
Re1 Re8 2.661809 1_545
Re1 Re4 2.662201 1_555
Re1 Re6 2.687827 1_556
Re1 Re11 2.688409 1_555
Re1 Re9 2.853144 1_546
Re1 Re5 2.853819 1_645
Re2 Re4 2.657000 1_454
Re2 Re6 2.700712 1_555
Re2 Re9 2.701069 1_455
Re2 Re8 2.715265 1_554
Re2 Re7 2.715316 1_555
Re3 Re8 2.656621 1_555
Re3 Re7 2.657045 1_555
Re3 Re5 2.700682 1_555
Re3 Re4 2.715315 1_455
Re4 Re9 2.628663 1_556
Re5 Re8 2.628499 1_555
Re5 Re9 2.735319 1_456
Re6 Re8 2.716279 1_544
Re7 Re9 2.715625 1_555
Re7 Re8 2.918444 1_554
Re10 Re6 2.628517 1_555
Re10 Re2 2.656628 1_555
Re10 Re3 2.715277 1_555
Re10 Re5 2.716301 1_545
Re10 Re4 2.918446 1_455
Re11 Re7 2.628633 1_555
Re11 Re3 2.701104 1_555
Re11 Re4 2.715633 1_555
Re11 Re6 2.735339 1_555
