# generated using pymatgen
data_MgCo4(CuO4)2
_symmetry_space_group_name_H-M   'P 1'
_cell_length_a   5.75453376
_cell_length_b   6.11099044
_cell_length_c   5.78205430
_cell_angle_alpha   61.61127688
_cell_angle_beta   59.84714553
_cell_angle_gamma   63.16647955
_symmetry_Int_Tables_number   1
_chemical_formula_structural   MgCo4(CuO4)2
_chemical_formula_sum   'Mg1 Co4 Cu2 O8'
_cell_volume   148.51250214
_cell_formula_units_Z   1
loop_
 _symmetry_equiv_pos_site_id
 _symmetry_equiv_pos_as_xyz
  1  'x, y, z'
loop_
 _atom_site_type_symbol
 _atom_site_label
 _atom_site_symmetry_multiplicity
 _atom_site_fract_x
 _atom_site_fract_y
 _atom_site_fract_z
 _atom_site_occupancy
  Mg  Mg0  1  0.12513298  0.62450392  0.15414974  1
  Co  Co0  1  0.12501333  0.62501469  0.64065426  1
  Co  Co1  1  0.62531240  0.12465055  0.62269712  1
  Co  Co2  1  0.62369637  0.62001936  0.14735664  1
  Co  Co3  1  0.62633369  0.62989702  0.64103540  1
  Cu  Cu0  1  0.90824094  0.11077274  0.91838055  1
  Cu  Cu1  1  0.34195502  0.13878408  0.18619751  1
  O  O0  1  0.36857037  0.41131129  0.39530678  1
  O  O1  1  0.36429256  0.42123869  0.85923790  1
  O  O2  1  0.40376487  0.80424491  0.41441208  1
  O  O3  1  0.83490498  0.40467013  0.39499452  1
  O  O4  1  0.41504264  0.84525196  0.88355778  1
  O  O5  1  0.84629298  0.44563275  0.87326111  1
  O  O6  1  0.88190310  0.83840916  0.42362532  1
  O  O7  1  0.88454378  0.83059977  0.89304929  1
loop_
_geom_bond_atom_site_label_1
_geom_bond_atom_site_label_2
_geom_bond_distance
_geom_bond_site_symmetry_2
Mg0 O6 2.046842 1_455
Mg0 O0 2.047273 1_555
Mg0 O3 2.107945 1_455
Mg0 O4 2.110318 1_554
Mg0 O1 2.111364 1_554
Mg0 O7 2.121260 1_454
Co0 O2 1.897262 1_555
Co0 O5 1.897705 1_455
Co0 O1 1.935907 1_555
Co0 O7 1.941161 1_455
Co0 O6 1.947557 1_455
Co0 O0 1.947840 1_555
Co1 O4 2.058432 1_545
Co1 O3 2.059603 1_555
Co1 O0 2.098801 1_555
Co1 O6 2.107193 1_545
Co1 O7 2.269246 1_545
Co1 O1 2.290691 1_555
Co2 O5 1.903244 1_554
Co2 O2 1.912313 1_555
Co2 O0 1.916947 1_555
Co2 O3 1.942110 1_555
Co2 O7 1.948973 1_554
Co2 O4 2.003557 1_554
Co3 O2 1.902389 1_555
Co3 O5 1.912070 1_555
Co3 O6 1.917851 1_555
Co3 O4 1.942690 1_555
Co3 O1 1.945857 1_555
Co3 O3 2.003482 1_555
Cu0 O5 1.819288 1_555
Cu0 O7 1.854928 1_545
Cu0 O6 2.546933 1_546
Cu0 O4 2.574364 1_645
Cu1 O2 1.815764 1_545
Cu1 O1 1.850160 1_554
Cu1 O0 2.567099 1_555
Cu1 O3 2.580232 1_455
