# generated using pymatgen
data_Na2Zn4SiGe4S11O48
_symmetry_space_group_name_H-M   'P 1'
_cell_length_a   17.07128312
_cell_length_b   8.53808109
_cell_length_c   22.19939832
_cell_angle_alpha   90.08653547
_cell_angle_beta   89.95755216
_cell_angle_gamma   120.06823465
_symmetry_Int_Tables_number   1
_chemical_formula_structural   Na2Zn4SiGe4S11O48
_chemical_formula_sum   'Na6 Zn12 Si3 Ge12 S33 O144'
_cell_volume   2800.26258891
_cell_formula_units_Z   3
loop_
 _symmetry_equiv_pos_site_id
 _symmetry_equiv_pos_as_xyz
  1  'x, y, z'
loop_
 _atom_site_type_symbol
 _atom_site_label
 _atom_site_symmetry_multiplicity
 _atom_site_fract_x
 _atom_site_fract_y
 _atom_site_fract_z
 _atom_site_occupancy
  Na  Na0  1  0.99721655  0.98631615  0.49548346  1
  Na  Na1  1  0.49862037  0.00414147  0.99950642  1
  Na  Na2  1  0.33337761  0.32717499  0.83678388  1
  Na  Na3  1  0.83951285  0.34169158  0.83261983  1
  Na  Na4  1  0.33702657  0.33090327  0.33049097  1
  Na  Na5  1  0.84004908  0.34234542  0.33758202  1
  Zn  Zn0  1  0.00063408  0.98715439  0.35728458  1
  Zn  Zn1  1  0.00378017  0.00310397  0.85704919  1
  Zn  Zn2  1  0.33092085  0.33464097  0.68118675  1
  Zn  Zn3  1  0.83681092  0.33588491  0.68035678  1
  Zn  Zn4  1  0.33941762  0.33058562  0.18556094  1
  Zn  Zn5  1  0.83474412  0.33184020  0.18205385  1
  Zn  Zn6  1  0.33914627  0.33255000  0.98140003  1
  Zn  Zn7  1  0.83679465  0.33708759  0.98578380  1
  Zn  Zn8  1  0.33607629  0.33632166  0.48371717  1
  Zn  Zn9  1  0.83785387  0.34163464  0.48056548  1
  Zn  Zn10  1  0.66430384  0.66565892  0.52134085  1
  Zn  Zn11  1  0.16234162  0.66300244  0.80877648  1
  Si  Si0  1  0.50078803  0.29233564  0.25269658  1
  Si  Si1  1  0.52316628  0.38117212  0.91399587  1
  Si  Si2  1  0.02125684  0.66456015  0.41764236  1
  Ge  Ge0  1  0.49795757  0.00664941  0.35357007  1
  Ge  Ge1  1  0.49833044  0.00884613  0.85416388  1
  Ge  Ge2  1  0.99864263  0.99435210  0.65029888  1
  Ge  Ge3  1  0.50075709  0.00483311  0.64356259  1
  Ge  Ge4  1  0.00115147  0.00056181  0.14926603  1
  Ge  Ge5  1  0.50130649  0.01064292  0.15243298  1
  Ge  Ge6  1  0.16514810  0.66507554  0.01776299  1
  Ge  Ge7  1  0.66312297  0.65036483  0.01927926  1
  Ge  Ge8  1  0.16358651  0.66926065  0.51944015  1
  Ge  Ge9  1  0.15918892  0.66068319  0.31373971  1
  Ge  Ge10  1  0.66502030  0.65716688  0.31220475  1
  Ge  Ge11  1  0.66556395  0.66349945  0.81350050  1
  S  S0  1  0.14440263  0.99520691  0.25006926  1
  S  S1  1  0.64370292  0.99652704  0.25174428  1
  S  S2  1  0.35198079  0.71377466  0.25299012  1
  S  S3  1  0.85358791  0.71047013  0.24963101  1
  S  S4  1  0.00327465  0.29230020  0.25093655  1
  S  S5  1  0.14505703  0.28710059  0.74908555  1
  S  S6  1  0.64362260  0.29054433  0.75139504  1
  S  S7  1  0.99829995  0.70864179  0.75013130  1
  S  S8  1  0.50334590  0.72127960  0.75214885  1
  S  S9  1  0.35839971  0.00025960  0.74897644  1
  S  S10  1  0.85056504  0.99276313  0.75286500  1
  S  S11  1  0.47995735  0.33091454  0.58556403  1
  S  S12  1  0.98571409  0.33062218  0.58428837  1
  S  S13  1  0.18393617  0.03225925  0.58342998  1
  S  S14  1  0.68458832  0.04139327  0.58535814  1
  S  S15  1  0.33198249  0.63504064  0.58265614  1
  S  S16  1  0.83491625  0.63495929  0.58621847  1
  S  S17  1  0.48530364  0.63983835  0.08415845  1
  S  S18  1  0.98489951  0.63766837  0.08382833  1
  S  S19  1  0.33209737  0.02657196  0.08284348  1
  S  S20  1  0.83220310  0.02744026  0.08313758  1
  S  S21  1  0.18432310  0.33407431  0.08355798  1
  S  S22  1  0.68400746  0.33207411  0.08320142  1
  S  S23  1  0.31158584  0.66848061  0.91485936  1
  S  S24  1  0.80918430  0.66737840  0.91681570  1
  S  S25  1  0.02128047  0.37759736  0.91755066  1
  S  S26  1  0.16577408  0.95239424  0.91726970  1
  S  S27  1  0.66649360  0.95311062  0.91472395  1
  S  S28  1  0.31215139  0.95171367  0.41529542  1
  S  S29  1  0.80579517  0.94816480  0.41445212  1
  S  S30  1  0.17010491  0.38751554  0.41652327  1
  S  S31  1  0.66299550  0.36978826  0.41498952  1
  S  S32  1  0.52088520  0.67469443  0.41278888  1
  O  O0  1  0.10431373  0.02437313  0.30319177  1
  O  O1  1  0.60109420  0.02701801  0.30569642  1
  O  O2  1  0.41168963  0.79241364  0.30704680  1
  O  O3  1  0.90971545  0.78904993  0.30228375  1
  O  O4  1  0.48084752  0.15699228  0.31032944  1
  O  O5  1  0.98964746  0.18314733  0.30377994  1
  O  O6  1  0.10480860  0.17572175  0.80243393  1
  O  O7  1  0.60184170  0.17328443  0.80622879  1
  O  O8  1  0.48685087  0.80413149  0.80794327  1
  O  O9  1  0.98210412  0.79011851  0.80295792  1
  O  O10  1  0.41679058  0.03568509  0.80530414  1
  O  O11  1  0.90508049  0.02189744  0.80623997  1
  O  O12  1  0.40305106  0.96957960  0.69503151  1
  O  O13  1  0.88912026  0.95795254  0.69660834  1
  O  O14  1  0.08592155  0.20034273  0.69239038  1
  O  O15  1  0.58574566  0.21042917  0.69712449  1
  O  O16  1  0.01272559  0.82231183  0.69309719  1
  O  O17  1  0.51863701  0.83440286  0.69739931  1
  O  O18  1  0.39284214  0.82762056  0.19753369  1
  O  O19  1  0.89427013  0.82578353  0.19284024  1
  O  O20  1  0.01840104  0.21085342  0.19362688  1
  O  O21  1  0.52266016  0.20513674  0.19198925  1
  O  O22  1  0.08472466  0.95461324  0.19393003  1
  O  O23  1  0.58530494  0.95654638  0.19593602  1
  O  O24  1  0.43989196  0.35907097  0.64012584  1
  O  O25  1  0.94935417  0.36482115  0.63895010  1
  O  O26  1  0.23676654  0.10884912  0.63801914  1
  O  O27  1  0.73625938  0.11971750  0.64095099  1
  O  O28  1  0.31326613  0.52616415  0.63704269  1
  O  O29  1  0.82302579  0.53159036  0.64135750  1
  O  O30  1  0.44782685  0.53037296  0.13770243  1
  O  O31  1  0.94717244  0.52511145  0.13718714  1
  O  O32  1  0.31476905  0.10010396  0.13667797  1
  O  O33  1  0.81265847  0.10050858  0.13702917  1
  O  O34  1  0.23945284  0.37137305  0.13756787  1
  O  O35  1  0.73650830  0.35837443  0.13732777  1
  O  O36  1  0.22129505  0.29730015  0.02969703  1
  O  O37  1  0.72144715  0.30118512  0.02799736  1
  O  O38  1  0.43077583  0.57071343  0.02959680  1
  O  O39  1  0.92926528  0.56621893  0.02971871  1
  O  O40  1  0.35278813  0.13753199  0.02879669  1
  O  O41  1  0.85091307  0.13947645  0.02937757  1
  O  O42  1  0.22030192  0.14125535  0.52891621  1
  O  O43  1  0.72304109  0.15671980  0.53240016  1
  O  O44  1  0.35056001  0.56048618  0.52903146  1
  O  O45  1  0.85665874  0.56362957  0.53275615  1
  O  O46  1  0.42292349  0.28985329  0.53171097  1
  O  O47  1  0.93049141  0.29147504  0.53049709  1
  O  O48  1  0.27471883  0.70926017  0.97112130  1
  O  O49  1  0.76795134  0.70175210  0.97224640  1
  O  O50  1  0.07943017  0.46194630  0.97457778  1
  O  O51  1  0.58630367  0.46313094  0.97513406  1
  O  O52  1  0.15213715  0.83873509  0.97478796  1
  O  O53  1  0.65025427  0.84100992  0.96953232  1
  O  O54  1  0.27372761  0.84174483  0.47065284  1
  O  O55  1  0.76551891  0.83586614  0.46754449  1
  O  O56  1  0.15988646  0.47407891  0.47277405  1
  O  O57  1  0.64532753  0.44712464  0.46781389  1
  O  O58  1  0.08791970  0.70036061  0.47690661  1
  O  O59  1  0.57400413  0.70934212  0.46698638  1
  O  O60  1  0.06658642  0.62704266  0.35572955  1
  O  O61  1  0.56272659  0.64245449  0.35772241  1
  O  O62  1  0.25618627  0.87045273  0.35992953  1
  O  O63  1  0.74932383  0.86072532  0.35616757  1
  O  O64  1  0.18954315  0.50343846  0.36044517  1
  O  O65  1  0.68066785  0.48563920  0.35924419  1
  O  O66  1  0.06183973  0.48979520  0.86438161  1
  O  O67  1  0.57010829  0.50785450  0.85423643  1
  O  O68  1  0.18286864  0.87198784  0.86425325  1
  O  O69  1  0.68492897  0.87695634  0.85910499  1
  O  O70  1  0.26027696  0.64811071  0.86060697  1
  O  O71  1  0.75135466  0.63440066  0.86100366  1
  O  O72  1  0.02026459  0.85051093  0.41712996  1
  O  O73  1  0.51336330  0.84261921  0.40346412  1
  O  O74  1  0.40127183  0.95841022  0.40980003  1
  O  O75  1  0.89632663  0.97223434  0.40768010  1
  O  O76  1  0.08560263  0.21744656  0.41180527  1
  O  O77  1  0.57867033  0.18638075  0.40761733  1
  O  O78  1  0.01419875  0.20120574  0.91463025  1
  O  O79  1  0.51930410  0.18128321  0.90799812  1
  O  O80  1  0.08189856  0.95770545  0.91483771  1
  O  O81  1  0.58009711  0.95765349  0.90815005  1
  O  O82  1  0.40613320  0.83819410  0.91089593  1
  O  O83  1  0.89622266  0.82873479  0.91114189  1
  O  O84  1  0.48668830  0.15944342  0.59269386  1
  O  O85  1  0.99515563  0.16259273  0.59245675  1
  O  O86  1  0.09008157  0.00702170  0.59056756  1
  O  O87  1  0.59005856  0.02650077  0.59254535  1
  O  O88  1  0.41513211  0.81940492  0.59165300  1
  O  O89  1  0.92169778  0.82587647  0.59259065  1
  O  O90  1  0.49649109  0.82805863  0.09322807  1
  O  O91  1  0.99588728  0.82327195  0.09285302  1
  O  O92  1  0.41419378  0.00076915  0.09061215  1
  O  O93  1  0.91419785  0.00655022  0.09239070  1
  O  O94  1  0.08994141  0.17060531  0.09271645  1
  O  O95  1  0.59034318  0.16557996  0.08820445  1
  O  O96  1  0.35332146  0.16499135  0.74423505  1
  O  O97  1  0.83664632  0.14725614  0.74490666  1
  O  O98  1  0.23479093  0.30286800  0.74166829  1
  O  O99  1  0.73250480  0.30906295  0.74701392  1
  O  O100  1  0.42397990  0.54201692  0.74754459  1
  O  O101  1  0.91737405  0.52739716  0.74352560  1
  O  O102  1  0.33908235  0.53398294  0.24595773  1
  O  O103  1  0.84044389  0.52878827  0.24060338  1
  O  O104  1  0.41349105  0.31251373  0.24784453  1
  O  O105  1  0.92525594  0.31844447  0.24285597  1
  O  O106  1  0.23235464  0.15528419  0.24055050  1
  O  O107  1  0.73206574  0.15894366  0.24493117  1
  O  O108  1  0.32095458  0.51060078  0.92335847  1
  O  O109  1  0.81296821  0.50032014  0.92222882  1
  O  O110  1  0.42552810  0.35848679  0.91846638  1
  O  O111  1  0.93177437  0.36356483  0.92504977  1
  O  O112  1  0.24498668  0.13282842  0.92493446  1
  O  O113  1  0.74431744  0.13439025  0.92057848  1
  O  O114  1  0.32332531  0.13243391  0.42038219  1
  O  O115  1  0.80732236  0.12042940  0.41685652  1
  O  O116  1  0.25015354  0.36678129  0.42104665  1
  O  O117  1  0.74133061  0.34603217  0.41847232  1
  O  O118  1  0.42992226  0.51429519  0.41665926  1
  O  O119  1  0.92557024  0.48164105  0.41977252  1
  O  O120  1  0.17218553  0.49759538  0.07412026  1
  O  O121  1  0.67491509  0.49859242  0.07814543  1
  O  O122  1  0.07748431  0.65985352  0.07519041  1
  O  O123  1  0.57906721  0.66627424  0.07528007  1
  O  O124  1  0.25099363  0.84069273  0.07409445  1
  O  O125  1  0.75020492  0.84189278  0.07340808  1
  O  O126  1  0.17699067  0.84990617  0.57744868  1
  O  O127  1  0.66871658  0.85888446  0.57836628  1
  O  O128  1  0.25206382  0.66179522  0.57377069  1
  O  O129  1  0.75858550  0.66347504  0.57903395  1
  O  O130  1  0.07959502  0.48939074  0.57676710  1
  O  O131  1  0.57054824  0.48413081  0.57830320  1
  O  O132  1  0.15348854  0.82896433  0.25413410  1
  O  O133  1  0.65146673  0.83283622  0.25819629  1
  O  O134  1  0.26389697  0.70958697  0.26044298  1
  O  O135  1  0.76476271  0.70394968  0.25477955  1
  O  O136  1  0.09068272  0.47291296  0.25330834  1
  O  O137  1  0.59387285  0.48716827  0.26137953  1
  O  O138  1  0.15160821  0.46349179  0.75165063  1
  O  O139  1  0.64982791  0.47067340  0.75723573  1
  O  O140  1  0.08110561  0.69924588  0.75194262  1
  O  O141  1  0.58903027  0.71638531  0.75788995  1
  O  O142  1  0.27219729  0.83645953  0.75439782  1
  O  O143  1  0.75812855  0.81864312  0.75807468  1
loop_
_geom_bond_atom_site_label_1
_geom_bond_atom_site_label_2
_geom_bond_distance
_geom_bond_site_symmetry_2
Na0 O72 2.230439 1_655
Na0 O89 2.533931 1_555
Na0 O75 2.564550 1_555
Na0 O76 2.577768 1_665
Na0 O86 2.592878 1_665
Na0 O85 2.635136 1_565
Na1 O79 2.451930 1_555
Na1 O95 2.462211 1_556
Na1 O92 2.474437 1_556
Na1 O82 2.474744 1_545
Na1 O90 2.558297 1_546
Na1 O81 2.598423 1_545
Na2 O110 2.327144 1_555
Na2 O112 2.521145 1_555
Na2 O108 2.552351 1_555
Na2 O96 2.591776 1_555
Na2 O100 2.616311 1_555
Na2 O98 2.643477 1_555
Na3 O101 2.467049 1_555
Na3 O111 2.536672 1_555
Na3 O97 2.541422 1_555
Na3 O99 2.553387 1_555
Na3 O109 2.569516 1_555
Na3 O113 2.590351 1_555
Na4 O104 2.301232 1_555
Na4 O118 2.476489 1_555
Na4 O102 2.545194 1_555
Na4 O114 2.553566 1_555
Na4 O106 2.595995 1_555
Na4 O116 2.604499 1_555
Na5 O119 2.265502 1_555
Na5 O115 2.438665 1_555
Na5 O117 2.472683 1_555
Na5 O105 2.621283 1_555
Na5 O103 2.677404 1_555
Na5 O107 2.680289 1_555
Ge0 O4 1.741934 1_555
Ge0 O77 1.889726 1_555
Ge0 O73 1.905675 1_545
Ge0 O74 1.941499 1_545
Ge0 O2 1.969397 1_545
Ge0 O1 1.987624 1_555
Ge1 O79 1.786374 1_555
Ge1 O10 1.867954 1_555
Ge1 O7 1.934362 1_555
Ge1 O8 1.948824 1_545
Ge1 O82 1.972548 1_545
Ge1 O81 2.047246 1_545
Ge2 O16 1.864553 1_655
Ge2 O89 1.881304 1_555
Ge2 O14 1.886149 1_665
Ge2 O85 1.951184 1_565
Ge2 O86 2.008680 1_665
Ge2 O13 2.016194 1_555
Ge3 O87 1.832057 1_555
Ge3 O84 1.843394 1_555
Ge3 O88 1.910266 1_545
Ge3 O12 1.916593 1_545
Ge3 O15 2.011070 1_555
Ge3 O17 2.022339 1_545
Ge4 O91 1.930254 1_445
Ge4 O22 1.933035 1_545
Ge4 O20 1.935346 1_555
Ge4 O19 1.940383 1_445
Ge4 O94 1.943920 1_555
Ge4 O93 1.969585 1_455
Ge5 O21 1.746731 1_555
Ge5 O23 1.967058 1_545
Ge5 O18 1.993839 1_545
Ge5 O92 1.994778 1_555
Ge5 O90 2.007477 1_545
Ge5 O95 2.020127 1_555
Ge6 O52 1.868835 1_554
Ge6 O50 1.876760 1_554
Ge6 O124 1.937755 1_555
Ge6 O122 1.948675 1_555
Ge6 O120 1.949932 1_555
Ge6 O48 2.001107 1_554
Ge7 O51 1.769794 1_554
Ge7 O121 1.922070 1_555
Ge7 O49 1.922755 1_554
Ge7 O123 1.953247 1_555
Ge7 O125 1.971984 1_555
Ge7 O53 2.069184 1_554
Ge8 O58 1.725367 1_555
Ge8 O126 1.931409 1_555
Ge8 O56 1.934878 1_555
Ge8 O130 1.957199 1_555
Ge8 O128 1.959472 1_555
Ge8 O54 2.025885 1_555
Ge9 O60 1.730346 1_555
Ge9 O64 1.961674 1_555
Ge9 O136 1.963343 1_555
Ge9 O132 1.992682 1_555
Ge9 O134 2.004948 1_555
Ge9 O62 2.006551 1_555
Ge10 O137 1.756563 1_555
Ge10 O63 1.880119 1_555
Ge10 O65 1.924491 1_555
Ge10 O61 1.965778 1_555
Ge10 O135 2.000189 1_555
Ge10 O133 2.023428 1_555
Ge11 O67 1.752334 1_555
Ge11 O143 1.915763 1_555
Ge11 O71 1.920002 1_555
Ge11 O69 1.961367 1_555
Ge11 O139 1.973295 1_555
Ge11 O141 2.007534 1_555
O0 S0 1.445609 1_545
O0 Zn0 2.027331 1_545
O1 S1 1.489591 1_545
O2 S2 1.497811 1_555
O3 S3 1.445532 1_555
O3 Zn0 2.031414 1_655
O4 Si0 1.642489 1_555
O5 S4 1.443763 1_655
O5 Zn0 2.137076 1_645
O6 S5 1.458234 1_555
O6 Zn1 2.017882 1_555
O7 S6 1.509859 1_555
O8 S8 1.519962 1_555
O9 S7 1.457888 1_555
O9 Zn1 2.050730 1_665
O10 S9 1.532089 1_555
O11 S10 1.449386 1_545
O11 Zn1 2.100299 1_655
O12 S9 1.510479 1_565
O13 S10 1.508276 1_555
O14 S5 1.549719 1_555
O15 S6 1.489169 1_555
O16 S7 1.539280 1_455
O17 S8 1.492870 1_555
O18 S2 1.506627 1_555
O19 S3 1.535697 1_555
O20 S4 1.531548 1_555
O21 Si0 1.668743 1_555
O22 S0 1.535559 1_555
O23 S1 1.518167 1_555
O24 S11 1.468116 1_555
O24 Zn2 1.986015 1_555
O25 S12 1.456864 1_555
O25 Zn3 2.029687 1_555
O26 S13 1.455277 1_555
O26 Zn2 2.027320 1_555
O27 S14 1.468463 1_555
O27 Zn3 1.985165 1_555
O28 S15 1.459149 1_555
O28 Zn2 2.055317 1_555
O29 S16 1.463496 1_555
O29 Zn3 1.998924 1_555
O30 S17 1.448709 1_555
O30 Zn4 2.074295 1_555
O31 S18 1.457246 1_555
O31 Zn5 2.056023 1_555
O32 S19 1.446800 1_555
O32 Zn4 2.095626 1_555
O33 S20 1.462034 1_555
O33 Zn5 2.071401 1_555
O34 S21 1.457707 1_555
O34 Zn4 2.183565 1_555
O35 S22 1.447959 1_555
O35 Zn5 2.057520 1_555
O36 S21 1.457026 1_555
O36 Zn6 2.163046 1_554
O37 S22 1.465154 1_555
O37 Zn7 2.059830 1_554
O38 S17 1.459764 1_555
O38 Zn6 2.129577 1_554
O39 S18 1.461490 1_555
O39 Zn7 2.042640 1_554
O40 S19 1.459219 1_555
O40 Zn6 2.080391 1_554
O41 S20 1.462215 1_555
O41 Zn7 2.062552 1_554
O42 S13 1.462646 1_555
O42 Zn8 2.095351 1_555
O43 S14 1.461932 1_555
O43 Zn9 2.135336 1_555
O44 S15 1.456832 1_555
O44 Zn8 2.063144 1_555
O45 S16 1.463189 1_555
O45 Zn9 2.102900 1_555
O46 S11 1.469194 1_555
O46 Zn8 2.020815 1_555
O47 S12 1.452967 1_555
O47 Zn9 2.143768 1_555
O48 S23 1.514725 1_555
O49 S24 1.516721 1_555
O50 S25 1.545796 1_555
O51 Si1 1.654386 1_555
O52 S26 1.550242 1_555
O53 S27 1.486763 1_555
O54 S28 1.485657 1_555
O55 S29 1.456990 1_555
O55 Zn10 2.002416 1_555
O56 S30 1.504026 1_555
O57 S31 1.448735 1_555
O57 Zn10 2.094409 1_555
O58 Si2 1.664884 1_555
O59 S32 1.445379 1_555
O59 Zn10 2.133459 1_555
O60 Si2 1.684032 1_555
O61 S32 1.508329 1_555
O62 S28 1.496579 1_555
O63 S29 1.561598 1_555
O64 S30 1.521023 1_555
O65 S31 1.518215 1_555
O66 S25 1.458698 1_555
O66 Zn11 2.028362 1_555
O67 Si1 1.645060 1_555
O68 S26 1.462685 1_555
O68 Zn11 2.047145 1_555
O69 S27 1.499459 1_555
O70 S23 1.447843 1_555
O70 Zn11 2.086038 1_555
O71 S24 1.520268 1_555
O72 Si2 1.596275 1_555
O72 Zn0 1.906711 1_555
O73 S32 1.516712 1_555
O74 S28 1.498463 1_555
O75 S29 1.461113 1_555
O75 Zn0 2.051527 1_655
O76 S30 1.449550 1_555
O76 Zn0 2.138339 1_545
O77 S31 1.513913 1_555
O78 S25 1.450608 1_555
O78 Zn1 2.053975 1_555
O79 Si1 1.679690 1_555
O80 S26 1.456156 1_555
O80 Zn1 2.023972 1_565
O81 S27 1.501929 1_555
O82 S23 1.539194 1_555
O83 S24 1.438965 1_555
O83 Zn1 2.071896 1_665
O84 S11 1.533281 1_555
O85 S12 1.532847 1_555
O86 S13 1.514071 1_555
O87 S14 1.562005 1_555
O88 S15 1.514292 1_555
O89 S16 1.565766 1_555
O90 S17 1.533336 1_555
O91 S18 1.512556 1_555
O92 S19 1.533728 1_555
O93 S20 1.511303 1_555
O94 S21 1.527189 1_555
O95 S22 1.520639 1_555
O96 S9 1.455837 1_555
O96 Zn2 2.182952 1_555
O97 S10 1.463716 1_545
O97 Zn3 2.156302 1_555
O98 S5 1.478145 1_555
O98 Zn2 2.030055 1_555
O99 S6 1.447820 1_555
O99 Zn3 2.236353 1_555
O100 S8 1.452753 1_555
O100 Zn2 2.237356 1_555
O101 S7 1.477199 1_555
O101 Zn3 2.067395 1_555
O102 S2 1.445660 1_555
O102 Zn4 2.194647 1_555
O103 S3 1.465305 1_555
O103 Zn5 2.087133 1_555
O104 Si0 1.587376 1_555
O104 Zn4 1.932185 1_555
O105 S4 1.467754 1_655
O105 Zn5 2.098358 1_555
O106 S0 1.452957 1_545
O106 Zn4 2.081321 1_555
O107 S1 1.457913 1_545
O107 Zn5 2.147028 1_555
O108 S23 1.447449 1_555
O108 Zn6 2.132436 1_555
O109 S24 1.464911 1_555
O109 Zn7 2.161771 1_555
O110 Si1 1.581746 1_555
O110 Zn6 1.961156 1_555
O111 S25 1.480892 1_655
O111 Zn7 2.031824 1_555
O112 S26 1.463866 1_545
O112 Zn6 2.076717 1_555
O113 S27 1.454877 1_545
O113 Zn7 2.200173 1_555
O114 S28 1.461015 1_545
O114 Zn8 2.160551 1_555
O115 S29 1.458817 1_545
O115 Zn9 2.201266 1_555
O116 S30 1.466802 1_555
O116 Zn8 2.130989 1_555
O117 S31 1.451703 1_555
O117 Zn9 2.163831 1_555
O118 S32 1.470853 1_555
O118 Zn8 2.157680 1_555
O119 Si2 1.597930 1_655
O119 Zn9 1.923736 1_555
O120 S21 1.525423 1_555
O121 S22 1.509867 1_555
O122 S18 1.506791 1_455
O123 S17 1.513127 1_555
O124 S19 1.506988 1_565
O125 S20 1.514302 1_565
O126 S13 1.506712 1_565
O127 S14 1.449818 1_565
O127 Zn10 2.049222 1_555
O128 S15 1.505083 1_555
O129 S16 1.449492 1_555
O129 Zn10 2.065040 1_555
O130 S12 1.502425 1_455
O131 S11 1.449818 1_555
O131 Zn10 2.019918 1_555
O132 S0 1.505954 1_555
O133 S1 1.475681 1_555
O134 S2 1.495176 1_555
O135 S3 1.493546 1_555
O136 S4 1.517051 1_555
O137 Si0 1.637117 1_555
O138 S5 1.454265 1_555
O138 Zn11 2.055372 1_555
O139 S6 1.493153 1_555
O140 S7 1.456038 1_455
O140 Zn11 2.011122 1_555
O141 S8 1.489680 1_555
O142 S9 1.440101 1_565
O142 Zn11 2.094408 1_555
O143 S10 1.537232 1_555
