# generated using pymatgen
data_Na7Mg2SiGe2P5O24
_symmetry_space_group_name_H-M   'P 1'
_cell_length_a   8.81890234
_cell_length_b   8.81696469
_cell_length_c   21.66790997
_cell_angle_alpha   90.06323910
_cell_angle_beta   89.91930706
_cell_angle_gamma   119.88506258
_symmetry_Int_Tables_number   1
_chemical_formula_structural   Na7Mg2SiGe2P5O24
_chemical_formula_sum   'Na21 Mg6 Si3 Ge6 P15 O72'
_cell_volume   1460.77269124
_cell_formula_units_Z   3
loop_
 _symmetry_equiv_pos_site_id
 _symmetry_equiv_pos_as_xyz
  1  'x, y, z'
loop_
 _atom_site_type_symbol
 _atom_site_label
 _atom_site_symmetry_multiplicity
 _atom_site_fract_x
 _atom_site_fract_y
 _atom_site_fract_z
 _atom_site_occupancy
  Na  Na0  1  0.35894527  0.36850162  0.25312103  1
  Na  Na1  1  0.00702783  0.63869040  0.25122961  1
  Na  Na2  1  0.62939600  0.64409112  0.75066225  1
  Na  Na3  1  0.00541108  0.36663242  0.75341022  1
  Na  Na4  1  0.36176492  0.99036940  0.75149473  1
  Na  Na5  1  0.29619843  0.31669137  0.58266674  1
  Na  Na6  1  0.02833762  0.70406582  0.58471946  1
  Na  Na7  1  0.67441741  0.97161313  0.58917705  1
  Na  Na8  1  0.29603668  0.97305437  0.08524925  1
  Na  Na9  1  0.68297695  0.70468435  0.08381681  1
  Na  Na10  1  0.02715316  0.32808755  0.08647285  1
  Na  Na11  1  0.96109829  0.65604899  0.92239222  1
  Na  Na12  1  0.69413277  0.03471971  0.91758403  1
  Na  Na13  1  0.96582100  0.30655158  0.41813912  1
  Na  Na14  1  0.34522635  0.03789457  0.42142783  1
  Na  Na15  1  0.99450611  0.98824471  0.50240078  1
  Na  Na16  1  0.01146818  0.00493280  0.00264343  1
  Na  Na17  1  0.65253626  0.33197753  0.83755645  1
  Na  Na18  1  0.66601135  0.33532534  0.33657090  1
  Na  Na19  1  0.34718147  0.68177031  0.17101603  1
  Na  Na20  1  0.33910160  0.67206524  0.66984505  1
  Mg  Mg0  1  0.00064077  0.99899945  0.64749624  1
  Mg  Mg1  1  0.99845776  0.99717946  0.14810625  1
  Mg  Mg2  1  0.66191160  0.33442929  0.98036119  1
  Mg  Mg3  1  0.66458532  0.33661574  0.47955631  1
  Mg  Mg4  1  0.33846701  0.67243385  0.31375021  1
  Mg  Mg5  1  0.33487774  0.66855928  0.81457545  1
  Si  Si0  1  0.70891734  0.00494715  0.74786048  1
  Si  Si1  1  0.37429044  0.03648130  0.57919461  1
  Si  Si2  1  0.96264387  0.62462543  0.08028898  1
  Ge  Ge0  1  0.99393022  0.99479577  0.35083792  1
  Ge  Ge1  1  0.00216351  0.00733540  0.85105508  1
  Ge  Ge2  1  0.66329839  0.32282696  0.68408282  1
  Ge  Ge3  1  0.67208089  0.33215104  0.18436220  1
  Ge  Ge4  1  0.32773021  0.66322357  0.01760599  1
  Ge  Ge5  1  0.33976738  0.67363802  0.51719524  1
  P  P0  1  0.29889856  0.00830980  0.24870191  1
  P  P1  1  0.70945882  0.70505727  0.24758251  1
  P  P2  1  0.98828303  0.28471195  0.24905763  1
  P  P3  1  0.29376051  0.28748362  0.74831196  1
  P  P4  1  0.99163783  0.70483699  0.74952922  1
  P  P5  1  0.96201399  0.34056425  0.58058954  1
  P  P6  1  0.66057643  0.61673761  0.58270370  1
  P  P7  1  0.66052726  0.04053198  0.08085633  1
  P  P8  1  0.38074809  0.33979867  0.08350838  1
  P  P9  1  0.62613180  0.67032747  0.91475817  1
  P  P10  1  0.04726851  0.36867791  0.91500956  1
  P  P11  1  0.32507612  0.95871604  0.91465155  1
  P  P12  1  0.63089618  0.95280523  0.41515588  1
  P  P13  1  0.32893582  0.37396259  0.41369383  1
  P  P14  1  0.04243602  0.67314356  0.41367948  1
  O  O0  1  0.21212154  0.04528560  0.30814527  1
  O  O1  1  0.83848192  0.79465600  0.30464238  1
  O  O2  1  0.96484941  0.17337189  0.30985868  1
  O  O3  1  0.20882451  0.16055853  0.80569028  1
  O  O4  1  0.95885497  0.79115855  0.80908250  1
  O  O5  1  0.84016330  0.04656849  0.81072828  1
  O  O6  1  0.79320594  0.97330412  0.68818291  1
  O  O7  1  0.18875016  0.21058871  0.69012619  1
  O  O8  1  0.02765776  0.81661202  0.69258104  1
  O  O9  1  0.78874615  0.80394021  0.18883575  1
  O  O10  1  0.01663976  0.20258630  0.19250569  1
  O  O11  1  0.18986715  0.98362414  0.19178592  1
  O  O12  1  0.88134781  0.38032346  0.64063653  1
  O  O13  1  0.50378632  0.12443190  0.64234482  1
  O  O14  1  0.62494473  0.50192634  0.64421362  1
  O  O15  1  0.87446887  0.49247525  0.14320729  1
  O  O16  1  0.61696555  0.12403569  0.13862341  1
  O  O17  1  0.49692003  0.37666114  0.14440491  1
  O  O18  1  0.46002351  0.29922292  0.02940102  1
  O  O19  1  0.84675588  0.54025073  0.02079068  1
  O  O20  1  0.68861950  0.14559917  0.02273695  1
  O  O21  1  0.45783634  0.15232917  0.51973150  1
  O  O22  1  0.69529492  0.53440684  0.52851355  1
  O  O23  1  0.85328975  0.31403131  0.52384917  1
  O  O24  1  0.53867917  0.70556205  0.97437230  1
  O  O25  1  0.15850324  0.45521894  0.97582372  1
  O  O26  1  0.28960131  0.83610086  0.97408952  1
  O  O27  1  0.55251040  0.84389410  0.47755104  1
  O  O28  1  0.29442672  0.46121384  0.47375809  1
  O  O29  1  0.16619295  0.71090730  0.47296714  1
  O  O30  1  0.12498266  0.64712600  0.35649574  1
  O  O31  1  0.51066049  0.86646780  0.36224626  1
  O  O32  1  0.34006187  0.47305427  0.35604061  1
  O  O33  1  0.13033984  0.48017134  0.85877114  1
  O  O34  1  0.34912738  0.87392678  0.85769920  1
  O  O35  1  0.52651966  0.65686990  0.85692096  1
  O  O36  1  0.03634283  0.85034818  0.41026064  1
  O  O37  1  0.81880169  0.96981854  0.41044351  1
  O  O38  1  0.15373053  0.18535918  0.41298663  1
  O  O39  1  0.03292364  0.18243564  0.91315301  1
  O  O40  1  0.14846440  0.96460120  0.91147911  1
  O  O41  1  0.81376387  0.84500397  0.91423014  1
  O  O42  1  0.98576506  0.18111895  0.58776170  1
  O  O43  1  0.17950809  0.00583716  0.58744151  1
  O  O44  1  0.81534267  0.80267730  0.58887087  1
  O  O45  1  0.99407361  0.82022154  0.08776508  1
  O  O46  1  0.82075262  0.01908897  0.08977584  1
  O  O47  1  0.19319121  0.18858858  0.09117163  1
  O  O48  1  0.70086673  0.19345695  0.74535489  1
  O  O49  1  0.48052051  0.30407340  0.74579584  1
  O  O50  1  0.81685876  0.52312062  0.74547473  1
  O  O51  1  0.69873830  0.51793067  0.24656900  1
  O  O52  1  0.81728657  0.30064392  0.24674812  1
  O  O53  1  0.48183988  0.18358183  0.24524258  1
  O  O54  1  0.65288257  0.51321349  0.92014618  1
  O  O55  1  0.86162443  0.34211793  0.92054764  1
  O  O56  1  0.48726245  0.13740230  0.92220177  1
  O  O57  1  0.66075704  0.13987261  0.42098752  1
  O  O58  1  0.48561046  0.34646633  0.41863276  1
  O  O59  1  0.86313588  0.51254520  0.42196366  1
  O  O60  1  0.37547398  0.51677058  0.07768211  1
  O  O61  1  0.16132939  0.63647249  0.07732770  1
  O  O62  1  0.49065254  0.85293183  0.07761610  1
  O  O63  1  0.36403951  0.83920054  0.57649468  1
  O  O64  1  0.48478890  0.62481521  0.57790819  1
  O  O65  1  0.14864247  0.51128063  0.57718426  1
  O  O66  1  0.31578553  0.84557985  0.25578068  1
  O  O67  1  0.52451269  0.67386828  0.25565812  1
  O  O68  1  0.14776731  0.47040980  0.25465138  1
  O  O69  1  0.31511998  0.46932751  0.75674669  1
  O  O70  1  0.14629796  0.67322603  0.75696629  1
  O  O71  1  0.51369832  0.84017815  0.75457689  1
loop_
_geom_bond_atom_site_label_1
_geom_bond_atom_site_label_2
_geom_bond_distance
_geom_bond_site_symmetry_2
Na0 O67 2.338024 1_555
Na0 O53 2.371041 1_555
Na0 O68 2.438058 1_555
Na0 O32 2.449091 1_555
Na0 O51 2.607776 1_555
Na0 O17 2.634369 1_555
Na0 O0 2.746877 1_555
Na0 O10 2.929874 1_555
Na1 O68 2.362855 1_555
Na1 O51 2.377272 1_455
Na1 O66 2.408751 1_555
Na1 O30 2.493855 1_555
Na1 O52 2.592840 1_455
Na1 O15 2.646940 1_455
Na1 O1 2.732828 1_455
Na1 O11 2.936709 1_555
Na2 O50 2.374819 1_555
Na2 O71 2.407211 1_555
Na2 O69 2.411825 1_555
Na2 O35 2.496454 1_555
Na2 O49 2.607637 1_555
Na2 O14 2.614876 1_555
Na2 O4 2.824509 1_555
Na2 O6 2.858256 1_555
Na3 O48 2.342913 1_455
Na3 O70 2.347319 1_555
Na3 O69 2.412670 1_555
Na3 O33 2.516105 1_555
Na3 O50 2.643085 1_455
Na3 O12 2.706005 1_455
Na3 O5 2.744865 1_455
Na3 O7 2.931512 1_555
Na4 O71 2.306933 1_555
Na4 O49 2.424067 1_565
Na4 O70 2.479701 1_555
Na4 O34 2.500519 1_555
Na4 O48 2.613485 1_565
Na4 O13 2.661175 1_565
Na4 O3 2.730993 1_565
Na4 O8 2.857654 1_555
Na5 O64 2.377981 1_555
Na5 O42 2.382075 1_455
Na5 O43 2.402349 1_555
Na5 O7 2.511937 1_555
Na5 O65 2.622354 1_555
Na5 O28 2.686876 1_555
Na5 O21 2.835563 1_555
Na5 O14 2.852835 1_555
Na6 O43 2.307643 1_565
Na6 O65 2.416105 1_555
Na6 O44 2.432940 1_455
Na6 O8 2.539232 1_555
Na6 O63 2.588420 1_555
Na6 O29 2.695174 1_555
Na6 O12 2.758987 1_455
Na6 O22 2.824015 1_455
Na7 O44 2.368102 1_555
Na7 O6 2.385466 1_555
Na7 O63 2.397426 1_555
Na7 O42 2.428536 1_565
Na7 O27 2.658739 1_555
Na7 O64 2.666393 1_555
Na7 O13 2.723821 1_565
Na8 O45 2.309560 1_455
Na8 O62 2.430024 1_555
Na8 O47 2.483381 1_565
Na8 O11 2.508897 1_555
Na8 O61 2.594960 1_555
Na8 O26 2.681107 1_554
Na8 O16 2.714989 1_565
Na8 O18 2.772075 1_565
Na9 O60 2.374851 1_555
Na9 O45 2.405700 1_555
Na9 O46 2.412605 1_565
Na9 O9 2.449924 1_555
Na9 O62 2.610275 1_555
Na9 O24 2.694715 1_554
Na9 O17 2.837905 1_555
Na9 O19 2.851296 1_555
Na10 O47 2.337239 1_555
Na10 O61 2.372095 1_555
Na10 O46 2.408130 1_455
Na10 O10 2.532657 1_555
Na10 O25 2.655302 1_554
Na10 O60 2.673277 1_555
Na10 O15 2.713174 1_455
Na10 O20 2.937522 1_455
Na11 O54 2.359151 1_555
Na11 O19 2.361743 1_556
Na11 O40 2.389144 1_655
Na11 O55 2.452077 1_555
Na11 O41 2.579454 1_555
Na11 O4 2.734501 1_555
Na11 O26 2.754981 1_655
Na11 O33 2.971295 1_655
Na12 O55 2.354180 1_555
Na12 O41 2.382109 1_545
Na12 O56 2.408988 1_555
Na12 O20 2.488283 1_556
Na12 O39 2.598832 1_655
Na12 O5 2.624554 1_555
Na12 O24 2.802575 1_545
Na12 O34 2.942688 1_545
Na13 O57 2.336916 1_555
Na13 O38 2.379966 1_655
Na13 O59 2.400857 1_555
Na13 O23 2.508816 1_555
Na13 O37 2.585939 1_545
Na13 O2 2.620605 1_555
Na13 O28 2.788935 1_655
Na13 O30 2.928240 1_655
Na14 O21 2.354570 1_555
Na14 O58 2.362627 1_555
Na14 O36 2.392779 1_545
Na14 O57 2.461354 1_555
Na14 O38 2.601045 1_555
Na14 O0 2.737131 1_555
Na14 O29 2.741876 1_545
Na14 O31 2.871477 1_545
Na15 O43 2.415973 1_665
Na15 O36 2.457622 1_655
Na15 O44 2.471069 1_555
Na15 O37 2.480860 1_555
Na15 O38 2.512697 1_665
Na15 O42 2.538139 1_565
Na16 O45 2.415484 1_445
Na16 O40 2.430621 1_544
Na16 O39 2.440431 1_554
Na16 O41 2.500348 1_444
Na16 O47 2.507138 1_555
Na16 O46 2.570712 1_455
Na17 O54 2.396826 1_555
Na17 O56 2.437018 1_555
Na17 O49 2.439356 1_555
Na17 O48 2.485064 1_555
Na17 O55 2.546851 1_555
Na17 O50 2.546896 1_555
Na18 O58 2.418633 1_555
Na18 O51 2.453744 1_555
Na18 O52 2.461534 1_555
Na18 O53 2.486316 1_555
Na18 O59 2.486555 1_555
Na18 O57 2.498955 1_555
Na19 O66 2.434596 1_555
Na19 O67 2.435383 1_555
Na19 O62 2.463892 1_555
Na19 O61 2.514388 1_555
Na19 O68 2.565589 1_555
Na19 O60 2.573402 1_555
Na20 O71 2.380387 1_555
Na20 O63 2.448194 1_555
Na20 O64 2.513365 1_555
Na20 O69 2.532819 1_555
Na20 O70 2.542240 1_555
Na20 O65 2.548014 1_555
Mg0 O6 1.938541 1_455
Mg0 O8 1.995751 1_555
Mg0 O7 2.000510 1_565
Mg0 O43 2.021081 1_565
Mg0 O44 2.112452 1_455
Mg0 O42 2.117988 1_465
Mg1 O10 1.984539 1_665
Mg1 O9 1.990165 1_555
Mg1 O11 1.991295 1_655
Mg1 O45 2.020102 1_555
Mg1 O46 2.097275 1_565
Mg1 O47 2.104696 1_665
Mg2 O19 1.941779 1_556
Mg2 O18 1.959603 1_556
Mg2 O20 2.016244 1_556
Mg2 O56 2.076643 1_555
Mg2 O54 2.079282 1_555
Mg2 O55 2.158953 1_555
Mg3 O22 1.940609 1_555
Mg3 O21 1.941317 1_555
Mg3 O23 2.016268 1_555
Mg3 O59 2.078669 1_555
Mg3 O58 2.093830 1_555
Mg3 O57 2.134869 1_555
Mg4 O31 1.936141 1_555
Mg4 O32 1.989575 1_555
Mg4 O30 2.007262 1_555
Mg4 O67 2.061570 1_555
Mg4 O66 2.063386 1_555
Mg4 O68 2.157954 1_555
Mg5 O35 1.971547 1_555
Mg5 O34 1.984298 1_555
Mg5 O33 1.985606 1_555
Mg5 O71 2.021708 1_555
Mg5 O69 2.092103 1_555
Mg5 O70 2.097573 1_555
Ge0 O1 1.893258 1_555
Ge0 O2 1.933745 1_565
Ge0 O37 1.938534 1_555
Ge0 O0 1.974529 1_665
Ge0 O36 1.974700 1_655
Ge0 O38 2.064760 1_665
Ge1 O5 1.849574 1_455
Ge1 O3 1.912377 1_555
Ge1 O39 1.961281 1_555
Ge1 O4 1.969168 1_445
Ge1 O40 2.002767 1_545
Ge1 O41 2.076298 1_445
Ge2 O13 1.845144 1_555
Ge2 O48 1.885379 1_555
Ge2 O12 1.966083 1_555
Ge2 O14 1.972406 1_555
Ge2 O49 2.035304 1_555
Ge2 O50 2.082982 1_555
Ge3 O15 1.860944 1_555
Ge3 O16 1.921989 1_555
Ge3 O17 1.974440 1_555
Ge3 O52 1.975976 1_555
Ge3 O53 2.019489 1_555
Ge3 O51 2.041431 1_555
Ge4 O61 1.879911 1_555
Ge4 O25 1.919106 1_554
Ge4 O24 1.944632 1_554
Ge4 O26 1.959673 1_554
Ge4 O60 2.021434 1_555
Ge4 O62 2.039232 1_555
Ge5 O63 1.874280 1_555
Ge5 O27 1.924321 1_555
Ge5 O28 1.950510 1_555
Ge5 O29 1.968657 1_555
Ge5 O64 2.026372 1_555
Ge5 O65 2.042849 1_555
O0 P0 1.611160 1_555
O1 P1 1.597943 1_555
O2 P2 1.594350 1_555
O3 P3 1.588794 1_555
O4 P4 1.594999 1_555
O5 Si0 1.705883 1_555
O6 Si0 1.582915 1_565
O7 P3 1.510802 1_555
O8 P4 1.511420 1_455
O9 P1 1.503929 1_555
O10 P2 1.505323 1_455
O11 P0 1.512292 1_565
O12 P5 1.602093 1_555
O13 Si1 1.702180 1_555
O14 P6 1.607672 1_555
O15 Si2 1.708367 1_555
O16 P7 1.592121 1_555
O17 P8 1.602302 1_555
O18 P8 1.495753 1_555
O19 Si2 1.582374 1_555
O20 P7 1.509449 1_555
O21 Si1 1.580038 1_555
O22 P6 1.489293 1_555
O23 P5 1.504916 1_555
O24 P9 1.610872 1_555
O25 P10 1.592609 1_555
O26 P11 1.609413 1_555
O27 P12 1.602041 1_555
O28 P13 1.615000 1_555
O29 P14 1.610339 1_555
O30 P14 1.510317 1_555
O31 P12 1.488379 1_555
O32 P13 1.500052 1_555
O33 P10 1.506795 1_555
O34 P11 1.510617 1_555
O35 P9 1.501741 1_555
O36 P14 1.591673 1_555
O37 P12 1.590855 1_555
O38 P13 1.610107 1_555
O39 P10 1.583333 1_555
O40 P11 1.585603 1_555
O41 P9 1.603294 1_555
O42 P5 1.529175 1_555
O43 Si1 1.610090 1_555
O44 P6 1.529263 1_555
O45 Si2 1.612561 1_555
O46 P7 1.528649 1_555
O47 P8 1.530713 1_555
O48 Si0 1.699505 1_555
O49 P3 1.580103 1_555
O50 P4 1.577853 1_555
O51 P1 1.605003 1_555
O52 P2 1.583549 1_555
O53 P0 1.584938 1_555
O54 P9 1.521300 1_555
O55 P10 1.538518 1_655
O56 P11 1.519594 1_545
O57 P12 1.540300 1_545
O58 P13 1.521051 1_555
O59 P14 1.518577 1_655
O60 P8 1.589208 1_555
O61 Si2 1.703673 1_455
O62 P7 1.586150 1_565
O63 Si1 1.697132 1_565
O64 P6 1.590487 1_555
O65 P5 1.584642 1_455
O66 P0 1.522430 1_565
O67 P1 1.522766 1_555
O68 P2 1.542344 1_455
O69 P3 1.529046 1_555
O70 P4 1.530850 1_455
O71 Si0 1.613388 1_565
