# generated using pymatgen
data_Na2MgV2(OF)4
_symmetry_space_group_name_H-M   'P 1'
_cell_length_a   3.82742571
_cell_length_b   6.69665431
_cell_length_c   6.91663582
_cell_angle_alpha   106.12137804
_cell_angle_beta   90.00618858
_cell_angle_gamma   89.89727576
_symmetry_Int_Tables_number   1
_chemical_formula_structural   Na2MgV2(OF)4
_chemical_formula_sum   'Na2 Mg1 V2 O4 F4'
_cell_volume   170.30821347
_cell_formula_units_Z   1
loop_
 _symmetry_equiv_pos_site_id
 _symmetry_equiv_pos_as_xyz
  1  'x, y, z'
loop_
 _atom_site_type_symbol
 _atom_site_label
 _atom_site_symmetry_multiplicity
 _atom_site_fract_x
 _atom_site_fract_y
 _atom_site_fract_z
 _atom_site_occupancy
  Na  Na0  1  0.26199200  0.40495600  0.79648100  1
  Na  Na1  1  0.75673100  0.58933000  0.20528700  1
  Mg  Mg0  1  0.75958700  0.06275000  0.46243300  1
  V  V0  1  0.75951700  0.89163600  0.81443500  1
  V  V1  1  0.25842600  0.09161200  0.16638700  1
  O  O0  1  0.75861700  0.80177700  0.55879500  1
  O  O1  1  0.25864900  0.18834200  0.43858700  1
  O  O2  1  0.25913900  0.93978100  0.88360200  1
  O  O3  1  0.75830500  0.05442000  0.14090600  1
  F  F0  1  0.25762300  0.36792100  0.12153700  1
  F  F1  1  0.76186600  0.62205300  0.86868900  1
  F  F2  1  0.75954400  0.18486200  0.76111000  1
  F  F3  1  0.25820500  0.81056400  0.22619400  1
loop_
_geom_bond_atom_site_label_1
_geom_bond_atom_site_label_2
_geom_bond_distance
_geom_bond_site_symmetry_2
Na0 O1 2.497599 1_555
Na1 O0 2.463888 1_555
Mg0 O0 2.036025 1_545
Mg0 O1 2.113290 1_655
Mg0 O1 2.117026 1_555
Mg0 O3 2.209051 1_555
O0 V0 1.702251 1_555
O1 V1 1.812986 1_555
O2 V1 1.937784 1_566
O2 V0 1.976344 1_455
O2 V0 1.978125 1_555
O3 V1 1.930701 1_555
O3 V1 1.932465 1_655
O3 V0 2.218165 1_544
F0 V1 1.959277 1_555
F0 Na0 2.329442 1_554
F0 Na1 2.390843 1_555
F0 Na1 2.392153 1_455
F1 V0 1.943240 1_555
F1 Na0 2.369426 1_655
F1 Na0 2.372768 1_555
F1 Na1 2.398317 1_556
F2 Mg0 1.999559 1_555
F2 V0 2.096211 1_545
F2 Na0 2.376662 1_555
F2 Na0 2.395887 1_655
F3 V1 2.036103 1_565
F3 Na1 2.393223 1_555
F3 Na1 2.406432 1_455
