# generated using pymatgen
data_MgV2Te2O7F2
_symmetry_space_group_name_H-M   'P 1'
_cell_length_a   5.16721291
_cell_length_b   5.22478463
_cell_length_c   8.25890733
_cell_angle_alpha   113.86988586
_cell_angle_beta   100.69980902
_cell_angle_gamma   80.03862643
_symmetry_Int_Tables_number   1
_chemical_formula_structural   MgV2Te2O7F2
_chemical_formula_sum   'Mg1 V2 Te2 O7 F2'
_cell_volume   199.16242152
_cell_formula_units_Z   1
loop_
 _symmetry_equiv_pos_site_id
 _symmetry_equiv_pos_as_xyz
  1  'x, y, z'
loop_
 _atom_site_type_symbol
 _atom_site_label
 _atom_site_symmetry_multiplicity
 _atom_site_fract_x
 _atom_site_fract_y
 _atom_site_fract_z
 _atom_site_occupancy
  Mg  Mg0  1  0.50000000  -0.00000000  -0.00000000  1
  V  V0  1  0.73219431  0.38004475  0.37213456  1
  V  V1  1  0.26780569  0.61995525  0.62786544  1
  Te  Te0  1  0.83574699  0.27056770  0.77286364  1
  Te  Te1  1  0.16425301  0.72943230  0.22713636  1
  O  O0  1  0.17865030  0.98943219  0.79875113  1
  O  O1  1  0.01367408  0.61780781  0.38344268  1
  O  O2  1  0.82134970  0.01056781  0.20124887  1
  O  O3  1  0.55179292  0.60307407  0.82692814  1
  O  O4  1  0.44820708  0.39692593  0.17307186  1
  O  O5  1  0.98632592  0.38219219  0.61655732  1
  O  O6  1  -0.00000000  0.50000000  -0.00000000  1
  F  F0  1  0.47276100  0.24985205  0.47086782  1
  F  F1  1  0.52723900  0.75014795  0.52913218  1
loop_
_geom_bond_atom_site_label_1
_geom_bond_atom_site_label_2
_geom_bond_distance
_geom_bond_site_symmetry_2
Mg0 O3 1.991622 1_544
Mg0 O4 1.991622 1_555
Mg0 O2 2.110792 1_555
Mg0 O0 2.110792 1_544
O0 V1 1.912965 1_555
O0 Te0 2.134441 1_465
O1 Te1 1.936827 1_555
O1 V0 2.036707 1_455
O1 V1 2.191335 1_555
O2 V0 1.912965 1_555
O2 Te1 2.134441 1_645
O3 V1 2.010156 1_555
O3 Te0 2.025811 1_555
O4 V0 2.010156 1_555
O4 Te1 2.025811 1_555
O5 Te0 1.936827 1_555
O5 V1 2.036707 1_655
O5 V0 2.191335 1_555
O6 Te1 1.901884 1_555
O6 Te0 1.901884 1_454
F0 V0 2.023611 1_555
F0 V1 2.077075 1_555
F1 V1 2.023611 1_555
F1 V0 2.077075 1_555
