# generated using pymatgen
data_MgMnZn2WO6
_symmetry_space_group_name_H-M   'P 1'
_cell_length_a   5.42679604
_cell_length_b   5.29609102
_cell_length_c   9.05308060
_cell_angle_alpha   107.76893780
_cell_angle_beta   133.59048649
_cell_angle_gamma   103.88869837
_symmetry_Int_Tables_number   1
_chemical_formula_structural   MgMnZn2WO6
_chemical_formula_sum   'Mg1 Mn1 Zn2 W1 O6'
_cell_volume   135.90476024
_cell_formula_units_Z   1
loop_
 _symmetry_equiv_pos_site_id
 _symmetry_equiv_pos_as_xyz
  1  'x, y, z'
loop_
 _atom_site_type_symbol
 _atom_site_label
 _atom_site_symmetry_multiplicity
 _atom_site_fract_x
 _atom_site_fract_y
 _atom_site_fract_z
 _atom_site_occupancy
  Mg  Mg0  1  0.62017613  0.94636767  0.58667846  1
  Mn  Mn0  1  0.09643931  0.25099257  0.43590113  1
  Zn  Zn0  1  0.65141386  0.30036134  0.95994702  1
  Zn  Zn1  1  0.13809722  0.61823106  0.77319278  1
  W  W0  1  0.07036951  0.96721197  0.06389187  1
  O  O0  1  0.75860000  0.75214896  0.10088325  1
  O  O1  1  0.20816443  0.04791448  0.91109369  1
  O  O2  1  0.23753209  0.42155690  0.29147559  1
  O  O3  1  0.43930435  0.81413440  0.71134112  1
  O  O4  1  0.69090764  0.12296559  0.43243274  1
  O  O5  1  0.75590046  0.42764607  0.79254336  1
loop_
_geom_bond_atom_site_label_1
_geom_bond_atom_site_label_2
_geom_bond_distance
_geom_bond_site_symmetry_2
Mg0 O2 2.054795 1_555
Mg0 O4 2.082295 1_565
Mg0 O1 2.094168 1_665
Mg0 O3 2.099428 1_555
Mg0 O5 2.195242 1_565
Mn0 O4 2.116442 1_455
Mn0 O0 2.157733 1_445
Mn0 O5 2.173082 1_555
Mn0 O2 2.209344 1_555
Mn0 O3 2.230148 1_555
O0 Zn0 2.033812 1_554
O0 W0 2.088306 1_655
O0 Zn1 2.106276 1_554
O1 Zn1 2.019325 1_545
O1 W0 2.071047 1_546
O1 Zn0 2.096976 1_555
O2 W0 2.051014 1_545
O2 Zn0 2.053445 1_454
O3 Zn0 2.118631 1_565
O3 W0 2.141758 1_656
O3 Zn1 2.205557 1_555
O4 Zn1 1.991869 1_655
O4 W0 2.155300 1_545
O5 Zn0 2.167448 1_555
O5 W0 2.169319 1_656
O5 Zn1 2.226058 1_655
