# generated using pymatgen
data_Ta3N5
_symmetry_space_group_name_H-M   'P 1'
_cell_length_a   3.88114493
_cell_length_b   5.49273983
_cell_length_c   10.30944779
_cell_angle_alpha   90.00000000
_cell_angle_beta   90.00000000
_cell_angle_gamma   110.68915173
_symmetry_Int_Tables_number   1
_chemical_formula_structural   Ta3N5
_chemical_formula_sum   'Ta6 N10'
_cell_volume   205.60475918
_cell_formula_units_Z   2
loop_
 _symmetry_equiv_pos_site_id
 _symmetry_equiv_pos_as_xyz
  1  'x, y, z'
loop_
 _atom_site_type_symbol
 _atom_site_label
 _atom_site_symmetry_multiplicity
 _atom_site_fract_x
 _atom_site_fract_y
 _atom_site_fract_z
 _atom_site_occupancy
  Ta  Ta0  1  0.80298732  0.60597564  0.75000000  1
  Ta  Ta1  1  0.13326760  0.26653620  0.93993506  1
  Ta  Ta2  1  0.86673240  0.73346380  0.06006494  1
  Ta  Ta3  1  0.86673240  0.73346380  0.43993506  1
  Ta  Ta4  1  0.19701268  0.39402436  0.25000000  1
  Ta  Ta5  1  0.13326760  0.26653620  0.56006494  1
  N  N0  1  0.95288427  0.90576954  0.88115503  1
  N  N1  1  0.30809483  0.61618866  0.07408571  1
  N  N2  1  0.69190517  0.38381134  0.92591429  1
  N  N3  1  0.30809483  0.61618866  0.42591429  1
  N  N4  1  0.76321757  0.52643514  0.25000000  1
  N  N5  1  0.69190517  0.38381134  0.57408571  1
  N  N6  1  0.95288427  0.90576954  0.61884497  1
  N  N7  1  0.04711473  0.09423046  0.38115503  1
  N  N8  1  0.23678243  0.47356486  0.75000000  1
  N  N9  1  0.04711473  0.09423046  0.11884497  1
loop_
_geom_bond_atom_site_label_1
_geom_bond_atom_site_label_2
_geom_bond_distance
_geom_bond_site_symmetry_2
N0 Ta1 1.950339 1_665
N0 Ta2 2.045964 1_556
N0 Ta0 2.049732 1_555
N1 Ta2 2.037122 1_555
N1 Ta2 2.037122 1_455
N1 Ta4 2.142967 1_555
N1 Ta1 2.267346 1_554
N2 Ta1 2.037122 1_555
N2 Ta1 2.037122 1_655
N2 Ta0 2.142967 1_555
N2 Ta2 2.267346 1_556
N3 Ta3 2.037122 1_555
N3 Ta3 2.037122 1_455
N3 Ta4 2.142967 1_555
N3 Ta5 2.267346 1_555
N4 Ta4 2.056393 1_555
N4 Ta4 2.056397 1_655
N4 Ta2 2.228446 1_555
N4 Ta3 2.228446 1_555
N5 Ta5 2.037122 1_555
N5 Ta5 2.037122 1_655
N5 Ta0 2.142967 1_555
N5 Ta3 2.267346 1_555
N6 Ta5 1.950339 1_665
N6 Ta3 2.045964 1_555
N6 Ta0 2.049732 1_555
N7 Ta3 1.950339 1_445
N7 Ta5 2.045964 1_555
N7 Ta4 2.049732 1_555
N8 Ta0 2.056393 1_555
N8 Ta0 2.056397 1_455
N8 Ta1 2.228446 1_555
N8 Ta5 2.228446 1_555
N9 Ta2 1.950339 1_445
N9 Ta1 2.045964 1_554
N9 Ta4 2.049732 1_555
