# generated using pymatgen
data_SbSeI
_symmetry_space_group_name_H-M   'P 1'
_cell_length_a   4.17240215
_cell_length_b   9.03600667
_cell_length_c   10.71373639
_cell_angle_alpha   90.00000000
_cell_angle_beta   90.00000000
_cell_angle_gamma   90.00000000
_symmetry_Int_Tables_number   1
_chemical_formula_structural   SbSeI
_chemical_formula_sum   'Sb4 Se4 I4'
_cell_volume   403.92772150
_cell_formula_units_Z   4
loop_
 _symmetry_equiv_pos_site_id
 _symmetry_equiv_pos_as_xyz
  1  'x, y, z'
loop_
 _atom_site_type_symbol
 _atom_site_label
 _atom_site_symmetry_multiplicity
 _atom_site_fract_x
 _atom_site_fract_y
 _atom_site_fract_z
 _atom_site_occupancy
  Sb  Sb0  1  0.75000000  0.10881256  0.87125773  1
  Sb  Sb1  1  0.75000000  0.60881256  0.62874227  1
  Sb  Sb2  1  0.25000000  0.89118744  0.12874227  1
  Sb  Sb3  1  0.25000000  0.39118744  0.37125773  1
  Se  Se0  1  0.75000000  0.33785000  0.54280488  1
  Se  Se1  1  0.25000000  0.66215000  0.45719512  1
  Se  Se2  1  0.25000000  0.16215000  0.04280488  1
  Se  Se3  1  0.75000000  0.83785000  0.95719512  1
  I  I0  1  0.75000000  0.51509051  0.17849518  1
  I  I1  1  0.25000000  0.48490949  0.82150482  1
  I  I2  1  0.75000000  0.01509051  0.32150482  1
  I  I3  1  0.25000000  0.98490949  0.67849518  1
loop_
_geom_bond_atom_site_label_1
_geom_bond_atom_site_label_2
_geom_bond_distance
_geom_bond_site_symmetry_2
Sb0 Se3 2.615811 1_545
Sb0 Se2 2.821779 1_556
Sb0 Se2 2.821779 1_656
Sb1 Se0 2.615811 1_555
Sb1 Se1 2.821779 1_655
Sb1 Se1 2.821779 1_555
Sb2 Se2 2.615811 1_565
Sb2 Se3 2.821779 1_454
Sb2 Se3 2.821779 1_554
Sb3 Se1 2.615811 1_555
Sb3 Se0 2.821779 1_555
Sb3 Se0 2.821779 1_455
I0 Sb3 3.141782 1_655
I0 Sb3 3.141782 1_555
I1 Sb1 3.141782 1_555
I1 Sb1 3.141782 1_455
I2 Sb2 3.141782 1_545
I2 Sb2 3.141782 1_645
I3 Sb0 3.141782 1_565
I3 Sb0 3.141782 1_465
