# generated using pymatgen
data_Er7Ru2C11
_symmetry_space_group_name_H-M   'P 1'
_cell_length_a   8.40949775
_cell_length_b   8.40949775
_cell_length_c   19.73231800
_cell_angle_alpha   90.00000000
_cell_angle_beta   90.00000000
_cell_angle_gamma   156.63516777
_symmetry_Int_Tables_number   1
_chemical_formula_structural   Er7Ru2C11
_chemical_formula_sum   'Er14 Ru4 C22'
_cell_volume   553.41887141
_cell_formula_units_Z   2
loop_
 _symmetry_equiv_pos_site_id
 _symmetry_equiv_pos_as_xyz
  1  'x, y, z'
loop_
 _atom_site_type_symbol
 _atom_site_label
 _atom_site_symmetry_multiplicity
 _atom_site_fract_x
 _atom_site_fract_y
 _atom_site_fract_z
 _atom_site_occupancy
  Er  Er0  1  0.89588400  0.10411600  0.25000000  1
  Er  Er1  1  0.10411600  0.89588400  0.75000000  1
  Er  Er2  1  0.47818200  0.52181800  0.62711300  1
  Er  Er3  1  0.52181800  0.47818200  0.37288700  1
  Er  Er4  1  0.52181800  0.47818200  0.12711300  1
  Er  Er5  1  0.47818200  0.52181800  0.87288700  1
  Er  Er6  1  0.66176900  0.33823100  0.51877700  1
  Er  Er7  1  0.33823100  0.66176900  0.48122300  1
  Er  Er8  1  0.33823100  0.66176900  0.01877700  1
  Er  Er9  1  0.66176900  0.33823100  0.98122300  1
  Er  Er10  1  0.72130300  0.27869700  0.15498100  1
  Er  Er11  1  0.27869700  0.72130300  0.84501900  1
  Er  Er12  1  0.27869700  0.72130300  0.65498100  1
  Er  Er13  1  0.72130300  0.27869700  0.34501900  1
  Ru  Ru0  1  0.00000000  0.00000000  0.50000000  1
  Ru  Ru1  1  0.00000000  0.00000000  0.00000000  1
  Ru  Ru2  1  0.07986300  0.92013700  0.25000000  1
  Ru  Ru3  1  0.92013700  0.07986300  0.75000000  1
  C  C0  1  0.50039100  0.49960900  0.25000000  1
  C  C1  1  0.49960900  0.50039100  0.75000000  1
  C  C2  1  0.27792700  0.72207300  0.25000000  1
  C  C3  1  0.72207300  0.27792700  0.75000000  1
  C  C4  1  0.19698200  0.80301800  0.25000000  1
  C  C5  1  0.80301800  0.19698200  0.75000000  1
  C  C6  1  0.79354900  0.20645100  0.56371900  1
  C  C7  1  0.20645100  0.79354900  0.43628100  1
  C  C8  1  0.20645100  0.79354900  0.06371900  1
  C  C9  1  0.79354900  0.20645100  0.93628100  1
  C  C10  1  0.86706400  0.13293600  0.12370200  1
  C  C11  1  0.13293600  0.86706400  0.87629800  1
  C  C12  1  0.13293600  0.86706400  0.62370200  1
  C  C13  1  0.86706400  0.13293600  0.37629800  1
  C  C14  1  0.87317200  0.12682800  0.58475800  1
  C  C15  1  0.12682800  0.87317200  0.41524200  1
  C  C16  1  0.12682800  0.87317200  0.08475800  1
  C  C17  1  0.87317200  0.12682800  0.91524200  1
  C  C18  1  0.92528100  0.07471900  0.42109800  1
  C  C19  1  0.07471900  0.92528100  0.57890200  1
  C  C20  1  0.07471900  0.92528100  0.92109800  1
  C  C21  1  0.92528100  0.07471900  0.07890200  1
loop_
_geom_bond_atom_site_label_1
_geom_bond_atom_site_label_2
_geom_bond_distance
_geom_bond_site_symmetry_2
C0 Ru2 2.147771 1_655
C0 Ru2 2.147771 1_545
C0 Er0 2.421242 1_455
C0 Er0 2.421242 1_565
C0 Er3 2.450393 1_555
C0 Er4 2.450393 1_555
C1 Ru3 2.147771 1_565
C1 Ru3 2.147771 1_455
C1 Er1 2.421242 1_545
C1 Er1 2.421242 1_655
C1 Er5 2.450393 1_555
C1 Er2 2.450393 1_555
C2 C4 1.333212 1_555
C2 Er0 2.583433 1_565
C2 Er0 2.583433 1_455
C2 Er13 2.699035 1_565
C2 Er13 2.699035 1_455
C2 Er10 2.699035 1_565
C2 Er10 2.699035 1_455
C3 C5 1.333212 1_555
C3 Er1 2.583433 1_655
C3 Er1 2.583433 1_545
C3 Er11 2.699035 1_655
C3 Er11 2.699035 1_545
C3 Er12 2.699035 1_655
C3 Er12 2.699035 1_545
C4 Ru2 1.929019 1_555
C4 Er13 2.564265 1_565
C4 Er13 2.564265 1_455
C4 Er10 2.564265 1_565
C4 Er10 2.564265 1_455
C5 Ru3 1.929019 1_555
C5 Er11 2.564265 1_655
C5 Er11 2.564265 1_545
C5 Er12 2.564265 1_655
C5 Er12 2.564265 1_545
C6 Er6 2.344670 1_555
C6 Er7 2.468001 1_655
C6 Er7 2.468001 1_545
C6 Er12 2.490447 1_655
C6 Er12 2.490447 1_545
C7 Er7 2.344670 1_555
C7 Er6 2.468001 1_565
C7 Er6 2.468001 1_455
C7 Er13 2.490447 1_565
C7 Er13 2.490447 1_455
C8 Er8 2.344670 1_555
C8 Er9 2.468001 1_564
C8 Er9 2.468001 1_454
C8 Er10 2.490447 1_565
C8 Er10 2.490447 1_455
C9 Er9 2.344670 1_555
C9 Er8 2.468001 1_656
C9 Er8 2.468001 1_546
C9 Er11 2.490447 1_655
C9 Er11 2.490447 1_545
C10 C21 1.304185 1_555
C10 Er10 2.478838 1_555
C10 Er0 2.536956 1_555
C11 C20 1.304185 1_555
C11 Er11 2.478838 1_555
C11 Er1 2.536956 1_555
C12 C19 1.304185 1_555
C12 Er12 2.478838 1_555
C12 Er1 2.536956 1_555
C13 C18 1.304185 1_555
C13 Er13 2.478838 1_555
C13 Er0 2.536956 1_555
C14 C6 1.375579 1_555
C14 Er2 2.567003 1_655
C14 Er2 2.567003 1_545
C14 Ru0 2.675967 1_655
C14 Er12 2.690901 1_655
C14 Er12 2.690901 1_545
C14 Er7 2.721132 1_655
C14 Er7 2.721132 1_545
C15 C7 1.375579 1_555
C15 Er3 2.567003 1_565
C15 Er3 2.567003 1_455
C15 Ru0 2.675967 1_565
C15 Er13 2.690901 1_565
C15 Er13 2.690901 1_455
C15 Er6 2.721132 1_565
C15 Er6 2.721132 1_455
C16 C8 1.375579 1_555
C16 Er4 2.567003 1_565
C16 Er4 2.567003 1_455
C16 Ru1 2.675967 1_565
C16 Er10 2.690901 1_565
C16 Er10 2.690901 1_455
C16 Er9 2.721132 1_564
C16 Er9 2.721132 1_454
C17 C9 1.375579 1_555
C17 Er5 2.567003 1_655
C17 Er5 2.567003 1_545
C17 Ru1 2.675967 1_656
C17 Er11 2.690901 1_655
C17 Er11 2.690901 1_545
C17 Er8 2.721132 1_656
C17 Er8 2.721132 1_546
C18 Ru0 1.984575 1_655
C18 Er3 2.516493 1_545
C18 Er3 2.516493 1_655
C18 Er7 2.522461 1_545
C18 Er7 2.522461 1_655
C19 Ru0 1.984575 1_565
C19 Er2 2.516493 1_455
C19 Er2 2.516493 1_565
C19 Er6 2.522461 1_455
C19 Er6 2.522461 1_565
C20 Ru1 1.984575 1_566
C20 Er5 2.516493 1_455
C20 Er5 2.516493 1_565
C20 Er9 2.522461 1_455
C20 Er9 2.522461 1_565
C21 Ru1 1.984575 1_655
C21 Er4 2.516493 1_545
C21 Er4 2.516493 1_655
C21 Er8 2.522461 1_545
C21 Er8 2.522461 1_655
