# generated using pymatgen
data_Ti3Hg
_symmetry_space_group_name_H-M   'P 1'
_cell_length_a   4.13994900
_cell_length_b   4.13994900
_cell_length_c   4.13994900
_cell_angle_alpha   90.00000000
_cell_angle_beta   90.00000000
_cell_angle_gamma   90.00000000
_symmetry_Int_Tables_number   1
_chemical_formula_structural   Ti3Hg
_chemical_formula_sum   'Ti3 Hg1'
_cell_volume   70.95532167
_cell_formula_units_Z   1
loop_
 _symmetry_equiv_pos_site_id
 _symmetry_equiv_pos_as_xyz
  1  'x, y, z'
loop_
 _atom_site_type_symbol
 _atom_site_label
 _atom_site_symmetry_multiplicity
 _atom_site_fract_x
 _atom_site_fract_y
 _atom_site_fract_z
 _atom_site_occupancy
  Ti  Ti0  1  0.50000000  0.00000000  0.50000000  1
  Ti  Ti1  1  0.00000000  0.50000000  0.50000000  1
  Ti  Ti2  1  0.50000000  0.50000000  0.00000000  1
  Hg  Hg0  1  0.00000000  0.00000000  0.00000000  1
loop_
_geom_bond_atom_site_label_1
_geom_bond_atom_site_label_2
_geom_bond_distance
_geom_bond_site_symmetry_2
Ti0 Ti2 2.927386 1_545
Ti0 Ti1 2.927386 1_645
Ti0 Ti1 2.927386 1_655
Ti0 Ti1 2.927386 1_545
Ti0 Ti2 2.927386 1_546
Ti0 Ti1 2.927386 1_555
Ti0 Ti2 2.927386 1_555
Ti0 Ti2 2.927386 1_556
Ti1 Ti2 2.927386 1_456
Ti1 Ti2 2.927386 1_555
Ti1 Ti2 2.927386 1_455
Ti1 Ti2 2.927386 1_556
Hg0 Ti2 2.927386 1_445
Hg0 Ti2 2.927386 1_545
Hg0 Ti0 2.927386 1_555
Hg0 Ti0 2.927386 1_554
Hg0 Ti1 2.927386 1_545
Hg0 Ti1 2.927386 1_555
Hg0 Ti1 2.927386 1_554
Hg0 Ti2 2.927386 1_455
Hg0 Ti1 2.927386 1_544
Hg0 Ti2 2.927386 1_555
Hg0 Ti0 2.927386 1_455
Hg0 Ti0 2.927386 1_454
