# generated using pymatgen
data_MgCo4(NiO4)2
_symmetry_space_group_name_H-M   'P 1'
_cell_length_a   6.11994459
_cell_length_b   6.32015705
_cell_length_c   6.11994430
_cell_angle_alpha   55.95006160
_cell_angle_beta   56.55480485
_cell_angle_gamma   55.95006449
_symmetry_Int_Tables_number   1
_chemical_formula_structural   MgCo4(NiO4)2
_chemical_formula_sum   'Mg1 Co4 Ni2 O8'
_cell_volume   152.45616803
_cell_formula_units_Z   1
loop_
 _symmetry_equiv_pos_site_id
 _symmetry_equiv_pos_as_xyz
  1  'x, y, z'
loop_
 _atom_site_type_symbol
 _atom_site_label
 _atom_site_symmetry_multiplicity
 _atom_site_fract_x
 _atom_site_fract_y
 _atom_site_fract_z
 _atom_site_occupancy
  Mg  Mg0  1  0.00000000  0.00000000  0.00000000  1
  Co  Co0  1  0.17011600  0.12853300  0.17011600  1
  Co  Co1  1  0.50000000  0.00000000  0.50000000  1
  Co  Co2  1  0.50000000  0.50000000  0.50000000  1
  Co  Co3  1  0.82988400  0.87146700  0.82988400  1
  Ni  Ni0  1  0.00000000  0.50000000  0.50000000  1
  Ni  Ni1  1  0.50000000  0.50000000  0.00000000  1
  O  O0  1  0.27507500  0.27060200  0.27507500  1
  O  O1  1  0.26454700  0.22376600  0.74667300  1
  O  O2  1  0.26786300  0.73073600  0.26786300  1
  O  O3  1  0.74667300  0.22376600  0.26454700  1
  O  O4  1  0.25332700  0.77623400  0.73545300  1
  O  O5  1  0.73213700  0.26926400  0.73213700  1
  O  O6  1  0.73545300  0.77623400  0.25332700  1
  O  O7  1  0.72492500  0.72939800  0.72492500  1
loop_
_geom_bond_atom_site_label_1
_geom_bond_atom_site_label_2
_geom_bond_distance
_geom_bond_site_symmetry_2
Mg0 O6 2.089698 1_445
Mg0 O1 2.089698 1_554
Mg0 O4 2.089698 1_544
Mg0 O3 2.089698 1_455
Mg0 O5 2.232670 1_454
Mg0 O2 2.232670 1_545
Co0 O0 1.837928 1_555
Co0 O2 2.015604 1_545
Co0 O1 2.098547 1_554
Co0 O3 2.098547 1_455
Co1 O0 1.878994 1_555
Co1 O7 1.878994 1_545
Co1 O4 2.016519 1_545
Co1 O3 2.016519 1_555
Co1 O1 2.016519 1_555
Co1 O6 2.016519 1_545
Co2 O2 1.935952 1_555
Co2 O5 1.935952 1_555
Co2 O1 2.207092 1_555
Co2 O6 2.207092 1_555
Co2 O3 2.207092 1_555
Co2 O4 2.207092 1_555
Co3 O7 1.837928 1_555
Co3 O5 2.015604 1_565
Co3 O6 2.098547 1_556
Co3 O4 2.098547 1_655
Ni0 O0 1.943762 1_555
Ni0 O7 1.943762 1_455
Ni0 O1 2.127341 1_555
Ni0 O6 2.127341 1_455
Ni0 O5 2.149922 1_455
Ni0 O2 2.149922 1_555
Ni1 O0 1.943762 1_555
Ni1 O7 1.943762 1_554
Ni1 O4 2.127341 1_554
Ni1 O3 2.127341 1_555
Ni1 O5 2.149922 1_554
Ni1 O2 2.149922 1_555
