# generated using pymatgen
data_MgMn5Cr2O12
_symmetry_space_group_name_H-M   'P 1'
_cell_length_a   5.35872105
_cell_length_b   5.25504631
_cell_length_c   9.95364299
_cell_angle_alpha   83.04360380
_cell_angle_beta   96.61778757
_cell_angle_gamma   56.94717270
_symmetry_Int_Tables_number   1
_chemical_formula_structural   MgMn5Cr2O12
_chemical_formula_sum   'Mg1 Mn5 Cr2 O12'
_cell_volume   227.60288544
_cell_formula_units_Z   1
loop_
 _symmetry_equiv_pos_site_id
 _symmetry_equiv_pos_as_xyz
  1  'x, y, z'
loop_
 _atom_site_type_symbol
 _atom_site_label
 _atom_site_symmetry_multiplicity
 _atom_site_fract_x
 _atom_site_fract_y
 _atom_site_fract_z
 _atom_site_occupancy
  Mg  Mg0  1  0.82920600  0.29421700  0.51408300  1
  Mn  Mn0  1  0.08125400  0.08048200  0.23975500  1
  Mn  Mn1  1  0.00727500  0.54719700  0.97692800  1
  Mn  Mn2  1  0.50540800  0.00213600  0.51359000  1
  Mn  Mn3  1  0.41719600  0.42444900  0.24106900  1
  Mn  Mn4  1  0.58036000  0.56518600  0.75606800  1
  Cr  Cr0  1  0.26944300  0.25506300  0.75148600  1
  Cr  Cr1  1  0.74662500  0.74898900  0.24828800  1
  O  O0  1  0.98411200  0.26757400  0.87108600  1
  O  O1  1  0.25427500  0.97235200  0.62886100  1
  O  O2  1  0.10437500  0.32677100  0.37474200  1
  O  O3  1  0.36360400  0.16758600  0.13771500  1
  O  O4  1  0.31545800  0.51812700  0.85342200  1
  O  O5  1  0.54079500  0.29722500  0.63718600  1
  O  O6  1  0.46576600  0.69506800  0.34988100  1
  O  O7  1  0.73673800  0.46507900  0.13978800  1
  O  O8  1  0.60056100  0.83721700  0.86509200  1
  O  O9  1  0.83375900  0.59384000  0.62430400  1
  O  O10  1  0.74423400  0.04428100  0.37846100  1
  O  O11  1  0.02313400  0.78823800  0.14194600  1
loop_
_geom_bond_atom_site_label_1
_geom_bond_atom_site_label_2
_geom_bond_distance
_geom_bond_site_symmetry_2
Mg0 O1 2.020899 1_645
Mg0 O9 2.034095 1_555
Mg0 O5 2.074805 1_555
Mg0 O10 2.166775 1_555
Mg0 O2 2.194604 1_655
Mg0 O6 2.204277 1_555
Mn0 O7 1.871496 1_455
Mn0 O6 1.984603 1_545
Mn0 O2 2.013340 1_555
Mn0 O11 2.053628 1_545
Mn0 O3 2.127779 1_555
Mn0 O10 2.467755 1_455
Mn1 O8 1.928347 1_455
Mn1 O0 1.956612 1_455
Mn1 O4 2.121362 1_555
Mn1 O3 2.134034 1_556
Mn1 O11 2.213330 1_556
Mn1 O7 2.443441 1_456
Mn2 O1 1.922018 1_545
Mn2 O9 1.943247 1_545
Mn2 O10 2.032198 1_555
Mn2 O2 2.045449 1_555
Mn2 O5 2.164074 1_555
Mn2 O6 2.497069 1_545
Mn3 O3 1.911533 1_555
Mn3 O11 1.935616 1_555
Mn3 O10 1.974674 1_555
Mn3 O6 1.993761 1_555
Mn3 O7 2.176817 1_555
Mn3 O2 2.476108 1_555
Mn4 O4 1.912379 1_555
Mn4 O0 1.934439 1_555
Mn4 O8 1.936600 1_555
Mn4 O1 1.997538 1_555
Mn4 O5 2.024725 1_555
Mn4 O9 2.042635 1_555
Cr0 O4 1.911880 1_555
Cr0 O8 1.983601 1_545
Cr0 O0 2.021935 1_455
Cr0 O5 2.032129 1_555
Cr0 O1 2.061958 1_545
Cr0 O9 2.112286 1_455
Cr1 O7 1.964286 1_555
Cr1 O11 2.000118 1_655
Cr1 O6 2.028448 1_555
Cr1 O3 2.056892 1_565
Cr1 O2 2.076027 1_655
Cr1 O10 2.134516 1_565
