# generated using pymatgen
data_MnSiNi
_symmetry_space_group_name_H-M   'P 1'
_cell_length_a   3.53560096
_cell_length_b   5.93139220
_cell_length_c   6.84908277
_cell_angle_alpha   89.99877553
_cell_angle_beta   90.00000716
_cell_angle_gamma   90.00000061
_symmetry_Int_Tables_number   1
_chemical_formula_structural   MnSiNi
_chemical_formula_sum   'Mn4 Si4 Ni4'
_cell_volume   143.63236102
_cell_formula_units_Z   4
loop_
 _symmetry_equiv_pos_site_id
 _symmetry_equiv_pos_as_xyz
  1  'x, y, z'
loop_
 _atom_site_type_symbol
 _atom_site_label
 _atom_site_symmetry_multiplicity
 _atom_site_fract_x
 _atom_site_fract_y
 _atom_site_fract_z
 _atom_site_occupancy
  Mn  Mn0  1  0.75000005  0.47092788  0.67178333  1
  Mn  Mn1  1  0.24999999  0.02910346  0.17186250  1
  Mn  Mn2  1  0.75000003  0.97091776  0.82820157  1
  Mn  Mn3  1  0.25000001  0.52910739  0.32815852  1
  Si  Si0  1  0.24999998  0.26263869  0.87123667  1
  Si  Si1  1  0.24999989  0.76264474  0.62876245  1
  Si  Si2  1  0.74999996  0.73736018  0.12879661  1
  Si  Si3  1  0.75000002  0.23736200  0.37120350  1
  Ni  Ni0  1  0.25000016  0.64158702  0.93984688  1
  Ni  Ni1  1  0.25000022  0.14159320  0.56014844  1
  Ni  Ni2  1  0.74999982  0.85838191  0.43970425  1
  Ni  Ni3  1  0.74999987  0.35837776  0.06029627  1
loop_
_geom_bond_atom_site_label_1
_geom_bond_atom_site_label_2
_geom_bond_distance
_geom_bond_site_symmetry_2
Mn0 Si3 2.481452 1_555
Mn0 Si1 2.491146 1_655
Mn0 Si1 2.491147 1_555
Mn0 Si0 2.552944 1_655
Mn0 Si0 2.552945 1_555
Mn0 Ni0 2.742389 1_555
Mn0 Ni0 2.742389 1_655
Mn0 Ni1 2.743285 1_555
Mn0 Ni1 2.743286 1_655
Mn0 Ni3 2.743407 1_556
Mn0 Ni2 2.794262 1_555
Mn1 Si0 2.481563 1_554
Mn1 Si2 2.491301 1_545
Mn1 Si2 2.491301 1_445
Mn1 Si3 2.552473 1_555
Mn1 Si3 2.552473 1_455
Mn1 Ni2 2.741479 1_545
Mn1 Ni2 2.741481 1_445
Mn1 Ni1 2.741839 1_555
Mn1 Ni3 2.742876 1_555
Mn1 Ni3 2.742876 1_455
Mn1 Ni0 2.794375 1_544
Mn2 Si2 2.481462 1_556
Mn2 Si0 2.491183 1_665
Mn2 Si0 2.491184 1_565
Mn2 Si1 2.552874 1_655
Mn2 Si1 2.552874 1_555
Mn2 Ni1 2.742347 1_565
Mn2 Ni1 2.742349 1_665
Mn2 Ni0 2.743265 1_555
Mn2 Ni0 2.743265 1_655
Mn2 Ni2 2.743310 1_555
Mn2 Ni3 2.794408 1_566
Mn3 Si1 2.481494 1_555
Mn3 Si3 2.491284 1_455
Mn3 Si3 2.491284 1_555
Mn3 Si2 2.552505 1_555
Mn3 Si2 2.552505 1_455
Mn3 Ni3 2.741620 1_555
Mn3 Ni3 2.741621 1_455
Mn3 Ni0 2.741968 1_554
Mn3 Ni2 2.742860 1_555
Mn3 Ni2 2.742861 1_455
Mn3 Ni1 2.794208 1_555
Ni0 Si1 2.248368 1_555
Ni0 Si2 2.263322 1_556
Ni0 Si2 2.263323 1_456
Ni0 Si0 2.296298 1_555
Ni0 Ni3 2.574381 1_556
Ni0 Ni3 2.574383 1_456
Ni1 Si0 2.248398 1_555
Ni1 Si3 2.263283 1_555
Ni1 Si3 2.263284 1_455
Ni1 Si1 2.296284 1_545
Ni1 Ni2 2.574401 1_545
Ni1 Ni2 2.574403 1_445
Ni2 Si2 2.247181 1_555
Ni2 Si1 2.263680 1_555
Ni2 Si1 2.263680 1_655
Ni2 Si3 2.296309 1_565
Ni3 Si3 2.247138 1_555
Ni3 Si0 2.263702 1_554
Ni3 Si0 2.263703 1_654
Ni3 Si2 2.296342 1_555
