# generated using pymatgen
data_Dy3Co6Sn5
_symmetry_space_group_name_H-M   'P 1'
_cell_length_a   8.11491670
_cell_length_b   8.11491670
_cell_length_c   8.11491670
_cell_angle_alpha   149.14801124
_cell_angle_beta   107.33055777
_cell_angle_gamma   81.00321947
_symmetry_Int_Tables_number   1
_chemical_formula_structural   Dy3Co6Sn5
_chemical_formula_sum   'Dy3 Co6 Sn5'
_cell_volume   256.15787636
_cell_formula_units_Z   1
loop_
 _symmetry_equiv_pos_site_id
 _symmetry_equiv_pos_as_xyz
  1  'x, y, z'
loop_
 _atom_site_type_symbol
 _atom_site_label
 _atom_site_symmetry_multiplicity
 _atom_site_fract_x
 _atom_site_fract_y
 _atom_site_fract_z
 _atom_site_occupancy
  Dy  Dy0  1  0.31781700  0.31781700  0.00000000  1
  Dy  Dy1  1  0.68218300  0.68218300  0.00000000  1
  Dy  Dy2  1  0.00000000  0.00000000  0.00000000  1
  Co  Co0  1  0.38024500  0.10737200  0.27287400  1
  Co  Co1  1  0.61975500  0.89262800  0.72712600  1
  Co  Co2  1  0.83449800  0.10737200  0.72712600  1
  Co  Co3  1  0.69546200  0.50000000  0.19546200  1
  Co  Co4  1  0.30453800  0.50000000  0.80453800  1
  Co  Co5  1  0.16550200  0.89262800  0.27287400  1
  Sn  Sn0  1  0.98209700  0.32313400  0.65896300  1
  Sn  Sn1  1  0.33582900  0.67686600  0.65896300  1
  Sn  Sn2  1  0.66417100  0.32313400  0.34103700  1
  Sn  Sn3  1  0.50000000  0.00000000  0.50000000  1
  Sn  Sn4  1  0.01790300  0.67686600  0.34103700  1
loop_
_geom_bond_atom_site_label_1
_geom_bond_atom_site_label_2
_geom_bond_distance
_geom_bond_site_symmetry_2
Dy0 Sn3 3.116746 1_554
Dy0 Sn3 3.116746 1_565
Dy0 Sn1 3.165695 1_544
Dy0 Sn4 3.165695 1_555
Dy0 Sn1 3.165695 1_555
Dy0 Sn4 3.165695 1_544
Dy0 Sn2 3.280136 1_555
Dy0 Sn0 3.280136 1_454
Dy1 Sn3 3.116746 1_554
Dy1 Sn3 3.116746 1_565
Dy1 Sn0 3.165695 1_565
Dy1 Sn2 3.165695 1_554
Dy1 Sn0 3.165695 1_554
Dy1 Sn2 3.165695 1_565
Dy1 Sn1 3.280136 1_554
Dy1 Sn4 3.280136 1_655
Dy2 Sn0 3.429291 1_444
Dy2 Sn2 3.429291 1_444
Dy2 Sn4 3.429291 1_544
Dy2 Sn4 3.429291 1_555
Dy2 Sn1 3.429291 1_544
Dy2 Sn0 3.429291 1_455
Dy2 Sn1 3.429291 1_555
Dy2 Sn2 3.429291 1_455
Co0 Co4 2.551019 1_555
Co0 Co4 2.551023 1_544
Co0 Sn3 2.554618 1_555
Co0 Sn1 2.567991 1_555
Co0 Sn1 2.567994 1_544
Co0 Co5 2.650142 1_545
Co0 Sn2 2.742209 1_555
Co0 Dy2 2.939594 1_555
Co0 Dy1 3.206529 1_556
Co0 Dy1 3.206532 1_545
Co1 Co3 2.551019 1_555
Co1 Co3 2.551023 1_566
Co1 Sn3 2.554618 1_565
Co1 Sn2 2.567991 1_555
Co1 Sn2 2.567994 1_566
Co1 Co2 2.650142 1_565
Co1 Sn1 2.742209 1_555
Co1 Dy2 2.939594 1_666
Co1 Dy0 3.206529 1_555
Co1 Dy0 3.206532 1_566
Co2 Co3 2.551024 1_545
Co2 Co3 2.551024 1_556
Co2 Sn3 2.554617 1_555
Co2 Sn4 2.567993 1_645
Co2 Sn4 2.567993 1_656
Co2 Sn0 2.742202 1_555
Co2 Dy2 2.939601 1_656
Co2 Dy1 3.206525 1_545
Co2 Dy1 3.206525 1_556
Co3 Sn2 2.593034 1_555
Co3 Sn4 2.593034 1_655
Co3 Sn3 2.862183 1_565
Co3 Sn3 2.862183 1_554
Co3 Dy1 2.930498 1_555
Co3 Dy0 2.930498 1_555
Co4 Co5 2.551024 1_545
Co4 Co5 2.551024 1_556
Co4 Sn1 2.593034 1_555
Co4 Sn0 2.593034 1_455
Co4 Sn3 2.862183 1_555
Co4 Sn3 2.862183 1_566
Co4 Dy1 2.930498 1_556
Co4 Dy0 2.930498 1_556
Co5 Sn3 2.554617 1_565
Co5 Sn0 2.567993 1_465
Co5 Sn0 2.567993 1_454
Co5 Sn4 2.742202 1_555
Co5 Dy2 2.939601 1_565
Co5 Dy0 3.206525 1_566
Co5 Dy0 3.206525 1_555
Sn0 Sn2 3.057240 1_555
Sn0 Sn4 3.314067 1_645
Sn0 Sn4 3.314067 1_656
Sn1 Sn4 3.057240 1_555
Sn1 Sn2 3.314067 1_555
Sn1 Sn2 3.314067 1_566
