# generated using pymatgen
data_U2FeS5
_symmetry_space_group_name_H-M   'P 1'
_cell_length_a   7.84221069
_cell_length_b   7.84221069
_cell_length_c   6.94821931
_cell_angle_alpha   83.12189849
_cell_angle_beta   83.12189849
_cell_angle_gamma   44.90888114
_symmetry_Int_Tables_number   1
_chemical_formula_structural   U2FeS5
_chemical_formula_sum   'U4 Fe2 S10'
_cell_volume   299.13455594
_cell_formula_units_Z   2
loop_
 _symmetry_equiv_pos_site_id
 _symmetry_equiv_pos_as_xyz
  1  'x, y, z'
loop_
 _atom_site_type_symbol
 _atom_site_label
 _atom_site_symmetry_multiplicity
 _atom_site_fract_x
 _atom_site_fract_y
 _atom_site_fract_z
 _atom_site_occupancy
  U  U0  1  0.68627700  0.09503700  0.58529500  1
  U  U1  1  0.90496300  0.31372300  0.91470500  1
  U  U2  1  0.09503700  0.68627700  0.08529500  1
  U  U3  1  0.31372300  0.90496300  0.41470500  1
  Fe  Fe0  1  0.00000000  0.50000000  0.50000000  1
  Fe  Fe1  1  0.50000000  0.00000000  0.00000000  1
  S  S0  1  0.69201500  0.86527500  0.30861500  1
  S  S1  1  0.13472500  0.30798500  0.19138500  1
  S  S2  1  0.30798500  0.13472500  0.69138500  1
  S  S3  1  0.86527500  0.69201500  0.80861500  1
  S  S4  1  0.47542000  0.70940500  0.07517000  1
  S  S5  1  0.29059500  0.52458000  0.42483000  1
  S  S6  1  0.09763700  0.90236300  0.75000000  1
  S  S7  1  0.90236300  0.09763700  0.25000000  1
  S  S8  1  0.70940500  0.47542000  0.57517000  1
  S  S9  1  0.52458000  0.29059500  0.92483000  1
loop_
_geom_bond_atom_site_label_1
_geom_bond_atom_site_label_2
_geom_bond_distance
_geom_bond_site_symmetry_2
Fe0 S8 2.411721 1_455
Fe0 S5 2.411721 1_555
Fe0 S2 2.421660 1_555
Fe0 S0 2.421660 1_455
Fe0 S1 2.441131 1_555
Fe0 S3 2.441131 1_455
Fe1 S9 2.411721 1_554
Fe1 S4 2.411721 1_545
Fe1 S1 2.421660 1_555
Fe1 S3 2.421660 1_544
Fe1 S2 2.441131 1_554
Fe1 S0 2.441131 1_545
S0 U2 2.725843 1_655
S0 U0 2.763784 1_565
S0 U3 2.768487 1_555
S1 U3 2.725843 1_545
S1 U1 2.763784 1_454
S1 U2 2.768487 1_555
S2 U1 2.725843 1_455
S2 U3 2.763784 1_545
S2 U0 2.768487 1_555
S3 U0 2.725843 1_565
S3 U2 2.763784 1_656
S3 U1 2.768487 1_555
S4 U3 2.630785 1_555
S4 U1 2.709665 1_554
S4 U2 3.106356 1_555
S5 U2 2.630785 1_555
S5 U0 2.709665 1_555
S5 U3 3.106356 1_555
S6 U2 2.718742 1_556
S6 U3 2.718742 1_555
S6 U0 2.750512 1_465
S6 U1 2.750512 1_465
S7 U1 2.718742 1_554
S7 U0 2.718742 1_555
S7 U3 2.750512 1_645
S7 U2 2.750512 1_645
S8 U1 2.630785 1_555
S8 U3 2.709665 1_555
S8 U0 3.106356 1_555
S9 U0 2.630785 1_555
S9 U2 2.709665 1_556
S9 U1 3.106356 1_555
