# generated using pymatgen
data_Na4MgSi2SnSO12
_symmetry_space_group_name_H-M   'P 1'
_cell_length_a   9.18567932
_cell_length_b   9.09513618
_cell_length_c   22.37165962
_cell_angle_alpha   90.79474829
_cell_angle_beta   90.00000000
_cell_angle_gamma   120.32986262
_symmetry_Int_Tables_number   1
_chemical_formula_structural   Na4MgSi2SnSO12
_chemical_formula_sum   'Na24 Mg6 Si12 Sn6 S6 O72'
_cell_volume   1613.02114559
_cell_formula_units_Z   6
loop_
 _symmetry_equiv_pos_site_id
 _symmetry_equiv_pos_as_xyz
  1  'x, y, z'
loop_
 _atom_site_type_symbol
 _atom_site_label
 _atom_site_symmetry_multiplicity
 _atom_site_fract_x
 _atom_site_fract_y
 _atom_site_fract_z
 _atom_site_occupancy
  Na  Na0  1  0.63825627  0.01883059  0.25453602  1
  Na  Na1  1  0.36212663  0.35117742  0.24430292  1
  Na  Na2  1  0.99741629  0.62548240  0.24343545  1
  Na  Na3  1  0.62806611  0.62548240  0.74343545  1
  Na  Na4  1  0.98905079  0.35117742  0.74430292  1
  Na  Na5  1  0.38057432  0.01883059  0.75453602  1
  Na  Na6  1  0.30492327  0.35216359  0.58786902  1
  Na  Na7  1  0.02879363  0.68451042  0.57763592  1
  Na  Na8  1  0.66408329  0.95881540  0.57676845  1
  Na  Na9  1  0.29473311  0.95881540  0.07676845  1
  Na  Na10  1  0.65571779  0.68451042  0.07763592  1
  Na  Na11  1  0.04724132  0.35216359  0.08786902  1
  Na  Na12  1  0.97158927  0.68549759  0.92120302  1
  Na  Na13  1  0.69545963  0.01784442  0.91096992  1
  Na  Na14  1  0.33074929  0.29214940  0.91010245  1
  Na  Na15  1  0.96139911  0.29214940  0.41010245  1
  Na  Na16  1  0.32238379  0.01784442  0.41096992  1
  Na  Na17  1  0.71390732  0.68549759  0.42120302  1
  Na  Na18  1  0.98292429  0.98909758  0.49565689  1
  Na  Na19  1  0.00617329  0.98909758  0.99565689  1
  Na  Na20  1  0.64959129  0.32243058  0.82898989  1
  Na  Na21  1  0.67284029  0.32243058  0.32898989  1
  Na  Na22  1  0.31625729  0.65576458  0.16232389  1
  Na  Na23  1  0.33950629  0.65576458  0.66232389  1
  Mg  Mg0  1  0.00202876  0.00257728  0.35135975  1
  Mg  Mg1  1  0.00054852  0.00257728  0.85135975  1
  Mg  Mg2  1  0.66869576  0.33591028  0.68469275  1
  Mg  Mg3  1  0.66721552  0.33591028  0.18469275  1
  Mg  Mg4  1  0.33536176  0.66924428  0.01802675  1
  Mg  Mg5  1  0.33388152  0.66924428  0.51802675  1
  Si  Si0  1  0.30073282  0.00376876  0.25341902  1
  Si  Si1  1  0.99866027  0.29282772  0.25353616  1
  Si  Si2  1  0.29416745  0.29282772  0.75353616  1
  Si  Si3  1  0.70303594  0.00376876  0.75341902  1
  Si  Si4  1  0.96739982  0.33710176  0.58675202  1
  Si  Si5  1  0.66532727  0.62616072  0.58686916  1
  Si  Si6  1  0.96083445  0.62616072  0.08686916  1
  Si  Si7  1  0.36970294  0.33710176  0.08675202  1
  Si  Si8  1  0.63406582  0.67043576  0.92008602  1
  Si  Si9  1  0.33199327  0.95949472  0.92020316  1
  Si  Si10  1  0.62750045  0.95949472  0.42020316  1
  Si  Si11  1  0.03636894  0.67043576  0.42008602  1
  Sn  Sn0  1  0.98519588  0.00587937  0.65052286  1
  Sn  Sn1  1  0.02068348  0.00587937  0.15052286  1
  Sn  Sn2  1  0.65186288  0.33921237  0.98385586  1
  Sn  Sn3  1  0.68735048  0.33921237  0.48385586  1
  Sn  Sn4  1  0.31852888  0.67254637  0.31718986  1
  Sn  Sn5  1  0.35401648  0.67254637  0.81718986  1
  S  S0  1  0.70629781  0.70845152  0.25105423  1
  S  S1  1  0.00215371  0.70845152  0.75105423  1
  S  S2  1  0.37296481  0.04178452  0.58438723  1
  S  S3  1  0.66882071  0.04178452  0.08438723  1
  S  S4  1  0.03963081  0.37511852  0.91772123  1
  S  S5  1  0.33548671  0.37511852  0.41772123  1
  O  O0  1  0.20933145  0.02900656  0.31043381  1
  O  O1  1  0.81175174  0.79208443  0.30411274  1
  O  O2  1  0.96977454  0.17550992  0.31000842  1
  O  O3  1  0.20573539  0.17550992  0.81000842  1
  O  O4  1  0.98033268  0.79208443  0.80411274  1
  O  O5  1  0.81967511  0.02900656  0.81043381  1
  O  O6  1  0.77334704  0.95118731  0.69203660  1
  O  O7  1  0.17781642  0.21043400  0.69033948  1
  O  O8  1  0.03540163  0.81525653  0.69577126  1
  O  O9  1  0.77985490  0.81525653  0.19577126  1
  O  O10  1  0.03261758  0.21043400  0.19033948  1
  O  O11  1  0.17784027  0.95118731  0.19203660  1
  O  O12  1  0.87599845  0.36233956  0.64376681  1
  O  O13  1  0.47841874  0.12541743  0.63744574  1
  O  O14  1  0.63644154  0.50884292  0.64334142  1
  O  O15  1  0.87240239  0.50884292  0.14334142  1
  O  O16  1  0.64699968  0.12541743  0.13744574  1
  O  O17  1  0.48634211  0.36233956  0.14376681  1
  O  O18  1  0.44001404  0.28452031  0.02536960  1
  O  O19  1  0.84448342  0.54376700  0.02367248  1
  O  O20  1  0.70206863  0.14858953  0.02910426  1
  O  O21  1  0.44652190  0.14858953  0.52910426  1
  O  O22  1  0.69928458  0.54376700  0.52367248  1
  O  O23  1  0.84450727  0.28452031  0.52536960  1
  O  O24  1  0.54266445  0.69567356  0.97710081  1
  O  O25  1  0.14508474  0.45875143  0.97077974  1
  O  O26  1  0.30310754  0.84217692  0.97667542  1
  O  O27  1  0.53906839  0.84217692  0.47667542  1
  O  O28  1  0.31366568  0.45875143  0.47077974  1
  O  O29  1  0.15300811  0.69567356  0.47710081  1
  O  O30  1  0.10668004  0.61785431  0.35870360  1
  O  O31  1  0.51114942  0.87710100  0.35700648  1
  O  O32  1  0.36873463  0.48192353  0.36243826  1
  O  O33  1  0.11318790  0.48192353  0.86243826  1
  O  O34  1  0.36595058  0.87710100  0.85700648  1
  O  O35  1  0.51117327  0.61785431  0.85870360  1
  O  O36  1  0.01622710  0.83676787  0.41194321  1
  O  O37  1  0.81658236  0.98977793  0.41263094  1
  O  O38  1  0.18241153  0.20573240  0.41146779  1
  O  O39  1  0.02332088  0.20573240  0.91146779  1
  O  O40  1  0.17319557  0.98977793  0.91263094  1
  O  O41  1  0.82054077  0.83676787  0.91194321  1
  O  O42  1  0.98548909  0.16138286  0.58596072  1
  O  O43  1  0.20087176  0.02119009  0.58877803  1
  O  O44  1  0.85251412  0.81357748  0.58869370  1
  O  O45  1  0.96106336  0.81357748  0.08869370  1
  O  O46  1  0.82031833  0.02119009  0.08877803  1
  O  O47  1  0.17589377  0.16138286  0.08596072  1
  O  O48  1  0.68289410  0.17010087  0.74527621  1
  O  O49  1  0.48324936  0.32311093  0.74596394  1
  O  O50  1  0.84907853  0.53906540  0.74480079  1
  O  O51  1  0.68998788  0.53906540  0.24480079  1
  O  O52  1  0.83986257  0.32311093  0.24596394  1
  O  O53  1  0.48720777  0.17010087  0.24527621  1
  O  O54  1  0.65215609  0.49471586  0.91929372  1
  O  O55  1  0.86753876  0.35452309  0.92211103  1
  O  O56  1  0.51918112  0.14691048  0.92202670  1
  O  O57  1  0.62773036  0.14691048  0.42202670  1
  O  O58  1  0.48698533  0.35452309  0.42211103  1
  O  O59  1  0.84256077  0.49471586  0.41929372  1
  O  O60  1  0.34956010  0.50343487  0.07861021  1
  O  O61  1  0.14991536  0.65644493  0.07929794  1
  O  O62  1  0.51574453  0.87239940  0.07813479  1
  O  O63  1  0.35665388  0.87239940  0.57813479  1
  O  O64  1  0.50652857  0.65644493  0.57929794  1
  O  O65  1  0.15387377  0.50343487  0.57861021  1
  O  O66  1  0.31882209  0.82804986  0.25262772  1
  O  O67  1  0.53420476  0.68785709  0.25544503  1
  O  O68  1  0.18584712  0.48024448  0.25536070  1
  O  O69  1  0.29439636  0.48024448  0.75536070  1
  O  O70  1  0.15365133  0.68785709  0.75544503  1
  O  O71  1  0.50922677  0.82804986  0.75262772  1
loop_
_geom_bond_atom_site_label_1
_geom_bond_atom_site_label_2
_geom_bond_distance
_geom_bond_site_symmetry_2
Na0 O53 2.407646 1_555
Na0 O52 2.442093 1_555
Na0 O66 2.545226 1_545
Na0 O31 2.615732 1_545
Na0 O67 2.659219 1_545
Na0 O16 2.792820 1_555
Na0 O2 2.900413 1_555
Na1 O53 2.438231 1_555
Na1 O68 2.443938 1_555
Na1 O17 2.502051 1_555
Na1 O51 2.606151 1_555
Na1 O67 2.650999 1_555
Na1 O32 2.870979 1_555
Na1 O10 2.881219 1_555
Na1 O0 2.951509 1_555
Na2 O52 2.376012 1_555
Na2 O15 2.482372 1_555
Na2 O51 2.520386 1_555
Na2 O66 2.578553 1_655
Na2 O68 2.670382 1_655
Na2 O30 2.781607 1_655
Na2 O11 2.824964 1_655
Na3 O49 2.376012 1_555
Na3 O14 2.482374 1_555
Na3 O50 2.520395 1_555
Na3 O71 2.578560 1_555
Na3 O69 2.670390 1_555
Na3 O35 2.781611 1_555
Na3 O6 2.824964 1_555
Na4 O48 2.438223 1_555
Na4 O69 2.443929 1_655
Na4 O12 2.502047 1_555
Na4 O50 2.606143 1_555
Na4 O70 2.650999 1_655
Na4 O33 2.870977 1_655
Na4 O7 2.881219 1_655
Na4 O5 2.951509 1_555
Na5 O48 2.407653 1_555
Na5 O49 2.442092 1_555
Na5 O71 2.545219 1_545
Na5 O34 2.615730 1_545
Na5 O70 2.659221 1_545
Na5 O13 2.792821 1_555
Na5 O3 2.900413 1_555
Na6 O65 2.407659 1_555
Na6 O64 2.442096 1_555
Na6 O42 2.545226 1_455
Na6 O7 2.615732 1_555
Na6 O43 2.659219 1_555
Na6 O28 2.792803 1_555
Na6 O14 2.900413 1_555
Na7 O65 2.438215 1_555
Na7 O44 2.443938 1_455
Na7 O29 2.502025 1_555
Na7 O63 2.606144 1_555
Na7 O43 2.650999 1_565
Na7 O8 2.870979 1_555
Na7 O22 2.881219 1_455
Na7 O12 2.951509 1_455
Na8 O64 2.376005 1_555
Na8 O27 2.482353 1_555
Na8 O63 2.520398 1_555
Na8 O42 2.578553 1_565
Na8 O44 2.670382 1_555
Na8 O6 2.781607 1_555
Na8 O23 2.824964 1_565
Na9 O61 2.376005 1_555
Na9 O26 2.482348 1_554
Na9 O62 2.520380 1_555
Na9 O47 2.578560 1_565
Na9 O45 2.670390 1_455
Na9 O11 2.781611 1_555
Na9 O18 2.824964 1_565
Na10 O60 2.438230 1_555
Na10 O45 2.443929 1_555
Na10 O24 2.502033 1_554
Na10 O62 2.606159 1_555
Na10 O46 2.650999 1_565
Na10 O9 2.870977 1_555
Na10 O19 2.881219 1_555
Na10 O17 2.951509 1_555
Na11 O60 2.407643 1_555
Na11 O61 2.442100 1_555
Na11 O47 2.545219 1_555
Na11 O10 2.615730 1_555
Na11 O46 2.659221 1_455
Na11 O25 2.792800 1_554
Na11 O15 2.900413 1_455
Na12 O41 2.407646 1_555
Na12 O40 2.442093 1_655
Na12 O54 2.545220 1_555
Na12 O19 2.615713 1_556
Na12 O55 2.659229 1_555
Na12 O4 2.792820 1_555
Na12 O26 2.900413 1_655
Na13 O41 2.438231 1_545
Na13 O56 2.443920 1_555
Na13 O5 2.502051 1_555
Na13 O39 2.606151 1_655
Na13 O55 2.650989 1_555
Na13 O20 2.870953 1_556
Na13 O34 2.881219 1_545
Na13 O24 2.951509 1_545
Na14 O40 2.376012 1_545
Na14 O3 2.482372 1_555
Na14 O39 2.520386 1_555
Na14 O54 2.578557 1_555
Na14 O56 2.670395 1_555
Na14 O18 2.781592 1_556
Na14 O35 2.824964 1_555
Na15 O37 2.376012 1_545
Na15 O2 2.482374 1_555
Na15 O38 2.520395 1_655
Na15 O59 2.578543 1_555
Na15 O57 2.670379 1_555
Na15 O23 2.781585 1_555
Na15 O30 2.824964 1_655
Na16 O36 2.438223 1_545
Na16 O57 2.443936 1_555
Na16 O0 2.502047 1_555
Na16 O38 2.606143 1_555
Na16 O58 2.650989 1_555
Na16 O21 2.870957 1_555
Na16 O31 2.881219 1_545
Na16 O29 2.951509 1_545
Na17 O36 2.407653 1_655
Na17 O37 2.442092 1_555
Na17 O59 2.545235 1_555
Na17 O22 2.615717 1_555
Na17 O58 2.659225 1_555
Na17 O1 2.792821 1_555
Na17 O27 2.900413 1_555
Na18 O37 2.407201 1_555
Na18 O36 2.424165 1_655
Na18 O42 2.532233 1_565
Na18 O44 2.544878 1_555
Na18 O38 2.691445 1_665
Na18 O43 2.797530 1_665
Na19 O40 2.407201 1_555
Na19 O41 2.424165 1_455
Na19 O47 2.532233 1_566
Na19 O45 2.544878 1_456
Na19 O39 2.691445 1_565
Na19 O46 2.797530 1_466
Na20 O49 2.407201 1_555
Na20 O48 2.424165 1_555
Na20 O54 2.532233 1_555
Na20 O56 2.544878 1_555
Na20 O50 2.691445 1_555
Na20 O55 2.797530 1_555
Na21 O52 2.407201 1_555
Na21 O53 2.424165 1_555
Na21 O59 2.532233 1_555
Na21 O57 2.544878 1_555
Na21 O51 2.691445 1_555
Na21 O58 2.797530 1_555
Na22 O61 2.407201 1_555
Na22 O60 2.424165 1_555
Na22 O66 2.532233 1_555
Na22 O68 2.544878 1_555
Na22 O62 2.691445 1_555
Na22 O67 2.797530 1_555
Na23 O64 2.407201 1_555
Na23 O65 2.424165 1_555
Na23 O71 2.532233 1_555
Na23 O69 2.544878 1_555
Na23 O63 2.691445 1_555
Na23 O70 2.797530 1_555
Mg0 O2 1.982027 1_455
Mg0 O0 2.016414 1_555
Mg0 O36 2.093699 1_545
Mg0 O1 2.098022 1_445
Mg0 O37 2.144381 1_445
Mg0 O38 2.192446 1_555
Mg1 O3 1.982027 1_555
Mg1 O5 2.016414 1_455
Mg1 O41 2.093699 1_445
Mg1 O4 2.098022 1_445
Mg1 O40 2.144381 1_545
Mg1 O39 2.192446 1_555
Mg2 O14 1.982027 1_555
Mg2 O12 2.016414 1_555
Mg2 O48 2.093699 1_555
Mg2 O13 2.098022 1_555
Mg2 O49 2.144381 1_555
Mg2 O50 2.192446 1_555
Mg3 O15 1.982027 1_555
Mg3 O17 2.016414 1_555
Mg3 O53 2.093699 1_555
Mg3 O16 2.098022 1_555
Mg3 O52 2.144381 1_555
Mg3 O51 2.192446 1_555
Mg4 O26 1.982027 1_554
Mg4 O24 2.016414 1_554
Mg4 O60 2.093699 1_555
Mg4 O25 2.098022 1_554
Mg4 O61 2.144381 1_555
Mg4 O62 2.192446 1_555
Mg5 O27 1.982027 1_555
Mg5 O29 2.016414 1_555
Mg5 O65 2.093699 1_555
Mg5 O28 2.098022 1_555
Mg5 O64 2.144381 1_555
Mg5 O63 2.192446 1_555
O0 Si0 1.603448 1_555
O1 S0 1.468568 1_555
O2 Si1 1.598913 1_555
O3 Si2 1.598913 1_555
O4 S1 1.468568 1_655
O5 Si3 1.603448 1_555
O6 Si3 1.680868 1_565
O6 Sn0 1.982925 1_565
O7 Si2 1.692461 1_555
O7 Sn0 2.003699 1_455
O8 S1 1.516644 1_555
O8 Sn0 2.258197 1_465
O9 S0 1.516644 1_555
O9 Sn1 2.258197 1_665
O10 Si1 1.692461 1_455
O10 Sn1 2.003699 1_555
O11 Si0 1.680868 1_565
O11 Sn1 1.982925 1_565
O12 Si4 1.603448 1_555
O13 S2 1.468568 1_555
O14 Si5 1.598913 1_555
O15 Si6 1.598913 1_555
O16 S3 1.468568 1_555
O17 Si7 1.603448 1_555
O18 Si7 1.680868 1_555
O18 Sn2 1.982925 1_554
O19 Si6 1.692461 1_555
O19 Sn2 2.003699 1_554
O20 S3 1.516644 1_555
O20 Sn2 2.258197 1_554
O21 S2 1.516644 1_555
O21 Sn3 2.258197 1_555
O22 Si5 1.692461 1_555
O22 Sn3 2.003699 1_555
O23 Si4 1.680868 1_555
O23 Sn3 1.982925 1_555
O24 Si8 1.603448 1_555
O25 S4 1.468568 1_555
O26 Si9 1.598913 1_555
O27 Si10 1.598913 1_555
O28 S5 1.468568 1_555
O29 Si11 1.603448 1_555
O30 Si11 1.680868 1_555
O30 Sn4 1.982925 1_555
O31 Si10 1.692461 1_555
O31 Sn4 2.003699 1_555
O32 S5 1.516644 1_555
O32 Sn4 2.258197 1_555
O33 S4 1.516644 1_555
O33 Sn5 2.258197 1_555
O34 Si9 1.692461 1_555
O34 Sn5 2.003699 1_555
O35 Si8 1.680868 1_555
O35 Sn5 1.982925 1_555
O36 Si11 1.626760 1_555
O37 Si10 1.624606 1_555
O38 S5 1.475242 1_555
O39 S4 1.475246 1_555
O40 Si9 1.624597 1_555
O41 Si8 1.626765 1_555
O42 Si4 1.688059 1_555
O42 Sn0 2.034534 1_555
O43 S2 1.498366 1_555
O43 Sn0 2.362004 1_455
O44 Si5 1.703438 1_555
O44 Sn0 2.058584 1_565
O45 Si6 1.703443 1_555
O45 Sn1 2.058584 1_665
O46 S3 1.498357 1_555
O46 Sn1 2.362004 1_655
O47 Si7 1.688064 1_555
O47 Sn1 2.034534 1_555
O48 Si3 1.626760 1_555
O49 Si2 1.624606 1_555
O50 S1 1.475242 1_655
O51 S0 1.475246 1_555
O52 Si1 1.624597 1_555
O53 Si0 1.626765 1_555
O54 Si8 1.688073 1_555
O54 Sn2 2.034534 1_555
O55 S4 1.498352 1_655
O55 Sn2 2.362004 1_555
O56 Si9 1.703438 1_545
O56 Sn2 2.058584 1_555
O57 Si10 1.703429 1_545
O57 Sn3 2.058584 1_555
O58 S5 1.498370 1_555
O58 Sn3 2.362004 1_555
O59 Si11 1.688063 1_655
O59 Sn3 2.034534 1_555
O60 Si7 1.626771 1_555
O61 Si6 1.624591 1_455
O62 S3 1.475239 1_565
O63 S2 1.475231 1_565
O64 Si5 1.624609 1_555
O65 Si4 1.626760 1_455
O66 Si0 1.688059 1_565
O66 Sn4 2.034534 1_555
O67 S0 1.498366 1_555
O67 Sn4 2.362004 1_555
O68 Si1 1.703438 1_455
O68 Sn4 2.058584 1_555
O69 Si2 1.703443 1_555
O69 Sn5 2.058584 1_555
O70 S1 1.498357 1_555
O70 Sn5 2.362004 1_555
O71 Si3 1.688064 1_565
O71 Sn5 2.034534 1_555
