# generated using pymatgen
data_Na3LaSc(PO4)3
_symmetry_space_group_name_H-M   'P 1'
_cell_length_a   9.31919843
_cell_length_b   9.27615824
_cell_length_c   23.34118529
_cell_angle_alpha   89.83662611
_cell_angle_beta   90.15834707
_cell_angle_gamma   119.83509592
_symmetry_Int_Tables_number   1
_chemical_formula_structural   Na3LaSc(PO4)3
_chemical_formula_sum   'Na18 La6 Sc6 P18 O72'
_cell_volume   1750.31905935
_cell_formula_units_Z   6
loop_
 _symmetry_equiv_pos_site_id
 _symmetry_equiv_pos_as_xyz
  1  'x, y, z'
loop_
 _atom_site_type_symbol
 _atom_site_label
 _atom_site_symmetry_multiplicity
 _atom_site_fract_x
 _atom_site_fract_y
 _atom_site_fract_z
 _atom_site_occupancy
  Na  Na0  1  0.00093453  0.00058978  0.50238436  1
  Na  Na1  1  0.99863472  0.99840617  0.00081559  1
  Na  Na2  1  0.64007605  0.32030184  0.83303970  1
  Na  Na3  1  0.68112085  0.36144767  0.33594926  1
  Na  Na4  1  0.33030176  0.66619102  0.17188756  1
  Na  Na5  1  0.33366428  0.66717149  0.66657389  1
  Na  Na6  1  0.63666877  0.00240348  0.24838775  1
  Na  Na7  1  0.36148424  0.36026064  0.24846612  1
  Na  Na8  1  0.64008866  0.63261231  0.74445643  1
  Na  Na9  1  0.99026497  0.36010560  0.74295533  1
  Na  Na10  1  0.03420631  0.70133920  0.58455109  1
  Na  Na11  1  0.66774791  0.97025200  0.58464050  1
  Na  Na12  1  0.29834018  0.96951446  0.08923225  1
  Na  Na13  1  0.02465432  0.32710559  0.08990936  1
  Na  Na14  1  0.97082761  0.66572018  0.91804251  1
  Na  Na15  1  0.69675265  0.03025063  0.91711240  1
  Na  Na16  1  0.96968309  0.30321777  0.41640868  1
  Na  Na17  1  0.33594368  0.03416004  0.41757381  1
  La  La0  1  0.98779242  0.98280956  0.34365467  1
  La  La1  1  0.01841623  0.01348868  0.84293678  1
  La  La2  1  0.65864890  0.34194764  0.99154446  1
  La  La3  1  0.34555674  0.66031684  0.02043812  1
  La  La4  1  0.33930448  0.65440697  0.51898929  1
  La  La5  1  0.33255455  0.67088138  0.81322662  1
  Sc  Sc0  1  0.01091234  0.00717210  0.64731534  1
  Sc  Sc1  1  0.99252164  0.98916045  0.15553693  1
  Sc  Sc2  1  0.65783110  0.32671821  0.68049607  1
  Sc  Sc3  1  0.67302802  0.34165266  0.18326793  1
  Sc  Sc4  1  0.66139730  0.33925149  0.48390397  1
  Sc  Sc5  1  0.32876099  0.66534679  0.31734887  1
  P  P0  1  0.31026680  0.00109985  0.24852520  1
  P  P1  1  0.68651990  0.69014142  0.24779352  1
  P  P2  1  0.00092101  0.30709904  0.24844812  1
  P  P3  1  0.30874286  0.30163792  0.74229493  1
  P  P4  1  0.98812003  0.69047798  0.74292187  1
  P  P5  1  0.70727530  0.00791531  0.74270806  1
  P  P6  1  0.94522026  0.32305525  0.58463669  1
  P  P7  1  0.37147157  0.04922363  0.58219573  1
  P  P8  1  0.68263519  0.63214041  0.58689020  1
  P  P9  1  0.96676631  0.64251121  0.08680761  1
  P  P10  1  0.67771461  0.03975114  0.08960866  1
  P  P11  1  0.35005434  0.31569521  0.09372050  1
  P  P12  1  0.64821676  0.67108898  0.91111075  1
  P  P13  1  0.02040456  0.35801828  0.91770831  1
  P  P14  1  0.33446482  0.97184531  0.92148904  1
  P  P15  1  0.62846132  0.97501383  0.41657351  1
  P  P16  1  0.34129378  0.36762770  0.41152528  1
  P  P17  1  0.03455787  0.65580523  0.41912936  1
  O  O0  1  0.24433102  0.03974964  0.30364935  1
  O  O1  1  0.78086919  0.74691855  0.30453888  1
  O  O2  1  0.96026443  0.20311324  0.30419306  1
  O  O3  1  0.24888091  0.22129268  0.80139733  1
  O  O4  1  0.97230423  0.76199528  0.80095728  1
  O  O5  1  0.79737298  0.03231580  0.80089531  1
  O  O6  1  0.81351542  0.99520788  0.69381682  1
  O  O7  1  0.18482088  0.19257468  0.69564900  1
  O  O8  1  0.00392190  0.80873082  0.69337522  1
  O  O9  1  0.78752512  0.81828710  0.20039378  1
  O  O10  1  0.02874231  0.21057182  0.19910016  1
  O  O11  1  0.19227771  0.97713777  0.19796116  1
  O  O12  1  0.85643335  0.33788418  0.63806544  1
  O  O13  1  0.48230921  0.14404830  0.63312412  1
  O  O14  1  0.66792262  0.53199684  0.64105415  1
  O  O15  1  0.85334212  0.51378115  0.13143252  1
  O  O16  1  0.66211597  0.14548928  0.13760150  1
  O  O17  1  0.46633442  0.33160095  0.14291125  1
  O  O18  1  0.41939706  0.29402532  0.03639741  1
  O  O19  1  0.89035262  0.58699492  0.02641520  1
  O  O20  1  0.70354230  0.12995274  0.03114467  1
  O  O21  1  0.45269934  0.14527493  0.52585453  1
  O  O22  1  0.68949727  0.53624877  0.53330982  1
  O  O23  1  0.84125241  0.30586629  0.52983738  1
  O  O24  1  0.55148844  0.68164103  0.96307623  1
  O  O25  1  0.11933228  0.44802856  0.97209177  1
  O  O26  1  0.32569132  0.87865198  0.97773983  1
  O  O27  1  0.55521828  0.87860403  0.47265272  1
  O  O28  1  0.30562424  0.44272665  0.46437644  1
  O  O29  1  0.12781565  0.68055981  0.47617059  1
  O  O30  1  0.13510436  0.63683912  0.36902625  1
  O  O31  1  0.51837752  0.87611019  0.36430002  1
  O  O32  1  0.35591345  0.47290143  0.35763530  1
  O  O33  1  0.11047333  0.45612745  0.86291439  1
  O  O34  1  0.34598885  0.87484506  0.86947556  1
  O  O35  1  0.55709715  0.66202589  0.85471766  1
  O  O36  1  0.02261020  0.81476600  0.41176747  1
  O  O37  1  0.80929081  0.01101861  0.41207844  1
  O  O38  1  0.18888579  0.18924009  0.40792664  1
  O  O39  1  0.99173614  0.17903036  0.91762564  1
  O  O40  1  0.17221053  0.97781646  0.91836535  1
  O  O41  1  0.81989938  0.83131576  0.91373374  1
  O  O42  1  0.96093390  0.16330040  0.58808692  1
  O  O43  1  0.19231171  0.02023713  0.58733954  1
  O  O44  1  0.84531208  0.80608615  0.58727025  1
  O  O45  1  0.99391545  0.81896381  0.09705979  1
  O  O46  1  0.83421464  0.02442134  0.09853653  1
  O  O47  1  0.17681333  0.15739622  0.09891449  1
  O  O48  1  0.68807437  0.16308632  0.73623177  1
  O  O49  1  0.48572441  0.33145163  0.73585595  1
  O  O50  1  0.82970944  0.51684609  0.73840781  1
  O  O51  1  0.65498510  0.51232601  0.23652684  1
  O  O52  1  0.84807226  0.32726847  0.23696366  1
  O  O53  1  0.48686672  0.15370666  0.23897119  1
  O  O54  1  0.67344772  0.51903025  0.91429400  1
  O  O55  1  0.84894720  0.34823450  0.91786373  1
  O  O56  1  0.49397634  0.14277229  0.91937445  1
  O  O57  1  0.63317103  0.14612239  0.41938816  1
  O  O58  1  0.49927134  0.35343095  0.41948009  1
  O  O59  1  0.86348169  0.49377343  0.42160508  1
  O  O60  1  0.32356412  0.46800347  0.09334489  1
  O  O61  1  0.13830987  0.65174953  0.08968125  1
  O  O62  1  0.51451896  0.87106749  0.09016424  1
  O  O63  1  0.35752928  0.87410768  0.58266932  1
  O  O64  1  0.53662226  0.66779810  0.58650421  1
  O  O65  1  0.11607350  0.48404121  0.58379733  1
  O  O66  1  0.33035075  0.84475007  0.25581908  1
  O  O67  1  0.51550405  0.68337828  0.25265241  1
  O  O68  1  0.16445084  0.47602341  0.25535568  1
  O  O69  1  0.31598215  0.47296678  0.74047937  1
  O  O70  1  0.13872721  0.66195411  0.74157383  1
  O  O71  1  0.53982914  0.84334809  0.74190578  1
loop_
_geom_bond_atom_site_label_1
_geom_bond_atom_site_label_2
_geom_bond_distance
_geom_bond_site_symmetry_2
Na0 O44 2.583834 1_445
Na0 O43 2.608682 1_555
Na0 O42 2.645714 1_455
Na0 O37 2.791414 1_455
Na0 O36 2.802737 1_545
Na0 O38 2.817928 1_555
Na1 O39 2.582589 1_564
Na1 O40 2.585232 1_654
Na1 O41 2.595896 1_554
Na1 O45 2.779487 1_555
Na1 O47 2.781505 1_665
Na1 O46 2.828260 1_565
Na2 O56 2.528203 1_555
Na2 O54 2.556989 1_555
Na2 O55 2.693660 1_555
Na2 O49 2.711828 1_555
Na2 O48 2.847137 1_555
Na2 O50 2.849329 1_555
Na3 O59 2.512302 1_555
Na3 O58 2.563379 1_555
Na3 O57 2.660223 1_555
Na3 O51 2.778672 1_555
Na3 O52 2.893823 1_555
Na3 O53 2.940335 1_555
Na4 O67 2.503596 1_555
Na4 O68 2.565246 1_555
Na4 O66 2.568879 1_555
Na4 O61 2.577787 1_555
Na4 O60 2.578443 1_555
Na4 O62 2.636043 1_555
Na5 O69 2.436536 1_555
Na5 O70 2.509334 1_555
Na5 O71 2.515428 1_555
Na5 O64 2.660611 1_555
Na5 O63 2.669431 1_555
Na5 O65 2.701888 1_555
Na6 O53 2.431705 1_555
Na6 O66 2.482974 1_545
Na6 O67 2.591639 1_545
Na6 O52 2.669200 1_555
Na6 O16 2.859255 1_555
Na6 O9 2.925229 1_545
Na6 O31 2.936151 1_545
Na6 O2 2.943251 1_555
Na7 O51 2.389914 1_555
Na7 O68 2.552475 1_555
Na7 O67 2.602638 1_555
Na7 O53 2.705010 1_555
Na7 O17 2.714985 1_555
Na7 O32 2.767192 1_555
Na7 O0 2.906299 1_555
Na7 O10 2.928550 1_555
Na8 O49 2.432469 1_555
Na8 O50 2.487213 1_555
Na8 O71 2.552298 1_555
Na8 O69 2.621678 1_555
Na8 O14 2.649662 1_555
Na8 O35 2.742472 1_555
Na9 O70 2.429063 1_655
Na9 O48 2.484674 1_555
Na9 O50 2.554771 1_555
Na9 O69 2.674287 1_655
Na9 O12 2.705948 1_555
Na9 O5 2.976100 1_555
Na9 O33 2.981995 1_655
Na10 O44 2.397876 1_455
Na10 O65 2.485123 1_555
Na10 O43 2.567014 1_565
Na10 O63 2.616240 1_555
Na10 O29 2.716614 1_555
Na10 O8 2.796819 1_555
Na11 O42 2.410335 1_565
Na11 O64 2.440262 1_555
Na11 O63 2.566976 1_555
Na11 O44 2.750860 1_555
Na11 O27 2.786671 1_555
Na11 O6 2.839740 1_555
Na12 O45 2.468085 1_455
Na12 O47 2.517686 1_565
Na12 O61 2.557085 1_555
Na12 O62 2.592937 1_555
Na12 O11 2.739917 1_555
Na12 O26 2.788838 1_554
Na12 O18 2.909029 1_565
Na13 O60 2.418883 1_555
Na13 O46 2.472709 1_455
Na13 O47 2.598228 1_555
Na13 O61 2.648944 1_555
Na13 O10 2.773137 1_555
Na13 O25 2.934327 1_554
Na13 O20 2.954189 1_455
Na13 O15 3.042294 1_455
Na14 O54 2.405553 1_555
Na14 O41 2.548751 1_555
Na14 O40 2.549005 1_655
Na14 O55 2.575867 1_555
Na14 O19 2.636163 1_556
Na14 O4 2.870644 1_555
Na15 O39 2.384703 1_555
Na15 O55 2.559285 1_555
Na15 O56 2.574238 1_555
Na15 O41 2.614792 1_545
Na15 O20 2.810446 1_556
Na15 O5 2.869491 1_555
Na16 O37 2.358106 1_555
Na16 O59 2.421019 1_555
Na16 O57 2.723328 1_555
Na16 O38 2.735412 1_655
Na16 O2 2.768018 1_555
Na16 O30 2.901703 1_655
Na16 O23 2.913730 1_555
Na16 O28 2.947407 1_655
Na17 O57 2.426947 1_555
Na17 O38 2.440568 1_555
Na17 O58 2.569998 1_555
Na17 O36 2.602507 1_545
Na17 O21 2.741858 1_555
Na17 O0 2.798800 1_555
La0 O1 2.267897 1_555
La0 O36 2.355629 1_655
La0 O2 2.366429 1_565
La0 O0 2.370568 1_665
La0 O37 2.415898 1_565
La0 O38 2.420643 1_665
La1 O3 2.269381 1_555
La1 O5 2.362760 1_455
La1 O4 2.366509 1_445
La1 O40 2.391230 1_545
La1 O39 2.420043 1_455
La1 O41 2.428828 1_445
La2 O18 2.299776 1_556
La2 O19 2.368340 1_556
La2 O20 2.388017 1_556
La2 O54 2.393243 1_555
La2 O56 2.405938 1_555
La2 O55 2.453472 1_555
La3 O24 2.269307 1_554
La3 O25 2.337638 1_554
La3 O26 2.343069 1_554
La3 O60 2.396062 1_555
La3 O62 2.427138 1_555
La3 O61 2.492484 1_555
La4 O28 2.231125 1_555
La4 O27 2.319272 1_555
La4 O29 2.325013 1_555
La4 O64 2.374445 1_555
La4 O65 2.417859 1_555
La4 O63 2.462309 1_555
La5 O34 2.257577 1_555
La5 O35 2.341542 1_555
La5 O33 2.344059 1_555
La5 O70 2.429406 1_555
La5 O71 2.447376 1_555
La5 O69 2.451891 1_555
O0 P0 1.545255 1_555
O1 P1 1.530216 1_555
O2 P2 1.548840 1_655
O3 P3 1.534420 1_555
O4 P4 1.549301 1_555
O5 P5 1.551506 1_555
O6 P5 1.555495 1_565
O6 Sc0 2.093245 1_665
O7 P3 1.542541 1_555
O7 Sc0 2.021076 1_555
O8 P4 1.547696 1_455
O8 Sc0 2.101974 1_565
O9 P1 1.551775 1_555
O9 Sc1 2.060794 1_555
O10 P2 1.560201 1_555
O10 Sc1 2.164796 1_445
O11 P0 1.550004 1_565
O11 Sc1 2.157355 1_455
O12 P6 1.542308 1_555
O12 Sc2 2.058129 1_555
O13 P7 1.532597 1_555
O13 Sc2 2.003066 1_555
O14 P8 1.532188 1_555
O14 Sc2 2.072353 1_555
O15 P9 1.539878 1_555
O15 Sc3 2.041451 1_555
O16 P10 1.545022 1_555
O16 Sc3 2.069769 1_555
O17 P11 1.532754 1_555
O17 Sc3 2.101925 1_555
O18 P11 1.543950 1_555
O19 P9 1.546953 1_555
O20 P10 1.554072 1_555
O21 P7 1.556924 1_555
O21 Sc4 2.120724 1_555
O22 P8 1.556525 1_555
O22 Sc4 2.066867 1_555
O23 P6 1.562315 1_555
O23 Sc4 2.135268 1_555
O24 P12 1.545279 1_555
O25 P13 1.546627 1_555
O26 P14 1.549729 1_555
O27 P15 1.539460 1_555
O28 P16 1.534653 1_555
O29 P17 1.541905 1_555
O30 P17 1.564562 1_555
O30 Sc5 2.077801 1_555
O31 P15 1.563914 1_555
O31 Sc5 2.170218 1_555
O32 P16 1.554331 1_555
O32 Sc5 2.138598 1_555
O33 P13 1.551684 1_555
O34 P14 1.548609 1_555
O35 P12 1.544073 1_555
O36 P17 1.542082 1_555
O37 P15 1.550214 1_545
O38 P16 1.556968 1_555
O39 P13 1.544892 1_655
O40 P14 1.541905 1_555
O41 P12 1.551286 1_555
O42 P6 1.561785 1_555
O42 Sc0 2.209485 1_655
O43 P7 1.558395 1_555
O43 Sc0 2.154173 1_555
O44 P8 1.570978 1_555
O44 Sc0 2.227992 1_665
O45 P9 1.546040 1_555
O45 Sc1 2.094875 1_555
O46 P10 1.547659 1_555
O46 Sc1 2.126124 1_545
O47 P11 1.555191 1_555
O47 Sc1 2.113221 1_445
O48 P5 1.543243 1_555
O48 Sc2 2.118537 1_555
O49 P3 1.538384 1_555
O49 Sc2 2.079893 1_555
O50 P4 1.555265 1_555
O50 Sc2 2.166580 1_555
O51 P1 1.547874 1_555
O51 Sc3 2.087437 1_555
O52 P2 1.548752 1_655
O52 Sc3 2.110447 1_555
O53 P0 1.563431 1_555
O53 Sc3 2.174806 1_555
O54 P12 1.542623 1_555
O55 P13 1.554702 1_655
O56 P14 1.543018 1_545
O57 P15 1.567419 1_545
O57 Sc4 2.256239 1_555
O58 P16 1.552586 1_555
O58 Sc4 2.178377 1_555
O59 P17 1.555606 1_655
O59 Sc4 2.243442 1_555
O60 P11 1.550511 1_555
O61 P9 1.559053 1_455
O62 P10 1.547157 1_565
O63 P7 1.563838 1_565
O64 P8 1.552033 1_555
O65 P6 1.549108 1_455
O66 P0 1.560760 1_565
O66 Sc5 2.189579 1_555
O67 P1 1.567880 1_555
O67 Sc5 2.249541 1_555
O68 P2 1.558156 1_555
O68 Sc5 2.202093 1_555
O69 P3 1.557269 1_555
O70 P4 1.552650 1_455
O71 P5 1.547745 1_565
