# generated using pymatgen
data_Y(CuO2)2
_symmetry_space_group_name_H-M   'P 1'
_cell_length_a   5.59696615
_cell_length_b   5.67663409
_cell_length_c   6.18609444
_cell_angle_alpha   116.43229704
_cell_angle_beta   116.01074305
_cell_angle_gamma   91.73662053
_symmetry_Int_Tables_number   1
_chemical_formula_structural   Y(CuO2)2
_chemical_formula_sum   'Y2 Cu4 O8'
_cell_volume   151.83377571
_cell_formula_units_Z   2
loop_
 _symmetry_equiv_pos_site_id
 _symmetry_equiv_pos_as_xyz
  1  'x, y, z'
loop_
 _atom_site_type_symbol
 _atom_site_label
 _atom_site_symmetry_multiplicity
 _atom_site_fract_x
 _atom_site_fract_y
 _atom_site_fract_z
 _atom_site_occupancy
  Y  Y0  1  0.87479824  0.12479617  0.74959866  1
  Y  Y1  1  0.12520176  0.87520383  0.25040134  1
  Cu  Cu0  1  0.50000000  0.00000000  -0.00000000  1
  Cu  Cu1  1  0.50000000  0.50000000  -0.00000000  1
  Cu  Cu2  1  -0.00000000  0.50000000  0.50000000  1
  Cu  Cu3  1  0.50000000  0.50000000  0.50000000  1
  O  O0  1  0.72050353  0.52529346  0.85710823  1
  O  O1  1  0.13656299  0.83182494  0.85710355  1
  O  O2  1  0.27949647  0.47470654  0.14289177  1
  O  O3  1  0.86343701  0.16817506  0.14289645  1
  O  O4  1  0.53614554  0.13541291  0.35057124  1
  O  O5  1  0.81445611  0.71517025  0.35062748  1
  O  O6  1  0.18554389  0.28482975  0.64937252  1
  O  O7  1  0.46385446  0.86458709  0.64942876  1
loop_
_geom_bond_atom_site_label_1
_geom_bond_atom_site_label_2
_geom_bond_distance
_geom_bond_site_symmetry_2
Cu0 O1 1.839683 1_544
Cu0 O3 1.839683 1_555
Cu0 O7 1.859186 1_544
Cu0 O4 1.859186 1_555
Cu1 O0 1.839612 1_554
Cu1 O2 1.839612 1_555
Cu1 O6 1.859298 1_554
Cu1 O5 1.859298 1_555
Cu2 O5 1.914227 1_455
Cu2 O6 1.914227 1_555
Cu2 O3 1.933805 1_455
Cu2 O1 1.933805 1_555
Cu3 O7 1.914405 1_555
Cu3 O4 1.914405 1_555
Cu3 O2 1.933784 1_555
Cu3 O0 1.933784 1_555
O0 Y1 2.363637 1_656
O0 Y0 2.373480 1_555
O1 Y1 2.363752 1_556
O1 Y0 2.373268 1_465
O2 Y0 2.363637 1_454
O2 Y1 2.373480 1_555
O3 Y0 2.363752 1_554
O3 Y1 2.373268 1_645
O4 Y1 2.363296 1_545
O4 Y0 2.392728 1_555
O5 Y1 2.363493 1_655
O5 Y0 2.392582 1_565
O6 Y0 2.363493 1_455
O6 Y1 2.392582 1_545
O7 Y0 2.363296 1_565
O7 Y1 2.392728 1_555
