# generated using pymatgen
data_Y2MgCr3O9
_symmetry_space_group_name_H-M   'P 1'
_cell_length_a   3.87521314
_cell_length_b   3.87521945
_cell_length_c   13.01550288
_cell_angle_alpha   90.02153690
_cell_angle_beta   89.97246172
_cell_angle_gamma   89.99305181
_symmetry_Int_Tables_number   1
_chemical_formula_structural   Y2MgCr3O9
_chemical_formula_sum   'Y2 Mg1 Cr3 O9'
_cell_volume   195.45769077
_cell_formula_units_Z   1
loop_
 _symmetry_equiv_pos_site_id
 _symmetry_equiv_pos_as_xyz
  1  'x, y, z'
loop_
 _atom_site_type_symbol
 _atom_site_label
 _atom_site_symmetry_multiplicity
 _atom_site_fract_x
 _atom_site_fract_y
 _atom_site_fract_z
 _atom_site_occupancy
  Y  Y0  1  0.99963500  0.00032900  0.92856400  1
  Y  Y1  1  0.00041200  0.99971400  0.40476100  1
  Mg  Mg0  1  0.99993400  0.99997300  0.16666100  1
  Cr  Cr0  1  0.49992800  0.50004300  0.16668700  1
  Cr  Cr1  1  0.50003900  0.49999000  0.52781100  1
  Cr  Cr2  1  0.49997600  0.50003600  0.80548300  1
  O  O0  1  0.50023800  0.49978800  0.99877700  1
  O  O1  1  0.49974600  0.50019800  0.33460400  1
  O  O2  1  0.50001300  0.49999800  0.66664700  1
  O  O3  1  0.49996400  0.99981400  0.16669100  1
  O  O4  1  0.50012300  0.99998900  0.49511500  1
  O  O5  1  0.49989200  0.00004200  0.83819900  1
  O  O6  1  0.00009600  0.50004000  0.16669200  1
  O  O7  1  0.00004100  0.49993400  0.49511400  1
  O  O8  1  0.99997000  0.50011000  0.83819400  1
loop_
_geom_bond_atom_site_label_1
_geom_bond_atom_site_label_2
_geom_bond_distance
_geom_bond_site_symmetry_2
Mg0 O6 1.937350 1_655
Mg0 O3 1.937490 1_555
Mg0 O3 1.937723 1_655
Mg0 O6 1.937869 1_665
Cr0 O3 1.936722 1_555
Cr0 O6 1.936956 1_555
Cr0 O6 1.938258 1_655
Cr0 O3 1.938497 1_545
Cr0 O0 2.185433 1_554
Cr0 O1 2.185524 1_555
Cr1 O2 1.807020 1_555
Cr1 O7 1.983599 1_655
Cr1 O4 1.983639 1_545
Cr1 O4 1.983944 1_555
Cr1 O7 1.983983 1_555
Cr1 O1 2.514687 1_555
Cr2 O2 1.807020 1_555
Cr2 O8 1.983653 1_455
Cr2 O5 1.983714 1_565
Cr2 O5 1.983981 1_555
Cr2 O8 1.984007 1_555
Cr2 O0 2.515820 1_555
O0 Y0 2.884905 1_555
O0 Y0 2.888496 1_565
O0 Y0 2.888947 1_455
O0 Y0 2.891902 1_465
O1 Y1 2.884659 1_555
O1 Y1 2.887953 1_545
O1 Y1 2.889028 1_655
O1 Y1 2.891687 1_645
O4 Y1 2.266088 1_555
O4 Y1 2.267036 1_655
O5 Y0 2.266268 1_555
O5 Y0 2.267004 1_455
O7 Y1 2.266207 1_555
O7 Y1 2.266908 1_545
O8 Y0 2.266325 1_555
O8 Y0 2.267020 1_565
