# generated using pymatgen
data_Zr5Te6
_symmetry_space_group_name_H-M   'P 1'
_cell_length_a   11.82219029
_cell_length_b   11.82218912
_cell_length_c   7.14790746
_cell_angle_alpha   90.00000000
_cell_angle_beta   90.00000000
_cell_angle_gamma   119.99999442
_symmetry_Int_Tables_number   1
_chemical_formula_structural   Zr5Te6
_chemical_formula_sum   'Zr15 Te18'
_cell_volume   865.17791627
_cell_formula_units_Z   3
loop_
 _symmetry_equiv_pos_site_id
 _symmetry_equiv_pos_as_xyz
  1  'x, y, z'
loop_
 _atom_site_type_symbol
 _atom_site_label
 _atom_site_symmetry_multiplicity
 _atom_site_fract_x
 _atom_site_fract_y
 _atom_site_fract_z
 _atom_site_occupancy
  Zr  Zr0  1  0.00000000  0.36365998  0.50000000  1
  Zr  Zr1  1  0.36365998  0.00000000  0.50000000  1
  Zr  Zr2  1  0.63634002  0.63634002  0.50000000  1
  Zr  Zr3  1  -0.00000000  0.63634002  0.50000000  1
  Zr  Zr4  1  0.63634002  -0.00000000  0.50000000  1
  Zr  Zr5  1  0.36365998  0.36365998  0.50000000  1
  Zr  Zr6  1  0.29743215  0.29743215  -0.00000000  1
  Zr  Zr7  1  0.00000000  0.70256785  -0.00000000  1
  Zr  Zr8  1  0.70256785  0.00000000  -0.00000000  1
  Zr  Zr9  1  0.70256785  0.70256785  -0.00000000  1
  Zr  Zr10  1  -0.00000000  0.29743215  -0.00000000  1
  Zr  Zr11  1  0.29743215  -0.00000000  -0.00000000  1
  Zr  Zr12  1  0.33333300  0.66666700  0.51026728  1
  Zr  Zr13  1  0.66666700  0.33333300  0.48973272  1
  Zr  Zr14  1  -0.00000000  0.00000000  -0.00000000  1
  Te  Te0  1  0.22395280  0.77604720  0.24628966  1
  Te  Te1  1  0.55209440  0.77604720  0.24628966  1
  Te  Te2  1  0.22395280  0.44790560  0.24628966  1
  Te  Te3  1  0.77604720  0.55209440  0.75371034  1
  Te  Te4  1  0.77604720  0.22395280  0.75371034  1
  Te  Te5  1  0.44790560  0.22395280  0.75371034  1
  Te  Te6  1  0.11736379  0.55868089  0.78989254  1
  Te  Te7  1  0.44131911  0.55868089  0.78989254  1
  Te  Te8  1  0.44131911  0.88263621  0.78989254  1
  Te  Te9  1  0.55868089  0.44131911  0.21010746  1
  Te  Te10  1  0.88263621  0.44131911  0.21010746  1
  Te  Te11  1  0.55868089  0.11736379  0.21010746  1
  Te  Te12  1  0.10704381  0.21408862  0.71157593  1
  Te  Te13  1  0.78591138  0.89295619  0.71157593  1
  Te  Te14  1  0.10704381  0.89295619  0.71157593  1
  Te  Te15  1  0.89295619  0.78591138  0.28842407  1
  Te  Te16  1  0.89295619  0.10704381  0.28842407  1
  Te  Te17  1  0.21408862  0.10704381  0.28842407  1
loop_
_geom_bond_atom_site_label_1
_geom_bond_atom_site_label_2
_geom_bond_distance
_geom_bond_site_symmetry_2
Te0 Zr11 2.926385 1_565
Te0 Zr7 2.926385 1_555
Te0 Zr12 2.928613 1_555
Te0 Zr1 2.941707 1_565
Te0 Zr3 2.941708 1_555
Te1 Zr9 2.926385 1_555
Te1 Zr8 2.926385 1_565
Te1 Zr12 2.928621 1_555
Te1 Zr2 2.941707 1_555
Te1 Zr4 2.941707 1_565
Te2 Zr6 2.926385 1_555
Te2 Zr10 2.926385 1_555
Te2 Zr12 2.928621 1_555
Te2 Zr5 2.941707 1_555
Te2 Zr0 2.941708 1_555
Te3 Zr9 2.926385 1_556
Te3 Zr7 2.926385 1_656
Te3 Zr13 2.928621 1_555
Te3 Zr2 2.941707 1_555
Te3 Zr3 2.941708 1_655
Te4 Zr8 2.926385 1_556
Te4 Zr10 2.926385 1_656
Te4 Zr13 2.928613 1_555
Te4 Zr4 2.941707 1_555
Te4 Zr0 2.941708 1_655
Te5 Zr6 2.926385 1_556
Te5 Zr11 2.926385 1_556
Te5 Zr13 2.928621 1_555
Te5 Zr5 2.941707 1_555
Te5 Zr1 2.941707 1_555
Te6 Zr0 2.887134 1_555
Te6 Zr3 2.887148 1_555
Te6 Zr12 2.980634 1_555
Te6 Zr10 3.071537 1_556
Te6 Zr7 3.071555 1_556
Te7 Zr5 2.887132 1_555
Te7 Zr2 2.887133 1_555
Te7 Zr12 2.980657 1_555
Te7 Zr6 3.071538 1_556
Te7 Zr9 3.071538 1_556
Te8 Zr4 2.887135 1_565
Te8 Zr1 2.887148 1_565
Te8 Zr12 2.980634 1_555
Te8 Zr8 3.071537 1_566
Te8 Zr11 3.071555 1_566
Te9 Zr2 2.887132 1_555
Te9 Zr5 2.887133 1_555
Te9 Zr13 2.980657 1_555
Te9 Zr9 3.071538 1_555
Te9 Zr6 3.071538 1_555
Te10 Zr3 2.887134 1_655
Te10 Zr0 2.887148 1_655
Te10 Zr13 2.980634 1_555
Te10 Zr7 3.071537 1_655
Te10 Zr10 3.071555 1_655
Te11 Zr1 2.887135 1_555
Te11 Zr4 2.887148 1_555
Te11 Zr13 2.980634 1_555
Te11 Zr11 3.071537 1_555
Te11 Zr8 3.071555 1_555
Te12 Zr10 2.840686 1_556
Te12 Zr6 2.840694 1_556
Te12 Zr14 3.009114 1_556
Te12 Zr0 3.041885 1_555
Te12 Zr5 3.041894 1_555
Te13 Zr8 2.840686 1_566
Te13 Zr9 2.840694 1_556
Te13 Zr14 3.009114 1_666
Te13 Zr4 3.041885 1_565
Te13 Zr2 3.041894 1_555
Te14 Zr7 2.840693 1_556
Te14 Zr11 2.840693 1_566
Te14 Zr14 3.009107 1_566
Te14 Zr3 3.041894 1_555
Te14 Zr1 3.041895 1_565
Te15 Zr7 2.840686 1_655
Te15 Zr9 2.840694 1_555
Te15 Zr14 3.009114 1_665
Te15 Zr3 3.041885 1_655
Te15 Zr2 3.041894 1_555
Te16 Zr10 2.840693 1_655
Te16 Zr8 2.840693 1_555
Te16 Zr14 3.009107 1_655
Te16 Zr0 3.041894 1_655
Te16 Zr4 3.041895 1_555
Te17 Zr11 2.840686 1_555
Te17 Zr6 2.840694 1_555
Te17 Zr14 3.009114 1_555
Te17 Zr1 3.041885 1_555
Te17 Zr5 3.041894 1_555
