# generated using pymatgen
data_Ba3InRu2O9
_symmetry_space_group_name_H-M   'P 1'
_cell_length_a   5.91301457
_cell_length_b   5.91301457
_cell_length_c   14.45055200
_cell_angle_alpha   90.00000000
_cell_angle_beta   90.00000000
_cell_angle_gamma   120.00000642
_symmetry_Int_Tables_number   1
_chemical_formula_structural   Ba3InRu2O9
_chemical_formula_sum   'Ba6 In2 Ru4 O18'
_cell_volume   437.55529080
_cell_formula_units_Z   2
loop_
 _symmetry_equiv_pos_site_id
 _symmetry_equiv_pos_as_xyz
  1  'x, y, z'
loop_
 _atom_site_type_symbol
 _atom_site_label
 _atom_site_symmetry_multiplicity
 _atom_site_fract_x
 _atom_site_fract_y
 _atom_site_fract_z
 _atom_site_occupancy
  Ba  Ba0  1  0.33333300  0.66666700  0.58901600  1
  Ba  Ba1  1  0.66666700  0.33333300  0.08901600  1
  Ba  Ba2  1  0.66666700  0.33333300  0.41098400  1
  Ba  Ba3  1  0.33333300  0.66666700  0.91098400  1
  Ba  Ba4  1  0.00000000  0.00000000  0.75000000  1
  Ba  Ba5  1  0.00000000  0.00000000  0.25000000  1
  In  In0  1  0.00000000  0.00000000  0.50000000  1
  In  In1  1  0.00000000  0.00000000  0.00000000  1
  Ru  Ru0  1  0.33333300  0.66666700  0.33653200  1
  Ru  Ru1  1  0.66666700  0.33333300  0.83653200  1
  Ru  Ru2  1  0.66666700  0.33333300  0.66346800  1
  Ru  Ru3  1  0.33333300  0.66666700  0.16346800  1
  O  O0  1  0.17326700  0.82673300  0.08590300  1
  O  O1  1  0.17326700  0.34653400  0.08590300  1
  O  O2  1  0.65346600  0.82673300  0.08590300  1
  O  O3  1  0.34653400  0.17326700  0.58590300  1
  O  O4  1  0.82673300  0.65346600  0.91409700  1
  O  O5  1  0.82673300  0.17326700  0.58590300  1
  O  O6  1  0.82673300  0.65346600  0.58590300  1
  O  O7  1  0.17326700  0.82673300  0.41409700  1
  O  O8  1  0.65346600  0.82673300  0.41409700  1
  O  O9  1  0.34653400  0.17326700  0.91409700  1
  O  O10  1  0.82673300  0.17326700  0.91409700  1
  O  O11  1  0.17326700  0.34653400  0.41409700  1
  O  O12  1  0.48930700  0.97861400  0.25000000  1
  O  O13  1  0.51069300  0.48930700  0.75000000  1
  O  O14  1  0.97861400  0.48930700  0.75000000  1
  O  O15  1  0.02138600  0.51069300  0.25000000  1
  O  O16  1  0.48930700  0.51069300  0.25000000  1
  O  O17  1  0.51069300  0.02138600  0.75000000  1
loop_
_geom_bond_atom_site_label_1
_geom_bond_atom_site_label_2
_geom_bond_distance
_geom_bond_site_symmetry_2
Ba0 O14 2.951475 1_455
Ba0 O17 2.951475 1_565
Ba0 O13 2.951479 1_555
Ba0 O6 2.957619 1_455
Ba0 O3 2.957619 1_565
Ba0 O5 2.957622 1_455
Ba0 O5 2.957622 1_565
Ba0 O6 2.957625 1_555
Ba0 O3 2.957625 1_555
Ba0 O7 3.012736 1_555
Ba0 O8 3.012739 1_555
Ba0 O11 3.012739 1_555
Ba1 O12 2.951475 1_545
Ba1 O15 2.951475 1_655
Ba1 O16 2.951479 1_555
Ba1 O2 2.957619 1_545
Ba1 O1 2.957619 1_655
Ba1 O0 2.957622 1_545
Ba1 O0 2.957622 1_655
Ba1 O1 2.957625 1_555
Ba1 O2 2.957625 1_555
Ba1 O10 3.012736 1_554
Ba1 O4 3.012739 1_554
Ba1 O9 3.012739 1_554
Ba2 O12 2.951475 1_545
Ba2 O15 2.951475 1_655
Ba2 O16 2.951479 1_555
Ba2 O8 2.957619 1_545
Ba2 O11 2.957619 1_655
Ba2 O7 2.957622 1_545
Ba2 O7 2.957622 1_655
Ba2 O8 2.957625 1_555
Ba2 O11 2.957625 1_555
Ba2 O5 3.012736 1_555
Ba2 O6 3.012739 1_555
Ba2 O3 3.012739 1_555
Ba3 O14 2.951475 1_455
Ba3 O17 2.951475 1_565
Ba3 O13 2.951479 1_555
Ba3 O4 2.957619 1_455
Ba3 O9 2.957619 1_565
Ba3 O10 2.957622 1_455
Ba3 O10 2.957622 1_565
Ba3 O9 2.957625 1_555
Ba3 O4 2.957625 1_555
Ba3 O0 3.012736 1_556
Ba3 O2 3.012739 1_556
Ba3 O1 3.012739 1_556
Ba4 O13 2.958535 1_555
Ba4 O13 2.958535 1_445
Ba4 O17 2.958535 1_555
Ba4 O14 2.958535 1_445
Ba4 O14 2.958535 1_455
Ba4 O17 2.958535 1_455
Ba4 O4 2.961759 1_445
Ba4 O3 2.961759 1_555
Ba4 O9 2.961759 1_555
Ba4 O6 2.961759 1_445
Ba4 O10 2.961759 1_455
Ba4 O5 2.961759 1_455
Ba5 O16 2.958535 1_555
Ba5 O16 2.958535 1_445
Ba5 O15 2.958535 1_555
Ba5 O12 2.958535 1_445
Ba5 O12 2.958535 1_545
Ba5 O15 2.958535 1_545
Ba5 O1 2.961759 1_555
Ba5 O8 2.961759 1_445
Ba5 O2 2.961759 1_445
Ba5 O11 2.961759 1_555
Ba5 O0 2.961759 1_545
Ba5 O7 2.961759 1_545
In0 O3 2.165624 1_555
In0 O6 2.165624 1_445
In0 O8 2.165624 1_445
In0 O11 2.165624 1_555
In0 O5 2.165624 1_455
In0 O7 2.165624 1_545
In1 O4 2.165624 1_444
In1 O9 2.165624 1_554
In1 O1 2.165624 1_555
In1 O2 2.165624 1_445
In1 O10 2.165624 1_454
In1 O0 2.165624 1_545
O0 Ru3 1.985888 1_555
O1 Ru3 1.985892 1_555
O2 Ru3 1.985892 1_555
O3 Ru2 1.985892 1_555
O4 Ru1 1.985892 1_555
O5 Ru2 1.985888 1_555
O6 Ru2 1.985892 1_555
O7 Ru0 1.985888 1_555
O8 Ru0 1.985892 1_555
O9 Ru1 1.985892 1_555
O10 Ru1 1.985888 1_555
O11 Ru0 1.985892 1_555
O12 Ru3 2.028633 1_555
O12 Ru0 2.028633 1_555
O13 Ru2 2.028638 1_555
O13 Ru1 2.028638 1_555
O14 Ru1 2.028633 1_555
O14 Ru2 2.028633 1_555
O15 Ru3 2.028633 1_555
O15 Ru0 2.028633 1_555
O16 Ru3 2.028638 1_555
O16 Ru0 2.028638 1_555
O17 Ru1 2.028633 1_555
O17 Ru2 2.028633 1_555
