# generated using pymatgen
data_Na2Ti2Si3Ge2(SO8)3
_symmetry_space_group_name_H-M   'P 1'
_cell_length_a   8.59992687
_cell_length_b   8.57441782
_cell_length_c   22.20022707
_cell_angle_alpha   90.39552036
_cell_angle_beta   90.38010926
_cell_angle_gamma   119.95233257
_symmetry_Int_Tables_number   1
_chemical_formula_structural   Na2Ti2Si3Ge2(SO8)3
_chemical_formula_sum   'Na6 Ti6 Si9 Ge6 S9 O72'
_cell_volume   1418.26082707
_cell_formula_units_Z   3
loop_
 _symmetry_equiv_pos_site_id
 _symmetry_equiv_pos_as_xyz
  1  'x, y, z'
loop_
 _atom_site_type_symbol
 _atom_site_label
 _atom_site_symmetry_multiplicity
 _atom_site_fract_x
 _atom_site_fract_y
 _atom_site_fract_z
 _atom_site_occupancy
  Na  Na0  1  0.99133584  0.98942012  0.49748044  1
  Na  Na1  1  0.00106700  0.98856938  0.00031707  1
  Na  Na2  1  0.65830812  0.32196748  0.83101728  1
  Na  Na3  1  0.67058777  0.32485363  0.33454353  1
  Na  Na4  1  0.32055964  0.66103772  0.17109900  1
  Na  Na5  1  0.34176148  0.66391709  0.66482140  1
  Ti  Ti0  1  0.98643678  0.00457061  0.64688069  1
  Ti  Ti1  1  0.00938107  0.99443461  0.14828300  1
  Ti  Ti2  1  0.64978383  0.33065288  0.69037641  1
  Ti  Ti3  1  0.68239528  0.34876211  0.47425952  1
  Ti  Ti4  1  0.35244784  0.68345994  0.51642306  1
  Ti  Ti5  1  0.31768063  0.67616572  0.31055429  1
  Si  Si0  1  0.29613290  0.01342538  0.25073533  1
  Si  Si1  1  0.00582102  0.28268458  0.25121921  1
  Si  Si2  1  0.28473138  0.29643107  0.75211894  1
  Si  Si3  1  0.71987991  0.00554497  0.75432722  1
  Si  Si4  1  0.66510373  0.62268449  0.58359972  1
  Si  Si5  1  0.94273274  0.61026298  0.08236859  1
  Si  Si6  1  0.33032629  0.95574400  0.91590380  1
  Si  Si7  1  0.63180668  0.95851288  0.41328518  1
  Si  Si8  1  0.05095086  0.67988503  0.41587332  1
  Ge  Ge0  1  0.00719053  0.00849231  0.35470682  1
  Ge  Ge1  1  0.02315313  0.01384080  0.84895074  1
  Ge  Ge2  1  0.68856919  0.33707182  0.19407654  1
  Ge  Ge3  1  0.65626173  0.32967438  0.98072853  1
  Ge  Ge4  1  0.31000328  0.67271126  0.02037685  1
  Ge  Ge5  1  0.35401051  0.68676116  0.80949058  1
  S  S0  1  0.71368565  0.71084543  0.24932503  1
  S  S1  1  0.00305394  0.71405316  0.75125779  1
  S  S2  1  0.95544492  0.33725662  0.58394498  1
  S  S3  1  0.37600726  0.04513009  0.58307960  1
  S  S4  1  0.66136606  0.04124593  0.08122384  1
  S  S5  1  0.37923221  0.34007949  0.08107284  1
  S  S6  1  0.61789137  0.66611782  0.91877750  1
  S  S7  1  0.04414490  0.37904734  0.91713116  1
  S  S8  1  0.33279551  0.37929257  0.41569505  1
  O  O0  1  0.20481532  0.04491094  0.30920325  1
  O  O1  1  0.82416737  0.78522757  0.30416948  1
  O  O2  1  0.96122438  0.15659117  0.30980523  1
  O  O3  1  0.21618631  0.17076322  0.81206326  1
  O  O4  1  0.96791545  0.78963692  0.80767201  1
  O  O5  1  0.84281850  0.02968075  0.81488593  1
  O  O6  1  0.80172379  0.96341594  0.69404517  1
  O  O7  1  0.16330074  0.20149912  0.69290745  1
  O  O8  1  0.03307201  0.82397637  0.69805984  1
  O  O9  1  0.79483454  0.81697355  0.19426237  1
  O  O10  1  0.02007943  0.18387811  0.18930666  1
  O  O11  1  0.16933724  0.96724255  0.18942569  1
  O  O12  1  0.87009232  0.35535089  0.63831503  1
  O  O13  1  0.48600563  0.12458261  0.63960309  1
  O  O14  1  0.64266774  0.49834869  0.64280024  1
  O  O15  1  0.85158764  0.48431536  0.14114315  1
  O  O16  1  0.62351345  0.11554785  0.13541995  1
  O  O17  1  0.48843361  0.36998725  0.13467189  1
  O  O18  1  0.45186664  0.29858101  0.02494575  1
  O  O19  1  0.82163240  0.51939225  0.02065924  1
  O  O20  1  0.68794641  0.15032246  0.02585245  1
  O  O21  1  0.46040581  0.15091713  0.53002795  1
  O  O22  1  0.69106927  0.52324868  0.52523646  1
  O  O23  1  0.84579676  0.30460298  0.52869108  1
  O  O24  1  0.53319839  0.69235614  0.97322451  1
  O  O25  1  0.15816880  0.45685520  0.97351554  1
  O  O26  1  0.29295685  0.83492827  0.97652210  1
  O  O27  1  0.54241023  0.83395615  0.47429840  1
  O  O28  1  0.30823377  0.46170861  0.47116631  1
  O  O29  1  0.17143842  0.70179535  0.47567868  1
  O  O30  1  0.12783883  0.63111546  0.35605680  1
  O  O31  1  0.50031830  0.85784100  0.35645348  1
  O  O32  1  0.36072378  0.48447231  0.36173615  1
  O  O33  1  0.12483630  0.48913436  0.86414014  1
  O  O34  1  0.36927851  0.86390614  0.85781266  1
  O  O35  1  0.50666129  0.62973843  0.86298811  1
  O  O36  1  0.03483372  0.85771763  0.40750395  1
  O  O37  1  0.82891705  0.97991845  0.40841766  1
  O  O38  1  0.16781115  0.19973708  0.41328266  1
  O  O39  1  0.02524560  0.19699558  0.91396119  1
  O  O40  1  0.14666832  0.97147221  0.90850657  1
  O  O41  1  0.79705510  0.82547084  0.91385156  1
  O  O42  1  0.97326935  0.17154179  0.58742890  1
  O  O43  1  0.19828250  0.02729256  0.58995146  1
  O  O44  1  0.84781463  0.81890283  0.59082547  1
  O  O45  1  0.96632384  0.80969707  0.08709162  1
  O  O46  1  0.82134278  0.02388879  0.08577104  1
  O  O47  1  0.19726749  0.18128881  0.08484637  1
  O  O48  1  0.70256495  0.18221848  0.74520048  1
  O  O49  1  0.48501645  0.32068286  0.74489223  1
  O  O50  1  0.84591084  0.53374387  0.74601249  1
  O  O51  1  0.69555671  0.52802194  0.24284522  1
  O  O52  1  0.82775701  0.30763129  0.24590754  1
  O  O53  1  0.48945437  0.19417361  0.23669946  1
  O  O54  1  0.63370907  0.49900675  0.92284552  1
  O  O55  1  0.86320787  0.36122510  0.92360158  1
  O  O56  1  0.51250773  0.15818202  0.92583570  1
  O  O57  1  0.63852582  0.14853240  0.42559584  1
  O  O58  1  0.48932792  0.35300851  0.42221272  1
  O  O59  1  0.85138936  0.50063324  0.42253476  1
  O  O60  1  0.36907032  0.50855796  0.07233695  1
  O  O61  1  0.14480352  0.62816932  0.07684425  1
  O  O62  1  0.49824414  0.85488404  0.07432776  1
  O  O63  1  0.35816733  0.86354059  0.58008995  1
  O  O64  1  0.48556972  0.63954054  0.57858678  1
  O  O65  1  0.13372550  0.49608044  0.57894245  1
  O  O66  1  0.31818550  0.83635808  0.25389247  1
  O  O67  1  0.53538966  0.68958952  0.25357412  1
  O  O68  1  0.18639766  0.47643483  0.25486257  1
  O  O69  1  0.29518312  0.49066131  0.76316001  1
  O  O70  1  0.16674822  0.69811248  0.75824842  1
  O  O71  1  0.52015845  0.82567956  0.75742192  1
loop_
_geom_bond_atom_site_label_1
_geom_bond_atom_site_label_2
_geom_bond_distance
_geom_bond_site_symmetry_2
Na0 O37 2.390509 1_555
Na0 O36 2.409521 1_655
Na0 O44 2.495842 1_555
Na0 O38 2.529934 1_665
Na0 O42 2.579447 1_565
Na0 O43 2.617709 1_665
Na1 O45 2.396559 1_455
Na1 O40 2.440646 1_554
Na1 O41 2.487334 1_454
Na1 O47 2.496023 1_565
Na1 O46 2.564761 1_465
Na1 O39 2.567869 1_564
Na2 O48 2.375673 1_555
Na2 O49 2.412953 1_555
Na2 O56 2.508565 1_555
Na2 O50 2.573680 1_555
Na2 O54 2.605512 1_555
Na2 O55 2.606361 1_555
Na3 O52 2.439536 1_555
Na3 O57 2.465975 1_555
Na3 O59 2.466597 1_555
Na3 O53 2.564940 1_555
Na3 O58 2.585679 1_555
Na3 O51 2.627974 1_555
Na4 O68 2.353748 1_555
Na4 O66 2.373100 1_555
Na4 O61 2.503401 1_555
Na4 O67 2.514556 1_555
Na4 O60 2.684745 1_555
Na4 O62 2.696239 1_555
Na5 O64 2.349950 1_555
Na5 O65 2.500524 1_555
Na5 O63 2.508958 1_555
Na5 O71 2.509502 1_555
Na5 O69 2.568195 1_555
Na5 O70 2.669623 1_555
Ge0 O2 1.809968 1_455
Ge0 O36 1.850896 1_545
Ge0 O37 1.866962 1_445
Ge0 O0 1.871811 1_555
Ge0 O38 1.993227 1_555
Ge0 O1 2.083039 1_445
Ge1 O3 1.743469 1_555
Ge1 O5 1.786540 1_455
Ge1 O40 1.838943 1_545
Ge1 O4 1.954259 1_445
Ge1 O39 2.118898 1_555
Ge1 O41 2.323521 1_445
Ge2 O52 1.762960 1_555
Ge2 O15 1.793116 1_555
Ge2 O53 1.808669 1_555
Ge2 O51 1.932077 1_555
Ge2 O16 2.124054 1_555
Ge2 O17 2.289394 1_555
Ge3 O19 1.762909 1_556
Ge3 O56 1.820898 1_555
Ge3 O18 1.919121 1_556
Ge3 O20 1.969468 1_556
Ge3 O54 2.024999 1_555
Ge3 O55 2.098313 1_555
Ge4 O26 1.767603 1_554
Ge4 O61 1.795600 1_555
Ge4 O25 1.937791 1_554
Ge4 O62 1.979534 1_555
Ge4 O60 2.073248 1_555
Ge4 O24 2.124787 1_554
Ge5 O71 1.771455 1_555
Ge5 O34 1.803231 1_555
Ge5 O69 1.805794 1_555
Ge5 O35 2.000317 1_555
Ge5 O70 2.007696 1_555
Ge5 O33 2.225523 1_555
O0 Si0 1.610845 1_555
O1 S0 1.469965 1_555
O2 Si1 1.618526 1_655
O3 Si2 1.635684 1_555
O4 S1 1.506399 1_655
O5 Si3 1.651334 1_555
O6 Si3 1.636028 1_565
O6 Ti0 1.792115 1_565
O7 Si2 1.612221 1_555
O7 Ti0 1.897293 1_455
O8 S1 1.458158 1_555
O8 Ti0 2.118486 1_465
O9 S0 1.483884 1_555
O9 Ti1 2.001142 1_655
O10 Si1 1.646775 1_555
O10 Ti1 1.818159 1_545
O11 Si0 1.655325 1_565
O11 Ti1 1.757118 1_555
O12 S2 1.463786 1_555
O12 Ti2 2.145249 1_555
O13 S3 1.504167 1_555
O13 Ti2 1.960290 1_555
O14 Si4 1.648760 1_555
O14 Ti2 1.815165 1_555
O15 Si5 1.634298 1_555
O16 S4 1.470094 1_555
O17 S5 1.450545 1_555
O18 S5 1.515108 1_555
O19 Si5 1.650623 1_555
O20 S4 1.498055 1_555
O21 S3 1.450989 1_555
O21 Ti3 2.209452 1_555
O22 Si4 1.623046 1_555
O22 Ti3 1.840855 1_555
O23 S2 1.479365 1_555
O23 Ti3 2.023211 1_555
O24 S6 1.487854 1_555
O25 S7 1.514085 1_555
O26 Si6 1.637065 1_555
O27 Si7 1.667413 1_555
O27 Ti4 1.772132 1_555
O28 S8 1.483583 1_555
O28 Ti4 2.003976 1_555
O29 Si8 1.629619 1_555
O29 Ti4 1.869164 1_555
O30 Si8 1.629605 1_555
O30 Ti5 1.797955 1_555
O31 Si7 1.614613 1_555
O31 Ti5 1.856226 1_555
O32 S8 1.452043 1_555
O32 Ti5 2.181160 1_555
O33 S7 1.458966 1_555
O34 Si6 1.628061 1_555
O35 S6 1.492412 1_555
O36 Si8 1.610402 1_555
O37 Si7 1.615820 1_555
O38 S8 1.484213 1_555
O39 S7 1.487628 1_555
O40 Si6 1.658121 1_555
O41 S6 1.467992 1_555
O42 S2 1.505761 1_555
O42 Ti0 1.997627 1_555
O43 S3 1.467215 1_555
O43 Ti0 2.152657 1_455
O44 Si4 1.636605 1_555
O44 Ti0 1.887350 1_565
O45 Si5 1.620855 1_555
O45 Ti1 1.967120 1_655
O46 S4 1.458752 1_555
O46 Ti1 2.233307 1_645
O47 S5 1.478310 1_555
O47 Ti1 2.153459 1_545
O48 Si3 1.608463 1_555
O48 Ti2 1.974383 1_555
O49 Si2 1.637755 1_555
O49 Ti2 1.839327 1_555
O50 S1 1.462613 1_655
O50 Ti2 2.100620 1_555
O51 S0 1.501641 1_555
O52 Si1 1.652178 1_655
O53 Si0 1.644293 1_555
O54 S6 1.508663 1_555
O55 S7 1.493682 1_655
O56 Si6 1.670564 1_545
O57 Si7 1.622437 1_545
O57 Ti3 1.891893 1_555
O58 S8 1.478076 1_555
O58 Ti3 2.031920 1_555
O59 Si8 1.643803 1_655
O59 Ti3 1.810938 1_555
O60 S5 1.503941 1_555
O61 Si5 1.671885 1_455
O62 S4 1.516629 1_565
O63 S3 1.487336 1_565
O63 Ti4 2.068208 1_555
O64 Si4 1.624167 1_555
O64 Ti4 1.942607 1_555
O65 S2 1.461850 1_455
O65 Ti4 2.256893 1_555
O66 Si0 1.623199 1_565
O66 Ti5 1.867344 1_555
O67 S0 1.454759 1_555
O67 Ti5 2.221955 1_555
O68 Si1 1.611949 1_555
O68 Ti5 1.938482 1_555
O69 Si2 1.639008 1_555
O70 S1 1.487980 1_555
O71 Si3 1.640504 1_565
