# generated using pymatgen
data_MgMn6O7F5
_symmetry_space_group_name_H-M   'P 1'
_cell_length_a   8.50870448
_cell_length_b   5.83819030
_cell_length_c   6.11703554
_cell_angle_alpha   65.19902117
_cell_angle_beta   62.07601786
_cell_angle_gamma   64.91816752
_symmetry_Int_Tables_number   1
_chemical_formula_structural   MgMn6O7F5
_chemical_formula_sum   'Mg1 Mn6 O7 F5'
_cell_volume   233.71741140
_cell_formula_units_Z   1
loop_
 _symmetry_equiv_pos_site_id
 _symmetry_equiv_pos_as_xyz
  1  'x, y, z'
loop_
 _atom_site_type_symbol
 _atom_site_label
 _atom_site_symmetry_multiplicity
 _atom_site_fract_x
 _atom_site_fract_y
 _atom_site_fract_z
 _atom_site_occupancy
  Mg  Mg0  1  0.49906900  0.99770700  0.50317300  1
  Mn  Mn0  1  0.85577700  0.66834200  0.66818300  1
  Mn  Mn1  1  0.67877800  0.36585800  0.33642700  1
  Mn  Mn2  1  0.31090500  0.61980300  0.65892600  1
  Mn  Mn3  1  0.15149900  0.32609400  0.32639700  1
  Mn  Mn4  1  0.50730400  0.99504700  0.99881300  1
  Mn  Mn5  1  0.99830200  0.99933200  0.00074100  1
  O  O0  1  0.66800200  0.03015300  0.63284000  1
  O  O1  1  0.32390300  0.33753800  0.96390000  1
  O  O2  1  0.42006000  0.40256400  0.43994800  1
  O  O3  1  0.34072100  0.95772500  0.36308500  1
  O  O4  1  0.67901500  0.64638700  0.02661500  1
  O  O5  1  0.00636200  0.30714600  0.68828700  1
  O  O6  1  0.01047900  0.69081300  0.30835600  1
  F  F0  1  0.30236500  0.87695000  0.84132400  1
  F  F1  1  0.62265600  0.60875500  0.55750200  1
  F  F2  1  0.95145600  0.24422600  0.22602600  1
  F  F3  1  0.69372300  0.08234600  0.14384400  1
  F  F4  1  0.02962500  0.77178200  0.77989700  1
loop_
_geom_bond_atom_site_label_1
_geom_bond_atom_site_label_2
_geom_bond_distance
_geom_bond_site_symmetry_2
Mg0 O3 2.029761 1_555
Mg0 O0 2.038593 1_565
Mg0 O2 2.077909 1_565
Mn0 O5 1.934646 1_655
Mn0 O6 1.945550 1_655
Mn0 O4 1.981126 1_556
Mn0 O0 2.034805 1_565
Mn1 O4 1.915510 1_555
Mn1 O2 1.923840 1_555
Mn1 O0 2.037794 1_555
Mn2 O2 1.877962 1_555
Mn2 O1 1.915128 1_555
Mn2 O3 2.056837 1_555
Mn3 O6 1.935611 1_555
Mn3 O5 1.946195 1_555
Mn3 O1 1.996372 1_554
Mn3 O3 2.065325 1_545
Mn4 O4 1.930766 1_556
Mn4 O1 1.946110 1_565
Mn4 O0 1.977114 1_565
Mn4 O3 1.979416 1_556
Mn5 O6 1.994186 1_655
Mn5 O5 1.996854 1_664
F0 Mg0 2.027654 1_555
F0 Mn2 2.177333 1_555
F0 Mn5 2.193009 1_456
F1 Mg0 2.010565 1_555
F1 Mn1 2.120763 1_555
F1 Mn2 2.402601 1_555
F1 Mn0 2.560143 1_555
F2 Mn1 1.970108 1_555
F2 Mn5 2.181153 1_545
F2 Mn3 2.327509 1_655
F3 Mg0 2.047358 1_545
F3 Mn5 2.209909 1_545
F3 Mn1 2.336812 1_555
F3 Mn4 2.438342 1_544
F4 Mn2 2.038270 1_555
F4 Mn5 2.128157 1_456
F4 Mn0 2.251689 1_455
