# generated using pymatgen
data_CsMgFe(SO4)2
_symmetry_space_group_name_H-M   'P 1'
_cell_length_a   5.06516164
_cell_length_b   5.16334878
_cell_length_c   9.86395643
_cell_angle_alpha   90.21365977
_cell_angle_beta   89.53257350
_cell_angle_gamma   120.47981390
_symmetry_Int_Tables_number   1
_chemical_formula_structural   CsMgFe(SO4)2
_chemical_formula_sum   'Cs1 Mg1 Fe1 S2 O8'
_cell_volume   222.31660176
_cell_formula_units_Z   1
loop_
 _symmetry_equiv_pos_site_id
 _symmetry_equiv_pos_as_xyz
  1  'x, y, z'
loop_
 _atom_site_type_symbol
 _atom_site_label
 _atom_site_symmetry_multiplicity
 _atom_site_fract_x
 _atom_site_fract_y
 _atom_site_fract_z
 _atom_site_occupancy
  Cs  Cs0  1  0.99317000  0.99956700  0.56599300  1
  Mg  Mg0  1  0.65778500  0.33065600  0.24009600  1
  Fe  Fe0  1  0.99280400  0.99511700  0.98578800  1
  S  S0  1  0.33411900  0.66905600  0.19111400  1
  S  S1  1  0.66927000  0.33386900  0.82392000  1
  O  O0  1  0.71023400  0.07952700  0.86782100  1
  O  O1  1  0.37102600  0.28750700  0.87784200  1
  O  O2  1  0.05350300  0.38937900  0.14002600  1
  O  O3  1  0.66813400  0.34376500  0.67441100  1
  O  O4  1  0.33721800  0.67526900  0.33912600  1
  O  O5  1  0.33414800  0.94170800  0.13574200  1
  O  O6  1  0.92469800  0.62195600  0.87842500  1
  O  O7  1  0.61639100  0.67012400  0.13683900  1
loop_
_geom_bond_atom_site_label_1
_geom_bond_atom_site_label_2
_geom_bond_distance
_geom_bond_site_symmetry_2
Cs0 O3 3.108522 1_555
Cs0 O3 3.141974 1_665
Cs0 O3 3.152466 1_565
Cs0 O0 3.407281 1_565
Cs0 O1 3.537073 1_665
Cs0 O6 3.572216 1_555
Cs0 O4 3.646928 1_555
Cs0 O4 3.703665 1_655
Cs0 O4 3.747485 1_665
Mg0 O2 2.106469 1_655
Mg0 O5 2.110047 1_545
Mg0 O7 2.131489 1_555
Fe0 O1 2.031677 1_665
Fe0 O0 2.063071 1_565
Fe0 O6 2.066251 1_555
Fe0 O7 2.323269 1_556
Fe0 O5 2.404512 1_656
Fe0 O2 2.429587 1_666
O0 S1 1.495778 1_555
O1 S1 1.497753 1_555
O2 S0 1.511149 1_555
O3 S1 1.475985 1_555
O4 S0 1.460254 1_555
O5 S0 1.511866 1_555
O6 S1 1.492852 1_555
O7 S0 1.519992 1_555
