# generated using pymatgen
data_NdF3
_symmetry_space_group_name_H-M   'P 1'
_cell_length_a   7.00272320
_cell_length_b   7.00272411
_cell_length_c   7.20767547
_cell_angle_alpha   90.00000000
_cell_angle_beta   90.00000000
_cell_angle_gamma   120.00000053
_symmetry_Int_Tables_number   1
_chemical_formula_structural   NdF3
_chemical_formula_sum   'Nd6 F18'
_cell_volume   306.09753335
_cell_formula_units_Z   6
loop_
 _symmetry_equiv_pos_site_id
 _symmetry_equiv_pos_as_xyz
  1  'x, y, z'
loop_
 _atom_site_type_symbol
 _atom_site_label
 _atom_site_symmetry_multiplicity
 _atom_site_fract_x
 _atom_site_fract_y
 _atom_site_fract_z
 _atom_site_occupancy
  Nd  Nd0  1  0.34371485  0.34371485  0.75000000  1
  Nd  Nd1  1  0.00000000  0.65628515  0.75000000  1
  Nd  Nd2  1  0.65628515  -0.00000000  0.75000000  1
  Nd  Nd3  1  0.65628515  0.65628515  0.25000000  1
  Nd  Nd4  1  -0.00000000  0.34371485  0.25000000  1
  Nd  Nd5  1  0.34371485  0.00000000  0.25000000  1
  F  F0  1  0.00000000  0.00000000  0.75000000  1
  F  F1  1  0.00000000  0.00000000  0.25000000  1
  F  F2  1  0.33333300  0.66666700  0.82030497  1
  F  F3  1  0.66666700  0.33333300  0.67969503  1
  F  F4  1  0.66666700  0.33333300  0.17969503  1
  F  F5  1  0.33333300  0.66666700  0.32030497  1
  F  F6  1  0.31030129  0.93959765  0.58115998  1
  F  F7  1  0.06040235  0.37070264  0.58115998  1
  F  F8  1  0.62929736  0.68969871  0.58115998  1
  F  F9  1  0.37070264  0.06040235  0.91884002  1
  F  F10  1  0.68969871  0.62929736  0.91884002  1
  F  F11  1  0.93959765  0.31030129  0.91884002  1
  F  F12  1  0.68969871  0.06040235  0.41884002  1
  F  F13  1  0.93959765  0.62929736  0.41884002  1
  F  F14  1  0.37070264  0.31030129  0.41884002  1
  F  F15  1  0.62929736  0.93959765  0.08115998  1
  F  F16  1  0.31030129  0.37070264  0.08115998  1
  F  F17  1  0.06040235  0.68969871  0.08115998  1
loop_
_geom_bond_atom_site_label_1
_geom_bond_atom_site_label_2
_geom_bond_distance
_geom_bond_site_symmetry_2
F0 Nd2 2.406940 1_455
F0 Nd0 2.406940 1_555
F0 Nd1 2.406940 1_545
F1 Nd5 2.406940 1_555
F1 Nd3 2.406940 1_445
F1 Nd4 2.406940 1_555
F2 Nd1 2.353940 1_555
F2 Nd2 2.353944 1_565
F2 Nd0 2.353947 1_555
F3 Nd2 2.353941 1_555
F3 Nd1 2.353944 1_655
F3 Nd0 2.353947 1_555
F4 Nd4 2.353940 1_655
F4 Nd5 2.353944 1_555
F4 Nd3 2.353947 1_555
F5 Nd5 2.353941 1_565
F5 Nd4 2.353944 1_555
F5 Nd3 2.353947 1_555
F6 Nd1 2.414068 1_555
F6 Nd5 2.414943 1_565
F6 Nd2 2.550521 1_565
F7 Nd0 2.414064 1_555
F7 Nd4 2.414944 1_555
F7 Nd1 2.550527 1_555
F8 Nd2 2.414071 1_565
F8 Nd3 2.414943 1_555
F8 Nd0 2.550523 1_555
F9 Nd0 2.414065 1_555
F9 Nd5 2.414944 1_556
F9 Nd2 2.550527 1_555
F10 Nd1 2.414070 1_655
F10 Nd3 2.414943 1_556
F10 Nd0 2.550523 1_555
F11 Nd2 2.414068 1_555
F11 Nd4 2.414943 1_656
F11 Nd1 2.550521 1_655
F12 Nd4 2.414068 1_655
F12 Nd2 2.414943 1_555
F12 Nd5 2.550521 1_555
F13 Nd3 2.414064 1_555
F13 Nd1 2.414944 1_655
F13 Nd4 2.550527 1_655
F14 Nd5 2.414071 1_555
F14 Nd0 2.414943 1_555
F14 Nd3 2.550523 1_555
F15 Nd3 2.414065 1_555
F15 Nd2 2.414944 1_564
F15 Nd5 2.550527 1_565
F16 Nd4 2.414070 1_555
F16 Nd0 2.414943 1_554
F16 Nd3 2.550523 1_555
F17 Nd5 2.414068 1_565
F17 Nd1 2.414943 1_554
F17 Nd4 2.550521 1_555
