# generated using pymatgen
data_Na2CaSiSn(SO6)2
_symmetry_space_group_name_H-M   'P 1'
_cell_length_a   9.20044708
_cell_length_b   9.18827203
_cell_length_c   22.95346446
_cell_angle_alpha   90.95034890
_cell_angle_beta   90.00000000
_cell_angle_gamma   120.04384246
_symmetry_Int_Tables_number   1
_chemical_formula_structural   Na2CaSiSn(SO6)2
_chemical_formula_sum   'Na12 Ca6 Si6 Sn6 S12 O72'
_cell_volume   1679.38351128
_cell_formula_units_Z   6
loop_
 _symmetry_equiv_pos_site_id
 _symmetry_equiv_pos_as_xyz
  1  'x, y, z'
loop_
 _atom_site_type_symbol
 _atom_site_label
 _atom_site_symmetry_multiplicity
 _atom_site_fract_x
 _atom_site_fract_y
 _atom_site_fract_z
 _atom_site_occupancy
  Na  Na0  1  0.00265002  0.64553473  0.23516237  1
  Na  Na1  1  0.64288471  0.64553473  0.73516237  1
  Na  Na2  1  0.65868589  0.95855952  0.57510281  1
  Na  Na3  1  0.29987464  0.95855952  0.07510281  1
  Na  Na4  1  0.68910024  0.02139439  0.90274616  1
  Na  Na5  1  0.33229316  0.02139439  0.40274616  1
  Na  Na6  1  0.95961555  0.97921447  0.49703806  1
  Na  Na7  1  0.01959892  0.97921447  0.99703806  1
  Na  Na8  1  0.65323649  0.29574368  0.82992013  1
  Na  Na9  1  0.64250819  0.29574368  0.32992013  1
  Na  Na10  1  0.31705241  0.65565063  0.16324753  1
  Na  Na11  1  0.33859722  0.65565063  0.66324753  1
  Ca  Ca0  1  0.99210270  0.00302545  0.35365520  1
  Ca  Ca1  1  0.01092275  0.00302545  0.85365520  1
  Ca  Ca2  1  0.66464773  0.32423126  0.68688953  1
  Ca  Ca3  1  0.65958453  0.32423126  0.18688953  1
  Ca  Ca4  1  0.32435931  0.66625519  0.02014423  1
  Ca  Ca5  1  0.34189488  0.66625519  0.52014423  1
  Si  Si0  1  0.29684066  0.99035617  0.25672732  1
  Si  Si1  1  0.69351551  0.99035617  0.75672732  1
  Si  Si2  1  0.67503803  0.63485336  0.59067087  1
  Si  Si3  1  0.95981633  0.63485336  0.09067087  1
  Si  Si4  1  0.34730206  0.98277316  0.92714855  1
  Si  Si5  1  0.63547011  0.98277316  0.42714855  1
  Sn  Sn0  1  0.98758834  0.98745438  0.65130478  1
  Sn  Sn1  1  -0.00013395  0.98745438  0.15130478  1
  Sn  Sn2  1  0.67484262  0.34472227  0.98344466  1
  Sn  Sn3  1  0.66988065  0.34472227  0.48344466  1
  Sn  Sn4  1  0.34814034  0.69001453  0.31739451  1
  Sn  Sn5  1  0.34187319  0.69001453  0.81739451  1
  S  S0  1  0.69152015  0.70954206  0.25028096  1
  S  S1  1  0.01941943  0.30497669  0.24916491  1
  S  S2  1  0.28555726  0.30497669  0.74916491  1
  S  S3  1  0.01802191  0.70954206  0.75028096  1
  S  S4  1  0.95859429  0.31975082  0.58424803  1
  S  S5  1  0.35118800  0.04146862  0.58198512  1
  S  S6  1  0.69028162  0.04146862  0.08198512  1
  S  S7  1  0.36115754  0.31975082  0.08424803  1
  S  S8  1  0.62041091  0.65013201  0.91531234  1
  S  S9  1  0.03270191  0.38383056  0.91334329  1
  S  S10  1  0.35112765  0.38383056  0.41334329  1
  S  S11  1  0.02972010  0.65013201  0.41531234  1
  O  O0  1  0.20635013  0.98882318  0.31610980  1
  O  O1  1  0.78586217  0.79671727  0.30229569  1
  O  O2  1  0.99917454  0.20604710  0.29996322  1
  O  O3  1  0.20687256  0.20604710  0.79996322  1
  O  O4  1  0.01085510  0.79671727  0.80229569  1
  O  O5  1  0.78247305  0.98882318  0.81610980  1
  O  O6  1  0.79143385  0.96237713  0.69741160  1
  O  O7  1  0.19019540  0.21677347  0.69317628  1
  O  O8  1  0.04659349  0.81288585  0.69602997  1
  O  O9  1  0.76629236  0.81288585  0.19602997  1
  O  O10  1  0.02657808  0.21677347  0.19317628  1
  O  O11  1  0.17094329  0.96237713  0.19741160  1
  O  O12  1  0.87868277  0.33275089  0.63698070  1
  O  O13  1  0.46578476  0.12379091  0.63065035  1
  O  O14  1  0.67663012  0.54970811  0.65006543  1
  O  O15  1  0.87307898  0.54970811  0.15006543  1
  O  O16  1  0.65800715  0.12379091  0.13065035  1
  O  O17  1  0.45406912  0.33275089  0.13698070  1
  O  O18  1  0.44293767  0.29143792  0.03074393  1
  O  O19  1  0.83988795  0.53398946  0.03038373  1
  O  O20  1  0.70858293  0.13295334  0.02566805  1
  O  O21  1  0.42437142  0.13295334  0.52566805  1
  O  O22  1  0.69410251  0.53398946  0.53038373  1
  O  O23  1  0.84850124  0.29143792  0.53074393  1
  O  O24  1  0.52764905  0.65834019  0.96495294  1
  O  O25  1  0.12677276  0.46304256  0.96599957  1
  O  O26  1  0.34550273  0.89431220  0.98632746  1
  O  O27  1  0.54880847  0.89431220  0.48632746  1
  O  O28  1  0.33626880  0.46304256  0.46599957  1
  O  O29  1  0.13069014  0.65834019  0.46495294  1
  O  O30  1  0.10268141  0.62712645  0.35828287  1
  O  O31  1  0.49991568  0.88223566  0.36956300  1
  O  O32  1  0.35718564  0.47948884  0.35900916  1
  O  O33  1  0.12230220  0.47948884  0.85900916  1
  O  O34  1  0.38231898  0.88223566  0.86956300  1
  O  O35  1  0.52444404  0.62712645  0.85828287  1
  O  O36  1  0.01727356  0.80415240  0.41327428  1
  O  O37  1  0.82022693  0.01209401  0.41914933  1
  O  O38  1  0.21284148  0.20890910  0.40913818  1
  O  O39  1  0.99606762  0.20890910  0.90913818  1
  O  O40  1  0.19186708  0.01209401  0.91914933  1
  O  O41  1  0.78687884  0.80415240  0.91327428  1
  O  O42  1  0.96882807  0.15945284  0.58622637  1
  O  O43  1  0.18918714  0.04461267  0.59001369  1
  O  O44  1  0.84949461  0.83019112  0.58554359  1
  O  O45  1  0.98069651  0.83019112  0.08554359  1
  O  O46  1  0.85542553  0.04461267  0.09001369  1
  O  O47  1  0.19062477  0.15945284  0.08622637  1
  O  O48  1  0.65968135  0.14388854  0.75092250  1
  O  O49  1  0.46074680  0.34151187  0.74549985  1
  O  O50  1  0.86397528  0.54550581  0.74551473  1
  O  O51  1  0.68153153  0.54550581  0.24551473  1
  O  O52  1  0.88076607  0.34151187  0.24549985  1
  O  O53  1  0.48420819  0.14388854  0.25092250  1
  O  O54  1  0.64317746  0.49897487  0.91823984  1
  O  O55  1  0.86488070  0.37833545  0.91430725  1
  O  O56  1  0.53791007  0.16755933  0.92391894  1
  O  O57  1  0.62965026  0.16755933  0.42391894  1
  O  O58  1  0.51345574  0.37833545  0.41430725  1
  O  O59  1  0.85579841  0.49897487  0.41823984  1
  O  O60  1  0.33836311  0.46462714  0.07751200  1
  O  O61  1  0.15117479  0.67053401  0.08729963  1
  O  O62  1  0.55183291  0.86602530  0.07752956  1
  O  O63  1  0.31419139  0.86602530  0.57752956  1
  O  O64  1  0.51935822  0.67053401  0.58729963  1
  O  O65  1  0.12626302  0.46462714  0.57751200  1
  O  O66  1  0.29359452  0.80033938  0.25223367  1
  O  O67  1  0.51592428  0.68412285  0.25293395  1
  O  O68  1  0.18228466  0.47157880  0.25219753  1
  O  O69  1  0.28929314  0.47157880  0.75219753  1
  O  O70  1  0.16819757  0.68412285  0.75293395  1
  O  O71  1  0.50674385  0.80033938  0.75223367  1
loop_
_geom_bond_atom_site_label_1
_geom_bond_atom_site_label_2
_geom_bond_distance
_geom_bond_site_symmetry_2
Na0 O15 2.214400 1_455
Na0 O66 2.347570 1_555
Na0 O52 2.449990 1_455
Na0 O51 2.630232 1_455
Na0 O11 2.682092 1_555
Na0 O68 2.846923 1_555
Na0 O30 3.005639 1_555
Na1 O14 2.214403 1_555
Na1 O71 2.347577 1_555
Na1 O49 2.449988 1_555
Na1 O50 2.630241 1_555
Na1 O6 2.682092 1_555
Na1 O69 2.846931 1_555
Na1 O35 3.005642 1_555
Na2 O27 2.210251 1_555
Na2 O64 2.313648 1_555
Na2 O42 2.514930 1_565
Na2 O44 2.571618 1_555
Na2 O63 2.841644 1_555
Na2 O23 2.862908 1_565
Na3 O26 2.210245 1_554
Na3 O61 2.313649 1_555
Na3 O47 2.514937 1_565
Na3 O45 2.571626 1_455
Na3 O62 2.841626 1_555
Na3 O18 2.862908 1_565
Na4 O5 2.240494 1_545
Na4 O56 2.413242 1_555
Na4 O39 2.466888 1_555
Na4 O34 2.556487 1_545
Na4 O41 2.581876 1_545
Na4 O55 2.846439 1_555
Na4 O20 2.960351 1_556
Na5 O0 2.240490 1_545
Na5 O57 2.413258 1_555
Na5 O38 2.466881 1_555
Na5 O31 2.556487 1_545
Na5 O36 2.581870 1_545
Na5 O58 2.846439 1_555
Na5 O21 2.960353 1_555
Na6 O37 2.310425 1_565
Na6 O44 2.394068 1_555
Na6 O42 2.586062 1_565
Na6 O36 2.705036 1_655
Na6 O43 2.839600 1_665
Na6 O38 3.028297 1_665
Na7 O40 2.310425 1_565
Na7 O45 2.394068 1_456
Na7 O47 2.586062 1_566
Na7 O41 2.705036 1_455
Na7 O46 2.839600 1_466
Na7 O39 3.028297 1_465
Na8 O48 2.288494 1_555
Na8 O56 2.449735 1_555
Na8 O55 2.567299 1_555
Na8 O54 2.766356 1_555
Na8 O49 2.800153 1_555
Na8 O50 2.910559 1_555
Na9 O53 2.288494 1_555
Na9 O57 2.449735 1_555
Na9 O58 2.567299 1_555
Na9 O59 2.766356 1_555
Na9 O52 2.800153 1_555
Na9 O51 2.910559 1_555
Na10 O61 2.367214 1_555
Na10 O66 2.486602 1_555
Na10 O68 2.565381 1_555
Na10 O67 2.675257 1_555
Na10 O60 2.687347 1_555
Na10 O62 2.866837 1_555
Na11 O64 2.367214 1_555
Na11 O71 2.486602 1_555
Na11 O69 2.565381 1_555
Na11 O70 2.675257 1_555
Na11 O65 2.687347 1_555
Na11 O63 2.866837 1_555
Ca0 O37 2.212534 1_555
Ca0 O0 2.213386 1_645
Ca0 O1 2.215356 1_545
Ca0 O2 2.226567 1_555
Ca0 O38 2.323383 1_655
Ca0 O36 2.402505 1_645
Ca1 O40 2.212534 1_555
Ca1 O5 2.213386 1_445
Ca1 O4 2.215356 1_545
Ca1 O3 2.226567 1_555
Ca1 O39 2.323383 1_455
Ca1 O41 2.402505 1_445
Ca2 O14 2.201838 1_555
Ca2 O48 2.216548 1_555
Ca2 O13 2.225495 1_555
Ca2 O12 2.246090 1_555
Ca2 O50 2.341653 1_555
Ca2 O49 2.376035 1_555
Ca3 O15 2.201838 1_555
Ca3 O53 2.216548 1_555
Ca3 O16 2.225495 1_555
Ca3 O17 2.246090 1_555
Ca3 O51 2.341653 1_555
Ca3 O52 2.376035 1_555
Ca4 O26 2.162648 1_554
Ca4 O25 2.204502 1_554
Ca4 O61 2.230957 1_555
Ca4 O24 2.289439 1_554
Ca4 O60 2.345771 1_555
Ca4 O62 2.357423 1_555
Ca5 O27 2.162648 1_555
Ca5 O28 2.204502 1_555
Ca5 O64 2.230957 1_555
Ca5 O29 2.289439 1_555
Ca5 O65 2.345771 1_555
Ca5 O63 2.357423 1_555
O0 Si0 1.593769 1_555
O1 S0 1.446560 1_555
O2 S1 1.444345 1_655
O3 S2 1.444345 1_555
O4 S3 1.446560 1_555
O5 Si1 1.593769 1_555
O6 Si1 1.718045 1_555
O6 Sn0 2.005441 1_555
O7 S2 1.526961 1_555
O7 Sn0 2.199558 1_445
O8 S3 1.520090 1_555
O8 Sn0 2.201798 1_455
O9 S0 1.520090 1_555
O9 Sn1 2.201798 1_655
O10 S1 1.526961 1_555
O10 Sn1 2.199558 1_545
O11 Si0 1.718045 1_555
O11 Sn1 2.005441 1_555
O12 S4 1.450180 1_555
O13 S5 1.450847 1_555
O14 Si2 1.586738 1_555
O15 Si3 1.586738 1_555
O16 S6 1.450847 1_555
O17 S7 1.450180 1_555
O18 S7 1.525596 1_555
O18 Sn2 2.223156 1_554
O19 Si3 1.710201 1_555
O19 Sn2 1.945385 1_554
O20 S6 1.516660 1_555
O20 Sn2 2.342892 1_554
O21 S5 1.516660 1_555
O21 Sn3 2.342892 1_555
O22 Si2 1.710201 1_555
O22 Sn3 1.945385 1_555
O23 S4 1.525596 1_555
O23 Sn3 2.223156 1_555
O24 S8 1.447050 1_555
O25 S9 1.442111 1_555
O26 Si4 1.590352 1_555
O27 Si5 1.590352 1_555
O28 S10 1.442111 1_555
O29 S11 1.447050 1_555
O30 S11 1.530275 1_555
O30 Sn4 2.241900 1_555
O31 Si5 1.720977 1_555
O31 Sn4 1.990851 1_555
O32 S10 1.522610 1_555
O32 Sn4 2.209886 1_555
O33 S9 1.522610 1_555
O33 Sn5 2.209886 1_555
O34 Si4 1.720977 1_555
O34 Sn5 1.990851 1_555
O35 S8 1.530275 1_555
O35 Sn5 2.241900 1_555
O36 S11 1.477331 1_555
O37 Si5 1.593377 1_545
O38 S10 1.469185 1_555
O39 S9 1.469188 1_655
O40 Si4 1.593368 1_545
O41 S8 1.477337 1_555
O42 S4 1.523591 1_555
O42 Sn0 2.260568 1_545
O43 S5 1.516333 1_555
O43 Sn0 2.178167 1_445
O44 Si2 1.712852 1_555
O44 Sn0 2.017414 1_555
O45 Si3 1.712856 1_555
O45 Sn1 2.017414 1_655
O46 S6 1.516323 1_555
O46 Sn1 2.178167 1_645
O47 S7 1.523596 1_555
O47 Sn1 2.260568 1_545
O48 Si1 1.597083 1_545
O49 S2 1.475425 1_555
O50 S3 1.465578 1_655
O51 S0 1.465582 1_555
O52 S1 1.475416 1_655
O53 Si0 1.597088 1_545
O54 S8 1.507235 1_555
O54 Sn2 2.194885 1_555
O55 S9 1.519553 1_655
O55 Sn2 2.268556 1_555
O56 Si4 1.728106 1_545
O56 Sn2 1.994127 1_555
O57 Si5 1.728097 1_545
O57 Sn3 1.994127 1_555
O58 S10 1.519572 1_555
O58 Sn3 2.268556 1_555
O59 S11 1.507223 1_655
O59 Sn3 2.194885 1_555
O60 S7 1.458167 1_555
O61 Si3 1.623578 1_455
O62 S6 1.473108 1_565
O63 S5 1.473102 1_565
O64 Si2 1.623596 1_555
O65 S4 1.458156 1_455
O66 Si0 1.732513 1_555
O66 Sn4 2.018943 1_555
O67 S0 1.513584 1_555
O67 Sn4 2.157804 1_555
O68 S1 1.514298 1_555
O68 Sn4 2.330218 1_555
O69 S2 1.514302 1_555
O69 Sn5 2.330218 1_555
O70 S3 1.513575 1_555
O70 Sn5 2.157804 1_555
O71 Si1 1.732518 1_555
O71 Sn5 2.018943 1_555
