# generated using pymatgen
data_MgV2Cu3O8
_symmetry_space_group_name_H-M   'P 1'
_cell_length_a   5.29359190
_cell_length_b   5.44255503
_cell_length_c   6.87657383
_cell_angle_alpha   73.47191135
_cell_angle_beta   88.88699060
_cell_angle_gamma   65.83330917
_symmetry_Int_Tables_number   1
_chemical_formula_structural   MgV2Cu3O8
_chemical_formula_sum   'Mg1 V2 Cu3 O8'
_cell_volume   172.21663507
_cell_formula_units_Z   1
loop_
 _symmetry_equiv_pos_site_id
 _symmetry_equiv_pos_as_xyz
  1  'x, y, z'
loop_
 _atom_site_type_symbol
 _atom_site_label
 _atom_site_symmetry_multiplicity
 _atom_site_fract_x
 _atom_site_fract_y
 _atom_site_fract_z
 _atom_site_occupancy
  Mg  Mg0  1  0.01269600  0.89532500  0.38749400  1
  V  V0  1  0.63616200  0.65324600  0.21045300  1
  V  V1  1  0.36648300  0.34091600  0.78321300  1
  Cu  Cu0  1  0.67472400  0.74755900  0.70978100  1
  Cu  Cu1  1  0.30034700  0.26417900  0.29425700  1
  Cu  Cu2  1  0.00319600  0.00532300  0.96884500  1
  O  O0  1  0.65973200  0.84176700  0.37573500  1
  O  O1  1  0.38948400  0.15514200  0.60667100  1
  O  O2  1  0.75438700  0.78744800  0.98352100  1
  O  O3  1  0.24756100  0.20432000  0.01367400  1
  O  O4  1  0.68997700  0.35803400  0.81941200  1
  O  O5  1  0.88167100  0.30552300  0.31826700  1
  O  O6  1  0.27811000  0.68015400  0.20495100  1
  O  O7  1  0.11796900  0.68815100  0.67372500  1
loop_
_geom_bond_atom_site_label_1
_geom_bond_atom_site_label_2
_geom_bond_distance
_geom_bond_site_symmetry_2
Mg0 O7 1.929111 1_555
Mg0 O5 1.957584 1_465
Mg0 O0 2.011921 1_455
Mg0 O6 2.083705 1_555
Cu0 O4 2.005533 1_555
Cu0 O2 2.026496 1_555
Cu0 O1 2.026735 1_565
Cu0 O0 2.202149 1_555
Cu0 O7 2.252389 1_655
Cu1 O1 2.067582 1_555
Cu1 O3 2.088091 1_555
Cu1 O6 2.123695 1_555
Cu1 O5 2.142071 1_455
Cu1 O0 2.223957 1_545
Cu2 O4 1.956494 1_455
Cu2 O6 2.057693 1_546
Cu2 O3 2.072179 1_556
Cu2 O2 2.087238 1_445
O0 V0 1.770300 1_555
O1 V1 1.761469 1_555
O2 V0 1.745905 1_556
O3 V1 1.770485 1_554
O4 V1 1.778622 1_555
O5 V0 1.745144 1_555
O6 V0 1.840572 1_555
O7 V1 1.749939 1_555
