# generated using pymatgen
data_Na5Al3Ge(PO4)6
_symmetry_space_group_name_H-M   'P 1'
_cell_length_a   8.52565650
_cell_length_b   8.51922592
_cell_length_c   21.58699168
_cell_angle_alpha   89.98063117
_cell_angle_beta   89.99181846
_cell_angle_gamma   120.01435304
_symmetry_Int_Tables_number   1
_chemical_formula_structural   Na5Al3Ge(PO4)6
_chemical_formula_sum   'Na15 Al9 Ge3 P18 O72'
_cell_volume   1357.65004603
_cell_formula_units_Z   3
loop_
 _symmetry_equiv_pos_site_id
 _symmetry_equiv_pos_as_xyz
  1  'x, y, z'
loop_
 _atom_site_type_symbol
 _atom_site_label
 _atom_site_symmetry_multiplicity
 _atom_site_fract_x
 _atom_site_fract_y
 _atom_site_fract_z
 _atom_site_occupancy
  Na  Na0  1  0.63451985  0.99977688  0.25225112  1
  Na  Na1  1  0.36467217  0.36493779  0.25254534  1
  Na  Na2  1  0.00056505  0.63573977  0.25226877  1
  Na  Na3  1  0.63758892  0.63438462  0.74969842  1
  Na  Na4  1  0.99970987  0.36303089  0.74983092  1
  Na  Na5  1  0.03208342  0.70024263  0.58219509  1
  Na  Na6  1  0.66547201  0.96728501  0.58205863  1
  Na  Na7  1  0.66592981  0.69888368  0.08221504  1
  Na  Na8  1  0.03201120  0.33171395  0.08237260  1
  Na  Na9  1  0.00648230  0.00709185  0.49694421  1
  Na  Na10  1  0.00628199  0.99913982  0.99651928  1
  Na  Na11  1  0.66009117  0.32619941  0.83427438  1
  Na  Na12  1  0.66628644  0.33325193  0.33741797  1
  Na  Na13  1  0.33259655  0.67256575  0.16593104  1
  Na  Na14  1  0.33329978  0.66630151  0.66523077  1
  Al  Al0  1  0.00083268  0.00029010  0.35681052  1
  Al  Al1  1  0.00206218  0.00088529  0.85451830  1
  Al  Al2  1  0.00616874  0.00557038  0.64775518  1
  Al  Al3  1  0.00494004  0.99914520  0.14797436  1
  Al  Al4  1  0.66103293  0.32815122  0.68502357  1
  Al  Al5  1  0.66589380  0.33224003  0.18460020  1
  Al  Al6  1  0.33257008  0.67177851  0.01686001  1
  Al  Al7  1  0.33257061  0.66145383  0.51637756  1
  Al  Al8  1  0.33328617  0.66647933  0.32000200  1
  Ge  Ge0  1  0.66488987  0.33192419  0.97809005  1
  Ge  Ge1  1  0.66432299  0.33243851  0.47846371  1
  Ge  Ge2  1  0.33409129  0.67249960  0.81724623  1
  P  P0  1  0.28706991  0.99975711  0.25052467  1
  P  P1  1  0.71268068  0.71280679  0.25016094  1
  P  P2  1  0.00001446  0.28746479  0.25018396  1
  P  P3  1  0.28831924  0.28274653  0.75092007  1
  P  P4  1  0.00332936  0.71637248  0.75041250  1
  P  P5  1  0.71113634  0.00144331  0.75056483  1
  P  P6  1  0.95798433  0.33368119  0.58371131  1
  P  P7  1  0.37747611  0.04820850  0.58334215  1
  P  P8  1  0.66175057  0.61847268  0.58383663  1
  P  P9  1  0.95824057  0.62460692  0.08344132  1
  P  P10  1  0.66177542  0.04316343  0.08370709  1
  P  P11  1  0.37687886  0.32898133  0.08345668  1
  P  P12  1  0.62510962  0.66946547  0.91787082  1
  P  P13  1  0.04417513  0.37503353  0.91802827  1
  P  P14  1  0.33031264  0.95538640  0.91789782  1
  P  P15  1  0.62412672  0.95576602  0.41722866  1
  P  P16  1  0.33164900  0.37636518  0.41694090  1
  P  P17  1  0.04406733  0.66790430  0.41734372  1
  O  O0  1  0.20347628  0.03900402  0.30654992  1
  O  O1  1  0.83653390  0.79810402  0.30576529  1
  O  O2  1  0.96154991  0.16338665  0.30576195  1
  O  O3  1  0.20157735  0.16929940  0.80846524  1
  O  O4  1  0.96388857  0.79883806  0.80673631  1
  O  O5  1  0.83319318  0.03631722  0.80677790  1
  O  O6  1  0.78974386  0.96042992  0.69197106  1
  O  O7  1  0.16641419  0.20615418  0.69372646  1
  O  O8  1  0.03438696  0.82744031  0.69115200  1
  O  O9  1  0.79276768  0.83020239  0.19090271  1
  O  O10  1  0.03690719  0.20724415  0.19092135  1
  O  O11  1  0.16683092  0.96128252  0.19270742  1
  O  O12  1  0.87361861  0.37110907  0.64172152  1
  O  O13  1  0.50212365  0.13051768  0.63979614  1
  O  O14  1  0.63369061  0.50451370  0.64251500  1
  O  O15  1  0.87354291  0.50272661  0.14122365  1
  O  O16  1  0.63318690  0.12852996  0.14197738  1
  O  O17  1  0.49845954  0.37005457  0.14115108  1
  O  O18  1  0.46348513  0.29618741  0.02554783  1
  O  O19  1  0.83017456  0.53891681  0.02647029  1
  O  O20  1  0.70841078  0.17096152  0.02652095  1
  O  O21  1  0.46154347  0.16625485  0.52495091  1
  O  O22  1  0.70836380  0.53767176  0.52681641  1
  O  O23  1  0.83039668  0.29103992  0.52678946  1
  O  O24  1  0.53634255  0.69670041  0.97551427  1
  O  O25  1  0.16083660  0.46351456  0.97551876  1
  O  O26  1  0.30154156  0.83720687  0.97422520  1
  O  O27  1  0.53731756  0.84056835  0.47558941  1
  O  O28  1  0.30223021  0.46506657  0.47368527  1
  O  O29  1  0.15975936  0.69717272  0.47556947  1
  O  O30  1  0.12573835  0.63228327  0.35833566  1
  O  O31  1  0.50674530  0.87387707  0.35829401  1
  O  O32  1  0.36782702  0.49240846  0.35734201  1
  O  O33  1  0.12405113  0.49557292  0.85806213  1
  O  O34  1  0.37373866  0.87658096  0.85868840  1
  O  O35  1  0.50428001  0.62869960  0.85805711  1
  O  O36  1  0.02346883  0.83506754  0.40906114  1
  O  O37  1  0.81175715  0.97625427  0.40895563  1
  O  O38  1  0.16473913  0.18831780  0.40871316  1
  O  O39  1  0.02457864  0.18918432  0.90918490  1
  O  O40  1  0.16414501  0.97469299  0.90876948  1
  O  O41  1  0.81071964  0.83613325  0.90885581  1
  O  O42  1  0.97196394  0.16136988  0.59160330  1
  O  O43  1  0.18643610  0.02226024  0.59106462  1
  O  O44  1  0.83377487  0.81020247  0.59072712  1
  O  O45  1  0.97217705  0.81071754  0.09100209  1
  O  O46  1  0.83380180  0.02381028  0.09038577  1
  O  O47  1  0.18586668  0.16387068  0.09079947  1
  O  O48  1  0.69205653  0.17073430  0.74220672  1
  O  O49  1  0.48150372  0.31394030  0.74264134  1
  O  O50  1  0.83466535  0.52196877  0.74304430  1
  O  O51  1  0.69008127  0.52044332  0.24174828  1
  O  O52  1  0.83061433  0.31042194  0.24200856  1
  O  O53  1  0.47935656  0.16950729  0.24190908  1
  O  O54  1  0.64119955  0.49461887  0.92356192  1
  O  O55  1  0.85352333  0.35936555  0.92386606  1
  O  O56  1  0.50541690  0.14651860  0.92376764  1
  O  O57  1  0.64131974  0.14722861  0.42347296  1
  O  O58  1  0.50628609  0.35971497  0.42337278  1
  O  O59  1  0.85279539  0.49346224  0.42387809  1
  O  O60  1  0.35737831  0.50066170  0.07617586  1
  O  O61  1  0.14403914  0.63852864  0.07552738  1
  O  O62  1  0.49697090  0.85219906  0.07577083  1
  O  O63  1  0.35691017  0.85639639  0.57591244  1
  O  O64  1  0.49700453  0.64464638  0.57587025  1
  O  O65  1  0.14426486  0.50538843  0.57558307  1
  O  O66  1  0.31098694  0.83093814  0.25727872  1
  O  O67  1  0.52050100  0.68953721  0.25675551  1
  O  O68  1  0.16899631  0.47983203  0.25680862  1
  O  O69  1  0.31031035  0.48048668  0.75735450  1
  O  O70  1  0.17169549  0.68798181  0.75732524  1
  O  O71  1  0.51963920  0.82536340  0.75752182  1
loop_
_geom_bond_atom_site_label_1
_geom_bond_atom_site_label_2
_geom_bond_distance
_geom_bond_site_symmetry_2
Na0 O67 2.317180 1_555
Na0 O52 2.328259 1_565
Na0 O66 2.391582 1_555
Na0 O53 2.409188 1_565
Na0 O31 2.531010 1_555
Na0 O16 2.623101 1_565
Na0 O2 2.676749 1_565
Na0 O9 2.758946 1_555
Na1 O68 2.320191 1_555
Na1 O53 2.325826 1_555
Na1 O67 2.396896 1_555
Na1 O51 2.414310 1_555
Na1 O32 2.504041 1_555
Na1 O17 2.652311 1_555
Na1 O0 2.671617 1_555
Na1 O10 2.762195 1_555
Na2 O66 2.319167 1_555
Na2 O51 2.328632 1_455
Na2 O68 2.396641 1_555
Na2 O52 2.410922 1_455
Na2 O30 2.532668 1_555
Na2 O15 2.641583 1_455
Na2 O1 2.671797 1_455
Na2 O11 2.723631 1_555
Na3 O71 2.307336 1_555
Na3 O50 2.317489 1_555
Na3 O49 2.369085 1_555
Na3 O69 2.423158 1_555
Na3 O14 2.558068 1_555
Na3 O35 2.590318 1_555
Na3 O4 2.705716 1_555
Na3 O6 2.709882 1_555
Na4 O48 2.300473 1_555
Na4 O69 2.321480 1_655
Na4 O50 2.396005 1_555
Na4 O70 2.404010 1_655
Na4 O33 2.581172 1_655
Na4 O12 2.584846 1_555
Na4 O7 2.678407 1_655
Na4 O5 2.705132 1_555
Na5 O65 2.297653 1_555
Na5 O44 2.313978 1_455
Na5 O43 2.383918 1_565
Na5 O63 2.402404 1_555
Na5 O29 2.551727 1_555
Na5 O8 2.585967 1_555
Na5 O22 2.672532 1_455
Na5 O12 2.746979 1_455
Na6 O42 2.298331 1_565
Na6 O63 2.311819 1_555
Na6 O64 2.384640 1_555
Na6 O44 2.409505 1_555
Na6 O27 2.542432 1_555
Na6 O6 2.611145 1_555
Na6 O23 2.669331 1_565
Na6 O13 2.713837 1_565
Na7 O45 2.296175 1_555
Na7 O60 2.311882 1_555
Na7 O62 2.383806 1_555
Na7 O46 2.403934 1_565
Na7 O24 2.550799 1_554
Na7 O9 2.591907 1_555
Na7 O19 2.678783 1_555
Na7 O17 2.738695 1_555
Na8 O61 2.295271 1_555
Na8 O46 2.308944 1_455
Na8 O47 2.382147 1_555
Na8 O60 2.406208 1_555
Na8 O25 2.559585 1_554
Na8 O10 2.580614 1_555
Na8 O20 2.676348 1_455
Na8 O15 2.744409 1_455
Na9 O38 2.396880 1_555
Na9 O36 2.445801 1_545
Na9 O37 2.449042 1_445
Na9 O43 2.510256 1_555
Na9 O42 2.525506 1_455
Na9 O44 2.570239 1_445
Na10 O40 2.392269 1_555
Na10 O39 2.438256 1_565
Na10 O41 2.444544 1_455
Na10 O47 2.511777 1_566
Na10 O45 2.520296 1_456
Na10 O46 2.573143 1_466
Na11 O56 2.406688 1_555
Na11 O54 2.456143 1_555
Na11 O55 2.464754 1_555
Na11 O49 2.466549 1_555
Na11 O48 2.478136 1_555
Na11 O50 2.527613 1_555
Na12 O58 2.379441 1_555
Na12 O57 2.380792 1_555
Na12 O59 2.388756 1_555
Na12 O52 2.552381 1_555
Na12 O53 2.552527 1_555
Na12 O51 2.554102 1_555
Na13 O62 2.438350 1_555
Na13 O66 2.448094 1_555
Na13 O61 2.451903 1_555
Na13 O68 2.489149 1_555
Na13 O67 2.490132 1_555
Na13 O60 2.500960 1_555
Na14 O64 2.441350 1_555
Na14 O65 2.452373 1_555
Na14 O63 2.460172 1_555
Na14 O70 2.477653 1_555
Na14 O71 2.485626 1_555
Na14 O69 2.487264 1_555
Al0 O38 1.880498 1_555
Al0 O36 1.887188 1_545
Al0 O37 1.891204 1_445
Al0 O0 1.923528 1_555
Al0 O2 1.929182 1_455
Al0 O1 1.931617 1_445
Al1 O3 1.870087 1_555
Al1 O4 1.890378 1_445
Al1 O40 1.907779 1_545
Al1 O5 1.913366 1_455
Al1 O39 1.922513 1_555
Al1 O41 1.927373 1_445
Al2 O7 1.854000 1_555
Al2 O8 1.898086 1_545
Al2 O43 1.913278 1_555
Al2 O42 1.924135 1_455
Al2 O6 1.937247 1_445
Al2 O44 2.000124 1_445
Al3 O11 1.840414 1_555
Al3 O10 1.895932 1_565
Al3 O9 1.896413 1_455
Al3 O47 1.924765 1_565
Al3 O45 1.928803 1_455
Al3 O46 2.006377 1_465
Al4 O13 1.828370 1_555
Al4 O14 1.871720 1_555
Al4 O12 1.904817 1_555
Al4 O49 1.928316 1_555
Al4 O48 1.935468 1_555
Al4 O50 2.010741 1_555
Al5 O16 1.858265 1_555
Al5 O17 1.865869 1_555
Al5 O15 1.883250 1_555
Al5 O53 1.942734 1_555
Al5 O52 1.950394 1_555
Al5 O51 1.950842 1_555
Al6 O26 1.809807 1_554
Al6 O24 1.868233 1_554
Al6 O25 1.868333 1_554
Al6 O62 1.947006 1_555
Al6 O61 1.952278 1_555
Al6 O60 2.028965 1_555
Al7 O28 1.812059 1_555
Al7 O27 1.866727 1_555
Al7 O29 1.867629 1_555
Al7 O64 1.958673 1_555
Al7 O65 1.959953 1_555
Al7 O63 2.027218 1_555
Al8 O32 1.836230 1_555
Al8 O31 1.838308 1_555
Al8 O30 1.839676 1_555
Al8 O66 2.024283 1_555
Al8 O68 2.031021 1_555
Al8 O67 2.033664 1_555
Ge0 O18 1.888644 1_556
Ge0 O56 1.889916 1_555
Ge0 O20 1.902437 1_556
Ge0 O54 1.904330 1_555
Ge0 O55 1.906392 1_555
Ge0 O19 1.923996 1_556
Ge1 O21 1.884183 1_555
Ge1 O58 1.896631 1_555
Ge1 O57 1.904989 1_555
Ge1 O22 1.905793 1_555
Ge1 O59 1.909298 1_555
Ge1 O23 1.927992 1_555
Ge2 O34 1.830455 1_555
Ge2 O33 1.885014 1_555
Ge2 O35 1.887453 1_555
Ge2 O70 1.946944 1_555
Ge2 O71 1.948821 1_555
Ge2 O69 2.014498 1_555
O0 P0 1.523427 1_545
O1 P1 1.522214 1_555
O2 P2 1.522025 1_655
O3 P3 1.519208 1_555
O4 P4 1.523731 1_655
O5 P5 1.528059 1_555
O6 P5 1.550943 1_565
O7 P3 1.533863 1_555
O8 P4 1.533087 1_555
O9 P1 1.555163 1_555
O10 P2 1.555034 1_555
O11 P0 1.542901 1_555
O12 P6 1.554558 1_555
O13 P7 1.536763 1_555
O14 P8 1.539804 1_555
O15 P9 1.550545 1_555
O16 P10 1.532462 1_555
O17 P11 1.544613 1_555
O18 P11 1.546704 1_555
O19 P9 1.562409 1_555
O20 P10 1.559890 1_555
O21 P7 1.546506 1_555
O22 P8 1.555953 1_555
O23 P6 1.558988 1_555
O24 P12 1.533158 1_555
O25 P13 1.532509 1_555
O26 P14 1.518005 1_555
O27 P15 1.539584 1_555
O28 P16 1.524655 1_555
O29 P17 1.539293 1_555
O30 P17 1.552709 1_555
O31 P15 1.552176 1_555
O32 P16 1.556172 1_555
O33 P13 1.578991 1_555
O34 P14 1.571811 1_555
O35 P12 1.578537 1_555
O36 P17 1.530004 1_555
O37 P15 1.530319 1_555
O38 P16 1.530543 1_555
O39 P13 1.518796 1_555
O40 P14 1.518572 1_555
O41 P12 1.519847 1_555
O42 P6 1.540456 1_555
O43 P7 1.539204 1_555
O44 P8 1.563549 1_555
O45 P9 1.538290 1_555
O46 P10 1.562356 1_555
O47 P11 1.537472 1_555
O48 P5 1.540641 1_555
O49 P3 1.541834 1_555
O50 P4 1.566411 1_655
O51 P1 1.562066 1_555
O52 P2 1.561371 1_655
O53 P0 1.562495 1_545
O54 P12 1.567481 1_555
O55 P13 1.567993 1_655
O56 P14 1.569836 1_545
O57 P15 1.568804 1_545
O58 P16 1.570841 1_555
O59 P17 1.569388 1_655
O60 P11 1.560325 1_555
O61 P9 1.537673 1_455
O62 P10 1.537423 1_565
O63 P7 1.562134 1_565
O64 P8 1.538010 1_555
O65 P6 1.538969 1_455
O66 P0 1.557091 1_555
O67 P1 1.555338 1_555
O68 P2 1.555609 1_555
O69 P3 1.605143 1_555
O70 P4 1.577530 1_555
O71 P5 1.577311 1_565
