# generated using pymatgen
data_Cs2Sb4S7
_symmetry_space_group_name_H-M   'P 1'
_cell_length_a   12.37928438
_cell_length_b   11.37672529
_cell_length_c   11.97554678
_cell_angle_alpha   80.51513505
_cell_angle_beta   90.00000000
_cell_angle_gamma   90.00000000
_symmetry_Int_Tables_number   1
_chemical_formula_structural   Cs2Sb4S7
_chemical_formula_sum   'Cs8 Sb16 S28'
_cell_volume   1663.52770471
_cell_formula_units_Z   4
loop_
 _symmetry_equiv_pos_site_id
 _symmetry_equiv_pos_as_xyz
  1  'x, y, z'
loop_
 _atom_site_type_symbol
 _atom_site_label
 _atom_site_symmetry_multiplicity
 _atom_site_fract_x
 _atom_site_fract_y
 _atom_site_fract_z
 _atom_site_occupancy
  Cs  Cs0  1  0.92978392  0.97805369  0.67092695  1
  Cs  Cs1  1  0.42978392  0.02194631  0.82907305  1
  Cs  Cs2  1  0.07021608  0.02194631  0.32907305  1
  Cs  Cs3  1  0.57021608  0.97805369  0.17092695  1
  Cs  Cs4  1  0.45457195  0.54614685  0.30574588  1
  Cs  Cs5  1  0.95457195  0.45385315  0.19425412  1
  Cs  Cs6  1  0.54542805  0.45385315  0.69425412  1
  Cs  Cs7  1  0.04542805  0.54614685  0.80574588  1
  Sb  Sb0  1  0.33977460  0.63742138  0.92428774  1
  Sb  Sb1  1  0.83977460  0.36257862  0.57571226  1
  Sb  Sb2  1  0.66022540  0.36257862  0.07571226  1
  Sb  Sb3  1  0.16022540  0.63742138  0.42428774  1
  Sb  Sb4  1  0.14215225  0.80248241  0.05132945  1
  Sb  Sb5  1  0.64215225  0.19751759  0.44867055  1
  Sb  Sb6  1  0.85784775  0.19751759  0.94867055  1
  Sb  Sb7  1  0.35784775  0.80248241  0.55132945  1
  Sb  Sb8  1  0.85429809  0.85046034  0.09054320  1
  Sb  Sb9  1  0.35429809  0.14953966  0.40945680  1
  Sb  Sb10  1  0.14570191  0.14953966  0.90945680  1
  Sb  Sb11  1  0.64570191  0.85046034  0.59054320  1
  Sb  Sb12  1  0.64097142  0.70288648  0.94897759  1
  Sb  Sb13  1  0.14097142  0.29711352  0.55102241  1
  Sb  Sb14  1  0.35902858  0.29711352  0.05102241  1
  Sb  Sb15  1  0.85902858  0.70288648  0.44897759  1
  S  S0  1  0.22855474  0.79892330  0.83867788  1
  S  S1  1  0.72855474  0.20107670  0.66132212  1
  S  S2  1  0.77144526  0.20107670  0.16132212  1
  S  S3  1  0.27144526  0.79892330  0.33867788  1
  S  S4  1  0.20489834  0.59239541  0.08284992  1
  S  S5  1  0.70489834  0.40760459  0.41715008  1
  S  S6  1  0.79510166  0.40760459  0.91715008  1
  S  S7  1  0.29510166  0.59239541  0.58284992  1
  S  S8  1  0.97392019  0.80249291  0.93936766  1
  S  S9  1  0.47392019  0.19750709  0.56063234  1
  S  S10  1  0.02607981  0.19750709  0.06063234  1
  S  S11  1  0.52607981  0.80249291  0.43936766  1
  S  S12  1  0.00430388  0.75669462  0.22246716  1
  S  S13  1  0.50430388  0.24330538  0.27753284  1
  S  S14  1  0.99569612  0.24330538  0.77753284  1
  S  S15  1  0.49569612  0.75669462  0.72246716  1
  S  S16  1  0.73857709  0.67215813  0.13657794  1
  S  S17  1  0.23857709  0.32784187  0.36342206  1
  S  S18  1  0.26142291  0.32784187  0.86342206  1
  S  S19  1  0.76142291  0.67215813  0.63657794  1
  S  S20  1  0.70394441  0.90159489  0.89860103  1
  S  S21  1  0.20394441  0.09840511  0.60139897  1
  S  S22  1  0.29605559  0.09840511  0.10139897  1
  S  S23  1  0.79605559  0.90159489  0.39860103  1
  S  S24  1  0.03557775  0.73909665  0.53990082  1
  S  S25  1  0.53557775  0.26090335  0.96009918  1
  S  S26  1  0.96442225  0.26090335  0.46009918  1
  S  S27  1  0.46442225  0.73909665  0.03990082  1
loop_
_geom_bond_atom_site_label_1
_geom_bond_atom_site_label_2
_geom_bond_distance
_geom_bond_site_symmetry_2
Cs0 S8 3.536395 1_555
Cs0 S1 3.544043 1_565
Cs0 S14 3.559752 1_565
Cs0 S24 3.601897 1_655
Cs0 S21 3.702824 1_665
Cs0 S26 3.773016 1_565
Cs0 S23 3.881738 1_555
Cs0 S20 3.901927 1_555
Cs0 Sb11 3.982680 1_555
Cs0 S19 4.134715 1_555
Cs1 S9 3.536395 1_555
Cs1 S0 3.544043 1_545
Cs1 S15 3.559752 1_545
Cs1 S25 3.601897 1_555
Cs1 S20 3.702824 1_545
Cs1 S27 3.773016 1_546
Cs1 S22 3.881738 1_556
Cs1 S21 3.901927 1_555
Cs1 Sb10 3.982680 1_555
Cs1 S18 4.134715 1_555
Cs2 S10 3.536395 1_555
Cs2 S3 3.544043 1_545
Cs2 S12 3.559752 1_545
Cs2 S26 3.601897 1_455
Cs2 S23 3.702824 1_445
Cs2 S24 3.773016 1_545
Cs2 S21 3.881738 1_555
Cs2 S22 3.901927 1_555
Cs2 Sb9 3.982680 1_555
Cs2 S17 4.134715 1_555
Cs3 S11 3.536395 1_555
Cs3 S2 3.544043 1_565
Cs3 S13 3.559752 1_565
Cs3 S27 3.601897 1_555
Cs3 S22 3.702824 1_565
Cs3 S25 3.773016 1_564
Cs3 S20 3.881738 1_554
Cs3 S23 3.901927 1_555
Cs3 Sb8 3.982680 1_555
Cs3 S16 4.134715 1_555
Cs4 S27 3.558907 1_555
Cs4 S13 3.570324 1_555
Cs4 S5 3.629612 1_555
Cs4 S17 3.637237 1_555
Cs4 S11 3.658899 1_555
Cs4 S3 3.733436 1_555
Cs4 S7 3.970105 1_555
Cs4 S4 4.061041 1_555
Cs5 S26 3.558907 1_555
Cs5 S12 3.570324 1_655
Cs5 S4 3.629612 1_655
Cs5 S16 3.637237 1_555
Cs5 S10 3.658899 1_655
Cs5 S2 3.733436 1_555
Cs5 S6 3.970105 1_554
Cs5 S5 4.061041 1_555
Cs6 S25 3.558907 1_555
Cs6 S15 3.570324 1_555
Cs6 S7 3.629612 1_555
Cs6 S19 3.637237 1_555
Cs6 S9 3.658899 1_555
Cs6 S1 3.733436 1_555
Cs6 S5 3.970105 1_555
Cs6 S6 4.061041 1_555
Cs7 S24 3.558907 1_555
Cs7 S14 3.570324 1_455
Cs7 S6 3.629612 1_455
Cs7 S18 3.637237 1_555
Cs7 S8 3.658899 1_455
Cs7 S0 3.733436 1_555
Cs7 S4 3.970105 1_556
Cs7 S7 4.061041 1_555
S0 Sb0 2.387846 1_555
S0 Sb4 2.768562 1_556
S1 Sb1 2.387846 1_555
S1 Sb5 2.768562 1_555
S2 Sb2 2.387846 1_555
S2 Sb6 2.768562 1_554
S3 Sb3 2.387846 1_555
S3 Sb7 2.768562 1_555
S4 Sb4 2.482151 1_555
S4 Sb0 2.517008 1_554
S5 Sb5 2.482151 1_555
S5 Sb1 2.517008 1_555
S6 Sb6 2.482151 1_555
S6 Sb2 2.517008 1_556
S7 Sb7 2.482151 1_555
S7 Sb3 2.517008 1_555
S8 Sb8 2.468576 1_556
S8 Sb4 2.476872 1_656
S9 Sb9 2.468576 1_555
S9 Sb5 2.476872 1_555
S10 Sb10 2.468576 1_554
S10 Sb6 2.476872 1_454
S11 Sb11 2.468576 1_555
S11 Sb7 2.476872 1_555
S12 Sb8 2.554759 1_455
S12 Sb4 2.651761 1_555
S13 Sb9 2.554759 1_555
S13 Sb5 2.651761 1_555
S14 Sb10 2.554759 1_655
S14 Sb6 2.651761 1_555
S15 Sb11 2.554759 1_555
S15 Sb7 2.651761 1_555
S16 Sb8 2.470290 1_555
S16 Sb12 2.524008 1_554
S17 Sb9 2.470290 1_555
S17 Sb13 2.524008 1_555
S18 Sb10 2.470290 1_555
S18 Sb14 2.524008 1_556
S19 Sb11 2.470290 1_555
S19 Sb15 2.524008 1_555
S20 Sb12 2.373338 1_555
S20 Sb8 2.940351 1_556
S21 Sb13 2.373338 1_555
S21 Sb9 2.940351 1_555
S22 Sb14 2.373338 1_555
S22 Sb10 2.940351 1_554
S23 Sb15 2.373338 1_555
S23 Sb11 2.940351 1_555
S24 Sb3 2.482695 1_555
S24 Sb15 2.505950 1_455
S25 Sb2 2.482695 1_556
S25 Sb14 2.505950 1_556
S26 Sb1 2.482695 1_555
S26 Sb13 2.505950 1_655
S27 Sb0 2.482695 1_554
S27 Sb12 2.505950 1_554
