# generated using pymatgen
data_Yb2MgTi2O6
_symmetry_space_group_name_H-M   'P 1'
_cell_length_a   5.93676920
_cell_length_b   5.94095440
_cell_length_c   5.94277770
_cell_angle_alpha   54.67511940
_cell_angle_beta   54.71595391
_cell_angle_gamma   54.70550765
_symmetry_Int_Tables_number   1
_chemical_formula_structural   Yb2MgTi2O6
_chemical_formula_sum   'Yb2 Mg1 Ti2 O6'
_cell_volume   129.90831321
_cell_formula_units_Z   1
loop_
 _symmetry_equiv_pos_site_id
 _symmetry_equiv_pos_as_xyz
  1  'x, y, z'
loop_
 _atom_site_type_symbol
 _atom_site_label
 _atom_site_symmetry_multiplicity
 _atom_site_fract_x
 _atom_site_fract_y
 _atom_site_fract_z
 _atom_site_occupancy
  Yb  Yb0  1  0.33315996  0.33293350  0.33172523  1
  Yb  Yb1  1  0.53073041  0.53092181  0.53088746  1
  Mg  Mg0  1  0.80449327  0.80459062  0.80319509  1
  Ti  Ti0  1  0.15033649  0.15052940  0.14976694  1
  Ti  Ti1  1  0.98928392  0.98918174  0.98838761  1
  O  O0  1  0.07811272  0.77485402  0.38145175  1
  O  O1  1  0.38216926  0.07900354  0.77421663  1
  O  O2  1  0.77534493  0.38262200  0.07588342  1
  O  O3  1  0.16450711  0.58232540  0.95857725  1
  O  O4  1  0.58241999  0.95891636  0.16412365  1
  O  O5  1  0.95944195  0.16412162  0.58136797  1
loop_
_geom_bond_atom_site_label_1
_geom_bond_atom_site_label_2
_geom_bond_distance
_geom_bond_site_symmetry_2
Mg0 O2 2.102366 1_556
Mg0 O1 2.103454 1_565
Mg0 O0 2.104424 1_655
Mg0 O5 2.181671 1_565
Mg0 O3 2.184748 1_655
Mg0 O4 2.188586 1_556
O0 Ti0 1.982673 1_565
O0 Ti1 2.136214 1_454
O0 Yb0 2.249325 1_555
O0 Yb1 2.622575 1_555
O1 Ti0 1.981943 1_556
O1 Ti1 2.137372 1_445
O1 Yb0 2.250458 1_555
O1 Yb1 2.617334 1_555
O2 Ti0 1.982957 1_655
O2 Ti1 2.135180 1_544
O2 Yb0 2.248480 1_555
O2 Yb1 2.633771 1_555
O3 Ti1 2.081511 1_455
O3 Ti0 2.155702 1_556
O3 Yb1 2.242036 1_555
O3 Yb0 2.272989 1_556
O4 Ti1 2.080361 1_554
O4 Ti0 2.156262 1_565
O4 Yb1 2.242790 1_555
O4 Yb0 2.275128 1_565
O5 Ti1 2.082648 1_545
O5 Ti0 2.155294 1_655
O5 Yb1 2.243560 1_555
O5 Yb0 2.275379 1_655
