# generated using pymatgen
data_Na14Y4Al4Si7S5O48
_symmetry_space_group_name_H-M   'P 1'
_cell_length_a   18.24588305
_cell_length_b   9.09594540
_cell_length_c   22.50298762
_cell_angle_alpha   89.95083082
_cell_angle_beta   90.24748584
_cell_angle_gamma   120.00523159
_symmetry_Int_Tables_number   1
_chemical_formula_structural   Na14Y4Al4Si7S5O48
_chemical_formula_sum   'Na42 Y12 Al12 Si21 S15 O144'
_cell_volume   3234.11981346
_cell_formula_units_Z   3
loop_
 _symmetry_equiv_pos_site_id
 _symmetry_equiv_pos_as_xyz
  1  'x, y, z'
loop_
 _atom_site_type_symbol
 _atom_site_label
 _atom_site_symmetry_multiplicity
 _atom_site_fract_x
 _atom_site_fract_y
 _atom_site_fract_z
 _atom_site_occupancy
  Na  Na0  1  0.81231377  0.99060092  0.23953741  1
  Na  Na1  1  0.18610204  0.36596414  0.26120282  1
  Na  Na2  1  0.68890734  0.36573627  0.25586962  1
  Na  Na3  1  0.99491211  0.64260396  0.23881242  1
  Na  Na4  1  0.50618728  0.65629232  0.24631629  1
  Na  Na5  1  0.31347096  0.63888553  0.75226476  1
  Na  Na6  1  0.00488148  0.35275414  0.75098925  1
  Na  Na7  1  0.49714185  0.34853148  0.74600062  1
  Na  Na8  1  0.18486897  0.00673229  0.76171304  1
  Na  Na9  1  0.68793678  0.00752175  0.76431568  1
  Na  Na10  1  0.14116243  0.33433744  0.58350277  1
  Na  Na11  1  0.63785439  0.33352950  0.58532401  1
  Na  Na12  1  0.33647758  0.97236780  0.57870917  1
  Na  Na13  1  0.83794222  0.97740747  0.58094255  1
  Na  Na14  1  0.13489679  0.94082340  0.08684006  1
  Na  Na15  1  0.64945358  0.95507116  0.08601392  1
  Na  Na16  1  0.33755921  0.69835559  0.08107899  1
  Na  Na17  1  0.83711723  0.71847968  0.07823464  1
  Na  Na18  1  0.49009928  0.68765549  0.92514130  1
  Na  Na19  1  0.98838414  0.67727101  0.92684997  1
  Na  Na20  1  0.34080516  0.01250891  0.91357708  1
  Na  Na21  1  0.84253553  0.02258552  0.92133108  1
  Na  Na22  1  0.16802390  0.30114126  0.90693197  1
  Na  Na23  1  0.67593683  0.31743155  0.90869348  1
  Na  Na24  1  0.49065465  0.30002296  0.41930612  1
  Na  Na25  1  0.98787007  0.28955360  0.42083785  1
  Na  Na26  1  0.17134819  0.03052580  0.40191795  1
  Na  Na27  1  0.66922525  0.03536846  0.40342055  1
  Na  Na28  1  0.34384467  0.66883624  0.40731116  1
  Na  Na29  1  0.84109815  0.66973478  0.40899672  1
  Na  Na30  1  0.99698027  0.01070839  0.49249010  1
  Na  Na31  1  0.49845298  0.01411409  0.49198919  1
  Na  Na32  1  0.98771240  0.98389008  0.99904799  1
  Na  Na33  1  0.50084672  0.98663566  0.99426289  1
  Na  Na34  1  0.32623780  0.32625964  0.83454728  1
  Na  Na35  1  0.82341461  0.33171726  0.83943087  1
  Na  Na36  1  0.32507154  0.31765223  0.33540779  1
  Na  Na37  1  0.82625139  0.32645221  0.32900012  1
  Na  Na38  1  0.16497274  0.68242418  0.17221106  1
  Na  Na39  1  0.66499383  0.68148386  0.16552707  1
  Na  Na40  1  0.15560257  0.64637424  0.67269575  1
  Na  Na41  1  0.66770293  0.65078580  0.67415315  1
  Y  Y0  1  0.00016107  0.01367001  0.64998022  1
  Y  Y1  1  0.49391731  0.00351303  0.64840043  1
  Y  Y2  1  0.99070583  0.98913741  0.14555685  1
  Y  Y3  1  0.50146042  0.98618958  0.14937464  1
  Y  Y4  1  0.83593226  0.33645684  0.69243116  1
  Y  Y5  1  0.33557054  0.33332670  0.19192616  1
  Y  Y6  1  0.16021559  0.66678170  0.01370237  1
  Y  Y7  1  0.67208023  0.68841043  0.01628479  1
  Y  Y8  1  0.16763993  0.65990852  0.51278927  1
  Y  Y9  1  0.66148841  0.65437238  0.51318046  1
  Y  Y10  1  0.17804094  0.68407861  0.31804926  1
  Y  Y11  1  0.67955389  0.67157714  0.82030320  1
  Al  Al0  1  0.99681851  0.99330944  0.34870643  1
  Al  Al1  1  0.50357568  0.00610670  0.34792156  1
  Al  Al2  1  0.00335241  0.99986651  0.84902174  1
  Al  Al3  1  0.49804851  0.00702703  0.85118876  1
  Al  Al4  1  0.33379328  0.31986575  0.69150120  1
  Al  Al5  1  0.83303772  0.33446658  0.18439034  1
  Al  Al6  1  0.33155471  0.34752097  0.97597472  1
  Al  Al7  1  0.83207145  0.33579971  0.98507617  1
  Al  Al8  1  0.33288860  0.31942891  0.48070877  1
  Al  Al9  1  0.83245204  0.31718360  0.47534176  1
  Al  Al10  1  0.68851100  0.68776962  0.31745787  1
  Al  Al11  1  0.18568629  0.68525141  0.81866808  1
  Si  Si0  1  0.14038895  0.99708838  0.25225575  1
  Si  Si1  1  0.65147117  0.99339556  0.25444744  1
  Si  Si2  1  0.35575597  0.71226137  0.25297917  1
  Si  Si3  1  0.84993528  0.69717783  0.25347908  1
  Si  Si4  1  0.15326524  0.30934420  0.75141486  1
  Si  Si5  1  0.64175718  0.28773756  0.75291078  1
  Si  Si6  1  0.34881910  0.99780923  0.75334883  1
  Si  Si7  1  0.85578432  0.99780816  0.75284540  1
  Si  Si8  1  0.47105985  0.34290653  0.58553815  1
  Si  Si9  1  0.97820883  0.33983725  0.57871183  1
  Si  Si10  1  0.47671596  0.61611620  0.07855259  1
  Si  Si11  1  0.97284522  0.60307504  0.08534389  1
  Si  Si12  1  0.83578530  0.06617568  0.08258680  1
  Si  Si13  1  0.32055369  0.67231980  0.91537026  1
  Si  Si14  1  0.82910091  0.66783678  0.91998494  1
  Si  Si15  1  0.16654589  0.97170035  0.91382704  1
  Si  Si16  1  0.66443527  0.98690744  0.91560717  1
  Si  Si17  1  0.32830128  0.98383321  0.42135131  1
  Si  Si18  1  0.82062635  0.96887199  0.41614279  1
  Si  Si19  1  0.16688362  0.34469754  0.41805362  1
  Si  Si20  1  0.66681247  0.36154441  0.41480470  1
  S  S0  1  0.99610779  0.29002671  0.25402392  1
  S  S1  1  0.50723971  0.29901002  0.25714740  1
  S  S2  1  0.00751557  0.71491495  0.75648634  1
  S  S3  1  0.49423814  0.69712357  0.75100636  1
  S  S4  1  0.19584953  0.05577741  0.58471521  1
  S  S5  1  0.68889904  0.04747486  0.57797795  1
  S  S6  1  0.33371057  0.60637555  0.58315809  1
  S  S7  1  0.83458389  0.62184978  0.57746075  1
  S  S8  1  0.33442848  0.04735644  0.07716656  1
  S  S9  1  0.19068340  0.33189467  0.07766267  1
  S  S10  1  0.69447253  0.33621262  0.08433775  1
  S  S11  1  0.01837062  0.36303366  0.90898849  1
  S  S12  1  0.50998571  0.35724176  0.91682746  1
  S  S13  1  0.00904573  0.66200930  0.41696921  1
  S  S14  1  0.51395165  0.66847485  0.41295023  1
  O  O0  1  0.08636762  0.01285557  0.30813670  1
  O  O1  1  0.59949300  0.02539094  0.30782958  1
  O  O2  1  0.41718654  0.82762264  0.30794941  1
  O  O3  1  0.91329339  0.79648231  0.31003765  1
  O  O4  1  0.49831958  0.19326986  0.30948917  1
  O  O5  1  0.98653357  0.18331525  0.30698409  1
  O  O6  1  0.10386559  0.17219398  0.80461945  1
  O  O7  1  0.58506309  0.15968096  0.80658182  1
  O  O8  1  0.48220839  0.78013243  0.80370600  1
  O  O9  1  -0.00003328  0.80425814  0.80813774  1
  O  O10  1  0.41435051  0.02926249  0.80812279  1
  O  O11  1  0.92085376  0.00980026  0.80544251  1
  O  O12  1  0.37969248  0.94886318  0.69196497  1
  O  O13  1  0.88924566  0.97691442  0.68759514  1
  O  O14  1  0.09909609  0.24371449  0.68903128  1
  O  O15  1  0.59766750  0.21194514  0.68759042  1
  O  O16  1  0.01920429  0.81169710  0.70073689  1
  O  O17  1  0.50834955  0.79918884  0.69681400  1
  O  O18  1  0.39043952  0.80426130  0.18889239  1
  O  O19  1  0.88139843  0.81340760  0.19390844  1
  O  O20  1  0.01170396  0.21875031  0.19992047  1
  O  O21  1  0.51837908  0.22378884  0.20197893  1
  O  O22  1  0.09759643  0.99005942  0.18786016  1
  O  O23  1  0.59603097  0.94921043  0.19262798  1
  O  O24  1  0.42066306  0.34103350  0.64666987  1
  O  O25  1  0.93699800  0.34602816  0.64172300  1
  O  O26  1  0.24281714  0.14228158  0.63993862  1
  O  O27  1  0.73489994  0.12705607  0.63382054  1
  O  O28  1  0.32699139  0.51029771  0.63811133  1
  O  O29  1  0.82548288  0.52540866  0.63238129  1
  O  O30  1  0.43463218  0.52866095  0.14191097  1
  O  O31  1  0.92385252  0.50734644  0.14707467  1
  O  O32  1  0.32520414  0.12521595  0.13207437  1
  O  O33  1  0.82513562  0.15433972  0.14391175  1
  O  O34  1  0.23758207  0.34692057  0.13340666  1
  O  O35  1  0.74130862  0.34704304  0.14005109  1
  O  O36  1  0.23550684  0.31651286  0.02469898  1
  O  O37  1  0.73618311  0.32238614  0.03011063  1
  O  O38  1  0.41406093  0.50788073  0.02197040  1
  O  O39  1  0.92012237  0.50700542  0.02539973  1
  O  O40  1  0.33463919  0.14094640  0.02348984  1
  O  O41  1  0.83309251  0.15987802  0.02113341  1
  O  O42  1  0.23790711  0.15478724  0.53054627  1
  O  O43  1  0.73418507  0.15368421  0.52526193  1
  O  O44  1  0.33396899  0.51799951  0.52812662  1
  O  O45  1  0.83491570  0.52945416  0.52380874  1
  O  O46  1  0.41646175  0.33603807  0.52683468  1
  O  O47  1  0.91605133  0.32437929  0.52208366  1
  O  O48  1  0.28419419  0.71397279  0.97521043  1
  O  O49  1  0.79082861  0.71748509  0.97742972  1
  O  O50  1  0.07059845  0.43438579  0.96402686  1
  O  O51  1  0.56808461  0.43925771  0.96730921  1
  O  O52  1  0.14009778  0.85674981  0.97435658  1
  O  O53  1  0.63762535  0.85382334  0.97120930  1
  O  O54  1  0.29268123  0.86559183  0.48146013  1
  O  O55  1  0.78525314  0.85682544  0.47690258  1
  O  O56  1  0.14226872  0.42457316  0.47503692  1
  O  O57  1  0.63959052  0.41981454  0.47619916  1
  O  O58  1  0.06658209  0.69580096  0.46864759  1
  O  O59  1  0.56738981  0.70153519  0.46708926  1
  O  O60  1  0.04474139  0.62493024  0.36409375  1
  O  O61  1  0.55367112  0.63377245  0.36188906  1
  O  O62  1  0.25390899  0.89800573  0.37138921  1
  O  O63  1  0.75201807  0.87005992  0.36300930  1
  O  O64  1  0.19091626  0.47429045  0.36211770  1
  O  O65  1  0.68438847  0.50628826  0.36350137  1
  O  O66  1  0.06225191  0.47892625  0.85841771  1
  O  O67  1  0.54428960  0.46193822  0.86233237  1
  O  O68  1  0.18501551  0.86531027  0.86148824  1
  O  O69  1  0.68530580  0.90238963  0.85886884  1
  O  O70  1  0.25344973  0.63356398  0.86070855  1
  O  O71  1  0.75757925  0.60346624  0.86736883  1
  O  O72  1  0.00062641  0.81524710  0.41125654  1
  O  O73  1  0.50626505  0.82312875  0.40631048  1
  O  O74  1  0.41953977  0.99678912  0.40589485  1
  O  O75  1  0.91491426  0.99154315  0.40283441  1
  O  O76  1  0.08156330  0.15722517  0.40702276  1
  O  O77  1  0.58522606  0.17115037  0.40237992  1
  O  O78  1  0.01001064  0.19233001  0.90268056  1
  O  O79  1  0.50011936  0.18502449  0.91072018  1
  O  O80  1  0.08629872  0.00079619  0.90079512  1
  O  O81  1  0.57921346  0.00546274  0.90528427  1
  O  O82  1  0.41454398  0.83870582  0.90189772  1
  O  O83  1  0.92044588  0.84010311  0.90503051  1
  O  O84  1  0.47863821  0.16578290  0.58131660  1
  O  O85  1  0.98676734  0.16438270  0.57489496  1
  O  O86  1  0.11011355  0.03523703  0.58527777  1
  O  O87  1  0.60352160  0.02954151  0.57796345  1
  O  O88  1  0.40993863  0.77862747  0.58279073  1
  O  O89  1  0.91183977  0.79187390  0.57871629  1
  O  O90  1  0.48521792  0.80874066  0.07495182  1
  O  O91  1  0.98289475  0.79602578  0.08168477  1
  O  O92  1  0.41180920  0.03303279  0.07850643  1
  O  O93  1  0.91774967  0.03913200  0.07933047  1
  O  O94  1  0.10619206  0.17889423  0.07804731  1
  O  O95  1  0.60932144  0.18164002  0.08542378  1
  O  O96  1  0.34030674  0.17160630  0.74626320  1
  O  O97  1  0.85376040  0.17774299  0.75711563  1
  O  O98  1  0.24879412  0.32711846  0.74101936  1
  O  O99  1  0.73430920  0.30002440  0.75544274  1
  O  O100  1  0.41438584  0.52687420  0.74530625  1
  O  O101  1  0.93025250  0.54437529  0.75427939  1
  O  O102  1  0.35445316  0.52915042  0.25770567  1
  O  O103  1  0.84101351  0.50647639  0.24514217  1
  O  O104  1  0.42986236  0.31440371  0.25487242  1
  O  O105  1  0.91755816  0.30075861  0.24975661  1
  O  O106  1  0.23431929  0.16837907  0.25656876  1
  O  O107  1  0.74503974  0.16777192  0.24583932  1
  O  O108  1  0.32822974  0.49785565  0.92108740  1
  O  O109  1  0.83963007  0.49958103  0.92999496  1
  O  O110  1  0.42400181  0.33552978  0.92539229  1
  O  O111  1  0.93367000  0.34480211  0.91521664  1
  O  O112  1  0.25463979  0.16048397  0.92396616  1
  O  O113  1  0.74990016  0.17326822  0.92736268  1
  O  O114  1  0.34036612  0.17522387  0.42819855  1
  O  O115  1  0.82863026  0.15898652  0.42170488  1
  O  O116  1  0.25316740  0.33172172  0.43181087  1
  O  O117  1  0.75457722  0.34887746  0.42458267  1
  O  O118  1  0.42757523  0.51908190  0.42146824  1
  O  O119  1  0.92329416  0.51176980  0.42581806  1
  O  O120  1  0.18537252  0.48859319  0.07458224  1
  O  O121  1  0.68719478  0.49118434  0.08195389  1
  O  O122  1  0.07172722  0.63928493  0.08653195  1
  O  O123  1  0.57191901  0.64412395  0.07877128  1
  O  O124  1  0.25829759  0.87098362  0.07736257  1
  O  O125  1  0.75139065  0.87032707  0.08509986  1
  O  O126  1  0.19046632  0.88726984  0.58270599  1
  O  O127  1  0.68346184  0.87998782  0.57511860  1
  O  O128  1  0.25693884  0.62864476  0.58335114  1
  O  O129  1  0.75822618  0.64532745  0.57785841  1
  O  O130  1  0.07575016  0.50263085  0.57935262  1
  O  O131  1  0.56977720  0.50116034  0.58599788  1
  O  O132  1  0.14063491  0.81769805  0.25533280  1
  O  O133  1  0.65911240  0.82010311  0.26661993  1
  O  O134  1  0.25621377  0.66427821  0.25221938  1
  O  O135  1  0.75427709  0.67073333  0.26247511  1
  O  O136  1  0.06970699  0.46313367  0.26094588  1
  O  O137  1  0.58204797  0.47190930  0.26303575  1
  O  O138  1  0.16123392  0.49763157  0.76359904  1
  O  O139  1  0.64220705  0.46714539  0.75508151  1
  O  O140  1  0.08237525  0.69060509  0.76164510  1
  O  O141  1  0.56708733  0.66985115  0.75772467  1
  O  O142  1  0.25333037  0.83384115  0.76208893  1
  O  O143  1  0.75646945  0.84586413  0.75260974  1
loop_
_geom_bond_atom_site_label_1
_geom_bond_atom_site_label_2
_geom_bond_distance
_geom_bond_site_symmetry_2
Na0 O107 2.470665 1_565
Na0 O133 2.503506 1_555
Na0 O105 2.505671 1_565
Na0 O33 2.560039 1_565
Na0 O135 2.602622 1_555
Na0 O19 2.699416 1_555
Na1 O134 2.360024 1_555
Na1 O106 2.365877 1_555
Na1 O64 2.459892 1_555
Na1 O102 2.662065 1_555
Na1 O136 2.677441 1_555
Na2 O135 2.414710 1_555
Na2 O103 2.418944 1_555
Na2 O107 2.487877 1_555
Na2 O137 2.578061 1_555
Na2 O65 2.760428 1_555
Na2 O35 2.814346 1_555
Na2 O1 2.927698 1_555
Na2 O21 2.961568 1_555
Na3 O132 2.345501 1_655
Na3 O31 2.417053 1_555
Na3 O103 2.442150 1_555
Na3 O136 2.645045 1_655
Na3 O105 2.708042 1_555
Na4 O102 2.423062 1_555
Na4 O133 2.458941 1_555
Na4 O23 2.624683 1_555
Na4 O30 2.652242 1_555
Na4 O137 2.680745 1_555
Na4 O104 2.705024 1_555
Na4 O61 2.777321 1_555
Na5 O138 2.422308 1_555
Na5 O98 2.479941 1_555
Na5 O100 2.516334 1_555
Na5 O142 2.519236 1_555
Na5 O70 2.669579 1_555
Na5 O12 2.802010 1_555
Na5 O28 2.885619 1_555
Na5 O8 2.912910 1_555
Na6 O97 2.401846 1_455
Na6 O138 2.487804 1_555
Na6 O66 2.652987 1_555
Na6 O140 2.674512 1_555
Na6 O101 2.696743 1_455
Na6 O25 2.735288 1_455
Na6 O14 2.758801 1_555
Na6 O11 2.968087 1_455
Na7 O139 2.313251 1_555
Na7 O96 2.484521 1_555
Na7 O141 2.551149 1_555
Na7 O24 2.612715 1_555
Na7 O100 2.713175 1_555
Na7 O67 2.784727 1_555
Na7 O10 2.879822 1_555
Na7 O15 2.989670 1_555
Na8 O142 2.449106 1_545
Na8 O96 2.483361 1_555
Na8 O140 2.527317 1_545
Na8 O98 2.583155 1_555
Na8 O68 2.587331 1_545
Na8 O6 2.760679 1_555
Na8 O16 2.961725 1_545
Na8 O26 2.977023 1_555
Na9 O69 2.322816 1_545
Na9 O99 2.362952 1_555
Na9 O143 2.374370 1_545
Na9 O97 2.626073 1_555
Na9 O141 2.746290 1_545
Na10 O130 2.366975 1_555
Na10 O128 2.443954 1_555
Na10 O85 2.450190 1_455
Na10 O86 2.486506 1_555
Na10 O14 2.507473 1_555
Na10 O56 2.571388 1_555
Na11 O131 2.400512 1_555
Na11 O15 2.501173 1_555
Na11 O87 2.516524 1_555
Na11 O84 2.517979 1_555
Na11 O57 2.572863 1_555
Na11 O129 2.582219 1_555
Na12 O84 2.293774 1_565
Na12 O54 2.362885 1_555
Na12 O126 2.375747 1_555
Na12 O88 2.696595 1_555
Na12 O12 2.704269 1_555
Na12 O128 2.711950 1_555
Na13 O85 2.380854 1_565
Na13 O127 2.499206 1_555
Na13 O55 2.557114 1_555
Na13 O13 2.573138 1_555
Na13 O129 2.617185 1_555
Na13 O89 2.635342 1_555
Na14 O122 2.385269 1_555
Na14 O91 2.405009 1_455
Na14 O94 2.476986 1_565
Na14 O22 2.480201 1_555
Na14 O124 2.636944 1_555
Na14 O52 2.660609 1_554
Na15 O125 2.342694 1_555
Na15 O123 2.454473 1_555
Na15 O95 2.508517 1_565
Na15 O23 2.583955 1_555
Na15 O90 2.611181 1_555
Na15 O53 2.714663 1_554
Na16 O90 2.362860 1_555
Na16 O120 2.463812 1_555
Na16 O48 2.600309 1_554
Na16 O18 2.607522 1_555
Na16 O124 2.614190 1_555
Na16 O92 2.642247 1_565
Na17 O91 2.387505 1_555
Na17 O49 2.415559 1_554
Na17 O121 2.471741 1_555
Na17 O93 2.525862 1_565
Na17 O125 2.557608 1_555
Na17 O19 2.731654 1_555
Na18 O82 2.438994 1_555
Na18 O81 2.550089 1_565
Na18 O53 2.552283 1_555
Na18 O108 2.570985 1_555
Na18 O38 2.664122 1_556
Na18 O110 2.801756 1_555
Na18 O8 2.882618 1_555
Na19 O109 2.365990 1_555
Na19 O83 2.408553 1_555
Na19 O52 2.632163 1_655
Na19 O80 2.635005 1_665
Na19 O39 2.637532 1_556
Na19 O111 2.681430 1_555
Na19 O9 2.875857 1_655
Na20 O79 2.521011 1_555
Na20 O112 2.541286 1_555
Na20 O82 2.551394 1_545
Na20 O110 2.558302 1_555
Na20 O10 2.697700 1_555
Na20 O68 2.722861 1_545
Na20 O48 2.750434 1_545
Na20 O40 2.762941 1_556
Na21 O111 2.549684 1_555
Na21 O41 2.618473 1_556
Na21 O113 2.659525 1_555
Na21 O78 2.681183 1_655
Na21 O83 2.697389 1_545
Na21 O49 2.751537 1_545
Na21 O69 2.869115 1_545
Na21 O11 3.009198 1_555
Na22 O80 2.372871 1_555
Na22 O112 2.509511 1_555
Na22 O78 2.538655 1_555
Na22 O108 2.570870 1_555
Na22 O6 2.579713 1_555
Na22 O70 2.819409 1_555
Na22 O36 2.891186 1_556
Na22 O50 2.908045 1_555
Na23 O113 2.341218 1_555
Na23 O71 2.446313 1_555
Na23 O81 2.482579 1_555
Na23 O109 2.633460 1_555
Na23 O7 2.771515 1_555
Na23 O79 2.807224 1_555
Na23 O37 2.932622 1_556
Na23 O51 3.007683 1_555
Na24 O114 2.395638 1_555
Na24 O74 2.408517 1_545
Na24 O77 2.554629 1_555
Na24 O4 2.685562 1_555
Na24 O57 2.687347 1_555
Na24 O118 2.755285 1_555
Na24 O46 2.875425 1_555
Na24 O61 2.953364 1_555
Na25 O75 2.381646 1_545
Na25 O115 2.530195 1_555
Na25 O76 2.555600 1_655
Na25 O56 2.728485 1_655
Na25 O47 2.729557 1_555
Na25 O5 2.734711 1_555
Na25 O119 2.805315 1_555
Na25 O60 2.975232 1_655
Na26 O76 2.432109 1_555
Na26 O62 2.453692 1_545
Na26 O116 2.467952 1_555
Na26 O0 2.570349 1_555
Na26 O72 2.736049 1_545
Na26 O114 2.741970 1_555
Na27 O77 2.401617 1_555
Na27 O1 2.472936 1_555
Na27 O117 2.517591 1_555
Na27 O115 2.571474 1_555
Na27 O73 2.613885 1_545
Na27 O63 2.766929 1_545
Na27 O43 2.963390 1_555
Na27 O59 3.016327 1_545
Na28 O118 2.523360 1_555
Na28 O73 2.567736 1_555
Na28 O74 2.585860 1_555
Na28 O2 2.638832 1_555
Na28 O64 2.644170 1_555
Na28 O116 2.715664 1_555
Na28 O54 2.923713 1_555
Na28 O44 3.009453 1_555
Na29 O72 2.524374 1_655
Na29 O75 2.541518 1_555
Na29 O3 2.554476 1_555
Na29 O117 2.554956 1_555
Na29 O119 2.570292 1_555
Na29 O65 2.675773 1_555
Na29 O55 2.832222 1_555
Na29 O45 2.858115 1_555
Na30 O85 2.386460 1_555
Na30 O76 2.412673 1_655
Na30 O75 2.460960 1_545
Na30 O72 2.575243 1_645
Na30 O89 2.658393 1_545
Na30 O86 2.858925 1_655
Na31 O74 2.366623 1_545
Na31 O77 2.524667 1_555
Na31 O84 2.566018 1_555
Na31 O73 2.647871 1_545
Na31 O87 2.671552 1_555
Na31 O88 2.816480 1_545
Na32 O93 2.410148 1_566
Na32 O83 2.463704 1_555
Na32 O91 2.496293 1_556
Na32 O94 2.667749 1_666
Na32 O78 2.773425 1_665
Na32 O80 2.811560 1_665
Na33 O90 2.352550 1_556
Na33 O81 2.421206 1_565
Na33 O82 2.543153 1_555
Na33 O79 2.609346 1_565
Na33 O92 2.669236 1_566
Na33 O95 2.780589 1_566
Na34 O112 2.465070 1_555
Na34 O108 2.485515 1_555
Na34 O96 2.522284 1_555
Na34 O98 2.532117 1_555
Na34 O100 2.652486 1_555
Na34 O110 2.680760 1_555
Na35 O99 2.409154 1_555
Na35 O113 2.424102 1_555
Na35 O109 2.473964 1_555
Na35 O97 2.547183 1_555
Na35 O111 2.588587 1_555
Na35 O101 2.732745 1_555
Na36 O106 2.337310 1_555
Na36 O102 2.452856 1_555
Na36 O114 2.543265 1_555
Na36 O116 2.576180 1_555
Na36 O104 2.650950 1_555
Na36 O118 2.674489 1_555
Na37 O107 2.371192 1_555
Na37 O103 2.423398 1_555
Na37 O105 2.534903 1_555
Na37 O117 2.582640 1_555
Na37 O115 2.595004 1_555
Na37 O119 2.776882 1_555
Na38 O132 2.401566 1_555
Na38 O122 2.463967 1_555
Na38 O134 2.507721 1_555
Na38 O124 2.738771 1_555
Na38 O136 2.746396 1_555
Na38 O120 2.956954 1_555
Na39 O125 2.454015 1_555
Na39 O123 2.491208 1_555
Na39 O133 2.630363 1_555
Na39 O121 2.722235 1_555
Na39 O135 2.747926 1_555
Na39 O137 2.806255 1_555
Na40 O138 2.481527 1_555
Na40 O130 2.513442 1_555
Na40 O140 2.552574 1_555
Na40 O142 2.658506 1_555
Na40 O128 2.796030 1_555
Na40 O126 2.813559 1_555
Na41 O139 2.355424 1_555
Na41 O143 2.448488 1_555
Na41 O131 2.553805 1_555
Na41 O141 2.699222 1_555
Na41 O129 2.745753 1_555
Na41 O127 2.965410 1_555
Al0 O0 1.804654 1_665
Al0 O3 1.883441 1_555
Al0 O75 1.925834 1_555
Al0 O76 2.004003 1_665
Al0 O5 2.055173 1_565
Al0 O72 2.171890 1_655
Al1 O2 1.833079 1_545
Al1 O1 1.901023 1_555
Al1 O77 1.930145 1_555
Al1 O4 1.953319 1_555
Al1 O74 1.986768 1_545
Al1 O73 2.139221 1_545
Al2 O11 1.832703 1_465
Al2 O80 1.902598 1_565
Al2 O83 1.950204 1_455
Al2 O9 1.976950 1_555
Al2 O6 1.989158 1_565
Al2 O78 2.080182 1_565
Al3 O7 1.806318 1_555
Al3 O10 1.899487 1_555
Al3 O82 1.909591 1_545
Al3 O81 1.918505 1_555
Al3 O79 2.087939 1_555
Al3 O8 2.211138 1_545
Al4 O24 1.809794 1_555
Al4 O96 1.872832 1_555
Al4 O98 1.941303 1_555
Al4 O26 2.003938 1_555
Al4 O100 2.095952 1_555
Al4 O28 2.160870 1_555
Al5 O33 1.816618 1_555
Al5 O31 1.824071 1_555
Al5 O35 1.996670 1_555
Al5 O103 2.027883 1_555
Al5 O107 2.090398 1_555
Al5 O105 2.255754 1_555
Al6 O38 1.805018 1_556
Al6 O108 1.865082 1_555
Al6 O112 1.958277 1_555
Al6 O36 1.968406 1_556
Al6 O110 2.086517 1_555
Al6 O40 2.186053 1_556
Al7 O41 1.801867 1_556
Al7 O39 1.821294 1_556
Al7 O109 1.888788 1_555
Al7 O113 1.972248 1_555
Al7 O37 1.975976 1_556
Al7 O111 2.405740 1_555
Al8 O46 1.783707 1_555
Al8 O114 1.821655 1_555
Al8 O116 1.867543 1_555
Al8 O42 1.980405 1_555
Al8 O44 2.090167 1_555
Al8 O118 2.222079 1_555
Al9 O47 1.823105 1_555
Al9 O115 1.853151 1_555
Al9 O117 1.949832 1_555
Al9 O43 2.008981 1_555
Al9 O119 2.049484 1_555
Al9 O45 2.199073 1_555
Al10 O135 1.787149 1_555
Al10 O63 1.792691 1_555
Al10 O65 1.917734 1_555
Al10 O133 1.919237 1_555
Al10 O137 2.301573 1_555
Al10 O61 2.470968 1_555
Al11 O70 1.793106 1_555
Al11 O142 1.820247 1_555
Al11 O68 1.906280 1_555
Al11 O138 1.970904 1_555
Al11 O66 2.276316 1_555
Al11 O140 2.296296 1_555
O0 Si0 1.650995 1_545
O1 Si1 1.647316 1_545
O2 Si2 1.643616 1_555
O3 Si3 1.648345 1_555
O4 S1 1.477170 1_555
O5 S0 1.491034 1_555
O6 Si4 1.638378 1_555
O7 Si5 1.639746 1_555
O8 S3 1.481271 1_555
O9 S2 1.464687 1_555
O10 Si6 1.635997 1_545
O11 Si7 1.637347 1_545
O12 Si6 1.637739 1_555
O12 Y1 2.128945 1_565
O13 Si7 1.639854 1_555
O13 Y0 2.064321 1_665
O14 Si4 1.644163 1_555
O14 Y0 2.149622 1_555
O15 Si5 1.649207 1_555
O15 Y1 2.086759 1_555
O16 S2 1.485577 1_555
O16 Y0 2.330614 1_565
O17 S3 1.475478 1_555
O17 Y1 2.279007 1_565
O18 Si2 1.629936 1_555
O18 Y3 2.071943 1_555
O19 Si3 1.625256 1_555
O19 Y2 2.131630 1_555
O20 S0 1.473924 1_455
O20 Y2 2.281537 1_445
O21 S1 1.481008 1_555
O21 Y3 2.345482 1_545
O22 Si0 1.629124 1_555
O22 Y2 2.162780 1_455
O23 Si1 1.643832 1_555
O23 Y3 2.145544 1_555
O24 Si8 1.653316 1_555
O25 Si9 1.621979 1_555
O25 Y4 2.137184 1_555
O26 S4 1.488578 1_555
O27 S5 1.480659 1_555
O27 Y4 2.288495 1_555
O28 S6 1.483331 1_555
O29 S7 1.476044 1_555
O29 Y4 2.266672 1_555
O30 Si10 1.628425 1_555
O30 Y5 2.119605 1_555
O31 Si11 1.648365 1_555
O32 S8 1.476170 1_555
O32 Y5 2.253254 1_555
O33 Si12 1.656898 1_555
O34 S9 1.482734 1_555
O34 Y5 2.268577 1_555
O35 S10 1.489480 1_555
O36 S9 1.494015 1_555
O37 S10 1.479218 1_555
O38 Si10 1.661709 1_555
O39 Si11 1.630538 1_555
O40 S8 1.476042 1_555
O41 Si12 1.637221 1_555
O42 S4 1.483507 1_555
O43 S5 1.493787 1_555
O44 S6 1.478288 1_555
O45 S7 1.473395 1_555
O46 Si8 1.633363 1_555
O47 Si9 1.660776 1_555
O48 Si13 1.630008 1_555
O48 Y6 2.257599 1_556
O49 Si14 1.639148 1_555
O49 Y7 2.229746 1_556
O50 S11 1.495287 1_555
O50 Y6 2.218769 1_556
O51 S12 1.473381 1_555
O51 Y7 2.374112 1_556
O52 Si15 1.637074 1_555
O52 Y6 2.129173 1_556
O53 Si16 1.637265 1_555
O53 Y7 2.150758 1_556
O54 Si17 1.647641 1_555
O54 Y8 2.223731 1_555
O55 Si18 1.634642 1_555
O55 Y9 2.238580 1_555
O56 Si19 1.645232 1_555
O56 Y8 2.127631 1_555
O57 Si20 1.645238 1_555
O57 Y9 2.133473 1_555
O58 S13 1.488717 1_555
O58 Y8 2.253641 1_555
O59 S14 1.490789 1_555
O59 Y9 2.219930 1_555
O60 S13 1.476746 1_555
O60 Y10 2.447561 1_555
O61 S14 1.477067 1_555
O62 Si17 1.626164 1_555
O62 Y10 2.106888 1_555
O63 Si18 1.633431 1_555
O64 Si19 1.628318 1_555
O64 Y10 2.263405 1_555
O65 Si20 1.657516 1_555
O66 S11 1.486264 1_555
O67 S12 1.486926 1_555
O67 Y11 2.435548 1_555
O68 Si15 1.663959 1_555
O69 Si16 1.632442 1_555
O69 Y11 2.225726 1_555
O70 Si13 1.640863 1_555
O71 Si14 1.634421 1_555
O71 Y11 2.097686 1_555
O72 S13 1.482092 1_555
O73 S14 1.489176 1_555
O74 Si17 1.647695 1_555
O75 Si18 1.655716 1_555
O76 Si19 1.653861 1_555
O77 Si20 1.646861 1_555
O78 S11 1.489174 1_555
O79 S12 1.491061 1_555
O80 Si15 1.638166 1_545
O81 Si16 1.661205 1_545
O82 Si13 1.652652 1_555
O83 Si14 1.654771 1_555
O84 Si8 1.687304 1_555
O84 Y1 2.222437 1_555
O85 Si9 1.681769 1_555
O85 Y0 2.263059 1_655
O86 S4 1.479879 1_555
O86 Y0 2.411286 1_555
O87 S5 1.482955 1_555
O87 Y1 2.474049 1_555
O88 S6 1.486584 1_555
O88 Y1 2.358542 1_565
O89 S7 1.482877 1_555
O89 Y0 2.443423 1_665
O90 Si10 1.681819 1_555
O90 Y3 2.240471 1_555
O91 Si11 1.672928 1_555
O91 Y2 2.218957 1_555
O92 S8 1.481517 1_555
O92 Y3 2.464523 1_545
O93 Si12 1.634427 1_555
O93 Y2 2.187888 1_545
O94 S9 1.472330 1_555
O94 Y2 2.472384 1_445
O95 S10 1.485512 1_555
O95 Y3 2.371798 1_545
O96 Si6 1.671392 1_545
O97 Si7 1.658331 1_545
O97 Y4 2.184189 1_555
O98 Si4 1.685395 1_555
O99 Si5 1.636412 1_555
O99 Y4 2.228410 1_555
O100 S3 1.509787 1_555
O101 S2 1.486093 1_655
O101 Y4 2.281232 1_555
O102 Si2 1.657139 1_555
O102 Y5 2.206541 1_555
O103 Si3 1.669864 1_555
O104 S1 1.487459 1_555
O104 Y5 2.295789 1_555
O105 S0 1.487130 1_555
O106 Si0 1.643881 1_545
O106 Y5 2.242159 1_555
O107 Si1 1.661921 1_545
O108 Si13 1.666211 1_555
O109 Si14 1.650155 1_555
O110 S12 1.493355 1_555
O111 S11 1.476830 1_655
O112 Si15 1.679664 1_545
O113 Si16 1.651831 1_545
O114 Si17 1.649164 1_545
O115 Si18 1.665835 1_545
O116 Si19 1.664282 1_555
O117 Si20 1.675542 1_555
O118 S14 1.492419 1_555
O119 S13 1.489601 1_655
O120 S9 1.477716 1_555
O120 Y6 2.334382 1_555
O121 S10 1.481399 1_555
O121 Y7 2.442300 1_555
O122 Si11 1.664201 1_455
O122 Y6 2.230143 1_555
O123 Si10 1.624698 1_555
O123 Y7 2.182722 1_555
O124 S8 1.508139 1_565
O124 Y6 2.315747 1_555
O125 Si12 1.674766 1_565
O125 Y7 2.195509 1_555
O126 S4 1.486768 1_565
O126 Y8 2.462561 1_555
O127 S5 1.477783 1_565
O127 Y9 2.343512 1_555
O128 S6 1.512296 1_555
O128 Y8 2.386875 1_555
O129 S7 1.511427 1_555
O129 Y9 2.315900 1_555
O130 Si9 1.650557 1_455
O130 Y8 2.172632 1_555
O131 Si8 1.650197 1_555
O131 Y9 2.261569 1_555
O132 Si0 1.635380 1_555
O132 Y10 2.180177 1_555
O133 Si1 1.672659 1_555
O134 Si2 1.642076 1_555
O134 Y10 2.130013 1_555
O135 Si3 1.651734 1_555
O136 S0 1.480097 1_455
O136 Y10 2.367836 1_555
O137 S1 1.485190 1_555
O138 Si4 1.667603 1_555
O139 Si5 1.628568 1_555
O139 Y11 2.192010 1_555
O140 S2 1.492870 1_555
O141 S3 1.476193 1_555
O141 Y11 2.477308 1_555
O142 Si6 1.643823 1_555
O143 Si7 1.639790 1_555
O143 Y11 2.142972 1_555
