# generated using pymatgen
data_Na2ScTaSi(PO6)2
_symmetry_space_group_name_H-M   'P 1'
_cell_length_a   8.91840409
_cell_length_b   8.91840378
_cell_length_c   22.81087318
_cell_angle_alpha   89.83596190
_cell_angle_beta   90.16403810
_cell_angle_gamma   119.64156568
_symmetry_Int_Tables_number   1
_chemical_formula_structural   Na2ScTaSi(PO6)2
_chemical_formula_sum   'Na12 Sc6 Ta6 Si6 P12 O72'
_cell_volume   1576.89119374
_cell_formula_units_Z   6
loop_
 _symmetry_equiv_pos_site_id
 _symmetry_equiv_pos_as_xyz
  1  'x, y, z'
loop_
 _atom_site_type_symbol
 _atom_site_label
 _atom_site_symmetry_multiplicity
 _atom_site_fract_x
 _atom_site_fract_y
 _atom_site_fract_z
 _atom_site_occupancy
  Na  Na0  1  0.99036796  0.62925126  0.24760319  1
  Na  Na1  1  0.37074874  0.00963204  0.74760319  1
  Na  Na2  1  0.65557927  0.96495559  0.58334419  1
  Na  Na3  1  0.03504441  0.34442073  0.08334419  1
  Na  Na4  1  0.97854385  0.67810155  0.91676789  1
  Na  Na5  1  0.32189845  0.02145615  0.41676789  1
  Na  Na6  1  0.00031518  0.99567666  0.49535555  1
  Na  Na7  1  0.00432334  0.99968482  0.99535555  1
  Na  Na8  1  0.66898872  0.32913269  0.82893979  1
  Na  Na9  1  0.67086731  0.33101128  0.32893979  1
  Na  Na10  1  0.34585926  0.67514314  0.16188560  1
  Na  Na11  1  0.32485686  0.65414074  0.66188560  1
  Sc  Sc0  1  0.99149441  0.00116515  0.35284200  1
  Sc  Sc1  1  0.99883485  0.00850559  0.85284200  1
  Sc  Sc2  1  0.66902519  0.33141684  0.68577767  1
  Sc  Sc3  1  0.66858316  0.33097481  0.18577767  1
  Sc  Sc4  1  0.33351953  0.67509483  0.01931054  1
  Sc  Sc5  1  0.32490517  0.66648047  0.51931054  1
  Ta  Ta0  1  0.00314067  0.99947325  0.64685764  1
  Ta  Ta1  1  0.00052675  0.99685933  0.14685764  1
  Ta  Ta2  1  0.66152815  0.33069471  0.98005765  1
  Ta  Ta3  1  0.66930529  0.33847185  0.48005765  1
  Ta  Ta4  1  0.32881552  0.65923684  0.31325081  1
  Ta  Ta5  1  0.34076316  0.67118448  0.81325081  1
  Si  Si0  1  0.99880526  0.29003848  0.25017433  1
  Si  Si1  1  0.70996152  0.00119474  0.75017433  1
  Si  Si2  1  0.37398669  0.04237043  0.58415090  1
  Si  Si3  1  0.95762957  0.62601331  0.08415090  1
  Si  Si4  1  0.33426426  0.96147013  0.91682286  1
  Si  Si5  1  0.03852987  0.66573574  0.41682286  1
  P  P0  1  0.29255500  0.00183081  0.25238042  1
  P  P1  1  0.70806374  0.71197053  0.25049369  1
  P  P2  1  0.28802947  0.29193626  0.75049369  1
  P  P3  1  0.99816919  0.70744500  0.75238042  1
  P  P4  1  0.95770856  0.33334164  0.58442916  1
  P  P5  1  0.66920511  0.62404845  0.58468790  1
  P  P6  1  0.66665836  0.04229144  0.08442916  1
  P  P7  1  0.37595155  0.33079489  0.08468790  1
  P  P8  1  0.62221205  0.66463403  0.91798295  1
  P  P9  1  0.04393166  0.37728545  0.91860055  1
  P  P10  1  0.62271455  0.95606834  0.41860055  1
  P  P11  1  0.33536597  0.37778795  0.41798295  1
  O  O0  1  0.20874998  0.01985684  0.30778559  1
  O  O1  1  0.82441299  0.79114426  0.30358834  1
  O  O2  1  0.97661172  0.17626303  0.30655011  1
  O  O3  1  0.20885574  0.17558701  0.80358834  1
  O  O4  1  0.98014316  0.79125002  0.80778559  1
  O  O5  1  0.82373697  0.02338828  0.80655011  1
  O  O6  1  0.80136127  0.97166254  0.69039639  1
  O  O7  1  0.16889222  0.19781290  0.69514666  1
  O  O8  1  0.03391134  0.83374420  0.69755206  1
  O  O9  1  0.80218710  0.83110778  0.19514666  1
  O  O10  1  0.02833746  0.19863873  0.19039639  1
  O  O11  1  0.16625580  0.96608866  0.19755206  1
  O  O12  1  0.87430148  0.35796852  0.63820550  1
  O  O13  1  0.48978311  0.12732305  0.64177596  1
  O  O14  1  0.64620947  0.51675281  0.63829018  1
  O  O15  1  0.87267695  0.51021689  0.14177596  1
  O  O16  1  0.64203148  0.12569852  0.13820550  1
  O  O17  1  0.48324719  0.35379053  0.13829018  1
  O  O18  1  0.46658971  0.30282681  0.02903476  1
  O  O19  1  0.83406423  0.52995828  0.02490790  1
  O  O20  1  0.69791528  0.16469609  0.02940020  1
  O  O21  1  0.47004172  0.16593577  0.52490790  1
  O  O22  1  0.69717319  0.53341029  0.52903476  1
  O  O23  1  0.83530391  0.30208472  0.52940020  1
  O  O24  1  0.53743049  0.68723188  0.97160240  1
  O  O25  1  0.14559611  0.45597373  0.97460307  1
  O  O26  1  0.29935538  0.83593769  0.97163143  1
  O  O27  1  0.54402627  0.85440389  0.47460307  1
  O  O28  1  0.31276812  0.46256951  0.47160240  1
  O  O29  1  0.16406231  0.70064462  0.47163143  1
  O  O30  1  0.13656650  0.63745735  0.35761996  1
  O  O31  1  0.50107214  0.86564006  0.36404741  1
  O  O32  1  0.36377698  0.49582565  0.36217523  1
  O  O33  1  0.13435994  0.49892786  0.86404741  1
  O  O34  1  0.36254265  0.86343350  0.85761996  1
  O  O35  1  0.50417435  0.63622302  0.86217523  1
  O  O36  1  0.02537694  0.83855387  0.40977071  1
  O  O37  1  0.80376023  0.98324043  0.41157189  1
  O  O38  1  0.18594168  0.19429339  0.41007330  1
  O  O39  1  0.01675957  0.19623977  0.91157189  1
  O  O40  1  0.16144613  0.97462306  0.90977071  1
  O  O41  1  0.80570661  0.81405832  0.91007330  1
  O  O42  1  0.96130405  0.15769583  0.58937036  1
  O  O43  1  0.18136046  0.02657264  0.59071068  1
  O  O44  1  0.83669982  0.80863501  0.58989962  1
  O  O45  1  0.97342736  0.81863954  0.09071068  1
  O  O46  1  0.84230417  0.03869595  0.08937036  1
  O  O47  1  0.19136499  0.16330018  0.08989962  1
  O  O48  1  0.66768324  0.15750987  0.74600498  1
  O  O49  1  0.46687950  0.31297449  0.74196649  1
  O  O50  1  0.84413606  0.53089488  0.74324394  1
  O  O51  1  0.68702551  0.53312050  0.24196649  1
  O  O52  1  0.84249013  0.33231676  0.24600498  1
  O  O53  1  0.46910512  0.15586394  0.24324394  1
  O  O54  1  0.63895343  0.49592740  0.92275035  1
  O  O55  1  0.86267388  0.37095451  0.92332810  1
  O  O56  1  0.51205822  0.15065576  0.92416098  1
  O  O57  1  0.62904549  0.13732612  0.42332810  1
  O  O58  1  0.50407260  0.36104657  0.42275035  1
  O  O59  1  0.84934424  0.48794178  0.42416098  1
  O  O60  1  0.34372337  0.48226465  0.07604119  1
  O  O61  1  0.14419171  0.63769365  0.07834577  1
  O  O62  1  0.51621718  0.86088500  0.07681724  1
  O  O63  1  0.36230635  0.85580829  0.57834577  1
  O  O64  1  0.51773535  0.65627663  0.57604119  1
  O  O65  1  0.13911500  0.48378282  0.57681724  1
  O  O66  1  0.30132569  0.82863612  0.25629303  1
  O  O67  1  0.53005574  0.70278111  0.25683964  1
  O  O68  1  0.17924328  0.48621820  0.25678330  1
  O  O69  1  0.29721889  0.46994426  0.75683964  1
  O  O70  1  0.17136388  0.69867431  0.75629303  1
  O  O71  1  0.51378180  0.82075672  0.75678330  1
loop_
_geom_bond_atom_site_label_1
_geom_bond_atom_site_label_2
_geom_bond_distance
_geom_bond_site_symmetry_2
Na0 O52 2.301998 1_555
Na0 O51 2.403084 1_555
Na0 O66 2.452181 1_655
Na0 O68 2.574952 1_655
Na0 O15 2.637067 1_555
Na0 O30 2.809148 1_655
Na0 O1 2.835706 1_555
Na0 O11 2.849202 1_655
Na1 O48 2.301998 1_555
Na1 O49 2.403084 1_555
Na1 O70 2.452181 1_545
Na1 O71 2.574952 1_545
Na1 O13 2.637067 1_555
Na1 O34 2.809148 1_545
Na1 O3 2.835706 1_555
Na1 O8 2.849202 1_545
Na2 O63 2.298279 1_555
Na2 O42 2.402318 1_565
Na2 O64 2.402400 1_555
Na2 O44 2.607700 1_555
Na2 O27 2.672877 1_555
Na2 O6 2.750059 1_555
Na2 O13 2.863574 1_565
Na2 O23 2.889023 1_565
Na3 O61 2.298278 1_555
Na3 O46 2.402317 1_455
Na3 O60 2.402400 1_555
Na3 O47 2.607700 1_555
Na3 O25 2.672877 1_554
Na3 O10 2.750059 1_555
Na3 O15 2.863574 1_455
Na3 O20 2.889024 1_455
Na4 O40 2.326339 1_655
Na4 O41 2.390784 1_555
Na4 O55 2.406739 1_555
Na4 O54 2.639063 1_555
Na4 O4 2.677723 1_555
Na4 O26 2.782010 1_655
Na4 O19 2.794000 1_556
Na4 O33 2.854429 1_655
Na5 O36 2.326339 1_545
Na5 O38 2.390784 1_555
Na5 O57 2.406739 1_555
Na5 O58 2.639063 1_555
Na5 O0 2.677723 1_555
Na5 O29 2.782010 1_545
Na5 O21 2.794000 1_555
Na5 O31 2.854429 1_545
Na6 O36 2.480496 1_555
Na6 O37 2.554893 1_455
Na6 O38 2.600162 1_565
Na6 O43 2.637694 1_565
Na6 O44 2.674443 1_455
Na6 O42 2.706908 1_465
Na7 O40 2.480496 1_555
Na7 O39 2.554893 1_565
Na7 O41 2.600162 1_455
Na7 O45 2.637693 1_456
Na7 O47 2.674443 1_566
Na7 O46 2.706908 1_466
Na8 O48 2.433243 1_555
Na8 O50 2.591553 1_555
Na8 O49 2.632485 1_555
Na8 O56 2.646579 1_555
Na8 O55 2.665458 1_555
Na8 O54 2.698029 1_555
Na9 O52 2.433243 1_555
Na9 O53 2.591553 1_555
Na9 O51 2.632485 1_555
Na9 O59 2.646579 1_555
Na9 O57 2.665458 1_555
Na9 O58 2.698029 1_555
Na10 O62 2.515329 1_555
Na10 O61 2.523402 1_555
Na10 O60 2.603939 1_555
Na10 O67 2.651980 1_555
Na10 O66 2.688654 1_555
Na10 O68 2.693308 1_555
Na11 O65 2.515329 1_555
Na11 O63 2.523402 1_555
Na11 O64 2.603939 1_555
Na11 O69 2.651980 1_555
Na11 O70 2.688654 1_555
Na11 O71 2.693308 1_555
O0 P0 1.518940 1_555
O0 Sc0 2.128200 1_455
O1 P1 1.521550 1_555
O1 Sc0 2.057362 1_565
O2 Si0 1.586775 1_555
O2 Sc0 1.940622 1_555
O3 P2 1.521550 1_555
O3 Sc1 2.057362 1_455
O4 P3 1.518940 1_555
O4 Sc1 2.128200 1_565
O5 Si1 1.586775 1_555
O5 Sc1 1.940623 1_555
O6 Si1 1.677490 1_565
O6 Ta0 1.963056 1_655
O7 P2 1.594893 1_555
O7 Ta0 1.985658 1_545
O8 P3 1.604253 1_455
O8 Ta0 1.996681 1_555
O9 P1 1.594893 1_555
O9 Ta1 1.985658 1_655
O10 Si0 1.677490 1_455
O10 Ta1 1.963056 1_545
O11 P0 1.604253 1_565
O11 Ta1 1.996681 1_555
O12 P4 1.508207 1_555
O12 Sc2 2.041162 1_555
O13 Si2 1.610085 1_555
O13 Sc2 1.999776 1_555
O14 P5 1.501126 1_555
O14 Sc2 2.065924 1_555
O15 Si3 1.610085 1_555
O15 Sc3 1.999776 1_555
O16 P6 1.508207 1_555
O16 Sc3 2.041162 1_555
O17 P7 1.501126 1_555
O17 Sc3 2.065924 1_555
O18 P7 1.591977 1_555
O18 Ta2 1.978530 1_554
O19 Si3 1.684882 1_555
O19 Ta2 1.967004 1_554
O20 P6 1.593186 1_555
O20 Ta2 2.006852 1_554
O21 Si2 1.684882 1_555
O21 Ta3 1.967004 1_555
O22 P5 1.591977 1_555
O22 Ta3 1.978530 1_555
O23 P4 1.593186 1_555
O23 Ta3 2.006852 1_555
O24 P8 1.505243 1_555
O24 Sc4 2.078255 1_556
O25 P9 1.521711 1_555
O25 Sc4 2.104716 1_556
O26 Si4 1.600888 1_555
O26 Sc4 1.937753 1_556
O27 P10 1.521711 1_555
O27 Sc5 2.104716 1_555
O28 P11 1.505243 1_555
O28 Sc5 2.078255 1_555
O29 Si5 1.600888 1_555
O29 Sc5 1.937753 1_555
O30 Si5 1.696658 1_555
O30 Ta4 1.918636 1_555
O31 P10 1.583813 1_555
O31 Ta4 2.072678 1_555
O32 P11 1.588495 1_555
O32 Ta4 1.976052 1_555
O33 P9 1.583813 1_555
O33 Ta5 2.072678 1_555
O34 Si4 1.696658 1_555
O34 Ta5 1.918636 1_555
O35 P8 1.588495 1_555
O35 Ta5 1.976052 1_555
O36 Si5 1.610103 1_555
O36 Sc0 2.073951 1_465
O37 P10 1.518459 1_555
O37 Sc0 2.090553 1_565
O38 P11 1.526329 1_555
O38 Sc0 2.173408 1_455
O39 P9 1.518459 1_555
O39 Sc1 2.090553 1_455
O40 Si4 1.610103 1_555
O40 Sc1 2.073951 1_465
O41 P8 1.526329 1_555
O41 Sc1 2.173408 1_565
O42 P4 1.586268 1_555
O42 Ta0 2.087436 1_645
O43 Si2 1.659947 1_555
O43 Ta0 1.963410 1_545
O44 P5 1.588478 1_555
O44 Ta0 2.071438 1_655
O45 Si3 1.659947 1_555
O45 Ta1 1.963410 1_655
O46 P6 1.586268 1_555
O46 Ta1 2.087436 1_645
O47 P7 1.588478 1_555
O47 Ta1 2.071438 1_545
O48 Si1 1.616680 1_555
O48 Sc2 2.064612 1_555
O49 P2 1.524069 1_555
O49 Sc2 2.153769 1_555
O50 P3 1.506811 1_555
O50 Sc2 2.139084 1_555
O51 P1 1.524069 1_555
O51 Sc3 2.153769 1_555
O52 Si0 1.616680 1_555
O52 Sc3 2.064612 1_555
O53 P0 1.506811 1_555
O53 Sc3 2.139084 1_555
O54 P8 1.587167 1_555
O54 Ta2 2.049839 1_555
O55 P9 1.593320 1_655
O55 Ta2 2.096444 1_555
O56 Si4 1.656147 1_545
O56 Ta2 1.966140 1_555
O57 P10 1.593320 1_545
O57 Ta3 2.096444 1_555
O58 P11 1.587167 1_555
O58 Ta3 2.049839 1_555
O59 Si5 1.656147 1_655
O59 Ta3 1.966140 1_555
O60 P7 1.525965 1_555
O60 Sc4 2.186731 1_555
O61 Si3 1.620642 1_455
O61 Sc4 2.056478 1_555
O62 P6 1.516878 1_565
O62 Sc4 2.109698 1_555
O63 Si2 1.620642 1_565
O63 Sc5 2.056478 1_555
O64 P5 1.525965 1_555
O64 Sc5 2.186731 1_555
O65 P4 1.516878 1_455
O65 Sc5 2.109698 1_555
O66 P0 1.587015 1_565
O66 Ta4 2.093779 1_555
O67 P1 1.555805 1_555
O67 Ta4 2.085349 1_555
O68 Si0 1.699596 1_455
O68 Ta4 1.945530 1_555
O69 P2 1.555805 1_555
O69 Ta5 2.085349 1_555
O70 P3 1.587015 1_455
O70 Ta5 2.093779 1_555
O71 Si1 1.699596 1_565
O71 Ta5 1.945530 1_555
