# generated using pymatgen
data_CsVCl3
_symmetry_space_group_name_H-M   'P 1'
_cell_length_a   7.23788792
_cell_length_b   7.23789468
_cell_length_c   6.19426413
_cell_angle_alpha   90.00000000
_cell_angle_beta   90.00000000
_cell_angle_gamma   120.00002553
_symmetry_Int_Tables_number   1
_chemical_formula_structural   CsVCl3
_chemical_formula_sum   'Cs2 V2 Cl6'
_cell_volume   281.02460960
_cell_formula_units_Z   2
loop_
 _symmetry_equiv_pos_site_id
 _symmetry_equiv_pos_as_xyz
  1  'x, y, z'
loop_
 _atom_site_type_symbol
 _atom_site_label
 _atom_site_symmetry_multiplicity
 _atom_site_fract_x
 _atom_site_fract_y
 _atom_site_fract_z
 _atom_site_occupancy
  Cs  Cs0  1  0.66666700  0.33333300  0.25000000  1
  Cs  Cs1  1  0.33333300  0.66666700  0.75000000  1
  V  V0  1  0.00000000  0.00000000  0.50000000  1
  V  V1  1  0.00000000  0.00000000  0.00000000  1
  Cl  Cl0  1  0.84360225  0.68720450  0.75000000  1
  Cl  Cl1  1  0.15639775  0.84360325  0.25000000  1
  Cl  Cl2  1  0.68720550  0.84360325  0.25000000  1
  Cl  Cl3  1  0.31279450  0.15639675  0.75000000  1
  Cl  Cl4  1  0.15639775  0.31279550  0.25000000  1
  Cl  Cl5  1  0.84360225  0.15639675  0.75000000  1
loop_
_geom_bond_atom_site_label_1
_geom_bond_atom_site_label_2
_geom_bond_distance
_geom_bond_site_symmetry_2
Cl0 V0 2.498452 1_665
Cl0 V1 2.498452 1_666
Cl0 Cs1 3.621229 1_655
Cl0 Cs1 3.621236 1_555
Cl0 Cs0 3.809509 1_555
Cl0 Cs0 3.809509 1_556
Cl1 V0 2.498447 1_565
Cl1 V1 2.498447 1_565
Cl1 Cs0 3.621230 1_565
Cl1 Cs0 3.621237 1_455
Cl1 Cs1 3.809509 1_555
Cl1 Cs1 3.809509 1_554
Cl2 V1 2.498446 1_665
Cl2 V0 2.498446 1_665
Cl2 Cs0 3.621229 1_565
Cl2 Cs0 3.621244 1_555
Cl2 Cs1 3.809511 1_555
Cl2 Cs1 3.809511 1_554
Cl3 V0 2.498446 1_555
Cl3 V1 2.498446 1_556
Cl3 Cs1 3.621229 1_545
Cl3 Cs1 3.621244 1_555
Cl3 Cs0 3.809511 1_555
Cl3 Cs0 3.809511 1_556
Cl4 V0 2.498452 1_555
Cl4 V1 2.498452 1_555
Cl4 Cs0 3.621229 1_455
Cl4 Cs0 3.621236 1_555
Cl4 Cs1 3.809509 1_555
Cl4 Cs1 3.809509 1_554
Cl5 V0 2.498447 1_655
Cl5 V1 2.498447 1_656
Cl5 Cs1 3.621230 1_545
Cl5 Cs1 3.621237 1_655
Cl5 Cs0 3.809509 1_555
Cl5 Cs0 3.809509 1_556
