# generated using pymatgen
data_LiMo2P3O13
_symmetry_space_group_name_H-M   'P 1'
_cell_length_a   6.46671900
_cell_length_b   7.61805649
_cell_length_c   11.36106060
_cell_angle_alpha   76.30986003
_cell_angle_beta   86.51776050
_cell_angle_gamma   80.04753446
_symmetry_Int_Tables_number   1
_chemical_formula_structural   LiMo2P3O13
_chemical_formula_sum   'Li2 Mo4 P6 O26'
_cell_volume   535.49023852
_cell_formula_units_Z   2
loop_
 _symmetry_equiv_pos_site_id
 _symmetry_equiv_pos_as_xyz
  1  'x, y, z'
loop_
 _atom_site_type_symbol
 _atom_site_label
 _atom_site_symmetry_multiplicity
 _atom_site_fract_x
 _atom_site_fract_y
 _atom_site_fract_z
 _atom_site_occupancy
  Li  Li0  1  0.19648700  0.56911400  0.81509000  1
  Li  Li1  1  0.80351300  0.43088600  0.18491000  1
  Mo  Mo0  1  0.21553400  0.19935200  0.09293200  1
  Mo  Mo1  1  0.23873200  0.19887600  0.59625700  1
  Mo  Mo2  1  0.76126800  0.80112400  0.40374300  1
  Mo  Mo3  1  0.78446600  0.80064800  0.90706800  1
  P  P0  1  0.87845700  0.53113400  0.68699900  1
  P  P1  1  0.73876500  0.20609500  0.66695700  1
  P  P2  1  0.73423900  0.06685300  0.11380200  1
  P  P3  1  0.26576100  0.93314700  0.88619800  1
  P  P4  1  0.12154300  0.46886600  0.31300100  1
  P  P5  1  0.26123500  0.79390500  0.33304300  1
  O  O0  1  0.86608100  0.63041800  0.79053900  1
  O  O1  1  0.92139400  0.21881600  0.57373500  1
  O  O2  1  0.88968900  0.54019700  0.33416200  1
  O  O3  1  0.77530000  0.89640400  0.21828500  1
  O  O4  1  0.13391900  0.36958200  0.20946100  1
  O  O5  1  0.07860600  0.78118400  0.42626500  1
  O  O6  1  0.11031100  0.45980300  0.66583800  1
  O  O7  1  0.22470000  0.10359600  0.78171500  1
  O  O8  1  0.10421700  0.80155600  0.88781000  1
  O  O9  1  0.24231300  0.35426600  0.42423000  1
  O  O10  1  0.24548900  0.63897500  0.25806000  1
  O  O11  1  0.21480300  0.36699900  0.96169000  1
  O  O12  1  0.25703300  0.99167300  0.00735000  1
  O  O13  1  0.24053800  0.97805200  0.24489200  1
  O  O14  1  0.30446900  0.98645300  0.57157300  1
  O  O15  1  0.52131900  0.19063400  0.12814000  1
  O  O16  1  0.52613200  0.26593800  0.60571300  1
  O  O17  1  0.47386800  0.73406200  0.39428700  1
  O  O18  1  0.47868100  0.80936600  0.87186000  1
  O  O19  1  0.69553100  0.01354700  0.42842700  1
  O  O20  1  0.75946200  0.02194800  0.75510800  1
  O  O21  1  0.74296700  0.00832700  0.99265000  1
  O  O22  1  0.78519700  0.63300100  0.03831000  1
  O  O23  1  0.75451100  0.36102500  0.74194000  1
  O  O24  1  0.75768700  0.64573400  0.57577000  1
  O  O25  1  0.89578300  0.19844400  0.11219000  1
loop_
_geom_bond_atom_site_label_1
_geom_bond_atom_site_label_2
_geom_bond_distance
_geom_bond_site_symmetry_2
Li0 O11 1.976318 1_555
Li0 O8 2.107499 1_555
Li0 O0 2.127667 1_455
Li0 O6 2.196099 1_555
Li1 O22 1.976318 1_555
Li1 O25 2.107499 1_555
Li1 O4 2.127667 1_655
Li1 O2 2.196099 1_555
Mo0 O11 1.718062 1_554
Mo0 O12 2.017459 1_545
Mo0 O15 2.027989 1_555
Mo0 O4 2.050411 1_555
Mo0 O25 2.067060 1_455
Mo0 O13 2.100208 1_545
Mo1 O14 1.685417 1_545
Mo1 O16 2.026112 1_555
Mo1 O9 2.032346 1_555
Mo1 O1 2.058505 1_455
Mo1 O7 2.061593 1_555
Mo1 O6 2.314992 1_555
Mo2 O19 1.685417 1_565
Mo2 O17 2.026112 1_555
Mo2 O24 2.032346 1_555
Mo2 O5 2.058505 1_655
Mo2 O3 2.061593 1_555
Mo2 O2 2.314992 1_555
Mo3 O22 1.718062 1_556
Mo3 O21 2.017459 1_565
Mo3 O18 2.027989 1_555
Mo3 O0 2.050411 1_555
Mo3 O8 2.067060 1_655
Mo3 O20 2.100208 1_565
O0 P0 1.533294 1_555
O1 P1 1.537825 1_555
O2 P4 1.528893 1_655
O3 P2 1.534654 1_565
O4 P4 1.533294 1_555
O5 P5 1.537825 1_555
O6 P0 1.528893 1_455
O7 P3 1.534654 1_545
O8 P3 1.564470 1_555
O9 P4 1.526764 1_555
O10 P4 1.620738 1_555
O10 P5 1.630064 1_555
O12 P3 1.539102 1_554
O13 P5 1.508386 1_555
O15 P2 1.551847 1_555
O16 P1 1.527118 1_555
O17 P5 1.527118 1_555
O18 P3 1.551847 1_555
O20 P1 1.508386 1_555
O21 P2 1.539102 1_556
O23 P0 1.620738 1_555
O23 P1 1.630064 1_555
O24 P0 1.526764 1_555
O25 P2 1.564470 1_555
