# generated using pymatgen
data_Ir
_symmetry_space_group_name_H-M   'P 1'
_cell_length_a   5.50275600
_cell_length_b   5.50275558
_cell_length_c   8.92458000
_cell_angle_alpha   90.00000000
_cell_angle_beta   90.00000000
_cell_angle_gamma   120.00000253
_symmetry_Int_Tables_number   1
_chemical_formula_structural   Ir
_chemical_formula_sum   Ir16
_cell_volume   234.03396272
_cell_formula_units_Z   16
loop_
 _symmetry_equiv_pos_site_id
 _symmetry_equiv_pos_as_xyz
  1  'x, y, z'
loop_
 _atom_site_type_symbol
 _atom_site_label
 _atom_site_symmetry_multiplicity
 _atom_site_fract_x
 _atom_site_fract_y
 _atom_site_fract_z
 _atom_site_occupancy
  Ir  Ir0_0  1  0.00000000  0.00000000  0.00000000  1
  Ir  Ir0_1  1  0.00000000  0.00000000  0.50000000  1
  Ir  Ir0_2  1  0.00000000  0.50000000  0.00000000  1
  Ir  Ir0_3  1  0.00000000  0.50000000  0.50000000  1
  Ir  Ir0_4  1  0.50000000  0.00000000  0.00000000  1
  Ir  Ir0_5  1  0.50000000  0.00000000  0.50000000  1
  Ir  Ir0_6  1  0.50000000  0.50000000  0.00000000  1
  Ir  Ir0_7  1  0.50000000  0.50000000  0.50000000  1
  Ir  Ir1_0  1  0.33333350  0.16666650  0.25000000  1
  Ir  Ir1_1  1  0.33333350  0.16666650  0.75000000  1
  Ir  Ir1_2  1  0.33333350  0.66666650  0.25000000  1
  Ir  Ir1_3  1  0.33333350  0.66666650  0.75000000  1
  Ir  Ir1_4  1  0.83333350  0.16666650  0.25000000  1
  Ir  Ir1_5  1  0.83333350  0.16666650  0.75000000  1
  Ir  Ir1_6  1  0.83333350  0.66666650  0.25000000  1
  Ir  Ir1_7  1  0.83333350  0.66666650  0.75000000  1
loop_
_geom_bond_atom_site_label_1
_geom_bond_atom_site_label_2
_geom_bond_distance
_geom_bond_site_symmetry_2
Ir0_0 Ir1_5 2.738862 1_454
Ir0_0 Ir1_4 2.738862 1_455
Ir0_0 Ir1_7 2.738863 1_444
Ir0_0 Ir1_6 2.738863 1_445
Ir0_0 Ir1_1 2.738863 1_554
Ir0_0 Ir1_0 2.738863 1_555
Ir0_0 Ir0_2 2.751378 1_545
Ir0_0 Ir0_2 2.751378 1_555
Ir0_0 Ir0_6 2.751378 1_445
Ir0_0 Ir0_6 2.751378 1_555
Ir0_0 Ir0_4 2.751378 1_455
Ir0_0 Ir0_4 2.751378 1_555
Ir0_1 Ir1_4 2.738862 1_455
Ir0_1 Ir1_5 2.738862 1_455
Ir0_1 Ir1_6 2.738863 1_445
Ir0_1 Ir1_7 2.738863 1_445
Ir0_1 Ir1_0 2.738863 1_555
Ir0_1 Ir1_1 2.738863 1_555
Ir0_1 Ir0_3 2.751378 1_545
Ir0_1 Ir0_7 2.751378 1_555
Ir0_1 Ir0_3 2.751378 1_555
Ir0_1 Ir0_7 2.751378 1_445
Ir0_1 Ir0_5 2.751378 1_555
Ir0_1 Ir0_5 2.751378 1_455
Ir0_2 Ir1_6 2.738862 1_455
Ir0_2 Ir1_7 2.738862 1_454
Ir0_2 Ir1_4 2.738863 1_455
Ir0_2 Ir1_5 2.738863 1_454
Ir0_2 Ir1_2 2.738863 1_555
Ir0_2 Ir1_3 2.738863 1_554
Ir0_2 Ir0_4 2.751378 1_565
Ir0_2 Ir0_4 2.751378 1_455
Ir0_2 Ir0_6 2.751378 1_555
Ir0_2 Ir0_6 2.751378 1_455
Ir0_3 Ir1_6 2.738862 1_455
Ir0_3 Ir1_7 2.738862 1_455
Ir0_3 Ir1_4 2.738863 1_455
Ir0_3 Ir1_5 2.738863 1_455
Ir0_3 Ir1_2 2.738863 1_555
Ir0_3 Ir1_3 2.738863 1_555
Ir0_3 Ir0_5 2.751378 1_565
Ir0_3 Ir0_5 2.751378 1_455
Ir0_3 Ir0_7 2.751378 1_455
Ir0_3 Ir0_7 2.751378 1_555
Ir0_4 Ir1_0 2.738862 1_555
Ir0_4 Ir1_1 2.738862 1_554
Ir0_4 Ir1_3 2.738863 1_544
Ir0_4 Ir1_2 2.738863 1_545
Ir0_4 Ir1_4 2.738863 1_555
Ir0_4 Ir1_5 2.738863 1_554
Ir0_4 Ir0_6 2.751378 1_545
Ir0_4 Ir0_6 2.751378 1_555
Ir0_5 Ir1_0 2.738862 1_555
Ir0_5 Ir1_1 2.738862 1_555
Ir0_5 Ir1_3 2.738863 1_545
Ir0_5 Ir1_2 2.738863 1_545
Ir0_5 Ir1_4 2.738863 1_555
Ir0_5 Ir1_5 2.738863 1_555
Ir0_5 Ir0_7 2.751378 1_545
Ir0_5 Ir0_7 2.751378 1_555
Ir0_6 Ir1_3 2.738862 1_554
Ir0_6 Ir1_2 2.738862 1_555
Ir0_6 Ir1_0 2.738863 1_555
Ir0_6 Ir1_1 2.738863 1_554
Ir0_6 Ir1_6 2.738863 1_555
Ir0_6 Ir1_7 2.738863 1_554
Ir0_7 Ir1_2 2.738862 1_555
Ir0_7 Ir1_3 2.738862 1_555
Ir0_7 Ir1_0 2.738863 1_555
Ir0_7 Ir1_1 2.738863 1_555
Ir0_7 Ir1_6 2.738863 1_555
Ir0_7 Ir1_7 2.738863 1_555
Ir1_0 Ir1_2 2.751378 1_555
Ir1_0 Ir1_2 2.751378 1_545
Ir1_0 Ir1_6 2.751378 1_555
Ir1_0 Ir1_6 2.751378 1_445
Ir1_0 Ir1_4 2.751378 1_555
Ir1_0 Ir1_4 2.751378 1_455
Ir1_1 Ir1_3 2.751378 1_555
Ir1_1 Ir1_3 2.751378 1_545
Ir1_1 Ir1_7 2.751378 1_445
Ir1_1 Ir1_7 2.751378 1_555
Ir1_1 Ir1_5 2.751378 1_555
Ir1_1 Ir1_5 2.751378 1_455
Ir1_2 Ir1_4 2.751378 1_455
Ir1_2 Ir1_4 2.751378 1_565
Ir1_2 Ir1_6 2.751378 1_455
Ir1_2 Ir1_6 2.751378 1_555
Ir1_3 Ir1_5 2.751378 1_455
Ir1_3 Ir1_5 2.751378 1_565
Ir1_3 Ir1_7 2.751378 1_455
Ir1_3 Ir1_7 2.751378 1_555
Ir1_4 Ir1_6 2.751378 1_555
Ir1_4 Ir1_6 2.751378 1_545
Ir1_5 Ir1_7 2.751378 1_555
Ir1_5 Ir1_7 2.751378 1_545
