# generated using pymatgen
data_MgNi4(SbS)4
_symmetry_space_group_name_H-M   'P 1'
_cell_length_a   6.25030434
_cell_length_b   6.25824155
_cell_length_c   6.27450291
_cell_angle_alpha   82.56958123
_cell_angle_beta   97.59105511
_cell_angle_gamma   97.27158381
_symmetry_Int_Tables_number   1
_chemical_formula_structural   MgNi4(SbS)4
_chemical_formula_sum   'Mg1 Ni4 Sb4 S4'
_cell_volume   239.73771008
_cell_formula_units_Z   1
loop_
 _symmetry_equiv_pos_site_id
 _symmetry_equiv_pos_as_xyz
  1  'x, y, z'
loop_
 _atom_site_type_symbol
 _atom_site_label
 _atom_site_symmetry_multiplicity
 _atom_site_fract_x
 _atom_site_fract_y
 _atom_site_fract_z
 _atom_site_occupancy
  Mg  Mg0  1  0.69991749  0.29620798  0.79898020  1
  Ni  Ni0  1  0.51111449  0.96924075  0.47269712  1
  Ni  Ni1  1  0.02784569  0.49144897  0.46829854  1
  Ni  Ni2  1  0.48099080  0.51927322  0.01932289  1
  Ni  Ni3  1  0.02887156  0.97451804  0.99059279  1
  Sb  Sb0  1  0.10336074  0.62463554  0.85961178  1
  Sb  Sb1  1  0.63857199  0.89502199  0.12380232  1
  Sb  Sb2  1  0.92747756  0.07553816  0.57320364  1
  Sb  Sb3  1  0.37893137  0.36149200  0.39501823  1
  S  S0  1  0.83495210  0.43819859  0.14826600  1
  S  S1  1  0.34851923  0.16778999  0.94021714  1
  S  S2  1  0.15092683  0.84920988  0.34869370  1
  S  S3  1  0.56122815  0.64992491  0.66858766  1
loop_
_geom_bond_atom_site_label_1
_geom_bond_atom_site_label_2
_geom_bond_distance
_geom_bond_site_symmetry_2
Mg0 S0 2.475926 1_556
Mg0 S1 2.477570 1_555
Mg0 S3 2.480117 1_555
Mg0 Ni2 2.686113 1_556
Mg0 Sb2 2.733608 1_555
Mg0 Sb3 3.035233 1_555
Mg0 Sb1 3.040367 1_546
Mg0 Sb0 3.060188 1_655
Mg0 Ni3 3.081331 1_645
Mg0 Ni0 3.099179 1_545
Mg0 Ni1 3.135758 1_655
Ni0 S3 2.241364 1_555
Ni0 S2 2.344825 1_555
Ni0 Sb1 2.541684 1_555
Ni0 Sb2 2.617128 1_565
Ni0 Sb3 2.654008 1_565
Ni1 S0 2.242458 1_455
Ni1 S2 2.334490 1_555
Ni1 Sb3 2.550160 1_555
Ni1 Sb2 2.618083 1_455
Ni1 Sb0 2.658863 1_555
Ni2 S1 2.341627 1_554
Ni2 S3 2.342110 1_554
Ni2 S0 2.347691 1_555
Ni2 Sb1 2.563462 1_555
Ni2 Sb3 2.564100 1_555
Ni2 Sb0 2.570641 1_554
Ni3 S1 2.238462 1_565
Ni3 S2 2.342730 1_556
Ni3 Sb0 2.551736 1_555
Ni3 Sb2 2.625774 1_465
Ni3 Sb1 2.649746 1_456
S0 Sb0 2.686412 1_654
S1 Sb1 2.692706 1_546
S2 Sb2 2.734565 1_465
S3 Sb3 2.695738 1_555
