# generated using pymatgen
data_KNO3
_symmetry_space_group_name_H-M   'P 1'
_cell_length_a   4.28721794
_cell_length_b   5.43803578
_cell_length_c   6.91995273
_cell_angle_alpha   90.27841430
_cell_angle_beta   67.71343635
_cell_angle_gamma   89.86846056
_symmetry_Int_Tables_number   1
_chemical_formula_structural   KNO3
_chemical_formula_sum   'K2 N2 O6'
_cell_volume   149.27711069
_cell_formula_units_Z   2
loop_
 _symmetry_equiv_pos_site_id
 _symmetry_equiv_pos_as_xyz
  1  'x, y, z'
loop_
 _atom_site_type_symbol
 _atom_site_label
 _atom_site_symmetry_multiplicity
 _atom_site_fract_x
 _atom_site_fract_y
 _atom_site_fract_z
 _atom_site_occupancy
  K  K0  1  0.96450864  0.99996985  0.01551101  1
  K  K1  1  0.47582474  0.49998309  0.51431125  1
  N  N0  1  0.59450648  0.49942316  0.95150134  1
  N  N1  1  0.10532628  0.00048550  0.44857867  1
  O  O0  1  0.24179742  1.00069755  0.58115856  1
  O  O1  1  0.73271922  0.49992234  0.08309772  1
  O  O2  1  0.03638702  0.79967619  0.38240336  1
  O  O3  1  0.52781509  0.70015464  0.88462161  1
  O  O4  1  0.53227090  0.29844848  0.88202511  1
  O  O5  1  0.04684520  0.20124020  0.37779237  1
loop_
_geom_bond_atom_site_label_1
_geom_bond_atom_site_label_2
_geom_bond_distance
_geom_bond_site_symmetry_2
K0 O3 2.760324 1_654
K0 O0 2.781626 1_654
K0 O4 2.782102 1_664
K0 O1 2.867162 1_565
K0 O4 2.867206 1_564
K0 O5 2.872941 1_665
K0 O3 2.875689 1_554
K0 O1 2.876275 1_555
K0 O2 2.888940 1_655
K1 O1 2.761234 1_555
K1 O2 2.762872 1_655
K1 O5 2.781641 1_655
K1 O3 2.865029 1_555
K1 O4 2.868346 1_555
K1 O5 2.868922 1_555
K1 O0 2.873680 1_555
K1 O0 2.874940 1_545
K1 O2 2.888473 1_555
N0 O1 1.260811 1_556
N0 O4 1.261075 1_555
N0 O3 1.261483 1_555
N1 O2 1.260482 1_545
N1 O0 1.261412 1_545
N1 O5 1.261637 1_555
