# generated using pymatgen
data_Li2CuPO4
_symmetry_space_group_name_H-M   'P 1'
_cell_length_a   10.91697800
_cell_length_b   5.16589400
_cell_length_c   7.97171787
_cell_angle_alpha   50.29179600
_cell_angle_beta   90.00000000
_cell_angle_gamma   90.00000000
_symmetry_Int_Tables_number   1
_chemical_formula_structural   Li2CuPO4
_chemical_formula_sum   'Li8 Cu4 P4 O16'
_cell_volume   345.85984438
_cell_formula_units_Z   4
loop_
 _symmetry_equiv_pos_site_id
 _symmetry_equiv_pos_as_xyz
  1  'x, y, z'
loop_
 _atom_site_type_symbol
 _atom_site_label
 _atom_site_symmetry_multiplicity
 _atom_site_fract_x
 _atom_site_fract_y
 _atom_site_fract_z
 _atom_site_occupancy
  Li  Li0  1  0.83551300  0.69765600  0.99864100  1
  Li  Li1  1  0.07251200  0.44545900  0.25594500  1
  Li  Li2  1  0.57251200  0.55454100  0.24405500  1
  Li  Li3  1  0.33551300  0.30234400  0.50135900  1
  Li  Li4  1  0.16448700  0.30234400  0.00135900  1
  Li  Li5  1  0.92748800  0.55454100  0.74405500  1
  Li  Li6  1  0.42748800  0.44545900  0.75594500  1
  Li  Li7  1  0.66448700  0.69765600  0.49864100  1
  Cu  Cu0  1  0.82896400  0.21379700  0.49900100  1
  Cu  Cu1  1  0.17103600  0.78620300  0.50099900  1
  Cu  Cu2  1  0.32896400  0.78620300  0.00099900  1
  Cu  Cu3  1  0.67103600  0.21379700  0.99900100  1
  P  P0  1  0.08749900  0.04932200  0.75325700  1
  P  P1  1  0.58749900  0.95067800  0.74674300  1
  P  P2  1  0.41250100  0.04932200  0.25325700  1
  P  P3  1  0.91250100  0.95067800  0.24674300  1
  O  O0  1  0.04424900  0.06356900  0.24896900  1
  O  O1  1  0.91806700  0.66066400  0.23465400  1
  O  O2  1  0.84751100  0.26532000  0.03806300  1
  O  O3  1  0.45575100  0.06356900  0.74896900  1
  O  O4  1  0.65910300  0.82669400  0.95534100  1
  O  O5  1  0.54424900  0.93643100  0.25103100  1
  O  O6  1  0.08193300  0.33933600  0.76534600  1
  O  O7  1  0.95575100  0.93643100  0.75103100  1
  O  O8  1  0.15248900  0.73468000  0.96193700  1
  O  O9  1  0.58193300  0.66066400  0.73465400  1
  O  O10  1  0.65248900  0.26532000  0.53806300  1
  O  O11  1  0.15910300  0.17330600  0.54465900  1
  O  O12  1  0.84089700  0.82669400  0.45534100  1
  O  O13  1  0.34751100  0.73468000  0.46193700  1
  O  O14  1  0.41806700  0.33933600  0.26534600  1
  O  O15  1  0.34089700  0.17330600  0.04465900  1
loop_
_geom_bond_atom_site_label_1
_geom_bond_atom_site_label_2
_geom_bond_distance
_geom_bond_site_symmetry_2
Li0 O1 1.982203 1_556
Li0 O4 1.994605 1_555
Li0 O7 2.007405 1_555
Li0 O2 2.051141 1_556
Li1 O1 1.966338 1_455
Li1 O8 2.003340 1_554
Li1 O11 2.008181 1_555
Li1 O0 2.032345 1_555
Li2 O14 1.966338 1_555
Li2 O10 2.003340 1_555
Li2 O4 2.008181 1_554
Li2 O5 2.032345 1_555
Li3 O14 1.982203 1_555
Li3 O11 1.994605 1_555
Li3 O3 2.007405 1_555
Li3 O13 2.051141 1_555
Li4 O6 1.982203 1_554
Li4 O15 1.994605 1_555
Li4 O0 2.007405 1_555
Li4 O8 2.051141 1_554
Li5 O6 1.966338 1_655
Li5 O2 2.003340 1_556
Li5 O12 2.008181 1_555
Li5 O7 2.032345 1_555
Li6 O9 1.966338 1_555
Li6 O13 2.003340 1_555
Li6 O15 2.008181 1_556
Li6 O3 2.032345 1_555
Li7 O9 1.982203 1_555
Li7 O12 1.994605 1_555
Li7 O5 2.007405 1_555
Li7 O10 2.051141 1_555
Cu0 O10 1.996345 1_555
Cu0 O7 2.080158 1_545
Cu0 O1 2.121352 1_555
Cu0 O12 2.241953 1_545
Cu1 O13 1.996345 1_555
Cu1 O0 2.080158 1_565
Cu1 O6 2.121352 1_555
Cu1 O11 2.241953 1_565
Cu2 O8 1.996345 1_554
Cu2 O3 2.080158 1_564
Cu2 O14 2.121352 1_555
Cu2 O15 2.241953 1_565
Cu3 O2 1.996345 1_556
Cu3 O5 2.080158 1_546
Cu3 O9 2.121352 1_555
Cu3 O4 2.241953 1_545
O0 P3 1.556380 1_445
O1 P3 1.562693 1_555
O2 P3 1.567715 1_545
O3 P1 1.556380 1_545
O4 P1 1.557427 1_555
O5 P2 1.556380 1_565
O6 P0 1.562693 1_555
O7 P0 1.556380 1_665
O8 P0 1.567715 1_565
O9 P1 1.562693 1_555
O10 P1 1.567715 1_545
O11 P0 1.557427 1_555
O12 P3 1.557427 1_555
O13 P2 1.567715 1_565
O14 P2 1.562693 1_555
O15 P2 1.557427 1_555
