# generated using pymatgen
data_MgTi8(NiO3)8
_symmetry_space_group_name_H-M   'P 1'
_cell_length_a   5.60230421
_cell_length_b   11.36359179
_cell_length_c   11.00591115
_cell_angle_alpha   54.64717001
_cell_angle_beta   55.54605683
_cell_angle_gamma   54.19531307
_symmetry_Int_Tables_number   1
_chemical_formula_structural   MgTi8(NiO3)8
_chemical_formula_sum   'Mg1 Ti8 Ni8 O24'
_cell_volume   435.25742527
_cell_formula_units_Z   1
loop_
 _symmetry_equiv_pos_site_id
 _symmetry_equiv_pos_as_xyz
  1  'x, y, z'
loop_
 _atom_site_type_symbol
 _atom_site_label
 _atom_site_symmetry_multiplicity
 _atom_site_fract_x
 _atom_site_fract_y
 _atom_site_fract_z
 _atom_site_occupancy
  Mg  Mg0  1  0.40415700  0.40541400  0.83691100  1
  Ti  Ti0  1  0.32631100  0.18057900  0.17891600  1
  Ti  Ti1  1  0.14963800  0.05448800  0.58529700  1
  Ti  Ti2  1  0.10572700  0.58674900  0.08426200  1
  Ti  Ti3  1  0.15246400  0.57842500  0.56194900  1
  Ti  Ti4  1  0.87163100  0.42156000  0.42754700  1
  Ti  Ti5  1  0.79010900  0.44934300  0.92798400  1
  Ti  Ti6  1  0.87446300  0.92968600  0.40833700  1
  Ti  Ti7  1  0.79656000  0.93006400  0.94019800  1
  Ni  Ni0  1  0.11648900  0.07967200  0.07547500  1
  Ni  Ni1  1  0.32260500  0.68416800  0.17737100  1
  Ni  Ni2  1  0.45871400  0.14638100  0.64967400  1
  Ni  Ni3  1  0.63867600  0.33287400  0.32377100  1
  Ni  Ni4  1  0.35557400  0.69394900  0.65796500  1
  Ni  Ni5  1  0.94103300  0.23638400  0.80969400  1
  Ni  Ni6  1  0.64948100  0.82651900  0.32265600  1
  Ni  Ni7  1  0.62425800  0.82013500  0.83143400  1
  O  O0  1  0.05604400  0.38117900  0.21392100  1
  O  O1  1  0.42359700  0.03878700  0.37247000  1
  O  O2  1  0.68109900  0.23396800  0.03042100  1
  O  O3  1  0.23157500  0.28358700  0.48084900  1
  O  O4  1  0.53040700  0.48175700  0.12048300  1
  O  O5  1  0.05999400  0.40390400  0.71872000  1
  O  O6  1  0.03229900  0.88140400  0.22815800  1
  O  O7  1  0.93089000  0.11818700  0.29279000  1
  O  O8  1  0.44171200  0.01945400  0.87426600  1
  O  O9  1  0.43443400  0.52748100  0.38224100  1
  O  O10  1  0.79720800  0.22206200  0.51456400  1
  O  O11  1  0.73741200  0.72369800  0.03297000  1
  O  O12  1  0.14811000  0.28604400  0.99875500  1
  O  O13  1  0.22803300  0.78513700  0.46874800  1
  O  O14  1  0.55954500  0.48801900  0.60489900  1
  O  O15  1  0.53996400  0.98619400  0.11776800  1
  O  O16  1  0.04149100  0.88565100  0.70791400  1
  O  O17  1  0.92883600  0.09420900  0.78143500  1
  O  O18  1  0.92576200  0.61837400  0.28527200  1
  O  O19  1  0.41177100  0.55004600  0.88017000  1
  O  O20  1  0.76886400  0.72449100  0.52428900  1
  O  O21  1  0.19489600  0.78306600  0.97865700  1
  O  O22  1  0.55587200  0.96539400  0.61178600  1
  O  O23  1  0.95280100  0.60795000  0.79450100  1
loop_
_geom_bond_atom_site_label_1
_geom_bond_atom_site_label_2
_geom_bond_distance
_geom_bond_site_symmetry_2
Mg0 O12 1.913117 1_555
Mg0 O14 1.956138 1_555
Mg0 O19 1.985005 1_555
Mg0 O23 2.278561 1_455
Mg0 Ni5 2.390068 1_555
Mg0 O2 2.477732 1_556
Ni0 O6 2.021812 1_545
Ni0 O12 2.066234 1_554
Ni0 O8 2.102709 1_554
Ni0 O2 2.151318 1_455
Ni0 O15 2.168446 1_545
Ni0 O7 2.204128 1_455
Ni1 O6 2.033982 1_555
Ni1 O9 2.072221 1_555
Ni1 O11 2.084307 1_555
Ni1 O21 2.131524 1_554
Ni1 O4 2.178660 1_555
Ni1 O18 2.200474 1_455
Ni2 O10 1.945399 1_555
Ni2 O8 1.991983 1_555
Ni2 O22 2.031212 1_545
Ni2 O3 2.122275 1_555
Ni3 O4 2.047070 1_555
Ni3 O7 2.099061 1_555
Ni3 O3 2.101622 1_555
Ni3 O9 2.113487 1_555
Ni3 O10 2.127337 1_555
Ni3 O0 2.182987 1_655
Ni4 O16 1.987532 1_555
Ni4 O20 2.034928 1_555
Ni4 O13 2.059432 1_555
Ni4 O19 2.096406 1_555
Ni4 O14 2.195597 1_555
Ni4 O23 2.312753 1_455
Ni5 O17 1.856428 1_555
Ni5 O5 1.895834 1_655
Ni5 O2 1.997421 1_556
Ni6 O18 2.069202 1_555
Ni6 O15 2.069224 1_555
Ni6 O6 2.088265 1_655
Ni6 O13 2.123612 1_555
Ni6 O20 2.123877 1_555
Ni6 O1 2.212272 1_565
Ni7 O8 2.092390 1_565
Ni7 O22 2.098976 1_555
Ni7 O23 2.112294 1_555
Ni7 O11 2.118480 1_556
Ni7 O21 2.138829 1_555
Ni7 O16 2.266179 1_655
O0 Ti0 1.988748 1_555
O0 Ti2 2.006123 1_555
O0 Ti4 2.179723 1_455
O1 Ti0 1.935280 1_555
O1 Ti1 1.992372 1_555
O1 Ti6 2.229526 1_545
O2 Ti0 1.891486 1_555
O2 Ti5 2.326081 1_554
O3 Ti4 1.855684 1_455
O3 Ti1 2.376503 1_555
O4 Ti5 1.878655 1_554
O4 Ti2 2.108174 1_555
O5 Ti3 1.846446 1_555
O5 Ti5 2.092775 1_455
O6 Ti6 1.929431 1_455
O7 Ti6 1.868323 1_545
O7 Ti0 2.156112 1_655
O8 Ti7 1.981639 1_545
O9 Ti3 1.860710 1_555
O9 Ti4 2.221364 1_555
O10 Ti1 1.937797 1_655
O10 Ti4 2.090945 1_555
O11 Ti2 1.882116 1_655
O11 Ti7 2.099325 1_554
O12 Ti5 1.952702 1_455
O12 Ti0 2.110582 1_556
O13 Ti6 1.866325 1_455
O13 Ti3 2.152455 1_555
O14 Ti4 1.933055 1_555
O14 Ti3 2.096768 1_555
O15 Ti7 1.866439 1_554
O15 Ti0 2.116644 1_565
O16 Ti1 1.818787 1_565
O16 Ti7 2.320958 1_455
O17 Ti7 1.860672 1_545
O17 Ti1 1.961292 1_655
O18 Ti4 1.936361 1_555
O18 Ti2 2.003061 1_655
O19 Ti5 1.950952 1_555
O19 Ti2 2.012194 1_556
O20 Ti3 1.892970 1_655
O20 Ti6 2.175295 1_555
O21 Ti7 1.959203 1_455
O21 Ti2 2.055151 1_556
O22 Ti1 2.000676 1_565
O22 Ti6 2.011491 1_555
O23 Ti5 1.892181 1_555
O23 Ti3 2.286874 1_655
