# generated using pymatgen
data_Na8Mg3Sn(PO4)6
_symmetry_space_group_name_H-M   'P 1'
_cell_length_a   9.02406112
_cell_length_b   9.02406081
_cell_length_c   22.00789700
_cell_angle_alpha   90.00000000
_cell_angle_beta   90.00000000
_cell_angle_gamma   120.00000113
_symmetry_Int_Tables_number   1
_chemical_formula_structural   Na8Mg3Sn(PO4)6
_chemical_formula_sum   'Na24 Mg9 Sn3 P18 O72'
_cell_volume   1552.07682068
_cell_formula_units_Z   3
loop_
 _symmetry_equiv_pos_site_id
 _symmetry_equiv_pos_as_xyz
  1  'x, y, z'
loop_
 _atom_site_type_symbol
 _atom_site_label
 _atom_site_symmetry_multiplicity
 _atom_site_fract_x
 _atom_site_fract_y
 _atom_site_fract_z
 _atom_site_occupancy
  Na  Na0  1  0.63486920  0.99916911  0.25248236  1
  Na  Na1  1  0.36429991  0.36513080  0.25248236  1
  Na  Na2  1  0.00083089  0.63570009  0.25248236  1
  Na  Na3  1  0.64343140  0.63401086  0.74267567  1
  Na  Na4  1  0.99057946  0.35656860  0.74267567  1
  Na  Na5  1  0.36598914  0.00942054  0.74267567  1
  Na  Na6  1  0.29656419  0.33333468  0.58089382  1
  Na  Na7  1  0.03677149  0.70343581  0.58089382  1
  Na  Na8  1  0.66666532  0.96322851  0.58089382  1
  Na  Na9  1  0.29667944  0.96497831  0.09235845  1
  Na  Na10  1  0.66829987  0.70332056  0.09235845  1
  Na  Na11  1  0.03502169  0.33170013  0.09235845  1
  Na  Na12  1  0.97170363  0.67643089  0.91594939  1
  Na  Na13  1  0.70472626  0.02829637  0.91594939  1
  Na  Na14  1  0.32356911  0.29527374  0.91594939  1
  Na  Na15  1  0.97695326  0.30003714  0.40880243  1
  Na  Na16  1  0.32308288  0.02304674  0.40880243  1
  Na  Na17  1  0.69996286  0.67691712  0.40880243  1
  Na  Na18  1  -0.00000000  0.00000000  0.49669718  1
  Na  Na19  1  -0.00000000  0.00000000  0.00566652  1
  Na  Na20  1  0.66666700  0.33333300  0.82760654  1
  Na  Na21  1  0.66666700  0.33333300  0.32669385  1
  Na  Na22  1  0.33333300  0.66666700  0.17315579  1
  Na  Na23  1  0.33333300  0.66666700  0.65899984  1
  Mg  Mg0  1  -0.00000000  0.00000000  0.34687955  1
  Mg  Mg1  1  -0.00000000  0.00000000  0.84840299  1
  Mg  Mg2  1  -0.00000000  0.00000000  0.64957308  1
  Mg  Mg3  1  -0.00000000  0.00000000  0.15465776  1
  Mg  Mg4  1  0.66666700  0.33333300  0.68244232  1
  Mg  Mg5  1  0.66666700  0.33333300  0.18574657  1
  Mg  Mg6  1  0.33333300  0.66666700  0.02016347  1
  Mg  Mg7  1  0.33333300  0.66666700  0.51466504  1
  Mg  Mg8  1  0.33333300  0.66666700  0.31647999  1
  Sn  Sn0  1  0.66666700  0.33333300  0.98670208  1
  Sn  Sn1  1  0.66666700  0.33333300  0.48359573  1
  Sn  Sn2  1  0.33333300  0.66666700  0.81701454  1
  P  P0  1  0.29646940  0.99927332  0.24973750  1
  P  P1  1  0.70280392  0.70353060  0.24973750  1
  P  P2  1  0.00072668  0.29719608  0.24973750  1
  P  P3  1  0.29497210  0.29513459  0.75163194  1
  P  P4  1  0.00016248  0.70502790  0.75163194  1
  P  P5  1  0.70486541  0.99983752  0.75163194  1
  P  P6  1  0.96407891  0.33337418  0.58593905  1
  P  P7  1  0.36929626  0.03592109  0.58593905  1
  P  P8  1  0.66662582  0.63070374  0.58593905  1
  P  P9  1  0.96433305  0.63118846  0.08390303  1
  P  P10  1  0.66685641  0.03566695  0.08390303  1
  P  P11  1  0.36881154  0.33314359  0.08390303  1
  P  P12  1  0.62904715  0.66603525  0.91860644  1
  P  P13  1  0.03698710  0.37095285  0.91860644  1
  P  P14  1  0.33396475  0.96301290  0.91860644  1
  P  P15  1  0.62872248  0.96147816  0.41820184  1
  P  P16  1  0.33275468  0.37127752  0.41820184  1
  P  P17  1  0.03852184  0.66724532  0.41820184  1
  O  O0  1  0.21312889  0.02720142  0.30644448  1
  O  O1  1  0.81407253  0.78687111  0.30644448  1
  O  O2  1  0.97279858  0.18592747  0.30644448  1
  O  O3  1  0.21442791  0.19169519  0.80954982  1
  O  O4  1  0.97726728  0.78557209  0.80954982  1
  O  O5  1  0.80830481  0.02273272  0.80954982  1
  O  O6  1  0.78291302  0.96568820  0.69535617  1
  O  O7  1  0.18277518  0.21708698  0.69535617  1
  O  O8  1  0.03431180  0.81722482  0.69535617  1
  O  O9  1  0.78406785  0.81299757  0.19209893  1
  O  O10  1  0.02892972  0.21593215  0.19209893  1
  O  O11  1  0.18700243  0.97107028  0.19209893  1
  O  O12  1  0.87806919  0.36161541  0.64110248  1
  O  O13  1  0.48354722  0.12193081  0.64110248  1
  O  O14  1  0.63838459  0.51645278  0.64110248  1
  O  O15  1  0.87139257  0.50991286  0.13585385  1
  O  O16  1  0.63852129  0.12860743  0.13585385  1
  O  O17  1  0.49008714  0.36147871  0.13585385  1
  O  O18  1  0.44375631  0.29684269  0.02203354  1
  O  O19  1  0.85308738  0.55624369  0.02203354  1
  O  O20  1  0.70315731  0.14691262  0.02203354  1
  O  O21  1  0.45124287  0.15204537  0.52726596  1
  O  O22  1  0.70080350  0.54875713  0.52726596  1
  O  O23  1  0.84795463  0.29919650  0.52726596  1
  O  O24  1  0.54054339  0.69120792  0.97255743  1
  O  O25  1  0.15066353  0.45945661  0.97255743  1
  O  O26  1  0.30879208  0.84933647  0.97255743  1
  O  O27  1  0.54820046  0.85816487  0.47614547  1
  O  O28  1  0.30996341  0.45179954  0.47614547  1
  O  O29  1  0.14183513  0.69003659  0.47614547  1
  O  O30  1  0.11615348  0.63265284  0.36207481  1
  O  O31  1  0.51649837  0.88384652  0.36207481  1
  O  O32  1  0.36734716  0.48350163  0.36207481  1
  O  O33  1  0.11150885  0.48428662  0.85929842  1
  O  O34  1  0.37277677  0.88849115  0.85929842  1
  O  O35  1  0.51571338  0.62722323  0.85929842  1
  O  O36  1  0.01217062  0.82298916  0.41296591  1
  O  O37  1  0.81081854  0.98782938  0.41296591  1
  O  O38  1  0.17701084  0.18918146  0.41296591  1
  O  O39  1  0.01498899  0.19190821  0.91132884  1
  O  O40  1  0.17691922  0.98501101  0.91132884  1
  O  O41  1  0.80809179  0.82308078  0.91132884  1
  O  O42  1  0.97938471  0.17131553  0.58908739  1
  O  O43  1  0.19193081  0.02061529  0.58908739  1
  O  O44  1  0.82868447  0.80806919  0.58908739  1
  O  O45  1  0.98071930  0.80902688  0.08662682  1
  O  O46  1  0.82830758  0.01928070  0.08662682  1
  O  O47  1  0.19097312  0.17169242  0.08662682  1
  O  O48  1  0.67905606  0.15615347  0.74652252  1
  O  O49  1  0.47709840  0.32094394  0.74652252  1
  O  O50  1  0.84384653  0.52290160  0.74652252  1
  O  O51  1  0.68424810  0.52270554  0.24469970  1
  O  O52  1  0.83845845  0.31575190  0.24469970  1
  O  O53  1  0.47729446  0.16154155  0.24469970  1
  O  O54  1  0.64469584  0.49877644  0.92101945  1
  O  O55  1  0.85408160  0.35530416  0.92101945  1
  O  O56  1  0.50122356  0.14591840  0.92101945  1
  O  O57  1  0.64642742  0.14815973  0.42219119  1
  O  O58  1  0.50173331  0.35357258  0.42219119  1
  O  O59  1  0.85184027  0.49826669  0.42219119  1
  O  O60  1  0.35449568  0.49538436  0.07675982  1
  O  O61  1  0.14088768  0.64550432  0.07675982  1
  O  O62  1  0.50461564  0.85911232  0.07675982  1
  O  O63  1  0.35377064  0.85871029  0.57898669  1
  O  O64  1  0.50493865  0.64622936  0.57898669  1
  O  O65  1  0.14128971  0.49506135  0.57898669  1
  O  O66  1  0.31552067  0.83758869  0.25490584  1
  O  O67  1  0.52206702  0.68447933  0.25490584  1
  O  O68  1  0.16241131  0.47793298  0.25490584  1
  O  O69  1  0.31259625  0.48135949  0.75556159  1
  O  O70  1  0.16876224  0.68740375  0.75556159  1
  O  O71  1  0.51864051  0.83123776  0.75556159  1
loop_
_geom_bond_atom_site_label_1
_geom_bond_atom_site_label_2
_geom_bond_distance
_geom_bond_site_symmetry_2
Na0 O67 2.492524 1_555
Na0 O66 2.496359 1_555
Na0 O53 2.506361 1_565
Na0 O52 2.513499 1_565
Na0 O31 2.632423 1_555
Na0 O16 2.813388 1_565
Na0 O2 2.900125 1_565
Na0 O9 2.943326 1_555
Na1 O68 2.492532 1_555
Na1 O67 2.496359 1_555
Na1 O51 2.506369 1_555
Na1 O53 2.513506 1_555
Na1 O32 2.632425 1_555
Na1 O17 2.813391 1_555
Na1 O0 2.900125 1_555
Na1 O10 2.943326 1_555
Na2 O66 2.492525 1_555
Na2 O68 2.496351 1_555
Na2 O52 2.506369 1_455
Na2 O51 2.513498 1_455
Na2 O30 2.632421 1_555
Na2 O15 2.813389 1_455
Na2 O1 2.900125 1_455
Na2 O11 2.943325 1_555
Na3 O49 2.449700 1_555
Na3 O14 2.465002 1_555
Na3 O50 2.469157 1_555
Na3 O71 2.553521 1_555
Na3 O69 2.603555 1_555
Na3 O35 2.801614 1_555
Na3 O6 2.803564 1_555
Na4 O50 2.449692 1_555
Na4 O12 2.464998 1_555
Na4 O48 2.469150 1_555
Na4 O69 2.553513 1_655
Na4 O70 2.603555 1_655
Na4 O33 2.801612 1_655
Na4 O7 2.803564 1_655
Na5 O48 2.449700 1_555
Na5 O13 2.465000 1_555
Na5 O49 2.469148 1_555
Na5 O70 2.553514 1_545
Na5 O71 2.603547 1_545
Na5 O34 2.801610 1_545
Na5 O8 2.803564 1_545
Na6 O65 2.477911 1_555
Na6 O42 2.485522 1_455
Na6 O64 2.490140 1_555
Na6 O43 2.494626 1_555
Na6 O28 2.518444 1_555
Na6 O7 2.724595 1_555
Na6 O21 2.881183 1_555
Na6 O14 2.983964 1_555
Na7 O63 2.477896 1_555
Na7 O43 2.485522 1_565
Na7 O65 2.490126 1_555
Na7 O44 2.494635 1_455
Na7 O29 2.518436 1_555
Na7 O8 2.724596 1_555
Na7 O22 2.881183 1_455
Na7 O12 2.983964 1_455
Na8 O64 2.477896 1_555
Na8 O44 2.485514 1_555
Na8 O63 2.490143 1_555
Na8 O42 2.494628 1_565
Na8 O27 2.518441 1_555
Na8 O6 2.724593 1_555
Na8 O23 2.881182 1_565
Na8 O13 2.983964 1_565
Na9 O11 2.419787 1_555
Na9 O45 2.472537 1_455
Na9 O47 2.486959 1_565
Na9 O62 2.518758 1_555
Na9 O61 2.520452 1_555
Na9 O16 2.838599 1_565
Na9 O26 2.857713 1_554
Na10 O9 2.419785 1_555
Na10 O46 2.472537 1_565
Na10 O45 2.486950 1_555
Na10 O60 2.518772 1_555
Na10 O62 2.520468 1_555
Na10 O17 2.838599 1_555
Na10 O24 2.857720 1_554
Na11 O10 2.419783 1_555
Na11 O47 2.472529 1_555
Na11 O46 2.486952 1_455
Na11 O61 2.518775 1_555
Na11 O60 2.520453 1_555
Na11 O15 2.838599 1_455
Na11 O25 2.857717 1_554
Na12 O41 2.428054 1_555
Na12 O40 2.457076 1_655
Na12 O4 2.531073 1_555
Na12 O55 2.541817 1_555
Na12 O54 2.561208 1_555
Na12 O19 2.571362 1_556
Na12 O33 2.887925 1_655
Na12 O26 2.914365 1_655
Na13 O39 2.428061 1_655
Na13 O41 2.457082 1_545
Na13 O5 2.531076 1_555
Na13 O56 2.541801 1_555
Na13 O55 2.561207 1_555
Na13 O20 2.571359 1_556
Na13 O34 2.887925 1_545
Na13 O24 2.914365 1_545
Na14 O40 2.428062 1_545
Na14 O39 2.457074 1_555
Na14 O3 2.531074 1_555
Na14 O54 2.541815 1_555
Na14 O56 2.561223 1_555
Na14 O18 2.571366 1_556
Na14 O35 2.887925 1_555
Na14 O25 2.914365 1_555
Na15 O37 2.443321 1_545
Na15 O38 2.464620 1_655
Na15 O2 2.469358 1_555
Na15 O59 2.565366 1_555
Na15 O57 2.602638 1_555
Na15 O30 2.806127 1_655
Na15 O23 2.853678 1_555
Na16 O38 2.443314 1_555
Na16 O36 2.464613 1_545
Na16 O0 2.469354 1_555
Na16 O57 2.565383 1_555
Na16 O58 2.602638 1_555
Na16 O31 2.806127 1_545
Na16 O21 2.853682 1_555
Na17 O36 2.443322 1_655
Na17 O37 2.464612 1_555
Na17 O1 2.469356 1_555
Na17 O58 2.565380 1_555
Na17 O59 2.602654 1_555
Na17 O32 2.806127 1_555
Na17 O22 2.853686 1_555
Na18 O38 2.476847 1_555
Na18 O36 2.476847 1_545
Na18 O37 2.476847 1_445
Na18 O44 2.616596 1_445
Na18 O43 2.616596 1_555
Na18 O42 2.616596 1_455
Na19 O45 2.423853 1_445
Na19 O47 2.423853 1_555
Na19 O46 2.423853 1_455
Na19 O39 2.663391 1_554
Na19 O41 2.663391 1_444
Na19 O40 2.663391 1_544
Na20 O48 2.435583 1_555
Na20 O50 2.435584 1_555
Na20 O49 2.435584 1_555
Na20 O56 2.605895 1_555
Na20 O54 2.605895 1_555
Na20 O55 2.605895 1_555
Na21 O51 2.435304 1_555
Na21 O53 2.435304 1_555
Na21 O52 2.435304 1_555
Na21 O57 2.633928 1_555
Na21 O59 2.633928 1_555
Na21 O58 2.633928 1_555
Na22 O68 2.426873 1_555
Na22 O66 2.426873 1_555
Na22 O67 2.426873 1_555
Na22 O62 2.687262 1_555
Na22 O60 2.687262 1_555
Na22 O61 2.687262 1_555
Na23 O63 2.412170 1_555
Na23 O65 2.412170 1_555
Na23 O64 2.412170 1_555
Na23 O69 2.652277 1_555
Na23 O71 2.652277 1_555
Na23 O70 2.652277 1_555
Mg0 O1 2.019676 1_445
Mg0 O2 2.019676 1_455
Mg0 O0 2.019676 1_555
Mg0 O38 2.203268 1_555
Mg0 O36 2.203268 1_545
Mg0 O37 2.203268 1_445
Mg1 O4 2.029915 1_445
Mg1 O3 2.029915 1_555
Mg1 O5 2.029915 1_455
Mg1 O39 2.168180 1_555
Mg1 O41 2.168180 1_445
Mg1 O40 2.168180 1_545
Mg2 O7 2.083805 1_555
Mg2 O8 2.083805 1_545
Mg2 O6 2.083805 1_445
Mg2 O44 2.117593 1_445
Mg2 O43 2.117593 1_555
Mg2 O42 2.117593 1_455
Mg3 O10 2.008833 1_555
Mg3 O9 2.008833 1_445
Mg3 O11 2.008833 1_545
Mg3 O45 2.223068 1_445
Mg3 O47 2.223068 1_555
Mg3 O46 2.223068 1_455
Mg4 O13 2.011302 1_555
Mg4 O14 2.011302 1_555
Mg4 O12 2.011302 1_555
Mg4 O48 2.176357 1_555
Mg4 O50 2.176357 1_555
Mg4 O49 2.176357 1_555
Mg5 O16 2.052815 1_555
Mg5 O15 2.052815 1_555
Mg5 O17 2.052815 1_555
Mg5 O51 2.087524 1_555
Mg5 O53 2.087524 1_555
Mg5 O52 2.087524 1_555
Mg6 O25 2.056474 1_554
Mg6 O26 2.056474 1_554
Mg6 O24 2.056474 1_554
Mg6 O62 2.066922 1_555
Mg6 O60 2.066922 1_555
Mg6 O61 2.066922 1_555
Mg7 O28 2.028263 1_555
Mg7 O27 2.028263 1_555
Mg7 O29 2.028263 1_555
Mg7 O63 2.172924 1_555
Mg7 O65 2.172924 1_555
Mg7 O64 2.172924 1_555
Mg8 O31 2.083394 1_555
Mg8 O30 2.083394 1_555
Mg8 O32 2.083394 1_555
Mg8 O68 2.118756 1_555
Mg8 O66 2.118756 1_555
Mg8 O67 2.118756 1_555
O0 P0 1.541484 1_545
O1 P1 1.541484 1_555
O2 P2 1.541484 1_655
O3 P3 1.531627 1_555
O4 P4 1.531627 1_655
O5 P5 1.531627 1_545
O6 P5 1.530349 1_555
O7 P3 1.530349 1_555
O8 P4 1.530349 1_555
O9 P1 1.548640 1_555
O10 P2 1.548640 1_555
O11 P0 1.548640 1_555
O12 P6 1.529393 1_555
O13 P7 1.529393 1_555
O14 P8 1.529393 1_555
O15 P9 1.513424 1_555
O16 P10 1.513424 1_555
O17 P11 1.513424 1_555
O18 P11 1.624884 1_555
O18 Sn0 2.024113 1_554
O19 P9 1.624884 1_555
O19 Sn0 2.024113 1_554
O20 P10 1.624884 1_555
O20 Sn0 2.024113 1_554
O21 P7 1.592930 1_555
O21 Sn1 2.049116 1_555
O22 P8 1.592931 1_555
O22 Sn1 2.049116 1_555
O23 P6 1.592930 1_555
O23 Sn1 2.049116 1_555
O24 P12 1.510193 1_555
O25 P13 1.510193 1_555
O26 P14 1.510193 1_555
O27 P15 1.531642 1_555
O28 P16 1.531642 1_555
O29 P17 1.531642 1_555
O30 P17 1.527325 1_555
O31 P15 1.527325 1_555
O32 P16 1.527325 1_555
O33 P13 1.585594 1_555
O33 Sn2 2.070552 1_555
O34 P14 1.585594 1_555
O34 Sn2 2.070552 1_555
O35 P12 1.585594 1_555
O35 Sn2 2.070552 1_555
O36 P17 1.542498 1_555
O37 P15 1.542507 1_555
O38 P16 1.542503 1_555
O39 P13 1.534549 1_555
O40 P14 1.534540 1_555
O41 P12 1.534545 1_555
O42 P6 1.537713 1_555
O43 P7 1.537722 1_555
O44 P8 1.537718 1_555
O45 P9 1.537405 1_555
O46 P10 1.537396 1_555
O47 P11 1.537402 1_555
O48 P5 1.544420 1_545
O49 P3 1.544429 1_555
O50 P4 1.544425 1_655
O51 P1 1.558777 1_555
O52 P2 1.558768 1_655
O53 P0 1.558773 1_545
O54 P12 1.585577 1_555
O54 Sn0 2.157281 1_555
O55 P13 1.585559 1_655
O55 Sn0 2.157281 1_555
O56 P14 1.585566 1_545
O56 Sn0 2.157281 1_555
O57 P15 1.613086 1_545
O57 Sn1 2.084872 1_555
O58 P16 1.613104 1_555
O58 Sn1 2.084872 1_555
O59 P17 1.613093 1_655
O59 Sn1 2.084872 1_555
O60 P11 1.540794 1_555
O61 P9 1.540776 1_455
O62 P10 1.540784 1_565
O63 P7 1.541528 1_565
O64 P8 1.541545 1_555
O65 P6 1.541535 1_455
O66 P0 1.556331 1_555
O67 P1 1.556340 1_555
O68 P2 1.556336 1_555
O69 P3 1.609223 1_555
O69 Sn2 2.085079 1_555
O70 P4 1.609215 1_555
O70 Sn2 2.085080 1_555
O71 P5 1.609220 1_555
O71 Sn2 2.085079 1_555
