# generated using pymatgen
data_SrH12(ClO3)2
_symmetry_space_group_name_H-M   'P 1'
_cell_length_a   7.99695956
_cell_length_b   7.99695956
_cell_length_c   4.19579100
_cell_angle_alpha   90.00000000
_cell_angle_beta   90.00000000
_cell_angle_gamma   119.99999632
_symmetry_Int_Tables_number   1
_chemical_formula_structural   SrH12(ClO3)2
_chemical_formula_sum   'Sr1 H12 Cl2 O6'
_cell_volume   232.37761714
_cell_formula_units_Z   1
loop_
 _symmetry_equiv_pos_site_id
 _symmetry_equiv_pos_as_xyz
  1  'x, y, z'
loop_
 _atom_site_type_symbol
 _atom_site_label
 _atom_site_symmetry_multiplicity
 _atom_site_fract_x
 _atom_site_fract_y
 _atom_site_fract_z
 _atom_site_occupancy
  Sr  Sr0  1  0.00000000  0.00000000  0.00000000  1
  H  H0  1  0.88718500  0.64329100  0.49722600  1
  H  H1  1  0.35670900  0.24389400  0.49722600  1
  H  H2  1  0.75610600  0.11281500  0.49722600  1
  H  H3  1  0.24389400  0.35670900  0.50277400  1
  H  H4  1  0.11281500  0.75610600  0.50277400  1
  H  H5  1  0.64329100  0.88718500  0.50277400  1
  H  H6  1  0.90021900  0.34491900  0.90692500  1
  H  H7  1  0.65508100  0.55530000  0.90692500  1
  H  H8  1  0.44470000  0.09978100  0.90692500  1
  H  H9  1  0.34491900  0.90021900  0.09307500  1
  H  H10  1  0.09978100  0.44470000  0.09307500  1
  H  H11  1  0.55530000  0.65508100  0.09307500  1
  Cl  Cl0  1  0.66666700  0.33333300  0.61877600  1
  Cl  Cl1  1  0.33333300  0.66666700  0.38122400  1
  O  O0  1  0.22471700  0.22471700  0.50000000  1
  O  O1  1  0.00000000  0.77528300  0.50000000  1
  O  O2  1  0.77528300  0.00000000  0.50000000  1
  O  O3  1  0.67827800  0.67827800  0.00000000  1
  O  O4  1  0.00000000  0.32172200  0.00000000  1
  O  O5  1  0.32172200  0.00000000  0.00000000  1
loop_
_geom_bond_atom_site_label_1
_geom_bond_atom_site_label_2
_geom_bond_distance
_geom_bond_site_symmetry_2
H0 O1 0.987893 1_655
H1 O0 0.987893 1_555
H2 O2 0.987893 1_555
H3 O0 0.987893 1_555
H4 O1 0.987893 1_555
H5 O2 0.987893 1_565
H6 O4 0.985728 1_656
H7 O3 0.985728 1_556
H8 O5 0.985728 1_556
H9 O5 0.985728 1_565
H10 O4 0.985728 1_555
H11 O3 0.985728 1_555
O0 Sr0 2.762348 1_555
O0 Sr0 2.762348 1_556
O1 Sr0 2.762348 1_565
O1 Sr0 2.762348 1_566
O2 Sr0 2.762348 1_656
O2 Sr0 2.762348 1_655
O3 Sr0 2.572798 1_665
O4 Sr0 2.572798 1_555
O5 Sr0 2.572798 1_555
