# generated using pymatgen
data_Tb(FeSn)6
_symmetry_space_group_name_H-M   'P 1'
_cell_length_a   10.39696862
_cell_length_b   10.39696862
_cell_length_c   5.43278400
_cell_angle_alpha   90.00000000
_cell_angle_beta   90.00000000
_cell_angle_gamma   128.86162411
_symmetry_Int_Tables_number   1
_chemical_formula_structural   Tb(FeSn)6
_chemical_formula_sum   'Tb2 Fe12 Sn12'
_cell_volume   457.28374528
_cell_formula_units_Z   2
loop_
 _symmetry_equiv_pos_site_id
 _symmetry_equiv_pos_as_xyz
  1  'x, y, z'
loop_
 _atom_site_type_symbol
 _atom_site_label
 _atom_site_symmetry_multiplicity
 _atom_site_fract_x
 _atom_site_fract_y
 _atom_site_fract_z
 _atom_site_occupancy
  Tb  Tb0  1  0.87233500  0.12766500  0.75000000  1
  Tb  Tb1  1  0.12766500  0.87233500  0.25000000  1
  Fe  Fe0  1  0.50000000  0.00000000  0.00000000  1
  Fe  Fe1  1  0.50000000  0.00000000  0.50000000  1
  Fe  Fe2  1  0.00000000  0.50000000  0.00000000  1
  Fe  Fe3  1  0.00000000  0.50000000  0.50000000  1
  Fe  Fe4  1  0.75368900  0.75368900  0.00000000  1
  Fe  Fe5  1  0.24631100  0.24631100  0.50000000  1
  Fe  Fe6  1  0.24631100  0.24631100  0.00000000  1
  Fe  Fe7  1  0.75368900  0.75368900  0.50000000  1
  Fe  Fe8  1  0.62787300  0.87784600  0.25000000  1
  Fe  Fe9  1  0.37212700  0.12215400  0.75000000  1
  Fe  Fe10  1  0.87784600  0.62787300  0.75000000  1
  Fe  Fe11  1  0.12215400  0.37212700  0.25000000  1
  Sn  Sn0  1  0.95795800  0.04204200  0.25000000  1
  Sn  Sn1  1  0.04204200  0.95795800  0.75000000  1
  Sn  Sn2  1  0.45962600  0.54037400  0.25000000  1
  Sn  Sn3  1  0.54037400  0.45962600  0.75000000  1
  Sn  Sn4  1  0.78924200  0.21075800  0.25000000  1
  Sn  Sn5  1  0.21075800  0.78924200  0.75000000  1
  Sn  Sn6  1  0.29519200  0.70480800  0.25000000  1
  Sn  Sn7  1  0.70480800  0.29519200  0.75000000  1
  Sn  Sn8  1  0.53861400  0.78739400  0.75000000  1
  Sn  Sn9  1  0.46138600  0.21260600  0.25000000  1
  Sn  Sn10  1  0.78739400  0.53861400  0.25000000  1
  Sn  Sn11  1  0.21260600  0.46138600  0.75000000  1
loop_
_geom_bond_atom_site_label_1
_geom_bond_atom_site_label_2
_geom_bond_distance
_geom_bond_site_symmetry_2
Fe0 Fe8 2.709998 1_545
Fe0 Fe9 2.709998 1_554
Fe0 Fe1 2.716392 1_555
Fe0 Fe1 2.716392 1_554
Fe0 Sn5 2.724071 1_544
Fe0 Sn4 2.724071 1_555
Fe0 Sn7 2.756324 1_554
Fe0 Sn6 2.756324 1_545
Fe0 Sn8 2.829420 1_544
Fe0 Sn9 2.829420 1_555
Fe1 Fe8 2.709998 1_545
Fe1 Fe9 2.709998 1_555
Fe1 Sn5 2.724071 1_545
Fe1 Sn4 2.724071 1_555
Fe1 Sn7 2.756324 1_555
Fe1 Sn6 2.756324 1_545
Fe1 Sn8 2.829420 1_545
Fe1 Sn9 2.829420 1_555
Fe2 Fe3 2.716392 1_554
Fe2 Fe3 2.716392 1_555
Fe2 Sn4 2.724071 1_455
Fe2 Sn5 2.724071 1_554
Fe2 Sn7 2.756324 1_454
Fe2 Sn6 2.756324 1_555
Fe2 Sn10 2.829420 1_455
Fe2 Sn11 2.829420 1_554
Fe3 Sn5 2.724071 1_555
Fe3 Sn4 2.724071 1_455
Fe3 Sn7 2.756324 1_455
Fe3 Sn6 2.756324 1_555
Fe3 Sn10 2.829420 1_455
Fe3 Sn11 2.829420 1_555
Fe4 Fe8 2.709448 1_555
Fe4 Sn0 2.711674 1_565
Fe4 Sn1 2.711674 1_654
Fe4 Fe7 2.716392 1_554
Fe4 Fe7 2.716392 1_555
Fe4 Sn2 2.757161 1_555
Fe4 Sn3 2.757161 1_554
Fe4 Sn8 2.819770 1_554
Fe4 Sn10 2.819770 1_555
Fe5 Fe9 2.709448 1_555
Fe5 Sn1 2.711674 1_545
Fe5 Sn0 2.711674 1_455
Fe5 Fe6 2.716392 1_556
Fe5 Fe6 2.716392 1_555
Fe5 Sn2 2.757161 1_555
Fe5 Sn3 2.757161 1_555
Fe5 Sn11 2.819770 1_555
Fe5 Sn9 2.819770 1_555
Fe6 Fe9 2.709448 1_554
Fe6 Sn0 2.711674 1_455
Fe6 Sn1 2.711674 1_544
Fe6 Sn3 2.757161 1_554
Fe6 Sn2 2.757161 1_555
Fe6 Sn11 2.819770 1_554
Fe6 Sn9 2.819770 1_555
Fe7 Fe8 2.709448 1_555
Fe7 Sn1 2.711674 1_655
Fe7 Sn0 2.711674 1_565
Fe7 Sn2 2.757161 1_555
Fe7 Sn3 2.757161 1_555
Fe7 Sn8 2.819770 1_555
Fe7 Sn10 2.819770 1_555
Fe8 Sn0 2.709273 1_565
Fe8 Sn6 2.718755 1_555
Fe8 Sn4 2.740068 1_565
Fe8 Sn2 2.769262 1_555
Fe8 Sn8 2.833590 1_554
Fe8 Sn8 2.833590 1_555
Fe9 Sn1 2.709273 1_545
Fe9 Sn7 2.718755 1_555
Fe9 Sn5 2.740068 1_545
Fe9 Sn3 2.769262 1_555
Fe9 Sn9 2.833590 1_556
Fe9 Sn9 2.833590 1_555
Fe10 Sn1 2.709273 1_655
Fe10 Fe4 2.709448 1_556
Fe10 Fe7 2.709448 1_555
Fe10 Fe3 2.709998 1_655
Fe10 Fe2 2.709998 1_656
Fe10 Sn7 2.718755 1_555
Fe10 Sn5 2.740068 1_655
Fe10 Sn3 2.769262 1_555
Fe10 Sn10 2.833590 1_556
Fe10 Sn10 2.833590 1_555
Fe11 Sn0 2.709273 1_455
Fe11 Fe5 2.709448 1_555
Fe11 Fe6 2.709448 1_555
Fe11 Fe2 2.709998 1_555
Fe11 Fe3 2.709998 1_555
Fe11 Sn6 2.718755 1_555
Fe11 Sn4 2.740068 1_455
Fe11 Sn2 2.769262 1_555
Fe11 Sn11 2.833590 1_555
Fe11 Sn11 2.833590 1_554
Sn0 Sn1 3.141076 1_645
Sn0 Sn1 3.141076 1_644
Sn0 Tb0 3.155670 1_555
Sn0 Tb0 3.155670 1_554
Sn0 Sn4 3.164687 1_555
Sn0 Tb1 3.183275 1_645
Sn1 Tb1 3.155670 1_555
Sn1 Tb1 3.155670 1_556
Sn1 Sn5 3.164687 1_555
Sn1 Tb0 3.183275 1_465
Sn2 Sn6 3.084367 1_555
Sn2 Sn3 3.110126 1_555
Sn2 Sn3 3.110126 1_554
Sn3 Sn7 3.084367 1_555
Sn4 Tb0 3.131783 1_555
Sn4 Tb0 3.131783 1_554
Sn4 Sn7 3.144377 1_554
Sn4 Sn7 3.144377 1_555
Sn4 Sn9 3.420797 1_555
Sn5 Tb1 3.131783 1_555
Sn5 Tb1 3.131783 1_556
Sn5 Sn6 3.144377 1_556
Sn5 Sn6 3.144377 1_555
Sn5 Sn8 3.420797 1_555
Sn6 Tb1 3.142384 1_555
Sn7 Tb0 3.142384 1_555
Sn8 Tb0 3.025054 1_565
Sn9 Tb1 3.025054 1_545
Sn10 Sn9 2.925817 1_555
Sn10 Tb1 3.025054 1_655
Sn10 Sn4 3.420797 1_555
Sn11 Sn8 2.925817 1_555
Sn11 Tb0 3.025054 1_455
Sn11 Sn5 3.420797 1_555
