# generated using pymatgen
data_LaFeO3
_symmetry_space_group_name_H-M   'P 1'
_cell_length_a   5.60080500
_cell_length_b   5.66192400
_cell_length_c   7.94467100
_cell_angle_alpha   90.00000000
_cell_angle_beta   90.00000000
_cell_angle_gamma   90.00000000
_symmetry_Int_Tables_number   1
_chemical_formula_structural   LaFeO3
_chemical_formula_sum   'La4 Fe4 O12'
_cell_volume   251.93610169
_cell_formula_units_Z   4
loop_
 _symmetry_equiv_pos_site_id
 _symmetry_equiv_pos_as_xyz
  1  'x, y, z'
loop_
 _atom_site_type_symbol
 _atom_site_label
 _atom_site_symmetry_multiplicity
 _atom_site_fract_x
 _atom_site_fract_y
 _atom_site_fract_z
 _atom_site_occupancy
  La  La0  1  0.00938100  0.96174100  0.75000000  1
  La  La1  1  0.50938100  0.53825900  0.25000000  1
  La  La2  1  0.49061900  0.46174100  0.75000000  1
  La  La3  1  0.99061900  0.03825900  0.25000000  1
  Fe  Fe0  1  0.50000000  0.00000000  0.50000000  1
  Fe  Fe1  1  0.00000000  0.50000000  0.50000000  1
  Fe  Fe2  1  0.00000000  0.50000000  0.00000000  1
  Fe  Fe3  1  0.50000000  0.00000000  0.00000000  1
  O  O0  1  0.71259400  0.28797500  0.45372500  1
  O  O1  1  0.21259400  0.21202500  0.54627500  1
  O  O2  1  0.78740600  0.78797500  0.04627500  1
  O  O3  1  0.28740600  0.71202500  0.95372500  1
  O  O4  1  0.28740600  0.71202500  0.54627500  1
  O  O5  1  0.78740600  0.78797500  0.45372500  1
  O  O6  1  0.21259400  0.21202500  0.95372500  1
  O  O7  1  0.71259400  0.28797500  0.04627500  1
  O  O8  1  0.08612000  0.47826500  0.25000000  1
  O  O9  1  0.58612000  0.02173500  0.75000000  1
  O  O10  1  0.41388000  0.97826500  0.25000000  1
  O  O11  1  0.91388000  0.52173500  0.75000000  1
loop_
_geom_bond_atom_site_label_1
_geom_bond_atom_site_label_2
_geom_bond_distance
_geom_bond_site_symmetry_2
La0 O9 2.394815 1_465
La0 O6 2.433757 1_565
La0 O1 2.433757 1_565
La0 O11 2.548054 1_455
La0 O3 2.653946 1_555
La0 O4 2.653946 1_555
La0 O5 2.837959 1_455
La0 O2 2.837959 1_456
La1 O8 2.394815 1_555
La1 O7 2.433757 1_555
La1 O0 2.433757 1_555
La1 O10 2.548054 1_555
La1 O5 2.653946 1_555
La1 O2 2.653946 1_555
La1 O4 2.837959 1_555
La1 O3 2.837959 1_554
La2 O11 2.394815 1_555
La2 O3 2.433757 1_555
La2 O4 2.433757 1_555
La2 O9 2.548054 1_555
La2 O6 2.653946 1_555
La2 O1 2.653946 1_555
La2 O0 2.837959 1_555
La2 O7 2.837959 1_556
La3 O10 2.394815 1_645
La3 O2 2.433757 1_545
La3 O5 2.433757 1_545
La3 O8 2.548054 1_655
La3 O0 2.653946 1_555
La3 O7 2.653946 1_555
La3 O1 2.837959 1_655
La3 O6 2.837959 1_654
Fe0 O5 2.041430 1_545
Fe0 O1 2.041430 1_555
Fe0 O9 2.047599 1_555
Fe0 O10 2.047599 1_545
Fe0 O0 2.052176 1_555
Fe0 O4 2.052176 1_545
Fe1 O4 2.041430 1_555
Fe1 O0 2.041430 1_455
Fe1 O11 2.047599 1_455
Fe1 O8 2.047599 1_555
Fe1 O1 2.052176 1_555
Fe1 O5 2.052176 1_455
Fe2 O7 2.041430 1_455
Fe2 O3 2.041430 1_554
Fe2 O11 2.047599 1_454
Fe2 O8 2.047599 1_555
Fe2 O6 2.052176 1_554
Fe2 O2 2.052176 1_455
Fe3 O2 2.041430 1_545
Fe3 O6 2.041430 1_554
Fe3 O9 2.047599 1_554
Fe3 O10 2.047599 1_545
Fe3 O7 2.052176 1_555
Fe3 O3 2.052176 1_544
