# generated using pymatgen
data_MgV2(RhO4)2
_symmetry_space_group_name_H-M   'P 1'
_cell_length_a   5.58076431
_cell_length_b   5.62379237
_cell_length_c   5.74134651
_cell_angle_alpha   73.47508796
_cell_angle_beta   106.75398733
_cell_angle_gamma   65.10932396
_symmetry_Int_Tables_number   1
_chemical_formula_structural   MgV2(RhO4)2
_chemical_formula_sum   'Mg1 V2 Rh2 O8'
_cell_volume   138.38944200
_cell_formula_units_Z   1
loop_
 _symmetry_equiv_pos_site_id
 _symmetry_equiv_pos_as_xyz
  1  'x, y, z'
loop_
 _atom_site_type_symbol
 _atom_site_label
 _atom_site_symmetry_multiplicity
 _atom_site_fract_x
 _atom_site_fract_y
 _atom_site_fract_z
 _atom_site_occupancy
  Mg  Mg0  1  0.26401900  0.24316600  0.99467900  1
  V  V0  1  0.25590500  0.22987900  0.49792300  1
  V  V1  1  0.99072700  0.94789000  0.02240800  1
  Rh  Rh0  1  0.75888800  0.74338200  0.50005600  1
  Rh  Rh1  1  0.52831800  0.51266800  0.99744300  1
  O  O0  1  0.55513900  0.22032600  0.82518700  1
  O  O1  1  0.06774300  0.71041800  0.83572600  1
  O  O2  1  0.99072400  0.28397500  0.66456100  1
  O  O3  1  0.49227100  0.81264900  0.67949700  1
  O  O4  1  0.02473000  0.68198600  0.31316700  1
  O  O5  1  0.53104300  0.20195500  0.33254500  1
  O  O6  1  0.98777200  0.24819800  0.17129000  1
  O  O7  1  0.43367300  0.79446100  0.16551700  1
loop_
_geom_bond_atom_site_label_1
_geom_bond_atom_site_label_2
_geom_bond_distance
_geom_bond_site_symmetry_2
Mg0 O2 1.939705 1_455
Mg0 O5 1.955561 1_556
Mg0 O7 2.066788 1_546
Mg0 O6 2.070399 1_456
Mg0 O0 2.099982 1_555
Mg0 O1 2.138744 1_555
O0 V1 1.957014 1_546
O0 V0 2.092870 1_555
O0 Rh1 2.122875 1_555
O1 V1 1.927100 1_456
O1 Rh0 2.081368 1_455
O1 Rh1 2.082329 1_555
O2 V0 1.949587 1_655
O2 Rh0 2.081968 1_555
O2 V1 2.363129 1_546
O3 V0 1.882214 1_565
O3 Rh1 1.992364 1_555
O3 Rh0 2.012761 1_555
O4 V1 1.793697 1_455
O4 Rh0 2.041795 1_455
O4 V0 2.042005 1_555
O5 V0 2.001568 1_555
O5 Rh0 2.077565 1_545
O5 Rh1 2.191675 1_554
O6 V0 1.977137 1_655
O6 Rh1 2.062226 1_554
O6 V1 2.095021 1_545
O7 V1 2.039741 1_455
O7 Rh1 2.044686 1_554
O7 Rh0 2.074409 1_555
