# generated using pymatgen
data_Mg
_symmetry_space_group_name_H-M   'P 1'
_cell_length_a   6.44831505
_cell_length_b   10.39675096
_cell_length_c   29.90347492
_cell_angle_alpha   90.12140681
_cell_angle_beta   90.01958357
_cell_angle_gamma   89.91840849
_symmetry_Int_Tables_number   1
_chemical_formula_structural   Mg
_chemical_formula_sum   Mg80
_cell_volume   2004.76793272
_cell_formula_units_Z   80
loop_
 _symmetry_equiv_pos_site_id
 _symmetry_equiv_pos_as_xyz
  1  'x, y, z'
loop_
 _atom_site_type_symbol
 _atom_site_label
 _atom_site_symmetry_multiplicity
 _atom_site_fract_x
 _atom_site_fract_y
 _atom_site_fract_z
 _atom_site_occupancy
  Mg  Mg0_0  1  0.25890236  0.04314684  0.08488534  1
  Mg  Mg0_1  1  0.25890236  0.04314683  0.58488533  1
  Mg  Mg0_2  1  0.25890236  0.54314684  0.08488533  1
  Mg  Mg0_3  1  0.25890236  0.54314684  0.58488533  1
  Mg  Mg0_4  1  0.75890236  0.04314683  0.08488534  1
  Mg  Mg0_5  1  0.75890236  0.04314684  0.58488533  1
  Mg  Mg0_6  1  0.75890236  0.54314683  0.08488533  1
  Mg  Mg0_7  1  0.75890236  0.54314684  0.58488533  1
  Mg  Mg1_0  1  0.00924042  0.46146647  0.16505027  1
  Mg  Mg1_1  1  0.00924042  0.46146647  0.66505026  1
  Mg  Mg1_2  1  0.00924042  0.96146647  0.16505026  1
  Mg  Mg1_3  1  0.00924042  0.96146647  0.66505026  1
  Mg  Mg1_4  1  0.50924042  0.46146647  0.16505026  1
  Mg  Mg1_5  1  0.50924042  0.46146647  0.66505026  1
  Mg  Mg1_6  1  0.50924042  0.96146647  0.16505027  1
  Mg  Mg1_7  1  0.50924042  0.96146647  0.66505026  1
  Mg  Mg2_0  1  0.00920553  0.45609507  0.33491737  1
  Mg  Mg2_1  1  0.00920553  0.45609506  0.83491736  1
  Mg  Mg2_2  1  0.00920553  0.95609506  0.33491737  1
  Mg  Mg2_3  1  0.00920553  0.95609506  0.83491737  1
  Mg  Mg2_4  1  0.50920552  0.45609507  0.33491736  1
  Mg  Mg2_5  1  0.50920552  0.45609506  0.83491736  1
  Mg  Mg2_6  1  0.50920552  0.95609507  0.33491737  1
  Mg  Mg2_7  1  0.50920552  0.95609506  0.83491737  1
  Mg  Mg3_0  1  0.25892708  0.03848437  0.41510747  1
  Mg  Mg3_1  1  0.25892708  0.03848437  0.91510747  1
  Mg  Mg3_2  1  0.25892708  0.53848437  0.41510748  1
  Mg  Mg3_3  1  0.25892708  0.53848437  0.91510748  1
  Mg  Mg3_4  1  0.75892708  0.03848437  0.41510747  1
  Mg  Mg3_5  1  0.75892708  0.03848437  0.91510747  1
  Mg  Mg3_6  1  0.75892708  0.53848437  0.41510748  1
  Mg  Mg3_7  1  0.75892708  0.53848437  0.91510748  1
  Mg  Mg4_0  1  0.00891647  0.28646584  0.42418150  1
  Mg  Mg4_1  1  0.00891647  0.28646584  0.92418150  1
  Mg  Mg4_2  1  0.00891647  0.78646585  0.42418151  1
  Mg  Mg4_3  1  0.00891647  0.78646584  0.92418151  1
  Mg  Mg4_4  1  0.50891647  0.28646585  0.42418150  1
  Mg  Mg4_5  1  0.50891647  0.28646584  0.92418150  1
  Mg  Mg4_6  1  0.50891647  0.78646585  0.42418150  1
  Mg  Mg4_7  1  0.50891647  0.78646584  0.92418150  1
  Mg  Mg5_0  1  0.25886692  0.20845553  0.32619150  1
  Mg  Mg5_1  1  0.25886691  0.20845553  0.82619150  1
  Mg  Mg5_2  1  0.25886692  0.70845553  0.32619150  1
  Mg  Mg5_3  1  0.25886692  0.70845553  0.82619151  1
  Mg  Mg5_4  1  0.75886691  0.20845553  0.32619150  1
  Mg  Mg5_5  1  0.75886692  0.20845553  0.82619150  1
  Mg  Mg5_6  1  0.75886692  0.70845553  0.32619150  1
  Mg  Mg5_7  1  0.75886692  0.70845553  0.82619150  1
  Mg  Mg6_0  1  0.25906103  0.21370377  0.17390651  1
  Mg  Mg6_1  1  0.25906103  0.21370377  0.67390651  1
  Mg  Mg6_2  1  0.25906103  0.71370377  0.17390651  1
  Mg  Mg6_3  1  0.25906103  0.71370377  0.67390651  1
  Mg  Mg6_4  1  0.75906103  0.21370377  0.17390651  1
  Mg  Mg6_5  1  0.75906103  0.21370377  0.67390651  1
  Mg  Mg6_6  1  0.75906103  0.71370377  0.17390651  1
  Mg  Mg6_7  1  0.75906103  0.71370377  0.67390651  1
  Mg  Mg7_0  1  0.26183061  0.46836653  0.25001235  1
  Mg  Mg7_1  1  0.26183061  0.46836652  0.75001235  1
  Mg  Mg7_2  1  0.26183061  0.96836653  0.25001235  1
  Mg  Mg7_3  1  0.26183061  0.96836652  0.75001235  1
  Mg  Mg7_4  1  0.76183062  0.46836653  0.25001235  1
  Mg  Mg7_5  1  0.76183062  0.46836652  0.75001235  1
  Mg  Mg7_6  1  0.76183062  0.96836653  0.25001235  1
  Mg  Mg7_7  1  0.76183062  0.96836653  0.75001235  1
  Mg  Mg8_0  1  0.00892344  0.03297157  0.99991573  1
  Mg  Mg8_1  1  0.00892345  0.03297156  0.49991573  1
  Mg  Mg8_2  1  0.00892345  0.53297157  0.99991573  1
  Mg  Mg8_3  1  0.00892345  0.53297156  0.49991573  1
  Mg  Mg8_4  1  0.50892345  0.03297156  0.99991573  1
  Mg  Mg8_5  1  0.50892345  0.03297157  0.49991573  1
  Mg  Mg8_6  1  0.50892344  0.53297156  0.99991573  1
  Mg  Mg8_7  1  0.50892344  0.53297157  0.49991573  1
  Mg  Mg9_0  1  0.00898114  0.29085153  0.07583596  1
  Mg  Mg9_1  1  0.00898114  0.29085153  0.57583596  1
  Mg  Mg9_2  1  0.00898114  0.79085153  0.07583596  1
  Mg  Mg9_3  1  0.00898114  0.79085153  0.57583596  1
  Mg  Mg9_4  1  0.50898114  0.29085153  0.07583596  1
  Mg  Mg9_5  1  0.50898114  0.29085153  0.57583596  1
  Mg  Mg9_6  1  0.50898114  0.79085153  0.07583596  1
  Mg  Mg9_7  1  0.50898114  0.79085153  0.57583596  1
loop_
_geom_bond_atom_site_label_1
_geom_bond_atom_site_label_2
_geom_bond_distance
_geom_bond_site_symmetry_2
Mg0_0 Mg8_0 3.010349 1_554
Mg0_0 Mg8_4 3.011263 1_554
Mg0_0 Mg1_2 3.012426 1_545
Mg0_0 Mg1_6 3.012587 1_545
Mg0_0 Mg9_0 3.048527 1_555
Mg0_0 Mg9_4 3.053038 1_555
Mg0_0 Mg9_6 3.088577 1_545
Mg0_0 Mg9_2 3.091848 1_545
Mg0_0 Mg6_0 3.195441 1_555
Mg0_0 Mg0_4 3.224158 1_555
Mg0_0 Mg0_4 3.224158 1_455
Mg0_1 Mg8_1 3.010349 1_555
Mg0_1 Mg8_5 3.011263 1_555
Mg0_1 Mg1_3 3.012426 1_545
Mg0_1 Mg1_7 3.012587 1_545
Mg0_1 Mg9_1 3.048527 1_555
Mg0_1 Mg9_5 3.053038 1_555
Mg0_1 Mg9_7 3.088577 1_545
Mg0_1 Mg9_3 3.091848 1_545
Mg0_1 Mg6_1 3.195441 1_555
Mg0_1 Mg0_5 3.224158 1_555
Mg0_1 Mg0_5 3.224158 1_455
Mg0_2 Mg8_2 3.010349 1_554
Mg0_2 Mg8_6 3.011263 1_554
Mg0_2 Mg1_0 3.012426 1_555
Mg0_2 Mg1_4 3.012587 1_555
Mg0_2 Mg9_2 3.048527 1_555
Mg0_2 Mg9_6 3.053038 1_555
Mg0_2 Mg9_4 3.088577 1_555
Mg0_2 Mg9_0 3.091848 1_555
Mg0_2 Mg6_2 3.195441 1_555
Mg0_2 Mg0_6 3.224158 1_555
Mg0_2 Mg0_6 3.224158 1_455
Mg0_3 Mg8_3 3.010349 1_555
Mg0_3 Mg8_7 3.011263 1_555
Mg0_3 Mg1_1 3.012426 1_555
Mg0_3 Mg1_5 3.012587 1_555
Mg0_3 Mg9_3 3.048527 1_555
Mg0_3 Mg9_7 3.053038 1_555
Mg0_3 Mg9_5 3.088577 1_555
Mg0_3 Mg9_1 3.091848 1_555
Mg0_3 Mg6_3 3.195441 1_555
Mg0_3 Mg0_7 3.224158 1_555
Mg0_3 Mg0_7 3.224158 1_455
Mg0_4 Mg8_4 3.010349 1_554
Mg0_4 Mg8_0 3.011263 1_654
Mg0_4 Mg1_6 3.012426 1_545
Mg0_4 Mg1_2 3.012587 1_645
Mg0_4 Mg9_4 3.048527 1_555
Mg0_4 Mg9_0 3.053038 1_655
Mg0_4 Mg9_2 3.088577 1_645
Mg0_4 Mg9_6 3.091848 1_545
Mg0_4 Mg6_4 3.195441 1_555
Mg0_5 Mg8_5 3.010349 1_555
Mg0_5 Mg8_1 3.011263 1_655
Mg0_5 Mg1_7 3.012426 1_545
Mg0_5 Mg1_3 3.012587 1_645
Mg0_5 Mg9_5 3.048527 1_555
Mg0_5 Mg9_1 3.053038 1_655
Mg0_5 Mg9_3 3.088577 1_645
Mg0_5 Mg9_7 3.091848 1_545
Mg0_5 Mg6_5 3.195441 1_555
Mg0_6 Mg8_6 3.010349 1_554
Mg0_6 Mg8_2 3.011263 1_654
Mg0_6 Mg1_4 3.012426 1_555
Mg0_6 Mg1_0 3.012587 1_655
Mg0_6 Mg9_6 3.048527 1_555
Mg0_6 Mg9_2 3.053038 1_655
Mg0_6 Mg9_0 3.088577 1_655
Mg0_6 Mg9_4 3.091848 1_555
Mg0_6 Mg6_6 3.195441 1_555
Mg0_7 Mg8_7 3.010349 1_555
Mg0_7 Mg8_3 3.011263 1_655
Mg0_7 Mg1_5 3.012426 1_555
Mg0_7 Mg1_1 3.012587 1_655
Mg0_7 Mg9_7 3.048527 1_555
Mg0_7 Mg9_3 3.053038 1_655
Mg0_7 Mg9_1 3.088577 1_655
Mg0_7 Mg9_5 3.091848 1_555
Mg0_7 Mg6_7 3.195441 1_555
Mg1_0 Mg7_4 3.001167 1_455
Mg1_0 Mg7_0 3.018239 1_555
Mg1_0 Mg6_0 3.048178 1_555
Mg1_0 Mg6_4 3.053373 1_455
Mg1_0 Mg6_6 3.087912 1_455
Mg1_0 Mg6_2 3.090508 1_555
Mg1_0 Mg9_0 3.200581 1_555
Mg1_0 Mg1_4 3.224158 1_555
Mg1_0 Mg1_4 3.224158 1_455
Mg1_1 Mg7_5 3.001167 1_455
Mg1_1 Mg7_1 3.018239 1_555
Mg1_1 Mg6_1 3.048178 1_555
Mg1_1 Mg6_5 3.053373 1_455
Mg1_1 Mg6_7 3.087912 1_455
Mg1_1 Mg6_3 3.090508 1_555
Mg1_1 Mg9_1 3.200581 1_555
Mg1_1 Mg1_5 3.224158 1_455
Mg1_1 Mg1_5 3.224158 1_555
Mg1_2 Mg7_6 3.001167 1_455
Mg1_2 Mg7_2 3.018239 1_555
Mg1_2 Mg6_2 3.048178 1_555
Mg1_2 Mg6_6 3.053373 1_455
Mg1_2 Mg6_4 3.087912 1_465
Mg1_2 Mg6_0 3.090508 1_565
Mg1_2 Mg9_2 3.200581 1_555
Mg1_2 Mg1_6 3.224158 1_555
Mg1_2 Mg1_6 3.224158 1_455
Mg1_3 Mg7_7 3.001167 1_455
Mg1_3 Mg7_3 3.018239 1_555
Mg1_3 Mg6_3 3.048178 1_555
Mg1_3 Mg6_7 3.053373 1_455
Mg1_3 Mg6_5 3.087912 1_465
Mg1_3 Mg6_1 3.090508 1_565
Mg1_3 Mg9_3 3.200581 1_555
Mg1_3 Mg1_7 3.224158 1_555
Mg1_3 Mg1_7 3.224158 1_455
Mg1_4 Mg7_0 3.001167 1_555
Mg1_4 Mg7_4 3.018239 1_555
Mg1_4 Mg6_4 3.048178 1_555
Mg1_4 Mg6_0 3.053373 1_555
Mg1_4 Mg6_2 3.087912 1_555
Mg1_4 Mg6_6 3.090508 1_555
Mg1_4 Mg9_4 3.200581 1_555
Mg1_5 Mg7_1 3.001167 1_555
Mg1_5 Mg7_5 3.018239 1_555
Mg1_5 Mg6_5 3.048178 1_555
Mg1_5 Mg6_1 3.053373 1_555
Mg1_5 Mg6_3 3.087912 1_555
Mg1_5 Mg6_7 3.090508 1_555
Mg1_5 Mg9_5 3.200581 1_555
Mg1_6 Mg7_2 3.001167 1_555
Mg1_6 Mg7_6 3.018239 1_555
Mg1_6 Mg6_6 3.048178 1_555
Mg1_6 Mg6_2 3.053373 1_555
Mg1_6 Mg6_0 3.087912 1_565
Mg1_6 Mg6_4 3.090508 1_565
Mg1_6 Mg9_6 3.200581 1_555
Mg1_7 Mg7_3 3.001167 1_555
Mg1_7 Mg7_7 3.018239 1_555
Mg1_7 Mg6_7 3.048178 1_555
Mg1_7 Mg6_3 3.053373 1_555
Mg1_7 Mg6_1 3.087912 1_565
Mg1_7 Mg6_5 3.090508 1_565
Mg1_7 Mg9_7 3.200581 1_555
Mg2_0 Mg7_4 3.000850 1_455
Mg2_0 Mg3_2 3.011570 1_555
Mg2_0 Mg3_6 3.013063 1_455
Mg2_0 Mg7_0 3.020103 1_555
Mg2_0 Mg5_0 3.045372 1_555
Mg2_0 Mg5_4 3.051465 1_455
Mg2_0 Mg5_6 3.090054 1_455
Mg2_0 Mg5_2 3.091767 1_555
Mg2_0 Mg4_0 3.202410 1_555
Mg2_0 Mg2_4 3.224158 1_555
Mg2_0 Mg2_4 3.224158 1_455
Mg2_1 Mg7_5 3.000850 1_455
Mg2_1 Mg3_3 3.011570 1_555
Mg2_1 Mg3_7 3.013063 1_455
Mg2_1 Mg7_1 3.020103 1_555
Mg2_1 Mg5_1 3.045372 1_555
Mg2_1 Mg5_5 3.051465 1_455
Mg2_1 Mg5_7 3.090054 1_455
Mg2_1 Mg5_3 3.091767 1_555
Mg2_1 Mg4_1 3.202410 1_555
Mg2_1 Mg2_5 3.224158 1_555
Mg2_1 Mg2_5 3.224158 1_455
Mg2_2 Mg7_6 3.000850 1_455
Mg2_2 Mg3_0 3.011570 1_565
Mg2_2 Mg3_4 3.013063 1_465
Mg2_2 Mg7_2 3.020103 1_555
Mg2_2 Mg5_2 3.045372 1_555
Mg2_2 Mg5_6 3.051465 1_455
Mg2_2 Mg5_4 3.090054 1_465
Mg2_2 Mg5_0 3.091767 1_565
Mg2_2 Mg4_2 3.202410 1_555
Mg2_2 Mg2_6 3.224158 1_555
Mg2_2 Mg2_6 3.224158 1_455
Mg2_3 Mg7_7 3.000850 1_455
Mg2_3 Mg3_1 3.011570 1_565
Mg2_3 Mg3_5 3.013063 1_465
Mg2_3 Mg7_3 3.020103 1_555
Mg2_3 Mg5_3 3.045372 1_555
Mg2_3 Mg5_7 3.051465 1_455
Mg2_3 Mg5_5 3.090054 1_465
Mg2_3 Mg5_1 3.091767 1_565
Mg2_3 Mg4_3 3.202410 1_555
Mg2_3 Mg2_7 3.224158 1_555
Mg2_3 Mg2_7 3.224158 1_455
Mg2_4 Mg7_0 3.000850 1_555
Mg2_4 Mg3_6 3.011570 1_555
Mg2_4 Mg3_2 3.013063 1_555
Mg2_4 Mg7_4 3.020103 1_555
Mg2_4 Mg5_4 3.045372 1_555
Mg2_4 Mg5_0 3.051465 1_555
Mg2_4 Mg5_2 3.090054 1_555
Mg2_4 Mg5_6 3.091767 1_555
Mg2_4 Mg4_4 3.202410 1_555
Mg2_5 Mg7_1 3.000850 1_555
Mg2_5 Mg3_7 3.011570 1_555
Mg2_5 Mg3_3 3.013063 1_555
Mg2_5 Mg7_5 3.020103 1_555
Mg2_5 Mg5_5 3.045372 1_555
Mg2_5 Mg5_1 3.051465 1_555
Mg2_5 Mg5_3 3.090054 1_555
Mg2_5 Mg5_7 3.091767 1_555
Mg2_5 Mg4_5 3.202410 1_555
Mg2_6 Mg7_2 3.000850 1_555
Mg2_6 Mg3_4 3.011570 1_565
Mg2_6 Mg3_0 3.013063 1_565
Mg2_6 Mg7_6 3.020103 1_555
Mg2_6 Mg5_6 3.045372 1_555
Mg2_6 Mg5_2 3.051465 1_555
Mg2_6 Mg5_0 3.090054 1_565
Mg2_6 Mg5_4 3.091767 1_565
Mg2_6 Mg4_6 3.202410 1_555
Mg2_7 Mg7_3 3.000850 1_555
Mg2_7 Mg3_5 3.011570 1_565
Mg2_7 Mg3_1 3.013063 1_565
Mg2_7 Mg7_7 3.020103 1_555
Mg2_7 Mg5_7 3.045372 1_555
Mg2_7 Mg5_3 3.051465 1_555
Mg2_7 Mg5_1 3.090054 1_565
Mg2_7 Mg5_5 3.091767 1_565
Mg2_7 Mg4_7 3.202410 1_555
Mg3_0 Mg8_5 3.005191 1_555
Mg3_0 Mg8_1 3.006234 1_555
Mg3_0 Mg4_0 3.050454 1_555
Mg3_0 Mg4_4 3.054161 1_555
Mg3_0 Mg4_6 3.086778 1_545
Mg3_0 Mg4_2 3.090841 1_545
Mg3_0 Mg5_0 3.195693 1_555
Mg3_0 Mg3_4 3.224158 1_555
Mg3_0 Mg3_4 3.224158 1_455
Mg3_1 Mg8_4 3.005191 1_555
Mg3_1 Mg8_0 3.006234 1_555
Mg3_1 Mg4_1 3.050454 1_555
Mg3_1 Mg4_5 3.054161 1_555
Mg3_1 Mg4_7 3.086778 1_545
Mg3_1 Mg4_3 3.090841 1_545
Mg3_1 Mg5_1 3.195693 1_555
Mg3_1 Mg3_5 3.224158 1_555
Mg3_1 Mg3_5 3.224158 1_455
Mg3_2 Mg8_7 3.005191 1_555
Mg3_2 Mg8_3 3.006234 1_555
Mg3_2 Mg4_2 3.050454 1_555
Mg3_2 Mg4_6 3.054161 1_555
Mg3_2 Mg4_4 3.086778 1_555
Mg3_2 Mg4_0 3.090841 1_555
Mg3_2 Mg5_2 3.195693 1_555
Mg3_2 Mg3_6 3.224158 1_455
Mg3_2 Mg3_6 3.224158 1_555
Mg3_3 Mg8_6 3.005191 1_555
Mg3_3 Mg8_2 3.006234 1_555
Mg3_3 Mg4_3 3.050454 1_555
Mg3_3 Mg4_7 3.054161 1_555
Mg3_3 Mg4_5 3.086778 1_555
Mg3_3 Mg4_1 3.090841 1_555
Mg3_3 Mg5_3 3.195693 1_555
Mg3_3 Mg3_7 3.224158 1_555
Mg3_3 Mg3_7 3.224158 1_455
Mg3_4 Mg8_1 3.005191 1_655
Mg3_4 Mg8_5 3.006234 1_555
Mg3_4 Mg4_4 3.050454 1_555
Mg3_4 Mg4_0 3.054161 1_655
Mg3_4 Mg4_2 3.086778 1_645
Mg3_4 Mg4_6 3.090841 1_545
Mg3_4 Mg5_4 3.195693 1_555
Mg3_5 Mg8_0 3.005191 1_655
Mg3_5 Mg8_4 3.006234 1_555
Mg3_5 Mg4_5 3.050454 1_555
Mg3_5 Mg4_1 3.054161 1_655
Mg3_5 Mg4_3 3.086778 1_645
Mg3_5 Mg4_7 3.090841 1_545
Mg3_5 Mg5_5 3.195693 1_555
Mg3_6 Mg8_3 3.005191 1_655
Mg3_6 Mg8_7 3.006234 1_555
Mg3_6 Mg4_6 3.050454 1_555
Mg3_6 Mg4_2 3.054161 1_655
Mg3_6 Mg4_0 3.086778 1_655
Mg3_6 Mg4_4 3.090841 1_555
Mg3_6 Mg5_6 3.195693 1_555
Mg3_7 Mg8_2 3.005191 1_655
Mg3_7 Mg8_6 3.006234 1_555
Mg3_7 Mg4_7 3.050454 1_555
Mg3_7 Mg4_3 3.054161 1_655
Mg3_7 Mg4_1 3.086778 1_655
Mg3_7 Mg4_5 3.090841 1_555
Mg3_7 Mg5_7 3.195693 1_555
Mg4_0 Mg4_4 3.224158 1_555
Mg4_0 Mg4_4 3.224158 1_455
Mg4_0 Mg8_3 3.416517 1_555
Mg4_0 Mg5_0 3.439669 1_555
Mg4_0 Mg5_4 3.440113 1_455
Mg4_0 Mg8_1 3.478532 1_555
Mg4_1 Mg4_5 3.224158 1_555
Mg4_1 Mg4_5 3.224158 1_455
Mg4_1 Mg8_2 3.416517 1_555
Mg4_1 Mg5_1 3.439669 1_555
Mg4_1 Mg5_5 3.440113 1_455
Mg4_1 Mg8_0 3.478532 1_555
Mg4_2 Mg4_6 3.224158 1_455
Mg4_2 Mg4_6 3.224158 1_555
Mg4_2 Mg8_1 3.416517 1_565
Mg4_2 Mg5_2 3.439669 1_555
Mg4_2 Mg5_6 3.440113 1_455
Mg4_2 Mg8_3 3.478532 1_555
Mg4_3 Mg4_7 3.224158 1_455
Mg4_3 Mg4_7 3.224158 1_555
Mg4_3 Mg8_0 3.416517 1_565
Mg4_3 Mg5_3 3.439669 1_555
Mg4_3 Mg5_7 3.440113 1_455
Mg4_3 Mg8_2 3.478532 1_555
Mg4_4 Mg8_7 3.416517 1_555
Mg4_4 Mg5_4 3.439669 1_555
Mg4_4 Mg5_0 3.440113 1_555
Mg4_4 Mg8_5 3.478532 1_555
Mg4_5 Mg8_6 3.416517 1_555
Mg4_5 Mg5_5 3.439669 1_555
Mg4_5 Mg5_1 3.440113 1_555
Mg4_5 Mg8_4 3.478532 1_555
Mg4_6 Mg8_5 3.416517 1_565
Mg4_6 Mg5_6 3.439669 1_555
Mg4_6 Mg5_2 3.440113 1_555
Mg4_6 Mg8_7 3.478532 1_555
Mg4_7 Mg8_4 3.416517 1_565
Mg4_7 Mg5_7 3.439669 1_555
Mg4_7 Mg5_3 3.440113 1_555
Mg4_7 Mg8_6 3.478532 1_555
Mg5_0 Mg5_4 3.224158 1_555
Mg5_0 Mg5_4 3.224158 1_455
Mg5_0 Mg7_2 3.375839 1_545
Mg5_0 Mg7_0 3.538087 1_555
Mg5_1 Mg5_5 3.224158 1_455
Mg5_1 Mg5_5 3.224158 1_555
Mg5_1 Mg7_3 3.375839 1_545
Mg5_1 Mg7_1 3.538087 1_555
Mg5_2 Mg5_6 3.224158 1_455
Mg5_2 Mg5_6 3.224158 1_555
Mg5_2 Mg7_0 3.375839 1_555
Mg5_2 Mg7_2 3.538087 1_555
Mg5_3 Mg5_7 3.224158 1_555
Mg5_3 Mg5_7 3.224158 1_455
Mg5_3 Mg7_1 3.375839 1_555
Mg5_3 Mg7_3 3.538087 1_555
Mg5_4 Mg7_6 3.375839 1_545
Mg5_4 Mg7_4 3.538087 1_555
Mg5_5 Mg7_7 3.375839 1_545
Mg5_5 Mg7_5 3.538087 1_555
Mg5_6 Mg7_4 3.375839 1_555
Mg5_6 Mg7_6 3.538087 1_555
Mg5_7 Mg7_5 3.375839 1_555
Mg5_7 Mg7_7 3.538087 1_555
Mg6_0 Mg6_4 3.224158 1_555
Mg6_0 Mg6_4 3.224158 1_455
Mg6_0 Mg7_2 3.422029 1_545
Mg6_0 Mg9_0 3.441989 1_555
Mg6_0 Mg9_4 3.443515 1_555
Mg6_0 Mg7_0 3.487753 1_555
Mg6_1 Mg6_5 3.224158 1_555
Mg6_1 Mg6_5 3.224158 1_455
Mg6_1 Mg7_3 3.422029 1_545
Mg6_1 Mg9_1 3.441989 1_555
Mg6_1 Mg9_5 3.443515 1_555
Mg6_1 Mg7_1 3.487753 1_555
Mg6_2 Mg6_6 3.224158 1_455
Mg6_2 Mg6_6 3.224158 1_555
Mg6_2 Mg7_0 3.422029 1_555
Mg6_2 Mg9_2 3.441989 1_555
Mg6_2 Mg9_6 3.443515 1_555
Mg6_2 Mg7_2 3.487753 1_555
Mg6_3 Mg6_7 3.224158 1_455
Mg6_3 Mg6_7 3.224158 1_555
Mg6_3 Mg7_1 3.422029 1_555
Mg6_3 Mg9_3 3.441989 1_555
Mg6_3 Mg9_7 3.443515 1_555
Mg6_3 Mg7_3 3.487753 1_555
Mg6_4 Mg7_6 3.422029 1_545
Mg6_4 Mg9_4 3.441989 1_555
Mg6_4 Mg9_0 3.443515 1_655
Mg6_4 Mg7_4 3.487753 1_555
Mg6_5 Mg7_7 3.422029 1_545
Mg6_5 Mg9_5 3.441989 1_555
Mg6_5 Mg9_1 3.443515 1_655
Mg6_5 Mg7_5 3.487753 1_555
Mg6_6 Mg7_4 3.422029 1_555
Mg6_6 Mg9_6 3.441989 1_555
Mg6_6 Mg9_2 3.443515 1_655
Mg6_6 Mg7_6 3.487753 1_555
Mg6_7 Mg7_5 3.422029 1_555
Mg6_7 Mg9_7 3.441989 1_555
Mg6_7 Mg9_3 3.443515 1_655
Mg6_7 Mg7_7 3.487753 1_555
Mg7_0 Mg7_4 3.224158 1_455
Mg7_0 Mg7_4 3.224158 1_555
Mg7_1 Mg7_5 3.224158 1_455
Mg7_1 Mg7_5 3.224158 1_555
Mg7_2 Mg7_6 3.224158 1_455
Mg7_2 Mg7_6 3.224158 1_555
Mg7_3 Mg7_7 3.224158 1_455
Mg7_3 Mg7_7 3.224158 1_555
Mg8_0 Mg8_4 3.224158 1_455
Mg8_0 Mg8_4 3.224158 1_555
Mg8_0 Mg9_2 3.393374 1_546
Mg8_0 Mg9_0 3.509522 1_556
Mg8_1 Mg8_5 3.224158 1_455
Mg8_1 Mg8_5 3.224158 1_555
Mg8_1 Mg9_3 3.393374 1_545
Mg8_1 Mg9_1 3.509522 1_555
Mg8_2 Mg8_6 3.224158 1_555
Mg8_2 Mg8_6 3.224158 1_455
Mg8_2 Mg9_0 3.393374 1_556
Mg8_2 Mg9_2 3.509522 1_556
Mg8_3 Mg8_7 3.224158 1_555
Mg8_3 Mg8_7 3.224158 1_455
Mg8_3 Mg9_1 3.393374 1_555
Mg8_3 Mg9_3 3.509522 1_555
Mg8_4 Mg9_6 3.393374 1_546
Mg8_4 Mg9_4 3.509522 1_556
Mg8_5 Mg9_7 3.393374 1_545
Mg8_5 Mg9_5 3.509522 1_555
Mg8_6 Mg9_4 3.393374 1_556
Mg8_6 Mg9_6 3.509522 1_556
Mg8_7 Mg9_5 3.393374 1_555
Mg8_7 Mg9_7 3.509522 1_555
Mg9_0 Mg9_4 3.224158 1_455
Mg9_0 Mg9_4 3.224158 1_555
Mg9_1 Mg9_5 3.224158 1_455
Mg9_1 Mg9_5 3.224158 1_555
Mg9_2 Mg9_6 3.224158 1_455
Mg9_2 Mg9_6 3.224158 1_555
Mg9_3 Mg9_7 3.224158 1_555
Mg9_3 Mg9_7 3.224158 1_455
