# generated using pymatgen
data_ErAgS2
_symmetry_space_group_name_H-M   'P 1'
_cell_length_a   7.56805323
_cell_length_b   7.56700198
_cell_length_c   12.33450136
_cell_angle_alpha   89.99581002
_cell_angle_beta   90.00000000
_cell_angle_gamma   90.00000000
_symmetry_Int_Tables_number   1
_chemical_formula_structural   ErAgS2
_chemical_formula_sum   'Er8 Ag8 S16'
_cell_volume   706.36573109
_cell_formula_units_Z   8
loop_
 _symmetry_equiv_pos_site_id
 _symmetry_equiv_pos_as_xyz
  1  'x, y, z'
loop_
 _atom_site_type_symbol
 _atom_site_label
 _atom_site_symmetry_multiplicity
 _atom_site_fract_x
 _atom_site_fract_y
 _atom_site_fract_z
 _atom_site_occupancy
  Er  Er0  1  0.50251361  0.74874092  0.00322212  1
  Er  Er1  1  0.00251361  0.25125908  0.99677788  1
  Er  Er2  1  0.25355175  0.00042023  0.75335913  1
  Er  Er3  1  0.75355175  -0.00042023  0.24664087  1
  Er  Er4  1  0.75221470  0.50017499  0.74674024  1
  Er  Er5  1  0.25221470  0.49982501  0.25325976  1
  Er  Er6  1  0.00322180  0.75130199  0.50327352  1
  Er  Er7  1  0.50322180  0.24869801  0.49672648  1
  Ag  Ag0  1  0.24121405  0.50490243  0.81139420  1
  Ag  Ag1  1  0.74121405  0.49509757  0.18860580  1
  Ag  Ag2  1  0.76312198  0.00350286  0.68847803  1
  Ag  Ag3  1  0.26312198  -0.00350286  0.31152197  1
  Ag  Ag4  1  0.01587768  0.76726731  0.06049718  1
  Ag  Ag5  1  0.51587768  0.23273269  0.93950282  1
  Ag  Ag6  1  0.48872547  0.73186288  0.56053038  1
  Ag  Ag7  1  0.98872547  0.26813712  0.43946962  1
  S  S0  1  0.77405843  0.02088396  0.46679978  1
  S  S1  1  0.27405843  0.97911604  0.53320022  1
  S  S2  1  0.23432978  0.48134296  0.47408895  1
  S  S3  1  0.73432978  0.51865704  0.52591105  1
  S  S4  1  0.52056416  0.73248995  0.22382478  1
  S  S5  1  0.02056416  0.26751005  0.77617522  1
  S  S6  1  0.48064165  0.72752604  0.78288005  1
  S  S7  1  0.98064165  0.27247396  0.21711995  1
  S  S8  1  0.98507423  0.76748212  0.72396185  1
  S  S9  1  0.48507423  0.23251788  0.27603815  1
  S  S10  1  0.52509305  0.22752067  0.71708564  1
  S  S11  1  0.02509305  0.77247933  0.28291436  1
  S  S12  1  0.27130191  0.01874695  0.97419959  1
  S  S13  1  0.77130191  0.98125305  0.02580041  1
  S  S14  1  0.73149473  0.47900666  0.96679142  1
  S  S15  1  0.23149473  0.52099334  0.03320858  1
loop_
_geom_bond_atom_site_label_1
_geom_bond_atom_site_label_2
_geom_bond_distance
_geom_bond_site_symmetry_2
Er0 S13 2.703918 1_555
Er0 S15 2.704376 1_555
Er0 S12 2.713729 1_564
Er0 S14 2.714985 1_554
Er0 S4 2.727216 1_555
Er0 S6 2.727586 1_554
Er1 S12 2.703918 1_555
Er1 S14 2.704376 1_455
Er1 S13 2.713729 1_446
Er1 S15 2.714985 1_556
Er1 S5 2.727216 1_555
Er1 S7 2.727586 1_456
Er2 S5 2.696868 1_555
Er2 S6 2.711153 1_545
Er2 S8 2.714205 1_445
Er2 S10 2.715951 1_555
Er2 S1 2.724766 1_545
Er2 S12 2.730801 1_555
Er3 S4 2.696868 1_545
Er3 S7 2.711153 1_555
Er3 S9 2.714205 1_555
Er3 S11 2.715951 1_645
Er3 S0 2.724766 1_555
Er3 S13 2.730801 1_545
Er4 S8 2.697388 1_555
Er4 S10 2.710186 1_555
Er4 S5 2.712165 1_655
Er4 S6 2.717104 1_555
Er4 S14 2.723450 1_555
Er4 S3 2.730752 1_555
Er5 S9 2.697388 1_555
Er5 S11 2.710186 1_555
Er5 S4 2.712165 1_555
Er5 S7 2.717104 1_455
Er5 S15 2.723450 1_555
Er5 S2 2.730752 1_555
Er6 S1 2.703585 1_555
Er6 S3 2.705212 1_455
Er6 S2 2.713259 1_555
Er6 S0 2.715038 1_465
Er6 S11 2.727755 1_555
Er6 S8 2.728301 1_455
Er7 S0 2.703585 1_555
Er7 S2 2.705212 1_555
Er7 S3 2.713259 1_555
Er7 S1 2.715038 1_545
Er7 S10 2.727755 1_555
Er7 S9 2.728301 1_555
Ag0 S5 2.490828 1_555
Ag0 S6 2.498962 1_555
Ag0 S15 2.739674 1_556
Ag0 S8 2.977977 1_455
Ag1 S4 2.490828 1_555
Ag1 S7 2.498962 1_555
Ag1 S14 2.739674 1_554
Ag1 S9 2.977977 1_555
Ag2 S8 2.490518 1_545
Ag2 S10 2.498641 1_555
Ag2 S0 2.738693 1_555
Ag2 S5 2.992889 1_655
Ag3 S9 2.490518 1_555
Ag3 S11 2.498641 1_545
Ag3 S1 2.738693 1_545
Ag3 S4 2.992889 1_545
Ag4 S13 2.496202 1_455
Ag4 S15 2.499800 1_555
Ag4 S11 2.744578 1_555
Ag4 S12 2.913876 1_564
Ag5 S12 2.496202 1_555
Ag5 S14 2.499800 1_555
Ag5 S10 2.744578 1_555
Ag5 S13 2.913876 1_546
Ag6 S3 2.498041 1_555
Ag6 S1 2.500684 1_555
Ag6 S6 2.743448 1_555
Ag6 S2 2.904725 1_555
Ag7 S2 2.498041 1_655
Ag7 S0 2.500684 1_555
Ag7 S7 2.743448 1_555
Ag7 S3 2.904725 1_555
