# generated using pymatgen
data_Na3Mg3GePS5O24
_symmetry_space_group_name_H-M   'P 1'
_cell_length_a   8.65306799
_cell_length_b   8.63043181
_cell_length_c   22.30409991
_cell_angle_alpha   90.37238928
_cell_angle_beta   89.77621509
_cell_angle_gamma   120.37621746
_symmetry_Int_Tables_number   1
_chemical_formula_structural   Na3Mg3GePS5O24
_chemical_formula_sum   'Na9 Mg9 Ge3 P3 S15 O72'
_cell_volume   1436.97680445
_cell_formula_units_Z   3
loop_
 _symmetry_equiv_pos_site_id
 _symmetry_equiv_pos_as_xyz
  1  'x, y, z'
loop_
 _atom_site_type_symbol
 _atom_site_label
 _atom_site_symmetry_multiplicity
 _atom_site_fract_x
 _atom_site_fract_y
 _atom_site_fract_z
 _atom_site_occupancy
  Na  Na0  1  0.36199541  0.36217368  0.25157232  1
  Na  Na1  1  0.02712754  0.69819416  0.58455164  1
  Na  Na2  1  0.29978949  0.96599493  0.08008577  1
  Na  Na3  1  0.99236441  0.00185874  0.50016955  1
  Na  Na4  1  0.99804676  0.00716961  0.99295060  1
  Na  Na5  1  0.66605250  0.32979993  0.83066617  1
  Na  Na6  1  0.67649036  0.33218951  0.33420518  1
  Na  Na7  1  0.33287763  0.66609709  0.16790054  1
  Na  Na8  1  0.35030804  0.66387089  0.66701211  1
  Mg  Mg0  1  0.99639018  0.99761015  0.35258760  1
  Mg  Mg1  1  0.00504847  0.00540079  0.85291070  1
  Mg  Mg2  1  0.99136197  0.00019317  0.65012831  1
  Mg  Mg3  1  0.99142576  0.99799007  0.14921985  1
  Mg  Mg4  1  0.66223100  0.33556257  0.68729001  1
  Mg  Mg5  1  0.67487000  0.33514334  0.18599072  1
  Mg  Mg6  1  0.33132099  0.66187174  0.01567727  1
  Mg  Mg7  1  0.34374143  0.66603846  0.51804573  1
  Mg  Mg8  1  0.33381539  0.67455076  0.31850351  1
  Ge  Ge0  1  0.67282169  0.32816613  0.97505062  1
  Ge  Ge1  1  0.66757357  0.33908523  0.48476041  1
  Ge  Ge2  1  0.32332572  0.66915168  0.81887373  1
  P  P0  1  0.66313453  0.62251482  0.58435255  1
  P  P1  1  0.04324911  0.37566794  0.91806775  1
  P  P2  1  0.33230452  0.95767841  0.91960597  1
  S  S0  1  0.29203886  0.99675947  0.24889353  1
  S  S1  1  0.70650823  0.70758931  0.25030400  1
  S  S2  1  0.99895199  0.29281978  0.25069462  1
  S  S3  1  0.29314190  0.29895808  0.75214499  1
  S  S4  1  0.00433943  0.70648284  0.75143701  1
  S  S5  1  0.70042461  0.99477292  0.75268524  1
  S  S6  1  0.95368206  0.33041808  0.58256916  1
  S  S7  1  0.37884193  0.04564692  0.58291437  1
  S  S8  1  0.95365492  0.61989759  0.08214731  1
  S  S9  1  0.66935670  0.04490428  0.08231541  1
  S  S10  1  0.38071150  0.33759862  0.08315783  1
  S  S11  1  0.62334546  0.66398547  0.91756634  1
  S  S12  1  0.62846469  0.96819246  0.41888567  1
  S  S13  1  0.33662911  0.37003544  0.41732318  1
  S  S14  1  0.03531915  0.66275878  0.41933329  1
  O  O0  1  0.20829898  0.02987564  0.30135684  1
  O  O1  1  0.81462538  0.78898313  0.30391763  1
  O  O2  1  0.97357166  0.18433787  0.30411855  1
  O  O3  1  0.21001400  0.19123177  0.80521291  1
  O  O4  1  0.98035026  0.79287225  0.80398381  1
  O  O5  1  0.80840146  0.01981207  0.80565970  1
  O  O6  1  0.77330312  0.96091587  0.69752165  1
  O  O7  1  0.18614001  0.22388313  0.69714431  1
  O  O8  1  0.03813908  0.81045599  0.69539650  1
  O  O9  1  0.78578735  0.81297388  0.19580609  1
  O  O10  1  0.03305674  0.21411726  0.19633202  1
  O  O11  1  0.18871001  0.97195840  0.19287613  1
  O  O12  1  0.87208551  0.36221040  0.63502962  1
  O  O13  1  0.49034742  0.12594592  0.63534715  1
  O  O14  1  0.63925089  0.50644651  0.63750073  1
  O  O15  1  0.87068806  0.51222931  0.13528245  1
  O  O16  1  0.63514882  0.12627740  0.13494485  1
  O  O17  1  0.48415890  0.36026230  0.13813764  1
  O  O18  1  0.46426507  0.29866536  0.02880040  1
  O  O19  1  0.83982620  0.53773298  0.02649689  1
  O  O20  1  0.69989930  0.15796333  0.02666287  1
  O  O21  1  0.45991138  0.15737073  0.52603883  1
  O  O22  1  0.70965468  0.53875466  0.52514189  1
  O  O23  1  0.83891296  0.29460451  0.52588589  1
  O  O24  1  0.54464202  0.69016873  0.97164489  1
  O  O25  1  0.15097778  0.45845467  0.97352895  1
  O  O26  1  0.31370825  0.85777010  0.97711130  1
  O  O27  1  0.54509899  0.86038638  0.47193998  1
  O  O28  1  0.31111695  0.45566455  0.46986932  1
  O  O29  1  0.13904415  0.68686891  0.47407694  1
  O  O30  1  0.11380069  0.63076923  0.36553464  1
  O  O31  1  0.52104815  0.89384952  0.36417534  1
  O  O32  1  0.37015029  0.47596217  0.36174848  1
  O  O33  1  0.12358557  0.49855969  0.86009118  1
  O  O34  1  0.37697904  0.87570789  0.86233701  1
  O  O35  1  0.50797940  0.62450601  0.86254570  1
  O  O36  1  0.01185090  0.81910803  0.41246426  1
  O  O37  1  0.80859427  0.99221816  0.41209632  1
  O  O38  1  0.17924221  0.18903262  0.41108792  1
  O  O39  1  0.01122571  0.18897832  0.90859745  1
  O  O40  1  0.17226481  0.97933013  0.90960588  1
  O  O41  1  0.80130973  0.81923466  0.90912664  1
  O  O42  1  0.97415828  0.17297003  0.58703468  1
  O  O43  1  0.20022451  0.02853930  0.58729341  1
  O  O44  1  0.83954563  0.80699329  0.58636734  1
  O  O45  1  0.97569509  0.80224112  0.08641665  1
  O  O46  1  0.82908081  0.02860688  0.08734914  1
  O  O47  1  0.20112559  0.17094976  0.08708459  1
  O  O48  1  0.67667666  0.15134986  0.74555619  1
  O  O49  1  0.47336869  0.32222564  0.74615085  1
  O  O50  1  0.84928121  0.52402311  0.74573449  1
  O  O51  1  0.68149703  0.52327790  0.24448481  1
  O  O52  1  0.84051868  0.31230574  0.24414495  1
  O  O53  1  0.47216793  0.16342089  0.24357553  1
  O  O54  1  0.63867838  0.49520599  0.92298892  1
  O  O55  1  0.85195757  0.36425396  0.92264959  1
  O  O56  1  0.50966772  0.15298544  0.92362558  1
  O  O57  1  0.64457481  0.15416761  0.42561562  1
  O  O58  1  0.50491497  0.35413772  0.42397601  1
  O  O59  1  0.85011024  0.49061401  0.42402899  1
  O  O60  1  0.36402183  0.49683487  0.07652979  1
  O  O61  1  0.13511486  0.64300456  0.07717794  1
  O  O62  1  0.50550600  0.86568356  0.07597100  1
  O  O63  1  0.35274483  0.86372630  0.57455316  1
  O  O64  1  0.49937413  0.64009656  0.57555658  1
  O  O65  1  0.12889938  0.49691530  0.57392207  1
  O  O66  1  0.31140262  0.83806007  0.25565357  1
  O  O67  1  0.52276974  0.68278599  0.25614416  1
  O  O68  1  0.16490845  0.47373211  0.25674552  1
  O  O69  1  0.31123264  0.48602965  0.75895119  1
  O  O70  1  0.17521822  0.69269502  0.75758510  1
  O  O71  1  0.51395431  0.82288949  0.75907045  1
loop_
_geom_bond_atom_site_label_1
_geom_bond_atom_site_label_2
_geom_bond_distance
_geom_bond_site_symmetry_2
Na0 O68 2.346556 1_555
Na0 O53 2.351916 1_555
Na0 O67 2.388831 1_555
Na0 O51 2.390274 1_555
Na0 O32 2.628309 1_555
Na0 O0 2.720091 1_555
Na0 O17 2.741369 1_555
Na0 O10 2.753362 1_555
Na1 O44 2.249086 1_455
Na1 O65 2.321527 1_555
Na1 O63 2.440854 1_555
Na1 O43 2.460729 1_565
Na1 O8 2.633888 1_555
Na1 O29 2.663239 1_555
Na1 O22 2.716183 1_455
Na1 O12 2.751709 1_455
Na2 O47 2.324808 1_565
Na2 O62 2.341548 1_555
Na2 O61 2.405467 1_555
Na2 O45 2.423450 1_455
Na2 O26 2.499142 1_554
Na2 O11 2.699010 1_555
Na2 O18 2.733963 1_565
Na2 O16 2.788836 1_565
Na3 O44 2.458914 1_545
Na3 O42 2.480942 1_555
Na3 O37 2.506570 1_545
Na3 O38 2.558688 1_655
Na3 O36 2.563006 1_645
Na3 O43 2.582016 1_655
Na4 O39 2.422915 1_655
Na4 O40 2.474790 1_645
Na4 O41 2.493437 1_545
Na4 O46 2.617131 1_556
Na4 O47 2.640511 1_656
Na4 O45 2.685168 1_546
Na5 O48 2.467334 1_555
Na5 O50 2.498398 1_555
Na5 O49 2.500055 1_555
Na5 O56 2.527743 1_555
Na5 O55 2.533643 1_555
Na5 O54 2.575674 1_555
Na6 O59 2.459820 1_555
Na6 O57 2.490146 1_555
Na6 O52 2.509682 1_555
Na6 O58 2.550565 1_555
Na6 O51 2.587692 1_555
Na6 O53 2.592052 1_555
Na7 O66 2.511231 1_555
Na7 O68 2.524954 1_555
Na7 O67 2.525213 1_555
Na7 O60 2.591322 1_555
Na7 O61 2.596053 1_555
Na7 O62 2.611954 1_555
Na8 O64 2.471534 1_555
Na8 O71 2.474925 1_555
Na8 O69 2.487118 1_555
Na8 O70 2.605578 1_555
Na8 O63 2.690233 1_555
Na8 O65 2.694065 1_555
Mg0 O1 2.004487 1_555
Mg0 O2 2.037367 1_565
Mg0 O0 2.053505 1_665
Mg0 O38 2.068754 1_665
Mg0 O37 2.076535 1_555
Mg0 O36 2.100314 1_655
Mg1 O39 1.986201 1_555
Mg1 O3 1.995053 1_555
Mg1 O40 2.022509 1_545
Mg1 O4 2.044563 1_445
Mg1 O5 2.061880 1_455
Mg1 O41 2.099015 1_445
Mg2 O6 2.033422 1_545
Mg2 O44 2.072898 1_545
Mg2 O7 2.089040 1_655
Mg2 O42 2.116462 1_555
Mg2 O8 2.135352 1_645
Mg2 O43 2.197234 1_655
Mg3 O9 1.982215 1_555
Mg3 O10 2.002770 1_665
Mg3 O11 2.077629 1_655
Mg3 O46 2.083949 1_565
Mg3 O45 2.138436 1_555
Mg3 O47 2.170096 1_665
Mg4 O14 1.940981 1_555
Mg4 O13 2.022894 1_555
Mg4 O49 2.049998 1_555
Mg4 O12 2.067267 1_555
Mg4 O50 2.071455 1_555
Mg4 O48 2.112157 1_555
Mg5 O15 1.968375 1_555
Mg5 O16 2.003383 1_555
Mg5 O52 2.019746 1_555
Mg5 O51 2.054422 1_555
Mg5 O17 2.070755 1_555
Mg5 O53 2.073816 1_555
Mg6 O25 1.902715 1_554
Mg6 O26 1.975368 1_554
Mg6 O24 1.991103 1_554
Mg6 O60 2.094447 1_555
Mg6 O62 2.116140 1_555
Mg6 O61 2.120310 1_555
Mg7 O64 1.957366 1_555
Mg7 O27 1.989838 1_555
Mg7 O28 1.997353 1_555
Mg7 O63 2.084182 1_555
Mg7 O65 2.097846 1_555
Mg7 O29 2.114078 1_555
Mg8 O30 2.032151 1_555
Mg8 O31 2.032563 1_555
Mg8 O66 2.073324 1_555
Mg8 O68 2.111918 1_555
Mg8 O67 2.116341 1_555
Mg8 O32 2.129672 1_555
Ge0 O55 1.835226 1_555
Ge0 O56 1.850928 1_555
Ge0 O20 1.977368 1_556
Ge0 O54 1.992267 1_555
Ge0 O19 2.004703 1_556
Ge0 O18 2.069106 1_556
Ge1 O22 1.805856 1_555
Ge1 O21 1.921415 1_555
Ge1 O23 1.943631 1_555
Ge1 O59 1.989259 1_555
Ge1 O57 1.995057 1_555
Ge1 O58 2.009496 1_555
Ge2 O33 1.852475 1_555
Ge2 O34 1.864734 1_555
Ge2 O70 1.957819 1_555
Ge2 O71 2.013184 1_555
Ge2 O69 2.025178 1_555
Ge2 O35 2.071227 1_555
O0 S0 1.474606 1_545
O1 S1 1.460075 1_555
O2 S2 1.465995 1_555
O3 S3 1.453989 1_555
O4 S4 1.454595 1_655
O5 S5 1.454934 1_545
O6 S5 1.473945 1_555
O7 S3 1.474382 1_555
O8 S4 1.483031 1_555
O9 S1 1.467027 1_555
O10 S2 1.485885 1_455
O11 S0 1.489293 1_555
O12 S6 1.458836 1_555
O13 S7 1.449451 1_555
O14 P0 1.501842 1_555
O15 S8 1.454781 1_555
O16 S9 1.468182 1_555
O17 S10 1.473656 1_555
O18 S10 1.529402 1_555
O19 S8 1.518351 1_555
O20 S9 1.521540 1_555
O21 S7 1.534906 1_555
O22 P0 1.645123 1_555
O23 S6 1.540927 1_555
O24 S11 1.454440 1_555
O25 P1 1.494517 1_555
O26 P2 1.512245 1_555
O27 S12 1.454360 1_555
O28 S13 1.456079 1_555
O29 S14 1.468371 1_555
O30 S14 1.468396 1_555
O31 S12 1.469760 1_555
O32 S13 1.483271 1_555
O33 P1 1.595440 1_555
O34 P2 1.594511 1_555
O35 S11 1.509556 1_555
O36 S14 1.471580 1_555
O37 S12 1.472104 1_555
O38 S13 1.470165 1_555
O39 P1 1.503962 1_555
O40 P2 1.505689 1_555
O41 S11 1.454774 1_555
O42 S6 1.460536 1_555
O43 S7 1.479324 1_555
O44 P0 1.552007 1_555
O45 S8 1.488839 1_555
O46 S9 1.463086 1_555
O47 S10 1.493742 1_555
O48 S5 1.475629 1_545
O49 S3 1.473867 1_555
O50 S4 1.469024 1_655
O51 S1 1.497777 1_555
O52 S2 1.471101 1_555
O53 S0 1.498598 1_545
O54 S11 1.533591 1_555
O55 P1 1.610569 1_655
O56 P2 1.608560 1_545
O57 S12 1.545601 1_545
O58 S13 1.537968 1_555
O59 S14 1.542505 1_655
O60 S10 1.461122 1_555
O61 S8 1.483165 1_455
O62 S9 1.484413 1_565
O63 S7 1.479456 1_565
O64 P0 1.513111 1_555
O65 S6 1.482804 1_455
O66 S0 1.470277 1_555
O67 S1 1.498372 1_555
O68 S2 1.499798 1_455
O69 S3 1.547767 1_555
O70 S4 1.548883 1_555
O71 S5 1.550665 1_555
