# generated using pymatgen
data_Ba3MgTi2O7
_symmetry_space_group_name_H-M   'P 1'
_cell_length_a   5.86008499
_cell_length_b   10.63615197
_cell_length_c   7.15474408
_cell_angle_alpha   96.90259246
_cell_angle_beta   34.11477165
_cell_angle_gamma   105.83798292
_symmetry_Int_Tables_number   1
_chemical_formula_structural   Ba3MgTi2O7
_chemical_formula_sum   'Ba3 Mg1 Ti2 O7'
_cell_volume   235.94666013
_cell_formula_units_Z   1
loop_
 _symmetry_equiv_pos_site_id
 _symmetry_equiv_pos_as_xyz
  1  'x, y, z'
loop_
 _atom_site_type_symbol
 _atom_site_label
 _atom_site_symmetry_multiplicity
 _atom_site_fract_x
 _atom_site_fract_y
 _atom_site_fract_z
 _atom_site_occupancy
  Ba  Ba0  1  -0.00802398  0.63080137  0.96871032  1
  Ba  Ba1  1  0.90731563  -0.00003309  0.30498183  1
  Ba  Ba2  1  0.73008810  0.36918068  0.59973493  1
  Mg  Mg0  1  0.91323172  0.00011595  0.79419756  1
  Ti  Ti0  1  0.15507030  0.77050303  0.41932176  1
  Ti  Ti1  1  0.61385553  0.22966565  0.18986396  1
  O  O0  1  0.15964055  0.60986629  0.48253633  1
  O  O1  1  0.85681424  0.75166297  0.39722374  1
  O  O2  1  0.18792051  0.19322026  0.68056223  1
  O  O3  1  0.35302298  0.24853968  0.14917900  1
  O  O4  1  0.80244654  0.80706489  0.87352769  1
  O  O5  1  0.38718844  0.00020078  0.29233320  1
  O  O6  1  0.94016444  0.39013654  0.09242845  1
loop_
_geom_bond_atom_site_label_1
_geom_bond_atom_site_label_2
_geom_bond_distance
_geom_bond_site_symmetry_2
Ba0 O6 2.665222 1_456
Ba0 O1 2.695755 1_456
Ba0 O0 2.695914 1_456
Ba0 O0 2.718218 1_555
Ba0 O1 2.729579 1_555
Ba0 O4 2.812104 1_455
Ba1 O1 2.677114 1_545
Ba1 O3 2.678184 1_655
Ba1 O5 2.736955 1_655
Ba1 O5 3.123999 1_555
Ba2 O0 2.663924 1_655
Ba2 O6 2.694197 1_456
Ba2 O3 2.695266 1_556
Ba2 O6 2.717613 1_555
Ba2 O3 2.727864 1_655
Ba2 O2 2.811327 1_555
Mg0 O2 1.974923 1_655
Mg0 O4 1.975377 1_545
Mg0 O5 2.003433 1_556
Mg0 O5 2.023169 1_655
O0 Ti0 1.831726 1_555
O1 Ti0 1.838140 1_655
O2 Ti1 1.998764 1_555
O2 Ti1 2.195408 1_456
O3 Ti1 1.838372 1_555
O4 Ti0 1.999380 1_655
O4 Ti0 2.195909 1_556
O5 Ti1 2.303599 1_555
O5 Ti0 2.306016 1_545
O6 Ti1 1.831084 1_555
