# generated using pymatgen
data_Na24Mg10Ta2Si9(SO8)9
_symmetry_space_group_name_H-M   'P 1'
_cell_length_a   9.14010700
_cell_length_b   9.12250678
_cell_length_c   22.15351463
_cell_angle_alpha   90.11207401
_cell_angle_beta   89.88813532
_cell_angle_gamma   119.81290862
_symmetry_Int_Tables_number   1
_chemical_formula_structural   Na24Mg10Ta2Si9(SO8)9
_chemical_formula_sum   'Na24 Mg10 Ta2 Si9 S9 O72'
_cell_volume   1602.70395343
_cell_formula_units_Z   1
loop_
 _symmetry_equiv_pos_site_id
 _symmetry_equiv_pos_as_xyz
  1  'x, y, z'
loop_
 _atom_site_type_symbol
 _atom_site_label
 _atom_site_symmetry_multiplicity
 _atom_site_fract_x
 _atom_site_fract_y
 _atom_site_fract_z
 _atom_site_occupancy
  Na  Na0  1  0.63947968  0.00506881  0.24664243  1
  Na  Na1  1  0.37653367  0.35238079  0.25386720  1
  Na  Na2  1  0.99275654  0.65090781  0.24929514  1
  Na  Na3  1  0.64555039  0.63485512  0.75059794  1
  Na  Na4  1  0.98427044  0.34622839  0.75231151  1
  Na  Na5  1  0.36675410  0.01919157  0.75273451  1
  Na  Na6  1  0.29339055  0.32972632  0.58869747  1
  Na  Na7  1  0.03140302  0.70456528  0.59469619  1
  Na  Na8  1  0.67052175  0.96447615  0.58957308  1
  Na  Na9  1  0.29583768  0.96202624  0.07860373  1
  Na  Na10  1  0.66937524  0.70383085  0.08546015  1
  Na  Na11  1  0.03673320  0.33530340  0.07231325  1
  Na  Na12  1  0.97774339  0.67374987  0.90682359  1
  Na  Na13  1  0.71093998  0.04900881  0.90429973  1
  Na  Na14  1  0.31417211  0.27811537  0.90744658  1
  Na  Na15  1  0.96808245  0.28646481  0.42085587  1
  Na  Na16  1  0.33997911  0.05161932  0.41141893  1
  Na  Na17  1  0.69504295  0.67241951  0.41495850  1
  Na  Na18  1  0.99954009  0.01088411  0.49630379  1
  Na  Na19  1  0.00985368  0.00850991  0.98799647  1
  Na  Na20  1  0.66700901  0.32550193  0.82802236  1
  Na  Na21  1  0.64811925  0.32696972  0.33435694  1
  Na  Na22  1  0.33771157  0.67581834  0.16524136  1
  Na  Na23  1  0.33699112  0.66585149  0.67140297  1
  Mg  Mg0  1  0.00308196  0.99867703  0.35075793  1
  Mg  Mg1  1  0.00854417  0.00805578  0.84640701  1
  Mg  Mg2  1  0.00119694  0.00418652  0.66702339  1
  Mg  Mg3  1  0.99690390  0.98539937  0.15683205  1
  Mg  Mg4  1  0.66784775  0.33226325  0.69143046  1
  Mg  Mg5  1  0.65711534  0.33145793  0.18671064  1
  Mg  Mg6  1  0.66783401  0.32620355  0.97439085  1
  Mg  Mg7  1  0.65528936  0.32637132  0.47897486  1
  Mg  Mg8  1  0.32482320  0.66380369  0.00599465  1
  Mg  Mg9  1  0.34247695  0.66472634  0.51360019  1
  Ta  Ta0  1  0.35283196  0.67847068  0.31603790  1
  Ta  Ta1  1  0.32161537  0.66971540  0.81248933  1
  Si  Si0  1  0.29459188  0.99915704  0.24945358  1
  Si  Si1  1  0.71039183  0.70533904  0.24970220  1
  Si  Si2  1  0.29718850  0.29733560  0.74898510  1
  Si  Si3  1  0.99447499  0.70724308  0.74941953  1
  Si  Si4  1  0.70541188  0.99753038  0.74980818  1
  Si  Si5  1  0.03659704  0.36705578  0.92102185  1
  Si  Si6  1  0.33081020  0.96439576  0.92166428  1
  Si  Si7  1  0.63898976  0.96999506  0.42186639  1
  Si  Si8  1  0.32863410  0.36682812  0.42040305  1
  S  S0  1  0.00235897  0.29570567  0.24861300  1
  S  S1  1  0.95921418  0.33673493  0.58077005  1
  S  S2  1  0.37091611  0.03726472  0.58130004  1
  S  S3  1  0.66792986  0.62508354  0.58114171  1
  S  S4  1  0.95619940  0.62365358  0.08479938  1
  S  S5  1  0.67173895  0.04239865  0.08462210  1
  S  S6  1  0.37341123  0.33547849  0.08430595  1
  S  S7  1  0.62399420  0.66597864  0.92004138  1
  S  S8  1  0.04455203  0.66622324  0.41812064  1
  O  O0  1  0.21266251  0.03370698  0.30846409  1
  O  O1  1  0.82173033  0.79084144  0.30910341  1
  O  O2  1  0.97410482  0.19230825  0.30341812  1
  O  O3  1  0.21680064  0.17996862  0.80748955  1
  O  O4  1  0.96253145  0.78760647  0.80915909  1
  O  O5  1  0.82063201  0.02946886  0.80863123  1
  O  O6  1  0.77218519  0.95080140  0.68803674  1
  O  O7  1  0.18029068  0.23237526  0.68812708  1
  O  O8  1  0.04590603  0.82257831  0.68862659  1
  O  O9  1  0.77336676  0.82335707  0.18968721  1
  O  O10  1  0.03291588  0.21961389  0.19455695  1
  O  O11  1  0.18134054  0.95783742  0.18859356  1
  O  O12  1  0.87528955  0.35434649  0.63492036  1
  O  O13  1  0.47467983  0.11743369  0.63491816  1
  O  O14  1  0.64876349  0.52277929  0.63504249  1
  O  O15  1  0.87502723  0.52115993  0.13955341  1
  O  O16  1  0.64862307  0.12231477  0.13945561  1
  O  O17  1  0.47453854  0.35466084  0.13933219  1
  O  O18  1  0.45529740  0.31298102  0.03054324  1
  O  O19  1  0.85262574  0.54105002  0.03091586  1
  O  O20  1  0.68928640  0.14498189  0.03075950  1
  O  O21  1  0.45373797  0.13943434  0.52633175  1
  O  O22  1  0.68648955  0.54205908  0.52613236  1
  O  O23  1  0.85799796  0.31893057  0.52568994  1
  O  O24  1  0.54530533  0.69028599  0.97543095  1
  O  O25  1  0.15263934  0.44637130  0.98095945  1
  O  O26  1  0.30963249  0.85596485  0.98250560  1
  O  O27  1  0.54313138  0.84811864  0.47768727  1
  O  O28  1  0.29202534  0.45211009  0.47779298  1
  O  O29  1  0.14948406  0.69053636  0.47162178  1
  O  O30  1  0.12630976  0.64070746  0.36246125  1
  O  O31  1  0.50654944  0.86534286  0.36024688  1
  O  O32  1  0.34813718  0.49621768  0.36007558  1
  O  O33  1  0.14717818  0.49888709  0.86352581  1
  O  O34  1  0.35850239  0.85873689  0.86352303  1
  O  O35  1  0.51634786  0.64010766  0.86597515  1
  O  O36  1  0.02665148  0.81772101  0.41200139  1
  O  O37  1  0.81920845  0.98060369  0.41114113  1
  O  O38  1  0.16532068  0.18034339  0.41121965  1
  O  O39  1  0.00985015  0.17859307  0.91352406  1
  O  O40  1  0.15813163  0.97179840  0.91392728  1
  O  O41  1  0.79227710  0.81663327  0.91461434  1
  O  O42  1  0.97884990  0.18306432  0.58279967  1
  O  O43  1  0.19955719  0.02158885  0.58401626  1
  O  O44  1  0.82070585  0.79761528  0.58319827  1
  O  O45  1  0.97351754  0.79659431  0.08831988  1
  O  O46  1  0.82878713  0.02850852  0.08814739  1
  O  O47  1  0.19939611  0.18484741  0.08916192  1
  O  O48  1  0.67272961  0.15654017  0.74262089  1
  O  O49  1  0.48726510  0.32874666  0.74098574  1
  O  O50  1  0.84190845  0.51444935  0.74206599  1
  O  O51  1  0.68154679  0.51424995  0.24331815  1
  O  O52  1  0.85253589  0.31831547  0.24144225  1
  O  O53  1  0.49027198  0.15392160  0.24371099  1
  O  O54  1  0.63839302  0.51094509  0.92531135  1
  O  O55  1  0.85897492  0.37006148  0.92094936  1
  O  O56  1  0.50092033  0.15072388  0.92030277  1
  O  O57  1  0.65026088  0.15347840  0.41893693  1
  O  O58  1  0.50803995  0.36744719  0.41870286  1
  O  O59  1  0.87539508  0.51180606  0.42180150  1
  O  O60  1  0.36014834  0.49395991  0.08168109  1
  O  O61  1  0.12946300  0.64285710  0.08210217  1
  O  O62  1  0.52081624  0.86692440  0.08136561  1
  O  O63  1  0.34840379  0.86171350  0.57684302  1
  O  O64  1  0.51164326  0.64294178  0.57883623  1
  O  O65  1  0.13093636  0.49380987  0.57804070  1
  O  O66  1  0.30280487  0.81540916  0.25845643  1
  O  O67  1  0.50950888  0.67954592  0.25739325  1
  O  O68  1  0.15522229  0.46924173  0.25507598  1
  O  O69  1  0.31806970  0.49065112  0.76042993  1
  O  O70  1  0.17194031  0.68930656  0.75753402  1
  O  O71  1  0.51372441  0.82285327  0.76011992  1
loop_
_geom_bond_atom_site_label_1
_geom_bond_atom_site_label_2
_geom_bond_distance
_geom_bond_site_symmetry_2
Na0 O53 2.355867 1_555
Na0 O52 2.537415 1_555
Na0 O16 2.590332 1_555
Na0 O67 2.603901 1_545
Na0 O66 2.689987 1_545
Na0 O9 2.800053 1_545
Na0 O31 2.809911 1_545
Na0 O2 2.943815 1_555
Na1 O51 2.431596 1_555
Na1 O53 2.505595 1_555
Na1 O67 2.604512 1_555
Na1 O17 2.685854 1_555
Na1 O68 2.715306 1_555
Na1 O32 2.765750 1_555
Na1 O0 2.799045 1_555
Na2 O66 2.469102 1_655
Na2 O51 2.477419 1_555
Na2 O52 2.647775 1_555
Na2 O15 2.683645 1_555
Na2 O68 2.723334 1_655
Na2 O1 2.792521 1_555
Na2 O11 2.797500 1_655
Na2 O30 2.812426 1_655
Na3 O49 2.432712 1_555
Na3 O50 2.534034 1_555
Na3 O71 2.547525 1_555
Na3 O69 2.611624 1_555
Na3 O14 2.760236 1_555
Na3 O35 2.823840 1_555
Na3 O4 2.830562 1_555
Na3 O6 2.874017 1_555
Na4 O50 2.467321 1_555
Na4 O48 2.500046 1_555
Na4 O69 2.660986 1_655
Na4 O70 2.722534 1_655
Na4 O12 2.800923 1_555
Na4 O5 2.802337 1_555
Na4 O7 2.853973 1_655
Na4 O33 2.857585 1_655
Na5 O48 2.440441 1_555
Na5 O49 2.482819 1_555
Na5 O70 2.628794 1_545
Na5 O71 2.726486 1_545
Na5 O3 2.736148 1_555
Na5 O13 2.776447 1_555
Na5 O34 2.841772 1_545
Na5 O8 2.934325 1_545
Na6 O7 2.407319 1_555
Na6 O42 2.499695 1_455
Na6 O43 2.499995 1_555
Na6 O64 2.554306 1_555
Na6 O65 2.591110 1_555
Na6 O28 2.703292 1_555
Na7 O8 2.314539 1_555
Na7 O44 2.474334 1_455
Na7 O43 2.522623 1_565
Na7 O65 2.528902 1_555
Na7 O63 2.544445 1_555
Na7 O12 2.917284 1_455
Na7 O29 2.956293 1_555
Na8 O6 2.400288 1_555
Na8 O44 2.509460 1_555
Na8 O42 2.520428 1_565
Na8 O64 2.555829 1_555
Na8 O63 2.623816 1_555
Na8 O27 2.719976 1_555
Na8 O13 2.937919 1_565
Na9 O26 2.365693 1_554
Na9 O61 2.528609 1_555
Na9 O45 2.565340 1_455
Na9 O47 2.596637 1_565
Na9 O62 2.599905 1_555
Na9 O11 2.642843 1_555
Na10 O62 2.464831 1_555
Na10 O45 2.471697 1_555
Na10 O60 2.506106 1_555
Na10 O9 2.528243 1_555
Na10 O46 2.570548 1_565
Na10 O24 2.667041 1_554
Na11 O25 2.275314 1_554
Na11 O47 2.503371 1_555
Na11 O61 2.504187 1_555
Na11 O46 2.506069 1_455
Na11 O60 2.573542 1_555
Na11 O10 2.902274 1_555
Na11 O20 2.910262 1_455
Na12 O40 2.382790 1_655
Na12 O4 2.435759 1_555
Na12 O55 2.441954 1_555
Na12 O41 2.607199 1_555
Na12 O54 2.722307 1_555
Na12 O33 2.882295 1_655
Na12 O19 2.992471 1_556
Na13 O39 2.386055 1_655
Na13 O5 2.386783 1_555
Na13 O56 2.537462 1_555
Na13 O55 2.569441 1_555
Na13 O41 2.582296 1_545
Na13 O34 2.941298 1_545
Na13 O20 2.968972 1_556
Na14 O3 2.388491 1_555
Na14 O40 2.429239 1_545
Na14 O39 2.463191 1_555
Na14 O56 2.514113 1_555
Na14 O54 2.681874 1_555
Na15 O37 2.430388 1_545
Na15 O38 2.442510 1_655
Na15 O57 2.531449 1_555
Na15 O59 2.583673 1_555
Na15 O23 2.603529 1_555
Na15 O2 2.747209 1_555
Na15 O28 2.863476 1_655
Na16 O38 2.406556 1_555
Na16 O58 2.507010 1_555
Na16 O57 2.512971 1_555
Na16 O0 2.530376 1_555
Na16 O36 2.584277 1_545
Na16 O21 2.716191 1_555
Na17 O58 2.437313 1_555
Na17 O37 2.455024 1_555
Na17 O1 2.600511 1_555
Na17 O36 2.636782 1_655
Na17 O59 2.700109 1_555
Na17 O22 2.721110 1_555
Na17 O27 2.936789 1_555
Na17 O32 3.009203 1_555
Na18 O38 2.431000 1_655
Na18 O37 2.431023 1_545
Na18 O42 2.541034 1_555
Na18 O43 2.638782 1_655
Na18 O44 2.646298 1_545
Na18 O36 2.659685 1_645
Na19 O40 2.254316 1_545
Na19 O39 2.267025 1_555
Na19 O41 2.490331 1_445
Na19 O47 2.800334 1_556
Na19 O46 2.824731 1_456
Na19 O45 2.857037 1_446
Na20 O48 2.454852 1_555
Na20 O50 2.532543 1_555
Na20 O49 2.545329 1_555
Na20 O56 2.572917 1_555
Na20 O55 2.604522 1_555
Na20 O54 2.828263 1_555
Na21 O58 2.392736 1_555
Na21 O57 2.461445 1_555
Na21 O53 2.518015 1_555
Na21 O51 2.563560 1_555
Na21 O59 2.726032 1_555
Na21 O52 2.804477 1_555
Na22 O66 2.525650 1_555
Na22 O62 2.528300 1_555
Na22 O60 2.558499 1_555
Na22 O61 2.558935 1_555
Na22 O67 2.567811 1_555
Na22 O68 2.677757 1_555
Na23 O69 2.492053 1_555
Na23 O71 2.494871 1_555
Na23 O70 2.504115 1_555
Na23 O64 2.667309 1_555
Na23 O65 2.711366 1_555
Na23 O63 2.723998 1_555
Mg0 O0 2.008723 1_565
Mg0 O1 2.016937 1_455
Mg0 O38 2.072437 1_565
Mg0 O37 2.087506 1_455
Mg0 O2 2.182592 1_465
Mg0 O36 2.230642 1_555
Mg1 O3 1.963837 1_555
Mg1 O5 2.007061 1_455
Mg1 O4 2.013948 1_445
Mg1 O39 2.145645 1_555
Mg1 O40 2.162360 1_545
Mg1 O41 2.409637 1_445
Mg2 O8 1.953922 1_545
Mg2 O6 1.954173 1_445
Mg2 O7 1.960192 1_555
Mg2 O43 2.528987 1_555
Mg2 O42 2.555534 1_455
Mg2 O44 2.574546 1_445
Mg3 O11 1.956252 1_655
Mg3 O9 1.970956 1_555
Mg3 O10 2.160267 1_665
Mg3 O45 2.222814 1_555
Mg3 O46 2.333118 1_565
Mg3 O47 2.373762 1_665
Mg4 O49 1.967475 1_555
Mg4 O50 1.980442 1_555
Mg4 O48 1.983988 1_555
Mg4 O12 2.194246 1_555
Mg4 O14 2.218622 1_555
Mg4 O13 2.254740 1_555
Mg5 O51 2.006440 1_555
Mg5 O53 2.021824 1_555
Mg5 O17 2.071279 1_555
Mg5 O16 2.141803 1_555
Mg5 O15 2.150555 1_555
Mg5 O52 2.212887 1_555
Mg6 O56 1.974111 1_555
Mg6 O55 1.978045 1_555
Mg6 O54 2.134034 1_555
Mg6 O20 2.159228 1_556
Mg6 O19 2.229179 1_556
Mg6 O18 2.256966 1_556
Mg7 O57 2.044190 1_555
Mg7 O58 2.060361 1_555
Mg7 O21 2.068380 1_555
Mg7 O22 2.116464 1_555
Mg7 O23 2.154352 1_555
Mg7 O59 2.264433 1_555
Mg8 O26 1.899711 1_554
Mg8 O25 1.901028 1_554
Mg8 O24 2.022175 1_554
Mg8 O61 2.391217 1_555
Mg8 O60 2.413709 1_555
Mg8 O62 2.475796 1_555
Mg9 O28 1.926131 1_555
Mg9 O27 1.934957 1_555
Mg9 O29 2.110008 1_555
Mg9 O64 2.198689 1_555
Mg9 O63 2.255836 1_555
Mg9 O65 2.282060 1_555
O0 Si0 1.611944 1_545
O1 Si1 1.608620 1_555
O2 S0 1.480388 1_655
O3 Si2 1.607955 1_555
O4 Si3 1.606776 1_555
O5 Si4 1.609628 1_545
O6 Si4 1.637078 1_555
O7 Si2 1.638105 1_555
O8 Si3 1.628826 1_455
O9 Si1 1.626200 1_555
O10 S0 1.477208 1_555
O11 Si0 1.626923 1_555
O12 S1 1.473603 1_555
O13 S2 1.468536 1_555
O14 S3 1.472588 1_555
O15 S4 1.485658 1_555
O16 S5 1.483393 1_555
O17 S6 1.487862 1_555
O18 S6 1.472805 1_555
O19 S4 1.476665 1_555
O20 S5 1.476378 1_555
O21 S2 1.491283 1_555
O22 S3 1.486897 1_555
O23 S1 1.491776 1_555
O24 S7 1.492057 1_555
O25 Si5 1.627965 1_555
O26 Si6 1.626782 1_555
O27 Si7 1.601742 1_555
O28 Si8 1.608406 1_555
O29 S8 1.471642 1_555
O30 S8 1.516987 1_555
O30 Ta0 2.178745 1_555
O31 Si7 1.758546 1_555
O31 Ta0 1.859193 1_555
O32 Si8 1.734123 1_555
O32 Ta0 1.911311 1_555
O33 Si5 1.697827 1_555
O33 Ta1 1.943760 1_555
O34 Si6 1.699588 1_555
O34 Ta1 1.944490 1_555
O35 S7 1.493647 1_555
O35 Ta1 2.265480 1_555
O36 S8 1.476766 1_555
O37 Si7 1.618394 1_555
O38 Si8 1.624337 1_555
O39 Si5 1.619969 1_555
O40 Si6 1.622361 1_555
O41 S7 1.472102 1_555
O42 S1 1.499965 1_555
O43 S2 1.501376 1_555
O44 S3 1.497935 1_555
O45 S4 1.507110 1_555
O46 S5 1.504650 1_555
O47 S6 1.502085 1_555
O48 Si4 1.628091 1_545
O49 Si2 1.623511 1_555
O50 Si3 1.620322 1_555
O51 Si1 1.634163 1_555
O52 S0 1.491596 1_655
O53 Si0 1.642353 1_545
O54 S7 1.488947 1_555
O55 Si5 1.637294 1_655
O56 Si6 1.636997 1_545
O57 Si7 1.626488 1_545
O58 Si8 1.637348 1_555
O59 S8 1.488553 1_655
O60 S6 1.510923 1_555
O61 S4 1.505328 1_455
O62 S5 1.508243 1_565
O63 S2 1.512807 1_565
O64 S3 1.517040 1_555
O65 S1 1.511316 1_455
O66 Si0 1.726755 1_555
O66 Ta0 1.993329 1_555
O67 Si1 1.739247 1_555
O67 Ta0 1.928094 1_555
O68 S0 1.509748 1_555
O68 Ta0 2.302347 1_555
O69 Si2 1.695431 1_555
O69 Ta1 1.984857 1_555
O70 Si3 1.719099 1_455
O70 Ta1 1.906870 1_555
O71 Si4 1.698488 1_555
O71 Ta1 1.984957 1_555
