# generated using pymatgen
data_Na14Ca6Si5Sn2S7O48
_symmetry_space_group_name_H-M   'P 1'
_cell_length_a   18.85993196
_cell_length_b   9.42159952
_cell_length_c   23.10033554
_cell_angle_alpha   89.87052058
_cell_angle_beta   90.14619197
_cell_angle_gamma   120.18379597
_symmetry_Int_Tables_number   1
_chemical_formula_structural   Na14Ca6Si5Sn2S7O48
_chemical_formula_sum   'Na42 Ca18 Si15 Sn6 S21 O144'
_cell_volume   3548.17206519
_cell_formula_units_Z   3
loop_
 _symmetry_equiv_pos_site_id
 _symmetry_equiv_pos_as_xyz
  1  'x, y, z'
loop_
 _atom_site_type_symbol
 _atom_site_label
 _atom_site_symmetry_multiplicity
 _atom_site_fract_x
 _atom_site_fract_y
 _atom_site_fract_z
 _atom_site_occupancy
  Na  Na0  1  0.80867026  0.00807182  0.24705309  1
  Na  Na1  1  0.68854983  0.34713110  0.24062728  1
  Na  Na2  1  0.50454060  0.65306955  0.24317836  1
  Na  Na3  1  0.30373670  0.60493890  0.74825032  1
  Na  Na4  1  0.00717244  0.37822286  0.74413877  1
  Na  Na5  1  0.17391131  0.00509159  0.73947621  1
  Na  Na6  1  0.15037455  0.31714537  0.57497744  1
  Na  Na7  1  0.66985542  0.36436351  0.58452199  1
  Na  Na8  1  0.01668285  0.70509247  0.57528185  1
  Na  Na9  1  0.52144506  0.67575993  0.59210319  1
  Na  Na10  1  0.32511413  0.99622616  0.58522604  1
  Na  Na11  1  0.82465106  0.96137891  0.59219096  1
  Na  Na12  1  0.16737590  0.97268093  0.08134604  1
  Na  Na13  1  0.65571096  0.99090160  0.06833627  1
  Na  Na14  1  0.31748756  0.68162448  0.08825834  1
  Na  Na15  1  0.83005621  0.66041957  0.08235707  1
  Na  Na16  1  0.02344634  0.36701457  0.08908517  1
  Na  Na17  1  0.51440682  0.32342177  0.06557802  1
  Na  Na18  1  0.49460153  0.66711323  0.91911025  1
  Na  Na19  1  0.97994941  0.66416638  0.91504839  1
  Na  Na20  1  0.36110250  0.05782214  0.92641527  1
  Na  Na21  1  0.83927824  0.03560957  0.91093945  1
  Na  Na22  1  0.16788319  0.29514464  0.91673808  1
  Na  Na23  1  0.65814011  0.27834833  0.92803114  1
  Na  Na24  1  0.47996293  0.30021081  0.43042207  1
  Na  Na25  1  0.99597577  0.32443513  0.42193162  1
  Na  Na26  1  0.15527574  0.03328359  0.43113866  1
  Na  Na27  1  0.67044943  0.04324994  0.42188461  1
  Na  Na28  1  0.33506431  0.64299073  0.41505835  1
  Na  Na29  1  0.86191912  0.66551297  0.42724222  1
  Na  Na30  1  0.01046166  0.98957852  0.50028112  1
  Na  Na31  1  0.50775365  0.01957568  0.51126569  1
  Na  Na32  1  0.00951224  0.99784886  0.00680659  1
  Na  Na33  1  0.50941868  0.03089776  0.99425573  1
  Na  Na34  1  0.33922713  0.33366998  0.83102254  1
  Na  Na35  1  0.82681706  0.33205386  0.82709212  1
  Na  Na36  1  0.31036007  0.31911903  0.33333198  1
  Na  Na37  1  0.84525094  0.35115594  0.33171489  1
  Na  Na38  1  0.16719284  0.67193836  0.15522235  1
  Na  Na39  1  0.66706316  0.65953512  0.16182010  1
  Na  Na40  1  0.15645965  0.67377192  0.66929830  1
  Na  Na41  1  0.66872151  0.66467778  0.65725679  1
  Ca  Ca0  1  0.00354403  0.00147715  0.35019211  1
  Ca  Ca1  1  0.50320562  0.00382756  0.34501280  1
  Ca  Ca2  1  0.00207675  -0.00453583  0.84190414  1
  Ca  Ca3  1  0.50429536  0.00514790  0.85105755  1
  Ca  Ca4  1  0.33447421  0.32613193  0.68056561  1
  Ca  Ca5  1  0.82925086  0.33555832  0.68393426  1
  Ca  Ca6  1  0.32486883  0.31990834  0.18072459  1
  Ca  Ca7  1  0.83546705  0.34278540  0.18017821  1
  Ca  Ca8  1  0.33335576  0.31848669  0.99199774  1
  Ca  Ca9  1  0.82794294  0.33747346  0.98934863  1
  Ca  Ca10  1  0.32855123  0.32120748  0.49155975  1
  Ca  Ca11  1  0.83240064  0.34560184  0.49370358  1
  Ca  Ca12  1  0.16781832  0.67024139  0.01764013  1
  Ca  Ca13  1  0.66253574  0.65815147  0.01388635  1
  Ca  Ca14  1  0.16275404  0.66757393  0.51479624  1
  Ca  Ca15  1  0.66802725  0.66801995  0.51925704  1
  Ca  Ca16  1  0.66443275  0.67284698  0.31526761  1
  Ca  Ca17  1  0.16206660  0.65828686  0.81311304  1
  Si  Si0  1  0.64997602  0.99721113  0.24984713  1
  Si  Si1  1  0.15131459  0.30161000  0.74962536  1
  Si  Si2  1  -0.00041922  0.68727663  0.75407293  1
  Si  Si3  1  0.48539431  0.32500224  0.58153426  1
  Si  Si4  1  0.17614721  0.02023722  0.58670616  1
  Si  Si5  1  0.67691716  0.02866315  0.58120372  1
  Si  Si6  1  0.84007399  0.65586907  0.58406441  1
  Si  Si7  1  0.98543286  0.64412432  0.08079252  1
  Si  Si8  1  0.34055560  0.02759531  0.08558891  1
  Si  Si9  1  0.17901281  0.32994131  0.08068622  1
  Si  Si10  1  0.67625054  0.33365288  0.08920439  1
  Si  Si11  1  0.51351146  0.36743081  0.91486855  1
  Si  Si12  1  0.67094848  0.97175609  0.91806593  1
  Si  Si13  1  0.17060320  0.36972709  0.41799431  1
  Si  Si14  1  0.01154268  0.65909009  0.41638506  1
  Sn  Sn0  1  0.00558643  0.98705733  0.65433817  1
  Sn  Sn1  1  0.50779496  0.01891481  0.65223921  1
  Sn  Sn2  1  0.00987414  0.99789875  0.15062373  1
  Sn  Sn3  1  0.50342073  0.00773166  0.15179185  1
  Sn  Sn4  1  0.15919633  0.65171547  0.32130026  1
  Sn  Sn5  1  0.66416654  0.67371613  0.82000302  1
  S  S0  1  0.15328479  0.98627359  0.25343123  1
  S  S1  1  0.34874829  0.70219672  0.25055441  1
  S  S2  1  0.84851432  0.70359541  0.25057462  1
  S  S3  1  0.00301935  0.30398997  0.25041511  1
  S  S4  1  0.50065405  0.30362125  0.25059698  1
  S  S5  1  0.64930223  0.31587891  0.75245321  1
  S  S6  1  0.50435519  0.70890071  0.74958651  1
  S  S7  1  0.35470308  0.99553941  0.74938612  1
  S  S8  1  0.84314077  0.98426847  0.75204832  1
  S  S9  1  0.98468861  0.32263318  0.58660152  1
  S  S10  1  0.33880135  0.64889257  0.58597983  1
  S  S11  1  0.48515493  0.64503930  0.08844978  1
  S  S12  1  0.83675811  0.02784328  0.08614086  1
  S  S13  1  0.31687972  0.66380665  0.91536807  1
  S  S14  1  0.81491515  0.67041899  0.91484816  1
  S  S15  1  0.01314132  0.35820264  0.91772805  1
  S  S16  1  0.16657517  0.96976816  0.91589510  1
  S  S17  1  0.31654460  0.96407215  0.41417659  1
  S  S18  1  0.81678810  0.97126277  0.41491944  1
  S  S19  1  0.66476711  0.36395148  0.41427880  1
  S  S20  1  0.51320302  0.66581459  0.41565473  1
  O  O0  1  0.10744817  0.99365978  0.30318110  1
  O  O1  1  0.60919553  0.01880787  0.30814615  1
  O  O2  1  0.39490343  0.78573329  0.30351884  1
  O  O3  1  0.89447589  0.79182505  0.30230663  1
  O  O4  1  0.48974736  0.20943417  0.30395855  1
  O  O5  1  0.99750190  0.20750003  0.30192546  1
  O  O6  1  0.11117010  0.20434777  0.80945489  1
  O  O7  1  0.60499832  0.21838665  0.80283686  1
  O  O8  1  0.49833671  0.79121803  0.80143735  1
  O  O9  1  0.99052551  0.76611372  0.81458750  1
  O  O10  1  0.40098750  0.00473111  0.80133710  1
  O  O11  1  0.88905678  0.99741724  0.80551755  1
  O  O12  1  0.39879718  0.98012178  0.69570712  1
  O  O13  1  0.88500465  0.96771043  0.69959035  1
  O  O14  1  0.08543364  0.19851949  0.69364659  1
  O  O15  1  0.59960168  0.23701803  0.69708112  1
  O  O16  1  0.00915743  0.80752081  0.69668392  1
  O  O17  1  0.51213825  0.81042092  0.69553839  1
  O  O18  1  0.39229251  0.80340379  0.19760157  1
  O  O19  1  0.88944727  0.80100128  0.19619213  1
  O  O20  1  0.01121403  0.22561762  0.19576249  1
  O  O21  1  0.50613275  0.21132374  0.19888381  1
  O  O22  1  0.10797312  0.96952614  0.19709505  1
  O  O23  1  0.58295122  0.96921394  0.19486624  1
  O  O24  1  0.43969800  0.37021256  0.63052637  1
  O  O25  1  0.94379799  0.34167305  0.63762361  1
  O  O26  1  0.23225717  0.10792967  0.64305381  1
  O  O27  1  0.74380832  0.12543654  0.63209429  1
  O  O28  1  0.32793958  0.54720864  0.63748121  1
  O  O29  1  0.81982520  0.51472441  0.63260230  1
  O  O30  1  0.44556113  0.54826374  0.14096532  1
  O  O31  1  0.94043472  0.51329757  0.13205984  1
  O  O32  1  0.32603520  0.12538208  0.13669009  1
  O  O33  1  0.82694819  0.10619987  0.13855750  1
  O  O34  1  0.24181719  0.36562049  0.13329614  1
  O  O35  1  0.73062907  0.35675437  0.14646668  1
  O  O36  1  0.20777937  0.28170663  0.02058301  1
  O  O37  1  0.71285268  0.29800414  0.03002340  1
  O  O38  1  0.43690722  0.56470628  0.03557782  1
  O  O39  1  0.93248864  0.58692109  0.02035391  1
  O  O40  1  0.36741539  0.13371448  0.02484987  1
  O  O41  1  0.84698101  0.12733317  0.03380175  1
  O  O42  1  0.21256901  0.12559821  0.52644211  1
  O  O43  1  0.70210660  0.13052008  0.52004450  1
  O  O44  1  0.35208179  0.57613786  0.53293554  1
  O  O45  1  0.86472485  0.59997145  0.52317649  1
  O  O46  1  0.43325308  0.27700611  0.52043857  1
  O  O47  1  0.93777498  0.30583330  0.53250247  1
  O  O48  1  0.27711662  0.68329358  0.96737599  1
  O  O49  1  0.77724578  0.68336496  0.96901671  1
  O  O50  1  0.06366590  0.44055714  0.96937112  1
  O  O51  1  0.56488054  0.44104168  0.97423744  1
  O  O52  1  0.16222593  0.87692622  0.96868635  1
  O  O53  1  0.66143025  0.87284337  0.97778994  1
  O  O54  1  0.28074724  0.87324252  0.46827359  1
  O  O55  1  0.77586821  0.86902031  0.46611232  1
  O  O56  1  0.16364221  0.45357499  0.47691372  1
  O  O57  1  0.65983690  0.44951936  0.46618454  1
  O  O58  1  0.06558142  0.68970564  0.47410879  1
  O  O59  1  0.56502503  0.68559211  0.46651747  1
  O  O60  1  0.06060950  0.62776551  0.35940179  1
  O  O61  1  0.55282728  0.65149458  0.36205797  1
  O  O62  1  0.26264103  0.87393719  0.36283132  1
  O  O63  1  0.76798129  0.89055469  0.36156801  1
  O  O64  1  0.19134211  0.50638381  0.36123220  1
  O  O65  1  0.66929329  0.45647120  0.36100347  1
  O  O66  1  0.05437041  0.45311514  0.86472553  1
  O  O67  1  0.56587353  0.49822376  0.85898165  1
  O  O68  1  0.17167748  0.88509541  0.86367394  1
  O  O69  1  0.69093563  0.87682024  0.86238211  1
  O  O70  1  0.26818177  0.64871884  0.86265872  1
  O  O71  1  0.76097891  0.65049502  0.86345421  1
  O  O72  1  0.00077309  0.82007875  0.40984441  1
  O  O73  1  0.50205835  0.81251023  0.41290805  1
  O  O74  1  0.39921209  0.98061657  0.40810364  1
  O  O75  1  0.90007331  0.99103622  0.41057572  1
  O  O76  1  0.08620621  0.19411975  0.41057282  1
  O  O77  1  0.58759369  0.19758702  0.41409711  1
  O  O78  1  0.00095661  0.18840138  0.91514066  1
  O  O79  1  0.50166733  0.18352517  0.90973462  1
  O  O80  1  0.09104681  0.98537692  0.91582179  1
  O  O81  1  0.58618539  0.97772443  0.91142047  1
  O  O82  1  0.40062187  0.81177020  0.91145296  1
  O  O83  1  0.89615147  0.82270282  0.90988234  1
  O  O84  1  0.48275323  0.14394740  0.59414587  1
  O  O85  1  0.98975165  0.16850598  0.59089438  1
  O  O86  1  0.08516406  0.01369994  0.58958583  1
  O  O87  1  0.58313673  0.01236889  0.59407975  1
  O  O88  1  0.41559924  0.81594917  0.59261129  1
  O  O89  1  0.92082512  0.84454390  0.59590422  1
  O  O90  1  0.48988464  0.81017239  0.09109409  1
  O  O91  1  0.98439417  0.82296816  0.09173020  1
  O  O92  1  0.42106795  -0.00168557  0.09693678  1
  O  O93  1  0.91271244  0.01299639  0.09083526  1
  O  O94  1  0.08435314  0.15619907  0.09047373  1
  O  O95  1  0.58400287  0.15859791  0.09206888  1
  O  O96  1  0.34448300  0.13970122  0.74557222  1
  O  O97  1  0.83573641  0.13172889  0.74727557  1
  O  O98  1  0.24318342  0.32194930  0.74594714  1
  O  O99  1  0.72941376  0.32896445  0.74851687  1
  O  O100  1  0.42887704  0.54786553  0.74465205  1
  O  O101  1  0.92616184  0.49645797  0.75100260  1
  O  O102  1  0.34772861  0.54391985  0.24711137  1
  O  O103  1  0.83853053  0.53775467  0.25000215  1
  O  O104  1  0.43395928  0.34085558  0.24483045  1
  O  O105  1  0.92709680  0.31313433  0.24796189  1
  O  O106  1  0.23457399  0.13523924  0.25249602  1
  O  O107  1  0.74233036  0.15662464  0.24520980  1
  O  O108  1  0.32431302  0.51376716  0.91954785  1
  O  O109  1  0.82405417  0.52265697  0.91483125  1
  O  O110  1  0.42493963  0.36191511  0.91222884  1
  O  O111  1  0.93112739  0.34605989  0.92146383  1
  O  O112  1  0.24159357  0.13702125  0.91701203  1
  O  O113  1  0.75284439  0.15559474  0.91450325  1
  O  O114  1  0.32546493  0.13000548  0.41438249  1
  O  O115  1  0.82357962  0.13521984  0.41946537  1
  O  O116  1  0.25275296  0.35169402  0.41441333  1
  O  O117  1  0.73835467  0.34446408  0.41592380  1
  O  O118  1  0.43112514  0.51447797  0.42022721  1
  O  O119  1  0.92252092  0.48774856  0.41394080  1
  O  O120  1  0.16103942  0.48201303  0.07851989  1
  O  O121  1  0.66332988  0.49285796  0.08625226  1
  O  O122  1  0.08070695  0.68889045  0.07857036  1
  O  O123  1  0.56979157  0.67273369  0.08483857  1
  O  O124  1  0.26042714  0.84437113  0.08092222  1
  O  O125  1  0.76363517  0.86024681  0.08159720  1
  O  O126  1  0.16406443  0.83547592  0.58499500  1
  O  O127  1  0.65858533  0.84040523  0.57954443  1
  O  O128  1  0.26716859  0.67244441  0.58030450  1
  O  O129  1  0.76117127  0.68260509  0.58071879  1
  O  O130  1  0.06950558  0.46672431  0.58327465  1
  O  O131  1  0.58086091  0.47004190  0.57857822  1
  O  O132  1  0.16129338  0.83274567  0.25605655  1
  O  O133  1  0.65315118  0.82562842  0.24477080  1
  O  O134  1  0.26452028  0.68175890  0.25112116  1
  O  O135  1  0.76508372  0.68686300  0.25097272  1
  O  O136  1  0.07903044  0.47348407  0.25294400  1
  O  O137  1  0.58105976  0.46156400  0.25102445  1
  O  O138  1  0.15922067  0.48312411  0.74428751  1
  O  O139  1  0.65744356  0.48501327  0.75414634  1
  O  O140  1  0.08880134  0.69672499  0.74809578  1
  O  O141  1  0.58016165  0.69367383  0.75084092  1
  O  O142  1  0.27346353  0.84190902  0.74833850  1
  O  O143  1  0.75805481  0.82703334  0.75381222  1
loop_
_geom_bond_atom_site_label_1
_geom_bond_atom_site_label_2
_geom_bond_distance
_geom_bond_site_symmetry_2
Na0 O107 2.299226 1_555
Na0 O133 2.547610 1_545
Na0 O105 2.606685 1_555
Na0 O33 2.632205 1_555
Na0 O135 2.709250 1_545
Na0 O63 2.820517 1_545
Na1 O35 2.303225 1_555
Na1 O107 2.467958 1_555
Na1 O103 2.482709 1_555
Na1 O137 2.744320 1_555
Na1 O135 2.782397 1_555
Na2 O133 2.432665 1_555
Na2 O104 2.547258 1_555
Na2 O30 2.584583 1_555
Na2 O102 2.599056 1_555
Na2 O23 2.805094 1_555
Na2 O137 2.826035 1_555
Na2 O61 2.893371 1_555
Na3 O98 2.313935 1_555
Na3 O138 2.368122 1_555
Na3 O142 2.567584 1_555
Na3 O100 2.672762 1_555
Na3 O28 2.704363 1_555
Na3 O70 2.810101 1_555
Na4 O101 2.305179 1_455
Na4 O138 2.519944 1_555
Na4 O140 2.595835 1_555
Na4 O25 2.678873 1_455
Na4 O97 2.881423 1_455
Na4 O66 2.900764 1_555
Na4 O14 2.989346 1_555
Na5 O26 2.457960 1_555
Na5 O140 2.523221 1_545
Na5 O98 2.592377 1_555
Na5 O96 2.805908 1_555
Na5 O16 2.876401 1_545
Na6 O86 2.502423 1_555
Na6 O56 2.552008 1_555
Na6 O130 2.552061 1_555
Na6 O85 2.647776 1_455
Na6 O42 2.834480 1_555
Na6 O128 2.942577 1_555
Na6 O14 2.981736 1_555
Na7 O131 2.346475 1_555
Na7 O129 2.602102 1_555
Na7 O29 2.683730 1_555
Na7 O87 2.875123 1_555
Na7 O57 2.879590 1_555
Na7 O15 2.891511 1_555
Na7 O43 2.968068 1_555
Na8 O126 2.418710 1_555
Na8 O86 2.541126 1_565
Na8 O58 2.545715 1_555
Na8 O89 2.759935 1_455
Na8 O45 2.788686 1_455
Na8 O130 2.883953 1_555
Na8 O16 2.994704 1_555
Na9 O127 2.268825 1_555
Na9 O24 2.642815 1_555
Na9 O131 2.701551 1_555
Na9 O17 2.754888 1_555
Na9 O87 2.775526 1_565
Na9 O88 2.895020 1_555
Na9 O59 3.005784 1_555
Na10 O84 2.579916 1_565
Na10 O126 2.625595 1_555
Na10 O128 2.676135 1_555
Na10 O26 2.798330 1_565
Na10 O46 2.823113 1_565
Na10 O54 2.892973 1_555
Na10 O12 2.942756 1_555
Na10 O88 2.956035 1_555
Na11 O129 2.289459 1_555
Na11 O89 2.552556 1_555
Na11 O13 2.715208 1_555
Na11 O85 2.719341 1_565
Na11 O127 2.757000 1_555
Na11 O27 2.819021 1_565
Na12 O122 2.330334 1_555
Na12 O124 2.583553 1_555
Na12 O52 2.741792 1_554
Na12 O94 2.865563 1_565
Na12 O22 2.896014 1_555
Na13 O53 2.399199 1_554
Na13 O95 2.604264 1_565
Na13 O123 2.621176 1_555
Na13 O37 2.678481 1_565
Na13 O90 2.757952 1_555
Na13 O125 2.875201 1_555
Na14 O124 2.279277 1_555
Na14 O120 2.590788 1_555
Na14 O92 2.626525 1_565
Na14 O34 2.775653 1_555
Na14 O18 2.837965 1_555
Na14 O90 2.842932 1_555
Na14 O48 2.894578 1_554
Na15 O91 2.526022 1_555
Na15 O121 2.719751 1_555
Na15 O125 2.735938 1_555
Na15 O39 2.761684 1_555
Na15 O49 2.845061 1_554
Na15 O93 2.880513 1_565
Na15 O19 2.903926 1_555
Na15 O35 2.914661 1_555
Na16 O120 2.267666 1_555
Na16 O122 2.669583 1_555
Na16 O31 2.742245 1_455
Na16 O94 2.749429 1_555
Na16 O20 2.753116 1_555
Na16 O50 2.859484 1_554
Na16 O93 2.912654 1_455
Na17 O51 2.350580 1_554
Na17 O121 2.480560 1_555
Na17 O95 2.559312 1_555
Na17 O40 2.603258 1_555
Na17 O92 2.753233 1_555
Na17 O123 2.944095 1_555
Na18 O110 2.494360 1_555
Na18 O81 2.548633 1_555
Na18 O82 2.730706 1_555
Na18 O108 2.781422 1_555
Na18 O38 2.881127 1_556
Na18 O67 2.904883 1_555
Na18 O8 2.943636 1_555
Na19 O9 2.479426 1_555
Na19 O109 2.545665 1_555
Na19 O39 2.568353 1_556
Na19 O111 2.660069 1_555
Na19 O83 2.667392 1_555
Na19 O80 2.678245 1_655
Na20 O79 2.329197 1_555
Na20 O40 2.369873 1_556
Na20 O110 2.508905 1_555
Na20 O112 2.715165 1_555
Na20 O82 2.791309 1_545
Na21 O113 2.407524 1_555
Na21 O111 2.553681 1_555
Na21 O78 2.639095 1_655
Na21 O69 2.665792 1_545
Na21 O11 2.701255 1_545
Na21 O83 2.709012 1_545
Na21 O41 2.950561 1_556
Na22 O112 2.496899 1_555
Na22 O80 2.522986 1_545
Na22 O36 2.534146 1_556
Na22 O108 2.615325 1_555
Na22 O6 2.663399 1_555
Na22 O78 2.782076 1_555
Na23 O81 2.479584 1_545
Na23 O37 2.539187 1_556
Na23 O113 2.589806 1_555
Na23 O79 2.651383 1_555
Na23 O109 2.818113 1_555
Na24 O46 2.227429 1_555
Na24 O114 2.549080 1_555
Na24 O118 2.616417 1_555
Na24 O74 2.653989 1_545
Na24 O77 2.678942 1_555
Na25 O119 2.541977 1_555
Na25 O76 2.564548 1_655
Na25 O75 2.737775 1_545
Na25 O47 2.752904 1_555
Na25 O115 2.814932 1_555
Na25 O60 2.868282 1_655
Na25 O5 2.990936 1_555
Na25 O56 3.034897 1_655
Na26 O42 2.412950 1_555
Na26 O76 2.489441 1_555
Na26 O72 2.622830 1_545
Na26 O116 2.642215 1_555
Na26 O114 2.889000 1_555
Na26 O58 2.968701 1_545
Na26 O0 3.056617 1_545
Na27 O43 2.383712 1_555
Na27 O117 2.461174 1_555
Na27 O115 2.564931 1_555
Na27 O77 2.621243 1_555
Na27 O73 2.812695 1_545
Na27 O1 2.830295 1_555
Na28 O116 2.378702 1_555
Na28 O118 2.639424 1_555
Na28 O64 2.651764 1_555
Na28 O73 2.723046 1_555
Na28 O74 2.781544 1_555
Na28 O44 2.847023 1_555
Na28 O2 2.862546 1_555
Na29 O72 2.303940 1_655
Na29 O45 2.306805 1_555
Na29 O119 2.476844 1_555
Na29 O117 2.749707 1_555
Na29 O75 2.801625 1_555
Na30 O86 2.440853 1_565
Na30 O72 2.582206 1_555
Na30 O76 2.697718 1_565
Na30 O89 2.699449 1_455
Na30 O85 2.838683 1_465
Na30 O75 2.938586 1_455
Na31 O87 2.401707 1_555
Na31 O84 2.414797 1_555
Na31 O88 2.622950 1_545
Na31 O77 2.753062 1_555
Na31 O73 2.964454 1_545
Na31 O74 3.037737 1_545
Na32 O94 2.415615 1_565
Na32 O91 2.448054 1_455
Na32 O80 2.644848 1_554
Na32 O93 2.720750 1_465
Na32 O78 2.829383 1_564
Na32 O83 2.958326 1_454
Na33 O79 2.469527 1_555
Na33 O81 2.599333 1_545
Na33 O95 2.612643 1_556
Na33 O82 2.805240 1_545
Na33 O92 2.828338 1_556
Na33 O90 2.945735 1_546
Na34 O110 2.399412 1_555
Na34 O98 2.633866 1_555
Na34 O112 2.709341 1_555
Na34 O96 2.728632 1_555
Na34 O100 2.734974 1_555
Na34 O108 2.763817 1_555
Na35 O101 2.466874 1_555
Na35 O113 2.540578 1_555
Na35 O99 2.568966 1_555
Na35 O97 2.706775 1_555
Na35 O109 2.728842 1_555
Na35 O111 2.891103 1_555
Na36 O116 2.265179 1_555
Na36 O106 2.458110 1_555
Na36 O114 2.693302 1_555
Na36 O102 2.727021 1_555
Na36 O118 2.895264 1_555
Na36 O104 3.032798 1_555
Na37 O119 2.344968 1_555
Na37 O105 2.613159 1_555
Na37 O103 2.622534 1_555
Na37 O107 2.745819 1_555
Na37 O115 2.750370 1_555
Na37 O117 2.782825 1_555
Na38 O124 2.409855 1_555
Na38 O122 2.463195 1_555
Na38 O120 2.481803 1_555
Na38 O132 2.814290 1_555
Na38 O134 2.845149 1_555
Na38 O136 2.868878 1_555
Na39 O121 2.327843 1_555
Na39 O133 2.572627 1_555
Na39 O123 2.599053 1_555
Na39 O125 2.620226 1_555
Na39 O135 2.688781 1_555
Na39 O137 2.704387 1_555
Na40 O140 2.297702 1_555
Na40 O126 2.429495 1_555
Na40 O138 2.511848 1_555
Na40 O142 2.681436 1_555
Na40 O130 2.688430 1_555
Na40 O128 2.938415 1_555
Na41 O129 2.431649 1_555
Na41 O127 2.510661 1_555
Na41 O131 2.521117 1_555
Na41 O139 2.746504 1_555
Na41 O143 2.749211 1_555
Na41 O141 2.831557 1_555
Ca0 O72 2.173106 1_545
Ca0 O76 2.196651 1_555
Ca0 O0 2.276233 1_545
Ca0 O5 2.288205 1_455
Ca0 O3 2.295463 1_445
Ca0 O75 2.363001 1_445
Ca1 O1 2.113172 1_555
Ca1 O2 2.256458 1_545
Ca1 O4 2.280622 1_555
Ca1 O77 2.343297 1_555
Ca1 O74 2.366536 1_545
Ca1 O73 2.378570 1_545
Ca2 O6 2.144248 1_555
Ca2 O9 2.155693 1_445
Ca2 O11 2.297951 1_445
Ca2 O83 2.416806 1_445
Ca2 O80 2.425953 1_545
Ca2 O78 2.493913 1_555
Ca3 O79 2.181408 1_555
Ca3 O81 2.187476 1_545
Ca3 O7 2.246787 1_555
Ca3 O10 2.257497 1_555
Ca3 O8 2.273986 1_545
Ca3 O82 2.347182 1_545
Ca4 O24 2.151211 1_555
Ca4 O26 2.169795 1_555
Ca4 O98 2.278557 1_555
Ca4 O28 2.364810 1_555
Ca4 O96 2.386608 1_555
Ca4 O100 2.446683 1_555
Ca5 O29 2.139803 1_555
Ca5 O27 2.177834 1_555
Ca5 O101 2.291083 1_555
Ca5 O99 2.381438 1_555
Ca5 O25 2.387730 1_555
Ca5 O97 2.463017 1_555
Ca6 O32 2.107902 1_555
Ca6 O34 2.122912 1_555
Ca6 O106 2.387048 1_555
Ca6 O30 2.393943 1_555
Ca6 O104 2.458137 1_555
Ca6 O102 2.467459 1_555
Ca7 O31 2.130885 1_555
Ca7 O35 2.187826 1_555
Ca7 O107 2.306966 1_555
Ca7 O33 2.359554 1_555
Ca7 O103 2.425994 1_555
Ca7 O105 2.446621 1_555
Ca8 O40 2.266079 1_556
Ca8 O36 2.312346 1_556
Ca8 O38 2.377787 1_556
Ca8 O110 2.418375 1_555
Ca8 O112 2.437508 1_555
Ca8 O108 2.552507 1_555
Ca9 O37 2.220314 1_556
Ca9 O39 2.294525 1_556
Ca9 O113 2.343522 1_555
Ca9 O41 2.409772 1_556
Ca9 O111 2.471738 1_555
Ca9 O109 2.475285 1_555
Ca10 O42 2.186131 1_555
Ca10 O46 2.310134 1_555
Ca10 O116 2.387384 1_555
Ca10 O44 2.411591 1_555
Ca10 O118 2.496789 1_555
Ca10 O114 2.517048 1_555
Ca11 O45 2.261603 1_555
Ca11 O43 2.347327 1_555
Ca11 O47 2.373059 1_555
Ca11 O119 2.406936 1_555
Ca11 O117 2.517758 1_555
Ca11 O115 2.565119 1_555
Ca12 O120 2.213774 1_555
Ca12 O124 2.235071 1_555
Ca12 O122 2.239265 1_555
Ca12 O52 2.297366 1_554
Ca12 O48 2.317151 1_554
Ca12 O50 2.347349 1_554
Ca13 O51 2.150981 1_554
Ca13 O53 2.195882 1_554
Ca13 O121 2.287261 1_555
Ca13 O49 2.303199 1_554
Ca13 O123 2.453992 1_555
Ca13 O125 2.460725 1_555
Ca14 O58 2.158736 1_555
Ca14 O56 2.207533 1_555
Ca14 O126 2.259369 1_555
Ca14 O54 2.351307 1_555
Ca14 O130 2.414610 1_555
Ca14 O128 2.462572 1_555
Ca15 O129 2.205914 1_555
Ca15 O127 2.216161 1_555
Ca15 O131 2.230728 1_555
Ca15 O55 2.315011 1_555
Ca15 O57 2.335709 1_555
Ca15 O59 2.365551 1_555
Ca16 O133 2.250532 1_555
Ca16 O63 2.266353 1_555
Ca16 O61 2.285623 1_555
Ca16 O65 2.336284 1_555
Ca16 O137 2.343377 1_555
Ca16 O135 2.363942 1_555
Ca17 O140 2.187776 1_555
Ca17 O138 2.275198 1_555
Ca17 O66 2.310316 1_555
Ca17 O70 2.343633 1_555
Ca17 O68 2.363064 1_555
Ca17 O142 2.448542 1_555
O0 S0 1.462475 1_555
O1 Si0 1.615706 1_545
O2 S1 1.477880 1_555
O3 S2 1.464624 1_555
O4 S4 1.470393 1_555
O5 S3 1.467572 1_655
O6 Si1 1.620208 1_555
O7 S5 1.457692 1_555
O8 S6 1.463711 1_555
O9 Si2 1.633550 1_655
O10 S7 1.459042 1_545
O11 S8 1.475882 1_555
O12 S7 1.542022 1_555
O12 Sn1 2.149669 1_565
O13 S8 1.498589 1_555
O13 Sn0 2.427390 1_655
O14 Si1 1.715619 1_555
O14 Sn0 2.011444 1_545
O15 S5 1.537746 1_555
O15 Sn1 2.171702 1_555
O16 Si2 1.691816 1_555
O16 Sn0 1.982271 1_555
O17 S6 1.532837 1_555
O17 Sn1 2.240160 1_565
O18 S1 1.514060 1_555
O18 Sn3 2.272324 1_565
O19 S2 1.517790 1_555
O19 Sn2 2.339784 1_655
O20 S3 1.510948 1_555
O20 Sn2 2.376222 1_545
O21 S4 1.513139 1_555
O21 Sn3 2.185372 1_555
O22 S0 1.519362 1_555
O22 Sn2 2.265561 1_555
O23 Si0 1.714238 1_555
O23 Sn3 1.977297 1_565
O24 Si3 1.606643 1_555
O25 S9 1.469961 1_555
O26 Si4 1.617226 1_555
O27 Si5 1.626501 1_555
O28 S10 1.474419 1_555
O29 Si6 1.629785 1_555
O30 S11 1.474998 1_555
O31 Si7 1.608955 1_555
O32 Si8 1.605474 1_555
O33 S12 1.479155 1_555
O34 Si9 1.608446 1_555
O35 Si10 1.618283 1_555
O36 Si9 1.638033 1_555
O37 Si10 1.642662 1_555
O38 S11 1.482750 1_555
O39 Si7 1.640702 1_555
O40 Si8 1.647090 1_555
O41 S12 1.480523 1_555
O42 Si4 1.645664 1_555
O43 Si5 1.637526 1_555
O44 S10 1.487300 1_555
O45 Si6 1.650672 1_555
O46 Si3 1.646823 1_555
O47 S9 1.491341 1_555
O48 S13 1.477670 1_555
O49 S14 1.475719 1_555
O50 S15 1.479237 1_555
O51 Si11 1.619360 1_555
O52 S16 1.477353 1_555
O53 Si12 1.622142 1_555
O54 S17 1.472512 1_555
O55 S18 1.474436 1_555
O56 Si13 1.613643 1_555
O57 S19 1.475329 1_555
O58 Si14 1.612189 1_555
O59 S20 1.477313 1_555
O60 Si14 1.720113 1_555
O60 Sn4 1.966803 1_555
O61 S20 1.488770 1_555
O62 S17 1.513861 1_555
O62 Sn4 2.236589 1_555
O63 S18 1.496339 1_555
O64 Si13 1.737415 1_555
O64 Sn4 1.979773 1_555
O65 S19 1.484100 1_555
O66 S15 1.484616 1_555
O67 Si11 1.713500 1_555
O67 Sn5 1.975042 1_555
O68 S16 1.477507 1_555
O69 Si12 1.715649 1_555
O69 Sn5 1.977245 1_555
O70 S13 1.486638 1_555
O71 S14 1.510735 1_555
O71 Sn5 2.186437 1_555
O72 Si14 1.635014 1_555
O73 S20 1.500025 1_555
O74 S17 1.493795 1_555
O75 S18 1.489466 1_555
O76 Si13 1.628530 1_555
O77 S19 1.510377 1_555
O78 S15 1.498807 1_555
O79 Si11 1.636386 1_555
O80 S16 1.503777 1_555
O81 Si12 1.634452 1_555
O82 S13 1.494051 1_555
O83 S14 1.486202 1_555
O84 Si3 1.705751 1_555
O84 Sn1 1.990155 1_555
O85 S9 1.505440 1_555
O85 Sn0 2.378954 1_645
O86 Si4 1.687289 1_555
O86 Sn0 2.045447 1_545
O87 Si5 1.723298 1_555
O87 Sn1 1.981442 1_555
O88 S10 1.518627 1_555
O88 Sn1 2.287720 1_565
O89 Si6 1.682838 1_555
O89 Sn0 2.004809 1_655
O90 S11 1.514301 1_555
O90 Sn3 2.242286 1_565
O91 Si7 1.714226 1_555
O91 Sn2 2.002122 1_655
O92 Si8 1.693932 1_555
O92 Sn3 1.969218 1_555
O93 S12 1.511289 1_555
O93 Sn2 2.352442 1_645
O94 Si9 1.726169 1_555
O94 Sn2 2.005529 1_545
O95 Si10 1.692972 1_555
O95 Sn3 2.015709 1_555
O96 S7 1.467086 1_545
O97 S8 1.468389 1_545
O98 Si1 1.647056 1_555
O99 S5 1.455893 1_555
O100 S6 1.472923 1_555
O101 Si2 1.628302 1_655
O102 S1 1.483957 1_555
O103 S2 1.476899 1_555
O104 S4 1.471621 1_555
O105 S3 1.478028 1_655
O106 S0 1.468695 1_545
O107 Si0 1.634250 1_545
O108 S13 1.491934 1_555
O109 S14 1.486301 1_555
O110 Si11 1.645921 1_555
O111 S15 1.495243 1_655
O112 S16 1.497895 1_545
O113 Si12 1.643877 1_545
O114 S17 1.485923 1_545
O115 S18 1.488406 1_545
O116 Si13 1.643646 1_555
O117 S19 1.489036 1_555
O118 S20 1.490351 1_555
O119 Si14 1.643955 1_655
O120 Si9 1.630388 1_555
O121 Si10 1.637354 1_555
O122 Si7 1.627128 1_455
O123 S11 1.484856 1_555
O124 Si8 1.628544 1_565
O125 S12 1.488804 1_565
O126 Si4 1.638619 1_565
O127 Si5 1.628062 1_565
O128 S10 1.480542 1_555
O129 Si6 1.630987 1_555
O130 S9 1.491386 1_455
O131 Si3 1.624790 1_555
O132 S0 1.529065 1_555
O132 Sn4 2.258977 1_555
O133 Si0 1.651943 1_555
O134 S1 1.501068 1_555
O134 Sn4 2.470435 1_555
O135 S2 1.500486 1_555
O136 S3 1.518765 1_555
O136 Sn4 2.246322 1_555
O137 S4 1.498316 1_555
O138 Si1 1.644624 1_555
O139 S5 1.522700 1_555
O139 Sn5 2.296932 1_555
O140 Si2 1.645890 1_555
O141 S6 1.507147 1_555
O141 Sn5 2.320188 1_555
O142 S7 1.487668 1_555
O143 S8 1.543038 1_555
O143 Sn5 2.234233 1_555
