# generated using pymatgen
data_Na12Ta10Zn2Si15(SO24)3
_symmetry_space_group_name_H-M   'P 1'
_cell_length_a   8.98601577
_cell_length_b   8.98435093
_cell_length_c   22.65914338
_cell_angle_alpha   90.00074083
_cell_angle_beta   90.16781040
_cell_angle_gamma   120.07885274
_symmetry_Int_Tables_number   1
_chemical_formula_structural   Na12Ta10Zn2Si15(SO24)3
_chemical_formula_sum   'Na12 Ta10 Zn2 Si15 S3 O72'
_cell_volume   1582.99621693
_cell_formula_units_Z   1
loop_
 _symmetry_equiv_pos_site_id
 _symmetry_equiv_pos_as_xyz
  1  'x, y, z'
loop_
 _atom_site_type_symbol
 _atom_site_label
 _atom_site_symmetry_multiplicity
 _atom_site_fract_x
 _atom_site_fract_y
 _atom_site_fract_z
 _atom_site_occupancy
  Na  Na0  1  0.37546008  0.36439775  0.24213140  1
  Na  Na1  1  0.98587988  0.61678386  0.23995503  1
  Na  Na2  1  0.63461855  0.62380245  0.74229757  1
  Na  Na3  1  0.38223423  0.01379194  0.73984196  1
  Na  Na4  1  0.02281578  0.68201747  0.58486171  1
  Na  Na5  1  0.65833330  0.97761721  0.58451235  1
  Na  Na6  1  0.00978900  0.01021015  0.49704802  1
  Na  Na7  1  0.00353615  0.99865307  0.99949923  1
  Na  Na8  1  0.69009842  0.33366896  0.82877156  1
  Na  Na9  1  0.66569072  0.31115537  0.33010098  1
  Na  Na10  1  0.33086009  0.66720696  0.16212590  1
  Na  Na11  1  0.32139601  0.64942543  0.66410440  1
  Ta  Ta0  1  0.00948053  0.01398699  0.35804138  1
  Ta  Ta1  1  0.98712279  0.98931360  0.85878613  1
  Ta  Ta2  1  0.99289348  0.99084570  0.64326069  1
  Ta  Ta3  1  0.01940087  0.00894673  0.14264212  1
  Ta  Ta4  1  0.66580324  0.34514234  0.97701928  1
  Ta  Ta5  1  0.66584104  0.32991486  0.47822558  1
  Ta  Ta6  1  0.32081417  0.65732636  0.01964282  1
  Ta  Ta7  1  0.33497709  0.66726024  0.51850056  1
  Ta  Ta8  1  0.32546082  0.66630012  0.31434396  1
  Ta  Ta9  1  0.33068255  0.67429508  0.81490474  1
  Zn  Zn0  1  0.68743589  0.33619351  0.68186108  1
  Zn  Zn1  1  0.66873151  0.32620936  0.18273432  1
  Si  Si0  1  0.29414681  0.00113889  0.25124966  1
  Si  Si1  1  0.99413325  0.28698158  0.24988526  1
  Si  Si2  1  0.99863186  0.70665793  0.75089567  1
  Si  Si3  1  0.70981063  0.00303282  0.75119665  1
  Si  Si4  1  0.96061894  0.33633757  0.58384576  1
  Si  Si5  1  0.37818482  0.04766014  0.58583879  1
  Si  Si6  1  0.65510207  0.61019621  0.58667694  1
  Si  Si7  1  0.95449142  0.62197247  0.08726040  1
  Si  Si8  1  0.38771200  0.34321414  0.08648769  1
  Si  Si9  1  0.61369339  0.66501158  0.91692038  1
  Si  Si10  1  0.04117301  0.37481719  0.91570629  1
  Si  Si11  1  0.33599316  0.96018091  0.91808756  1
  Si  Si12  1  0.62369269  0.95664870  0.41602496  1
  Si  Si13  1  0.34141613  0.38342836  0.41545637  1
  Si  Si14  1  0.03929377  0.66599732  0.41712423  1
  S  S0  1  0.71252447  0.72233900  0.25111974  1
  S  S1  1  0.27756206  0.28681136  0.75165319  1
  S  S2  1  0.66610594  0.03968307  0.08291304  1
  O  O0  1  0.18107593  0.01273371  0.30642330  1
  O  O1  1  0.81774969  0.80886531  0.30420287  1
  O  O2  1  0.98188528  0.16916424  0.30736094  1
  O  O3  1  0.19244151  0.18335254  0.80437204  1
  O  O4  1  0.99306290  0.82340631  0.80617948  1
  O  O5  1  0.83239476  0.01658290  0.80708671  1
  O  O6  1  0.80539214  0.97448372  0.69242294  1
  O  O7  1  0.17538955  0.20456170  0.69726532  1
  O  O8  1  0.03391988  0.83275547  0.69169773  1
  O  O9  1  0.79271775  0.82333644  0.19713652  1
  O  O10  1  0.02284300  0.18630860  0.19323155  1
  O  O11  1  0.16471030  0.96560677  0.19232569  1
  O  O12  1  0.90154343  0.39804995  0.64072542  1
  O  O13  1  0.48999726  0.10866897  0.64548789  1
  O  O14  1  0.62451020  0.51448855  0.64836753  1
  O  O15  1  0.89020167  0.51984642  0.14811853  1
  O  O16  1  0.63544635  0.10808342  0.13724470  1
  O  O17  1  0.48341480  0.36779114  0.14817546  1
  O  O18  1  0.47860952  0.30885520  0.02878512  1
  O  O19  1  0.83251184  0.51953783  0.02929189  1
  O  O20  1  0.69400786  0.14828396  0.03013805  1
  O  O21  1  0.47445252  0.16921842  0.52820999  1
  O  O22  1  0.70080879  0.52516482  0.53010100  1
  O  O23  1  0.83015058  0.29285469  0.52665883  1
  O  O24  1  0.52202046  0.69328447  0.97318215  1
  O  O25  1  0.16237686  0.46752554  0.97351767  1
  O  O26  1  0.30472774  0.83282797  0.97304673  1
  O  O27  1  0.53575717  0.84355178  0.47526888  1
  O  O28  1  0.31187953  0.47851368  0.47131789  1
  O  O29  1  0.16104828  0.69699444  0.47458827  1
  O  O30  1  0.13408845  0.63767459  0.35844622  1
  O  O31  1  0.49735430  0.85522163  0.35942752  1
  O  O32  1  0.36126068  0.49497930  0.35568729  1
  O  O33  1  0.13883896  0.50162083  0.85894377  1
  O  O34  1  0.36438177  0.86892148  0.85794178  1
  O  O35  1  0.50206597  0.63822797  0.85652235  1
  O  O36  1  0.02028809  0.83515912  0.40758904  1
  O  O37  1  0.81164540  0.97259277  0.40800544  1
  O  O38  1  0.16731635  0.19172394  0.41087084  1
  O  O39  1  0.02810350  0.18877655  0.90780790  1
  O  O40  1  0.16787763  0.98150374  0.90804764  1
  O  O41  1  0.80862463  0.83321954  0.91107893  1
  O  O42  1  0.97206839  0.15860559  0.59152836  1
  O  O43  1  0.18163305  0.02011546  0.59022826  1
  O  O44  1  0.83642804  0.80952297  0.59066762  1
  O  O45  1  0.96568757  0.81385290  0.09022348  1
  O  O46  1  0.82317527  0.02072875  0.08856125  1
  O  O47  1  0.18757814  0.16591102  0.08913131  1
  O  O48  1  0.67242103  0.15870232  0.75131801  1
  O  O49  1  0.45017368  0.30490876  0.74883054  1
  O  O50  1  0.82224792  0.52826414  0.75177426  1
  O  O51  1  0.69351644  0.54954777  0.24963688  1
  O  O52  1  0.83756318  0.32331139  0.24953745  1
  O  O53  1  0.47391834  0.17555319  0.24902010  1
  O  O54  1  0.63771713  0.49603523  0.92352340  1
  O  O55  1  0.85283871  0.35468233  0.92534066  1
  O  O56  1  0.50904273  0.14592921  0.92609623  1
  O  O57  1  0.63995178  0.14470660  0.42239255  1
  O  O58  1  0.50872677  0.36197073  0.42347825  1
  O  O59  1  0.85353502  0.49290740  0.42406770  1
  O  O60  1  0.35658841  0.50685008  0.07467169  1
  O  O61  1  0.15205855  0.65802241  0.07440930  1
  O  O62  1  0.51384144  0.86359570  0.07455343  1
  O  O63  1  0.34686510  0.85089368  0.57378715  1
  O  O64  1  0.50484445  0.66039927  0.57482736  1
  O  O65  1  0.15290342  0.50148095  0.57138722  1
  O  O66  1  0.29800030  0.81894741  0.25551135  1
  O  O67  1  0.53673504  0.70254894  0.25522881  1
  O  O68  1  0.18164715  0.47488128  0.25499835  1
  O  O69  1  0.29681456  0.46197603  0.75491359  1
  O  O70  1  0.18010946  0.70059528  0.75550127  1
  O  O71  1  0.52276711  0.81502400  0.75566506  1
loop_
_geom_bond_atom_site_label_1
_geom_bond_atom_site_label_2
_geom_bond_distance
_geom_bond_site_symmetry_2
Na0 O53 2.278075 1_555
Na0 O17 2.336005 1_555
Na0 O68 2.416473 1_555
Na0 O51 2.489191 1_555
Na0 O67 2.646189 1_555
Na0 O32 2.857497 1_555
Na0 O10 2.953880 1_555
Na1 O15 2.250977 1_555
Na1 O52 2.292307 1_555
Na1 O51 2.393263 1_555
Na1 O66 2.485457 1_655
Na1 O68 2.660987 1_655
Na1 O11 2.920758 1_655
Na1 O30 2.957388 1_655
Na2 O50 2.252588 1_555
Na2 O14 2.326407 1_555
Na2 O71 2.405441 1_555
Na2 O49 2.493797 1_555
Na2 O69 2.644074 1_555
Na2 O35 2.882242 1_555
Na2 O6 2.953383 1_555
Na3 O48 2.270534 1_555
Na3 O13 2.328102 1_555
Na3 O49 2.377750 1_555
Na3 O70 2.494693 1_545
Na3 O71 2.677737 1_545
Na3 O8 2.917047 1_545
Na3 O34 2.945219 1_545
Na4 O65 2.448116 1_555
Na4 O44 2.461577 1_455
Na4 O63 2.533755 1_555
Na4 O12 2.553451 1_455
Na4 O43 2.632879 1_565
Na4 O8 2.750894 1_555
Na4 O29 2.766808 1_555
Na4 O22 2.791021 1_455
Na5 O63 2.447601 1_555
Na5 O42 2.453488 1_565
Na5 O64 2.476078 1_555
Na5 O44 2.698652 1_555
Na5 O13 2.716786 1_565
Na5 O27 2.728652 1_555
Na5 O6 2.782852 1_555
Na5 O23 2.784314 1_565
Na6 O38 2.485677 1_555
Na6 O43 2.587188 1_555
Na6 O37 2.594427 1_445
Na6 O36 2.596364 1_545
Na6 O42 2.633019 1_455
Na6 O44 2.716948 1_445
Na7 O45 2.556657 1_456
Na7 O47 2.570455 1_566
Na7 O41 2.580862 1_455
Na7 O40 2.597051 1_555
Na7 O39 2.628283 1_565
Na7 O46 2.660837 1_466
Na8 O48 2.307472 1_555
Na8 O50 2.332777 1_555
Na8 O55 2.582019 1_555
Na8 O49 2.723016 1_555
Na8 O56 2.761468 1_555
Na8 O54 2.766446 1_555
Na9 O52 2.361598 1_555
Na9 O53 2.388773 1_555
Na9 O57 2.513831 1_555
Na9 O59 2.695397 1_555
Na9 O58 2.708808 1_555
Na9 O51 2.727640 1_555
Na10 O61 2.527294 1_555
Na10 O60 2.528329 1_555
Na10 O66 2.613512 1_555
Na10 O62 2.620198 1_555
Na10 O68 2.627990 1_555
Na10 O67 2.713329 1_555
Na11 O65 2.537109 1_555
Na11 O64 2.583813 1_555
Na11 O70 2.590872 1_555
Na11 O69 2.597854 1_555
Na11 O71 2.659238 1_555
Na11 O63 2.665427 1_555
O0 Si0 1.649159 1_555
O0 Ta0 1.942613 1_555
O1 S0 1.483804 1_555
O1 Ta0 2.158194 1_665
O2 Si1 1.647050 1_555
O2 Ta0 1.915429 1_655
O3 S1 1.472666 1_555
O3 Ta1 2.180068 1_445
O4 Si2 1.650721 1_555
O4 Ta1 1.930192 1_555
O5 Si3 1.639952 1_555
O5 Ta1 1.922876 1_545
O6 Si3 1.674695 1_565
O6 Ta2 1.965739 1_555
O7 S1 1.490320 1_555
O7 Ta2 2.169198 1_445
O8 Si2 1.680994 1_455
O8 Ta2 1.969877 1_455
O9 S0 1.479411 1_555
O9 Ta3 2.250490 1_665
O10 Si1 1.663852 1_455
O10 Ta3 1.950516 1_555
O11 Si0 1.690008 1_565
O11 Ta3 1.903957 1_565
O12 Si4 1.596670 1_555
O12 Zn0 1.953989 1_555
O13 Si5 1.605230 1_555
O13 Zn0 2.088454 1_555
O14 Si6 1.591945 1_555
O14 Zn0 2.089771 1_555
O15 Si7 1.597063 1_555
O15 Zn1 2.034973 1_555
O16 S2 1.463169 1_555
O16 Zn1 2.098336 1_555
O17 Si8 1.595231 1_555
O17 Zn1 2.035148 1_555
O18 Si8 1.652569 1_555
O18 Ta4 1.942563 1_554
O19 Si7 1.659555 1_555
O19 Ta4 1.933600 1_554
O20 S2 1.483732 1_555
O20 Ta4 2.255803 1_554
O21 Si5 1.644955 1_555
O21 Ta5 1.961514 1_555
O22 Si6 1.647216 1_555
O22 Ta5 2.000721 1_555
O23 Si4 1.654756 1_555
O23 Ta5 1.994641 1_555
O24 Si9 1.607559 1_555
O24 Ta6 1.976701 1_556
O25 Si10 1.636538 1_555
O25 Ta6 1.893367 1_556
O26 Si11 1.618268 1_555
O26 Ta6 1.962010 1_556
O27 Si12 1.631063 1_555
O27 Ta7 1.967071 1_555
O28 Si13 1.622234 1_555
O28 Ta7 1.925504 1_555
O29 Si14 1.629798 1_555
O29 Ta7 1.978276 1_555
O30 Si14 1.667956 1_555
O30 Ta8 1.894417 1_555
O31 Si12 1.648748 1_555
O31 Ta8 1.916540 1_555
O32 Si13 1.640947 1_555
O32 Ta8 1.960831 1_555
O33 Si10 1.651313 1_555
O33 Ta9 1.924502 1_555
O34 Si11 1.675217 1_555
O34 Ta9 1.888838 1_555
O35 Si9 1.639226 1_555
O35 Ta9 1.964124 1_555
O36 Si14 1.626542 1_555
O36 Ta0 2.001761 1_565
O37 Si12 1.632594 1_555
O37 Ta0 1.982304 1_665
O38 Si13 1.650116 1_555
O38 Ta0 1.927252 1_555
O39 Si10 1.625633 1_555
O39 Ta1 1.979128 1_445
O40 Si11 1.630557 1_555
O40 Ta1 1.998184 1_455
O41 Si9 1.648498 1_555
O41 Ta1 1.923513 1_555
O42 Si4 1.659898 1_555
O42 Ta2 1.990546 1_545
O43 Si5 1.659385 1_555
O43 Ta2 1.988597 1_445
O44 Si6 1.715918 1_555
O44 Ta2 1.935223 1_555
O45 Si7 1.677092 1_555
O45 Ta3 1.965853 1_665
O46 S2 1.509098 1_555
O46 Ta3 2.190090 1_655
O47 Si8 1.704225 1_555
O47 Ta3 1.901913 1_555
O48 Si3 1.593729 1_555
O48 Zn0 2.196289 1_555
O49 S1 1.477902 1_555
O49 Zn0 2.519047 1_555
O50 Si2 1.592228 1_555
O50 Zn0 2.201860 1_555
O51 S0 1.474609 1_555
O51 Zn1 2.433917 1_555
O52 Si1 1.595725 1_555
O52 Zn1 2.149367 1_555
O53 Si0 1.590825 1_555
O53 Zn1 2.189271 1_555
O54 Si9 1.643800 1_555
O54 Ta4 1.926687 1_555
O55 Si10 1.624747 1_655
O55 Ta4 2.017541 1_555
O56 Si11 1.622686 1_545
O56 Ta4 1.995575 1_555
O57 Si12 1.627657 1_545
O57 Ta5 2.008402 1_555
O58 Si13 1.618492 1_555
O58 Ta5 2.003110 1_555
O59 Si14 1.621407 1_655
O59 Ta5 2.007855 1_555
O60 Si8 1.650153 1_555
O60 Ta6 1.979690 1_555
O61 Si7 1.663787 1_455
O61 Ta6 1.964725 1_555
O62 S2 1.496501 1_565
O62 Ta6 2.180888 1_555
O63 Si5 1.667268 1_565
O63 Ta7 2.031062 1_555
O64 Si6 1.645282 1_555
O64 Ta7 2.011388 1_555
O65 Si4 1.643083 1_455
O65 Ta7 1.974890 1_555
O66 Si0 1.657310 1_565
O66 Ta8 2.014006 1_555
O67 S0 1.501631 1_555
O67 Ta8 2.213552 1_555
O68 Si1 1.688211 1_455
O68 Ta8 2.048889 1_555
O69 S1 1.496349 1_555
O69 Ta9 2.234900 1_555
O70 Si2 1.661710 1_455
O70 Ta9 2.002049 1_555
O71 Si3 1.686303 1_565
O71 Ta9 2.050804 1_555
