# generated using pymatgen
data_K2H2IrCl5O
_symmetry_space_group_name_H-M   'P 1'
_cell_length_a   7.61483900
_cell_length_b   9.24448500
_cell_length_c   13.88716700
_cell_angle_alpha   90.00000000
_cell_angle_beta   90.00000000
_cell_angle_gamma   90.00000000
_symmetry_Int_Tables_number   1
_chemical_formula_structural   K2H2IrCl5O
_chemical_formula_sum   'K8 H8 Ir4 Cl20 O4'
_cell_volume   977.59079985
_cell_formula_units_Z   4
loop_
 _symmetry_equiv_pos_site_id
 _symmetry_equiv_pos_as_xyz
  1  'x, y, z'
loop_
 _atom_site_type_symbol
 _atom_site_label
 _atom_site_symmetry_multiplicity
 _atom_site_fract_x
 _atom_site_fract_y
 _atom_site_fract_z
 _atom_site_occupancy
  K  K0  1  0.37737400  0.49726400  0.65405500  1
  K  K1  1  0.87737400  0.99726400  0.84594500  1
  K  K2  1  0.37737400  0.00273600  0.65405500  1
  K  K3  1  0.12262600  0.49726400  0.15405500  1
  K  K4  1  0.12262600  0.00273600  0.15405500  1
  K  K5  1  0.62262600  0.99726400  0.34594500  1
  K  K6  1  0.62262600  0.50273600  0.34594500  1
  K  K7  1  0.87737400  0.50273600  0.84594500  1
  H  H0  1  0.47173700  0.66343500  0.96380000  1
  H  H1  1  0.97173700  0.33656500  0.53620000  1
  H  H2  1  0.52826300  0.16343500  0.03620000  1
  H  H3  1  0.02826300  0.83656500  0.46380000  1
  H  H4  1  0.02826300  0.66343500  0.46380000  1
  H  H5  1  0.47173700  0.83656500  0.96380000  1
  H  H6  1  0.52826300  0.33656500  0.03620000  1
  H  H7  1  0.97173700  0.16343500  0.53620000  1
  Ir  Ir0  1  0.30722500  0.25000000  0.89700800  1
  Ir  Ir1  1  0.80722500  0.75000000  0.60299200  1
  Ir  Ir2  1  0.69277500  0.75000000  0.10299200  1
  Ir  Ir3  1  0.19277500  0.25000000  0.39700800  1
  Cl  Cl0  1  0.42985900  0.75000000  0.19567200  1
  Cl  Cl1  1  0.07014100  0.75000000  0.69567200  1
  Cl  Cl2  1  0.57014100  0.25000000  0.80432800  1
  Cl  Cl3  1  0.19671100  0.50642100  0.39808300  1
  Cl  Cl4  1  0.19671100  0.99357900  0.39808300  1
  Cl  Cl5  1  0.69671100  0.00642100  0.10191700  1
  Cl  Cl6  1  0.80328900  0.49357900  0.60191700  1
  Cl  Cl7  1  0.04687600  0.25000000  0.99127400  1
  Cl  Cl8  1  0.80328900  0.00642100  0.60191700  1
  Cl  Cl9  1  0.30328900  0.99357900  0.89808300  1
  Cl  Cl10  1  0.30328900  0.50642100  0.89808300  1
  Cl  Cl11  1  0.69671100  0.49357900  0.10191700  1
  Cl  Cl12  1  0.36391000  0.25000000  0.25700600  1
  Cl  Cl13  1  0.86391000  0.75000000  0.24299400  1
  Cl  Cl14  1  0.63609000  0.75000000  0.74299400  1
  Cl  Cl15  1  0.13609000  0.25000000  0.75700600  1
  Cl  Cl16  1  0.45312400  0.25000000  0.49127400  1
  Cl  Cl17  1  0.95312400  0.75000000  0.00872600  1
  Cl  Cl18  1  0.54687600  0.75000000  0.50872600  1
  Cl  Cl19  1  0.92985900  0.25000000  0.30432800  1
  O  O0  1  0.45290300  0.25000000  0.02616600  1
  O  O1  1  0.54709700  0.75000000  0.97383400  1
  O  O2  1  0.04709700  0.25000000  0.52616600  1
  O  O3  1  0.95290300  0.75000000  0.47383400  1
loop_
_geom_bond_atom_site_label_1
_geom_bond_atom_site_label_2
_geom_bond_distance
_geom_bond_site_symmetry_2
H0 O1 0.994547 1_555
H1 O2 0.994547 1_655
H2 O0 0.994547 1_555
H3 O3 0.994547 1_455
H4 O3 0.994547 1_455
H5 O1 0.994547 1_555
H6 O0 0.994547 1_555
H7 O2 0.994547 1_655
Ir0 O0 2.108961 1_556
Ir1 O3 2.108961 1_555
Ir2 O1 2.108961 1_554
Ir3 O2 2.108961 1_555
Cl0 Ir2 2.380081 1_555
Cl0 K3 3.356523 1_555
Cl0 K4 3.356523 1_565
Cl0 K6 3.425598 1_555
Cl0 K5 3.425598 1_555
Cl1 Ir1 2.380081 1_455
Cl1 K0 3.356523 1_555
Cl1 K2 3.356523 1_565
Cl1 K7 3.425598 1_455
Cl1 K1 3.425598 1_455
Cl2 Ir0 2.380081 1_555
Cl2 K1 3.356523 1_545
Cl2 K7 3.356523 1_555
Cl2 K0 3.425598 1_555
Cl2 K2 3.425598 1_555
Cl3 Ir3 2.370717 1_555
Cl3 K6 3.323287 1_555
Cl3 K3 3.436536 1_555
Cl4 Ir3 2.370717 1_565
Cl4 K5 3.323287 1_555
Cl4 K4 3.436536 1_565
Cl5 Ir2 2.370717 1_545
Cl5 K4 3.323287 1_655
Cl5 K5 3.436536 1_545
Cl6 Ir1 2.370717 1_555
Cl6 K0 3.323287 1_555
Cl6 K7 3.436536 1_555
Cl7 Ir0 2.375727 1_555
Cl7 K4 3.266175 1_556
Cl7 K3 3.266175 1_556
Cl7 K7 3.346338 1_455
Cl7 K1 3.346338 1_445
Cl8 Ir1 2.370717 1_545
Cl8 K2 3.323287 1_555
Cl8 K1 3.436536 1_545
Cl9 Ir0 2.370717 1_565
Cl9 K1 3.323287 1_455
Cl9 K2 3.436536 1_565
Cl10 Ir0 2.370717 1_555
Cl10 K7 3.323287 1_455
Cl10 K0 3.436536 1_555
Cl11 Ir2 2.370717 1_555
Cl11 K3 3.323287 1_655
Cl11 K6 3.436536 1_555
Cl12 Ir3 2.340572 1_555
Cl12 K3 3.262646 1_555
Cl12 K4 3.262646 1_555
Cl12 K5 3.296293 1_545
Cl12 K6 3.296293 1_555
Cl13 Ir2 2.340572 1_555
Cl13 K6 3.262646 1_555
Cl13 K5 3.262646 1_555
Cl13 K4 3.296293 1_665
Cl13 K3 3.296293 1_655
Cl14 Ir1 2.340572 1_555
Cl14 K1 3.262646 1_555
Cl14 K7 3.262646 1_555
Cl14 K0 3.296293 1_555
Cl14 K2 3.296293 1_565
Cl15 Ir0 2.340572 1_555
Cl15 K0 3.262646 1_555
Cl15 K2 3.262646 1_555
Cl15 K7 3.296293 1_455
Cl15 K1 3.296293 1_445
Cl16 Ir3 2.375727 1_555
Cl16 K0 3.266175 1_555
Cl16 K2 3.266175 1_555
Cl16 K5 3.346338 1_545
Cl16 K6 3.346338 1_555
Cl17 Ir2 2.375727 1_555
Cl17 K7 3.266175 1_554
Cl17 K1 3.266175 1_554
Cl17 K3 3.346338 1_655
Cl17 K4 3.346338 1_665
Cl18 Ir1 2.375727 1_555
Cl18 K6 3.266175 1_555
Cl18 K5 3.266175 1_555
Cl18 K0 3.346338 1_555
Cl18 K2 3.346338 1_565
Cl19 Ir3 2.380081 1_655
Cl19 K5 3.356523 1_545
Cl19 K6 3.356523 1_555
Cl19 K3 3.425598 1_655
Cl19 K4 3.425598 1_655
