# generated using pymatgen
data_Y5C2I9
_symmetry_space_group_name_H-M   'P 1'
_cell_length_a   17.48356200
_cell_length_b   10.93215700
_cell_length_c   14.30690899
_cell_angle_alpha   58.41131532
_cell_angle_beta   90.00000000
_cell_angle_gamma   90.00000000
_symmetry_Int_Tables_number   1
_chemical_formula_structural   Y5C2I9
_chemical_formula_sum   'Y20 C8 I36'
_cell_volume   2329.34988378
_cell_formula_units_Z   4
loop_
 _symmetry_equiv_pos_site_id
 _symmetry_equiv_pos_as_xyz
  1  'x, y, z'
loop_
 _atom_site_type_symbol
 _atom_site_label
 _atom_site_symmetry_multiplicity
 _atom_site_fract_x
 _atom_site_fract_y
 _atom_site_fract_z
 _atom_site_occupancy
  Y  Y0  1  0.44682800  0.01240800  0.24744600  1
  Y  Y1  1  0.55789200  0.33812000  0.19912800  1
  Y  Y2  1  0.94210800  0.33812000  0.69912800  1
  Y  Y3  1  0.44210800  0.66188000  0.80087200  1
  Y  Y4  1  0.55317200  0.98759200  0.75255400  1
  Y  Y5  1  0.46086600  0.15129300  0.46647200  1
  Y  Y6  1  0.05789200  0.66188000  0.30087200  1
  Y  Y7  1  0.94682800  0.98759200  0.25255400  1
  Y  Y8  1  0.67919800  0.19840800  0.44614100  1
  Y  Y9  1  0.17919800  0.80159200  0.05385900  1
  Y  Y10  1  0.32080200  0.80159200  0.55385900  1
  Y  Y11  1  0.82080200  0.19840800  0.94614100  1
  Y  Y12  1  0.96086600  0.84870700  0.03352800  1
  Y  Y13  1  0.53913400  0.84870700  0.53352800  1
  Y  Y14  1  0.03913400  0.15129300  0.96647200  1
  Y  Y15  1  0.34442900  0.98387500  0.71643300  1
  Y  Y16  1  0.84442900  0.01612500  0.78356700  1
  Y  Y17  1  0.65557100  0.01612500  0.28356700  1
  Y  Y18  1  0.05317200  0.01240800  0.74744600  1
  Y  Y19  1  0.15557100  0.98387500  0.21643300  1
  C  C0  1  0.46926200  0.93046600  0.66234700  1
  C  C1  1  0.58431900  0.12228700  0.38331300  1
  C  C2  1  0.91568100  0.12228700  0.88331300  1
  C  C3  1  0.41568100  0.87771300  0.61668700  1
  C  C4  1  0.03073800  0.93046600  0.16234700  1
  C  C5  1  0.53073800  0.06953400  0.33765300  1
  C  C6  1  0.96926200  0.06953400  0.83765300  1
  C  C7  1  0.08431900  0.87771300  0.11668700  1
  I  I0  1  0.05828500  0.31584100  0.54307300  1
  I  I1  1  0.81893400  0.49579600  0.75041900  1
  I  I2  1  0.68106600  0.49579600  0.25041900  1
  I  I3  1  0.18106600  0.50420400  0.24958100  1
  I  I4  1  0.30263200  0.09431300  0.33215100  1
  I  I5  1  0.80263200  0.90568700  0.16784900  1
  I  I6  1  0.69736800  0.90568700  0.66784900  1
  I  I7  1  0.19736800  0.09431300  0.83215100  1
  I  I8  1  0.19233100  0.90647800  0.64183600  1
  I  I9  1  0.69233100  0.09352200  0.85816400  1
  I  I10  1  0.80766900  0.09352200  0.35816400  1
  I  I11  1  0.30766900  0.90647800  0.14183600  1
  I  I12  1  0.17341200  0.28129300  0.03316700  1
  I  I13  1  0.67341200  0.71870700  0.46683300  1
  I  I14  1  0.82658800  0.71870700  0.96683300  1
  I  I15  1  0.32658800  0.28129300  0.53316700  1
  I  I16  1  0.93743400  0.53614900  0.23420600  1
  I  I17  1  0.43743400  0.46385100  0.26579400  1
  I  I18  1  0.06256600  0.46385100  0.76579400  1
  I  I19  1  0.56256600  0.53614900  0.73420600  1
  I  I20  1  0.31893400  0.50420400  0.74958100  1
  I  I21  1  0.56547800  0.90990200  0.15499800  1
  I  I22  1  0.93452200  0.90990200  0.65499800  1
  I  I23  1  0.43452200  0.09009800  0.84500200  1
  I  I24  1  0.18316400  0.70079800  0.43917700  1
  I  I25  1  0.68316400  0.29920200  0.06082300  1
  I  I26  1  0.81683600  0.29920200  0.56082300  1
  I  I27  1  0.31683600  0.70079800  0.93917700  1
  I  I28  1  0.55828500  0.68415900  0.95692700  1
  I  I29  1  0.94171500  0.68415900  0.45692700  1
  I  I30  1  0.44171500  0.31584100  0.04307300  1
  I  I31  1  0.06675600  0.70065200  0.94328400  1
  I  I32  1  0.56675600  0.29934800  0.55671600  1
  I  I33  1  0.93324400  0.29934800  0.05671600  1
  I  I34  1  0.43324400  0.70065200  0.44328400  1
  I  I35  1  0.06547800  0.09009800  0.34500200  1
loop_
_geom_bond_atom_site_label_1
_geom_bond_atom_site_label_2
_geom_bond_distance
_geom_bond_site_symmetry_2
C0 C3 1.425334 1_555
C0 Y4 2.247714 1_555
C0 Y15 2.485242 1_555
C0 Y5 2.572014 1_565
C0 Y3 2.584219 1_555
C0 Y13 2.722796 1_555
C1 C5 1.425334 1_555
C1 Y8 2.244062 1_555
C1 Y1 2.492162 1_555
C1 Y5 2.563196 1_555
C1 Y17 2.582714 1_555
C1 Y13 2.730199 1_545
C2 C6 1.425334 1_555
C2 Y11 2.244062 1_555
C2 Y2 2.492162 1_555
C2 Y14 2.563196 1_655
C2 Y16 2.582714 1_555
C2 Y12 2.730199 1_546
C3 Y10 2.244062 1_555
C3 Y3 2.492162 1_555
C3 Y13 2.563196 1_555
C3 Y15 2.582714 1_555
C3 Y5 2.730199 1_565
C4 C7 1.425334 1_555
C4 Y7 2.247714 1_455
C4 Y19 2.485242 1_555
C4 Y14 2.572014 1_564
C4 Y6 2.584219 1_555
C4 Y12 2.722796 1_455
C5 Y0 2.247714 1_555
C5 Y17 2.485242 1_555
C5 Y13 2.572014 1_545
C5 Y1 2.584219 1_555
C5 Y5 2.722796 1_555
C6 Y18 2.247714 1_655
C6 Y16 2.485242 1_555
C6 Y12 2.572014 1_546
C6 Y2 2.584219 1_555
C6 Y14 2.722796 1_655
C7 Y9 2.244062 1_555
C7 Y6 2.492162 1_555
C7 Y12 2.563196 1_455
C7 Y19 2.582714 1_555
C7 Y14 2.730199 1_564
I0 Y18 3.065916 1_555
I0 Y2 3.120821 1_455
I0 Y6 3.547550 1_555
I1 Y11 2.978988 1_555
I1 Y2 3.077754 1_555
I2 Y8 2.978988 1_555
I2 Y1 3.077754 1_555
I3 Y9 2.978988 1_555
I3 Y6 3.077754 1_555
I4 Y0 3.124563 1_555
I4 Y10 3.125488 1_545
I4 Y19 3.592126 1_545
I4 Y5 3.603970 1_555
I5 Y7 3.124563 1_555
I5 Y11 3.125488 1_564
I5 Y17 3.592126 1_565
I5 Y12 3.603970 1_555
I6 Y4 3.124563 1_555
I6 Y8 3.125488 1_565
I6 Y16 3.592126 1_565
I6 Y13 3.603970 1_555
I7 Y18 3.124563 1_555
I7 Y9 3.125488 1_546
I7 Y15 3.592126 1_545
I7 Y14 3.603970 1_555
I8 Y10 3.075081 1_555
I8 Y15 3.142037 1_555
I8 Y18 3.372922 1_565
I9 Y11 3.075081 1_555
I9 Y16 3.142037 1_555
I9 Y4 3.372922 1_545
I10 Y8 3.075081 1_555
I10 Y17 3.142037 1_555
I10 Y7 3.372922 1_545
I11 Y9 3.075081 1_555
I11 Y19 3.142037 1_555
I11 Y0 3.372922 1_565
I12 Y19 2.934712 1_545
I12 Y14 3.140451 1_554
I13 Y17 2.934712 1_565
I13 Y13 3.140451 1_555
I14 Y16 2.934712 1_565
I14 Y12 3.140451 1_556
I15 Y15 2.934712 1_545
I15 Y5 3.140451 1_555
I16 Y6 2.933906 1_655
I16 Y12 3.131895 1_555
I17 Y1 2.933906 1_555
I17 Y5 3.131895 1_555
I18 Y2 2.933906 1_455
I18 Y14 3.131895 1_555
I19 Y3 2.933906 1_555
I19 Y13 3.131895 1_555
I20 Y10 2.978988 1_555
I20 Y3 3.077754 1_555
I21 Y0 2.976772 1_565
I21 Y17 3.074222 1_565
I22 Y18 2.976772 1_665
I22 Y16 3.074222 1_565
I23 Y4 2.976772 1_545
I23 Y15 3.074222 1_545
I24 Y19 3.103769 1_555
I24 Y6 3.126544 1_555
I24 Y10 3.404562 1_555
I25 Y17 3.103769 1_555
I25 Y1 3.126544 1_555
I25 Y11 3.404562 1_554
I26 Y16 3.103769 1_555
I26 Y2 3.126544 1_555
I26 Y8 3.404562 1_555
I27 Y15 3.103769 1_555
I27 Y3 3.126544 1_555
I27 Y9 3.404562 1_556
I28 Y4 3.065916 1_555
I28 Y3 3.120821 1_555
I28 Y1 3.547550 1_556
I29 Y7 3.065916 1_555
I29 Y6 3.120821 1_655
I29 Y2 3.547550 1_555
I30 Y0 3.065916 1_555
I30 Y1 3.120821 1_555
I30 Y3 3.547550 1_554
I31 Y9 3.068217 1_556
I31 Y18 3.085172 1_565
I31 Y12 3.146973 1_456
I32 Y8 3.068217 1_555
I32 Y4 3.085172 1_545
I32 Y5 3.146973 1_555
I33 Y11 3.068217 1_554
I33 Y7 3.085172 1_545
I33 Y14 3.146973 1_654
I34 Y10 3.068217 1_555
I34 Y0 3.085172 1_565
I34 Y13 3.146973 1_555
I35 Y7 2.976772 1_445
I35 Y19 3.074222 1_545
