# generated using pymatgen
data_RbTlF4
_symmetry_space_group_name_H-M   'P 1'
_cell_length_a   6.22203857
_cell_length_b   8.29285434
_cell_length_c   8.42602698
_cell_angle_alpha   90.00000000
_cell_angle_beta   90.00000000
_cell_angle_gamma   90.00000000
_symmetry_Int_Tables_number   1
_chemical_formula_structural   RbTlF4
_chemical_formula_sum   'Rb4 Tl4 F16'
_cell_volume   434.77001237
_cell_formula_units_Z   4
loop_
 _symmetry_equiv_pos_site_id
 _symmetry_equiv_pos_as_xyz
  1  'x, y, z'
loop_
 _atom_site_type_symbol
 _atom_site_label
 _atom_site_symmetry_multiplicity
 _atom_site_fract_x
 _atom_site_fract_y
 _atom_site_fract_z
 _atom_site_occupancy
  Rb  Rb0  1  0.48359105  0.18953531  0.75000000  1
  Rb  Rb1  1  0.51640895  0.81046469  0.25000000  1
  Rb  Rb2  1  0.51640895  0.68953531  0.75000000  1
  Rb  Rb3  1  0.48359105  0.31046469  0.25000000  1
  Tl  Tl0  1  -0.00000000  0.00000000  0.00000000  1
  Tl  Tl1  1  -0.00000000  0.00000000  0.50000000  1
  Tl  Tl2  1  -0.00000000  0.50000000  0.00000000  1
  Tl  Tl3  1  -0.00000000  0.50000000  0.50000000  1
  F  F0  1  0.69689286  0.42264699  0.56720023  1
  F  F1  1  0.30310714  0.57735301  0.06720023  1
  F  F2  1  0.30310714  0.92264699  0.56720023  1
  F  F3  1  0.69689286  0.07735301  0.06720023  1
  F  F4  1  0.30310714  0.57735301  0.43279977  1
  F  F5  1  0.69689286  0.42264699  0.93279977  1
  F  F6  1  0.69689286  0.07735301  0.43279977  1
  F  F7  1  0.30310714  0.92264699  0.93279977  1
  F  F8  1  0.14123137  0.25000000  0.00000000  1
  F  F9  1  0.85876863  0.75000000  0.50000000  1
  F  F10  1  0.85876863  0.75000000  0.00000000  1
  F  F11  1  0.14123137  0.25000000  0.50000000  1
  F  F12  1  0.88602771  0.02508450  0.75000000  1
  F  F13  1  0.11397229  0.97491550  0.25000000  1
  F  F14  1  0.11397229  0.52508450  0.75000000  1
  F  F15  1  0.88602771  0.47491550  0.25000000  1
loop_
_geom_bond_atom_site_label_1
_geom_bond_atom_site_label_2
_geom_bond_distance
_geom_bond_site_symmetry_2
F0 Tl3 2.070965 1_655
F0 Rb0 2.805521 1_555
F0 Rb2 2.920972 1_555
F0 Rb3 3.125763 1_555
F1 Tl2 2.070965 1_555
F1 Rb1 2.805521 1_555
F1 Rb3 2.920972 1_555
F1 Rb2 3.125763 1_554
F2 Tl1 2.070965 1_565
F2 Rb2 2.805521 1_555
F2 Rb0 2.920972 1_565
F2 Rb1 3.125763 1_555
F3 Tl0 2.070965 1_655
F3 Rb3 2.805521 1_555
F3 Rb1 2.920972 1_545
F3 Rb0 3.125763 1_554
F4 Tl3 2.070965 1_555
F4 Rb1 2.805521 1_555
F4 Rb3 2.920972 1_555
F4 Rb2 3.125763 1_555
F5 Tl2 2.070965 1_656
F5 Rb0 2.805521 1_555
F5 Rb2 2.920972 1_555
F5 Rb3 3.125763 1_556
F6 Tl1 2.070965 1_655
F6 Rb3 2.805521 1_555
F6 Rb1 2.920972 1_545
F6 Rb0 3.125763 1_555
F7 Tl0 2.070965 1_566
F7 Rb2 2.805521 1_555
F7 Rb0 2.920972 1_565
F7 Rb1 3.125763 1_556
F8 Tl0 2.251757 1_555
F8 Tl2 2.251757 1_555
F8 Rb3 3.037506 1_555
F8 Rb0 3.037506 1_554
F9 Tl3 2.251757 1_655
F9 Tl1 2.251757 1_665
F9 Rb1 3.037506 1_555
F9 Rb2 3.037506 1_555
F10 Tl2 2.251757 1_655
F10 Tl0 2.251757 1_665
F10 Rb1 3.037506 1_555
F10 Rb2 3.037506 1_554
F11 Tl1 2.251757 1_555
F11 Tl3 2.251757 1_555
F11 Rb3 3.037506 1_555
F11 Rb0 3.037506 1_555
F12 Tl0 2.232381 1_656
F12 Tl1 2.232381 1_655
F12 Rb0 2.851273 1_555
F13 Tl1 2.232381 1_565
F13 Tl0 2.232381 1_565
F13 Rb1 2.851273 1_555
F14 Tl3 2.232381 1_555
F14 Tl2 2.232381 1_556
F14 Rb2 2.851273 1_555
F15 Tl3 2.232381 1_655
F15 Tl2 2.232381 1_655
F15 Rb3 2.851273 1_555
