# generated using pymatgen
data_NbAl3SiS5O24
_symmetry_space_group_name_H-M   'P 1'
_cell_length_a   8.46221819
_cell_length_b   8.47901561
_cell_length_c   21.95030624
_cell_angle_alpha   89.97649586
_cell_angle_beta   90.06285740
_cell_angle_gamma   119.95455390
_symmetry_Int_Tables_number   1
_chemical_formula_structural   NbAl3SiS5O24
_chemical_formula_sum   'Nb3 Al9 Si3 S15 O72'
_cell_volume   1364.58094759
_cell_formula_units_Z   3
loop_
 _symmetry_equiv_pos_site_id
 _symmetry_equiv_pos_as_xyz
  1  'x, y, z'
loop_
 _atom_site_type_symbol
 _atom_site_label
 _atom_site_symmetry_multiplicity
 _atom_site_fract_x
 _atom_site_fract_y
 _atom_site_fract_z
 _atom_site_occupancy
  Nb  Nb0  1  0.67302695  0.33987792  0.97479367  1
  Nb  Nb1  1  0.33281680  0.67286020  0.30651610  1
  Nb  Nb2  1  0.32928775  0.65490703  0.81193100  1
  Al  Al0  1  0.01016644  0.00381422  0.35243445  1
  Al  Al1  1  0.99490332  0.99916271  0.85798577  1
  Al  Al2  1  0.99901765  0.99893321  0.64504435  1
  Al  Al3  1  0.00676248  0.99668850  0.14379807  1
  Al  Al4  1  0.66816263  0.33393689  0.68666252  1
  Al  Al5  1  0.65715289  0.32396781  0.18668314  1
  Al  Al6  1  0.66531170  0.33300543  0.48128162  1
  Al  Al7  1  0.33735673  0.65888409  0.02123533  1
  Al  Al8  1  0.33318147  0.66512281  0.52212172  1
  Si  Si0  1  0.28660558  0.02369840  0.24757831  1
  Si  Si1  1  0.62869555  0.68392335  0.92075665  1
  Si  Si2  1  0.05657835  0.37108361  0.92062657  1
  S  S0  1  0.72619806  0.71474109  0.24869395  1
  S  S1  1  0.98854374  0.27515022  0.24877061  1
  S  S2  1  0.28716478  0.27536536  0.74703387  1
  S  S3  1  0.99195030  0.71413729  0.74719976  1
  S  S4  1  0.72050636  0.00975307  0.74685228  1
  S  S5  1  0.95478158  0.33311271  0.58323479  1
  S  S6  1  0.37831280  0.04486279  0.58334628  1
  S  S7  1  0.66688789  0.62158084  0.58333407  1
  S  S8  1  0.96043453  0.62627793  0.08678053  1
  S  S9  1  0.66670605  0.03753379  0.08604605  1
  S  S10  1  0.37270314  0.33377906  0.08604666  1
  S  S11  1  0.32364077  0.94816788  0.91789816  1
  S  S12  1  0.62856119  0.96012184  0.41926888  1
  S  S13  1  0.33305073  0.37361182  0.41973359  1
  S  S14  1  0.03887253  0.66585033  0.41989428  1
  O  O0  1  0.19667211  0.03416697  0.31046920  1
  O  O1  1  0.82632677  0.79549249  0.30539617  1
  O  O2  1  0.96030606  0.17020234  0.30510640  1
  O  O3  1  0.20806887  0.16881030  0.80240657  1
  O  O4  1  0.96614946  0.79539117  0.80247245  1
  O  O5  1  0.83036677  0.03846452  0.80176635  1
  O  O6  1  0.80140632  0.97376187  0.69272209  1
  O  O7  1  0.17081685  0.19646422  0.69300596  1
  O  O8  1  0.02498150  0.82925352  0.69284140  1
  O  O9  1  0.79448525  0.83127842  0.19496419  1
  O  O10  1  0.02858906  0.20078302  0.19496647  1
  O  O11  1  0.15453110  0.96265728  0.19020864  1
  O  O12  1  0.87221431  0.36809485  0.63749424  1
  O  O13  1  0.49579596  0.12789753  0.63763541  1
  O  O14  1  0.63191484  0.50403460  0.63762273  1
  O  O15  1  0.87059264  0.50534996  0.13937051  1
  O  O16  1  0.63822907  0.12861110  0.13879018  1
  O  O17  1  0.49463993  0.36734057  0.13873475  1
  O  O18  1  0.45249177  0.29664404  0.03128920  1
  O  O19  1  0.84280823  0.54202408  0.03105046  1
  O  O20  1  0.70173079  0.15319286  0.03079939  1
  O  O21  1  0.46144112  0.16177468  0.52894269  1
  O  O22  1  0.70099174  0.53878690  0.52894425  1
  O  O23  1  0.83765186  0.29932098  0.52881620  1
  O  O24  1  0.53250131  0.71020246  0.97786137  1
  O  O25  1  0.17005019  0.47527012  0.97842744  1
  O  O26  1  0.29538301  0.83980813  0.97250848  1
  O  O27  1  0.53979342  0.83915795  0.47209884  1
  O  O28  1  0.30245782  0.46361476  0.47295151  1
  O  O29  1  0.16169947  0.69937036  0.47246616  1
  O  O30  1  0.12096437  0.62983318  0.36445777  1
  O  O31  1  0.51006673  0.87785048  0.36381662  1
  O  O32  1  0.36942473  0.48884872  0.36457722  1
  O  O33  1  0.12848217  0.50353703  0.85781771  1
  O  O34  1  0.36746057  0.87566037  0.86175729  1
  O  O35  1  0.49751110  0.63257730  0.85813583  1
  O  O36  1  0.01914602  0.82586677  0.40989973  1
  O  O37  1  0.80641656  0.97590209  0.40737240  1
  O  O38  1  0.16739900  0.19619229  0.41086587  1
  O  O39  1  0.03606544  0.18397366  0.90277194  1
  O  O40  1  0.16875696  0.97059677  0.90590365  1
  O  O41  1  0.82382605  0.83789028  0.90324499  1
  O  O42  1  0.97474140  0.17153336  0.59296625  1
  O  O43  1  0.19673948  0.02558765  0.59299099  1
  O  O44  1  0.82868114  0.80300393  0.59285113  1
  O  O45  1  0.96805934  0.80196977  0.09223501  1
  O  O46  1  0.83018587  0.02103406  0.09548245  1
  O  O47  1  0.19155838  0.17267644  0.09360338  1
  O  O48  1  0.69839147  0.17065936  0.73769003  1
  O  O49  1  0.47205565  0.30316265  0.73817083  1
  O  O50  1  0.83223247  0.53028608  0.73831813  1
  O  O51  1  0.70137780  0.53327449  0.24004201  1
  O  O52  1  0.83805503  0.31034564  0.24031772  1
  O  O53  1  0.49198500  0.18040662  0.23876106  1
  O  O54  1  0.63285869  0.49223392  0.92609701  1
  O  O55  1  0.85418208  0.35309526  0.92572189  1
  O  O56  1  0.48949980  0.12933887  0.92452197  1
  O  O57  1  0.64376165  0.13930744  0.42855163  1
  O  O58  1  0.49635871  0.35560098  0.42942303  1
  O  O59  1  0.85987729  0.50078302  0.42883072  1
  O  O60  1  0.35842622  0.49821529  0.07853995  1
  O  O61  1  0.14022290  0.64610066  0.07680174  1
  O  O62  1  0.50049186  0.86115133  0.07711421  1
  O  O63  1  0.35966762  0.86336368  0.57302435  1
  O  O64  1  0.50378551  0.64040717  0.57327341  1
  O  O65  1  0.13628801  0.49617764  0.57317805  1
  O  O66  1  0.30787622  0.83352737  0.25999351  1
  O  O67  1  0.53662217  0.69103936  0.25819091  1
  O  O68  1  0.15890025  0.46024436  0.25816368  1
  O  O69  1  0.30555332  0.46050544  0.75237890  1
  O  O70  1  0.15783869  0.69713735  0.75290127  1
  O  O71  1  0.53577797  0.84796761  0.75353099  1
loop_
_geom_bond_atom_site_label_1
_geom_bond_atom_site_label_2
_geom_bond_distance
_geom_bond_site_symmetry_2
Nb0 O55 1.831601 1_555
Nb0 O54 1.833985 1_555
Nb0 O56 2.011381 1_555
Nb0 O19 2.016314 1_556
Nb0 O20 2.111298 1_556
Nb0 O18 2.115776 1_556
Nb1 O66 1.796867 1_555
Nb1 O67 1.965137 1_555
Nb1 O68 1.972568 1_555
Nb1 O31 2.060822 1_555
Nb1 O30 2.077516 1_555
Nb1 O32 2.152841 1_555
Nb2 O35 1.832150 1_555
Nb2 O33 1.836853 1_555
Nb2 O69 2.033880 1_555
Nb2 O34 2.049673 1_555
Nb2 O70 2.103884 1_555
Nb2 O71 2.126722 1_555
Al0 O0 1.732918 1_555
Al0 O2 1.959572 1_455
Al0 O1 1.964717 1_445
Al0 O38 1.976540 1_555
Al0 O36 1.996525 1_545
Al0 O37 2.019860 1_445
Al1 O41 1.725623 1_555
Al1 O39 1.731683 1_665
Al1 O40 1.918753 1_655
Al1 O5 2.007922 1_565
Al1 O4 2.027439 1_555
Al1 O3 2.055133 1_665
Al2 O8 1.879585 1_655
Al2 O6 1.893251 1_555
Al2 O7 1.895669 1_665
Al2 O44 1.938226 1_555
Al2 O43 1.944846 1_665
Al2 O42 1.946552 1_565
Al3 O11 1.744127 1_555
Al3 O47 1.886315 1_565
Al3 O45 1.890741 1_455
Al3 O46 1.924696 1_465
Al3 O9 1.985563 1_455
Al3 O10 1.993053 1_565
Al4 O48 1.894307 1_555
Al4 O49 1.916190 1_555
Al4 O50 1.916975 1_555
Al4 O12 1.932535 1_555
Al4 O14 1.942347 1_555
Al4 O13 1.947074 1_555
Al5 O53 1.745090 1_555
Al5 O16 1.900194 1_555
Al5 O17 1.906766 1_555
Al5 O52 1.978717 1_555
Al5 O15 1.983658 1_555
Al5 O51 1.999741 1_555
Al6 O58 1.909540 1_555
Al6 O21 1.918360 1_555
Al6 O22 1.924796 1_555
Al6 O23 1.926006 1_555
Al6 O59 1.929742 1_555
Al6 O57 1.942241 1_555
Al7 O24 1.763037 1_554
Al7 O25 1.763047 1_554
Al7 O60 1.926277 1_555
Al7 O62 1.996296 1_555
Al7 O61 2.026342 1_555
Al7 O26 2.040938 1_554
Al8 O64 1.920209 1_555
Al8 O65 1.924417 1_555
Al8 O28 1.925891 1_555
Al8 O63 1.936184 1_555
Al8 O29 1.948113 1_555
Al8 O27 1.966336 1_555
O0 Si0 1.600822 1_555
O1 S0 1.467951 1_555
O2 S1 1.471562 1_555
O3 S2 1.462389 1_555
O4 S3 1.464851 1_555
O5 S4 1.465692 1_555
O6 S4 1.477927 1_565
O7 S2 1.470943 1_555
O8 S3 1.477110 1_455
O9 S0 1.459994 1_555
O10 S1 1.456749 1_455
O11 Si0 1.588263 1_565
O12 S5 1.484503 1_555
O13 S6 1.484327 1_555
O14 S7 1.485337 1_555
O15 S8 1.477969 1_555
O16 S9 1.477161 1_555
O17 S10 1.479076 1_555
O18 S10 1.487980 1_555
O19 S8 1.511790 1_555
O20 S9 1.493224 1_555
O21 S6 1.485958 1_555
O22 S7 1.484992 1_555
O23 S5 1.485075 1_555
O24 Si1 1.570684 1_555
O25 Si2 1.569488 1_555
O26 S11 1.455535 1_555
O27 S12 1.480719 1_555
O28 S13 1.487501 1_555
O29 S14 1.481683 1_555
O30 S14 1.506844 1_555
O31 S12 1.507693 1_555
O32 S13 1.488206 1_555
O33 Si2 1.688320 1_555
O34 S11 1.504441 1_555
O35 Si1 1.681003 1_555
O36 S14 1.463798 1_555
O37 S12 1.466630 1_555
O38 S13 1.469594 1_555
O39 Si2 1.557589 1_555
O40 S11 1.439246 1_555
O41 Si1 1.557854 1_555
O42 S5 1.477131 1_555
O43 S6 1.477266 1_555
O44 S7 1.476788 1_555
O45 S8 1.463499 1_555
O46 S9 1.472718 1_555
O47 S10 1.467149 1_555
O48 S4 1.480378 1_555
O49 S2 1.474349 1_555
O50 S3 1.480027 1_555
O51 S0 1.457764 1_555
O52 S1 1.457446 1_555
O53 Si0 1.586796 1_555
O54 Si1 1.647337 1_555
O55 Si2 1.645820 1_655
O56 S11 1.482386 1_545
O57 S12 1.473576 1_545
O58 S13 1.479330 1_555
O59 S14 1.474803 1_655
O60 S10 1.467543 1_555
O61 S8 1.461591 1_455
O62 S9 1.467119 1_565
O63 S6 1.484006 1_565
O64 S7 1.482749 1_555
O65 S5 1.483002 1_455
O66 Si0 1.730917 1_565
O67 S0 1.528447 1_555
O68 S1 1.524478 1_455
O69 S2 1.502811 1_555
O70 S3 1.486175 1_455
O71 S4 1.485196 1_565
