# generated using pymatgen
data_NaNbZn3(SO4)6
_symmetry_space_group_name_H-M   'P 1'
_cell_length_a   8.73810978
_cell_length_b   8.73810950
_cell_length_c   22.66527079
_cell_angle_alpha   90.00000000
_cell_angle_beta   90.00000000
_cell_angle_gamma   120.00000105
_symmetry_Int_Tables_number   1
_chemical_formula_structural   NaNbZn3(SO4)6
_chemical_formula_sum   'Na3 Nb3 Zn9 S18 O72'
_cell_volume   1498.74075997
_cell_formula_units_Z   3
loop_
 _symmetry_equiv_pos_site_id
 _symmetry_equiv_pos_as_xyz
  1  'x, y, z'
loop_
 _atom_site_type_symbol
 _atom_site_label
 _atom_site_symmetry_multiplicity
 _atom_site_fract_x
 _atom_site_fract_y
 _atom_site_fract_z
 _atom_site_occupancy
  Na  Na0  1  0.00000000  0.00000000  0.00291450  1
  Na  Na1  1  0.66666700  0.33333300  0.83632274  1
  Na  Na2  1  0.66666700  0.33333300  0.32557835  1
  Nb  Nb0  1  0.00000000  -0.00000000  0.64795143  1
  Nb  Nb1  1  0.33333300  0.66666700  0.02371169  1
  Nb  Nb2  1  0.33333300  0.66666700  0.51466227  1
  Zn  Zn0  1  0.00000000  0.00000000  0.34338597  1
  Zn  Zn1  1  0.00000000  -0.00000000  0.85566745  1
  Zn  Zn2  1  0.00000000  -0.00000000  0.16086601  1
  Zn  Zn3  1  0.66666700  0.33333300  0.68352956  1
  Zn  Zn4  1  0.66666700  0.33333300  0.18928251  1
  Zn  Zn5  1  0.66666700  0.33333300  0.98478444  1
  Zn  Zn6  1  0.66666700  0.33333300  0.48086619  1
  Zn  Zn7  1  0.33333300  0.66666700  0.30295252  1
  Zn  Zn8  1  0.33333300  0.66666700  0.81408977  1
  S  S0  1  0.29648435  0.00332728  0.25092546  1
  S  S1  1  0.70684292  0.70351565  0.25092546  1
  S  S2  1  0.99667272  0.29315708  0.25092546  1
  S  S3  1  0.29488529  0.29239016  0.75211812  1
  S  S4  1  0.99750486  0.70511471  0.75211812  1
  S  S5  1  0.70760984  0.00249514  0.75211812  1
  S  S6  1  0.95825691  0.33555247  0.58375142  1
  S  S7  1  0.37729656  0.04174309  0.58375142  1
  S  S8  1  0.66444753  0.62270344  0.58375142  1
  S  S9  1  0.95297443  0.62853730  0.08230684  1
  S  S10  1  0.67556386  0.04702557  0.08230684  1
  S  S11  1  0.37146270  0.32443614  0.08230684  1
  S  S12  1  0.62431328  0.66472142  0.91560823  1
  S  S13  1  0.04040714  0.37568672  0.91560823  1
  S  S14  1  0.33527858  0.95959286  0.91560823  1
  S  S15  1  0.62912920  0.96377438  0.41336872  1
  S  S16  1  0.33464418  0.37087080  0.41336872  1
  S  S17  1  0.03622562  0.66535582  0.41336872  1
  O  O0  1  0.21844954  0.03460863  0.30478901  1
  O  O1  1  0.81615909  0.78155046  0.30478901  1
  O  O2  1  0.96539137  0.18384091  0.30478901  1
  O  O3  1  0.21113851  0.17923230  0.80358588  1
  O  O4  1  0.96809379  0.78886149  0.80358588  1
  O  O5  1  0.82076770  0.03190621  0.80358588  1
  O  O6  1  0.80687443  0.98520604  0.69694051  1
  O  O7  1  0.17833161  0.19312557  0.69694051  1
  O  O8  1  0.01479396  0.82166839  0.69694051  1
  O  O9  1  0.78456512  0.80734646  0.19647297  1
  O  O10  1  0.02278135  0.21543488  0.19647297  1
  O  O11  1  0.19265353  0.97721865  0.19647297  1
  O  O12  1  0.88546648  0.36858993  0.63705559  1
  O  O13  1  0.48312445  0.11453352  0.63705559  1
  O  O14  1  0.63141007  0.51687555  0.63705559  1
  O  O15  1  0.88486732  0.51821010  0.13423788  1
  O  O16  1  0.63334377  0.11513267  0.13423788  1
  O  O17  1  0.48178990  0.36665623  0.13423788  1
  O  O18  1  0.44951213  0.30171716  0.02775549  1
  O  O19  1  0.85220603  0.55048787  0.02775549  1
  O  O20  1  0.69828284  0.14779397  0.02775549  1
  O  O21  1  0.44654968  0.15137132  0.53122440  1
  O  O22  1  0.70482263  0.55345032  0.53122440  1
  O  O23  1  0.84862868  0.29517737  0.53122440  1
  O  O24  1  0.53012094  0.68403686  0.96929413  1
  O  O25  1  0.15391492  0.46987906  0.96929413  1
  O  O26  1  0.31596314  0.84608508  0.96929413  1
  O  O27  1  0.52654286  0.84482218  0.47083322  1
  O  O28  1  0.31827831  0.47345714  0.47083322  1
  O  O29  1  0.15517782  0.68172169  0.47083322  1
  O  O30  1  0.12389255  0.63595358  0.36411495  1
  O  O31  1  0.51206003  0.87610745  0.36411495  1
  O  O32  1  0.36404642  0.48793997  0.36411495  1
  O  O33  1  0.12181965  0.48017029  0.86207941  1
  O  O34  1  0.35834964  0.87818035  0.86207941  1
  O  O35  1  0.51982971  0.64165036  0.86207941  1
  O  O36  1  0.03156436  0.82849820  0.41417624  1
  O  O37  1  0.79693384  0.96843564  0.41417624  1
  O  O38  1  0.17150180  0.20306616  0.41417624  1
  O  O39  1  0.03208969  0.20200563  0.91488492  1
  O  O40  1  0.16991594  0.96791031  0.91488492  1
  O  O41  1  0.79799437  0.83008406  0.91488492  1
  O  O42  1  0.98316593  0.17663050  0.59466315  1
  O  O43  1  0.19346457  0.01683407  0.59466315  1
  O  O44  1  0.82336950  0.80653543  0.59466315  1
  O  O45  1  0.98721908  0.80957398  0.08801537  1
  O  O46  1  0.82235490  0.01278092  0.08801537  1
  O  O47  1  0.19042602  0.17764510  0.08801537  1
  O  O48  1  0.69212167  0.16078369  0.74250630  1
  O  O49  1  0.46866302  0.30787833  0.74250630  1
  O  O50  1  0.83921631  0.53133698  0.74250630  1
  O  O51  1  0.68898060  0.52501054  0.24587353  1
  O  O52  1  0.83603094  0.31101940  0.24587353  1
  O  O53  1  0.47498946  0.16396906  0.24587353  1
  O  O54  1  0.64227858  0.50699014  0.92287913  1
  O  O55  1  0.86471256  0.35772142  0.92287913  1
  O  O56  1  0.49300986  0.13528744  0.92287913  1
  O  O57  1  0.64087475  0.13499180  0.42515186  1
  O  O58  1  0.49411805  0.35912525  0.42515186  1
  O  O59  1  0.86500820  0.50588195  0.42515186  1
  O  O60  1  0.35424045  0.49377399  0.07094602  1
  O  O61  1  0.13953254  0.64575955  0.07094602  1
  O  O62  1  0.50622601  0.86046746  0.07094602  1
  O  O63  1  0.34842095  0.86000358  0.57432121  1
  O  O64  1  0.51158163  0.65157905  0.57432121  1
  O  O65  1  0.13999642  0.48841837  0.57432121  1
  O  O66  1  0.31153730  0.84444828  0.25708149  1
  O  O67  1  0.53290997  0.68846270  0.25708149  1
  O  O68  1  0.15555172  0.46709003  0.25708149  1
  O  O69  1  0.30057507  0.46141713  0.75307206  1
  O  O70  1  0.16084107  0.69942493  0.75307206  1
  O  O71  1  0.53858287  0.83915893  0.75307206  1
loop_
_geom_bond_atom_site_label_1
_geom_bond_atom_site_label_2
_geom_bond_distance
_geom_bond_site_symmetry_2
Na0 O45 2.513129 1_445
Na0 O47 2.513129 1_555
Na0 O46 2.513129 1_455
Na0 O39 2.584627 1_554
Na0 O41 2.584627 1_444
Na0 O40 2.584627 1_544
Na1 O56 2.553460 1_555
Na1 O54 2.553460 1_555
Na1 O55 2.553460 1_555
Na1 O50 2.679483 1_555
Na1 O48 2.679483 1_555
Na1 O49 2.679484 1_555
Na2 O51 2.404223 1_555
Na2 O53 2.404223 1_555
Na2 O52 2.404223 1_555
Na2 O57 2.785200 1_555
Na2 O59 2.785200 1_555
Na2 O58 2.785200 1_555
Nb0 O7 1.969586 1_555
Nb0 O8 1.969586 1_545
Nb0 O6 1.969587 1_445
Nb0 O44 2.022269 1_445
Nb0 O42 2.022269 1_455
Nb0 O43 2.022269 1_555
Nb1 O62 1.933367 1_555
Nb1 O60 1.933367 1_555
Nb1 O61 1.933367 1_555
Nb1 O25 2.059165 1_554
Nb1 O26 2.059165 1_554
Nb1 O24 2.059165 1_554
Nb2 O28 1.905878 1_555
Nb2 O27 1.905878 1_555
Nb2 O29 1.905878 1_555
Nb2 O63 2.115920 1_555
Nb2 O65 2.115920 1_555
Nb2 O64 2.115920 1_555
O0 S0 1.488787 1_555
O0 Zn0 1.980693 1_555
O1 S1 1.488787 1_555
O1 Zn0 1.980693 1_665
O2 S2 1.488787 1_555
O2 Zn0 1.980693 1_655
O3 S3 1.466432 1_555
O3 Zn1 2.088217 1_555
O4 S4 1.466432 1_555
O4 Zn1 2.088217 1_665
O5 S5 1.466432 1_555
O5 Zn1 2.088217 1_655
O6 S5 1.571706 1_565
O7 S3 1.571705 1_555
O8 S4 1.571705 1_455
O9 S1 1.480347 1_555
O9 Zn2 1.964684 1_665
O10 S2 1.480347 1_455
O10 Zn2 1.964684 1_555
O11 S0 1.480347 1_565
O11 Zn2 1.964684 1_565
O12 S6 1.459847 1_555
O12 Zn3 2.066585 1_555
O13 S7 1.459847 1_555
O13 Zn3 2.066585 1_555
O14 S8 1.459847 1_555
O14 Zn3 2.066585 1_555
O15 S9 1.447494 1_555
O15 Zn4 2.172892 1_555
O16 S10 1.447494 1_555
O16 Zn4 2.172892 1_555
O17 S11 1.447494 1_555
O17 Zn4 2.172892 1_555
O18 S11 1.472640 1_555
O18 Zn5 2.025162 1_554
O19 S9 1.472640 1_555
O19 Zn5 2.025162 1_554
O20 S10 1.472640 1_555
O20 Zn5 2.025162 1_554
O21 S7 1.456552 1_555
O21 Zn6 2.114743 1_555
O22 S8 1.456552 1_555
O22 Zn6 2.114743 1_555
O23 S6 1.456552 1_555
O23 Zn6 2.114743 1_555
O24 S12 1.524943 1_555
O25 S13 1.524943 1_555
O26 S14 1.524943 1_555
O27 S15 1.627442 1_555
O28 S16 1.627442 1_555
O29 S17 1.627442 1_555
O30 S17 1.447715 1_555
O30 Zn7 2.202704 1_555
O31 S15 1.447715 1_555
O31 Zn7 2.202704 1_555
O32 S16 1.447715 1_555
O32 Zn7 2.202704 1_555
O33 S13 1.470407 1_555
O33 Zn8 2.059805 1_555
O34 S14 1.470407 1_555
O34 Zn8 2.059805 1_555
O35 S12 1.470407 1_555
O35 Zn8 2.059805 1_555
O36 S17 1.446467 1_555
O36 Zn0 2.304251 1_565
O37 S15 1.446476 1_555
O37 Zn0 2.304251 1_665
O38 S16 1.446472 1_555
O38 Zn0 2.304251 1_555
O39 S13 1.482732 1_555
O39 Zn1 2.121524 1_555
O40 S14 1.482724 1_555
O40 Zn1 2.121524 1_565
O41 S12 1.482728 1_555
O41 Zn1 2.121524 1_665
O42 S6 1.529452 1_555
O43 S7 1.529460 1_555
O44 S8 1.529457 1_555
O45 S9 1.461295 1_555
O45 Zn2 2.306904 1_665
O46 S10 1.461287 1_555
O46 Zn2 2.306904 1_655
O47 S11 1.461292 1_555
O47 Zn2 2.306904 1_555
O48 S5 1.471751 1_555
O48 Zn3 2.108315 1_555
O49 S3 1.471760 1_555
O49 Zn3 2.108315 1_555
O50 S4 1.471756 1_555
O50 Zn3 2.108315 1_555
O51 S1 1.492308 1_555
O51 Zn4 2.040080 1_555
O52 S2 1.492299 1_555
O52 Zn4 2.040080 1_555
O53 S0 1.492304 1_555
O53 Zn4 2.040080 1_555
O54 S12 1.472346 1_555
O54 Zn5 2.154088 1_555
O55 S13 1.472329 1_655
O55 Zn5 2.154088 1_555
O56 S14 1.472336 1_545
O56 Zn5 2.154088 1_555
O57 S15 1.471962 1_545
O57 Zn6 2.063621 1_555
O58 S16 1.471979 1_555
O58 Zn6 2.063622 1_555
O59 S17 1.471969 1_655
O59 Zn6 2.063621 1_555
O60 S11 1.581493 1_555
O61 S9 1.581476 1_455
O62 S10 1.581483 1_565
O63 S7 1.493515 1_565
O64 S8 1.493532 1_555
O65 S6 1.493521 1_455
O66 S0 1.465183 1_565
O66 Zn7 1.956105 1_555
O67 S1 1.465192 1_555
O67 Zn7 1.956105 1_555
O68 S2 1.465188 1_455
O68 Zn7 1.956105 1_555
O69 S3 1.452916 1_555
O69 Zn8 2.167448 1_555
O70 S4 1.452908 1_455
O70 Zn8 2.167448 1_555
O71 S5 1.452912 1_565
O71 Zn8 2.167448 1_555
