# generated using pymatgen
data_B2(CN2)3
_symmetry_space_group_name_H-M   'P 1'
_cell_length_a   6.12730735
_cell_length_b   6.12730735
_cell_length_c   6.12730644
_cell_angle_alpha   87.20151476
_cell_angle_beta   87.20151476
_cell_angle_gamma   87.20151500
_symmetry_Int_Tables_number   1
_chemical_formula_structural   B2(CN2)3
_chemical_formula_sum   'B2 C3 N6'
_cell_volume   229.24580603
_cell_formula_units_Z   1
loop_
 _symmetry_equiv_pos_site_id
 _symmetry_equiv_pos_as_xyz
  1  'x, y, z'
loop_
 _atom_site_type_symbol
 _atom_site_label
 _atom_site_symmetry_multiplicity
 _atom_site_fract_x
 _atom_site_fract_y
 _atom_site_fract_z
 _atom_site_occupancy
  B  B0  1  0.32962928  0.32962928  0.32962928  1
  B  B1  1  0.67037072  0.67037072  0.67037072  1
  C  C0  1  0.42502688  0.57497312  0.00000000  1
  C  C1  1  0.57497312  1.00000000  0.42502688  1
  C  C2  1  0.00000000  0.42502688  0.57497312  1
  N  N0  1  0.32689231  0.50107435  0.16239122  1
  N  N1  1  0.16239122  0.32689231  0.50107435  1
  N  N2  1  0.49892565  0.67310769  0.83760878  1
  N  N3  1  0.67310769  0.83760878  0.49892565  1
  N  N4  1  0.83760878  0.49892565  0.67310769  1
  N  N5  1  0.50107435  0.16239122  0.32689231  1
loop_
_geom_bond_atom_site_label_1
_geom_bond_atom_site_label_2
_geom_bond_distance
_geom_bond_site_symmetry_2
B0 N1 1.431334 1_555
B0 N0 1.431334 1_555
B0 N5 1.431334 1_555
B1 N3 1.431334 1_555
B1 N2 1.431334 1_555
B1 N4 1.431334 1_555
C0 N2 1.216892 1_554
C0 N0 1.216892 1_555
C1 N5 1.216892 1_565
C1 N3 1.216892 1_555
C2 N4 1.216892 1_455
C2 N1 1.216892 1_555
