# generated using pymatgen
data_CsVBr3
_symmetry_space_group_name_H-M   'P 1'
_cell_length_a   7.62723314
_cell_length_b   7.62723262
_cell_length_c   6.47467011
_cell_angle_alpha   90.00000000
_cell_angle_beta   90.00000000
_cell_angle_gamma   119.99999767
_symmetry_Int_Tables_number   1
_chemical_formula_structural   CsVBr3
_chemical_formula_sum   'Cs2 V2 Br6'
_cell_volume   326.19875648
_cell_formula_units_Z   2
loop_
 _symmetry_equiv_pos_site_id
 _symmetry_equiv_pos_as_xyz
  1  'x, y, z'
loop_
 _atom_site_type_symbol
 _atom_site_label
 _atom_site_symmetry_multiplicity
 _atom_site_fract_x
 _atom_site_fract_y
 _atom_site_fract_z
 _atom_site_occupancy
  Cs  Cs0  1  0.66666700  0.33333300  0.25000000  1
  Cs  Cs1  1  0.33333300  0.66666700  0.75000000  1
  V  V0  1  -0.00000000  -0.00000000  0.50000000  1
  V  V1  1  -0.00000000  -0.00000000  0.00000000  1
  Br  Br0  1  0.15910608  0.84089392  0.25000000  1
  Br  Br1  1  0.84089392  0.68178684  0.75000000  1
  Br  Br2  1  0.15910608  0.31821316  0.25000000  1
  Br  Br3  1  0.84089392  0.15910608  0.75000000  1
  Br  Br4  1  0.31821316  0.15910608  0.75000000  1
  Br  Br5  1  0.68178684  0.84089392  0.25000000  1
loop_
_geom_bond_atom_site_label_1
_geom_bond_atom_site_label_2
_geom_bond_distance
_geom_bond_site_symmetry_2
Br0 V1 2.652945 1_565
Br0 V0 2.652945 1_565
Br0 Cs0 3.814924 1_455
Br0 Cs0 3.814924 1_565
Br0 Cs1 3.972155 1_554
Br0 Cs1 3.972155 1_555
Br1 V1 2.652950 1_666
Br1 V0 2.652950 1_665
Br1 Cs1 3.814916 1_655
Br1 Cs1 3.814932 1_555
Br1 Cs0 3.972155 1_556
Br1 Cs0 3.972155 1_555
Br2 V0 2.652950 1_555
Br2 V1 2.652950 1_555
Br2 Cs0 3.814916 1_455
Br2 Cs0 3.814932 1_555
Br2 Cs1 3.972155 1_554
Br2 Cs1 3.972155 1_555
Br3 V1 2.652945 1_656
Br3 V0 2.652945 1_655
Br3 Cs1 3.814924 1_655
Br3 Cs1 3.814924 1_545
Br3 Cs0 3.972155 1_556
Br3 Cs0 3.972155 1_555
Br4 V1 2.652950 1_556
Br4 V0 2.652950 1_555
Br4 Cs1 3.814916 1_545
Br4 Cs1 3.814931 1_555
Br4 Cs0 3.972156 1_555
Br4 Cs0 3.972156 1_556
Br5 V0 2.652950 1_665
Br5 V1 2.652950 1_665
Br5 Cs0 3.814916 1_565
Br5 Cs0 3.814931 1_555
Br5 Cs1 3.972156 1_555
Br5 Cs1 3.972156 1_554
