# generated using pymatgen
data_ZrInP(SO6)2
_symmetry_space_group_name_H-M   'P 1'
_cell_length_a   8.96402549
_cell_length_b   8.95323217
_cell_length_c   23.17263442
_cell_angle_alpha   90.08259238
_cell_angle_beta   90.00000000
_cell_angle_gamma   120.03988640
_symmetry_Int_Tables_number   1
_chemical_formula_structural   ZrInP(SO6)2
_chemical_formula_sum   'Zr6 In6 P6 S12 O72'
_cell_volume   1609.95477399
_cell_formula_units_Z   6
loop_
 _symmetry_equiv_pos_site_id
 _symmetry_equiv_pos_as_xyz
  1  'x, y, z'
loop_
 _atom_site_type_symbol
 _atom_site_label
 _atom_site_symmetry_multiplicity
 _atom_site_fract_x
 _atom_site_fract_y
 _atom_site_fract_z
 _atom_site_occupancy
  Zr  Zr0  1  0.00072221  0.00005843  0.64346842  1
  Zr  Zr1  1  -0.00066379  0.00005843  0.14346842  1
  Zr  Zr2  1  0.66374788  0.33285206  0.97685345  1
  Zr  Zr3  1  0.66910518  0.33285206  0.47685345  1
  Zr  Zr4  1  0.34234514  0.65946362  0.31011825  1
  Zr  Zr5  1  0.31711748  0.65946362  0.81011825  1
  In  In0  1  0.00068696  -0.00042207  0.35330776  1
  In  In1  1  0.99889097  -0.00042207  0.85330776  1
  In  In2  1  0.67838942  0.33975552  0.68691989  1
  In  In3  1  0.66136709  0.33975552  0.18691989  1
  In  In4  1  0.32976903  0.65481725  0.02004840  1
  In  In5  1  0.32504721  0.65481725  0.52004840  1
  P  P0  1  0.71846854  0.71319896  0.25041417  1
  P  P1  1  0.99473042  0.71319896  0.75041417  1
  P  P2  1  0.95629737  0.33525474  0.58348074  1
  P  P3  1  0.37895836  0.33525474  0.08348074  1
  P  P4  1  0.04277317  0.37253995  0.91707115  1
  P  P5  1  0.32976578  0.37253995  0.41707115  1
  S  S0  1  0.29110890  -0.00031366  0.25024699  1
  S  S1  1  0.99536534  0.28875843  0.24959963  1
  S  S2  1  0.29339309  0.28875843  0.74959963  1
  S  S3  1  0.70857744  -0.00031366  0.75024699  1
  S  S4  1  0.37960178  0.04256799  0.58344813  1
  S  S5  1  0.66366320  0.62188462  0.58339468  1
  S  S6  1  0.95822243  0.62188462  0.08339468  1
  S  S7  1  0.66296721  0.04256799  0.08344813  1
  S  S8  1  0.62343724  0.66968148  0.91641585  1
  S  S9  1  0.33130567  0.95333838  0.91736968  1
  S  S10  1  0.62203171  0.95333838  0.41736968  1
  S  S11  1  0.04624324  0.66968148  0.41641585  1
  O  O0  1  0.21606487  0.03190950  0.30188288  1
  O  O1  1  0.82383739  0.79473998  0.30489101  1
  O  O2  1  0.96848061  0.18565392  0.30175937  1
  O  O3  1  0.21717331  0.18565392  0.80175937  1
  O  O4  1  0.97090259  0.79473998  0.80489101  1
  O  O5  1  0.81584463  0.03190950  0.80188288  1
  O  O6  1  0.79164704  0.97160177  0.69852318  1
  O  O7  1  0.18017955  0.20915503  0.69818506  1
  O  O8  1  0.02738996  0.83011081  0.69662855  1
  O  O9  1  0.80272085  0.83011081  0.19662855  1
  O  O10  1  0.02897548  0.20915503  0.19818506  1
  O  O11  1  0.17995472  0.97160177  0.19852318  1
  O  O12  1  0.87557548  0.36296203  0.63717328  1
  O  O13  1  0.48225728  0.12050691  0.63588470  1
  O  O14  1  0.63282685  0.51627124  0.63524318  1
  O  O15  1  0.88344539  0.51627124  0.13524318  1
  O  O16  1  0.63825062  0.12050691  0.13588470  1
  O  O17  1  0.48738756  0.36296203  0.13717328  1
  O  O18  1  0.46619652  0.30422346  0.02971579  1
  O  O19  1  0.84668669  0.54125650  0.03182971  1
  O  O20  1  0.69517439  0.15448508  0.03180043  1
  O  O21  1  0.45931170  0.15448508  0.53180043  1
  O  O22  1  0.69457082  0.54125650  0.53182971  1
  O  O23  1  0.83802794  0.30422346  0.52971579  1
  O  O24  1  0.54932119  0.69967090  0.96871355  1
  O  O25  1  0.15316759  0.45479880  0.97014004  1
  O  O26  1  0.30620169  0.85029013  0.96944684  1
  O  O27  1  0.54408744  0.85029013  0.46944684  1
  O  O28  1  0.30163021  0.45479880  0.47014004  1
  O  O29  1  0.15034871  0.69967090  0.46871355  1
  O  O30  1  0.12588403  0.63908827  0.36494534  1
  O  O31  1  0.51127418  0.87435302  0.36539171  1
  O  O32  1  0.36194616  0.49250566  0.36319485  1
  O  O33  1  0.13055850  0.49250566  0.86319485  1
  O  O34  1  0.36307783  0.87435302  0.86539171  1
  O  O35  1  0.51320324  0.63908827  0.86494534  1
  O  O36  1  0.02146115  0.81823410  0.40900748  1
  O  O37  1  0.79440264  0.97703455  0.40920666  1
  O  O38  1  0.17463495  0.19490067  0.40617181  1
  O  O39  1  0.02026572  0.19490067  0.90617181  1
  O  O40  1  0.18263191  0.97703455  0.90920666  1
  O  O41  1  0.79677295  0.81823410  0.90900748  1
  O  O42  1  0.97295555  0.17110592  0.59366549  1
  O  O43  1  0.20624778  0.02684167  0.59133661  1
  O  O44  1  0.82217240  0.79419316  0.59147309  1
  O  O45  1  0.97202076  0.79419316  0.09147309  1
  O  O46  1  0.82059388  0.02684167  0.09133661  1
  O  O47  1  0.19815037  0.17110592  0.09366549  1
  O  O48  1  0.68446781  0.14844518  0.74184792  1
  O  O49  1  0.46412532  0.30951359  0.74017233  1
  O  O50  1  0.84161182  0.53324659  0.74249392  1
  O  O51  1  0.69163577  0.53324659  0.24249392  1
  O  O52  1  0.84538926  0.30951359  0.24017233  1
  O  O53  1  0.46397837  0.14844518  0.24184792  1
  O  O54  1  0.63938083  0.51198916  0.92491458  1
  O  O55  1  0.86377121  0.35820220  0.92712917  1
  O  O56  1  0.48919880  0.12691745  0.92474679  1
  O  O57  1  0.63771965  0.12691745  0.42474679  1
  O  O58  1  0.49443199  0.35820220  0.42712917  1
  O  O59  1  0.87260932  0.51198916  0.42491458  1
  O  O60  1  0.35629519  0.49079324  0.07526518  1
  O  O61  1  0.13145725  0.64868122  0.07504583  1
  O  O62  1  0.51315311  0.87114912  0.07424949  1
  O  O63  1  0.35799501  0.87114912  0.57424949  1
  O  O64  1  0.51722298  0.64868122  0.57504583  1
  O  O65  1  0.13449705  0.49079324  0.57526518  1
  O  O66  1  0.30426949  0.84191944  0.25886320  1
  O  O67  1  0.53664521  0.69730085  0.25908988  1
  O  O68  1  0.15204359  0.46251319  0.25781392  1
  O  O69  1  0.31046860  0.46251319  0.75781392  1
  O  O70  1  0.16065464  0.69730085  0.75908988  1
  O  O71  1  0.53764895  0.84191944  0.75886320  1
loop_
_geom_bond_atom_site_label_1
_geom_bond_atom_site_label_2
_geom_bond_distance
_geom_bond_site_symmetry_2
In0 O1 2.053902 1_445
In0 O38 2.062494 1_555
In0 O36 2.155339 1_545
In0 O0 2.161642 1_555
In0 O37 2.182887 1_445
In0 O2 2.184716 1_455
In1 O4 2.053902 1_545
In1 O39 2.062494 1_655
In1 O41 2.155339 1_545
In1 O5 2.161642 1_555
In1 O40 2.182887 1_645
In1 O3 2.184716 1_655
In2 O12 2.032082 1_555
In2 O50 2.063033 1_555
In2 O48 2.157921 1_555
In2 O14 2.179473 1_555
In2 O49 2.182963 1_555
In2 O13 2.209273 1_555
In3 O17 2.032082 1_555
In3 O51 2.063033 1_555
In3 O53 2.157921 1_555
In3 O15 2.179473 1_555
In3 O52 2.182963 1_555
In3 O16 2.209273 1_555
In4 O60 2.050698 1_555
In4 O25 2.050913 1_554
In4 O24 2.158637 1_554
In4 O61 2.165582 1_555
In4 O62 2.199190 1_555
In4 O26 2.204210 1_554
In5 O65 2.050698 1_555
In5 O28 2.050913 1_555
In5 O29 2.158637 1_555
In5 O64 2.165582 1_555
In5 O63 2.199190 1_555
In5 O27 2.204210 1_555
O0 S0 1.469957 1_555
O1 P0 1.525009 1_555
O2 S1 1.466837 1_555
O3 S2 1.466837 1_555
O4 P1 1.525009 1_555
O5 S3 1.469957 1_555
O6 S3 1.496961 1_565
O6 Zr0 2.174353 1_665
O7 S2 1.493560 1_555
O7 Zr0 2.162897 1_555
O8 P1 1.559397 1_455
O8 Zr0 2.063834 1_565
O9 P0 1.559397 1_555
O9 Zr1 2.063833 1_665
O10 S1 1.493560 1_455
O10 Zr1 2.162897 1_555
O11 S0 1.496961 1_565
O11 Zr1 2.174353 1_565
O12 P2 1.520520 1_555
O13 S4 1.471333 1_555
O14 S5 1.468209 1_555
O15 S6 1.468209 1_555
O16 S7 1.471333 1_555
O17 P3 1.520520 1_555
O18 P3 1.567628 1_555
O18 Zr2 2.061216 1_554
O19 S6 1.491110 1_555
O19 Zr2 2.173315 1_554
O20 S7 1.494515 1_555
O20 Zr2 2.169593 1_554
O21 S4 1.494515 1_555
O21 Zr3 2.169593 1_555
O22 S5 1.491110 1_555
O22 Zr3 2.173315 1_555
O23 P2 1.567627 1_555
O23 Zr3 2.061216 1_555
O24 S8 1.469625 1_555
O25 P4 1.517119 1_555
O26 S9 1.467474 1_555
O27 S10 1.467474 1_555
O28 P5 1.517119 1_555
O29 S11 1.469625 1_555
O30 S11 1.483937 1_555
O30 Zr4 2.249155 1_555
O31 S10 1.493702 1_555
O31 Zr4 2.170520 1_555
O32 P5 1.577708 1_555
O32 Zr4 2.011546 1_555
O33 P4 1.577708 1_555
O33 Zr5 2.011546 1_555
O34 S9 1.493702 1_555
O34 Zr5 2.170520 1_555
O35 S8 1.483937 1_555
O35 Zr5 2.249155 1_555
O36 S11 1.464331 1_555
O37 S10 1.462925 1_555
O38 P5 1.520386 1_555
O39 P4 1.520390 1_555
O40 S9 1.462916 1_555
O41 S8 1.464337 1_555
O42 P2 1.568001 1_555
O42 Zr0 2.031211 1_655
O43 S4 1.499670 1_555
O43 Zr0 2.114134 1_555
O44 S5 1.496139 1_555
O44 Zr0 2.109655 1_665
O45 S6 1.496143 1_555
O45 Zr1 2.109655 1_665
O46 S7 1.499661 1_555
O46 Zr1 2.114134 1_655
O47 P3 1.568006 1_555
O47 Zr1 2.031211 1_555
O48 S3 1.465404 1_555
O49 S2 1.462841 1_555
O50 P1 1.516080 1_555
O51 P0 1.516084 1_555
O52 S1 1.462832 1_555
O53 S0 1.465410 1_555
O54 S8 1.501790 1_555
O54 Zr2 2.103553 1_555
O55 P4 1.561836 1_655
O55 Zr2 2.046311 1_555
O56 S9 1.498216 1_545
O56 Zr2 2.100199 1_555
O57 S10 1.498209 1_545
O57 Zr3 2.100199 1_555
O58 P5 1.561854 1_555
O58 Zr3 2.046311 1_555
O59 S11 1.501780 1_655
O59 Zr3 2.103553 1_555
O60 P3 1.516833 1_555
O61 S6 1.460668 1_455
O62 S7 1.462832 1_565
O63 S4 1.462825 1_565
O64 S5 1.460686 1_555
O65 P2 1.516823 1_455
O66 S0 1.488844 1_565
O66 Zr4 2.181634 1_555
O67 P0 1.576375 1_555
O67 Zr4 1.989207 1_555
O68 S1 1.496826 1_455
O68 Zr4 2.114370 1_555
O69 S2 1.496830 1_555
O69 Zr5 2.114370 1_555
O70 P1 1.576366 1_455
O70 Zr5 1.989207 1_555
O71 S3 1.488849 1_565
O71 Zr5 2.181634 1_555
