# generated using pymatgen
data_MgTe4Mo3W(SeS)2
_symmetry_space_group_name_H-M   'P 1'
_cell_length_a   6.79552800
_cell_length_b   6.79512430
_cell_length_c   77.34059200
_cell_angle_alpha   90.00057290
_cell_angle_beta   90.00010690
_cell_angle_gamma   120.00013946
_symmetry_Int_Tables_number   1
_chemical_formula_structural   MgTe4Mo3W(SeS)2
_chemical_formula_sum   'Mg8 Te32 Mo24 W8 Se16 S16'
_cell_volume   3092.84478460
_cell_formula_units_Z   8
loop_
 _symmetry_equiv_pos_site_id
 _symmetry_equiv_pos_as_xyz
  1  'x, y, z'
loop_
 _atom_site_type_symbol
 _atom_site_label
 _atom_site_symmetry_multiplicity
 _atom_site_fract_x
 _atom_site_fract_y
 _atom_site_fract_z
 _atom_site_occupancy
  Mg  Mg0_0  1  0.16400250  0.32892200  0.44060950  1
  Mg  Mg0_1  1  0.16400250  0.32892200  0.94060950  1
  Mg  Mg0_2  1  0.16400250  0.82892200  0.44060950  1
  Mg  Mg0_3  1  0.16400250  0.82892200  0.94060950  1
  Mg  Mg0_4  1  0.66400250  0.32892200  0.44060950  1
  Mg  Mg0_5  1  0.66400250  0.32892200  0.94060950  1
  Mg  Mg0_6  1  0.66400250  0.82892200  0.44060950  1
  Mg  Mg0_7  1  0.66400250  0.82892200  0.94060950  1
  Te  Te0_0  1  0.16667750  0.33335550  0.16511900  1
  Te  Te0_1  1  0.16667750  0.33335550  0.66511900  1
  Te  Te0_2  1  0.16667750  0.83335550  0.16511900  1
  Te  Te0_3  1  0.16667750  0.83335550  0.66511900  1
  Te  Te0_4  1  0.66667750  0.33335550  0.16511900  1
  Te  Te0_5  1  0.66667750  0.33335550  0.66511900  1
  Te  Te0_6  1  0.66667750  0.83335550  0.16511900  1
  Te  Te0_7  1  0.66667750  0.83335550  0.66511900  1
  Te  Te1_0  1  0.16667850  0.33335800  0.35309950  1
  Te  Te1_1  1  0.16667850  0.33335800  0.85309950  1
  Te  Te1_2  1  0.16667850  0.83335800  0.35309950  1
  Te  Te1_3  1  0.16667850  0.83335800  0.85309950  1
  Te  Te1_4  1  0.66667850  0.33335800  0.35309950  1
  Te  Te1_5  1  0.66667850  0.33335800  0.85309950  1
  Te  Te1_6  1  0.66667850  0.83335800  0.35309950  1
  Te  Te1_7  1  0.66667850  0.83335800  0.85309950  1
  Te  Te2_0  1  0.16667400  0.33334850  0.11671500  1
  Te  Te2_1  1  0.16667400  0.33334850  0.61671500  1
  Te  Te2_2  1  0.16667400  0.83334850  0.11671500  1
  Te  Te2_3  1  0.16667400  0.83334850  0.61671500  1
  Te  Te2_4  1  0.66667400  0.33334850  0.11671500  1
  Te  Te2_5  1  0.66667400  0.33334850  0.61671500  1
  Te  Te2_6  1  0.66667400  0.83334850  0.11671500  1
  Te  Te2_7  1  0.66667400  0.83334850  0.61671500  1
  Te  Te3_0  1  0.16668100  0.33336250  0.30443200  1
  Te  Te3_1  1  0.16668100  0.33336250  0.80443200  1
  Te  Te3_2  1  0.16668100  0.83336250  0.30443200  1
  Te  Te3_3  1  0.16668100  0.83336250  0.80443200  1
  Te  Te3_4  1  0.66668100  0.33336250  0.30443200  1
  Te  Te3_5  1  0.66668100  0.33336250  0.80443200  1
  Te  Te3_6  1  0.66668100  0.83336250  0.30443200  1
  Te  Te3_7  1  0.66668100  0.83336250  0.80443200  1
  Mo  Mo0_0  1  0.16665050  0.33330150  0.04695650  1
  Mo  Mo0_1  1  0.16665050  0.33330150  0.54695650  1
  Mo  Mo0_2  1  0.16665050  0.83330150  0.04695650  1
  Mo  Mo0_3  1  0.16665050  0.83330150  0.54695650  1
  Mo  Mo0_4  1  0.66665050  0.33330150  0.04695650  1
  Mo  Mo0_5  1  0.66665050  0.33330150  0.54695650  1
  Mo  Mo0_6  1  0.66665050  0.83330150  0.04695650  1
  Mo  Mo0_7  1  0.66665050  0.83330150  0.54695650  1
  Mo  Mo1_0  1  0.16664850  0.33329750  0.23483250  1
  Mo  Mo1_1  1  0.16664850  0.33329750  0.73483250  1
  Mo  Mo1_2  1  0.16664850  0.83329750  0.23483250  1
  Mo  Mo1_3  1  0.16664850  0.83329750  0.73483250  1
  Mo  Mo1_4  1  0.66664850  0.33329750  0.23483250  1
  Mo  Mo1_5  1  0.66664850  0.33329750  0.73483250  1
  Mo  Mo1_6  1  0.66664850  0.83329750  0.23483250  1
  Mo  Mo1_7  1  0.66664850  0.83329750  0.73483250  1
  Mo  Mo2_0  1  0.33334750  0.16669550  0.14091400  1
  Mo  Mo2_1  1  0.33334750  0.16669550  0.64091400  1
  Mo  Mo2_2  1  0.33334750  0.66669550  0.14091400  1
  Mo  Mo2_3  1  0.33334750  0.66669550  0.64091400  1
  Mo  Mo2_4  1  0.83334750  0.16669550  0.14091400  1
  Mo  Mo2_5  1  0.83334750  0.16669550  0.64091400  1
  Mo  Mo2_6  1  0.83334750  0.66669550  0.14091400  1
  Mo  Mo2_7  1  0.83334750  0.66669550  0.64091400  1
  W  W0_0  1  0.33334700  0.16669550  0.32877900  1
  W  W0_1  1  0.33334700  0.16669550  0.82877900  1
  W  W0_2  1  0.33334700  0.66669550  0.32877900  1
  W  W0_3  1  0.33334700  0.66669550  0.82877900  1
  W  W0_4  1  0.83334700  0.16669550  0.32877900  1
  W  W0_5  1  0.83334700  0.16669550  0.82877900  1
  W  W0_6  1  0.83334700  0.66669550  0.32877900  1
  W  W0_7  1  0.83334700  0.66669550  0.82877900  1
  Se  Se0_0  1  0.33331800  0.16663550  0.02565550  1
  Se  Se0_1  1  0.33331800  0.16663550  0.52565550  1
  Se  Se0_2  1  0.33331800  0.66663550  0.02565550  1
  Se  Se0_3  1  0.33331800  0.66663550  0.52565550  1
  Se  Se0_4  1  0.83331800  0.16663550  0.02565550  1
  Se  Se0_5  1  0.83331800  0.16663550  0.52565550  1
  Se  Se0_6  1  0.83331800  0.66663550  0.02565550  1
  Se  Se0_7  1  0.83331800  0.66663550  0.52565550  1
  Se  Se1_0  1  0.33332450  0.16664900  0.06827750  1
  Se  Se1_1  1  0.33332450  0.16664900  0.56827750  1
  Se  Se1_2  1  0.33332450  0.66664900  0.06827750  1
  Se  Se1_3  1  0.33332450  0.66664900  0.56827750  1
  Se  Se1_4  1  0.83332450  0.16664900  0.06827750  1
  Se  Se1_5  1  0.83332450  0.16664900  0.56827750  1
  Se  Se1_6  1  0.83332450  0.66664900  0.06827750  1
  Se  Se1_7  1  0.83332450  0.66664900  0.56827750  1
  S  S0_0  1  0.33332550  0.16665050  0.21542550  1
  S  S0_1  1  0.33332550  0.16665050  0.71542550  1
  S  S0_2  1  0.33332550  0.66665050  0.21542550  1
  S  S0_3  1  0.33332550  0.66665050  0.71542550  1
  S  S0_4  1  0.83332550  0.16665050  0.21542550  1
  S  S0_5  1  0.83332550  0.16665050  0.71542550  1
  S  S0_6  1  0.83332550  0.66665050  0.21542550  1
  S  S0_7  1  0.83332550  0.66665050  0.71542550  1
  S  S1_0  1  0.33332700  0.16665300  0.25424650  1
  S  S1_1  1  0.33332700  0.16665300  0.75424650  1
  S  S1_2  1  0.33332700  0.66665300  0.25424650  1
  S  S1_3  1  0.33332700  0.66665300  0.75424650  1
  S  S1_4  1  0.83332700  0.16665300  0.25424650  1
  S  S1_5  1  0.83332700  0.16665300  0.75424650  1
  S  S1_6  1  0.83332700  0.66665300  0.25424650  1
  S  S1_7  1  0.83332700  0.66665300  0.75424650  1
loop_
_geom_bond_atom_site_label_1
_geom_bond_atom_site_label_2
_geom_bond_distance
_geom_bond_site_symmetry_2
Mg0_0 Mg0_2 3.397562 1_555
Mg0_0 Mg0_2 3.397562 1_545
Mg0_0 Mg0_6 3.397656 1_445
Mg0_0 Mg0_6 3.397656 1_555
Mg0_0 Mg0_4 3.397764 1_455
Mg0_0 Mg0_4 3.397764 1_555
Mg0_1 Mg0_3 3.397562 1_555
Mg0_1 Mg0_3 3.397562 1_545
Mg0_1 Mg0_7 3.397656 1_555
Mg0_1 Mg0_7 3.397656 1_445
Mg0_1 Mg0_5 3.397764 1_455
Mg0_1 Mg0_5 3.397764 1_555
Mg0_2 Mg0_4 3.397656 1_455
Mg0_2 Mg0_4 3.397656 1_565
Mg0_2 Mg0_6 3.397764 1_555
Mg0_2 Mg0_6 3.397764 1_455
Mg0_3 Mg0_5 3.397656 1_455
Mg0_3 Mg0_5 3.397656 1_565
Mg0_3 Mg0_7 3.397764 1_555
Mg0_3 Mg0_7 3.397764 1_455
Mg0_4 Mg0_6 3.397562 1_545
Mg0_4 Mg0_6 3.397562 1_555
Mg0_5 Mg0_7 3.397562 1_545
Mg0_5 Mg0_7 3.397562 1_555
Te1_0 W0_0 2.717715 1_555
Te1_0 W0_2 2.717721 1_555
Te1_0 W0_4 2.717751 1_455
Te1_1 W0_1 2.717715 1_555
Te1_1 W0_3 2.717721 1_555
Te1_1 W0_5 2.717751 1_455
Te1_2 W0_2 2.717715 1_555
Te1_2 W0_0 2.717721 1_565
Te1_2 W0_6 2.717751 1_455
Te1_3 W0_3 2.717715 1_555
Te1_3 W0_1 2.717721 1_565
Te1_3 W0_7 2.717751 1_455
Te1_4 W0_4 2.717715 1_555
Te1_4 W0_6 2.717721 1_555
Te1_4 W0_0 2.717751 1_555
Te1_5 W0_5 2.717715 1_555
Te1_5 W0_7 2.717721 1_555
Te1_5 W0_1 2.717751 1_555
Te1_6 W0_6 2.717715 1_555
Te1_6 W0_4 2.717721 1_565
Te1_6 W0_2 2.717751 1_555
Te1_7 W0_7 2.717715 1_555
Te1_7 W0_5 2.717721 1_565
Te1_7 W0_3 2.717751 1_555
Te3_0 W0_2 2.719086 1_555
Te3_0 W0_0 2.719155 1_555
Te3_0 W0_4 2.719202 1_455
Te3_1 W0_3 2.719086 1_555
Te3_1 W0_1 2.719155 1_555
Te3_1 W0_5 2.719202 1_455
Te3_2 W0_0 2.719086 1_565
Te3_2 W0_2 2.719155 1_555
Te3_2 W0_6 2.719202 1_455
Te3_3 W0_1 2.719086 1_565
Te3_3 W0_3 2.719155 1_555
Te3_3 W0_7 2.719202 1_455
Te3_4 W0_6 2.719086 1_555
Te3_4 W0_4 2.719155 1_555
Te3_4 W0_0 2.719202 1_555
Te3_5 W0_7 2.719086 1_555
Te3_5 W0_5 2.719155 1_555
Te3_5 W0_1 2.719202 1_555
Te3_6 W0_4 2.719086 1_565
Te3_6 W0_6 2.719155 1_555
Te3_6 W0_2 2.719202 1_555
Te3_7 W0_5 2.719086 1_565
Te3_7 W0_7 2.719155 1_555
Te3_7 W0_3 2.719202 1_555
Mo0_0 Se0_2 2.561626 1_555
Mo0_0 Se0_0 2.561650 1_555
Mo0_0 Se0_4 2.561683 1_455
Mo0_0 Se1_0 2.562625 1_555
Mo0_0 Se1_2 2.562650 1_555
Mo0_0 Se1_4 2.562668 1_455
Mo0_1 Se0_3 2.561626 1_555
Mo0_1 Se0_1 2.561650 1_555
Mo0_1 Se0_5 2.561683 1_455
Mo0_1 Se1_1 2.562625 1_555
Mo0_1 Se1_3 2.562650 1_555
Mo0_1 Se1_5 2.562668 1_455
Mo0_2 Se0_0 2.561626 1_565
Mo0_2 Se0_2 2.561650 1_555
Mo0_2 Se0_6 2.561683 1_455
Mo0_2 Se1_2 2.562625 1_555
Mo0_2 Se1_0 2.562650 1_565
Mo0_2 Se1_6 2.562668 1_455
Mo0_3 Se0_1 2.561626 1_565
Mo0_3 Se0_3 2.561650 1_555
Mo0_3 Se0_7 2.561683 1_455
Mo0_3 Se1_3 2.562625 1_555
Mo0_3 Se1_1 2.562650 1_565
Mo0_3 Se1_7 2.562668 1_455
Mo0_4 Se0_6 2.561626 1_555
Mo0_4 Se0_4 2.561650 1_555
Mo0_4 Se0_0 2.561683 1_555
Mo0_4 Se1_4 2.562625 1_555
Mo0_4 Se1_6 2.562650 1_555
Mo0_4 Se1_0 2.562668 1_555
Mo0_5 Se0_7 2.561626 1_555
Mo0_5 Se0_5 2.561650 1_555
Mo0_5 Se0_1 2.561683 1_555
Mo0_5 Se1_5 2.562625 1_555
Mo0_5 Se1_7 2.562650 1_555
Mo0_5 Se1_1 2.562668 1_555
Mo0_6 Se0_4 2.561626 1_565
Mo0_6 Se0_6 2.561650 1_555
Mo0_6 Se0_2 2.561683 1_555
Mo0_6 Se1_6 2.562625 1_555
Mo0_6 Se1_4 2.562650 1_565
Mo0_6 Se1_2 2.562668 1_555
Mo0_7 Se0_5 2.561626 1_565
Mo0_7 Se0_7 2.561650 1_555
Mo0_7 Se0_3 2.561683 1_555
Mo0_7 Se1_7 2.562625 1_555
Mo0_7 Se1_5 2.562650 1_565
Mo0_7 Se1_3 2.562668 1_555
Mo1_0 S0_0 2.469949 1_555
Mo1_0 S0_4 2.469983 1_455
Mo1_0 S0_2 2.470056 1_555
Mo1_0 S1_0 2.470285 1_555
Mo1_0 S1_4 2.470324 1_455
Mo1_0 S1_2 2.470366 1_555
Mo1_1 S0_1 2.469949 1_555
Mo1_1 S0_5 2.469983 1_455
Mo1_1 S0_3 2.470056 1_555
Mo1_1 S1_1 2.470285 1_555
Mo1_1 S1_5 2.470324 1_455
Mo1_1 S1_3 2.470366 1_555
Mo1_2 S0_2 2.469949 1_555
Mo1_2 S0_6 2.469983 1_455
Mo1_2 S0_0 2.470056 1_565
Mo1_2 S1_2 2.470285 1_555
Mo1_2 S1_6 2.470324 1_455
Mo1_2 S1_0 2.470366 1_565
Mo1_3 S0_3 2.469949 1_555
Mo1_3 S0_7 2.469983 1_455
Mo1_3 S0_1 2.470056 1_565
Mo1_3 S1_3 2.470285 1_555
Mo1_3 S1_7 2.470324 1_455
Mo1_3 S1_1 2.470366 1_565
Mo1_4 S0_4 2.469949 1_555
Mo1_4 S0_0 2.469983 1_555
Mo1_4 S0_6 2.470056 1_555
Mo1_4 S1_4 2.470285 1_555
Mo1_4 S1_0 2.470324 1_555
Mo1_4 S1_6 2.470366 1_555
Mo1_5 S0_5 2.469949 1_555
Mo1_5 S0_1 2.469983 1_555
Mo1_5 S0_7 2.470056 1_555
Mo1_5 S1_5 2.470285 1_555
Mo1_5 S1_1 2.470324 1_555
Mo1_5 S1_7 2.470366 1_555
Mo1_6 S0_6 2.469949 1_555
Mo1_6 S0_2 2.469983 1_555
Mo1_6 S0_4 2.470056 1_565
Mo1_6 S1_6 2.470285 1_555
Mo1_6 S1_2 2.470324 1_555
Mo1_6 S1_4 2.470366 1_565
Mo1_7 S0_7 2.469949 1_555
Mo1_7 S0_3 2.469983 1_555
Mo1_7 S0_5 2.470056 1_565
Mo1_7 S1_7 2.470285 1_555
Mo1_7 S1_3 2.470324 1_555
Mo1_7 S1_5 2.470366 1_565
Mo2_0 Te2_0 2.711213 1_555
Mo2_0 Te2_2 2.711232 1_545
Mo2_0 Te2_4 2.711257 1_555
Mo2_0 Te0_0 2.711536 1_555
Mo2_0 Te0_2 2.711556 1_545
Mo2_0 Te0_4 2.711570 1_555
Mo2_1 Te2_1 2.711213 1_555
Mo2_1 Te2_3 2.711232 1_545
Mo2_1 Te2_5 2.711257 1_555
Mo2_1 Te0_1 2.711536 1_555
Mo2_1 Te0_3 2.711556 1_545
Mo2_1 Te0_5 2.711570 1_555
Mo2_2 Te2_2 2.711213 1_555
Mo2_2 Te2_0 2.711232 1_555
Mo2_2 Te2_6 2.711257 1_555
Mo2_2 Te0_2 2.711536 1_555
Mo2_2 Te0_0 2.711556 1_555
Mo2_2 Te0_6 2.711570 1_555
Mo2_3 Te2_3 2.711213 1_555
Mo2_3 Te2_1 2.711232 1_555
Mo2_3 Te2_7 2.711257 1_555
Mo2_3 Te0_3 2.711536 1_555
Mo2_3 Te0_1 2.711556 1_555
Mo2_3 Te0_7 2.711570 1_555
Mo2_4 Te2_4 2.711213 1_555
Mo2_4 Te2_6 2.711232 1_545
Mo2_4 Te2_0 2.711257 1_655
Mo2_4 Te0_4 2.711536 1_555
Mo2_4 Te0_6 2.711556 1_545
Mo2_4 Te0_0 2.711570 1_655
Mo2_5 Te2_5 2.711213 1_555
Mo2_5 Te2_7 2.711232 1_545
Mo2_5 Te2_1 2.711257 1_655
Mo2_5 Te0_5 2.711536 1_555
Mo2_5 Te0_7 2.711556 1_545
Mo2_5 Te0_1 2.711570 1_655
Mo2_6 Te2_6 2.711213 1_555
Mo2_6 Te2_4 2.711232 1_555
Mo2_6 Te2_2 2.711257 1_655
Mo2_6 Te0_6 2.711536 1_555
Mo2_6 Te0_4 2.711556 1_555
Mo2_6 Te0_2 2.711570 1_655
Mo2_7 Te2_7 2.711213 1_555
Mo2_7 Te2_5 2.711232 1_555
Mo2_7 Te2_3 2.711257 1_655
Mo2_7 Te0_7 2.711536 1_555
Mo2_7 Te0_5 2.711556 1_555
Mo2_7 Te0_3 2.711570 1_655
