# generated using pymatgen
data_Na8La2Zn2Si3(SO8)3
_symmetry_space_group_name_H-M   'P 1'
_cell_length_a   9.59923009
_cell_length_b   9.65485983
_cell_length_c   23.11500696
_cell_angle_alpha   89.35298437
_cell_angle_beta   88.87331420
_cell_angle_gamma   120.29315223
_symmetry_Int_Tables_number   1
_chemical_formula_structural   Na8La2Zn2Si3(SO8)3
_chemical_formula_sum   'Na24 La6 Zn6 Si9 S9 O72'
_cell_volume   1848.84897304
_cell_formula_units_Z   3
loop_
 _symmetry_equiv_pos_site_id
 _symmetry_equiv_pos_as_xyz
  1  'x, y, z'
loop_
 _atom_site_type_symbol
 _atom_site_label
 _atom_site_symmetry_multiplicity
 _atom_site_fract_x
 _atom_site_fract_y
 _atom_site_fract_z
 _atom_site_occupancy
  Na  Na0  1  0.63896061  0.02910305  0.26109332  1
  Na  Na1  1  0.35383631  0.34182615  0.25254093  1
  Na  Na2  1  0.99677178  0.61979466  0.24178684  1
  Na  Na3  1  0.62427209  0.61439050  0.72977018  1
  Na  Na4  1  0.98364508  0.34682487  0.73266983  1
  Na  Na5  1  0.40249063  0.03731971  0.75002849  1
  Na  Na6  1  0.30480004  0.36040305  0.59334495  1
  Na  Na7  1  0.01956839  0.67558621  0.58350659  1
  Na  Na8  1  0.66502795  0.95127171  0.57987934  1
  Na  Na9  1  0.28589739  0.93632374  0.08260722  1
  Na  Na10  1  0.67123826  0.69322084  0.07956173  1
  Na  Na11  1  0.03725749  0.35480132  0.09664982  1
  Na  Na12  1  0.98238881  0.70443012  0.91587500  1
  Na  Na13  1  0.69117370  0.02143953  0.89790514  1
  Na  Na14  1  0.30634036  0.25797485  0.90033088  1
  Na  Na15  1  0.95188814  0.26591457  0.41712129  1
  Na  Na16  1  0.33507429  0.02742537  0.40755094  1
  Na  Na17  1  0.70771410  0.69533798  0.43088520  1
  Na  Na18  1  0.96863006  0.99613855  0.50055416  1
  Na  Na19  1  0.00768204  0.97934139  0.99140198  1
  Na  Na20  1  0.64486122  0.31315917  0.81628336  1
  Na  Na21  1  0.66306393  0.30205159  0.32738941  1
  Na  Na22  1  0.30368672  0.66348223  0.16789603  1
  Na  Na23  1  0.33873559  0.65090824  0.65832499  1
  La  La0  1  0.99699982  0.00926935  0.65162752  1
  La  La1  1  0.00850591  0.00192956  0.15790327  1
  La  La2  1  0.66264100  0.32934375  0.98782301  1
  La  La3  1  0.67345545  0.33088653  0.49071713  1
  La  La4  1  0.33368687  0.67530920  0.32029470  1
  La  La5  1  0.34267356  0.67574052  0.81798390  1
  Zn  Zn0  1  0.00893136  0.02749357  0.34162222  1
  Zn  Zn1  1  0.01116460  0.02395395  0.82389944  1
  Zn  Zn2  1  0.68037163  0.34877661  0.67652002  1
  Zn  Zn3  1  0.69201574  0.33140437  0.19014010  1
  Zn  Zn4  1  0.26457573  0.66874735  0.01060593  1
  Zn  Zn5  1  0.36700053  0.66738747  0.52272952  1
  Si  Si0  1  0.31347305  0.01530099  0.24994082  1
  Si  Si1  1  0.99751405  0.30603010  0.24910901  1
  Si  Si2  1  0.31758207  0.30543850  0.74920218  1
  Si  Si3  1  0.70357060  0.01216286  0.75359153  1
  Si  Si4  1  0.98653218  0.35281260  0.58174926  1
  Si  Si5  1  0.66582525  0.63350477  0.58291101  1
  Si  Si6  1  0.96409445  0.62784755  0.08497041  1
  Si  Si7  1  0.32510738  0.97251512  0.91913085  1
  Si  Si8  1  0.64313583  0.96487173  0.41644893  1
  S  S0  1  0.69763857  0.68561741  0.25137399  1
  S  S1  1  0.98955220  0.69511490  0.75440992  1
  S  S2  1  0.36482876  0.01806308  0.58536647  1
  S  S3  1  0.65785948  0.01893647  0.08584250  1
  S  S4  1  0.36326446  0.34783020  0.08492714  1
  S  S5  1  0.63790359  0.67343763  0.92274767  1
  S  S6  1  0.03659629  0.35767059  0.92251964  1
  S  S7  1  0.32544421  0.35545311  0.41763911  1
  S  S8  1  0.02730940  0.67771555  0.41792969  1
  O  O0  1  0.21038101  0.03311915  0.30533438  1
  O  O1  1  0.79935659  0.77796912  0.29953764  1
  O  O2  1  0.97368535  0.18864871  0.30491850  1
  O  O3  1  0.22805782  0.18967900  0.80799473  1
  O  O4  1  0.98163695  0.78493021  0.80548971  1
  O  O5  1  0.81051723  0.01801230  0.81101944  1
  O  O6  1  0.77744637  0.97320017  0.69630007  1
  O  O7  1  0.20369771  0.22380594  0.69393151  1
  O  O8  1  0.01613834  0.78927307  0.70029327  1
  O  O9  1  0.76282802  0.77730021  0.19525446  1
  O  O10  1  0.01860128  0.23071583  0.18825908  1
  O  O11  1  0.21096045  0.97987490  0.19017176  1
  O  O12  1  0.88683738  0.37038716  0.63825677  1
  O  O13  1  0.46458345  0.10981904  0.63405600  1
  O  O14  1  0.64801057  0.51784136  0.63870280  1
  O  O15  1  0.86492838  0.50996402  0.14102717  1
  O  O16  1  0.64389315  0.10590566  0.13551468  1
  O  O17  1  0.45578475  0.35282034  0.13545574  1
  O  O18  1  0.43905386  0.32659972  0.03098150  1
  O  O19  1  0.87193887  0.55397895  0.02404025  1
  O  O20  1  0.67984899  0.11271053  0.03094179  1
  O  O21  1  0.42967732  0.11064411  0.52960266  1
  O  O22  1  0.67990451  0.55542655  0.52192481  1
  O  O23  1  0.87948612  0.31656842  0.52328920  1
  O  O24  1  0.54675918  0.67548884  0.97497471  1
  O  O25  1  0.13460241  0.44833730  0.97324595  1
  O  O26  1  0.31011630  0.86847133  0.97921406  1
  O  O27  1  0.54176222  0.84407676  0.47264043  1
  O  O28  1  0.31382957  0.44434497  0.46739765  1
  O  O29  1  0.12285016  0.68262106  0.46793084  1
  O  O30  1  0.09988584  0.65657011  0.36325727  1
  O  O31  1  0.54437993  0.89247762  0.35649360  1
  O  O32  1  0.34470855  0.44560067  0.36238303  1
  O  O33  1  0.11318122  0.45268480  0.86812217  1
  O  O34  1  0.35783547  0.88996254  0.86316372  1
  O  O35  1  0.54516553  0.65460886  0.87004842  1
  O  O36  1  0.02129991  0.82904129  0.41455592  1
  O  O37  1  0.82455859  0.97987804  0.41300269  1
  O  O38  1  0.17531979  0.19363680  0.41687882  1
  O  O39  1  0.02448109  0.20071349  0.92178933  1
  O  O40  1  0.15859760  0.97939174  0.91591749  1
  O  O41  1  0.79863262  0.82466488  0.91901933  1
  O  O42  1  0.01741400  0.19919357  0.58527210  1
  O  O43  1  0.19572769  0.98606494  0.59047082  1
  O  O44  1  0.82832016  0.81464264  0.58343307  1
  O  O45  1  0.99023152  0.81148301  0.08675738  1
  O  O46  1  0.80446660  0.00043452  0.08811749  1
  O  O47  1  0.19429232  0.20502848  0.08596678  1
  O  O48  1  0.70347095  0.18189359  0.74956552  1
  O  O49  1  0.49598739  0.32013635  0.74284400  1
  O  O50  1  0.83674951  0.53766704  0.75307890  1
  O  O51  1  0.68959178  0.52780833  0.24884686  1
  O  O52  1  0.83338380  0.32123122  0.25029287  1
  O  O53  1  0.49158112  0.18483390  0.24450279  1
  O  O54  1  0.66582117  0.53355414  0.92357381  1
  O  O55  1  0.87141603  0.33765288  0.92540144  1
  O  O56  1  0.48622372  0.15760490  0.92057858  1
  O  O57  1  0.66077797  0.14610627  0.41914273  1
  O  O58  1  0.46888031  0.33296741  0.42017921  1
  O  O59  1  0.85884945  0.53670935  0.42004422  1
  O  O60  1  0.35587424  0.49789622  0.08045351  1
  O  O61  1  0.14479410  0.63849035  0.08410966  1
  O  O62  1  0.51130794  0.85656558  0.08366148  1
  O  O63  1  0.35932829  0.86137086  0.58270758  1
  O  O64  1  0.50187092  0.64992259  0.58486892  1
  O  O65  1  0.16373327  0.52311571  0.57600848  1
  O  O66  1  0.34267772  0.86046322  0.25478466  1
  O  O67  1  0.52881001  0.65547148  0.25669936  1
  O  O68  1  0.15906385  0.48824898  0.25136197  1
  O  O69  1  0.33687942  0.48574246  0.75415851  1
  O  O70  1  0.12753601  0.66474253  0.75821926  1
  O  O71  1  0.51545929  0.86215714  0.75593016  1
loop_
_geom_bond_atom_site_label_1
_geom_bond_atom_site_label_2
_geom_bond_distance
_geom_bond_site_symmetry_2
Na0 O31 2.464646 1_545
Na0 O66 2.472061 1_545
Na0 O52 2.481082 1_555
Na0 O53 2.561929 1_555
Na1 O53 2.469600 1_555
Na1 O67 2.623367 1_555
Na1 O32 2.755963 1_555
Na1 O51 2.786838 1_555
Na1 O0 2.824904 1_555
Na1 O17 2.842230 1_555
Na1 O68 2.857021 1_555
Na2 O68 2.468264 1_655
Na2 O52 2.494367 1_555
Na2 O51 2.616489 1_555
Na2 O15 2.639789 1_555
Na2 O30 2.960869 1_655
Na2 O66 2.964126 1_655
Na3 O14 2.364684 1_555
Na3 O69 2.436672 1_555
Na3 O49 2.472948 1_555
Na3 O50 2.560757 1_555
Na4 O48 2.354887 1_555
Na4 O12 2.441273 1_555
Na4 O70 2.733859 1_655
Na4 O50 2.867144 1_555
Na4 O69 3.006030 1_655
Na4 O7 3.025755 1_655
Na5 O49 2.408435 1_555
Na5 O71 2.430098 1_545
Na5 O48 2.495149 1_555
Na5 O13 2.739578 1_555
Na5 O34 2.881555 1_545
Na6 O42 2.400574 1_555
Na6 O64 2.463520 1_555
Na6 O65 2.572051 1_555
Na6 O7 2.576400 1_555
Na7 O65 2.482678 1_555
Na7 O43 2.603638 1_555
Na7 O44 2.767564 1_455
Na7 O29 2.819298 1_555
Na7 O63 2.819528 1_555
Na7 O12 2.823566 1_455
Na7 O8 2.931416 1_555
Na8 O44 2.508483 1_555
Na8 O64 2.513869 1_555
Na8 O63 2.605841 1_555
Na8 O27 2.748390 1_555
Na8 O6 2.889249 1_555
Na8 O42 3.007016 1_665
Na9 O45 2.460222 1_455
Na9 O61 2.484174 1_555
Na9 O26 2.522331 1_554
Na9 O62 2.637817 1_555
Na9 O11 2.671073 1_555
Na10 O46 2.582394 1_565
Na10 O60 2.637860 1_555
Na10 O45 2.684185 1_555
Na10 O24 2.686657 1_554
Na10 O62 2.700593 1_555
Na10 O9 2.829307 1_555
Na11 O10 2.379643 1_555
Na11 O61 2.401983 1_555
Na11 O47 2.572311 1_555
Na11 O60 2.661498 1_555
Na11 O15 2.915644 1_455
Na11 O25 2.968338 1_554
Na11 O46 3.009586 1_455
Na12 O40 2.319182 1_655
Na12 O41 2.554777 1_555
Na12 O54 2.627197 1_555
Na12 O4 2.660104 1_555
Na12 O19 2.783042 1_556
Na13 O5 2.301368 1_555
Na13 O41 2.624408 1_545
Na13 O55 2.734294 1_555
Na13 O39 2.835772 1_655
Na13 O56 2.908233 1_555
Na13 O34 2.919117 1_545
Na14 O3 2.269339 1_555
Na14 O40 2.342059 1_545
Na14 O56 2.418557 1_555
Na14 O39 2.510797 1_555
Na15 O37 2.394755 1_545
Na15 O57 2.425222 1_555
Na15 O38 2.568384 1_655
Na15 O23 2.654733 1_555
Na15 O2 2.739836 1_555
Na16 O58 2.578546 1_555
Na16 O36 2.630712 1_545
Na16 O0 2.681963 1_555
Na16 O38 2.729632 1_555
Na16 O57 2.754174 1_555
Na16 O21 2.974122 1_555
Na17 O37 2.413197 1_555
Na17 O22 2.423701 1_555
Na17 O59 2.597909 1_555
Na17 O36 2.625677 1_655
Na17 O27 2.794676 1_555
Na18 O37 2.435374 1_555
Na18 O44 2.448763 1_555
Na18 O42 2.663470 1_665
Na18 O38 2.694900 1_665
Na18 O36 2.768700 1_655
Na19 O40 2.245648 1_555
Na19 O41 2.494313 1_455
Na19 O39 2.597640 1_565
Na19 O45 2.672775 1_456
Na20 O48 2.242852 1_555
Na20 O49 2.262390 1_555
Na20 O50 2.453659 1_555
Na20 O56 2.802314 1_555
Na21 O52 2.335741 1_555
Na21 O53 2.440246 1_555
Na21 O57 2.580359 1_555
Na21 O51 2.728424 1_555
Na21 O58 2.929592 1_555
Na21 O59 3.037141 1_555
Na22 O61 2.427124 1_555
Na22 O68 2.441994 1_555
Na22 O66 2.681143 1_555
Na22 O62 2.693623 1_555
Na22 O60 2.780892 1_555
Na23 O64 2.290456 1_555
Na23 O65 2.460179 1_555
Na23 O63 2.593099 1_555
Na23 O69 2.709302 1_555
La0 O6 2.189784 1_545
La0 O7 2.271404 1_655
La0 O42 2.305545 1_655
La0 O44 2.394845 1_545
La0 O43 2.453547 1_645
La0 O8 2.481637 1_645
La1 O11 2.202140 1_545
La1 O10 2.280943 1_555
La1 O9 2.393400 1_445
La1 O45 2.422902 1_445
La1 O47 2.464205 1_555
La1 O46 2.556314 1_455
La2 O19 2.269872 1_556
La2 O56 2.315624 1_555
La2 O18 2.336710 1_556
La2 O20 2.388150 1_556
La2 O55 2.413738 1_555
La2 O54 2.442371 1_555
La3 O23 2.197599 1_555
La3 O22 2.263997 1_555
La3 O21 2.378997 1_555
La3 O57 2.406303 1_555
La3 O59 2.455460 1_555
La3 O58 2.584615 1_555
La4 O31 2.239400 1_555
La4 O66 2.296556 1_555
La4 O30 2.356803 1_555
La4 O68 2.392972 1_555
La4 O67 2.442509 1_555
La4 O32 2.463405 1_555
La5 O71 2.210044 1_555
La5 O34 2.267307 1_555
La5 O69 2.346515 1_555
La5 O35 2.398902 1_555
La5 O33 2.427149 1_555
La5 O70 2.465533 1_555
O0 Si0 1.665919 1_555
O0 Zn0 2.067651 1_555
O1 S0 1.474689 1_555
O1 Zn0 2.457191 1_665
O2 Si1 1.641567 1_555
O2 Zn0 1.941067 1_655
O3 Si2 1.668920 1_555
O3 Zn1 1.904178 1_555
O4 S1 1.495951 1_555
O4 Zn1 2.225784 1_665
O5 Si3 1.678099 1_555
O5 Zn1 1.926942 1_655
O6 Si3 1.625301 1_565
O7 Si2 1.630007 1_555
O8 S1 1.477849 1_455
O9 S0 1.497062 1_555
O10 Si1 1.645748 1_455
O11 Si0 1.648825 1_565
O12 Si4 1.664445 1_555
O12 Zn2 2.064822 1_555
O13 S2 1.475632 1_555
O13 Zn2 2.426263 1_555
O14 Si5 1.644864 1_555
O14 Zn2 2.003751 1_555
O15 Si6 1.644895 1_555
O15 Zn3 2.002689 1_555
O16 S3 1.473302 1_555
O16 Zn3 2.370262 1_555
O17 S4 1.467696 1_555
O18 S4 1.498912 1_555
O19 Si6 1.646204 1_555
O20 S3 1.498471 1_555
O21 S2 1.492994 1_555
O22 Si5 1.641056 1_555
O23 Si4 1.645261 1_555
O24 S5 1.483157 1_555
O25 S6 1.503974 1_555
O25 Zn4 2.058214 1_556
O26 Si7 1.665357 1_555
O26 Zn4 1.881887 1_556
O27 Si8 1.662919 1_555
O27 Zn5 2.014152 1_555
O28 S7 1.478403 1_555
O28 Zn5 2.347913 1_555
O29 S8 1.475896 1_555
O30 S8 1.496264 1_555
O31 Si8 1.647094 1_555
O32 S7 1.492083 1_555
O33 S6 1.490056 1_555
O34 Si7 1.633245 1_555
O35 S5 1.481143 1_555
O36 S8 1.492195 1_555
O36 Zn0 2.586855 1_565
O37 Si8 1.673307 1_555
O37 Zn0 2.261246 1_665
O38 S7 1.499372 1_555
O38 Zn0 2.395365 1_555
O39 S6 1.460515 1_555
O40 Si7 1.635945 1_555
O41 S5 1.496327 1_555
O42 Si4 1.654113 1_455
O43 S2 1.493318 1_565
O44 Si5 1.655559 1_555
O45 Si6 1.661742 1_555
O46 S3 1.507159 1_555
O47 S4 1.507977 1_555
O48 Si3 1.640800 1_555
O48 Zn2 2.410353 1_555
O49 Si2 1.648950 1_555
O49 Zn2 2.224740 1_555
O50 S1 1.488829 1_555
O50 Zn2 2.475173 1_555
O51 S0 1.488041 1_555
O51 Zn3 2.353544 1_555
O52 Si1 1.654158 1_555
O52 Zn3 1.997511 1_555
O53 Si0 1.667848 1_555
O53 Zn3 2.097948 1_555
O54 S5 1.503641 1_555
O55 S6 1.497439 1_655
O56 Si7 1.673810 1_545
O57 Si8 1.672800 1_545
O58 S7 1.500272 1_555
O59 S8 1.498388 1_655
O60 S4 1.488468 1_555
O61 Si6 1.684784 1_455
O61 Zn4 1.966530 1_555
O62 S3 1.489581 1_565
O63 S2 1.488925 1_565
O63 Zn5 2.372547 1_555
O64 Si5 1.659268 1_555
O64 Zn5 2.013843 1_555
O65 Si4 1.667075 1_455
O65 Zn5 2.094988 1_555
O66 Si0 1.657173 1_565
O67 S0 1.497254 1_555
O68 Si1 1.659983 1_455
O69 Si2 1.660685 1_555
O70 S1 1.497997 1_455
O71 Si3 1.648374 1_565
