# generated using pymatgen
data_Na(CoO2)3
_symmetry_space_group_name_H-M   'P 1'
_cell_length_a   8.57391458
_cell_length_b   4.97519423
_cell_length_c   5.53715122
_cell_angle_alpha   61.95193828
_cell_angle_beta   56.89448951
_cell_angle_gamma   30.34972435
_symmetry_Int_Tables_number   1
_chemical_formula_structural   Na(CoO2)3
_chemical_formula_sum   'Na1 Co3 O6'
_cell_volume   99.97107090
_cell_formula_units_Z   1
loop_
 _symmetry_equiv_pos_site_id
 _symmetry_equiv_pos_as_xyz
  1  'x, y, z'
loop_
 _atom_site_type_symbol
 _atom_site_label
 _atom_site_symmetry_multiplicity
 _atom_site_fract_x
 _atom_site_fract_y
 _atom_site_fract_z
 _atom_site_occupancy
  Na  Na0  1  0.20291700  0.96157000  0.44014400  1
  Co  Co0  1  0.99881600  0.96394200  0.06845300  1
  Co  Co1  1  0.48573800  0.94588400  0.62737300  1
  Co  Co2  1  0.66780600  0.96934500  0.02792200  1
  O  O0  1  0.08440200  0.27702300  0.82367300  1
  O  O1  1  0.26534800  0.54542800  0.27330500  1
  O  O2  1  0.40700200  0.30259100  0.83319800  1
  O  O3  1  0.65666400  0.58480500  0.28319000  1
  O  O4  1  0.75766300  0.28197800  0.83275500  1
  O  O5  1  0.83097800  0.78943300  0.28498600  1
loop_
_geom_bond_atom_site_label_1
_geom_bond_atom_site_label_2
_geom_bond_distance
_geom_bond_site_symmetry_2
Na0 O3 2.157919 1_555
Na0 O1 2.184553 1_555
Na0 O5 2.206290 1_465
Na0 O4 2.351834 1_465
Na0 O0 2.455670 1_565
Na0 O2 2.468976 1_555
Co0 O1 1.800681 1_655
Co0 O5 1.885419 1_555
Co0 O3 1.888193 1_565
Co0 O0 1.924222 1_664
Co0 O4 1.959896 1_564
Co0 O2 1.986886 1_654
Co1 O0 1.884251 1_565
Co1 O4 1.926596 1_555
Co1 O2 1.974345 1_565
Co1 O5 2.059877 1_555
Co1 O3 2.152185 1_555
Co1 O1 2.265159 1_565
Co2 O3 1.814399 1_555
Co2 O1 1.854516 1_565
Co2 O2 1.861587 1_564
Co2 O5 1.897464 1_555
Co2 O4 1.938735 1_564
Co2 O0 1.979413 1_654
