# generated using pymatgen
data_CdGeO3
_symmetry_space_group_name_H-M   'P 1'
_cell_length_a   7.04561341
_cell_length_b   7.04561341
_cell_length_c   5.39984523
_cell_angle_alpha   81.38321713
_cell_angle_beta   81.38321713
_cell_angle_gamma   86.93910729
_symmetry_Int_Tables_number   1
_chemical_formula_structural   CdGeO3
_chemical_formula_sum   'Cd4 Ge4 O12'
_cell_volume   261.90346299
_cell_formula_units_Z   4
loop_
 _symmetry_equiv_pos_site_id
 _symmetry_equiv_pos_as_xyz
  1  'x, y, z'
loop_
 _atom_site_type_symbol
 _atom_site_label
 _atom_site_symmetry_multiplicity
 _atom_site_fract_x
 _atom_site_fract_y
 _atom_site_fract_z
 _atom_site_occupancy
  Cd  Cd0  1  0.71060445  0.28939555  0.75000000  1
  Cd  Cd1  1  0.28939555  0.71060445  0.25000000  1
  Cd  Cd2  1  0.09571110  0.90428890  0.75000000  1
  Cd  Cd3  1  0.90428890  0.09571110  0.25000000  1
  Ge  Ge0  1  0.20601463  0.38518044  0.77494841  1
  Ge  Ge1  1  0.61481956  0.79398537  0.72505159  1
  Ge  Ge2  1  0.79398537  0.61481956  0.22505159  1
  Ge  Ge3  1  0.38518044  0.20601463  0.27494841  1
  O  O0  1  0.39136085  0.85843277  0.86942686  1
  O  O1  1  0.14156723  0.60863915  0.63057314  1
  O  O2  1  0.60863915  0.14156723  0.13057314  1
  O  O3  1  0.85843277  0.39136085  0.36942686  1
  O  O4  1  0.69943025  0.59382339  0.93726676  1
  O  O5  1  0.40617661  0.30056975  0.56273324  1
  O  O6  1  0.30056975  0.40617661  0.06273324  1
  O  O7  1  0.59382339  0.69943025  0.43726676  1
  O  O8  1  0.21525386  0.02841922  0.34667537  1
  O  O9  1  0.97158078  0.78474614  0.15332463  1
  O  O10  1  0.78474614  0.97158078  0.65332463  1
  O  O11  1  0.02841922  0.21525386  0.84667537  1
loop_
_geom_bond_atom_site_label_1
_geom_bond_atom_site_label_2
_geom_bond_distance
_geom_bond_site_symmetry_2
Cd0 O3 2.195504 1_555
Cd0 O2 2.195504 1_556
Cd0 O10 2.388106 1_545
Cd0 O11 2.388106 1_655
Cd0 O4 2.497457 1_555
Cd0 O5 2.497457 1_555
Cd1 O1 2.195504 1_555
Cd1 O0 2.195504 1_554
Cd1 O8 2.388106 1_565
Cd1 O9 2.388106 1_455
Cd1 O6 2.497457 1_555
Cd1 O7 2.497457 1_555
Cd2 O0 2.264401 1_555
Cd2 O1 2.264401 1_555
Cd2 O9 2.275024 1_456
Cd2 O8 2.275024 1_565
Cd2 O10 2.335624 1_455
Cd2 O11 2.335624 1_565
Cd3 O2 2.264401 1_555
Cd3 O3 2.264401 1_555
Cd3 O11 2.275024 1_654
Cd3 O10 2.275024 1_545
Cd3 O9 2.335624 1_545
Cd3 O8 2.335624 1_655
Ge0 O1 1.718908 1_555
Ge0 O11 1.739217 1_555
Ge0 O6 1.808377 1_556
Ge0 O5 1.813295 1_555
Ge1 O0 1.718908 1_555
Ge1 O10 1.739217 1_555
Ge1 O7 1.808377 1_555
Ge1 O4 1.813295 1_555
Ge2 O3 1.718908 1_555
Ge2 O9 1.739217 1_555
Ge2 O4 1.808377 1_554
Ge2 O7 1.813295 1_555
Ge3 O2 1.718908 1_555
Ge3 O8 1.739217 1_555
Ge3 O5 1.808377 1_555
Ge3 O6 1.813295 1_555
