# generated using pymatgen
data_In6Ga2PtO8
_symmetry_space_group_name_H-M   'P 1'
_cell_length_a   7.18746749
_cell_length_b   7.18746749
_cell_length_c   7.18746749
_cell_angle_alpha   60.00000000
_cell_angle_beta   60.00000000
_cell_angle_gamma   60.00000000
_symmetry_Int_Tables_number   1
_chemical_formula_structural   In6Ga2PtO8
_chemical_formula_sum   'In6 Ga2 Pt1 O8'
_cell_volume   262.55039844
_cell_formula_units_Z   1
loop_
 _symmetry_equiv_pos_site_id
 _symmetry_equiv_pos_as_xyz
  1  'x, y, z'
loop_
 _atom_site_type_symbol
 _atom_site_label
 _atom_site_symmetry_multiplicity
 _atom_site_fract_x
 _atom_site_fract_y
 _atom_site_fract_z
 _atom_site_occupancy
  In  In0  1  0.74676200  0.74676200  0.25323800  1
  In  In1  1  0.74676200  0.25323800  0.74676200  1
  In  In2  1  0.25323800  0.74676200  0.25323800  1
  In  In3  1  0.74676200  0.25323800  0.25323800  1
  In  In4  1  0.25323800  0.74676200  0.74676200  1
  In  In5  1  0.25323800  0.25323800  0.74676200  1
  Ga  Ga0  1  0.25000000  0.25000000  0.25000000  1
  Ga  Ga1  1  0.75000000  0.75000000  0.75000000  1
  Pt  Pt0  1  0.00000000  0.00000000  0.00000000  1
  O  O0  1  0.35866600  0.92400300  0.35866600  1
  O  O1  1  0.64133400  0.64133400  0.07599700  1
  O  O2  1  0.64133400  0.64133400  0.64133400  1
  O  O3  1  0.07599700  0.64133400  0.64133400  1
  O  O4  1  0.35866600  0.35866600  0.35866600  1
  O  O5  1  0.92400300  0.35866600  0.35866600  1
  O  O6  1  0.35866600  0.35866600  0.92400300  1
  O  O7  1  0.64133400  0.07599700  0.64133400  1
loop_
_geom_bond_atom_site_label_1
_geom_bond_atom_site_label_2
_geom_bond_distance
_geom_bond_site_symmetry_2
In0 O2 2.296970 1_555
In0 O5 2.296971 1_555
In0 O0 2.296971 1_555
In0 O1 2.296977 1_555
In0 Pt0 2.574067 1_665
In1 O2 2.296970 1_555
In1 O5 2.296971 1_555
In1 O6 2.296971 1_555
In1 O7 2.296977 1_555
In1 Pt0 2.574067 1_656
In2 O4 2.296970 1_555
In2 O3 2.296971 1_555
In2 O1 2.296971 1_555
In2 O0 2.296977 1_555
In2 Pt0 2.574067 1_565
In3 O4 2.296970 1_555
In3 O7 2.296971 1_555
In3 O1 2.296971 1_555
In3 O5 2.296977 1_555
In3 Pt0 2.574067 1_655
In4 O2 2.296970 1_555
In4 O6 2.296971 1_555
In4 O0 2.296971 1_555
In4 O3 2.296977 1_555
In4 Pt0 2.574067 1_566
In5 O4 2.296970 1_555
In5 O3 2.296971 1_555
In5 O7 2.296971 1_555
In5 O6 2.296977 1_555
In5 Pt0 2.574067 1_556
Ga0 O6 1.913127 1_554
Ga0 O0 1.913127 1_545
Ga0 O5 1.913127 1_455
Ga0 O4 1.913133 1_555
Ga1 O7 1.913127 1_565
Ga1 O3 1.913127 1_655
Ga1 O1 1.913127 1_556
Ga1 O2 1.913133 1_555
