# generated using pymatgen
data_MgMn4(NiO6)2
_symmetry_space_group_name_H-M   'P 1'
_cell_length_a   5.04432126
_cell_length_b   5.05467584
_cell_length_c   10.21846635
_cell_angle_alpha   98.04803217
_cell_angle_beta   80.30975221
_cell_angle_gamma   120.59101833
_symmetry_Int_Tables_number   1
_chemical_formula_structural   MgMn4(NiO6)2
_chemical_formula_sum   'Mg1 Mn4 Ni2 O12'
_cell_volume   220.62842996
_cell_formula_units_Z   1
loop_
 _symmetry_equiv_pos_site_id
 _symmetry_equiv_pos_as_xyz
  1  'x, y, z'
loop_
 _atom_site_type_symbol
 _atom_site_label
 _atom_site_symmetry_multiplicity
 _atom_site_fract_x
 _atom_site_fract_y
 _atom_site_fract_z
 _atom_site_occupancy
  Mg  Mg0  1  0.89852195  0.37139024  0.24674206  1
  Mn  Mn0  1  0.17463888  0.82002615  0.50341772  1
  Mn  Mn1  1  0.31576101  0.67173643  0.99529614  1
  Mn  Mn2  1  0.84439038  0.15890061  0.50854148  1
  Mn  Mn3  1  0.65395471  0.34120399  0.99397377  1
  Ni  Ni0  1  0.51119088  0.49098128  0.50291412  1
  Ni  Ni1  1  0.98480920  0.00631193  0.99618040  1
  O  O0  1  0.63731218  0.03359166  0.09808584  1
  O  O1  1  0.34141684  0.99033497  0.90344203  1
  O  O2  1  0.84274255  0.50669111  0.60443085  1
  O  O3  1  0.55088787  0.15127346  0.40133859  1
  O  O4  1  0.86642990  0.79967442  0.40473751  1
  O  O5  1  0.67639025  0.65966630  0.90363370  1
  O  O6  1  0.95497437  0.65553936  0.10623949  1
  O  O7  1  0.01107386  0.35150808  0.89570297  1
  O  O8  1  0.48140330  0.83492485  0.59713971  1
  O  O9  1  0.15621524  0.17159210  0.59669613  1
  O  O10  1  0.27654128  0.35145037  0.09727845  1
  O  O11  1  0.17134636  0.47070270  0.39421003  1
loop_
_geom_bond_atom_site_label_1
_geom_bond_atom_site_label_2
_geom_bond_distance
_geom_bond_site_symmetry_2
Mg0 O11 2.049358 1_655
Mg0 O6 2.056397 1_555
Mg0 O3 2.093394 1_555
Mg0 O0 2.148655 1_555
Mg0 O10 2.269571 1_655
Mg0 O4 2.570858 1_555
Mn0 O2 1.885198 1_455
Mn0 O8 1.917665 1_555
Mn0 O9 1.933665 1_565
Mn0 O4 1.944327 1_455
Mn0 O11 1.946279 1_555
Mn0 O3 2.020341 1_565
Mn1 O7 1.884443 1_555
Mn1 O1 1.913475 1_555
Mn1 O5 1.927078 1_555
Mn1 O6 1.945202 1_456
Mn1 O10 1.955274 1_556
Mn1 O0 2.023762 1_566
Mn2 O2 1.892201 1_555
Mn2 O9 1.909930 1_655
Mn2 O8 1.912901 1_545
Mn2 O11 1.946852 1_655
Mn2 O3 1.967104 1_555
Mn2 O4 2.015186 1_545
Mn3 O7 1.888489 1_655
Mn3 O5 1.910942 1_555
Mn3 O1 1.916355 1_545
Mn3 O6 1.940784 1_556
Mn3 O0 1.963866 1_556
Mn3 O10 2.037142 1_556
Ni0 O4 1.907731 1_555
Ni0 O9 1.908984 1_555
Ni0 O8 1.928878 1_555
Ni0 O3 1.961341 1_555
Ni0 O2 2.074922 1_555
Ni0 O11 2.147893 1_555
Ni1 O5 1.908308 1_545
Ni1 O10 1.915837 1_656
Ni1 O1 1.921707 1_645
Ni1 O0 1.940952 1_556
Ni1 O7 2.082494 1_655
Ni1 O6 2.158912 1_546
