# generated using pymatgen
data_Na7Al2Sb5
_symmetry_space_group_name_H-M   'P 1'
_cell_length_a   13.62169100
_cell_length_b   7.68963199
_cell_length_c   8.17485297
_cell_angle_alpha   62.01291534
_cell_angle_beta   90.00000000
_cell_angle_gamma   90.00000000
_symmetry_Int_Tables_number   1
_chemical_formula_structural   Na7Al2Sb5
_chemical_formula_sum   'Na14 Al4 Sb10'
_cell_volume   756.14223402
_cell_formula_units_Z   2
loop_
 _symmetry_equiv_pos_site_id
 _symmetry_equiv_pos_as_xyz
  1  'x, y, z'
loop_
 _atom_site_type_symbol
 _atom_site_label
 _atom_site_symmetry_multiplicity
 _atom_site_fract_x
 _atom_site_fract_y
 _atom_site_fract_z
 _atom_site_occupancy
  Na  Na0  1  0.25000000  0.90088127  0.40439148  1
  Na  Na1  1  0.92509357  0.89021729  0.41661747  1
  Na  Na2  1  0.92319198  0.19199903  0.88295485  1
  Na  Na3  1  0.42319198  0.80800097  0.11704515  1
  Na  Na4  1  0.75000000  0.09911873  0.59560852  1
  Na  Na5  1  0.25000000  0.43931158  0.26071891  1
  Na  Na6  1  0.75000000  0.76741640  0.14550970  1
  Na  Na7  1  0.25000000  0.23258360  0.85449030  1
  Na  Na8  1  0.07490643  0.10978271  0.58338253  1
  Na  Na9  1  0.07680802  0.80800097  0.11704515  1
  Na  Na10  1  0.42509357  0.10978271  0.58338253  1
  Na  Na11  1  0.75000000  0.56068842  0.73928109  1
  Na  Na12  1  0.57680802  0.19199903  0.88295485  1
  Na  Na13  1  0.57490643  0.89021729  0.41661747  1
  Al  Al0  1  0.08852122  0.58763653  0.83914031  1
  Al  Al1  1  0.58852122  0.41236347  0.16085969  1
  Al  Al2  1  0.91147878  0.41236347  0.16085969  1
  Al  Al3  1  0.41147878  0.58763653  0.83914031  1
  Sb  Sb0  1  0.10160880  0.53029548  0.53588331  1
  Sb  Sb1  1  0.92112296  0.77666247  0.84982186  1
  Sb  Sb2  1  0.42112296  0.22333753  0.15017814  1
  Sb  Sb3  1  0.07887704  0.22333753  0.15017814  1
  Sb  Sb4  1  0.89839120  0.46970452  0.46411669  1
  Sb  Sb5  1  0.39839120  0.53029548  0.53588331  1
  Sb  Sb6  1  0.60160880  0.46970452  0.46411669  1
  Sb  Sb7  1  0.25000000  0.80293652  0.83851369  1
  Sb  Sb8  1  0.75000000  0.19706348  0.16148631  1
  Sb  Sb9  1  0.57887704  0.77666247  0.84982186  1
loop_
_geom_bond_atom_site_label_1
_geom_bond_atom_site_label_2
_geom_bond_distance
_geom_bond_site_symmetry_2
Na0 Sb0 3.238356 1_555
Na0 Sb5 3.238356 1_555
Na0 Sb7 3.263927 1_555
Na0 Sb2 3.326293 1_565
Na0 Sb3 3.326293 1_565
Na1 Sb4 3.092044 1_555
Na1 Sb1 3.225601 1_555
Na1 Sb3 3.233797 1_665
Na1 Sb8 3.314692 1_565
Na1 Sb0 3.443731 1_655
Na2 Sb4 3.087933 1_555
Na2 Sb3 3.133940 1_656
Na2 Sb8 3.291646 1_556
Na2 Sb1 3.329613 1_545
Na2 Sb0 3.714370 1_655
Na3 Sb5 3.087933 1_555
Na3 Sb9 3.133940 1_554
Na3 Sb7 3.291646 1_554
Na3 Sb2 3.329613 1_565
Na3 Sb6 3.714370 1_555
Na4 Sb6 3.238356 1_555
Na4 Sb4 3.238356 1_555
Na4 Sb8 3.263927 1_555
Na4 Sb1 3.326293 1_545
Na4 Sb9 3.326293 1_545
Na5 Sb3 3.227496 1_555
Na5 Sb2 3.227496 1_555
Na5 Sb7 3.267006 1_554
Na5 Sb5 3.333509 1_555
Na5 Sb0 3.333509 1_555
Na6 Sb6 3.242570 1_555
Na6 Sb4 3.242570 1_555
Na6 Sb1 3.334685 1_554
Na6 Sb9 3.334685 1_554
Na6 Sb8 3.367094 1_565
Na7 Sb5 3.242570 1_555
Na7 Sb0 3.242570 1_555
Na7 Sb2 3.334685 1_556
Na7 Sb3 3.334685 1_556
Na7 Sb7 3.367094 1_545
Na8 Sb0 3.092044 1_555
Na8 Sb3 3.225601 1_555
Na8 Sb1 3.233797 1_445
Na8 Sb7 3.314692 1_545
Na8 Sb4 3.443731 1_455
Na9 Sb0 3.087933 1_555
Na9 Sb1 3.133940 1_454
Na9 Sb7 3.291646 1_554
Na9 Sb3 3.329613 1_565
Na9 Sb4 3.714370 1_455
Na10 Sb5 3.092044 1_555
Na10 Sb2 3.225601 1_555
Na10 Sb9 3.233797 1_545
Na10 Sb7 3.314692 1_545
Na10 Sb6 3.443731 1_555
Na11 Sb9 3.227496 1_555
Na11 Sb1 3.227496 1_555
Na11 Sb8 3.267006 1_556
Na11 Sb4 3.333509 1_555
Na11 Sb6 3.333509 1_555
Na12 Sb6 3.087933 1_555
Na12 Sb2 3.133940 1_556
Na12 Sb8 3.291646 1_556
Na12 Sb9 3.329613 1_545
Na12 Sb5 3.714370 1_555
Na13 Sb6 3.092044 1_555
Na13 Sb9 3.225601 1_555
Na13 Sb2 3.233797 1_565
Na13 Sb8 3.314692 1_565
Na13 Sb5 3.443731 1_555
Al0 Sb0 2.719922 1_555
Al0 Sb1 2.727463 1_455
Al0 Sb7 2.751601 1_555
Al0 Sb3 2.764921 1_556
Al0 Na7 3.462173 1_555
Al1 Sb6 2.719922 1_555
Al1 Sb2 2.727463 1_555
Al1 Sb8 2.751601 1_555
Al1 Sb9 2.764921 1_554
Al1 Na6 3.462173 1_555
Al2 Sb4 2.719922 1_555
Al2 Sb3 2.727463 1_655
Al2 Sb8 2.751601 1_555
Al2 Sb1 2.764921 1_554
Al2 Na6 3.462173 1_555
Al3 Sb5 2.719922 1_555
Al3 Sb9 2.727463 1_555
Al3 Sb7 2.751601 1_555
Al3 Sb2 2.764921 1_556
Al3 Na7 3.462173 1_555
Sb0 Sb4 2.912143 1_455
Sb5 Sb6 2.912143 1_555
