# generated using pymatgen
data_LaBrO
_symmetry_space_group_name_H-M   'P 1'
_cell_length_a   4.14055930
_cell_length_b   4.14055930
_cell_length_c   7.59027008
_cell_angle_alpha   90.00000000
_cell_angle_beta   90.00000000
_cell_angle_gamma   90.00000000
_symmetry_Int_Tables_number   1
_chemical_formula_structural   LaBrO
_chemical_formula_sum   'La2 Br2 O2'
_cell_volume   130.12934601
_cell_formula_units_Z   2
loop_
 _symmetry_equiv_pos_site_id
 _symmetry_equiv_pos_as_xyz
  1  'x, y, z'
loop_
 _atom_site_type_symbol
 _atom_site_label
 _atom_site_symmetry_multiplicity
 _atom_site_fract_x
 _atom_site_fract_y
 _atom_site_fract_z
 _atom_site_occupancy
  La  La0  1  0.75000000  0.75000000  0.84205541  1
  La  La1  1  0.25000000  0.25000000  0.15794459  1
  Br  Br0  1  0.25000000  0.25000000  0.64143290  1
  Br  Br1  1  0.75000000  0.75000000  0.35856710  1
  O  O0  1  0.75000000  0.25000000  0.00000000  1
  O  O1  1  0.25000000  0.75000000  0.00000000  1
loop_
_geom_bond_atom_site_label_1
_geom_bond_atom_site_label_2
_geom_bond_distance
_geom_bond_site_symmetry_2
La0 O0 2.392338 1_556
La0 O1 2.392338 1_556
La0 O0 2.392338 1_566
La0 O1 2.392338 1_656
La1 O1 2.392338 1_555
La1 O0 2.392338 1_455
La1 O1 2.392338 1_545
La1 O0 2.392338 1_555
Br0 La0 3.300147 1_545
Br0 La0 3.300147 1_555
Br0 La0 3.300147 1_445
Br0 La0 3.300147 1_455
Br0 La1 3.669807 1_555
Br1 La1 3.300147 1_565
Br1 La1 3.300147 1_555
Br1 La1 3.300147 1_655
Br1 La1 3.300147 1_665
Br1 La0 3.669807 1_555
