# generated using pymatgen
data_Na42Ta4Zn20Si15(S7O48)3
_symmetry_space_group_name_H-M   'P 1'
_cell_length_a   18.41409638
_cell_length_b   9.10351521
_cell_length_c   22.10847955
_cell_angle_alpha   90.08650725
_cell_angle_beta   90.37233510
_cell_angle_gamma   119.64846198
_symmetry_Int_Tables_number   1
_chemical_formula_structural   Na42Ta4Zn20Si15(S7O48)3
_chemical_formula_sum   'Na42 Ta4 Zn20 Si15 S21 O144'
_cell_volume   3220.77951321
_cell_formula_units_Z   1
loop_
 _symmetry_equiv_pos_site_id
 _symmetry_equiv_pos_as_xyz
  1  'x, y, z'
loop_
 _atom_site_type_symbol
 _atom_site_label
 _atom_site_symmetry_multiplicity
 _atom_site_fract_x
 _atom_site_fract_y
 _atom_site_fract_z
 _atom_site_occupancy
  Na  Na0  1  0.30896425  0.99592262  0.23742297  1
  Na  Na1  1  0.80657573  0.99476444  0.23864191  1
  Na  Na2  1  0.19232738  0.37203297  0.25059689  1
  Na  Na3  1  0.69231707  0.37150384  0.24255909  1
  Na  Na4  1  0.99787247  0.63062609  0.24925879  1
  Na  Na5  1  0.49755118  0.63560940  0.24768804  1
  Na  Na6  1  0.30483309  0.61935566  0.74321150  1
  Na  Na7  1  0.81069627  0.62465897  0.74121609  1
  Na  Na8  1  0.00030543  0.35971087  0.75492295  1
  Na  Na9  1  0.49655781  0.36261519  0.75334812  1
  Na  Na10  1  0.18989429  0.01096667  0.75435262  1
  Na  Na11  1  0.69386185  0.01332979  0.75404539  1
  Na  Na12  1  0.16336833  0.34591297  0.58663190  1
  Na  Na13  1  0.66334515  0.35130477  0.58828764  1
  Na  Na14  1  0.31677845  0.95792074  0.58780618  1
  Na  Na15  1  0.16090262  0.96987655  0.07433455  1
  Na  Na16  1  0.66323500  0.97991669  0.08258484  1
  Na  Na17  1  0.81857874  0.67876938  0.08406912  1
  Na  Na18  1  0.48104396  0.66507248  0.92023511  1
  Na  Na19  1  0.99257991  0.67931232  0.91988737  1
  Na  Na20  1  0.34302552  0.03215602  0.91474239  1
  Na  Na21  1  0.85620818  0.04502150  0.91706034  1
  Na  Na22  1  0.16380680  0.28741010  0.90843248  1
  Na  Na23  1  0.66795620  0.29403305  0.91893116  1
  Na  Na24  1  0.48203614  0.29765748  0.41672042  1
  Na  Na25  1  0.98353195  0.29805253  0.41857000  1
  Na  Na26  1  0.16789231  0.04246090  0.41853105  1
  Na  Na27  1  0.66494218  0.03643010  0.40854437  1
  Na  Na28  1  0.35452589  0.66395186  0.41741228  1
  Na  Na29  1  0.85354312  0.66610905  0.41798629  1
  Na  Na30  1  0.99706226  0.97254393  0.50309842  1
  Na  Na31  1  0.49610082  0.97099829  0.49733364  1
  Na  Na32  1  0.00482959  0.01834600  0.99210586  1
  Na  Na33  1  0.49263830  0.01886192  0.00070829  1
  Na  Na34  1  0.31907883  0.30675435  0.83050210  1
  Na  Na35  1  0.83180533  0.32635153  0.82893195  1
  Na  Na36  1  0.32868989  0.33520201  0.32675619  1
  Na  Na37  1  0.82814707  0.33492546  0.32580725  1
  Na  Na38  1  0.17904150  0.67698129  0.16131505  1
  Na  Na39  1  0.66865800  0.66085330  0.16194907  1
  Na  Na40  1  0.16885930  0.67786261  0.66621151  1
  Na  Na41  1  0.67972397  0.68010950  0.66571217  1
  Ta  Ta0  1  0.99699147  0.99929384  0.64765583  1
  Ta  Ta1  1  0.49607249  0.00043998  0.64982619  1
  Ta  Ta2  1  0.99606369  0.99071113  0.14948778  1
  Ta  Ta3  1  0.49696860  0.99181877  0.14644443  1
  Zn  Zn0  1  0.00249012  0.98194139  0.33688361  1
  Zn  Zn1  1  0.49854659  0.97558267  0.33316965  1
  Zn  Zn2  1  0.00552871  0.01703703  0.84566305  1
  Zn  Zn3  1  0.50094311  0.02199982  0.83978073  1
  Zn  Zn4  1  0.31484305  0.31658275  0.68175317  1
  Zn  Zn5  1  0.82665162  0.32961366  0.68434474  1
  Zn  Zn6  1  0.32481167  0.32286889  0.18171077  1
  Zn  Zn7  1  0.81666699  0.31501163  0.17993136  1
  Zn  Zn8  1  0.32142124  0.29272324  0.98669445  1
  Zn  Zn9  1  0.82466844  0.31201262  0.00138823  1
  Zn  Zn10  1  0.32173256  0.33638771  0.50519949  1
  Zn  Zn11  1  0.83795738  0.34969465  0.49885069  1
  Zn  Zn12  1  0.17997012  0.69978012  0.01192908  1
  Zn  Zn13  1  0.66966669  0.66520350  0.02097850  1
  Zn  Zn14  1  0.17096084  0.67407062  0.52119407  1
  Zn  Zn15  1  0.67766956  0.67645967  0.51804564  1
  Zn  Zn16  1  0.17618972  0.68728642  0.30954635  1
  Zn  Zn17  1  0.67486415  0.68377643  0.30980962  1
  Zn  Zn18  1  0.17649670  0.68123148  0.81327323  1
  Zn  Zn19  1  0.67596336  0.66414143  0.81049577  1
  Si  Si0  1  0.14978484  0.00218352  0.25393655  1
  Si  Si1  1  0.64762900  0.99839937  0.25386380  1
  Si  Si2  1  0.35084425  0.69587058  0.25236681  1
  Si  Si3  1  0.85054404  0.69533299  0.25490618  1
  Si  Si4  1  0.14762258  0.30218524  0.75299007  1
  Si  Si5  1  0.64971888  0.29682894  0.75333895  1
  Si  Si6  1  0.35023677  0.00832238  0.75357436  1
  Si  Si7  1  0.85384210  0.00546571  0.75420869  1
  Si  Si8  1  0.17901235  0.02497870  0.58203822  1
  Si  Si9  1  0.33681560  0.63333738  0.58218577  1
  Si  Si10  1  0.83180585  0.63195024  0.58280415  1
  Si  Si11  1  0.33269459  0.03422576  0.08430982  1
  Si  Si12  1  0.83573659  0.03887537  0.08278495  1
  Si  Si13  1  0.67991806  0.33313824  0.08290079  1
  Si  Si14  1  0.16261310  0.96312109  0.91455499  1
  S  S0  1  0.00043073  0.28959661  0.25232637  1
  S  S1  1  0.50119575  0.28956019  0.25227997  1
  S  S2  1  0.99897863  0.70848192  0.75003997  1
  S  S3  1  0.50101215  0.71137312  0.75164933  1
  S  S4  1  0.48362993  0.33300309  0.58380955  1
  S  S5  1  0.98080623  0.32788263  0.58318341  1
  S  S6  1  0.68132123  0.03063916  0.58241254  1
  S  S7  1  0.48007275  0.62915764  0.08295919  1
  S  S8  1  0.98175128  0.62969826  0.08641184  1
  S  S9  1  0.17931907  0.33288664  0.08445949  1
  S  S10  1  0.31909404  0.66618780  0.91675416  1
  S  S11  1  0.81548891  0.66036588  0.91737847  1
  S  S12  1  0.01955043  0.38172747  0.91809481  1
  S  S13  1  0.52252645  0.38079309  0.91515911  1
  S  S14  1  0.66420307  0.95430363  0.91531872  1
  S  S15  1  0.31845625  0.97079780  0.41663905  1
  S  S16  1  0.81626487  0.97185984  0.41753403  1
  S  S17  1  0.16418194  0.37463124  0.41519175  1
  S  S18  1  0.66451920  0.37013586  0.41655933  1
  S  S19  1  0.02036247  0.66034925  0.41565556  1
  S  S20  1  0.52344469  0.66214661  0.41749641  1
  O  O0  1  0.11281413  0.04264681  0.31478044  1
  O  O1  1  0.61047098  0.03793793  0.31500088  1
  O  O2  1  0.40012042  0.76707727  0.31707561  1
  O  O3  1  0.90180943  0.78187330  0.31707474  1
  O  O4  1  0.48864255  0.19059851  0.30872592  1
  O  O5  1  0.98868889  0.19145516  0.30842282  1
  O  O6  1  0.11007197  0.18631406  0.81214185  1
  O  O7  1  0.61065678  0.17895106  0.81270050  1
  O  O8  1  0.48947048  0.78693821  0.80757384  1
  O  O9  1  0.98587733  0.78040071  0.80591359  1
  O  O10  1  0.40366016  0.02783750  0.81461662  1
  O  O11  1  0.90651815  0.02896922  0.81608862  1
  O  O12  1  0.40940551  0.99064564  0.69521287  1
  O  O13  1  0.90814762  0.98081393  0.69776824  1
  O  O14  1  0.08408015  0.19109087  0.69371620  1
  O  O15  1  0.58779772  0.18521886  0.69287651  1
  O  O16  1  0.00650076  0.82082134  0.69685136  1
  O  O17  1  0.50811561  0.82650969  0.69803696  1
  O  O18  1  0.40934479  0.83570106  0.19963975  1
  O  O19  1  0.90764700  0.83039680  0.19729781  1
  O  O20  1  0.00764130  0.19040245  0.19901711  1
  O  O21  1  0.50906790  0.19439217  0.19940133  1
  O  O22  1  0.08493339  0.98795054  0.19609091  1
  O  O23  1  0.58361945  0.98271951  0.19680382  1
  O  O24  1  0.44478525  0.34842465  0.63864509  1
  O  O25  1  0.93913014  0.34712471  0.63659102  1
  O  O26  1  0.24267174  0.10853700  0.63880398  1
  O  O27  1  0.73065497  0.10716572  0.63788179  1
  O  O28  1  0.32619098  0.51954771  0.64079474  1
  O  O29  1  0.81605769  0.50471069  0.63917116  1
  O  O30  1  0.44102286  0.53305863  0.13871110  1
  O  O31  1  0.93967415  0.53735463  0.14136394  1
  O  O32  1  0.31915811  0.12649488  0.14299610  1
  O  O33  1  0.82415242  0.12787736  0.14261698  1
  O  O34  1  0.22876895  0.35729812  0.14052644  1
  O  O35  1  0.74071796  0.37602273  0.14174266  1
  O  O36  1  0.21736896  0.29960479  0.03094420  1
  O  O37  1  0.71775454  0.28630589  0.02295054  1
  O  O38  1  0.43083316  0.55352855  0.02791714  1
  O  O39  1  0.92990169  0.56022384  0.03112599  1
  O  O40  1  0.35218038  0.13879185  0.02119810  1
  O  O41  1  0.85455702  0.14465668  0.02005241  1
  O  O42  1  0.21575729  0.14458224  0.52084223  1
  O  O43  1  0.72125075  0.13700476  0.52783213  1
  O  O44  1  0.35679206  0.56764418  0.51859351  1
  O  O45  1  0.84764884  0.56167318  0.51834456  1
  O  O46  1  0.43109211  0.29973330  0.52861797  1
  O  O47  1  0.93183422  0.30337859  0.52611230  1
  O  O48  1  0.27572168  0.68843108  0.96914870  1
  O  O49  1  0.77362572  0.68100617  0.97144499  1
  O  O50  1  0.07400139  0.47152472  0.97055174  1
  O  O51  1  0.57564802  0.47276884  0.96754860  1
  O  O52  1  0.14705556  0.85229272  0.97656314  1
  O  O53  1  0.65905833  0.85818328  0.97110951  1
  O  O54  1  0.27742879  0.86683607  0.47080271  1
  O  O55  1  0.77366670  0.86092552  0.46957484  1
  O  O56  1  0.15895730  0.46065949  0.47108125  1
  O  O57  1  0.65827419  0.45643678  0.47215539  1
  O  O58  1  0.07216864  0.67118641  0.46821573  1
  O  O59  1  0.57638402  0.67666296  0.47066152  1
  O  O60  1  0.05839850  0.64638128  0.35796450  1
  O  O61  1  0.56301165  0.64976663  0.36018907  1
  O  O62  1  0.26789655  0.89034730  0.36077005  1
  O  O63  1  0.76755157  0.89773216  0.36043346  1
  O  O64  1  0.16893925  0.47338715  0.36003119  1
  O  O65  1  0.67350341  0.47249951  0.36163233  1
  O  O66  1  0.05763212  0.46885672  0.86015675  1
  O  O67  1  0.56128511  0.47135264  0.85746896  1
  O  O68  1  0.18035430  0.87509804  0.85549876  1
  O  O69  1  0.66899761  0.86522663  0.86002016  1
  O  O70  1  0.27092467  0.64066925  0.85953345  1
  O  O71  1  0.76394276  0.63512576  0.86145652  1
  O  O72  1  0.01125485  0.81620900  0.41666141  1
  O  O73  1  0.51427846  0.81776074  0.41785113  1
  O  O74  1  0.40368171  0.98777046  0.41361607  1
  O  O75  1  0.90196502  0.99268449  0.41516194  1
  O  O76  1  0.08686977  0.20367763  0.41466507  1
  O  O77  1  0.58646722  0.20142633  0.41532167  1
  O  O78  1  0.00694336  0.20538466  0.91862766  1
  O  O79  1  0.51339743  0.20657931  0.91590487  1
  O  O80  1  0.07699187  0.98070898  0.91135154  1
  O  O81  1  0.58693504  0.97068186  0.91478135  1
  O  O82  1  0.40440196  0.82163084  0.91460073  1
  O  O83  1  0.89904038  0.81444106  0.91412043  1
  O  O84  1  0.49275868  0.16975052  0.58804503  1
  O  O85  1  0.98701209  0.16620291  0.58751272  1
  O  O86  1  0.08781176  0.02183169  0.59251324  1
  O  O87  1  0.59704387  0.02723273  0.58695992  1
  O  O88  1  0.42104779  0.83256419  0.59078041  1
  O  O89  1  0.91659826  0.82147680  0.59331368  1
  O  O90  1  0.48750776  0.80704754  0.08848486  1
  O  O91  1  0.99128238  0.81223512  0.09060925  1
  O  O92  1  0.41760906  0.01353604  0.09588541  1
  O  O93  1  0.91950363  0.00818461  0.09270676  1
  O  O94  1  0.09443690  0.16714303  0.09111682  1
  O  O95  1  0.58845418  0.15341178  0.09376529  1
  O  O96  1  0.34785393  0.18223882  0.74464712  1
  O  O97  1  0.84738165  0.17710661  0.74347922  1
  O  O98  1  0.24155658  0.32836814  0.74689559  1
  O  O99  1  0.74315413  0.32263585  0.74760816  1
  O  O100  1  0.42900243  0.54319167  0.74318875  1
  O  O101  1  0.92505930  0.53811662  0.74196869  1
  O  O102  1  0.34550973  0.51323237  0.24149117  1
  O  O103  1  0.84814914  0.51660178  0.24600715  1
  O  O104  1  0.42876913  0.31563842  0.24557014  1
  O  O105  1  0.92844990  0.31433706  0.24456615  1
  O  O106  1  0.24282137  0.16314217  0.24751136  1
  O  O107  1  0.74170159  0.15861716  0.24832555  1
  O  O108  1  0.32963828  0.51430451  0.92379847  1
  O  O109  1  0.82516287  0.50683490  0.92188869  1
  O  O110  1  0.43826651  0.36652722  0.91797023  1
  O  O111  1  0.93542165  0.37133185  0.92119681  1
  O  O112  1  0.24733650  0.15546541  0.91884876  1
  O  O113  1  0.74072204  0.12578140  0.91551149  1
  O  O114  1  0.32729872  0.14301755  0.42076898  1
  O  O115  1  0.82305553  0.14299475  0.42415952  1
  O  O116  1  0.24072309  0.35647934  0.41544617  1
  O  O117  1  0.73948747  0.34605308  0.41907111  1
  O  O118  1  0.43906420  0.50820258  0.41981791  1
  O  O119  1  0.93481868  0.50524992  0.41827812  1
  O  O120  1  0.16355076  0.47444728  0.07688431  1
  O  O121  1  0.66697547  0.49566795  0.07668482  1
  O  O122  1  0.06704422  0.65807708  0.08283579  1
  O  O123  1  0.56776020  0.66675801  0.07937973  1
  O  O124  1  0.24878588  0.84624560  0.08092921  1
  O  O125  1  0.75256506  0.84940061  0.07930344  1
  O  O126  1  0.16613462  0.83624917  0.57577931  1
  O  O127  1  0.66483062  0.85617520  0.57615481  1
  O  O128  1  0.25350952  0.65546559  0.57862532  1
  O  O129  1  0.74644169  0.64882739  0.58026201  1
  O  O130  1  0.06733265  0.46722541  0.57883754  1
  O  O131  1  0.57025210  0.47365047  0.57743864  1
  O  O132  1  0.14768879  0.82001375  0.25103506  1
  O  O133  1  0.64704383  0.81722213  0.25140866  1
  O  O134  1  0.25844912  0.68172125  0.25023451  1
  O  O135  1  0.75926346  0.68406331  0.25043240  1
  O  O136  1  0.07994105  0.45269689  0.25163912  1
  O  O137  1  0.58002353  0.45441272  0.25317367  1
  O  O138  1  0.14863239  0.48390257  0.75252496  1
  O  O139  1  0.64775104  0.47479288  0.75008346  1
  O  O140  1  0.07632397  0.69912306  0.74910064  1
  O  O141  1  0.58043250  0.70860362  0.75038608  1
  O  O142  1  0.26184372  0.83484999  0.74670272  1
  O  O143  1  0.76038170  0.83528626  0.75197855  1
loop_
_geom_bond_atom_site_label_1
_geom_bond_atom_site_label_2
_geom_bond_distance
_geom_bond_site_symmetry_2
Na0 O32 2.366055 1_565
Na0 O106 2.384823 1_565
Na0 O134 2.549617 1_555
Na0 O132 2.604298 1_555
Na0 O104 2.647871 1_565
Na0 O62 2.871909 1_555
Na0 O18 2.987578 1_555
Na1 O107 2.337343 1_565
Na1 O33 2.389320 1_565
Na1 O135 2.528720 1_555
Na1 O133 2.576118 1_555
Na1 O105 2.655723 1_565
Na1 O63 2.819791 1_555
Na2 O134 2.456588 1_555
Na2 O102 2.463782 1_555
Na2 O106 2.497034 1_555
Na2 O136 2.515280 1_555
Na2 O34 2.549402 1_555
Na2 O64 2.700070 1_555
Na3 O35 2.398717 1_555
Na3 O135 2.484274 1_555
Na3 O103 2.496303 1_555
Na3 O107 2.518328 1_555
Na3 O137 2.539746 1_555
Na3 O65 2.866221 1_555
Na4 O103 2.418602 1_555
Na4 O132 2.424325 1_655
Na4 O105 2.508247 1_555
Na4 O31 2.572922 1_555
Na4 O60 2.616235 1_655
Na4 O136 2.707628 1_655
Na5 O133 2.410782 1_555
Na5 O102 2.450912 1_555
Na5 O104 2.537697 1_555
Na5 O30 2.599817 1_555
Na5 O61 2.731712 1_555
Na5 O137 2.741999 1_555
Na6 O98 2.308614 1_555
Na6 O142 2.453129 1_555
Na6 O138 2.517036 1_555
Na6 O28 2.542851 1_555
Na6 O70 2.679624 1_555
Na6 O100 2.697621 1_555
Na7 O99 2.397226 1_555
Na7 O143 2.520061 1_555
Na7 O29 2.528639 1_555
Na7 O101 2.587813 1_555
Na7 O139 2.619379 1_555
Na7 O71 2.815518 1_555
Na8 O138 2.384960 1_555
Na8 O97 2.472895 1_455
Na8 O66 2.537295 1_555
Na8 O101 2.619599 1_455
Na8 O140 2.692130 1_555
Na8 O25 2.821238 1_455
Na8 O11 2.962253 1_455
Na8 O14 2.988448 1_555
Na9 O96 2.403137 1_555
Na9 O139 2.447280 1_555
Na9 O100 2.514142 1_555
Na9 O67 2.547482 1_555
Na9 O24 2.683680 1_555
Na9 O141 2.738512 1_555
Na9 O10 2.988969 1_555
Na10 O68 2.521856 1_545
Na10 O142 2.541274 1_545
Na10 O96 2.541607 1_555
Na10 O98 2.562256 1_555
Na10 O140 2.562875 1_545
Na10 O26 2.728467 1_555
Na10 O6 2.946267 1_555
Na11 O143 2.468655 1_545
Na11 O97 2.471583 1_555
Na11 O99 2.499399 1_555
Na11 O141 2.515814 1_545
Na11 O69 2.632405 1_545
Na11 O27 2.690918 1_555
Na11 O7 2.933899 1_555
Na12 O128 2.470891 1_555
Na12 O130 2.511056 1_555
Na12 O86 2.568901 1_555
Na12 O56 2.777286 1_555
Na12 O14 2.782477 1_555
Na12 O85 2.822660 1_455
Na12 O42 2.857434 1_555
Na12 O28 2.860189 1_555
Na13 O129 2.369284 1_555
Na13 O131 2.474064 1_555
Na13 O87 2.575042 1_555
Na13 O29 2.681854 1_555
Na13 O84 2.731692 1_555
Na13 O15 2.745805 1_555
Na13 O57 2.758536 1_555
Na13 O43 2.966148 1_555
Na14 O128 2.408593 1_555
Na14 O126 2.437653 1_555
Na14 O26 2.622950 1_565
Na14 O88 2.675723 1_555
Na14 O54 2.697906 1_555
Na14 O84 2.834953 1_565
Na14 O12 2.842392 1_555
Na15 O52 2.366233 1_554
Na15 O124 2.388767 1_555
Na15 O122 2.496318 1_555
Na15 O94 2.653107 1_565
Na15 O91 2.743376 1_455
Na15 O36 2.818741 1_565
Na15 O32 2.941876 1_565
Na16 O125 2.461239 1_555
Na16 O123 2.502458 1_555
Na16 O95 2.570373 1_565
Na16 O53 2.685703 1_554
Na16 O37 2.789946 1_565
Na16 O90 2.816447 1_555
Na16 O33 2.889775 1_565
Na16 O23 2.934545 1_555
Na17 O125 2.401784 1_555
Na17 O121 2.447007 1_555
Na17 O49 2.622118 1_554
Na17 O93 2.638772 1_565
Na17 O35 2.720708 1_555
Na17 O91 2.789514 1_555
Na17 O19 2.925454 1_555
Na17 O39 2.992134 1_555
Na18 O108 2.424931 1_555
Na18 O110 2.427038 1_555
Na18 O82 2.454956 1_555
Na18 O81 2.488733 1_555
Na18 O38 2.580831 1_556
Na18 O8 2.702193 1_555
Na19 O80 2.401228 1_655
Na19 O111 2.459776 1_555
Na19 O83 2.567150 1_555
Na19 O109 2.680335 1_555
Na19 O9 2.706800 1_555
Na19 O39 2.713423 1_556
Na19 O52 2.767166 1_655
Na20 O10 2.494720 1_555
Na20 O112 2.516301 1_555
Na20 O40 2.517170 1_556
Na20 O110 2.657557 1_555
Na20 O82 2.663342 1_545
Na20 O79 2.726650 1_555
Na20 O68 2.904930 1_545
Na20 O48 2.994677 1_545
Na21 O78 2.413775 1_655
Na21 O11 2.454125 1_555
Na21 O41 2.455666 1_556
Na21 O113 2.570981 1_555
Na21 O83 2.582771 1_545
Na21 O111 2.582802 1_555
Na22 O6 2.328902 1_555
Na22 O112 2.384479 1_555
Na22 O80 2.437478 1_545
Na22 O78 2.612825 1_555
Na22 O108 2.729596 1_555
Na22 O36 2.859613 1_556
Na23 O37 2.484228 1_556
Na23 O113 2.485676 1_555
Na23 O79 2.548333 1_555
Na23 O81 2.559631 1_545
Na23 O109 2.566331 1_555
Na23 O7 2.567780 1_555
Na24 O118 2.409439 1_555
Na24 O74 2.452754 1_545
Na24 O77 2.476639 1_555
Na24 O114 2.478667 1_555
Na24 O4 2.603714 1_555
Na24 O46 2.654813 1_555
Na25 O75 2.420031 1_545
Na25 O76 2.446600 1_655
Na25 O119 2.456914 1_555
Na25 O115 2.572633 1_555
Na25 O47 2.576100 1_555
Na25 O5 2.639676 1_555
Na26 O42 2.431991 1_555
Na26 O116 2.486771 1_555
Na26 O0 2.502295 1_555
Na26 O76 2.559740 1_555
Na26 O72 2.585349 1_545
Na26 O114 2.606933 1_555
Na27 O1 2.295665 1_555
Na27 O117 2.459509 1_555
Na27 O73 2.499339 1_545
Na27 O77 2.552705 1_555
Na27 O115 2.593976 1_555
Na27 O43 2.808296 1_555
Na27 O63 2.945854 1_545
Na28 O2 2.399531 1_555
Na28 O44 2.411498 1_555
Na28 O116 2.534440 1_555
Na28 O73 2.557092 1_555
Na28 O118 2.572804 1_555
Na28 O74 2.622638 1_555
Na29 O45 2.397085 1_555
Na29 O3 2.446244 1_555
Na29 O72 2.525290 1_655
Na29 O119 2.559787 1_555
Na29 O117 2.616776 1_555
Na29 O75 2.648816 1_555
Na30 O89 2.468904 1_555
Na30 O72 2.472234 1_655
Na30 O86 2.472694 1_665
Na30 O85 2.634892 1_565
Na30 O75 2.674741 1_555
Na30 O76 2.756179 1_665
Na31 O73 2.368156 1_555
Na31 O88 2.467438 1_555
Na31 O74 2.561677 1_555
Na31 O87 2.578972 1_565
Na31 O77 2.655957 1_565
Na31 O84 2.720353 1_565
Na32 O78 2.341647 1_555
Na32 O80 2.355851 1_545
Na32 O83 2.565591 1_445
Na32 O94 2.661191 1_556
Na32 O93 2.706703 1_456
Na32 O91 2.807456 1_446
Na33 O79 2.440139 1_554
Na33 O92 2.512116 1_555
Na33 O82 2.559509 1_544
Na33 O95 2.579356 1_555
Na33 O90 2.706751 1_545
Na33 O81 2.758655 1_544
Na34 O112 2.387190 1_555
Na34 O98 2.395370 1_555
Na34 O96 2.401941 1_555
Na34 O108 2.735289 1_555
Na34 O110 2.759095 1_555
Na34 O100 2.865181 1_555
Na35 O99 2.409486 1_555
Na35 O97 2.425332 1_555
Na35 O113 2.614066 1_555
Na35 O109 2.670203 1_555
Na35 O101 2.672190 1_555
Na35 O111 2.672638 1_555
Na36 O106 2.351263 1_555
Na36 O102 2.407555 1_555
Na36 O116 2.618522 1_555
Na36 O104 2.648828 1_555
Na36 O114 2.710905 1_555
Na36 O118 2.759223 1_555
Na37 O103 2.323405 1_555
Na37 O107 2.339426 1_555
Na37 O105 2.656522 1_555
Na37 O117 2.670930 1_555
Na37 O119 2.714228 1_555
Na37 O115 2.764381 1_555
Na38 O124 2.293964 1_555
Na38 O134 2.429932 1_555
Na38 O120 2.535260 1_555
Na38 O132 2.591169 1_555
Na38 O122 2.625775 1_555
Na38 O136 2.803577 1_555
Na39 O121 2.400068 1_555
Na39 O125 2.468672 1_555
Na39 O135 2.502532 1_555
Na39 O133 2.580464 1_555
Na39 O123 2.615769 1_555
Na39 O137 2.698691 1_555
Na40 O142 2.381736 1_555
Na40 O126 2.481485 1_555
Na40 O138 2.503337 1_555
Na40 O128 2.563865 1_555
Na40 O140 2.581659 1_555
Na40 O130 2.701613 1_555
Na41 O129 2.352462 1_555
Na41 O143 2.391289 1_555
Na41 O139 2.501135 1_555
Na41 O127 2.646121 1_555
Na41 O141 2.725227 1_555
Na41 O131 2.755754 1_555
O0 Si0 1.633135 1_555
O0 Zn0 1.890568 1_545
O1 Si1 1.636732 1_545
O1 Zn1 1.893469 1_545
O2 Si2 1.639692 1_555
O2 Zn1 1.897467 1_555
O3 Si3 1.626347 1_555
O3 Zn0 1.895383 1_655
O4 S1 1.491142 1_555
O4 Zn1 2.124103 1_545
O5 S0 1.482834 1_655
O5 Zn0 2.139965 1_645
O6 Si4 1.611002 1_555
O6 Zn2 1.927917 1_555
O7 Si5 1.626091 1_555
O7 Zn3 1.908901 1_555
O8 S3 1.480735 1_555
O8 Zn3 2.162624 1_565
O9 S2 1.473251 1_555
O9 Zn2 2.182390 1_665
O10 Si6 1.621640 1_555
O10 Zn3 1.898077 1_555
O11 Si7 1.623207 1_555
O11 Zn2 1.985949 1_655
O12 Si6 1.751836 1_565
O12 Ta1 1.855264 1_565
O13 Si7 1.686645 1_565
O13 Ta0 1.919380 1_555
O14 Si4 1.707194 1_555
O14 Ta0 1.964816 1_445
O15 Si5 1.717327 1_555
O15 Ta1 1.936915 1_555
O16 S2 1.521005 1_455
O16 Ta0 2.034131 1_455
O17 S3 1.546207 1_555
O17 Ta1 2.010412 1_565
O18 Si2 1.674473 1_555
O18 Ta3 1.940977 1_555
O19 Si3 1.727027 1_555
O19 Ta2 1.890542 1_555
O20 S0 1.529567 1_555
O20 Ta2 2.038816 1_445
O21 S1 1.503898 1_555
O21 Ta3 2.098765 1_545
O22 Si0 1.704393 1_565
O22 Ta2 1.938824 1_455
O23 Si1 1.677718 1_555
O23 Ta3 1.974927 1_555
O24 S4 1.452997 1_555
O24 Zn4 2.462100 1_555
O25 S5 1.469006 1_555
O25 Zn5 2.265424 1_555
O26 Si8 1.619750 1_555
O26 Zn4 1.934630 1_555
O27 S6 1.473537 1_555
O27 Zn5 2.170100 1_555
O28 Si9 1.611570 1_555
O28 Zn4 1.975638 1_555
O29 Si10 1.629580 1_555
O29 Zn5 1.971356 1_555
O30 S7 1.481244 1_555
O30 Zn6 2.263897 1_555
O31 S8 1.467629 1_555
O31 Zn7 2.334299 1_555
O32 Si11 1.630692 1_555
O32 Zn6 1.936333 1_555
O33 Si12 1.619625 1_555
O33 Zn7 1.957371 1_555
O34 S9 1.483012 1_555
O34 Zn6 2.140879 1_555
O35 Si13 1.626444 1_555
O35 Zn7 1.931782 1_555
O36 S9 1.484000 1_555
O36 Zn8 2.185196 1_554
O37 Si13 1.651688 1_555
O37 Zn9 1.927331 1_555
O38 S7 1.463723 1_555
O38 Zn8 2.400796 1_554
O39 S8 1.480081 1_555
O39 Zn9 2.222605 1_555
O40 Si11 1.629222 1_555
O40 Zn8 1.910306 1_554
O41 Si12 1.628217 1_555
O41 Zn9 1.903376 1_555
O42 Si8 1.661710 1_555
O42 Zn10 1.901591 1_555
O43 S6 1.498334 1_555
O43 Zn11 2.163981 1_555
O44 Si9 1.640557 1_555
O44 Zn10 1.894074 1_555
O45 Si10 1.647009 1_555
O45 Zn11 1.896655 1_555
O46 S4 1.486677 1_555
O46 Zn10 2.255305 1_555
O47 S5 1.496773 1_555
O47 Zn11 2.058551 1_555
O48 S10 1.480537 1_555
O48 Zn12 2.053200 1_556
O49 S11 1.487603 1_555
O49 Zn13 2.154023 1_556
O50 S12 1.479763 1_555
O50 Zn12 2.218511 1_556
O51 S13 1.473601 1_555
O51 Zn13 2.104313 1_556
O52 Si14 1.643992 1_555
O52 Zn12 1.932876 1_556
O53 S14 1.489570 1_555
O53 Zn13 2.163938 1_556
O54 S15 1.486001 1_555
O54 Zn14 2.189697 1_555
O55 S16 1.480011 1_555
O55 Zn15 2.046048 1_555
O56 S17 1.490821 1_555
O56 Zn14 2.148544 1_555
O57 S18 1.493170 1_555
O57 Zn15 2.109559 1_555
O58 S19 1.470448 1_555
O58 Zn14 2.146369 1_555
O59 S20 1.485432 1_555
O59 Zn15 2.134012 1_555
O60 S19 1.494244 1_555
O60 Zn16 2.285050 1_555
O61 S20 1.497192 1_555
O61 Zn17 2.231279 1_555
O62 S15 1.495512 1_555
O62 Zn16 2.105183 1_555
O63 S16 1.495833 1_555
O63 Zn17 2.153842 1_555
O64 S17 1.493293 1_555
O64 Zn16 2.192400 1_555
O65 S18 1.491276 1_555
O65 Zn17 2.229793 1_555
O66 S12 1.492009 1_555
O66 Zn18 2.334933 1_555
O67 S13 1.499554 1_555
O67 Zn19 2.232777 1_555
O68 Si14 1.647702 1_555
O68 Zn18 1.965053 1_555
O69 S14 1.493079 1_555
O69 Zn19 2.189609 1_555
O70 S10 1.490563 1_555
O70 Zn18 2.195236 1_555
O71 S11 1.500135 1_555
O71 Zn19 2.089089 1_555
O72 S19 1.509038 1_555
O72 Zn0 2.378757 1_555
O73 S20 1.507301 1_555
O73 Zn1 2.462930 1_555
O74 S15 1.500898 1_555
O75 S16 1.494718 1_555
O75 Zn0 2.579015 1_655
O76 S17 1.502204 1_555
O76 Zn0 2.509536 1_545
O77 S18 1.496911 1_555
O78 S12 1.504171 1_555
O78 Zn2 2.343020 1_555
O79 S13 1.510014 1_555
O79 Zn3 2.305151 1_555
O80 Si14 1.662760 1_555
O80 Zn2 2.087417 1_565
O81 S14 1.502152 1_555
O81 Zn3 2.484987 1_565
O82 S10 1.508071 1_555
O82 Zn3 2.462296 1_565
O83 S11 1.485379 1_555
O83 Zn2 2.450768 1_665
O84 S4 1.578959 1_555
O84 Ta1 2.084075 1_555
O85 S5 1.534687 1_555
O85 Ta0 2.095167 1_545
O86 Si8 1.682924 1_555
O86 Ta0 2.003237 1_445
O87 S6 1.540734 1_555
O87 Ta1 2.243697 1_555
O88 Si9 1.715589 1_555
O88 Ta1 1.957028 1_565
O89 Si10 1.672591 1_555
O89 Ta0 1.963530 1_555
O90 S7 1.560779 1_555
O90 Ta3 2.049965 1_555
O91 S8 1.584782 1_555
O91 Ta2 2.047597 1_555
O92 Si11 1.682915 1_555
O92 Ta3 1.920754 1_545
O93 Si12 1.711032 1_555
O93 Ta2 1.946316 1_545
O94 S9 1.552978 1_555
O94 Ta2 2.164395 1_445
O95 Si13 1.688614 1_555
O95 Ta3 1.984257 1_545
O96 Si6 1.617753 1_555
O96 Zn4 2.127992 1_555
O97 Si7 1.642132 1_555
O97 Zn5 2.075036 1_555
O98 Si4 1.631592 1_555
O98 Zn4 2.018635 1_555
O99 Si5 1.623106 1_555
O99 Zn5 2.062976 1_555
O100 S3 1.457638 1_555
O100 Zn4 2.486676 1_555
O101 S2 1.482358 1_555
O101 Zn5 2.251505 1_555
O102 Si2 1.633637 1_555
O102 Zn6 2.056286 1_555
O103 Si3 1.617399 1_555
O103 Zn7 2.183193 1_555
O104 S1 1.472354 1_555
O104 Zn6 2.398312 1_555
O105 S0 1.459288 1_655
O105 Zn7 2.500650 1_555
O106 Si0 1.619400 1_555
O106 Zn6 2.091181 1_555
O107 Si1 1.626864 1_545
O107 Zn7 2.075622 1_555
O108 S10 1.496529 1_555
O108 Zn8 2.394721 1_555
O109 S11 1.497224 1_555
O109 Zn9 2.495692 1_556
O110 S13 1.493326 1_555
O110 Zn8 2.450447 1_555
O111 S12 1.506617 1_655
O111 Zn9 2.560147 1_556
O112 Si14 1.674476 1_545
O112 Zn8 1.988353 1_555
O113 S14 1.498670 1_545
O113 Zn9 2.495553 1_556
O114 S15 1.496554 1_545
O115 S16 1.506842 1_545
O115 Zn11 2.411799 1_555
O116 S17 1.498056 1_555
O116 Zn10 2.535491 1_555
O117 S18 1.501774 1_555
O117 Zn11 2.509724 1_555
O118 S20 1.492586 1_555
O119 S19 1.509717 1_655
O119 Zn11 2.431008 1_555
O120 S9 1.464010 1_555
O120 Zn12 2.400528 1_555
O121 Si13 1.616767 1_555
O121 Zn13 1.957576 1_555
O122 S8 1.462871 1_455
O122 Zn12 2.487724 1_555
O123 S7 1.478365 1_555
O123 Zn13 2.290485 1_555
O124 Si11 1.644253 1_565
O124 Zn12 2.001951 1_555
O125 Si12 1.646577 1_565
O125 Zn13 2.059171 1_555
O126 Si8 1.619577 1_565
O126 Zn14 1.941603 1_555
O127 S6 1.468156 1_565
O127 Zn15 2.182492 1_555
O128 Si9 1.644432 1_555
O128 Zn14 2.044927 1_555
O129 Si10 1.653923 1_555
O129 Zn15 1.962801 1_555
O130 S5 1.469599 1_455
O130 Zn14 2.301102 1_555
O131 S4 1.478639 1_555
O131 Zn15 2.339537 1_555
O132 Si0 1.640782 1_565
O132 Zn16 2.007998 1_555
O133 Si1 1.644857 1_555
O133 Zn17 2.004289 1_555
O134 Si2 1.641830 1_555
O134 Zn16 2.029289 1_555
O135 Si3 1.634859 1_555
O135 Zn17 2.039889 1_555
O136 S0 1.482582 1_555
O136 Zn16 2.357646 1_555
O137 S1 1.484561 1_555
O137 Zn17 2.309451 1_555
O138 Si4 1.645196 1_555
O138 Zn18 2.089477 1_555
O139 Si5 1.640002 1_555
O139 Zn19 2.030547 1_555
O140 S2 1.468534 1_455
O140 Zn18 2.388691 1_555
O141 S3 1.475532 1_555
O141 Zn19 2.387481 1_555
O142 Si6 1.618425 1_565
O142 Zn18 2.110350 1_555
O143 Si7 1.650815 1_565
O143 Zn19 2.038056 1_555
