# generated using pymatgen
data_CaFe4As3
_symmetry_space_group_name_H-M   'P 1'
_cell_length_a   3.74461200
_cell_length_b   11.34674300
_cell_length_c   11.90226300
_cell_angle_alpha   90.00000000
_cell_angle_beta   90.00000000
_cell_angle_gamma   90.00000000
_symmetry_Int_Tables_number   1
_chemical_formula_structural   CaFe4As3
_chemical_formula_sum   'Ca4 Fe16 As12'
_cell_volume   505.71703793
_cell_formula_units_Z   4
loop_
 _symmetry_equiv_pos_site_id
 _symmetry_equiv_pos_as_xyz
  1  'x, y, z'
loop_
 _atom_site_type_symbol
 _atom_site_label
 _atom_site_symmetry_multiplicity
 _atom_site_fract_x
 _atom_site_fract_y
 _atom_site_fract_z
 _atom_site_occupancy
  Ca  Ca0  1  0.25000000  0.06662900  0.83294800  1
  Ca  Ca1  1  0.75000000  0.93337100  0.16705200  1
  Ca  Ca2  1  0.75000000  0.56662900  0.66705200  1
  Ca  Ca3  1  0.25000000  0.43337100  0.33294800  1
  Fe  Fe0  1  0.25000000  0.77520300  0.81074300  1
  Fe  Fe1  1  0.75000000  0.22479700  0.18925700  1
  Fe  Fe2  1  0.75000000  0.27520300  0.68925700  1
  Fe  Fe3  1  0.25000000  0.72479700  0.31074300  1
  Fe  Fe4  1  0.25000000  0.37134400  0.80688300  1
  Fe  Fe5  1  0.75000000  0.62865600  0.19311700  1
  Fe  Fe6  1  0.75000000  0.87134400  0.69311700  1
  Fe  Fe7  1  0.25000000  0.12865600  0.30688300  1
  Fe  Fe8  1  0.25000000  0.31670300  0.01390400  1
  Fe  Fe9  1  0.75000000  0.68329700  0.98609600  1
  Fe  Fe10  1  0.75000000  0.81670300  0.48609600  1
  Fe  Fe11  1  0.25000000  0.18329700  0.51390400  1
  Fe  Fe12  1  0.25000000  0.53899200  0.06808700  1
  Fe  Fe13  1  0.75000000  0.46100800  0.93191300  1
  Fe  Fe14  1  0.75000000  0.03899200  0.43191300  1
  Fe  Fe15  1  0.25000000  0.96100800  0.56808700  1
  As  As0  1  0.25000000  0.57538600  0.87342200  1
  As  As1  1  0.75000000  0.42461400  0.12657800  1
  As  As2  1  0.75000000  0.07538600  0.62657800  1
  As  As3  1  0.25000000  0.92461400  0.37342200  1
  As  As4  1  0.25000000  0.75999300  0.61162100  1
  As  As5  1  0.75000000  0.24000700  0.38837900  1
  As  As6  1  0.75000000  0.25999300  0.88837900  1
  As  As7  1  0.25000000  0.74000700  0.11162000  1
  As  As8  1  0.25000000  0.37339600  0.60284500  1
  As  As9  1  0.75000000  0.62660400  0.39715500  1
  As  As10  1  0.75000000  0.87339600  0.89715500  1
  As  As11  1  0.25000000  0.12660400  0.10284500  1
loop_
_geom_bond_atom_site_label_1
_geom_bond_atom_site_label_2
_geom_bond_distance
_geom_bond_site_symmetry_2
As0 Fe12 2.353467 1_556
As0 Fe13 2.382125 1_555
As0 Fe13 2.382125 1_455
As0 Fe0 2.386854 1_555
As0 Fe4 2.446920 1_555
As0 Fe9 2.608307 1_455
As0 Fe9 2.608307 1_555
As0 Ca2 3.090091 1_455
As0 Ca2 3.090091 1_555
As1 Fe13 2.353467 1_554
As1 Fe12 2.382125 1_655
As1 Fe12 2.382125 1_555
As1 Fe1 2.386854 1_555
As1 Fe5 2.446920 1_555
As1 Fe8 2.608307 1_655
As1 Fe8 2.608307 1_555
As1 Ca3 3.090091 1_555
As1 Ca3 3.090091 1_655
As2 Fe14 2.353467 1_555
As2 Fe15 2.382125 1_645
As2 Fe15 2.382125 1_545
As2 Fe2 2.386854 1_555
As2 Fe6 2.446920 1_545
As2 Fe11 2.608307 1_655
As2 Fe11 2.608307 1_555
As2 Ca0 3.090091 1_555
As2 Ca0 3.090091 1_655
As3 Fe15 2.353467 1_555
As3 Fe14 2.382125 1_565
As3 Fe14 2.382125 1_465
As3 Fe3 2.386854 1_555
As3 Fe7 2.446920 1_565
As3 Fe10 2.608307 1_555
As3 Fe10 2.608307 1_455
As3 Ca1 3.090091 1_455
As3 Ca1 3.090091 1_555
As4 Fe15 2.338981 1_555
As4 Fe0 2.376278 1_555
As4 Fe6 2.458203 1_455
As4 Fe6 2.458203 1_555
As4 Fe10 2.480266 1_555
As4 Fe10 2.480266 1_455
As4 Ca2 2.958829 1_555
As4 Ca2 2.958829 1_455
As5 Fe14 2.338981 1_555
As5 Fe1 2.376278 1_555
As5 Fe7 2.458203 1_555
As5 Fe7 2.458203 1_655
As5 Fe11 2.480266 1_555
As5 Fe11 2.480266 1_655
As5 Ca3 2.958829 1_655
As5 Ca3 2.958829 1_555
As6 Fe13 2.338981 1_555
As6 Fe2 2.376278 1_555
As6 Fe4 2.458203 1_655
As6 Fe4 2.458203 1_555
As6 Fe8 2.480266 1_656
As6 Fe8 2.480266 1_556
As6 Ca0 2.958829 1_555
As6 Ca0 2.958829 1_655
As7 Fe12 2.338978 1_555
As7 Fe3 2.376290 1_555
As7 Fe5 2.458208 1_455
As7 Fe5 2.458208 1_555
As7 Fe9 2.480259 1_454
As7 Fe9 2.480259 1_554
As7 Ca1 2.958831 1_555
As7 Ca1 2.958831 1_455
As8 Fe11 2.402769 1_555
As8 Fe2 2.409298 1_455
As8 Fe2 2.409298 1_555
As8 Fe4 2.428626 1_555
As8 Ca2 2.982765 1_455
As8 Ca2 2.982765 1_555
As8 Ca3 3.283676 1_555
As9 Fe10 2.402769 1_555
As9 Fe3 2.409298 1_555
As9 Fe3 2.409298 1_655
As9 Fe5 2.428626 1_555
As9 Ca3 2.982765 1_555
As9 Ca3 2.982765 1_655
As9 Ca2 3.283676 1_555
As10 Fe9 2.402769 1_555
As10 Fe0 2.409298 1_655
As10 Fe0 2.409298 1_555
As10 Fe6 2.428626 1_555
As10 Ca0 2.982765 1_565
As10 Ca0 2.982765 1_665
As10 Ca1 3.283676 1_556
As11 Fe8 2.402769 1_555
As11 Fe1 2.409298 1_455
As11 Fe1 2.409298 1_555
As11 Fe7 2.428626 1_555
As11 Ca1 2.982765 1_445
As11 Ca1 2.982765 1_545
As11 Ca0 3.283676 1_554
