# generated using pymatgen
data_YClO
_symmetry_space_group_name_H-M   'P 1'
_cell_length_a   3.88504381
_cell_length_b   3.88504381
_cell_length_c   6.66650489
_cell_angle_alpha   90.00000000
_cell_angle_beta   90.00000000
_cell_angle_gamma   90.00000000
_symmetry_Int_Tables_number   1
_chemical_formula_structural   YClO
_chemical_formula_sum   'Y2 Cl2 O2'
_cell_volume   100.62132758
_cell_formula_units_Z   2
loop_
 _symmetry_equiv_pos_site_id
 _symmetry_equiv_pos_as_xyz
  1  'x, y, z'
loop_
 _atom_site_type_symbol
 _atom_site_label
 _atom_site_symmetry_multiplicity
 _atom_site_fract_x
 _atom_site_fract_y
 _atom_site_fract_z
 _atom_site_occupancy
  Y  Y0  1  0.75000000  0.75000000  0.16713527  1
  Y  Y1  1  0.25000000  0.25000000  0.83286473  1
  Cl  Cl0  1  0.75000000  0.75000000  0.62904219  1
  Cl  Cl1  1  0.25000000  0.25000000  0.37095881  1
  O  O0  1  0.25000000  0.75000000  0.00000000  1
  O  O1  1  0.75000000  0.25000000  0.00000000  1
loop_
_geom_bond_atom_site_label_1
_geom_bond_atom_site_label_2
_geom_bond_distance
_geom_bond_site_symmetry_2
Cl0 Y1 3.064813 1_565
Cl0 Y1 3.064813 1_665
Cl0 Y1 3.064813 1_555
Cl0 Y1 3.064813 1_655
Cl0 Y0 3.079305 1_555
Cl1 Y0 3.064816 1_555
Cl1 Y0 3.064816 1_445
Cl1 Y0 3.064816 1_545
Cl1 Y0 3.064816 1_455
Cl1 Y1 3.079298 1_555
O0 Y0 2.239386 1_455
O0 Y1 2.239386 1_554
O0 Y1 2.239386 1_564
O0 Y0 2.239386 1_555
O1 Y0 2.239386 1_555
O1 Y1 2.239386 1_554
O1 Y1 2.239386 1_654
O1 Y0 2.239386 1_545
