# generated using pymatgen
data_AlCuCl4
_symmetry_space_group_name_H-M   'P 1'
_cell_length_a   5.43511276
_cell_length_b   5.43511276
_cell_length_c   9.97693899
_cell_angle_alpha   90.00000000
_cell_angle_beta   90.00000000
_cell_angle_gamma   90.00000000
_symmetry_Int_Tables_number   1
_chemical_formula_structural   AlCuCl4
_chemical_formula_sum   'Al2 Cu2 Cl8'
_cell_volume   294.72327451
_cell_formula_units_Z   2
loop_
 _symmetry_equiv_pos_site_id
 _symmetry_equiv_pos_as_xyz
  1  'x, y, z'
loop_
 _atom_site_type_symbol
 _atom_site_label
 _atom_site_symmetry_multiplicity
 _atom_site_fract_x
 _atom_site_fract_y
 _atom_site_fract_z
 _atom_site_occupancy
  Al  Al0  1  -0.00000000  0.50000000  0.25000000  1
  Al  Al1  1  0.50000000  -0.00000000  0.75000000  1
  Cu  Cu0  1  -0.00000000  -0.00000000  0.00000000  1
  Cu  Cu1  1  -0.00000000  -0.00000000  0.50000000  1
  Cl  Cl0  1  0.27170175  0.23288343  0.87248764  1
  Cl  Cl1  1  0.72829825  0.76711657  0.87248764  1
  Cl  Cl2  1  0.23288343  0.27170175  0.37248764  1
  Cl  Cl3  1  0.27170175  0.76711657  0.62751236  1
  Cl  Cl4  1  0.72829825  0.23288343  0.62751236  1
  Cl  Cl5  1  0.23288343  0.72829825  0.12751236  1
  Cl  Cl6  1  0.76711657  0.27170175  0.12751236  1
  Cl  Cl7  1  0.76711657  0.72829825  0.37248764  1
loop_
_geom_bond_atom_site_label_1
_geom_bond_atom_site_label_2
_geom_bond_distance
_geom_bond_site_symmetry_2
Al0 Cl6 2.152946 1_455
Al0 Cl7 2.152946 1_455
Al0 Cl5 2.152946 1_555
Al0 Cl2 2.152946 1_555
Al1 Cl4 2.152946 1_555
Al1 Cl3 2.152946 1_545
Al1 Cl0 2.152946 1_555
Al1 Cl1 2.152946 1_545
Cl0 Cu0 2.324069 1_556
Cl1 Cu0 2.324069 1_666
Cl2 Cu1 2.324069 1_555
Cl3 Cu1 2.324069 1_565
Cl4 Cu1 2.324069 1_655
Cl5 Cu0 2.324069 1_565
Cl6 Cu0 2.324069 1_655
Cl7 Cu1 2.324069 1_665
