# generated using pymatgen
data_Na4AlSi2GePO12
_symmetry_space_group_name_H-M   'P 1'
_cell_length_a   8.75710823
_cell_length_b   8.75710796
_cell_length_c   21.60223849
_cell_angle_alpha   90.69443950
_cell_angle_beta   89.30556044
_cell_angle_gamma   120.07824989
_symmetry_Int_Tables_number   1
_chemical_formula_structural   Na4AlSi2GePO12
_chemical_formula_sum   'Na24 Al6 Si12 Ge6 P6 O72'
_cell_volume   1433.39315983
_cell_formula_units_Z   6
loop_
 _symmetry_equiv_pos_site_id
 _symmetry_equiv_pos_as_xyz
  1  'x, y, z'
loop_
 _atom_site_type_symbol
 _atom_site_label
 _atom_site_symmetry_multiplicity
 _atom_site_fract_x
 _atom_site_fract_y
 _atom_site_fract_z
 _atom_site_occupancy
  Na  Na0  1  0.63685305  0.00175832  0.25055242  1
  Na  Na1  1  0.36812529  0.36739757  0.24801929  1
  Na  Na2  1  0.99494238  0.62882843  0.25008049  1
  Na  Na3  1  0.63260243  0.63187471  0.74801929  1
  Na  Na4  1  0.99824168  0.36314695  0.75055242  1
  Na  Na5  1  0.37117157  0.00505762  0.75008049  1
  Na  Na6  1  0.30352005  0.33509132  0.58388542  1
  Na  Na7  1  0.03479229  0.70073057  0.58135229  1
  Na  Na8  1  0.66160938  0.96216143  0.58341349  1
  Na  Na9  1  0.29926943  0.96520771  0.08135229  1
  Na  Na10  1  0.66490868  0.69647995  0.08388542  1
  Na  Na11  1  0.03783857  0.33839062  0.08341349  1
  Na  Na12  1  0.97018605  0.66842532  0.91721942  1
  Na  Na13  1  0.70145829  0.03406457  0.91468629  1
  Na  Na14  1  0.32827538  0.29549543  0.91674749  1
  Na  Na15  1  0.96593543  0.29854171  0.41468629  1
  Na  Na16  1  0.33157468  0.02981395  0.41721942  1
  Na  Na17  1  0.70450457  0.67172462  0.41674749  1
  Na  Na18  1  0.99788232  0.99603977  0.49876420  1
  Na  Na19  1  0.00396023  0.00211768  0.99876420  1
  Na  Na20  1  0.66454932  0.32937277  0.83209720  1
  Na  Na21  1  0.67062723  0.33545068  0.33209720  1
  Na  Na22  1  0.33121532  0.66270677  0.16543120  1
  Na  Na23  1  0.33729323  0.66878468  0.66543120  1
  Al  Al0  1  0.99041658  0.99377493  0.35278124  1
  Al  Al1  1  0.00622507  0.00958342  0.85278124  1
  Al  Al2  1  0.65708358  0.32710793  0.68611424  1
  Al  Al3  1  0.67289207  0.34291642  0.18611424  1
  Al  Al4  1  0.32374958  0.66044193  0.01944824  1
  Al  Al5  1  0.33955807  0.67625042  0.51944824  1
  Si  Si0  1  0.71088189  0.70987911  0.25100007  1
  Si  Si1  1  0.99743744  0.28755168  0.25170864  1
  Si  Si2  1  0.29012089  0.28911811  0.75100007  1
  Si  Si3  1  0.71244832  0.00256256  0.75170864  1
  Si  Si4  1  0.37754889  0.04321211  0.58433307  1
  Si  Si5  1  0.66410444  0.62088468  0.58504164  1
  Si  Si6  1  0.95678789  0.62245111  0.08433307  1
  Si  Si7  1  0.37911532  0.33589556  0.08504164  1
  Si  Si8  1  0.04421489  0.37654611  0.91766707  1
  Si  Si9  1  0.33077044  0.95421868  0.91837564  1
  Si  Si10  1  0.62345389  0.95578511  0.41766707  1
  Si  Si11  1  0.04578132  0.66922956  0.41837564  1
  Ge  Ge0  1  0.99860624  0.99777564  0.64855925  1
  Ge  Ge1  1  0.00222436  0.00139376  0.14855925  1
  Ge  Ge2  1  0.66527324  0.33110864  0.98189225  1
  Ge  Ge3  1  0.66889136  0.33472676  0.48189225  1
  Ge  Ge4  1  0.33193924  0.66444264  0.31522625  1
  Ge  Ge5  1  0.33555736  0.66806076  0.81522625  1
  P  P0  1  0.28854789  0.00142921  0.25114296  1
  P  P1  1  0.99857079  0.71145211  0.75114296  1
  P  P2  1  0.95521489  0.33476221  0.58447596  1
  P  P3  1  0.66523779  0.04478511  0.08447596  1
  P  P4  1  0.62188089  0.66809621  0.91780996  1
  P  P5  1  0.33190379  0.37811911  0.41780996  1
  O  O0  1  0.20510678  0.03652058  0.30794270  1
  O  O1  1  0.83707938  0.79658851  0.30983310  1
  O  O2  1  0.96712972  0.16465002  0.31073494  1
  O  O3  1  0.20341150  0.16292062  0.80983310  1
  O  O4  1  0.96347942  0.79489322  0.80794270  1
  O  O5  1  0.83534998  0.03287028  0.81073494  1
  O  O6  1  0.79459098  0.95627893  0.68908396  1
  O  O7  1  0.16155061  0.20553913  0.68916534  1
  O  O8  1  0.04041452  0.82964065  0.69206400  1
  O  O9  1  0.79446087  0.83844939  0.18916534  1
  O  O10  1  0.04372107  0.20540902  0.18908396  1
  O  O11  1  0.17035935  0.95958548  0.19206400  1
  O  O12  1  0.87177378  0.36985358  0.64127570  1
  O  O13  1  0.50374638  0.12992151  0.64316610  1
  O  O14  1  0.63379672  0.49798302  0.64406794  1
  O  O15  1  0.87007850  0.49625362  0.14316610  1
  O  O16  1  0.63014642  0.12822622  0.14127570  1
  O  O17  1  0.50201698  0.36620328  0.14406794  1
  O  O18  1  0.46125798  0.28961193  0.02241696  1
  O  O19  1  0.82821761  0.53887213  0.02249834  1
  O  O20  1  0.70708152  0.16297365  0.02539700  1
  O  O21  1  0.46112787  0.17178239  0.52249834  1
  O  O22  1  0.71038807  0.53874202  0.52241696  1
  O  O23  1  0.83702635  0.29291848  0.52539700  1
  O  O24  1  0.53843978  0.70318758  0.97460970  1
  O  O25  1  0.17041238  0.46325551  0.97650010  1
  O  O26  1  0.30046272  0.83131702  0.97740194  1
  O  O27  1  0.53674450  0.82958762  0.47650010  1
  O  O28  1  0.29681242  0.46156022  0.47460970  1
  O  O29  1  0.16868298  0.69953728  0.47740194  1
  O  O30  1  0.12792398  0.62294593  0.35575096  1
  O  O31  1  0.49488361  0.87220613  0.35583234  1
  O  O32  1  0.37374752  0.49630765  0.35873100  1
  O  O33  1  0.12779387  0.50511639  0.85583234  1
  O  O34  1  0.37705407  0.87207602  0.85575096  1
  O  O35  1  0.50369235  0.62625248  0.85873100  1
  O  O36  1  0.02793770  0.84430911  0.40963145  1
  O  O37  1  0.81989946  0.98103308  0.41044869  1
  O  O38  1  0.16928221  0.19264978  0.40972420  1
  O  O39  1  0.01896692  0.18010054  0.91044869  1
  O  O40  1  0.15569089  0.97206230  0.90963145  1
  O  O41  1  0.80735022  0.83071779  0.90972420  1
  O  O42  1  0.97271658  0.16577202  0.58825919  1
  O  O43  1  0.17919696  0.02552106  0.59063927  1
  O  O44  1  0.84454803  0.82020846  0.58986458  1
  O  O45  1  0.97447894  0.82080304  0.09063927  1
  O  O46  1  0.83422798  0.02728342  0.08825919  1
  O  O47  1  0.17979154  0.15545197  0.08986458  1
  O  O48  1  0.69460470  0.17764211  0.74296445  1
  O  O49  1  0.48656646  0.31436608  0.74378169  1
  O  O50  1  0.83594921  0.52598278  0.74305720  1
  O  O51  1  0.68563392  0.51343354  0.24378169  1
  O  O52  1  0.82235789  0.30539530  0.24296445  1
  O  O53  1  0.47401722  0.16405079  0.24305720  1
  O  O54  1  0.63938358  0.49910502  0.92159219  1
  O  O55  1  0.84586396  0.35885406  0.92397227  1
  O  O56  1  0.51121503  0.15354146  0.92319758  1
  O  O57  1  0.64114594  0.15413604  0.42397227  1
  O  O58  1  0.50089498  0.36061642  0.42159219  1
  O  O59  1  0.84645854  0.48878497  0.42319758  1
  O  O60  1  0.36127070  0.51097611  0.07629845  1
  O  O61  1  0.15323246  0.64770008  0.07711569  1
  O  O62  1  0.50261521  0.85931678  0.07639120  1
  O  O63  1  0.35229992  0.84676754  0.57711569  1
  O  O64  1  0.48902389  0.63872930  0.57629845  1
  O  O65  1  0.14068322  0.49738479  0.57639120  1
  O  O66  1  0.30604958  0.83243902  0.25492619  1
  O  O67  1  0.51252996  0.69218806  0.25730627  1
  O  O68  1  0.17788103  0.48687546  0.25653158  1
  O  O69  1  0.30781194  0.48747004  0.75730627  1
  O  O70  1  0.16756098  0.69395042  0.75492619  1
  O  O71  1  0.51312454  0.82211897  0.75653158  1
loop_
_geom_bond_atom_site_label_1
_geom_bond_atom_site_label_2
_geom_bond_distance
_geom_bond_site_symmetry_2
Na0 O52 2.326032 1_555
Na0 O67 2.367087 1_545
Na0 O53 2.474274 1_555
Na0 O66 2.508117 1_545
Na0 O31 2.566187 1_545
Na0 O16 2.633335 1_555
Na0 O9 2.756237 1_545
Na0 O2 2.828593 1_555
Na1 O68 2.374692 1_555
Na1 O53 2.385485 1_555
Na1 O51 2.409824 1_555
Na1 O67 2.473074 1_555
Na1 O17 2.522977 1_555
Na1 O32 2.622659 1_555
Na1 O10 2.776334 1_555
Na1 O0 2.830055 1_555
Na2 O51 2.374536 1_555
Na2 O66 2.397025 1_655
Na2 O52 2.456471 1_555
Na2 O68 2.477284 1_655
Na2 O15 2.569328 1_555
Na2 O30 2.587860 1_655
Na2 O1 2.771635 1_555
Na2 O11 2.810949 1_655
Na3 O71 2.374692 1_555
Na3 O50 2.385485 1_555
Na3 O49 2.409824 1_555
Na3 O69 2.473074 1_555
Na3 O14 2.522977 1_555
Na3 O35 2.622659 1_555
Na3 O6 2.776334 1_555
Na3 O4 2.830055 1_555
Na4 O48 2.326032 1_555
Na4 O69 2.367087 1_655
Na4 O50 2.474274 1_555
Na4 O70 2.508117 1_655
Na4 O33 2.566187 1_655
Na4 O12 2.633335 1_555
Na4 O7 2.756237 1_655
Na4 O5 2.828593 1_555
Na5 O49 2.374536 1_555
Na5 O70 2.397025 1_545
Na5 O48 2.456471 1_555
Na5 O71 2.477284 1_545
Na5 O13 2.569328 1_555
Na5 O34 2.587860 1_545
Na5 O3 2.771635 1_555
Na5 O8 2.810949 1_545
Na6 O64 2.326036 1_555
Na6 O43 2.367087 1_555
Na6 O65 2.474287 1_555
Na6 O42 2.508117 1_455
Na6 O7 2.566187 1_555
Na6 O28 2.633322 1_555
Na6 O21 2.756237 1_555
Na6 O14 2.828593 1_555
Na7 O44 2.374692 1_455
Na7 O65 2.385469 1_555
Na7 O63 2.409815 1_555
Na7 O43 2.473074 1_565
Na7 O29 2.522952 1_555
Na7 O8 2.622659 1_555
Na7 O22 2.776334 1_455
Na7 O12 2.830055 1_455
Na8 O63 2.374544 1_555
Na8 O42 2.397025 1_565
Na8 O64 2.456463 1_555
Na8 O44 2.477284 1_555
Na8 O27 2.569308 1_555
Na8 O6 2.587860 1_555
Na8 O13 2.771635 1_565
Na8 O23 2.810949 1_565
Na9 O47 2.374692 1_565
Na9 O62 2.385469 1_555
Na9 O61 2.409815 1_555
Na9 O45 2.473074 1_455
Na9 O26 2.522952 1_554
Na9 O11 2.622659 1_555
Na9 O18 2.776334 1_565
Na9 O16 2.830055 1_565
Na10 O60 2.326036 1_555
Na10 O45 2.367087 1_555
Na10 O62 2.474287 1_555
Na10 O46 2.508117 1_565
Na10 O9 2.566187 1_555
Na10 O24 2.633322 1_554
Na10 O19 2.756237 1_555
Na10 O17 2.828593 1_555
Na11 O61 2.374544 1_555
Na11 O46 2.397025 1_455
Na11 O60 2.456463 1_555
Na11 O47 2.477284 1_555
Na11 O25 2.569308 1_554
Na11 O10 2.587860 1_555
Na11 O15 2.771635 1_455
Na11 O20 2.810949 1_455
Na12 O40 2.326032 1_655
Na12 O55 2.367095 1_555
Na12 O41 2.474274 1_555
Na12 O54 2.508109 1_555
Na12 O19 2.566167 1_556
Na12 O4 2.633335 1_555
Na12 O33 2.756237 1_655
Na12 O26 2.828593 1_655
Na13 O56 2.374676 1_555
Na13 O41 2.385485 1_545
Na13 O39 2.409824 1_655
Na13 O55 2.473064 1_555
Na13 O5 2.522977 1_555
Na13 O20 2.622634 1_556
Na13 O34 2.776334 1_545
Na13 O24 2.830055 1_545
Na14 O39 2.374536 1_555
Na14 O54 2.397029 1_555
Na14 O40 2.456471 1_545
Na14 O56 2.477298 1_555
Na14 O3 2.569328 1_555
Na14 O18 2.587847 1_556
Na14 O25 2.771635 1_555
Na14 O35 2.810949 1_555
Na15 O59 2.374676 1_555
Na15 O38 2.385485 1_655
Na15 O37 2.409824 1_545
Na15 O57 2.473064 1_555
Na15 O2 2.522977 1_555
Na15 O23 2.622634 1_555
Na15 O30 2.776334 1_655
Na15 O28 2.830055 1_655
Na16 O36 2.326032 1_545
Na16 O57 2.367095 1_555
Na16 O38 2.474274 1_555
Na16 O58 2.508109 1_555
Na16 O21 2.566167 1_555
Na16 O0 2.633335 1_555
Na16 O31 2.756237 1_545
Na16 O29 2.828593 1_545
Na17 O37 2.374536 1_555
Na17 O58 2.397029 1_555
Na17 O36 2.456471 1_655
Na17 O59 2.477298 1_555
Na17 O1 2.569328 1_555
Na17 O22 2.587847 1_555
Na17 O27 2.771635 1_555
Na17 O32 2.810949 1_555
Na18 O36 2.412145 1_655
Na18 O37 2.438645 1_555
Na18 O44 2.446179 1_555
Na18 O43 2.485935 1_665
Na18 O42 2.498763 1_565
Na18 O38 2.517320 1_665
Na19 O40 2.412145 1_545
Na19 O39 2.438645 1_555
Na19 O47 2.446179 1_556
Na19 O45 2.485935 1_446
Na19 O46 2.498763 1_456
Na19 O41 2.517320 1_445
Na20 O48 2.412145 1_555
Na20 O49 2.438645 1_555
Na20 O56 2.446179 1_555
Na20 O55 2.485935 1_555
Na20 O54 2.498763 1_555
Na20 O50 2.517320 1_555
Na21 O52 2.412145 1_555
Na21 O51 2.438645 1_555
Na21 O59 2.446179 1_555
Na21 O57 2.485935 1_555
Na21 O58 2.498763 1_555
Na21 O53 2.517320 1_555
Na22 O60 2.412145 1_555
Na22 O61 2.438645 1_555
Na22 O68 2.446179 1_555
Na22 O67 2.485935 1_555
Na22 O66 2.498763 1_555
Na22 O62 2.517320 1_555
Na23 O64 2.412145 1_555
Na23 O63 2.438645 1_555
Na23 O71 2.446179 1_555
Na23 O69 2.485935 1_555
Na23 O70 2.498763 1_555
Na23 O65 2.517320 1_555
Al0 O1 1.820112 1_555
Al0 O2 1.857153 1_565
Al0 O37 1.893504 1_555
Al0 O36 1.951715 1_655
Al0 O0 1.967790 1_665
Al0 O38 2.063992 1_665
Al1 O3 1.820112 1_555
Al1 O5 1.857153 1_455
Al1 O39 1.893504 1_555
Al1 O40 1.951715 1_545
Al1 O4 1.967790 1_445
Al1 O41 2.063992 1_445
Al2 O13 1.820112 1_555
Al2 O14 1.857153 1_555
Al2 O49 1.893504 1_555
Al2 O48 1.951715 1_555
Al2 O12 1.967790 1_555
Al2 O50 2.063992 1_555
Al3 O15 1.820112 1_555
Al3 O17 1.857153 1_555
Al3 O51 1.893504 1_555
Al3 O52 1.951715 1_555
Al3 O16 1.967790 1_555
Al3 O53 2.063992 1_555
Al4 O25 1.820112 1_554
Al4 O26 1.857153 1_554
Al4 O61 1.893504 1_555
Al4 O60 1.951715 1_555
Al4 O24 1.967790 1_554
Al4 O62 2.063992 1_555
Al5 O27 1.820112 1_555
Al5 O29 1.857153 1_555
Al5 O63 1.893504 1_555
Al5 O64 1.951715 1_555
Al5 O28 1.967790 1_555
Al5 O65 2.063992 1_555
Ge0 O6 1.846439 1_555
Ge0 O7 1.872208 1_665
Ge0 O43 1.923482 1_665
Ge0 O44 1.933024 1_555
Ge0 O8 1.940975 1_655
Ge0 O42 2.073757 1_565
Ge1 O10 1.846439 1_555
Ge1 O9 1.872208 1_445
Ge1 O45 1.923482 1_445
Ge1 O47 1.933024 1_555
Ge1 O11 1.940975 1_545
Ge1 O46 2.073757 1_455
Ge2 O18 1.846439 1_556
Ge2 O19 1.872208 1_556
Ge2 O55 1.923482 1_555
Ge2 O56 1.933024 1_555
Ge2 O20 1.940975 1_556
Ge2 O54 2.073757 1_555
Ge3 O22 1.846439 1_555
Ge3 O21 1.872208 1_555
Ge3 O57 1.923482 1_555
Ge3 O59 1.933024 1_555
Ge3 O23 1.940975 1_555
Ge3 O58 2.073757 1_555
Ge4 O30 1.846439 1_555
Ge4 O31 1.872208 1_555
Ge4 O67 1.923482 1_555
Ge4 O68 1.933024 1_555
Ge4 O32 1.940975 1_555
Ge4 O66 2.073757 1_555
Ge5 O34 1.846439 1_555
Ge5 O33 1.872208 1_555
Ge5 O69 1.923482 1_555
Ge5 O71 1.933024 1_555
Ge5 O35 1.940975 1_555
Ge5 O70 2.073757 1_555
O0 P0 1.525809 1_555
O1 Si0 1.607061 1_555
O2 Si1 1.610404 1_555
O3 Si2 1.607061 1_555
O4 P1 1.525809 1_555
O5 Si3 1.610404 1_555
O6 Si3 1.663501 1_565
O7 Si2 1.665646 1_555
O8 P1 1.573147 1_455
O9 Si0 1.665646 1_555
O10 Si1 1.663501 1_455
O11 P0 1.573147 1_565
O12 P2 1.525809 1_555
O13 Si4 1.607061 1_555
O14 Si5 1.610404 1_555
O15 Si6 1.607061 1_555
O16 P3 1.525809 1_555
O17 Si7 1.610404 1_555
O18 Si7 1.663501 1_555
O19 Si6 1.665646 1_555
O20 P3 1.573147 1_555
O21 Si4 1.665646 1_555
O22 Si5 1.663501 1_555
O23 P2 1.573147 1_555
O24 P4 1.525809 1_555
O25 Si8 1.607061 1_555
O26 Si9 1.610404 1_555
O27 Si10 1.607061 1_555
O28 P5 1.525809 1_555
O29 Si11 1.610404 1_555
O30 Si11 1.663501 1_555
O31 Si10 1.665646 1_555
O32 P5 1.573147 1_555
O33 Si8 1.665646 1_555
O34 Si9 1.663501 1_555
O35 P4 1.573147 1_555
O36 Si11 1.630536 1_555
O37 Si10 1.626559 1_555
O38 P5 1.541819 1_555
O39 Si8 1.626559 1_555
O40 Si9 1.630536 1_555
O41 P4 1.541819 1_555
O42 P2 1.565488 1_555
O43 Si4 1.668752 1_555
O44 Si5 1.670158 1_555
O45 Si6 1.668752 1_555
O46 P3 1.565488 1_555
O47 Si7 1.670158 1_555
O48 Si3 1.630536 1_555
O49 Si2 1.626559 1_555
O50 P1 1.541819 1_555
O51 Si0 1.626559 1_555
O52 Si1 1.630536 1_555
O53 P0 1.541819 1_555
O54 P4 1.565500 1_555
O55 Si8 1.668738 1_655
O56 Si9 1.670155 1_545
O57 Si10 1.668738 1_545
O58 P5 1.565500 1_555
O59 Si11 1.670155 1_655
O60 Si7 1.630547 1_555
O61 Si6 1.626545 1_455
O62 P3 1.541815 1_565
O63 Si4 1.626545 1_565
O64 Si5 1.630547 1_555
O65 P2 1.541815 1_455
O66 P0 1.565488 1_565
O67 Si0 1.668752 1_555
O68 Si1 1.670158 1_455
O69 Si2 1.668752 1_555
O70 P1 1.565488 1_455
O71 Si3 1.670158 1_565
