# generated using pymatgen
data_Na5Mg2Al2P3(SO8)3
_symmetry_space_group_name_H-M   'P 1'
_cell_length_a   8.70501252
_cell_length_b   8.66205338
_cell_length_c   21.84364668
_cell_angle_alpha   90.84668868
_cell_angle_beta   90.16671466
_cell_angle_gamma   120.25402632
_symmetry_Int_Tables_number   1
_chemical_formula_structural   Na5Mg2Al2P3(SO8)3
_chemical_formula_sum   'Na15 Mg6 Al6 P9 S9 O72'
_cell_volume   1422.49259794
_cell_formula_units_Z   3
loop_
 _symmetry_equiv_pos_site_id
 _symmetry_equiv_pos_as_xyz
  1  'x, y, z'
loop_
 _atom_site_type_symbol
 _atom_site_label
 _atom_site_symmetry_multiplicity
 _atom_site_fract_x
 _atom_site_fract_y
 _atom_site_fract_z
 _atom_site_occupancy
  Na  Na0  1  0.63944020  0.01042071  0.25256087  1
  Na  Na1  1  0.00031115  0.63295717  0.24575109  1
  Na  Na2  1  0.63420459  0.63211131  0.74650921  1
  Na  Na3  1  0.99656166  0.35668764  0.74791140  1
  Na  Na4  1  0.30574782  0.34264055  0.58536850  1
  Na  Na5  1  0.66678463  0.96554552  0.58055433  1
  Na  Na6  1  0.29847434  0.96097700  0.08119256  1
  Na  Na7  1  0.69369781  0.02755325  0.91341337  1
  Na  Na8  1  0.96561453  0.29469185  0.41500447  1
  Na  Na9  1  0.98930351  0.98087660  0.49788734  1
  Na  Na10  1  0.00602771  0.99326689  0.99846728  1
  Na  Na11  1  0.64516704  0.31918257  0.83216513  1
  Na  Na12  1  0.64784255  0.32419998  0.33287239  1
  Na  Na13  1  0.32136560  0.64678937  0.16446472  1
  Na  Na14  1  0.32855697  0.66966204  0.66513476  1
  Mg  Mg0  1  0.00117481  0.00191777  0.35161613  1
  Mg  Mg1  1  0.01358941  0.00649342  0.85250704  1
  Mg  Mg2  1  0.66329296  0.33025167  0.68491561  1
  Mg  Mg3  1  0.66812204  0.33480314  0.18463756  1
  Mg  Mg4  1  0.32523770  0.66475712  0.01891326  1
  Mg  Mg5  1  0.33570712  0.66816204  0.51792532  1
  Al  Al0  1  0.98957957  0.00141879  0.64938135  1
  Al  Al1  1  0.00552253  0.99880841  0.15028026  1
  Al  Al2  1  0.66434110  0.34109734  0.98230613  1
  Al  Al3  1  0.66979683  0.33157804  0.48350957  1
  Al  Al4  1  0.33262704  0.67130635  0.31484382  1
  Al  Al5  1  0.34232064  0.67899086  0.81488167  1
  P  P0  1  0.29173180  0.00043667  0.25078900  1
  P  P1  1  0.00844801  0.29302122  0.25101971  1
  P  P2  1  0.29104063  0.29279894  0.75049293  1
  P  P3  1  0.70384965  0.99710785  0.75209225  1
  P  P4  1  0.95959422  0.33471682  0.58418692  1
  P  P5  1  0.67557300  0.62596894  0.58403284  1
  P  P6  1  0.95272383  0.62656748  0.08476519  1
  P  P7  1  0.33621485  0.96276790  0.91928362  1
  P  P8  1  0.62231144  0.96100947  0.41786645  1
  S  S0  1  0.70556337  0.70955875  0.25006900  1
  S  S1  1  0.00731060  0.71581540  0.74983704  1
  S  S2  1  0.37049402  0.04189156  0.58273333  1
  S  S3  1  0.67580053  0.04322281  0.08297509  1
  S  S4  1  0.37586354  0.33397284  0.08340328  1
  S  S5  1  0.62182961  0.65977776  0.91696967  1
  S  S6  1  0.04005537  0.37873151  0.91590331  1
  S  S7  1  0.34175045  0.37885272  0.41656512  1
  S  S8  1  0.04035180  0.66670677  0.41694057  1
  O  O0  1  0.20491467  0.02415554  0.30651984  1
  O  O1  1  0.81709643  0.78767397  0.30472458  1
  O  O2  1  0.96758384  0.18126141  0.30819879  1
  O  O3  1  0.20637426  0.18071511  0.80544446  1
  O  O4  1  0.97121391  0.79120495  0.80457978  1
  O  O5  1  0.81736303  0.02665386  0.80908715  1
  O  O6  1  0.78835548  0.95851104  0.69398957  1
  O  O7  1  0.17096957  0.20723252  0.69103041  1
  O  O8  1  0.03504543  0.82561623  0.69493116  1
  O  O9  1  0.78696501  0.82574876  0.19554029  1
  O  O10  1  0.03207700  0.19760057  0.19389186  1
  O  O11  1  0.17171236  0.96017937  0.19169541  1
  O  O12  1  0.87823198  0.35925976  0.64211651  1
  O  O13  1  0.48343014  0.11982882  0.63756640  1
  O  O14  1  0.63609500  0.51425362  0.64124079  1
  O  O15  1  0.87543073  0.52225734  0.14276129  1
  O  O16  1  0.63921943  0.12092874  0.13776330  1
  O  O17  1  0.48117932  0.35984419  0.13839039  1
  O  O18  1  0.45676277  0.29596772  0.02830326  1
  O  O19  1  0.83159767  0.53110730  0.02761380  1
  O  O20  1  0.69969636  0.15329959  0.02751236  1
  O  O21  1  0.45320352  0.15839380  0.52840257  1
  O  O22  1  0.69732052  0.52973094  0.52694598  1
  O  O23  1  0.83630431  0.29541941  0.52644045  1
  O  O24  1  0.53978302  0.69226458  0.97064786  1
  O  O25  1  0.15216191  0.46002394  0.97048003  1
  O  O26  1  0.31541993  0.85783186  0.97687398  1
  O  O27  1  0.54128546  0.85451908  0.47505832  1
  O  O28  1  0.30701398  0.45444608  0.47243728  1
  O  O29  1  0.14905355  0.69137271  0.47100727  1
  O  O30  1  0.11958917  0.62955635  0.36045423  1
  O  O31  1  0.50559970  0.86896656  0.35886240  1
  O  O32  1  0.36528917  0.49197602  0.36249046  1
  O  O33  1  0.12249219  0.48657020  0.85985690  1
  O  O34  1  0.37456070  0.87108452  0.86274230  1
  O  O35  1  0.51177948  0.63011721  0.85980924  1
  O  O36  1  0.01922346  0.82219275  0.40996258  1
  O  O37  1  0.81123874  0.98952638  0.41137551  1
  O  O38  1  0.18117131  0.19927573  0.41006307  1
  O  O39  1  0.01015405  0.19505493  0.91071339  1
  O  O40  1  0.17487461  0.98355134  0.91155095  1
  O  O41  1  0.79922380  0.82115515  0.91045081  1
  O  O42  1  0.97500344  0.15953171  0.58897758  1
  O  O43  1  0.19413858  0.02874048  0.58940276  1
  O  O44  1  0.84531060  0.81616405  0.59100496  1
  O  O45  1  0.97448743  0.81952006  0.09037165  1
  O  O46  1  0.83766156  0.02922099  0.08997642  1
  O  O47  1  0.19553882  0.16660890  0.08810940  1
  O  O48  1  0.68853758  0.16347014  0.74425746  1
  O  O49  1  0.48029895  0.32756229  0.74374082  1
  O  O50  1  0.84914472  0.53279955  0.74314646  1
  O  O51  1  0.68391585  0.53065721  0.24239781  1
  O  O52  1  0.84639650  0.32063143  0.24346502  1
  O  O53  1  0.48043608  0.15834028  0.24298262  1
  O  O54  1  0.63774118  0.49752640  0.92301915  1
  O  O55  1  0.85942329  0.36097612  0.92208635  1
  O  O56  1  0.51475704  0.15171838  0.92581067  1
  O  O57  1  0.64230455  0.15322396  0.42369894  1
  O  O58  1  0.50337497  0.36345042  0.42303318  1
  O  O59  1  0.86100065  0.49835628  0.42171485  1
  O  O60  1  0.35587819  0.49076198  0.07525445  1
  O  O61  1  0.14219979  0.65527534  0.07824858  1
  O  O62  1  0.51582142  0.86257500  0.07614766  1
  O  O63  1  0.35041639  0.86352476  0.57521565  1
  O  O64  1  0.51326772  0.65372376  0.57708901  1
  O  O65  1  0.14755017  0.49309025  0.57643670  1
  O  O66  1  0.30875008  0.82577177  0.25631776  1
  O  O67  1  0.52751083  0.69558621  0.25630700  1
  O  O68  1  0.17771815  0.48390882  0.25898177  1
  O  O69  1  0.30332704  0.48278398  0.75759103  1
  O  O70  1  0.16644216  0.69305531  0.75673014  1
  O  O71  1  0.51813773  0.82247433  0.75738967  1
loop_
_geom_bond_atom_site_label_1
_geom_bond_atom_site_label_2
_geom_bond_distance
_geom_bond_site_symmetry_2
Na0 O53 2.322629 1_555
Na0 O52 2.375968 1_555
Na0 O67 2.392221 1_545
Na0 O66 2.493458 1_545
Na0 O31 2.629031 1_545
Na0 O16 2.697609 1_555
Na0 O2 2.737443 1_555
Na0 O9 2.789235 1_545
Na1 O52 2.336621 1_455
Na1 O66 2.349051 1_555
Na1 O51 2.431859 1_455
Na1 O15 2.456395 1_455
Na1 O68 2.480500 1_555
Na1 O30 2.715610 1_555
Na1 O11 2.738976 1_555
Na1 O1 2.848490 1_455
Na2 O49 2.278411 1_555
Na2 O71 2.337717 1_555
Na2 O50 2.422212 1_555
Na2 O14 2.505536 1_555
Na2 O69 2.507372 1_555
Na2 O35 2.694283 1_555
Na2 O6 2.718854 1_555
Na2 O4 2.822657 1_555
Na3 O69 2.327984 1_655
Na3 O48 2.338777 1_555
Na3 O50 2.441571 1_555
Na3 O70 2.520566 1_655
Na3 O12 2.532349 1_555
Na3 O33 2.665944 1_655
Na3 O7 2.732897 1_655
Na3 O5 2.832490 1_555
Na4 O65 2.333927 1_555
Na4 O64 2.380805 1_555
Na4 O43 2.385454 1_555
Na4 O42 2.492938 1_455
Na4 O7 2.605452 1_555
Na4 O28 2.661448 1_555
Na4 O14 2.754485 1_555
Na4 O21 2.785317 1_555
Na5 O64 2.333074 1_555
Na5 O42 2.345445 1_565
Na5 O63 2.433453 1_555
Na5 O44 2.484861 1_555
Na5 O27 2.507963 1_555
Na5 O6 2.705093 1_555
Na5 O23 2.756911 1_565
Na5 O13 2.827760 1_565
Na6 O61 2.287189 1_555
Na6 O47 2.366330 1_565
Na6 O62 2.437591 1_555
Na6 O45 2.454390 1_455
Na6 O26 2.467198 1_554
Na6 O11 2.655626 1_555
Na6 O18 2.780761 1_565
Na6 O16 2.834038 1_565
Na7 O56 2.310515 1_555
Na7 O39 2.381851 1_655
Na7 O41 2.386671 1_545
Na7 O55 2.498426 1_555
Na7 O5 2.524749 1_555
Na7 O34 2.631250 1_545
Na7 O20 2.694917 1_556
Na7 O24 2.826486 1_545
Na8 O37 2.283250 1_545
Na8 O59 2.361152 1_555
Na8 O38 2.403543 1_655
Na8 O57 2.448136 1_555
Na8 O2 2.521537 1_555
Na8 O23 2.686063 1_555
Na8 O30 2.797095 1_655
Na8 O28 2.846726 1_655
Na9 O36 2.435466 1_655
Na9 O44 2.458162 1_555
Na9 O37 2.466485 1_555
Na9 O42 2.544395 1_565
Na9 O43 2.560714 1_665
Na9 O38 2.643996 1_665
Na10 O40 2.430671 1_555
Na10 O45 2.459004 1_456
Na10 O47 2.491684 1_566
Na10 O41 2.520027 1_455
Na10 O46 2.588289 1_466
Na10 O39 2.601339 1_565
Na11 O49 2.426668 1_555
Na11 O56 2.453382 1_555
Na11 O48 2.467759 1_555
Na11 O54 2.517935 1_555
Na11 O55 2.597126 1_555
Na11 O50 2.678324 1_555
Na12 O53 2.415244 1_555
Na12 O58 2.449755 1_555
Na12 O57 2.479382 1_555
Na12 O59 2.560613 1_555
Na12 O51 2.597057 1_555
Na12 O52 2.621872 1_555
Na13 O60 2.459457 1_555
Na13 O61 2.467210 1_555
Na13 O68 2.477926 1_555
Na13 O66 2.553867 1_555
Na13 O67 2.571628 1_555
Na13 O62 2.649168 1_555
Na14 O65 2.458071 1_555
Na14 O71 2.497432 1_555
Na14 O70 2.515609 1_555
Na14 O69 2.547203 1_555
Na14 O63 2.547878 1_555
Na14 O64 2.556780 1_555
Mg0 O0 1.955631 1_555
Mg0 O2 1.974318 1_455
Mg0 O1 1.999638 1_445
Mg0 O38 2.057236 1_555
Mg0 O37 2.070527 1_445
Mg0 O36 2.092024 1_545
Mg1 O3 1.911666 1_555
Mg1 O40 1.988034 1_545
Mg1 O4 1.989118 1_445
Mg1 O5 2.035654 1_455
Mg1 O39 2.067192 1_555
Mg1 O41 2.171761 1_445
Mg2 O13 1.975489 1_555
Mg2 O14 1.982520 1_555
Mg2 O12 1.995332 1_555
Mg2 O49 2.040735 1_555
Mg2 O48 2.046754 1_555
Mg2 O50 2.091736 1_555
Mg3 O15 1.957222 1_555
Mg3 O16 2.004130 1_555
Mg3 O17 2.017026 1_555
Mg3 O53 2.045292 1_555
Mg3 O51 2.046847 1_555
Mg3 O52 2.063896 1_555
Mg4 O25 1.943476 1_554
Mg4 O26 1.958704 1_554
Mg4 O61 2.026986 1_555
Mg4 O24 2.055913 1_554
Mg4 O62 2.076433 1_555
Mg4 O60 2.077321 1_555
Mg5 O27 1.956674 1_555
Mg5 O28 1.988706 1_555
Mg5 O29 2.014047 1_555
Mg5 O63 2.040660 1_555
Mg5 O65 2.045131 1_555
Mg5 O64 2.064665 1_555
Al0 O6 1.876304 1_545
Al0 O7 1.899029 1_655
Al0 O44 1.917736 1_545
Al0 O42 1.964770 1_555
Al0 O8 2.028640 1_645
Al0 O43 2.131066 1_655
Al1 O10 1.864189 1_565
Al1 O11 1.874134 1_555
Al1 O45 1.926761 1_455
Al1 O9 2.006268 1_455
Al1 O46 2.080074 1_465
Al1 O47 2.083674 1_565
Al2 O19 1.826741 1_556
Al2 O56 1.920370 1_555
Al2 O18 1.933354 1_556
Al2 O54 1.983191 1_555
Al2 O20 2.065481 1_556
Al2 O55 2.090185 1_555
Al3 O22 1.854687 1_555
Al3 O23 1.880596 1_555
Al3 O57 1.927923 1_555
Al3 O21 1.992752 1_555
Al3 O58 2.079120 1_555
Al3 O59 2.080168 1_555
Al4 O31 1.862341 1_555
Al4 O68 1.915328 1_555
Al4 O66 1.948593 1_555
Al4 O30 1.976904 1_555
Al4 O32 2.016957 1_555
Al4 O67 2.053835 1_555
Al5 O34 1.848432 1_555
Al5 O71 1.898622 1_555
Al5 O69 1.980694 1_555
Al5 O35 1.987841 1_555
Al5 O70 2.038038 1_555
Al5 O33 2.061671 1_555
O0 P0 1.499920 1_555
O1 S0 1.460554 1_555
O2 P1 1.521516 1_655
O3 P2 1.498388 1_555
O4 S1 1.463199 1_655
O5 P3 1.523309 1_545
O6 P3 1.582542 1_555
O7 P2 1.584906 1_555
O8 S1 1.485032 1_555
O9 S0 1.501826 1_555
O10 P1 1.557243 1_555
O11 P0 1.578319 1_565
O12 P4 1.515598 1_555
O13 S2 1.468789 1_555
O14 P5 1.522900 1_555
O15 P6 1.516636 1_555
O16 S3 1.476861 1_555
O17 S4 1.453271 1_555
O18 S4 1.509889 1_555
O19 P6 1.561176 1_555
O20 S3 1.501970 1_555
O21 S2 1.501145 1_555
O22 P5 1.554158 1_555
O23 P4 1.571665 1_555
O24 S5 1.470292 1_555
O25 S6 1.464719 1_555
O26 P7 1.520138 1_555
O27 P8 1.514146 1_555
O28 S7 1.479100 1_555
O29 S8 1.455386 1_555
O30 S8 1.522709 1_555
O31 P8 1.573154 1_555
O32 S7 1.493536 1_555
O33 S6 1.499924 1_555
O34 P7 1.583684 1_555
O35 S5 1.509396 1_555
O36 S8 1.458260 1_555
O37 P8 1.542371 1_555
O38 S7 1.481561 1_555
O39 S6 1.479571 1_555
O40 P7 1.512539 1_555
O41 S5 1.480171 1_555
O42 P4 1.594164 1_555
O43 S2 1.488804 1_555
O44 P5 1.568099 1_555
O45 P6 1.587166 1_555
O46 S3 1.481513 1_555
O47 S4 1.512786 1_555
O48 P3 1.524584 1_545
O49 P2 1.526269 1_555
O50 S1 1.490887 1_655
O51 S0 1.470680 1_555
O52 P1 1.553759 1_655
O53 P0 1.530601 1_555
O54 S5 1.487757 1_555
O55 S6 1.507486 1_655
O56 P7 1.594746 1_545
O57 P8 1.587533 1_545
O58 S7 1.485193 1_555
O59 S8 1.512012 1_655
O60 S4 1.466793 1_555
O61 P6 1.546513 1_455
O62 S3 1.485331 1_565
O63 S2 1.471339 1_565
O64 P5 1.555350 1_555
O65 P4 1.527852 1_455
O66 P0 1.598975 1_565
O67 S0 1.499415 1_555
O68 P1 1.571739 1_555
O69 P2 1.599588 1_555
O70 S1 1.501763 1_555
O71 P3 1.567528 1_555
