# generated using pymatgen
data_Ce(MnSi)2
_symmetry_space_group_name_H-M   'P 1'
_cell_length_a   4.11228068
_cell_length_b   4.11228012
_cell_length_c   6.01229926
_cell_angle_alpha   109.99810459
_cell_angle_beta   109.99811680
_cell_angle_gamma   89.99999282
_symmetry_Int_Tables_number   1
_chemical_formula_structural   Ce(MnSi)2
_chemical_formula_sum   'Ce1 Mn2 Si2'
_cell_volume   88.99078465
_cell_formula_units_Z   1
loop_
 _symmetry_equiv_pos_site_id
 _symmetry_equiv_pos_as_xyz
  1  'x, y, z'
loop_
 _atom_site_type_symbol
 _atom_site_label
 _atom_site_symmetry_multiplicity
 _atom_site_fract_x
 _atom_site_fract_y
 _atom_site_fract_z
 _atom_site_occupancy
  Ce  Ce0  1  -0.00000000  0.00000000  0.00000000  1
  Mn  Mn0  1  0.25000000  0.75000000  0.50000000  1
  Mn  Mn1  1  0.75000000  0.25000000  0.50000000  1
  Si  Si0  1  0.61458591  0.61458591  0.22917282  1
  Si  Si1  1  0.38541409  0.38541409  0.77082718  1
loop_
_geom_bond_atom_site_label_1
_geom_bond_atom_site_label_2
_geom_bond_distance
_geom_bond_site_symmetry_2
Ce0 Si1 3.147986 1_444
Ce0 Si0 3.147986 1_555
Ce0 Si0 3.147988 1_545
Ce0 Si1 3.147988 1_454
Ce0 Si0 3.147988 1_455
Ce0 Si1 3.147988 1_544
Ce0 Si0 3.147991 1_445
Ce0 Si1 3.147991 1_554
Ce0 Mn0 3.339280 1_444
Ce0 Mn1 3.339280 1_555
Ce0 Mn1 3.339280 1_444
Ce0 Mn0 3.339280 1_555
Ce0 Mn1 3.339280 1_454
Ce0 Mn0 3.339280 1_545
Ce0 Mn1 3.339280 1_455
Ce0 Mn0 3.339280 1_544
Mn0 Si1 2.501772 1_555
Mn0 Si0 2.501772 1_555
Mn0 Si1 2.501775 1_565
Mn0 Si0 2.501775 1_455
Mn1 Si0 2.501772 1_555
Mn1 Si1 2.501772 1_555
Mn1 Si0 2.501775 1_545
Mn1 Si1 2.501775 1_655
Si0 Si1 2.411974 1_554
