# generated using pymatgen
data_MgNb4(IO2)4
_symmetry_space_group_name_H-M   'P 1'
_cell_length_a   3.82750000
_cell_length_b   4.09698998
_cell_length_c   21.90499421
_cell_angle_alpha   90.13666672
_cell_angle_beta   90.00000000
_cell_angle_gamma   90.00000000
_symmetry_Int_Tables_number   1
_chemical_formula_structural   MgNb4(IO2)4
_chemical_formula_sum   'Mg1 Nb4 I4 O8'
_cell_volume   343.49625682
_cell_formula_units_Z   1
loop_
 _symmetry_equiv_pos_site_id
 _symmetry_equiv_pos_as_xyz
  1  'x, y, z'
loop_
 _atom_site_type_symbol
 _atom_site_label
 _atom_site_symmetry_multiplicity
 _atom_site_fract_x
 _atom_site_fract_y
 _atom_site_fract_z
 _atom_site_occupancy
  Mg  Mg0  1  0.75000000  0.49866000  0.47419400  1
  Nb  Nb0  1  0.25000000  0.55599800  0.93579900  1
  Nb  Nb1  1  0.75000000  0.00187000  0.57187200  1
  Nb  Nb2  1  0.75000000  0.44437500  0.06392900  1
  Nb  Nb3  1  0.25000000  0.99793600  0.42848600  1
  I  I0  1  0.25000000  0.00378300  0.67276800  1
  I  I1  1  0.75000000  0.99659500  0.32667900  1
  I  I2  1  0.25000000  0.50947600  0.16831500  1
  I  I3  1  0.75000000  0.49048200  0.83180700  1
  O  O0  1  0.25000000  0.49762100  0.43326300  1
  O  O1  1  0.75000000  0.50250900  0.56630500  1
  O  O2  1  0.25000000  0.99448600  0.93027700  1
  O  O3  1  0.75000000  0.99856300  0.46695500  1
  O  O4  1  0.25000000  0.00237900  0.53174500  1
  O  O5  1  0.25000000  0.50429100  0.03108900  1
  O  O6  1  0.75000000  0.00572600  0.06986900  1
  O  O7  1  0.75000000  0.49525200  0.96887000  1
loop_
_geom_bond_atom_site_label_1
_geom_bond_atom_site_label_2
_geom_bond_distance
_geom_bond_site_symmetry_2
Mg0 O1 2.017715 1_555
Mg0 O3 2.054604 1_555
Mg0 O3 2.054642 1_545
Mg0 O0 2.113367 1_555
Mg0 O0 2.113367 1_655
Nb0 O2 1.800836 1_555
Nb0 O7 2.061558 1_455
Nb0 O7 2.061558 1_555
Nb0 O5 2.098552 1_556
Nb0 O2 2.303399 1_545
Nb1 O1 2.049218 1_545
Nb1 O1 2.055025 1_555
Nb1 O4 2.105958 1_555
Nb1 O4 2.105958 1_655
Nb1 O3 2.298214 1_545
Nb2 O6 1.802154 1_555
Nb2 O5 2.059373 1_555
Nb2 O5 2.059373 1_655
Nb2 O7 2.093168 1_554
Nb2 O6 2.303217 1_565
Nb3 O0 2.049628 1_565
Nb3 O0 2.052704 1_555
Nb3 O3 2.091056 1_455
Nb3 O3 2.091056 1_555
Nb3 O4 2.261918 1_565
I0 Nb1 2.923538 1_555
I0 Nb1 2.923538 1_455
I1 Nb3 2.938652 1_655
I1 Nb3 2.938652 1_555
I2 Nb2 2.993174 1_555
I2 Nb2 2.993174 1_455
I3 Nb0 2.986737 1_555
I3 Nb0 2.986737 1_655
