# generated using pymatgen
data_MgV4(O3F2)2
_symmetry_space_group_name_H-M   'P 1'
_cell_length_a   4.91127887
_cell_length_b   5.43493027
_cell_length_c   7.91322783
_cell_angle_alpha   120.12301307
_cell_angle_beta   106.57986417
_cell_angle_gamma   92.33952042
_symmetry_Int_Tables_number   1
_chemical_formula_structural   MgV4(O3F2)2
_chemical_formula_sum   'Mg1 V4 O6 F4'
_cell_volume   170.73273887
_cell_formula_units_Z   1
loop_
 _symmetry_equiv_pos_site_id
 _symmetry_equiv_pos_as_xyz
  1  'x, y, z'
loop_
 _atom_site_type_symbol
 _atom_site_label
 _atom_site_symmetry_multiplicity
 _atom_site_fract_x
 _atom_site_fract_y
 _atom_site_fract_z
 _atom_site_occupancy
  Mg  Mg0  1  0.76639128  0.91052305  0.55142090  1
  V  V0  1  0.09969884  0.48620234  0.19510337  1
  V  V1  1  0.40486931  0.04047602  0.82872571  1
  V  V2  1  0.58677351  0.96486963  0.17835804  1
  V  V3  1  0.89980074  0.51507089  0.82042393  1
  O  O0  1  0.12260403  0.27115889  0.89947911  1
  O  O1  1  0.26994984  0.77022411  0.90624095  1
  O  O2  1  0.58058449  0.23471460  0.71807754  1
  O  O3  1  0.46404235  0.75908627  0.27696813  1
  O  O4  1  0.73357775  0.21710402  0.11203534  1
  O  O5  1  0.86990062  0.71191952  0.08966898  1
  F  F0  1  0.10596028  0.75398559  0.51299069  1
  F  F1  1  0.33901984  0.26075647  0.28899359  1
  F  F2  1  0.68109834  0.75075878  0.71267844  1
  F  F3  1  0.89447878  0.22294181  0.50050228  1
loop_
_geom_bond_atom_site_label_1
_geom_bond_atom_site_label_2
_geom_bond_distance
_geom_bond_site_symmetry_2
Mg0 O3 1.965890 1_555
Mg0 O2 2.040160 1_565
Mg0 O0 2.457626 1_665
O0 V1 1.920267 1_555
O0 V3 1.976413 1_455
O0 V0 2.065867 1_556
O1 V3 1.957909 1_455
O1 V2 1.960631 1_556
O1 V1 2.007364 1_565
O2 V3 1.810309 1_555
O2 V1 1.977488 1_555
O3 V2 1.820016 1_555
O3 V0 1.994648 1_555
O4 V2 1.879358 1_545
O4 V0 1.987493 1_655
O4 V1 2.049793 1_554
O5 V3 1.899758 1_554
O5 V2 2.015107 1_555
O5 V0 2.019343 1_655
F0 Mg0 1.934726 1_455
F0 V1 2.153449 1_565
F0 V0 2.173581 1_555
F1 V0 1.991925 1_555
F1 V2 2.046387 1_545
F2 Mg0 1.986275 1_555
F2 V3 2.051190 1_555
F2 V1 2.144097 1_565
F3 Mg0 2.045816 1_545
F3 V2 2.188397 1_545
F3 V3 2.203408 1_555
