# generated using pymatgen
data_K2WO8
_symmetry_space_group_name_H-M   'P 1'
_cell_length_a   11.16735065
_cell_length_b   11.16735065
_cell_length_c   11.16735026
_cell_angle_alpha   64.27701968
_cell_angle_beta   64.27701968
_cell_angle_gamma   64.27701611
_symmetry_Int_Tables_number   1
_chemical_formula_structural   K2WO8
_chemical_formula_sum   'K12 W6 O48'
_cell_volume   1077.31910313
_cell_formula_units_Z   6
loop_
 _symmetry_equiv_pos_site_id
 _symmetry_equiv_pos_as_xyz
  1  'x, y, z'
loop_
 _atom_site_type_symbol
 _atom_site_label
 _atom_site_symmetry_multiplicity
 _atom_site_fract_x
 _atom_site_fract_y
 _atom_site_fract_z
 _atom_site_occupancy
  K  K0  1  0.60649600  0.25000000  0.89350400  1
  K  K1  1  0.89350400  0.60649600  0.25000000  1
  K  K2  1  0.25000000  0.89350400  0.60649600  1
  K  K3  1  0.39350400  0.75000000  0.10649600  1
  K  K4  1  0.10649600  0.39350400  0.75000000  1
  K  K5  1  0.75000000  0.10649600  0.39350400  1
  K  K6  1  0.00000000  0.00000000  0.00000000  1
  K  K7  1  0.50000000  0.50000000  0.50000000  1
  K  K8  1  0.33257300  0.33257300  0.33257300  1
  K  K9  1  0.16742700  0.16742700  0.16742700  1
  K  K10  1  0.66742700  0.66742700  0.66742700  1
  K  K11  1  0.83257300  0.83257300  0.83257300  1
  W  W0  1  0.93255800  0.25000000  0.56744200  1
  W  W1  1  0.56744200  0.93255800  0.25000000  1
  W  W2  1  0.25000000  0.56744200  0.93255800  1
  W  W3  1  0.06744200  0.75000000  0.43255800  1
  W  W4  1  0.43255800  0.06744200  0.75000000  1
  W  W5  1  0.75000000  0.43255800  0.06744200  1
  O  O0  1  0.71801700  0.92340100  0.06946300  1
  O  O1  1  0.06946300  0.71801700  0.92340100  1
  O  O2  1  0.92340100  0.06946300  0.71801700  1
  O  O3  1  0.78198300  0.43053700  0.57659900  1
  O  O4  1  0.57659900  0.78198300  0.43053700  1
  O  O5  1  0.43053700  0.57659900  0.78198300  1
  O  O6  1  0.28198300  0.07659900  0.93053700  1
  O  O7  1  0.93053700  0.28198300  0.07659900  1
  O  O8  1  0.07659900  0.93053700  0.28198300  1
  O  O9  1  0.21801700  0.56946300  0.42340100  1
  O  O10  1  0.42340100  0.21801700  0.56946300  1
  O  O11  1  0.56946300  0.42340100  0.21801700  1
  O  O12  1  0.77548900  0.89826800  0.18088000  1
  O  O13  1  0.18088000  0.77548900  0.89826800  1
  O  O14  1  0.89826800  0.18088000  0.77548900  1
  O  O15  1  0.72451100  0.31912000  0.60173200  1
  O  O16  1  0.60173200  0.72451100  0.31912000  1
  O  O17  1  0.31912000  0.60173200  0.72451100  1
  O  O18  1  0.80638700  0.46566500  0.86131400  1
  O  O19  1  0.46566500  0.86131400  0.80638700  1
  O  O20  1  0.86131500  0.80638700  0.46566500  1
  O  O21  1  0.03433500  0.69361300  0.63868600  1
  O  O22  1  0.69361300  0.63868600  0.03433500  1
  O  O23  1  0.63868600  0.03433500  0.69361300  1
  O  O24  1  0.19361300  0.53433500  0.13868600  1
  O  O25  1  0.53433500  0.13868500  0.19361300  1
  O  O26  1  0.13868600  0.19361300  0.53433500  1
  O  O27  1  0.96566500  0.30638700  0.36131500  1
  O  O28  1  0.30638700  0.36131400  0.96566500  1
  O  O29  1  0.36131400  0.96566500  0.30638700  1
  O  O30  1  0.65789500  0.46245700  0.93382300  1
  O  O31  1  0.46245700  0.93382300  0.65789500  1
  O  O32  1  0.93382300  0.65789500  0.46245700  1
  O  O33  1  0.03754300  0.84210500  0.56617700  1
  O  O34  1  0.84210500  0.56617700  0.03754300  1
  O  O35  1  0.56617700  0.03754300  0.84210500  1
  O  O36  1  0.34210500  0.53754300  0.06617700  1
  O  O37  1  0.53754300  0.06617700  0.34210500  1
  O  O38  1  0.06617700  0.34210500  0.53754300  1
  O  O39  1  0.96245700  0.15789500  0.43382300  1
  O  O40  1  0.15789500  0.43382300  0.96245700  1
  O  O41  1  0.43382300  0.96245700  0.15789500  1
  O  O42  1  0.68088000  0.39826800  0.27548900  1
  O  O43  1  0.39826800  0.27548900  0.68088000  1
  O  O44  1  0.27548900  0.68088000  0.39826800  1
  O  O45  1  0.10173200  0.81912000  0.22451100  1
  O  O46  1  0.81912000  0.22451100  0.10173200  1
  O  O47  1  0.22451100  0.10173200  0.81912000  1
loop_
_geom_bond_atom_site_label_1
_geom_bond_atom_site_label_2
_geom_bond_distance
_geom_bond_site_symmetry_2
K0 O15 2.814551 1_555
K0 O14 2.814551 1_555
K0 O28 2.887132 1_555
K0 O25 2.887133 1_556
K0 O35 2.914638 1_555
K0 O30 2.914638 1_555
K0 O5 3.267249 1_555
K0 O0 3.267249 1_546
K1 O16 2.814551 1_555
K1 O12 2.814551 1_555
K1 O24 2.887132 1_655
K1 O27 2.887133 1_555
K1 O34 2.914638 1_555
K1 O32 2.914638 1_555
K1 O1 3.267249 1_654
K1 O3 3.267249 1_555
K2 O13 2.814551 1_555
K2 O17 2.814551 1_555
K2 O29 2.887132 1_555
K2 O26 2.887132 1_565
K2 O31 2.914638 1_555
K2 O33 2.914638 1_555
K2 O2 3.267249 1_465
K2 O4 3.267249 1_555
K3 O44 2.814551 1_555
K3 O45 2.814551 1_555
K3 O19 2.887132 1_554
K3 O22 2.887132 1_555
K3 O41 2.914638 1_555
K3 O36 2.914638 1_555
K3 O11 3.267249 1_555
K3 O6 3.267249 1_564
K4 O43 2.814551 1_555
K4 O47 2.814551 1_555
K4 O21 2.887132 1_555
K4 O18 2.887132 1_455
K4 O38 2.914638 1_555
K4 O40 2.914638 1_555
K4 O9 3.267249 1_555
K4 O7 3.267249 1_456
K5 O46 2.814551 1_555
K5 O42 2.814551 1_555
K5 O23 2.887132 1_555
K5 O20 2.887133 1_545
K5 O37 2.914638 1_555
K5 O39 2.914638 1_555
K5 O8 3.267249 1_645
K5 O10 3.267249 1_555
K6 O46 2.782315 1_455
K6 O13 2.782315 1_544
K6 O45 2.782315 1_545
K6 O14 2.782315 1_454
K6 O47 2.782315 1_554
K6 O12 2.782315 1_445
K7 O15 2.782315 1_555
K7 O44 2.782315 1_555
K7 O42 2.782315 1_555
K7 O17 2.782315 1_555
K7 O43 2.782315 1_555
K7 O16 2.782315 1_555
K8 O24 2.796371 1_555
K8 O26 2.796371 1_555
K8 O25 2.796378 1_555
K8 O10 2.815825 1_555
K8 O9 2.815825 1_555
K8 O11 2.815825 1_555
K8 O37 2.850724 1_555
K8 O36 2.850724 1_555
K8 O38 2.850724 1_555
K9 O29 2.796371 1_545
K9 O28 2.796371 1_554
K9 O27 2.796378 1_455
K9 O6 2.815825 1_554
K9 O7 2.815825 1_455
K9 O8 2.815825 1_545
K9 O41 2.850724 1_545
K9 O39 2.850724 1_455
K9 O40 2.850724 1_554
K10 O19 2.796371 1_555
K10 O18 2.796371 1_555
K10 O20 2.796378 1_555
K10 O4 2.815825 1_555
K10 O3 2.815825 1_555
K10 O5 2.815825 1_555
K10 O31 2.850724 1_555
K10 O30 2.850724 1_555
K10 O32 2.850724 1_555
K11 O23 2.796371 1_565
K11 O21 2.796371 1_655
K11 O22 2.796371 1_556
K11 O0 2.815825 1_556
K11 O1 2.815825 1_655
K11 O2 2.815825 1_565
K11 O35 2.850724 1_565
K11 O33 2.850724 1_655
K11 O34 2.850724 1_556
O0 O12 1.507479 1_555
O0 W1 1.997405 1_555
O1 O13 1.507479 1_555
O1 W2 1.997405 1_555
O2 W0 1.997405 1_555
O3 W0 1.997405 1_555
O4 W1 1.997405 1_555
O5 W2 1.997405 1_555
O6 W4 1.997405 1_555
O7 W5 1.997405 1_555
O8 W3 1.997405 1_555
O9 W3 1.997405 1_555
O10 O43 1.507479 1_555
O10 W4 1.997405 1_555
O11 O42 1.507479 1_555
O11 W5 1.997405 1_555
O12 W1 2.016910 1_555
O13 W2 2.016910 1_555
O14 O2 1.507479 1_555
O14 W0 2.016910 1_555
O15 O3 1.507479 1_555
O15 W0 2.016910 1_555
O16 O4 1.507479 1_555
O16 W1 2.016910 1_555
O17 O5 1.507479 1_555
O17 W2 2.016910 1_555
O18 O30 1.505859 1_555
O18 W5 2.009249 1_556
O19 O31 1.505859 1_555
O19 W4 2.009249 1_565
O20 O32 1.505858 1_555
O20 W3 2.009239 1_655
O21 O33 1.505859 1_555
O21 W3 2.009249 1_555
O22 O34 1.505859 1_555
O22 W5 2.009249 1_555
O23 O35 1.505859 1_555
O23 W4 2.009249 1_555
O24 O36 1.505859 1_555
O24 W2 2.009249 1_554
O25 O37 1.505858 1_555
O25 W1 2.009239 1_545
O26 O38 1.505859 1_555
O26 W0 2.009249 1_455
O27 O39 1.505858 1_555
O27 W0 2.009239 1_555
O28 O40 1.505859 1_555
O28 W2 2.009249 1_555
O29 O41 1.505859 1_555
O29 W1 2.009249 1_555
O30 W5 1.999422 1_556
O31 W4 1.999422 1_565
O32 W3 1.999422 1_655
O33 W3 1.999422 1_555
O34 W5 1.999422 1_555
O35 W4 1.999422 1_555
O36 W2 1.999422 1_554
O37 W1 1.999422 1_545
O38 W0 1.999422 1_455
O39 W0 1.999422 1_555
O40 W2 1.999422 1_555
O41 W1 1.999422 1_555
O42 W5 2.016910 1_555
O43 W4 2.016910 1_555
O44 O9 1.507479 1_555
O44 W3 2.016910 1_555
O45 O8 1.507479 1_555
O45 W3 2.016910 1_555
O46 O7 1.507479 1_555
O46 W5 2.016910 1_555
O47 O6 1.507479 1_555
O47 W4 2.016910 1_555
