# generated using pymatgen
data_Na2Ca2Si3Sn6(S3O16)3
_symmetry_space_group_name_H-M   'P 1'
_cell_length_a   17.74418220
_cell_length_b   8.90046635
_cell_length_c   23.36011086
_cell_angle_alpha   90.02645129
_cell_angle_beta   89.67386484
_cell_angle_gamma   120.14379900
_symmetry_Int_Tables_number   1
_chemical_formula_structural   Na2Ca2Si3Sn6(S3O16)3
_chemical_formula_sum   'Na6 Ca6 Si9 Sn18 S27 O144'
_cell_volume   3190.32152413
_cell_formula_units_Z   3
loop_
 _symmetry_equiv_pos_site_id
 _symmetry_equiv_pos_as_xyz
  1  'x, y, z'
loop_
 _atom_site_type_symbol
 _atom_site_label
 _atom_site_symmetry_multiplicity
 _atom_site_fract_x
 _atom_site_fract_y
 _atom_site_fract_z
 _atom_site_occupancy
  Na  Na0  1  0.00143827  0.98705774  0.49440701  1
  Na  Na1  1  0.49951485  0.01451285  0.99819315  1
  Na  Na2  1  0.32823273  0.32285906  0.83753276  1
  Na  Na3  1  0.83528417  0.33412991  0.83499895  1
  Na  Na4  1  0.32558370  0.32245243  0.33015911  1
  Na  Na5  1  0.83015051  0.33628203  0.33548326  1
  Ca  Ca0  1  0.00460835  0.99321854  0.35237784  1
  Ca  Ca1  1  0.50005144  0.00978761  0.85517535  1
  Ca  Ca2  1  0.00186032  0.01075699  0.65043459  1
  Ca  Ca3  1  0.50128847  0.99290429  0.15150050  1
  Ca  Ca4  1  0.83647290  0.33471309  0.98161914  1
  Ca  Ca5  1  0.33501267  0.33518463  0.47855911  1
  Si  Si0  1  0.15071427  0.00226214  0.25061071  1
  Si  Si1  1  0.64901236  0.99569075  0.25019616  1
  Si  Si2  1  0.14923427  0.30327604  0.75031789  1
  Si  Si3  1  0.68927779  0.03881623  0.58207044  1
  Si  Si4  1  0.18798423  0.33807719  0.08118620  1
  Si  Si5  1  0.51986167  0.37855653  0.92072646  1
  Si  Si6  1  0.16545696  0.94657040  0.91664153  1
  Si  Si7  1  0.66332610  0.38160361  0.41616598  1
  Si  Si8  1  0.01909975  0.66220197  0.42044464  1
  Sn  Sn0  1  0.51011134  0.01639070  0.35184802  1
  Sn  Sn1  1  0.01185598  0.00616446  0.85402435  1
  Sn  Sn2  1  0.50531128  0.00234848  0.64619025  1
  Sn  Sn3  1  0.01282707  0.01035822  0.14901068  1
  Sn  Sn4  1  0.32447349  0.32793695  0.68347587  1
  Sn  Sn5  1  0.83364020  0.32746385  0.67956168  1
  Sn  Sn6  1  0.32669720  0.33426178  0.18351971  1
  Sn  Sn7  1  0.82705501  0.32272526  0.18497015  1
  Sn  Sn8  1  0.32638956  0.31672728  0.97813339  1
  Sn  Sn9  1  0.82536156  0.33433893  0.47617873  1
  Sn  Sn10  1  0.16344459  0.66624583  0.02253960  1
  Sn  Sn11  1  0.66612017  0.66300545  0.02183669  1
  Sn  Sn12  1  0.16759225  0.67178819  0.51711812  1
  Sn  Sn13  1  0.66325422  0.66489387  0.51930750  1
  Sn  Sn14  1  0.15660242  0.66865304  0.31193053  1
  Sn  Sn15  1  0.67075497  0.66876095  0.31273088  1
  Sn  Sn16  1  0.17011603  0.66968733  0.81459781  1
  Sn  Sn17  1  0.65936556  0.65847455  0.81592260  1
  S  S0  1  0.35115656  0.70461614  0.25452414  1
  S  S1  1  0.85373493  0.70599026  0.24613267  1
  S  S2  1  0.99856517  0.29474932  0.24835249  1
  S  S3  1  0.49834120  0.29809209  0.25059124  1
  S  S4  1  0.65116729  0.30091201  0.74878173  1
  S  S5  1  0.99658075  0.69646898  0.75055919  1
  S  S6  1  0.50002823  0.70205139  0.74845853  1
  S  S7  1  0.35459866  0.00307430  0.74634895  1
  S  S8  1  0.84938700  0.99711325  0.75428026  1
  S  S9  1  0.47864654  0.33214096  0.58656289  1
  S  S10  1  0.97994755  0.33896905  0.57972205  1
  S  S11  1  0.18731212  0.03205427  0.58167230  1
  S  S12  1  0.33212913  0.63259353  0.58394700  1
  S  S13  1  0.83178811  0.62340344  0.58168520  1
  S  S14  1  0.47766109  0.61774422  0.08099010  1
  S  S15  1  0.97799343  0.62668351  0.08601119  1
  S  S16  1  0.33306834  0.04168948  0.08146810  1
  S  S17  1  0.83394853  0.03166473  0.08444713  1
  S  S18  1  0.68750264  0.34034480  0.08197626  1
  S  S19  1  0.31042951  0.66260020  0.91903967  1
  S  S20  1  0.81352719  0.67561515  0.91339191  1
  S  S21  1  0.02151314  0.37237869  0.91439379  1
  S  S22  1  0.66833789  0.95372786  0.91693831  1
  S  S23  1  0.31447463  0.95124189  0.41344981  1
  S  S24  1  0.81093999  0.95805673  0.41884085  1
  S  S25  1  0.16721347  0.38487259  0.41569360  1
  S  S26  1  0.52229331  0.67219324  0.41411593  1
  O  O0  1  0.11780982  0.05081669  0.30654975  1
  O  O1  1  0.60903858  0.03894265  0.30806823  1
  O  O2  1  0.40774463  0.78913359  0.30590901  1
  O  O3  1  0.90319561  0.77407945  0.29794318  1
  O  O4  1  0.47780727  0.18365127  0.30283854  1
  O  O5  1  0.97898419  0.18979117  0.29931466  1
  O  O6  1  0.10860670  0.17869676  0.80801433  1
  O  O7  1  0.61548233  0.19452235  0.79955680  1
  O  O8  1  0.48357183  0.77325587  0.79958946  1
  O  O9  1  0.97624680  0.76967659  0.80251818  1
  O  O10  1  0.40601030  0.03481804  0.79743548  1
  O  O11  1  0.90469747  0.02512044  0.80550650  1
  O  O12  1  0.39674207  0.97363948  0.69434881  1
  O  O13  1  0.88252235  0.96529304  0.70203365  1
  O  O14  1  0.09604694  0.23040773  0.69363237  1
  O  O15  1  0.59574680  0.22202520  0.69716614  1
  O  O16  1  0.00935680  0.79586574  0.69919343  1
  O  O17  1  0.51370617  0.81187809  0.69631480  1
  O  O18  1  0.38411950  0.80483462  0.20257848  1
  O  O19  1  0.89384584  0.81696472  0.19424425  1
  O  O20  1  0.00945437  0.21323261  0.19529301  1
  O  O21  1  0.51218678  0.22325290  0.19971331  1
  O  O22  1  0.08949680  0.95991730  0.19327011  1
  O  O23  1  0.59642118  0.96238866  0.19319448  1
  O  O24  1  0.43685959  0.36375900  0.63873489  1
  O  O25  1  0.94452995  0.37168504  0.63548102  1
  O  O26  1  0.24135335  0.11234412  0.63549292  1
  O  O27  1  0.74667351  0.11662075  0.64170566  1
  O  O28  1  0.31591700  0.52232193  0.63664744  1
  O  O29  1  0.81830687  0.51787081  0.63605664  1
  O  O30  1  0.44087006  0.51274294  0.13479360  1
  O  O31  1  0.93666660  0.50995989  0.13752430  1
  O  O32  1  0.32096647  0.12242078  0.13392060  1
  O  O33  1  0.81503822  0.10977503  0.13571273  1
  O  O34  1  0.24925873  0.38274372  0.13803225  1
  O  O35  1  0.74167568  0.36704294  0.13464549  1
  O  O36  1  0.23197530  0.30168008  0.02547968  1
  O  O37  1  0.72794345  0.31720170  0.03110670  1
  O  O38  1  0.42495501  0.52897776  0.03006835  1
  O  O39  1  0.92794854  0.55255935  0.03454878  1
  O  O40  1  0.34856619  0.15151639  0.02960737  1
  O  O41  1  0.85002864  0.13616707  0.03344372  1
  O  O42  1  0.22895487  0.14100928  0.53212147  1
  O  O43  1  0.73424746  0.16626083  0.52801378  1
  O  O44  1  0.35008739  0.55999912  0.53398364  1
  O  O45  1  0.84744747  0.54103155  0.53165182  1
  O  O46  1  0.42704192  0.29975857  0.53566776  1
  O  O47  1  0.92407382  0.32014977  0.53107453  1
  O  O48  1  0.26762857  0.68616795  0.96992142  1
  O  O49  1  0.77614547  0.70508995  0.96638472  1
  O  O50  1  0.07290384  0.44760693  0.96686474  1
  O  O51  1  0.58555422  0.47277852  0.97498887  1
  O  O52  1  0.15058655  0.82868164  0.97367756  1
  O  O53  1  0.66030652  0.85160966  0.96966959  1
  O  O54  1  0.27896122  0.85024189  0.46836743  1
  O  O55  1  0.76832994  0.85126832  0.47101381  1
  O  O56  1  0.16013468  0.46831600  0.47096114  1
  O  O57  1  0.64954102  0.46787042  0.47499413  1
  O  O58  1  0.08228429  0.70229752  0.47722137  1
  O  O59  1  0.57325518  0.70058541  0.46782666  1
  O  O60  1  0.05916809  0.61776841  0.36319836  1
  O  O61  1  0.56538870  0.64683542  0.36375955  1
  O  O62  1  0.25742680  0.86477992  0.36401250  1
  O  O63  1  0.75872186  0.88074362  0.36650160  1
  O  O64  1  0.18025640  0.49407414  0.36419932  1
  O  O65  1  0.68388920  0.50292518  0.35892033  1
  O  O66  1  0.06354809  0.48123498  0.86283686  1
  O  O67  1  0.55884007  0.49277626  0.85975153  1
  O  O68  1  0.18421423  0.86740155  0.85767413  1
  O  O69  1  0.68222417  0.87451609  0.86360520  1
  O  O70  1  0.25950654  0.63610562  0.86552123  1
  O  O71  1  0.75706172  0.64521557  0.86184155  1
  O  O72  1  0.00716412  0.82761031  0.42053363  1
  O  O73  1  0.51225056  0.82697317  0.40821544  1
  O  O74  1  0.40019835  0.96242333  0.40592631  1
  O  O75  1  0.89730677  0.97904239  0.41546999  1
  O  O76  1  0.08699324  0.21816298  0.41498888  1
  O  O77  1  0.57463529  0.19379362  0.41009761  1
  O  O78  1  0.01121055  0.19642798  0.90816352  1
  O  O79  1  0.51067910  0.19107977  0.91887810  1
  O  O80  1  0.07546092  0.95367453  0.91073961  1
  O  O81  1  0.58820662  0.96030583  0.91349549  1
  O  O82  1  0.39693510  0.81556098  0.91478479  1
  O  O83  1  0.89883506  0.83686565  0.90471859  1
  O  O84  1  0.48684579  0.17525439  0.59701546  1
  O  O85  1  0.98570743  0.18166104  0.58390180  1
  O  O86  1  0.09995168  0.00573106  0.58830526  1
  O  O87  1  0.59315490  0.02175064  0.59265199  1
  O  O88  1  0.40833656  0.80874969  0.59481247  1
  O  O89  1  0.90792736  0.79604174  0.58705287  1
  O  O90  1  0.48567596  0.78877794  0.08376134  1
  O  O91  1  0.98384236  0.79696172  0.09460803  1
  O  O92  1  0.40858770  0.01854473  0.08528419  1
  O  O93  1  0.90819486  0.00567134  0.09599603  1
  O  O94  1  0.09066725  0.16820308  0.08972540  1
  O  O95  1  0.59955853  0.19280413  0.08765172  1
  O  O96  1  0.34697807  0.16217196  0.73736870  1
  O  O97  1  0.84145929  0.15947280  0.74932683  1
  O  O98  1  0.24895171  0.32104860  0.74657719  1
  O  O99  1  0.74068685  0.32369499  0.74016668  1
  O  O100  1  0.42437781  0.52380216  0.73866532  1
  O  O101  1  0.91535714  0.51326847  0.74489171  1
  O  O102  1  0.34759495  0.53169594  0.24904416  1
  O  O103  1  0.84533704  0.52966751  0.23760071  1
  O  O104  1  0.42107746  0.32349506  0.24475866  1
  O  O105  1  0.92332798  0.32607423  0.23908075  1
  O  O106  1  0.25005423  0.17476030  0.24204887  1
  O  O107  1  0.74844546  0.17694300  0.24639044  1
  O  O108  1  0.31701042  0.50320991  0.92305037  1
  O  O109  1  0.82281233  0.52171828  0.91748239  1
  O  O110  1  0.42661474  0.37584785  0.92524300  1
  O  O111  1  0.93511917  0.35574542  0.91740520  1
  O  O112  1  0.25128038  0.14049306  0.91941832  1
  O  O113  1  0.74615454  0.12672728  0.91884640  1
  O  O114  1  0.32369611  0.12359073  0.41850776  1
  O  O115  1  0.81548168  0.12913210  0.42358489  1
  O  O116  1  0.24551049  0.36861447  0.41886606  1
  O  O117  1  0.74962034  0.36066866  0.41972403  1
  O  O118  1  0.43650513  0.51533155  0.41842908  1
  O  O119  1  0.92578603  0.47560162  0.42553448  1
  O  O120  1  0.17715795  0.50902128  0.07196444  1
  O  O121  1  0.68594786  0.50825565  0.07896025  1
  O  O122  1  0.06591029  0.64554655  0.08135380  1
  O  O123  1  0.56714808  0.63816104  0.07689046  1
  O  O124  1  0.25145602  0.87177618  0.07562703  1
  O  O125  1  0.75230938  0.85580540  0.07713659  1
  O  O126  1  0.18574074  0.86216743  0.57838568  1
  O  O127  1  0.67567008  0.84470314  0.57284563  1
  O  O128  1  0.25263385  0.64837328  0.57716145  1
  O  O129  1  0.75077904  0.63095200  0.57630738  1
  O  O130  1  0.06845392  0.49585565  0.57584899  1
  O  O131  1  0.56613012  0.48801346  0.58182612  1
  O  O132  1  0.16228719  0.83044079  0.25429564  1
  O  O133  1  0.66293478  0.83036646  0.26267351  1
  O  O134  1  0.26176442  0.67247671  0.26529644  1
  O  O135  1  0.76492124  0.68220950  0.25116898  1
  O  O136  1  0.08017409  0.46577670  0.25296707  1
  O  O137  1  0.57680747  0.46968688  0.26054249  1
  O  O138  1  0.16309922  0.49687522  0.76253845  1
  O  O139  1  0.66069751  0.47687490  0.75498405  1
  O  O140  1  0.07305512  0.67652825  0.76056740  1
  O  O141  1  0.58157210  0.69109338  0.75297233  1
  O  O142  1  0.26694132  0.84831785  0.75113289  1
  O  O143  1  0.75934513  0.84233072  0.76356612  1
loop_
_geom_bond_atom_site_label_1
_geom_bond_atom_site_label_2
_geom_bond_distance
_geom_bond_site_symmetry_2
Na0 O72 2.267794 1_555
Na0 O75 2.593399 1_455
Na0 O76 2.610120 1_565
Na0 O89 2.730706 1_455
Na0 O86 2.765161 1_565
Na0 O85 2.814991 1_465
Na1 O79 2.372273 1_555
Na1 O92 2.600801 1_556
Na1 O82 2.654268 1_545
Na1 O95 2.691935 1_556
Na1 O81 2.711164 1_545
Na1 O90 2.755923 1_546
Na2 O112 2.430073 1_555
Na2 O98 2.550489 1_555
Na2 O110 2.584751 1_555
Na2 O108 2.630721 1_555
Na2 O96 2.845483 1_555
Na2 O100 2.887514 1_555
Na3 O111 2.564581 1_555
Na3 O97 2.568952 1_555
Na3 O101 2.585615 1_555
Na3 O113 2.604084 1_555
Na3 O109 2.629170 1_555
Na3 O99 2.760299 1_555
Na4 O106 2.453591 1_555
Na4 O102 2.544741 1_555
Na4 O104 2.607086 1_555
Na4 O116 2.652095 1_555
Na4 O114 2.708569 1_555
Na4 O118 2.778883 1_555
Na5 O117 2.498121 1_555
Na5 O107 2.532043 1_555
Na5 O119 2.601409 1_555
Na5 O115 2.686660 1_555
Na5 O103 2.791827 1_555
Na5 O105 2.814520 1_555
Ca0 O0 2.094144 1_565
Ca0 O72 2.186252 1_555
Ca0 O3 2.271135 1_455
Ca0 O76 2.316634 1_565
Ca0 O75 2.353765 1_455
Ca0 O5 2.368899 1_465
Ca1 O79 2.132847 1_555
Ca1 O10 2.247819 1_555
Ca1 O82 2.252051 1_545
Ca1 O7 2.275099 1_555
Ca1 O81 2.283324 1_545
Ca1 O8 2.363716 1_545
Ca2 O14 2.090285 1_555
Ca2 O86 2.277567 1_555
Ca2 O13 2.282865 1_445
Ca2 O16 2.287458 1_545
Ca2 O85 2.292746 1_455
Ca2 O89 2.334269 1_445
Ca3 O23 2.085989 1_555
Ca3 O18 2.241986 1_555
Ca3 O21 2.260833 1_565
Ca3 O95 2.299494 1_565
Ca3 O90 2.319135 1_555
Ca3 O92 2.357273 1_565
Ca4 O37 2.177764 1_556
Ca4 O39 2.186930 1_556
Ca4 O111 2.233908 1_555
Ca4 O41 2.253554 1_556
Ca4 O113 2.278186 1_555
Ca4 O109 2.342107 1_555
Ca5 O42 2.191493 1_555
Ca5 O118 2.204614 1_555
Ca5 O116 2.248414 1_555
Ca5 O46 2.255682 1_555
Ca5 O114 2.275061 1_555
Ca5 O44 2.283784 1_555
O0 Si0 1.574624 1_555
O1 Si1 1.655831 1_545
O1 Sn0 1.947679 1_555
O2 S0 1.506397 1_555
O2 Sn0 2.207365 1_565
O3 S1 1.442073 1_555
O4 S3 1.511036 1_555
O4 Sn0 2.172923 1_555
O5 S2 1.442561 1_555
O6 Si2 1.659283 1_555
O6 Sn1 1.947656 1_555
O7 S4 1.447325 1_555
O8 S6 1.447326 1_555
O9 S5 1.502790 1_555
O9 Sn1 2.224385 1_665
O10 S7 1.445486 1_555
O11 S8 1.491548 1_545
O11 Sn1 2.296825 1_655
O12 S7 1.513121 1_565
O12 Sn2 2.126825 1_565
O13 S8 1.440225 1_555
O14 Si2 1.569543 1_555
O15 S4 1.494362 1_555
O15 Sn2 2.164350 1_555
O16 S5 1.438849 1_455
O17 S6 1.502536 1_555
O17 Sn2 2.127119 1_565
O18 S0 1.441929 1_555
O19 S1 1.495537 1_555
O19 Sn3 2.205246 1_665
O20 S2 1.495753 1_455
O20 Sn3 2.130481 1_555
O21 S3 1.441153 1_555
O22 Si0 1.649585 1_565
O22 Sn3 1.936796 1_565
O23 Si1 1.570904 1_555
O24 S9 1.520947 1_555
O24 Sn4 2.123402 1_555
O25 S10 1.533125 1_555
O25 Sn5 2.070360 1_555
O26 S11 1.528251 1_555
O26 Sn4 2.070795 1_555
O27 Si3 1.662645 1_555
O27 Sn5 1.946925 1_555
O28 S12 1.508354 1_555
O28 Sn4 2.116712 1_555
O29 S13 1.524689 1_555
O29 Sn5 2.108728 1_555
O30 S14 1.502751 1_555
O30 Sn6 2.160229 1_555
O31 S15 1.513628 1_555
O31 Sn7 2.123747 1_555
O32 S16 1.488265 1_555
O32 Sn6 2.171313 1_555
O33 S17 1.503012 1_555
O33 Sn7 2.134652 1_555
O34 Si4 1.638725 1_555
O34 Sn6 1.953448 1_555
O35 S18 1.509320 1_555
O35 Sn7 2.110371 1_555
O36 Si4 1.627785 1_555
O36 Sn8 1.949756 1_554
O37 S18 1.451890 1_555
O38 S14 1.477683 1_555
O38 Sn8 2.191625 1_554
O39 S15 1.446389 1_555
O40 S16 1.492024 1_555
O40 Sn8 2.085930 1_554
O41 S17 1.447994 1_555
O42 S11 1.448403 1_555
O43 Si3 1.612072 1_555
O43 Sn9 1.966796 1_555
O44 S12 1.443298 1_555
O45 S13 1.476782 1_555
O45 Sn9 2.120536 1_555
O46 S9 1.442941 1_555
O47 S10 1.465705 1_555
O47 Sn9 2.230763 1_555
O48 S19 1.477520 1_555
O48 Sn10 2.145914 1_556
O49 S20 1.485382 1_555
O49 Sn11 2.206124 1_556
O50 S21 1.476824 1_555
O50 Sn10 2.222820 1_556
O51 Si5 1.644033 1_555
O51 Sn11 1.921746 1_556
O52 Si6 1.632485 1_555
O52 Sn10 1.944450 1_556
O53 S22 1.494224 1_555
O53 Sn11 2.119164 1_556
O54 S23 1.507950 1_555
O54 Sn12 2.132723 1_555
O55 S24 1.493072 1_555
O55 Sn13 2.090980 1_555
O56 S25 1.524842 1_555
O56 Sn12 2.054006 1_555
O57 Si7 1.649761 1_555
O57 Sn13 1.943843 1_555
O58 Si8 1.660752 1_555
O58 Sn12 1.913850 1_555
O59 S26 1.496307 1_555
O59 Sn13 2.151549 1_555
O60 Si8 1.649636 1_555
O60 Sn14 1.954227 1_555
O61 S26 1.477261 1_555
O61 Sn15 2.136114 1_555
O62 S23 1.476723 1_555
O62 Sn14 2.148103 1_555
O63 S24 1.482793 1_555
O63 Sn15 2.153206 1_555
O64 S25 1.489035 1_555
O64 Sn14 2.178075 1_555
O65 Si7 1.639356 1_555
O65 Sn15 1.935712 1_555
O66 S21 1.486815 1_555
O66 Sn16 2.109721 1_555
O67 Si5 1.680673 1_555
O67 Sn17 1.934824 1_555
O68 Si6 1.653539 1_555
O68 Sn16 1.931572 1_555
O69 S22 1.510007 1_555
O69 Sn17 2.079063 1_555
O70 S19 1.494541 1_555
O70 Sn16 2.125629 1_555
O71 S20 1.506119 1_555
O71 Sn17 2.096773 1_555
O72 Si8 1.589153 1_555
O73 S26 1.481751 1_555
O73 Sn0 2.155095 1_565
O74 S23 1.483059 1_555
O74 Sn0 2.159156 1_565
O75 S24 1.449420 1_555
O76 S25 1.451577 1_555
O77 Si7 1.628260 1_555
O77 Sn0 1.963579 1_555
O78 S21 1.489850 1_555
O78 Sn1 2.117698 1_555
O79 Si5 1.593641 1_555
O80 Si6 1.636166 1_555
O80 Sn1 1.947945 1_565
O81 S22 1.454822 1_555
O82 S19 1.455697 1_555
O83 S20 1.485615 1_555
O83 Sn1 2.152767 1_665
O84 S9 1.495117 1_555
O84 Sn2 2.075483 1_555
O85 S10 1.457484 1_555
O86 S11 1.454089 1_555
O87 Si3 1.651774 1_555
O87 Sn2 1.931638 1_555
O88 S12 1.491774 1_555
O88 Sn2 2.101005 1_565
O89 S13 1.455615 1_555
O90 S14 1.457509 1_555
O91 S15 1.479862 1_555
O91 Sn3 2.123947 1_665
O92 S16 1.457629 1_555
O93 S17 1.473831 1_555
O93 Sn3 2.220540 1_655
O94 Si4 1.637631 1_555
O94 Sn3 1.957187 1_555
O95 S18 1.454943 1_555
O96 S7 1.503456 1_555
O96 Sn4 2.126104 1_555
O97 S8 1.525098 1_545
O97 Sn5 2.263633 1_555
O98 Si2 1.697232 1_555
O98 Sn4 1.966588 1_555
O99 S4 1.509203 1_555
O99 Sn5 2.154946 1_555
O100 S6 1.495159 1_555
O100 Sn4 2.182630 1_555
O101 S5 1.547640 1_555
O101 Sn5 2.186533 1_555
O102 S0 1.513718 1_555
O102 Sn6 2.217634 1_555
O103 S1 1.513268 1_555
O103 Sn7 2.100399 1_555
O104 S3 1.504245 1_555
O104 Sn6 2.246966 1_555
O105 S2 1.511326 1_555
O105 Sn7 2.119034 1_555
O106 Si0 1.668092 1_555
O106 Sn6 1.943148 1_555
O107 Si1 1.692053 1_545
O107 Sn7 1.961895 1_555
O108 S19 1.483780 1_555
O108 Sn8 2.172586 1_555
O109 S20 1.462689 1_555
O110 Si5 1.645398 1_555
O110 Sn8 2.000471 1_555
O111 S21 1.465528 1_655
O112 Si6 1.632037 1_545
O112 Sn8 2.009259 1_555
O113 S22 1.464505 1_545
O114 S23 1.463491 1_545
O115 S24 1.487933 1_545
O115 Sn9 2.134210 1_555
O116 S25 1.469601 1_555
O117 Si7 1.635323 1_555
O117 Sn9 1.984225 1_555
O118 S26 1.463034 1_555
O119 Si8 1.658349 1_655
O119 Sn9 1.970525 1_555
O120 Si4 1.640897 1_555
O120 Sn10 1.922801 1_555
O121 S18 1.510211 1_555
O121 Sn11 2.072499 1_555
O122 S15 1.486170 1_455
O122 Sn10 2.137686 1_555
O123 S14 1.507322 1_555
O123 Sn11 2.090823 1_555
O124 S16 1.485032 1_565
O124 Sn10 2.115162 1_555
O125 S17 1.517533 1_565
O125 Sn11 2.082559 1_555
O126 S11 1.500202 1_565
O126 Sn12 2.116191 1_555
O127 Si3 1.634303 1_565
O127 Sn13 1.954761 1_555
O128 S12 1.495367 1_555
O128 Sn12 2.151289 1_555
O129 S13 1.478373 1_555
O129 Sn13 2.184337 1_555
O130 S10 1.490109 1_455
O130 Sn12 2.153311 1_555
O131 S9 1.477124 1_555
O131 Sn13 2.197716 1_555
O132 Si0 1.644396 1_565
O132 Sn14 1.936691 1_555
O133 Si1 1.636306 1_555
O133 Sn15 1.912949 1_555
O134 S0 1.483565 1_555
O134 Sn14 2.140799 1_555
O135 S1 1.484954 1_555
O135 Sn15 2.155525 1_555
O136 S2 1.487775 1_455
O136 Sn14 2.134580 1_555
O137 S3 1.480819 1_555
O137 Sn15 2.111702 1_555
O138 Si2 1.638827 1_555
O138 Sn16 1.915168 1_555
O139 S4 1.495491 1_555
O139 Sn17 2.162257 1_555
O140 S5 1.474135 1_455
O140 Sn16 2.166353 1_555
O141 S6 1.502570 1_555
O141 Sn17 2.139669 1_555
O142 S7 1.474943 1_565
O142 Sn16 2.215236 1_555
O143 S8 1.511071 1_555
O143 Sn17 2.093422 1_555
