# generated using pymatgen
data_Y2MgTi2S2O5
_symmetry_space_group_name_H-M   'P 1'
_cell_length_a   11.57021658
_cell_length_b   11.57021547
_cell_length_c   11.57021643
_cell_angle_alpha   160.56273571
_cell_angle_beta   160.54163844
_cell_angle_gamma   27.63872236
_symmetry_Int_Tables_number   1
_chemical_formula_structural   Y2MgTi2S2O5
_chemical_formula_sum   'Y2 Mg1 Ti2 S2 O5'
_cell_volume   171.62877956
_cell_formula_units_Z   1
loop_
 _symmetry_equiv_pos_site_id
 _symmetry_equiv_pos_as_xyz
  1  'x, y, z'
loop_
 _atom_site_type_symbol
 _atom_site_label
 _atom_site_symmetry_multiplicity
 _atom_site_fract_x
 _atom_site_fract_y
 _atom_site_fract_z
 _atom_site_occupancy
  Y  Y0  1  0.33330000  0.33330000  0.00000000  1
  Y  Y1  1  0.66670000  0.66670000  0.00000000  1
  Mg  Mg0  1  0.50000000  0.50000000  0.00000000  1
  Ti  Ti0  1  0.08605400  0.08605400  0.00000000  1
  Ti  Ti1  1  0.91394600  0.91394600  0.00000000  1
  S  S0  1  0.20517900  0.20517900  0.00000000  1
  S  S1  1  0.79482100  0.79482100  0.00000000  1
  O  O0  1  0.00000000  0.00000000  0.00000000  1
  O  O1  1  0.59768400  0.09768400  0.50000000  1
  O  O2  1  0.90205200  0.40205200  0.50000000  1
  O  O3  1  0.09794800  0.59794800  0.50000000  1
  O  O4  1  0.40231600  0.90231600  0.50000000  1
loop_
_geom_bond_atom_site_label_1
_geom_bond_atom_site_label_2
_geom_bond_distance
_geom_bond_site_symmetry_2
Mg0 O0 2.763680 1_655
Mg0 O0 2.763680 1_565
Mg0 O0 2.763681 1_666
Mg0 O0 2.763681 1_554
S0 Ti0 2.676810 1_555
S0 Y0 2.878956 1_555
S0 Y1 2.895780 1_545
S0 Y1 2.895780 1_455
S0 Y1 2.895780 1_444
S0 Y1 2.895781 1_556
S1 Ti1 2.676810 1_555
S1 Y1 2.878956 1_555
S1 Y0 2.895780 1_565
S1 Y0 2.895780 1_655
S1 Y0 2.895780 1_666
S1 Y0 2.895781 1_554
O0 Ti0 1.933685 1_555
O0 Ti1 1.933685 1_445
O1 Ti0 1.972654 1_656
O1 Ti0 1.972654 1_555
O1 Y1 2.493980 1_556
O1 Y1 2.493981 1_545
O2 Ti1 1.971368 1_556
O2 Ti1 1.971368 1_545
O2 Y0 2.491943 1_656
O2 Y0 2.491943 1_555
O3 Ti0 1.971368 1_555
O3 Ti0 1.971368 1_566
O3 Y1 2.491943 1_455
O3 Y1 2.491943 1_556
O4 Ti1 1.972654 1_455
O4 Ti1 1.972654 1_556
O4 Y0 2.493980 1_555
O4 Y0 2.493981 1_566
