# generated using pymatgen
data_NaLaTa(PO4)3
_symmetry_space_group_name_H-M   'P 1'
_cell_length_a   9.19008375
_cell_length_b   9.19008343
_cell_length_c   23.20729010
_cell_angle_alpha   90.00000000
_cell_angle_beta   90.00000000
_cell_angle_gamma   120.00000118
_symmetry_Int_Tables_number   1
_chemical_formula_structural   NaLaTa(PO4)3
_chemical_formula_sum   'Na6 La6 Ta6 P18 O72'
_cell_volume   1697.43823682
_cell_formula_units_Z   6
loop_
 _symmetry_equiv_pos_site_id
 _symmetry_equiv_pos_as_xyz
  1  'x, y, z'
loop_
 _atom_site_type_symbol
 _atom_site_label
 _atom_site_symmetry_multiplicity
 _atom_site_fract_x
 _atom_site_fract_y
 _atom_site_fract_z
 _atom_site_occupancy
  Na  Na0  1  0.00000000  0.00000000  0.50428769  1
  Na  Na1  1  0.00000000  0.00000000  0.00428769  1
  Na  Na2  1  0.66666700  0.33333300  0.83762069  1
  Na  Na3  1  0.66666700  0.33333300  0.33762069  1
  Na  Na4  1  0.33333300  0.66666700  0.17095469  1
  Na  Na5  1  0.33333300  0.66666700  0.67095469  1
  La  La0  1  0.00000000  0.00000000  0.35799471  1
  La  La1  1  0.00000000  0.00000000  0.85799471  1
  La  La2  1  0.66666700  0.33333300  0.69132771  1
  La  La3  1  0.66666700  0.33333300  0.19132771  1
  La  La4  1  0.33333300  0.66666700  0.02466171  1
  La  La5  1  0.33333300  0.66666700  0.52466171  1
  Ta  Ta0  1  0.00000000  0.00000000  0.64816891  1
  Ta  Ta1  1  0.00000000  0.00000000  0.14816891  1
  Ta  Ta2  1  0.66666700  0.33333300  0.98150191  1
  Ta  Ta3  1  0.66666700  0.33333300  0.48150191  1
  Ta  Ta4  1  0.33333300  0.66666700  0.31483591  1
  Ta  Ta5  1  0.33333300  0.66666700  0.81483591  1
  P  P0  1  0.27432332  0.96568284  0.24967114  1
  P  P1  1  0.69135952  0.72567668  0.24967114  1
  P  P2  1  0.03431716  0.30864048  0.24967114  1
  P  P3  1  0.27432332  0.30864048  0.74967114  1
  P  P4  1  0.03431716  0.72567668  0.74967114  1
  P  P5  1  0.69135952  0.96568284  0.74967114  1
  P  P6  1  0.94099032  0.29901584  0.58300414  1
  P  P7  1  0.35802652  0.05900968  0.58300414  1
  P  P8  1  0.70098416  0.64197348  0.58300414  1
  P  P9  1  0.94099032  0.64197348  0.08300414  1
  P  P10  1  0.70098416  0.05900968  0.08300414  1
  P  P11  1  0.35802652  0.29901584  0.08300414  1
  P  P12  1  0.60765632  0.63234984  0.91633814  1
  P  P13  1  0.02469252  0.39234368  0.91633814  1
  P  P14  1  0.36765016  0.97530748  0.91633814  1
  P  P15  1  0.60765632  0.97530748  0.41633814  1
  P  P16  1  0.36765016  0.39234368  0.41633814  1
  P  P17  1  0.02469252  0.63234984  0.41633814  1
  O  O0  1  0.20464505  0.99377585  0.30430483  1
  O  O1  1  0.78913080  0.79535495  0.30430483  1
  O  O2  1  0.00622415  0.21086920  0.30430483  1
  O  O3  1  0.20464505  0.21086920  0.80430483  1
  O  O4  1  0.00622415  0.79535495  0.80430483  1
  O  O5  1  0.78913080  0.99377585  0.80430483  1
  O  O6  1  0.79906705  0.95571345  0.69606845  1
  O  O7  1  0.15664640  0.20093295  0.69606845  1
  O  O8  1  0.04428655  0.84335360  0.69606845  1
  O  O9  1  0.79906705  0.84335360  0.19606845  1
  O  O10  1  0.04428655  0.20093295  0.19606845  1
  O  O11  1  0.15664640  0.95571345  0.19606845  1
  O  O12  1  0.87131205  0.32710885  0.63763783  1
  O  O13  1  0.45579780  0.12868795  0.63763783  1
  O  O14  1  0.67289115  0.54420220  0.63763783  1
  O  O15  1  0.87131205  0.54420220  0.13763783  1
  O  O16  1  0.67289115  0.12868795  0.13763783  1
  O  O17  1  0.45579780  0.32710885  0.13763783  1
  O  O18  1  0.46573405  0.28904645  0.02940145  1
  O  O19  1  0.82331340  0.53426595  0.02940145  1
  O  O20  1  0.71095355  0.17668660  0.02940145  1
  O  O21  1  0.46573405  0.17668660  0.52940145  1
  O  O22  1  0.71095355  0.53426595  0.52940145  1
  O  O23  1  0.82331340  0.28904645  0.52940145  1
  O  O24  1  0.53797805  0.66044285  0.97097183  1
  O  O25  1  0.12246380  0.46202195  0.97097183  1
  O  O26  1  0.33955715  0.87753620  0.97097183  1
  O  O27  1  0.53797805  0.87753620  0.47097183  1
  O  O28  1  0.33955715  0.46202195  0.47097183  1
  O  O29  1  0.12246380  0.66044285  0.47097183  1
  O  O30  1  0.13240005  0.62238045  0.36273545  1
  O  O31  1  0.48997940  0.86759995  0.36273545  1
  O  O32  1  0.37761955  0.51002060  0.36273545  1
  O  O33  1  0.13240005  0.51002060  0.86273545  1
  O  O34  1  0.37761955  0.86759995  0.86273545  1
  O  O35  1  0.48997940  0.62238045  0.86273545  1
  O  O36  1  0.97773834  0.76755856  0.40824882  1
  O  O37  1  0.78982022  0.02226166  0.40824882  1
  O  O38  1  0.23244144  0.21017978  0.40824882  1
  O  O39  1  0.97773834  0.21017978  0.90824882  1
  O  O40  1  0.23244144  0.02226166  0.90824882  1
  O  O41  1  0.78982022  0.76755856  0.90824882  1
  O  O42  1  0.93549196  0.12418015  0.58822298  1
  O  O43  1  0.18868819  0.06450804  0.58822298  1
  O  O44  1  0.87581985  0.81131181  0.58822298  1
  O  O45  1  0.93549196  0.81131181  0.08822298  1
  O  O46  1  0.87581985  0.06450804  0.08822298  1
  O  O47  1  0.18868819  0.12418015  0.08822298  1
  O  O48  1  0.64440534  0.10089156  0.74158182  1
  O  O49  1  0.45648722  0.35559466  0.74158182  1
  O  O50  1  0.89910844  0.54351278  0.74158182  1
  O  O51  1  0.64440534  0.54351278  0.24158182  1
  O  O52  1  0.89910844  0.35559466  0.24158182  1
  O  O53  1  0.45648722  0.10089156  0.24158182  1
  O  O54  1  0.60215896  0.45751315  0.92155598  1
  O  O55  1  0.85535519  0.39784104  0.92155598  1
  O  O56  1  0.54248685  0.14464481  0.92155598  1
  O  O57  1  0.60215896  0.14464481  0.42155598  1
  O  O58  1  0.54248685  0.39784104  0.42155598  1
  O  O59  1  0.85535519  0.45751315  0.42155598  1
  O  O60  1  0.31107134  0.43422556  0.07491582  1
  O  O61  1  0.12315322  0.68892866  0.07491582  1
  O  O62  1  0.56577444  0.87684678  0.07491582  1
  O  O63  1  0.31107134  0.87684678  0.57491582  1
  O  O64  1  0.56577444  0.68892866  0.57491582  1
  O  O65  1  0.12315322  0.43422556  0.57491582  1
  O  O66  1  0.26882496  0.79084715  0.25488998  1
  O  O67  1  0.52202119  0.73117504  0.25488998  1
  O  O68  1  0.20915285  0.47797881  0.25488998  1
  O  O69  1  0.26882496  0.47797881  0.75488998  1
  O  O70  1  0.20915285  0.73117504  0.75488998  1
  O  O71  1  0.52202119  0.79084715  0.75488998  1
loop_
_geom_bond_atom_site_label_1
_geom_bond_atom_site_label_2
_geom_bond_distance
_geom_bond_site_symmetry_2
Na0 O44 2.474826 1_445
Na0 O42 2.474826 1_455
Na0 O43 2.474826 1_555
Na1 O45 2.474826 1_445
Na1 O47 2.474826 1_555
Na1 O46 2.474826 1_455
Na2 O56 2.474826 1_555
Na2 O54 2.474826 1_555
Na2 O55 2.474826 1_555
Na3 O57 2.474826 1_555
Na3 O59 2.474826 1_555
Na3 O58 2.474826 1_555
Na4 O68 2.474826 1_555
Na4 O66 2.474826 1_555
Na4 O67 2.474826 1_555
Na5 O69 2.474826 1_555
Na5 O71 2.474826 1_555
Na5 O70 2.474826 1_555
La0 O2 2.280440 1_555
La0 O1 2.280440 1_445
La0 O0 2.280440 1_545
La0 O36 2.351203 1_445
La0 O38 2.351203 1_555
La0 O37 2.351203 1_455
La1 O3 2.280440 1_555
La1 O4 2.280440 1_545
La1 O5 2.280440 1_445
La1 O41 2.351203 1_445
La1 O39 2.351203 1_455
La1 O40 2.351203 1_555
La2 O14 2.280440 1_555
La2 O13 2.280440 1_555
La2 O12 2.280440 1_555
La2 O48 2.351203 1_555
La2 O50 2.351203 1_555
La2 O49 2.351203 1_555
La3 O15 2.280440 1_555
La3 O16 2.280440 1_555
La3 O17 2.280440 1_555
La3 O53 2.351203 1_555
La3 O51 2.351203 1_555
La3 O52 2.351203 1_555
La4 O26 2.280440 1_554
La4 O25 2.280440 1_554
La4 O24 2.280440 1_554
La4 O60 2.351203 1_555
La4 O62 2.351203 1_555
La4 O61 2.351203 1_555
La5 O27 2.280440 1_555
La5 O28 2.280440 1_555
La5 O29 2.280440 1_555
La5 O65 2.351203 1_555
La5 O63 2.351203 1_555
La5 O64 2.351203 1_555
O0 P0 1.499865 1_555
O1 P1 1.499865 1_555
O2 P2 1.499865 1_555
O3 P3 1.499865 1_555
O4 P4 1.499865 1_555
O5 P5 1.499865 1_555
O6 P5 1.620598 1_555
O6 Ta0 2.014865 1_665
O7 P3 1.620598 1_555
O7 Ta0 2.014865 1_555
O8 P4 1.620598 1_555
O8 Ta0 2.014865 1_565
O9 P1 1.620598 1_555
O9 Ta1 2.014865 1_665
O10 P2 1.620598 1_555
O10 Ta1 2.014865 1_555
O11 P0 1.620598 1_555
O11 Ta1 2.014865 1_565
O12 P6 1.499865 1_555
O13 P7 1.499865 1_555
O14 P8 1.499865 1_555
O15 P9 1.499865 1_555
O16 P10 1.499865 1_555
O17 P11 1.499865 1_555
O18 P11 1.620598 1_555
O18 Ta2 2.014865 1_554
O19 P9 1.620598 1_555
O19 Ta2 2.014865 1_554
O20 P10 1.620598 1_555
O20 Ta2 2.014865 1_554
O21 P7 1.620598 1_555
O21 Ta3 2.014865 1_555
O22 P8 1.620598 1_555
O22 Ta3 2.014865 1_555
O23 P6 1.620598 1_555
O23 Ta3 2.014865 1_555
O24 P12 1.499865 1_555
O25 P13 1.499865 1_555
O26 P14 1.499865 1_555
O27 P15 1.499865 1_555
O28 P16 1.499865 1_555
O29 P17 1.499865 1_555
O30 P17 1.620598 1_555
O30 Ta4 2.014865 1_555
O31 P15 1.620598 1_555
O31 Ta4 2.014865 1_555
O32 P16 1.620598 1_555
O32 Ta4 2.014865 1_555
O33 P13 1.620598 1_555
O33 Ta5 2.014865 1_555
O34 P14 1.620598 1_555
O34 Ta5 2.014865 1_555
O35 P12 1.620598 1_555
O35 Ta5 2.014865 1_555
O36 P17 1.517115 1_655
O37 P15 1.517124 1_545
O38 P16 1.517122 1_555
O39 P13 1.517124 1_655
O40 P14 1.517115 1_545
O41 P12 1.517122 1_555
O42 P6 1.586724 1_555
O42 Ta0 2.065380 1_655
O43 P7 1.586733 1_555
O43 Ta0 2.065380 1_555
O44 P8 1.586728 1_555
O44 Ta0 2.065380 1_665
O45 P9 1.586733 1_555
O45 Ta1 2.065380 1_665
O46 P10 1.586724 1_555
O46 Ta1 2.065380 1_655
O47 P11 1.586728 1_555
O47 Ta1 2.065380 1_555
O48 P5 1.517115 1_545
O49 P3 1.517124 1_555
O50 P4 1.517122 1_655
O51 P1 1.517124 1_555
O52 P2 1.517115 1_655
O53 P0 1.517122 1_545
O54 P12 1.586736 1_555
O54 Ta2 2.065380 1_555
O55 P13 1.586717 1_655
O55 Ta2 2.065380 1_555
O56 P14 1.586727 1_545
O56 Ta2 2.065380 1_555
O57 P15 1.586717 1_545
O57 Ta3 2.065380 1_555
O58 P16 1.586736 1_555
O58 Ta3 2.065380 1_555
O59 P17 1.586727 1_655
O59 Ta3 2.065380 1_555
O60 P11 1.517128 1_555
O61 P9 1.517110 1_455
O62 P10 1.517115 1_565
O63 P7 1.517110 1_565
O64 P8 1.517128 1_555
O65 P6 1.517115 1_455
O66 P0 1.586724 1_555
O66 Ta4 2.065380 1_555
O67 P1 1.586733 1_555
O67 Ta4 2.065380 1_555
O68 P2 1.586728 1_555
O68 Ta4 2.065380 1_555
O69 P3 1.586733 1_555
O69 Ta5 2.065380 1_555
O70 P4 1.586724 1_555
O70 Ta5 2.065380 1_555
O71 P5 1.586728 1_555
O71 Ta5 2.065380 1_555
