# generated using pymatgen
data_NpSnIr
_symmetry_space_group_name_H-M   'P 1'
_cell_length_a   7.39209868
_cell_length_b   7.39227929
_cell_length_c   4.09082751
_cell_angle_alpha   90.00000000
_cell_angle_beta   90.00000000
_cell_angle_gamma   119.99919181
_symmetry_Int_Tables_number   1
_chemical_formula_structural   NpSnIr
_chemical_formula_sum   'Np3 Sn3 Ir3'
_cell_volume   193.59380630
_cell_formula_units_Z   3
loop_
 _symmetry_equiv_pos_site_id
 _symmetry_equiv_pos_as_xyz
  1  'x, y, z'
loop_
 _atom_site_type_symbol
 _atom_site_label
 _atom_site_symmetry_multiplicity
 _atom_site_fract_x
 _atom_site_fract_y
 _atom_site_fract_z
 _atom_site_occupancy
  Np  Np0  1  -0.00002895  0.58302497  0.50000000  1
  Np  Np1  1  0.58305280  0.00000000  0.50000000  1
  Np  Np2  1  0.41694609  0.41697503  0.50000000  1
  Sn  Sn0  1  -0.00001444  0.25201800  -0.00000000  1
  Sn  Sn1  1  0.74796756  0.74798200  0.00000000  1
  Sn  Sn2  1  0.25206053  0.00000000  -0.00000000  1
  Ir  Ir0  1  0.33335418  0.66668703  -0.00000000  1
  Ir  Ir1  1  -0.00000593  0.00000000  0.50000000  1
  Ir  Ir2  1  0.66666715  0.33331297  -0.00000000  1
loop_
_geom_bond_atom_site_label_1
_geom_bond_atom_site_label_2
_geom_bond_distance
_geom_bond_site_symmetry_2
Np0 Sn0 3.189244 1_555
Np0 Sn0 3.189244 1_556
Np0 Sn1 3.378214 1_455
Np0 Sn1 3.378214 1_456
Np0 Sn2 3.378401 1_565
Np0 Sn2 3.378401 1_566
Np1 Sn2 3.189074 1_556
Np1 Sn2 3.189074 1_555
Np1 Sn0 3.378108 1_656
Np1 Sn0 3.378108 1_655
Np1 Sn1 3.378108 1_546
Np1 Sn1 3.378108 1_545
Np2 Sn1 3.189244 1_555
Np2 Sn1 3.189244 1_556
Np2 Sn0 3.378214 1_555
Np2 Sn0 3.378214 1_556
Np2 Sn2 3.378401 1_555
Np2 Sn2 3.378401 1_556
Sn0 Sn1 3.226815 1_445
Sn0 Sn2 3.227101 1_555
Sn1 Sn2 3.227101 1_665
Ir0 Sn1 2.812958 1_555
Ir0 Sn2 2.812962 1_565
Ir0 Sn0 2.813427 1_555
Ir0 Np2 3.018883 1_555
Ir0 Np2 3.018883 1_554
Ir0 Np1 3.018919 1_565
Ir0 Np1 3.018919 1_564
Ir0 Np0 3.019171 1_554
Ir0 Np0 3.019171 1_555
Ir1 Sn0 2.766687 1_555
Ir1 Sn0 2.766687 1_556
Ir1 Sn1 2.766687 1_446
Ir1 Sn1 2.766687 1_445
Ir1 Sn2 2.766876 1_555
Ir1 Sn2 2.766876 1_556
Ir1 Np1 3.082071 1_455
Ir1 Np0 3.082311 1_545
Ir1 Np2 3.082311 1_555
Ir2 Sn0 2.812958 1_655
Ir2 Sn2 2.812962 1_555
Ir2 Sn1 2.813427 1_555
Ir2 Np0 3.018883 1_654
Ir2 Np0 3.018883 1_655
Ir2 Np1 3.018919 1_555
Ir2 Np1 3.018919 1_554
Ir2 Np2 3.019171 1_555
Ir2 Np2 3.019171 1_554
