# generated using pymatgen
data_K4MgNb2(AgS4)2
_symmetry_space_group_name_H-M   'P 1'
_cell_length_a   5.93691384
_cell_length_b   7.40431396
_cell_length_c   12.84268654
_cell_angle_alpha   86.50509596
_cell_angle_beta   81.22329722
_cell_angle_gamma   66.33191251
_symmetry_Int_Tables_number   1
_chemical_formula_structural   K4MgNb2(AgS4)2
_chemical_formula_sum   'K4 Mg1 Nb2 Ag2 S8'
_cell_volume   511.00791938
_cell_formula_units_Z   1
loop_
 _symmetry_equiv_pos_site_id
 _symmetry_equiv_pos_as_xyz
  1  'x, y, z'
loop_
 _atom_site_type_symbol
 _atom_site_label
 _atom_site_symmetry_multiplicity
 _atom_site_fract_x
 _atom_site_fract_y
 _atom_site_fract_z
 _atom_site_occupancy
  K  K0  1  0.33199160  0.28206633  0.55744075  1
  K  K1  1  0.80373563  0.74759348  0.39044925  1
  K  K2  1  0.38607865  0.28164533  0.94245073  1
  K  K3  1  0.44913505  0.74644516  0.10923022  1
  Mg  Mg0  1  0.89769385  0.20500709  0.74968398  1
  Nb  Nb0  1  0.36368757  0.27277507  0.24994534  1
  Nb  Nb1  1  0.62394835  0.75068152  0.75006361  1
  Ag  Ag0  1  0.87423723  0.25167932  0.25011616  1
  Ag  Ag1  1  0.15428595  0.69006031  0.75030558  1
  S  S0  1  0.89618983  0.49814108  0.84911474  1
  S  S1  1  0.80216881  0.94629183  0.64832497  1
  S  S2  1  0.60505363  0.49817828  0.65078162  1
  S  S3  1  0.25031284  0.94616091  0.85214166  1
  S  S4  1  0.06644231  0.48317082  0.15077826  1
  S  S5  1  0.70753531  0.06989499  0.13834125  1
  S  S6  1  0.44987292  0.48328266  0.34921543  1
  S  S7  1  0.22304747  0.07013981  0.36161645  1
loop_
_geom_bond_atom_site_label_1
_geom_bond_atom_site_label_2
_geom_bond_distance
_geom_bond_site_symmetry_2
K0 S2 3.087923 1_555
K0 S6 3.104991 1_555
K0 S1 3.225515 1_545
K0 S7 3.316292 1_555
K1 S7 3.375995 1_565
K1 S6 3.505831 1_555
K1 S6 3.507818 1_655
K1 S4 3.543734 1_655
K1 S1 3.702212 1_555
K2 S0 3.090610 1_455
K2 S4 3.106409 1_556
K2 S3 3.226347 1_545
K2 S5 3.318341 1_556
K3 S5 3.385690 1_565
K3 S4 3.500038 1_655
K3 S4 3.507982 1_555
K3 S6 3.544144 1_555
K3 S3 3.697832 1_554
Mg0 S2 2.579385 1_555
Mg0 S0 2.580785 1_555
Mg0 S1 2.662181 1_545
Mg0 S3 2.664411 1_645
Nb0 S7 2.320160 1_555
Nb0 S5 2.320719 1_555
Nb0 S6 2.323416 1_555
Nb0 S4 2.323753 1_555
Nb1 S3 2.345269 1_555
Nb1 S1 2.345688 1_555
Nb1 S2 2.374122 1_555
Nb1 S0 2.374439 1_555
Ag0 S7 2.565378 1_655
Ag0 S5 2.567188 1_555
Ag0 S6 2.593602 1_555
Ag0 S4 2.593665 1_655
Ag1 S0 2.629169 1_455
Ag1 S2 2.634195 1_555
Ag1 S3 2.651245 1_555
Ag1 S1 2.652017 1_455
