# generated using pymatgen
data_Na4Mg(Mo2O5)2
_symmetry_space_group_name_H-M   'P 1'
_cell_length_a   5.86096610
_cell_length_b   5.92248149
_cell_length_c   8.48303551
_cell_angle_alpha   110.33720611
_cell_angle_beta   110.18586390
_cell_angle_gamma   90.45800152
_symmetry_Int_Tables_number   1
_chemical_formula_structural   Na4Mg(Mo2O5)2
_chemical_formula_sum   'Na4 Mg1 Mo4 O10'
_cell_volume   256.39220013
_cell_formula_units_Z   1
loop_
 _symmetry_equiv_pos_site_id
 _symmetry_equiv_pos_as_xyz
  1  'x, y, z'
loop_
 _atom_site_type_symbol
 _atom_site_label
 _atom_site_symmetry_multiplicity
 _atom_site_fract_x
 _atom_site_fract_y
 _atom_site_fract_z
 _atom_site_occupancy
  Na  Na0  1  0.39162396  0.93357211  0.82946894  1
  Na  Na1  1  0.62920821  0.05796081  0.20043516  1
  Na  Na2  1  0.92617723  0.35881901  0.79970339  1
  Na  Na3  1  0.06024977  0.60090345  0.17008368  1
  Mg  Mg0  1  0.40571046  0.04631921  0.49799407  1
  Mo  Mo0  1  0.00185785  0.99534475  0.00685825  1
  Mo  Mo1  1  0.49323123  0.48800657  0.99182648  1
  Mo  Mo2  1  0.75486905  0.61356508  0.49915938  1
  Mo  Mo3  1  0.19707422  0.43458619  0.49939712  1
  O  O0  1  0.74925163  0.23092426  0.98692673  1
  O  O1  1  0.73450814  0.73179453  0.96227543  1
  O  O2  1  0.26023748  0.25758866  0.03992054  1
  O  O3  1  0.25184977  0.75825773  0.01751591  1
  O  O4  1  0.90391852  0.87187074  0.71549789  1
  O  O5  1  0.10591006  0.10891868  0.30349991  1
  O  O6  1  0.30192474  0.30389391  0.69409390  1
  O  O7  1  0.68657926  0.65751044  0.28485006  1
  O  O8  1  0.34922491  0.72785930  0.50012431  1
  O  O9  1  0.62765051  0.30667858  0.50037185  1
loop_
_geom_bond_atom_site_label_1
_geom_bond_atom_site_label_2
_geom_bond_distance
_geom_bond_site_symmetry_2
Na0 O0 2.377528 1_565
Na0 O2 2.460434 1_566
Na0 O1 2.479444 1_555
Na0 O3 2.516627 1_556
Na0 O8 2.549842 1_555
Na0 O4 2.658826 1_455
Na0 O6 2.785301 1_565
Na1 O9 2.460656 1_555
Na1 O3 2.470677 1_545
Na1 O1 2.522090 1_544
Na1 O5 2.603621 1_655
Na1 O0 2.642412 1_554
Na1 O2 2.656338 1_555
Na1 O7 2.697720 1_545
Na2 O9 2.446344 1_555
Na2 O0 2.476225 1_555
Na2 O2 2.541627 1_656
Na2 O6 2.632262 1_655
Na2 O1 2.652293 1_555
Na2 O3 2.666330 1_656
Na2 O4 2.709639 1_545
Na3 O3 2.372604 1_555
Na3 O1 2.450369 1_454
Na3 O2 2.469420 1_555
Na3 O0 2.480529 1_454
Na3 O8 2.552713 1_555
Na3 O7 2.667019 1_455
Na3 O5 2.795723 1_565
Mg0 O8 1.919645 1_545
Mg0 O9 1.999583 1_555
Mg0 O5 2.093309 1_555
Mg0 O6 2.100875 1_555
Mo0 O2 2.037315 1_565
Mo0 O3 2.038700 1_555
Mo0 O1 2.043578 1_454
Mo0 O0 2.047286 1_464
Mo0 O4 2.175086 1_454
Mo0 O5 2.216876 1_565
Mo1 O0 2.146414 1_555
Mo1 O1 2.147277 1_555
Mo1 O3 2.148780 1_556
Mo1 O2 2.152947 1_556
Mo1 O7 2.184969 1_556
Mo1 O6 2.221934 1_555
Mo2 O7 1.833417 1_555
Mo2 O4 1.841788 1_555
Mo2 O9 1.963694 1_555
Mo2 O8 2.479097 1_555
Mo3 O8 1.943216 1_555
Mo3 O6 1.974928 1_555
Mo3 O5 1.977377 1_555
