# generated using pymatgen
data_Li6Ge2O7
_symmetry_space_group_name_H-M   'P 1'
_cell_length_a   5.37117800
_cell_length_b   8.18242100
_cell_length_c   16.18476541
_cell_angle_alpha   62.67424327
_cell_angle_beta   90.00000000
_cell_angle_gamma   90.00000000
_symmetry_Int_Tables_number   1
_chemical_formula_structural   Li6Ge2O7
_chemical_formula_sum   'Li24 Ge8 O28'
_cell_volume   631.93394316
_cell_formula_units_Z   4
loop_
 _symmetry_equiv_pos_site_id
 _symmetry_equiv_pos_as_xyz
  1  'x, y, z'
loop_
 _atom_site_type_symbol
 _atom_site_label
 _atom_site_symmetry_multiplicity
 _atom_site_fract_x
 _atom_site_fract_y
 _atom_site_fract_z
 _atom_site_occupancy
  Li  Li0  1  0.28111600  0.39953700  0.80505800  1
  Li  Li1  1  0.78111600  0.60046300  0.69494200  1
  Li  Li2  1  0.71888400  0.60046300  0.19494200  1
  Li  Li3  1  0.21888400  0.39953700  0.30505800  1
  Li  Li4  1  0.12980200  0.65365200  0.88428300  1
  Li  Li5  1  0.62980200  0.34634800  0.61571700  1
  Li  Li6  1  0.87019800  0.34634800  0.11571700  1
  Li  Li7  1  0.37019800  0.65365200  0.38428300  1
  Li  Li8  1  0.16814900  0.12682600  0.24339100  1
  Li  Li9  1  0.66814900  0.87317400  0.25660900  1
  Li  Li10  1  0.85302000  0.73919400  0.98443900  1
  Li  Li11  1  0.35302000  0.26080600  0.51556100  1
  Li  Li12  1  0.14698000  0.26080600  0.01556100  1
  Li  Li13  1  0.64698000  0.73919400  0.48443900  1
  Li  Li14  1  0.30585200  0.99135300  0.95705100  1
  Li  Li15  1  0.80585200  0.00864700  0.54294900  1
  Li  Li16  1  0.69414800  0.00864700  0.04294900  1
  Li  Li17  1  0.19414800  0.99135300  0.45705100  1
  Li  Li18  1  0.48674800  0.82145700  0.87900700  1
  Li  Li19  1  0.98674800  0.17854300  0.62099300  1
  Li  Li20  1  0.51325200  0.17854300  0.12099300  1
  Li  Li21  1  0.01325200  0.82145700  0.37900700  1
  Li  Li22  1  0.83185100  0.87317400  0.75660900  1
  Li  Li23  1  0.33185100  0.12682600  0.74339100  1
  Ge  Ge0  1  0.64915400  0.43936100  0.91305200  1
  Ge  Ge1  1  0.14915400  0.56063900  0.58694800  1
  Ge  Ge2  1  0.35084600  0.56063900  0.08694800  1
  Ge  Ge3  1  0.85084600  0.43936100  0.41305200  1
  Ge  Ge4  1  0.82756300  0.15591900  0.83069900  1
  Ge  Ge5  1  0.32756300  0.84408100  0.66930100  1
  Ge  Ge6  1  0.17243700  0.84408100  0.16930100  1
  Ge  Ge7  1  0.67243700  0.15591900  0.33069900  1
  O  O0  1  0.22792100  0.87051000  0.76719100  1
  O  O1  1  0.73004900  0.66202200  0.38020100  1
  O  O2  1  0.26995100  0.33797800  0.61979900  1
  O  O3  1  0.76995100  0.66202200  0.88020100  1
  O  O4  1  0.17695600  0.44243000  0.41089200  1
  O  O5  1  0.67695600  0.55757000  0.08910800  1
  O  O6  1  0.72792100  0.12949000  0.73280900  1
  O  O7  1  0.32304400  0.44243000  0.91089200  1
  O  O8  1  0.78801600  0.38203600  0.31567900  1
  O  O9  1  0.28801600  0.61796400  0.18432100  1
  O  O10  1  0.21198400  0.61796400  0.68432100  1
  O  O11  1  0.71198400  0.38203600  0.81567900  1
  O  O12  1  0.77207900  0.12949000  0.23280900  1
  O  O13  1  0.27207900  0.87051000  0.26719100  1
  O  O14  1  0.22178600  0.73205100  0.98269900  1
  O  O15  1  0.72178600  0.26794900  0.51730100  1
  O  O16  1  0.77821400  0.26794900  0.01730100  1
  O  O17  1  0.27821400  0.73205100  0.48269900  1
  O  O18  1  0.67624000  0.97989500  0.92836000  1
  O  O19  1  0.17624000  0.02010500  0.57164000  1
  O  O20  1  0.32376000  0.02010500  0.07164000  1
  O  O21  1  0.82304400  0.55757000  0.58910800  1
  O  O22  1  0.15251600  0.15972900  0.84010400  1
  O  O23  1  0.65251600  0.84027100  0.65989600  1
  O  O24  1  0.84748400  0.84027100  0.15989600  1
  O  O25  1  0.34748400  0.15972900  0.34010400  1
  O  O26  1  0.23004900  0.33797800  0.11979900  1
  O  O27  1  0.82376000  0.97989500  0.42836000  1
loop_
_geom_bond_atom_site_label_1
_geom_bond_atom_site_label_2
_geom_bond_distance
_geom_bond_site_symmetry_2
Li0 O22 1.904541 1_555
Li0 O7 1.913074 1_555
Li0 O10 1.986012 1_555
Li0 O11 2.320193 1_555
Li1 O23 1.904541 1_555
Li1 O21 1.913074 1_555
Li1 O11 1.986012 1_555
Li1 O10 2.320193 1_655
Li2 O24 1.904541 1_555
Li2 O5 1.913074 1_555
Li2 O8 1.986012 1_555
Li2 O9 2.320193 1_555
Li3 O25 1.904541 1_555
Li3 O4 1.913074 1_555
Li3 O9 1.986012 1_555
Li3 O8 2.320193 1_455
Li4 O7 1.888511 1_555
Li4 O3 1.934091 1_455
Li4 O0 1.982535 1_555
Li4 O14 2.032452 1_555
Li5 O21 1.888511 1_555
Li5 O2 1.934091 1_555
Li5 O6 1.982535 1_555
Li5 O15 2.032452 1_555
Li6 O5 1.888511 1_555
Li6 O26 1.934091 1_655
Li6 O12 1.982535 1_555
Li6 O16 2.032452 1_555
Li7 O4 1.888511 1_555
Li7 O1 1.934091 1_555
Li7 O13 1.982535 1_555
Li7 O17 2.032452 1_555
Li8 O25 1.958904 1_555
Li8 O26 1.980881 1_555
Li8 O13 2.029014 1_545
Li8 O12 2.133554 1_455
Li9 O24 1.958904 1_555
Li9 O1 1.980881 1_555
Li9 O12 2.029014 1_565
Li9 O13 2.133554 1_555
Li10 O5 1.913446 1_556
Li10 O14 1.982151 1_655
Li10 O18 1.990775 1_555
Li10 O3 2.102870 1_555
Li11 O4 1.913446 1_555
Li11 O15 1.982151 1_555
Li11 O19 1.990775 1_555
Li11 O2 2.102870 1_555
Li12 O7 1.913446 1_554
Li12 O16 1.982151 1_455
Li12 O20 1.990775 1_555
Li12 O26 2.102870 1_555
Li13 O21 1.913446 1_555
Li13 O17 1.982151 1_555
Li13 O27 1.990775 1_555
Li13 O1 2.102870 1_555
Li14 O22 1.940321 1_565
Li14 O20 1.976033 1_566
Li14 O14 2.017245 1_555
Li14 O18 2.054794 1_555
Li15 O23 1.940321 1_545
Li15 O27 1.976033 1_545
Li15 O15 2.017245 1_555
Li15 O19 2.054794 1_655
Li16 O24 1.940321 1_545
Li16 O18 1.976033 1_544
Li16 O16 2.017245 1_555
Li16 O20 2.054794 1_555
Li17 O25 1.940321 1_565
Li17 O19 1.976033 1_565
Li17 O17 2.017245 1_555
Li17 O27 2.054794 1_455
Li18 O3 1.998240 1_555
Li18 O14 2.061515 1_555
Li18 O18 2.074926 1_555
Li18 O0 2.168401 1_555
Li19 O2 1.998240 1_655
Li19 O15 2.061515 1_555
Li19 O19 2.074926 1_655
Li19 O6 2.168401 1_555
Li20 O26 1.998240 1_555
Li20 O16 2.061515 1_555
Li20 O20 2.074926 1_555
Li20 O12 2.168401 1_555
Li21 O1 1.998240 1_455
Li21 O17 2.061515 1_555
Li21 O27 2.074926 1_455
Li21 O13 2.168401 1_555
Li22 O23 1.958904 1_555
Li22 O3 1.980881 1_555
Li22 O6 2.029014 1_565
Li22 O0 2.133554 1_655
Li23 O22 1.958904 1_555
Li23 O2 1.980881 1_555
Li23 O0 2.029014 1_545
Li23 O6 2.133554 1_555
Ge0 O7 1.751894 1_555
Ge0 O16 1.766880 1_556
Ge0 O3 1.770214 1_555
Ge0 O11 1.869818 1_555
Ge1 O21 1.751894 1_455
Ge1 O17 1.766880 1_555
Ge1 O2 1.770214 1_555
Ge1 O10 1.869818 1_555
Ge2 O5 1.751894 1_555
Ge2 O14 1.766880 1_554
Ge2 O26 1.770214 1_555
Ge2 O9 1.869818 1_555
Ge3 O4 1.751894 1_655
Ge3 O15 1.766880 1_555
Ge3 O1 1.770214 1_555
Ge3 O8 1.869818 1_555
Ge4 O22 1.753525 1_655
Ge4 O18 1.772945 1_545
Ge4 O6 1.777033 1_555
Ge4 O11 1.858691 1_555
Ge5 O23 1.753525 1_555
Ge5 O19 1.772945 1_565
Ge5 O0 1.777033 1_555
Ge5 O10 1.858691 1_555
Ge6 O24 1.753525 1_455
Ge6 O20 1.772945 1_565
Ge6 O13 1.777033 1_555
Ge6 O9 1.858691 1_555
Ge7 O25 1.753525 1_555
Ge7 O27 1.772945 1_545
Ge7 O12 1.777033 1_555
Ge7 O8 1.858691 1_555
