# generated using pymatgen
data_MgFe6(OF)6
_symmetry_space_group_name_H-M   'P 1'
_cell_length_a   5.04525993
_cell_length_b   14.56223181
_cell_length_c   3.07276300
_cell_angle_alpha   90.00000000
_cell_angle_beta   90.00000000
_cell_angle_gamma   87.26494001
_symmetry_Int_Tables_number   1
_chemical_formula_structural   MgFe6(OF)6
_chemical_formula_sum   'Mg1 Fe6 O6 F6'
_cell_volume   225.49948149
_cell_formula_units_Z   1
loop_
 _symmetry_equiv_pos_site_id
 _symmetry_equiv_pos_as_xyz
  1  'x, y, z'
loop_
 _atom_site_type_symbol
 _atom_site_label
 _atom_site_symmetry_multiplicity
 _atom_site_fract_x
 _atom_site_fract_y
 _atom_site_fract_z
 _atom_site_occupancy
  Mg  Mg0  1  0.54088000  0.99378700  0.00000000  1
  Fe  Fe0  1  0.04665700  0.01669000  0.00000000  1
  Fe  Fe1  1  0.02846000  0.34900100  0.00000000  1
  Fe  Fe2  1  0.00452000  0.65895600  0.00000000  1
  Fe  Fe3  1  0.51978700  0.16928600  0.50000000  1
  Fe  Fe4  1  0.45416800  0.50057200  0.50000000  1
  Fe  Fe5  1  0.41741800  0.81476500  0.50000000  1
  O  O0  1  0.17368700  0.60250100  0.50000000  1
  O  O1  1  0.28709400  0.94690000  0.50000000  1
  O  O2  1  0.33835200  0.11721100  0.00000000  1
  O  O3  1  0.24352200  0.76624500  0.00000000  1
  O  O4  1  0.32127700  0.44033900  0.00000000  1
  O  O5  1  0.77177800  0.05059800  0.50000000  1
  F  F0  1  0.23557400  0.27406500  0.50000000  1
  F  F1  1  0.72551500  0.23237000  0.00000000  1
  F  F2  1  0.68328600  0.56757700  0.00000000  1
  F  F3  1  0.68234600  0.86762500  0.00000000  1
  F  F4  1  0.79619600  0.40623300  0.50000000  1
  F  F5  1  0.75726300  0.72064500  0.50000000  1
loop_
_geom_bond_atom_site_label_1
_geom_bond_atom_site_label_2
_geom_bond_distance
_geom_bond_site_symmetry_2
Mg0 O2 2.024651 1_565
Mg0 O5 2.119893 1_565
Mg0 O5 2.119893 1_564
Mg0 O1 2.132969 1_554
Mg0 O1 2.132969 1_555
Fe0 O5 2.112402 1_455
Fe0 O5 2.112402 1_454
Fe0 O2 2.124657 1_555
Fe0 O1 2.178808 1_544
Fe0 O1 2.178808 1_545
Fe1 O4 2.034498 1_555
Fe2 O0 1.922971 1_554
Fe2 O0 1.922971 1_555
Fe2 O3 2.018615 1_555
Fe3 O2 1.959518 1_555
Fe3 O2 1.959518 1_556
Fe3 O5 2.096160 1_555
Fe4 O4 1.906692 1_556
Fe4 O4 1.906692 1_555
Fe4 O0 2.001309 1_555
Fe5 O3 1.920573 1_556
Fe5 O3 1.920573 1_555
Fe5 O1 2.003511 1_555
F0 Fe3 2.043395 1_555
F0 Fe1 2.129401 1_555
F0 Fe1 2.129401 1_556
F1 Fe3 2.091104 1_554
F1 Fe3 2.091104 1_555
F1 Fe1 2.338471 1_655
F2 Fe2 2.145515 1_655
F2 Fe4 2.180924 1_554
F2 Fe4 2.180924 1_555
F3 Mg0 1.938963 1_555
F3 Fe5 2.199493 1_555
F3 Fe5 2.199493 1_554
F4 Fe1 2.082079 1_655
F4 Fe1 2.082079 1_656
F4 Fe4 2.153790 1_555
F5 Fe5 2.143393 1_555
F5 Fe2 2.148653 1_656
F5 Fe2 2.148653 1_655
