# generated using pymatgen
data_As(BrF2)3
_symmetry_space_group_name_H-M   'P 1'
_cell_length_a   5.43187990
_cell_length_b   7.65889332
_cell_length_c   9.78651896
_cell_angle_alpha   87.58855319
_cell_angle_beta   81.20261381
_cell_angle_gamma   80.29422113
_symmetry_Int_Tables_number   1
_chemical_formula_structural   As(BrF2)3
_chemical_formula_sum   'As2 Br6 F12'
_cell_volume   396.53621659
_cell_formula_units_Z   2
loop_
 _symmetry_equiv_pos_site_id
 _symmetry_equiv_pos_as_xyz
  1  'x, y, z'
loop_
 _atom_site_type_symbol
 _atom_site_label
 _atom_site_symmetry_multiplicity
 _atom_site_fract_x
 _atom_site_fract_y
 _atom_site_fract_z
 _atom_site_occupancy
  As  As0  1  0.43025647  0.78305716  0.80367307  1
  As  As1  1  0.56974353  0.21694284  0.19632693  1
  Br  Br0  1  0.07954562  0.38502865  0.82341916  1
  Br  Br1  1  0.92045438  0.61497135  0.17658084  1
  Br  Br2  1  0.81001832  0.19755176  0.78301086  1
  Br  Br3  1  0.18998168  0.80244824  0.21698914  1
  Br  Br4  1  0.20196700  0.76857954  0.45170868  1
  Br  Br5  1  0.79803300  0.23142046  0.54829132  1
  F  F0  1  0.33539222  0.20573982  0.09766381  1
  F  F1  1  0.66460778  0.79426018  0.90233619  1
  F  F2  1  0.35273983  0.30818978  0.33326466  1
  F  F3  1  0.64726017  0.69181022  0.66673534  1
  F  F4  1  0.59945541  0.43163174  0.12965336  1
  F  F5  1  0.40054459  0.56836826  0.87034664  1
  F  F6  1  0.55293545  0.00329824  0.26296510  1
  F  F7  1  0.44706455  -0.00329824  0.73703490  1
  F  F8  1  0.18372204  0.77149506  0.70706750  1
  F  F9  1  0.81627796  0.22850494  0.29293250  1
  F  F10  1  0.20042018  0.87148361  0.93877686  1
  F  F11  1  0.79957982  0.12851639  0.06122314  1
loop_
_geom_bond_atom_site_label_1
_geom_bond_atom_site_label_2
_geom_bond_distance
_geom_bond_site_symmetry_2
As0 F1 1.726240 1_555
As0 F3 1.729643 1_555
As0 F10 1.746663 1_555
As0 F7 1.747404 1_565
As0 F5 1.767043 1_555
As0 F8 1.768980 1_555
As1 F0 1.726240 1_555
As1 F2 1.729643 1_555
As1 F11 1.746663 1_555
As1 F6 1.747404 1_555
As1 F4 1.767043 1_555
As1 F9 1.768980 1_555
Br0 Br2 2.301128 1_455
Br0 F5 2.519447 1_555
Br1 Br3 2.301128 1_655
Br1 F4 2.519447 1_555
Br2 Br5 2.310420 1_555
Br3 Br4 2.310420 1_555
Br4 F8 2.486741 1_555
Br5 F9 2.486741 1_555
