# generated using pymatgen
data_MgTe2MoW3(Se2S)2
_symmetry_space_group_name_H-M   'P 1'
_cell_length_a   6.67212800
_cell_length_b   6.67266573
_cell_length_c   91.95968353
_cell_angle_alpha   90.01834082
_cell_angle_beta   90.00000000
_cell_angle_gamma   119.99735406
_symmetry_Int_Tables_number   1
_chemical_formula_structural   MgTe2MoW3(Se2S)2
_chemical_formula_sum   'Mg8 Te16 Mo8 W24 Se32 S16'
_cell_volume   3545.71142992
_cell_formula_units_Z   8
loop_
 _symmetry_equiv_pos_site_id
 _symmetry_equiv_pos_as_xyz
  1  'x, y, z'
loop_
 _atom_site_type_symbol
 _atom_site_label
 _atom_site_symmetry_multiplicity
 _atom_site_fract_x
 _atom_site_fract_y
 _atom_site_fract_z
 _atom_site_occupancy
  Mg  Mg0_0  1  0.00002250  0.00004450  0.18977550  1
  Mg  Mg0_1  1  0.00002250  0.00004450  0.68977550  1
  Mg  Mg0_2  1  0.00002250  0.50004450  0.18977550  1
  Mg  Mg0_3  1  0.00002250  0.50004450  0.68977550  1
  Mg  Mg0_4  1  0.50002250  0.00004450  0.18977550  1
  Mg  Mg0_5  1  0.50002250  0.00004450  0.68977550  1
  Mg  Mg0_6  1  0.50002250  0.50004450  0.18977550  1
  Mg  Mg0_7  1  0.50002250  0.50004450  0.68977550  1
  Te  Te0_0  1  0.33329750  0.16659500  0.02614650  1
  Te  Te0_1  1  0.33329750  0.16659500  0.52614650  1
  Te  Te0_2  1  0.33329750  0.66659500  0.02614650  1
  Te  Te0_3  1  0.33329750  0.66659500  0.52614650  1
  Te  Te0_4  1  0.83329750  0.16659500  0.02614650  1
  Te  Te0_5  1  0.83329750  0.16659500  0.52614650  1
  Te  Te0_6  1  0.83329750  0.66659500  0.02614650  1
  Te  Te0_7  1  0.83329750  0.66659500  0.52614650  1
  Te  Te1_0  1  0.33337550  0.16675000  0.06741700  1
  Te  Te1_1  1  0.33337550  0.16675000  0.56741700  1
  Te  Te1_2  1  0.33337550  0.66675000  0.06741700  1
  Te  Te1_3  1  0.33337550  0.66675000  0.56741700  1
  Te  Te1_4  1  0.83337550  0.16675000  0.06741700  1
  Te  Te1_5  1  0.83337550  0.16675000  0.56741700  1
  Te  Te1_6  1  0.83337550  0.66675000  0.06741700  1
  Te  Te1_7  1  0.83337550  0.66675000  0.56741700  1
  Mo  Mo0_0  1  0.16668150  0.33336300  0.04678900  1
  Mo  Mo0_1  1  0.16668150  0.33336300  0.54678900  1
  Mo  Mo0_2  1  0.16668150  0.83336300  0.04678900  1
  Mo  Mo0_3  1  0.16668150  0.83336300  0.54678900  1
  Mo  Mo0_4  1  0.66668150  0.33336300  0.04678900  1
  Mo  Mo0_5  1  0.66668150  0.33336300  0.54678900  1
  Mo  Mo0_6  1  0.66668150  0.83336300  0.04678900  1
  Mo  Mo0_7  1  0.66668150  0.83336300  0.54678900  1
  W  W0_0  1  0.16661850  0.33323600  0.23862450  1
  W  W0_1  1  0.16661850  0.33323600  0.73862450  1
  W  W0_2  1  0.16661850  0.83323600  0.23862450  1
  W  W0_3  1  0.16661850  0.83323600  0.73862450  1
  W  W0_4  1  0.66661850  0.33323600  0.23862450  1
  W  W0_5  1  0.66661850  0.33323600  0.73862450  1
  W  W0_6  1  0.66661850  0.83323600  0.23862450  1
  W  W0_7  1  0.66661850  0.83323600  0.73862450  1
  W  W1_0  1  0.33337500  0.16674900  0.13734850  1
  W  W1_1  1  0.33337500  0.16674900  0.63734850  1
  W  W1_2  1  0.33337500  0.66674900  0.13734850  1
  W  W1_3  1  0.33337500  0.66674900  0.63734850  1
  W  W1_4  1  0.83337500  0.16674900  0.13734850  1
  W  W1_5  1  0.83337500  0.16674900  0.63734850  1
  W  W1_6  1  0.83337500  0.66674900  0.13734850  1
  W  W1_7  1  0.83337500  0.66674900  0.63734850  1
  W  W2_0  1  0.33332200  0.16664300  0.32882800  1
  W  W2_1  1  0.33332200  0.16664300  0.82882800  1
  W  W2_2  1  0.33332200  0.66664300  0.32882800  1
  W  W2_3  1  0.33332200  0.66664300  0.82882800  1
  W  W2_4  1  0.83332200  0.16664300  0.32882800  1
  W  W2_5  1  0.83332200  0.16664300  0.82882800  1
  W  W2_6  1  0.83332200  0.66664300  0.32882800  1
  W  W2_7  1  0.83332200  0.66664300  0.82882800  1
  Se  Se0_0  1  0.16678400  0.33356800  0.15571600  1
  Se  Se0_1  1  0.16678400  0.33356800  0.65571600  1
  Se  Se0_2  1  0.16678400  0.83356800  0.15571600  1
  Se  Se0_3  1  0.16678400  0.83356800  0.65571600  1
  Se  Se0_4  1  0.66678400  0.33356800  0.15571600  1
  Se  Se0_5  1  0.66678400  0.33356800  0.65571600  1
  Se  Se0_6  1  0.66678400  0.83356800  0.15571600  1
  Se  Se0_7  1  0.66678400  0.83356800  0.65571600  1
  Se  Se1_0  1  0.16669600  0.33339200  0.34710050  1
  Se  Se1_1  1  0.16669600  0.33339200  0.84710050  1
  Se  Se1_2  1  0.16669600  0.83339200  0.34710050  1
  Se  Se1_3  1  0.16669600  0.83339200  0.84710050  1
  Se  Se1_4  1  0.66669600  0.33339200  0.34710050  1
  Se  Se1_5  1  0.66669600  0.33339200  0.84710050  1
  Se  Se1_6  1  0.66669600  0.83339200  0.34710050  1
  Se  Se1_7  1  0.66669600  0.83339200  0.84710050  1
  Se  Se2_0  1  0.16664650  0.33329300  0.11913350  1
  Se  Se2_1  1  0.16664650  0.33329300  0.61913350  1
  Se  Se2_2  1  0.16664650  0.83329300  0.11913350  1
  Se  Se2_3  1  0.16664650  0.83329300  0.61913350  1
  Se  Se2_4  1  0.66664650  0.33329300  0.11913350  1
  Se  Se2_5  1  0.66664650  0.33329300  0.61913350  1
  Se  Se2_6  1  0.66664650  0.83329300  0.11913350  1
  Se  Se2_7  1  0.66664650  0.83329300  0.61913350  1
  Se  Se3_0  1  0.16662650  0.33325250  0.31056450  1
  Se  Se3_1  1  0.16662650  0.33325250  0.81056450  1
  Se  Se3_2  1  0.16662650  0.83325250  0.31056450  1
  Se  Se3_3  1  0.16662650  0.83325250  0.81056450  1
  Se  Se3_4  1  0.66662650  0.33325250  0.31056450  1
  Se  Se3_5  1  0.66662650  0.33325250  0.81056450  1
  Se  Se3_6  1  0.66662650  0.83325250  0.31056450  1
  Se  Se3_7  1  0.66662650  0.83325250  0.81056450  1
  S  S0_0  1  0.33321450  0.16642800  0.22192650  1
  S  S0_1  1  0.33321450  0.16642800  0.72192650  1
  S  S0_2  1  0.33321450  0.66642800  0.22192650  1
  S  S0_3  1  0.33321450  0.66642800  0.72192650  1
  S  S0_4  1  0.83321450  0.16642800  0.22192650  1
  S  S0_5  1  0.83321450  0.16642800  0.72192650  1
  S  S0_6  1  0.83321450  0.66642800  0.22192650  1
  S  S0_7  1  0.83321450  0.66642800  0.72192650  1
  S  S1_0  1  0.33334200  0.16668400  0.25510950  1
  S  S1_1  1  0.33334200  0.16668400  0.75510950  1
  S  S1_2  1  0.33334200  0.66668400  0.25510950  1
  S  S1_3  1  0.33334200  0.66668400  0.75510950  1
  S  S1_4  1  0.83334200  0.16668400  0.25510950  1
  S  S1_5  1  0.83334200  0.16668400  0.75510950  1
  S  S1_6  1  0.83334200  0.66668400  0.25510950  1
  S  S1_7  1  0.83334200  0.66668400  0.75510950  1
loop_
_geom_bond_atom_site_label_1
_geom_bond_atom_site_label_2
_geom_bond_distance
_geom_bond_site_symmetry_2
Mg0_0 Mg0_4 3.336064 1_455
Mg0_0 Mg0_4 3.336064 1_555
Mg0_0 Mg0_6 3.336332 1_445
Mg0_0 Mg0_6 3.336332 1_555
Mg0_0 Mg0_2 3.336333 1_555
Mg0_0 Mg0_2 3.336333 1_545
Mg0_1 Mg0_5 3.336064 1_555
Mg0_1 Mg0_5 3.336064 1_455
Mg0_1 Mg0_7 3.336332 1_445
Mg0_1 Mg0_7 3.336332 1_555
Mg0_1 Mg0_3 3.336333 1_545
Mg0_1 Mg0_3 3.336333 1_555
Mg0_2 Mg0_6 3.336064 1_455
Mg0_2 Mg0_6 3.336064 1_555
Mg0_2 Mg0_4 3.336332 1_455
Mg0_2 Mg0_4 3.336332 1_565
Mg0_3 Mg0_7 3.336064 1_455
Mg0_3 Mg0_7 3.336064 1_555
Mg0_3 Mg0_5 3.336332 1_565
Mg0_3 Mg0_5 3.336332 1_455
Mg0_4 Mg0_6 3.336333 1_555
Mg0_4 Mg0_6 3.336333 1_545
Mg0_5 Mg0_7 3.336333 1_555
Mg0_5 Mg0_7 3.336333 1_545
Mo0_0 Te1_2 2.703232 1_555
Mo0_0 Te1_4 2.703537 1_455
Mo0_0 Te1_0 2.703541 1_555
Mo0_0 Te0_4 2.704294 1_455
Mo0_0 Te0_0 2.704295 1_555
Mo0_0 Te0_2 2.704529 1_555
Mo0_1 Te1_3 2.703232 1_555
Mo0_1 Te1_5 2.703537 1_455
Mo0_1 Te1_1 2.703541 1_555
Mo0_1 Te0_5 2.704294 1_455
Mo0_1 Te0_1 2.704295 1_555
Mo0_1 Te0_3 2.704529 1_555
Mo0_2 Te1_0 2.703232 1_565
Mo0_2 Te1_6 2.703537 1_455
Mo0_2 Te1_2 2.703541 1_555
Mo0_2 Te0_6 2.704294 1_455
Mo0_2 Te0_2 2.704295 1_555
Mo0_2 Te0_0 2.704529 1_565
Mo0_3 Te1_1 2.703232 1_565
Mo0_3 Te1_7 2.703537 1_455
Mo0_3 Te1_3 2.703541 1_555
Mo0_3 Te0_7 2.704294 1_455
Mo0_3 Te0_3 2.704295 1_555
Mo0_3 Te0_1 2.704529 1_565
Mo0_4 Te1_6 2.703232 1_555
Mo0_4 Te1_0 2.703537 1_555
Mo0_4 Te1_4 2.703541 1_555
Mo0_4 Te0_0 2.704294 1_555
Mo0_4 Te0_4 2.704295 1_555
Mo0_4 Te0_6 2.704529 1_555
Mo0_5 Te1_7 2.703232 1_555
Mo0_5 Te1_1 2.703537 1_555
Mo0_5 Te1_5 2.703541 1_555
Mo0_5 Te0_1 2.704294 1_555
Mo0_5 Te0_5 2.704295 1_555
Mo0_5 Te0_7 2.704529 1_555
Mo0_6 Te1_4 2.703232 1_565
Mo0_6 Te1_2 2.703537 1_555
Mo0_6 Te1_6 2.703541 1_555
Mo0_6 Te0_2 2.704294 1_555
Mo0_6 Te0_6 2.704295 1_555
Mo0_6 Te0_4 2.704529 1_565
Mo0_7 Te1_5 2.703232 1_565
Mo0_7 Te1_3 2.703537 1_555
Mo0_7 Te1_7 2.703541 1_555
Mo0_7 Te0_3 2.704294 1_555
Mo0_7 Te0_7 2.704295 1_555
Mo0_7 Te0_5 2.704529 1_565
Se0_0 W1_2 2.561745 1_555
Se0_0 W1_4 2.561915 1_455
Se0_0 W1_0 2.561920 1_555
Se0_1 W1_3 2.561745 1_555
Se0_1 W1_5 2.561915 1_455
Se0_1 W1_1 2.561920 1_555
Se0_2 W1_0 2.561745 1_565
Se0_2 W1_6 2.561915 1_455
Se0_2 W1_2 2.561920 1_555
Se0_3 W1_1 2.561745 1_565
Se0_3 W1_7 2.561915 1_455
Se0_3 W1_3 2.561920 1_555
Se0_4 W1_6 2.561745 1_555
Se0_4 W1_0 2.561915 1_555
Se0_4 W1_4 2.561920 1_555
Se0_5 W1_7 2.561745 1_555
Se0_5 W1_1 2.561915 1_555
Se0_5 W1_5 2.561920 1_555
Se0_6 W1_4 2.561745 1_565
Se0_6 W1_2 2.561915 1_555
Se0_6 W1_6 2.561920 1_555
Se0_7 W1_5 2.561745 1_565
Se0_7 W1_3 2.561915 1_555
Se0_7 W1_7 2.561920 1_555
Se1_0 W2_4 2.556013 1_455
Se1_0 W2_0 2.556017 1_555
Se1_0 W2_2 2.556296 1_555
Se1_1 W2_5 2.556013 1_455
Se1_1 W2_1 2.556017 1_555
Se1_1 W2_3 2.556296 1_555
Se1_2 W2_6 2.556013 1_455
Se1_2 W2_2 2.556017 1_555
Se1_2 W2_0 2.556296 1_565
Se1_3 W2_7 2.556013 1_455
Se1_3 W2_3 2.556017 1_555
Se1_3 W2_1 2.556296 1_565
Se1_4 W2_0 2.556013 1_555
Se1_4 W2_4 2.556017 1_555
Se1_4 W2_6 2.556296 1_555
Se1_5 W2_1 2.556013 1_555
Se1_5 W2_5 2.556017 1_555
Se1_5 W2_7 2.556296 1_555
Se1_6 W2_2 2.556013 1_555
Se1_6 W2_6 2.556017 1_555
Se1_6 W2_4 2.556296 1_565
Se1_7 W2_3 2.556013 1_555
Se1_7 W2_7 2.556017 1_555
Se1_7 W2_5 2.556296 1_565
Se2_0 W1_4 2.552561 1_455
Se2_0 W1_0 2.552565 1_555
Se2_0 W1_2 2.552782 1_555
Se2_1 W1_5 2.552561 1_455
Se2_1 W1_1 2.552565 1_555
Se2_1 W1_3 2.552782 1_555
Se2_2 W1_6 2.552561 1_455
Se2_2 W1_2 2.552565 1_555
Se2_2 W1_0 2.552782 1_565
Se2_3 W1_7 2.552561 1_455
Se2_3 W1_3 2.552565 1_555
Se2_3 W1_1 2.552782 1_565
Se2_4 W1_0 2.552561 1_555
Se2_4 W1_4 2.552565 1_555
Se2_4 W1_6 2.552782 1_555
Se2_5 W1_1 2.552561 1_555
Se2_5 W1_5 2.552565 1_555
Se2_5 W1_7 2.552782 1_555
Se2_6 W1_2 2.552561 1_555
Se2_6 W1_6 2.552565 1_555
Se2_6 W1_4 2.552782 1_565
Se2_7 W1_3 2.552561 1_555
Se2_7 W1_7 2.552565 1_555
Se2_7 W1_5 2.552782 1_565
Se3_0 W2_2 2.555424 1_555
Se3_0 W2_4 2.555634 1_455
Se3_0 W2_0 2.555637 1_555
Se3_1 W2_3 2.555424 1_555
Se3_1 W2_5 2.555634 1_455
Se3_1 W2_1 2.555637 1_555
Se3_2 W2_0 2.555424 1_565
Se3_2 W2_6 2.555634 1_455
Se3_2 W2_2 2.555637 1_555
Se3_3 W2_1 2.555424 1_565
Se3_3 W2_7 2.555634 1_455
Se3_3 W2_3 2.555637 1_555
Se3_4 W2_6 2.555424 1_555
Se3_4 W2_0 2.555634 1_555
Se3_4 W2_4 2.555637 1_555
Se3_5 W2_7 2.555424 1_555
Se3_5 W2_1 2.555634 1_555
Se3_5 W2_5 2.555637 1_555
Se3_6 W2_4 2.555424 1_565
Se3_6 W2_2 2.555634 1_555
Se3_6 W2_6 2.555637 1_555
Se3_7 W2_5 2.555424 1_565
Se3_7 W2_3 2.555634 1_555
Se3_7 W2_7 2.555637 1_555
S0_0 W0_2 2.463230 1_545
S0_0 W0_4 2.463401 1_555
S0_0 W0_0 2.463401 1_555
S0_1 W0_3 2.463230 1_545
S0_1 W0_5 2.463401 1_555
S0_1 W0_1 2.463401 1_555
S0_2 W0_0 2.463230 1_555
S0_2 W0_6 2.463401 1_555
S0_2 W0_2 2.463401 1_555
S0_3 W0_1 2.463230 1_555
S0_3 W0_7 2.463401 1_555
S0_3 W0_3 2.463401 1_555
S0_4 W0_6 2.463230 1_545
S0_4 W0_0 2.463401 1_655
S0_4 W0_4 2.463401 1_555
S0_5 W0_7 2.463230 1_545
S0_5 W0_1 2.463401 1_655
S0_5 W0_5 2.463401 1_555
S0_6 W0_4 2.463230 1_555
S0_6 W0_2 2.463401 1_655
S0_6 W0_6 2.463401 1_555
S0_7 W0_5 2.463230 1_555
S0_7 W0_3 2.463401 1_655
S0_7 W0_7 2.463401 1_555
S1_0 W0_0 2.451099 1_555
S1_0 W0_4 2.451103 1_555
S1_0 W0_2 2.451343 1_545
S1_1 W0_1 2.451099 1_555
S1_1 W0_5 2.451103 1_555
S1_1 W0_3 2.451343 1_545
S1_2 W0_2 2.451099 1_555
S1_2 W0_6 2.451103 1_555
S1_2 W0_0 2.451343 1_555
S1_3 W0_3 2.451099 1_555
S1_3 W0_7 2.451103 1_555
S1_3 W0_1 2.451343 1_555
S1_4 W0_4 2.451099 1_555
S1_4 W0_0 2.451103 1_655
S1_4 W0_6 2.451343 1_545
S1_5 W0_5 2.451099 1_555
S1_5 W0_1 2.451103 1_655
S1_5 W0_7 2.451343 1_545
S1_6 W0_6 2.451099 1_555
S1_6 W0_2 2.451103 1_655
S1_6 W0_4 2.451343 1_555
S1_7 W0_7 2.451099 1_555
S1_7 W0_3 2.451103 1_655
S1_7 W0_5 2.451343 1_555
