# generated using pymatgen
data_MgFe6O7F5
_symmetry_space_group_name_H-M   'P 1'
_cell_length_a   8.15528759
_cell_length_b   5.96949272
_cell_length_c   5.78237739
_cell_angle_alpha   68.22675321
_cell_angle_beta   66.56240003
_cell_angle_gamma   63.87630480
_symmetry_Int_Tables_number   1
_chemical_formula_structural   MgFe6O7F5
_chemical_formula_sum   'Mg1 Fe6 O7 F5'
_cell_volume   225.24738244
_cell_formula_units_Z   1
loop_
 _symmetry_equiv_pos_site_id
 _symmetry_equiv_pos_as_xyz
  1  'x, y, z'
loop_
 _atom_site_type_symbol
 _atom_site_label
 _atom_site_symmetry_multiplicity
 _atom_site_fract_x
 _atom_site_fract_y
 _atom_site_fract_z
 _atom_site_occupancy
  Mg  Mg0  1  0.66062700  0.83484600  0.34795300  1
  Fe  Fe0  1  0.88183000  0.68574800  0.73233100  1
  Fe  Fe1  1  0.68786000  0.31935800  0.33930800  1
  Fe  Fe2  1  0.31940600  0.63820900  0.66197300  1
  Fe  Fe3  1  0.14870200  0.27874700  0.31744400  1
  Fe  Fe4  1  0.47501600  0.98021100  0.96242200  1
  Fe  Fe5  1  0.00963100  0.04765500  0.96504200  1
  O  O0  1  0.66434000  0.97708800  0.61444200  1
  O  O1  1  0.32111100  0.33788300  0.95876700  1
  O  O2  1  0.98383900  0.19319400  0.22796100  1
  O  O3  1  0.04994300  0.81655800  0.75261900  1
  O  O4  1  0.36927500  0.95046100  0.36002300  1
  O  O5  1  0.69068900  0.67187000  0.06861000  1
  O  O6  1  0.01895300  0.34053300  0.67303400  1
  F  F0  1  0.30115500  0.86083400  0.90816500  1
  F  F1  1  0.60845600  0.53409400  0.61301200  1
  F  F2  1  0.38217400  0.44870500  0.41187500  1
  F  F3  1  0.72179400  0.12715400  0.06450800  1
  F  F4  1  0.96353300  0.70685400  0.28241400  1
loop_
_geom_bond_atom_site_label_1
_geom_bond_atom_site_label_2
_geom_bond_distance
_geom_bond_site_symmetry_2
Mg0 O0 2.031465 1_555
Mg0 O5 2.063117 1_555
Mg0 O4 2.141627 1_555
Fe0 O3 1.908368 1_655
Fe0 O5 1.949559 1_556
Fe0 O6 1.950543 1_655
Fe0 O0 2.000292 1_555
Fe1 O2 2.081033 1_555
Fe1 O0 2.105542 1_545
Fe1 O5 2.109315 1_555
Fe2 O3 1.916980 1_555
Fe2 O1 1.968260 1_555
Fe2 O4 2.092036 1_555
Fe3 O2 1.921035 1_455
Fe3 O6 1.992895 1_555
Fe3 O1 1.994298 1_554
Fe3 O4 2.006709 1_545
Fe4 O1 1.939648 1_565
Fe4 O0 1.990999 1_555
Fe4 O5 2.007068 1_556
Fe4 O4 2.077437 1_556
Fe5 O2 1.917007 1_456
Fe5 O6 1.933487 1_555
Fe5 O3 2.014051 1_545
F0 Fe4 2.006535 1_555
F0 Fe5 2.078323 1_565
F0 Fe2 2.208081 1_555
F1 Mg0 1.966187 1_555
F1 Fe2 2.081510 1_555
F1 Fe1 2.127468 1_555
F2 Fe2 1.935964 1_555
F2 Fe1 2.167996 1_555
F3 Mg0 1.993576 1_545
F3 Fe5 2.052740 1_654
F3 Fe1 2.154308 1_555
F4 Mg0 2.153529 1_555
F4 Fe5 2.236722 1_664
F4 Fe3 2.305050 1_655
F4 Fe0 2.383254 1_555
