# generated using pymatgen
data_Na8MgSi4Ge3(PO12)2
_symmetry_space_group_name_H-M   'P 1'
_cell_length_a   8.84474976
_cell_length_b   8.88577925
_cell_length_c   21.69324499
_cell_angle_alpha   89.83202660
_cell_angle_beta   90.03946720
_cell_angle_gamma   120.06182606
_symmetry_Int_Tables_number   1
_chemical_formula_structural   Na8MgSi4Ge3(PO12)2
_chemical_formula_sum   'Na24 Mg3 Si12 Ge9 P6 O72'
_cell_volume   1475.58175574
_cell_formula_units_Z   3
loop_
 _symmetry_equiv_pos_site_id
 _symmetry_equiv_pos_as_xyz
  1  'x, y, z'
loop_
 _atom_site_type_symbol
 _atom_site_label
 _atom_site_symmetry_multiplicity
 _atom_site_fract_x
 _atom_site_fract_y
 _atom_site_fract_z
 _atom_site_occupancy
  Na  Na0  1  0.63680380  0.00836245  0.24364650  1
  Na  Na1  1  0.37229379  0.36314694  0.24453838  1
  Na  Na2  1  0.99195783  0.62813055  0.24457102  1
  Na  Na3  1  0.63176137  0.62212435  0.74746578  1
  Na  Na4  1  0.98873016  0.36929073  0.75062816  1
  Na  Na5  1  0.38011052  0.00631925  0.74628523  1
  Na  Na6  1  0.30756103  0.33516080  0.58603232  1
  Na  Na7  1  0.03006721  0.69795914  0.58457516  1
  Na  Na8  1  0.66416064  0.97112019  0.58866000  1
  Na  Na9  1  0.30772601  0.97048698  0.08300488  1
  Na  Na10  1  0.66257079  0.69241417  0.08299296  1
  Na  Na11  1  0.02919870  0.33728606  0.08291196  1
  Na  Na12  1  0.96402164  0.66575310  0.91731503  1
  Na  Na13  1  0.70184622  0.03691898  0.91719391  1
  Na  Na14  1  0.33452740  0.29895493  0.91803551  1
  Na  Na15  1  0.96662946  0.29173587  0.41484452  1
  Na  Na16  1  0.32217700  0.03625605  0.41633538  1
  Na  Na17  1  0.71087814  0.67299028  0.41425054  1
  Na  Na18  1  0.00380716  0.99975747  0.49771552  1
  Na  Na19  1  0.99993994  0.00032786  0.99939559  1
  Na  Na20  1  0.66988835  0.33316178  0.83108513  1
  Na  Na21  1  0.66698769  0.33469781  0.33102916  1
  Na  Na22  1  0.33347855  0.66665275  0.16253920  1
  Na  Na23  1  0.33707413  0.67084463  0.66799329  1
  Mg  Mg0  1  0.00276037  0.00006878  0.35477727  1
  Mg  Mg1  1  0.66459387  0.33170449  0.68666556  1
  Mg  Mg2  1  0.66676518  0.33297815  0.18113394  1
  Si  Si0  1  0.00501117  0.71372467  0.75287503  1
  Si  Si1  1  0.71285850  0.99583979  0.75183394  1
  Si  Si2  1  0.37564112  0.04088690  0.58350699  1
  Si  Si3  1  0.66428216  0.62750878  0.58402041  1
  Si  Si4  1  0.95997993  0.62402214  0.08384584  1
  Si  Si5  1  0.66370007  0.03975574  0.08378429  1
  Si  Si6  1  0.37619952  0.33639664  0.08394482  1
  Si  Si7  1  0.61875403  0.66475507  0.91609246  1
  Si  Si8  1  0.04644483  0.38000627  0.91576405  1
  Si  Si9  1  0.33480442  0.95745310  0.91648367  1
  Si  Si10  1  0.33725613  0.38246142  0.41845613  1
  Si  Si11  1  0.04218068  0.65961583  0.41843162  1
  Ge  Ge0  1  0.99524438  0.99661336  0.85524057  1
  Ge  Ge1  1  0.99819935  0.98693006  0.64849968  1
  Ge  Ge2  1  0.99980231  0.99945935  0.14346407  1
  Ge  Ge3  1  0.66697044  0.33363387  0.98101828  1
  Ge  Ge4  1  0.66424139  0.34421307  0.48221763  1
  Ge  Ge5  1  0.33259922  0.66650323  0.01844131  1
  Ge  Ge6  1  0.33334833  0.66846026  0.51924369  1
  Ge  Ge7  1  0.32951591  0.66035280  0.31652356  1
  Ge  Ge8  1  0.33597060  0.67500394  0.81518013  1
  P  P0  1  0.29030793  0.99574638  0.25244230  1
  P  P1  1  0.70650889  0.71180334  0.25250907  1
  P  P2  1  0.00325113  0.29195621  0.25211862  1
  P  P3  1  0.28035111  0.28444998  0.75086252  1
  P  P4  1  0.95758270  0.33435297  0.58277510  1
  P  P5  1  0.61705195  0.95531619  0.41688124  1
  O  O0  1  0.20765254  0.02221511  0.30922796  1
  O  O1  1  0.81520249  0.79516551  0.30935219  1
  O  O2  1  0.97722901  0.18324655  0.30912092  1
  O  O3  1  0.19624045  0.16886888  0.80918407  1
  O  O4  1  0.97139864  0.80729605  0.81221859  1
  O  O5  1  0.83930559  0.03368634  0.81215681  1
  O  O6  1  0.80114215  0.95910748  0.68945915  1
  O  O7  1  0.16313898  0.20185473  0.69167277  1
  O  O8  1  0.04945544  0.83795717  0.69000058  1
  O  O9  1  0.79029717  0.82929080  0.19287019  1
  O  O10  1  0.03806111  0.20859112  0.19292455  1
  O  O11  1  0.17147509  0.95975649  0.19308560  1
  O  O12  1  0.88342656  0.37219410  0.63953677  1
  O  O13  1  0.49519446  0.11146969  0.64323850  1
  O  O14  1  0.61715233  0.50624277  0.64330462  1
  O  O15  1  0.89123896  0.51057633  0.14524895  1
  O  O16  1  0.61900469  0.10894401  0.14491947  1
  O  O17  1  0.48998376  0.38082457  0.14525245  1
  O  O18  1  0.45956754  0.28932813  0.02327519  1
  O  O19  1  0.82945386  0.54037960  0.02308916  1
  O  O20  1  0.71127929  0.17090837  0.02315932  1
  O  O21  1  0.46436054  0.16995406  0.52152977  1
  O  O22  1  0.71265068  0.54607576  0.52261672  1
  O  O23  1  0.83740060  0.29603384  0.52419807  1
  O  O24  1  0.53487356  0.70795583  0.97589247  1
  O  O25  1  0.17210913  0.46375579  0.97599727  1
  O  O26  1  0.28949525  0.82833140  0.97589900  1
  O  O27  1  0.53411616  0.83815215  0.47470668  1
  O  O28  1  0.30406105  0.47567849  0.47764434  1
  O  O29  1  0.17095398  0.69850863  0.47751342  1
  O  O30  1  0.12862981  0.62020364  0.35631598  1
  O  O31  1  0.49701370  0.87285916  0.35843392  1
  O  O32  1  0.38305411  0.51032675  0.35645504  1
  O  O33  1  0.13158245  0.50668986  0.85494736  1
  O  O34  1  0.37971138  0.87619384  0.85579519  1
  O  O35  1  0.49179750  0.62181217  0.85524286  1
  O  O36  1  0.01621764  0.82638857  0.41509234  1
  O  O37  1  0.79766903  0.97494557  0.41227385  1
  O  O38  1  0.16639364  0.19199208  0.41529760  1
  O  O39  1  0.02782753  0.18497340  0.91094695  1
  O  O40  1  0.16001498  0.97938603  0.91057695  1
  O  O41  1  0.81519427  0.84118023  0.91223904  1
  O  O42  1  0.97854047  0.16955037  0.58645575  1
  O  O43  1  0.18020497  0.02829234  0.58756892  1
  O  O44  1  0.84303958  0.82450753  0.58727760  1
  O  O45  1  0.97815177  0.82092605  0.08970419  1
  O  O46  1  0.84309762  0.02172805  0.08974399  1
  O  O47  1  0.17883925  0.15666861  0.08987086  1
  O  O48  1  0.68952805  0.16434565  0.74915358  1
  O  O49  1  0.46122439  0.30385350  0.74757581  1
  O  O50  1  0.83324770  0.52401590  0.74874391  1
  O  O51  1  0.68239022  0.52804540  0.24737826  1
  O  O52  1  0.84370737  0.31701932  0.24695427  1
  O  O53  1  0.47457868  0.15616813  0.24696098  1
  O  O54  1  0.63907896  0.49027497  0.92182180  1
  O  O55  1  0.85126425  0.36079808  0.92174449  1
  O  O56  1  0.51061603  0.15148945  0.92253450  1
  O  O57  1  0.63118799  0.13686249  0.42154458  1
  O  O58  1  0.51736572  0.36684426  0.42191172  1
  O  O59  1  0.85025269  0.47522142  0.42340165  1
  O  O60  1  0.35026198  0.50667690  0.07450191  1
  O  O61  1  0.15661786  0.64937567  0.07439152  1
  O  O62  1  0.49303087  0.84344707  0.07427279  1
  O  O63  1  0.34743105  0.84195811  0.57440775  1
  O  O64  1  0.49135662  0.65241927  0.57413467  1
  O  O65  1  0.14485141  0.49909303  0.57580711  1
  O  O66  1  0.30496005  0.82323499  0.25516193  1
  O  O67  1  0.51978976  0.70014723  0.25424387  1
  O  O68  1  0.17794772  0.47871715  0.25366318  1
  O  O69  1  0.29289710  0.46607715  0.75372970  1
  O  O70  1  0.18576185  0.69925564  0.75596733  1
  O  O71  1  0.52037580  0.81185928  0.75537985  1
loop_
_geom_bond_atom_site_label_1
_geom_bond_atom_site_label_2
_geom_bond_distance
_geom_bond_site_symmetry_2
Na0 O16 2.353670 1_555
Na0 O53 2.382764 1_555
Na0 O67 2.404477 1_545
Na0 O52 2.418421 1_555
Na0 O66 2.558217 1_545
Na0 O31 2.770250 1_545
Na0 O9 2.786556 1_545
Na0 O2 2.969435 1_555
Na1 O17 2.363158 1_555
Na1 O51 2.376406 1_555
Na1 O68 2.412204 1_555
Na1 O53 2.422828 1_555
Na1 O67 2.608217 1_555
Na1 O32 2.739964 1_555
Na1 O10 2.795687 1_555
Na1 O0 2.970782 1_555
Na2 O15 2.367563 1_555
Na2 O52 2.394138 1_555
Na2 O51 2.419060 1_555
Na2 O66 2.432185 1_655
Na2 O68 2.587246 1_655
Na2 O30 2.724483 1_655
Na2 O11 2.783424 1_655
Na3 O50 2.343691 1_555
Na3 O71 2.347006 1_555
Na3 O49 2.449376 1_555
Na3 O14 2.462251 1_555
Na3 O69 2.599993 1_555
Na3 O35 2.645644 1_555
Na3 O6 2.877535 1_555
Na3 O4 2.959778 1_555
Na4 O48 2.343631 1_555
Na4 O69 2.379882 1_655
Na4 O50 2.382626 1_555
Na4 O70 2.555306 1_655
Na4 O33 2.583613 1_655
Na4 O12 2.587766 1_555
Na4 O5 2.907186 1_555
Na4 O7 2.922685 1_655
Na5 O49 2.367572 1_555
Na5 O48 2.369701 1_555
Na5 O70 2.396215 1_545
Na5 O13 2.438082 1_555
Na5 O71 2.590200 1_545
Na5 O34 2.638253 1_545
Na5 O8 2.811473 1_545
Na6 O43 2.372230 1_555
Na6 O64 2.462012 1_555
Na6 O65 2.517949 1_555
Na6 O42 2.518699 1_455
Na6 O7 2.599772 1_555
Na6 O28 2.666448 1_555
Na6 O14 2.681154 1_555
Na6 O21 2.844419 1_555
Na7 O44 2.422486 1_455
Na7 O63 2.442530 1_555
Na7 O65 2.447254 1_555
Na7 O43 2.545447 1_565
Na7 O8 2.570953 1_555
Na7 O29 2.635283 1_555
Na7 O12 2.775502 1_455
Na7 O22 2.778354 1_455
Na8 O42 2.435307 1_565
Na8 O63 2.457709 1_555
Na8 O64 2.474507 1_555
Na8 O44 2.503313 1_555
Na8 O6 2.526920 1_555
Na8 O13 2.658737 1_565
Na8 O27 2.735237 1_555
Na8 O23 2.861107 1_565
Na9 O62 2.419032 1_555
Na9 O47 2.439219 1_565
Na9 O61 2.478869 1_555
Na9 O45 2.530372 1_455
Na9 O26 2.613952 1_554
Na9 O11 2.655459 1_555
Na9 O16 2.740195 1_565
Na9 O18 2.770949 1_565
Na10 O60 2.412820 1_555
Na10 O45 2.433774 1_555
Na10 O62 2.469780 1_555
Na10 O46 2.540628 1_565
Na10 O24 2.616006 1_554
Na10 O9 2.659651 1_555
Na10 O17 2.750765 1_555
Na10 O19 2.775460 1_555
Na11 O61 2.420909 1_555
Na11 O46 2.442850 1_455
Na11 O60 2.465706 1_555
Na11 O47 2.544949 1_555
Na11 O25 2.608737 1_554
Na11 O10 2.661378 1_555
Na11 O15 2.754193 1_455
Na11 O20 2.759359 1_455
Na12 O55 2.374396 1_555
Na12 O40 2.439456 1_655
Na12 O54 2.492125 1_555
Na12 O41 2.495858 1_555
Na12 O19 2.565769 1_556
Na12 O4 2.585567 1_555
Na12 O26 2.797934 1_655
Na12 O33 2.852580 1_655
Na13 O56 2.374175 1_555
Na13 O41 2.406235 1_545
Na13 O55 2.495940 1_555
Na13 O39 2.502276 1_655
Na13 O20 2.573894 1_556
Na13 O5 2.590399 1_555
Na13 O34 2.803722 1_545
Na13 O24 2.828912 1_545
Na14 O54 2.359108 1_555
Na14 O39 2.378203 1_555
Na14 O40 2.466418 1_545
Na14 O56 2.489152 1_555
Na14 O18 2.555903 1_556
Na14 O3 2.646440 1_555
Na14 O25 2.812467 1_555
Na14 O35 2.828838 1_555
Na15 O59 2.331438 1_555
Na15 O38 2.340141 1_655
Na15 O37 2.438541 1_545
Na15 O2 2.510379 1_555
Na15 O57 2.574156 1_555
Na15 O23 2.642611 1_555
Na15 O30 2.823971 1_655
Na15 O28 2.924882 1_655
Na16 O38 2.392508 1_555
Na16 O36 2.397034 1_545
Na16 O57 2.415408 1_555
Na16 O0 2.512398 1_555
Na16 O58 2.558350 1_555
Na16 O21 2.591441 1_555
Na16 O31 2.887878 1_545
Na16 O29 2.917992 1_545
Na17 O36 2.337485 1_655
Na17 O58 2.385446 1_555
Na17 O37 2.392914 1_555
Na17 O1 2.488592 1_555
Na17 O22 2.607772 1_555
Na17 O59 2.610600 1_555
Na17 O32 2.806273 1_555
Na17 O27 2.937848 1_555
Na18 O38 2.388939 1_565
Na18 O36 2.404931 1_555
Na18 O43 2.429053 1_565
Na18 O44 2.447318 1_455
Na18 O42 2.527358 1_465
Na18 O37 2.530477 1_455
Na19 O41 2.437415 1_545
Na19 O39 2.451754 1_655
Na19 O40 2.453858 1_645
Na19 O46 2.464181 1_556
Na19 O45 2.467959 1_546
Na19 O47 2.468859 1_656
Na20 O50 2.384376 1_555
Na20 O48 2.390919 1_555
Na20 O55 2.470938 1_555
Na20 O56 2.496554 1_555
Na20 O49 2.504489 1_555
Na20 O54 2.509136 1_555
Na21 O51 2.451692 1_555
Na21 O52 2.458827 1_555
Na21 O53 2.458984 1_555
Na21 O58 2.470926 1_555
Na21 O59 2.486855 1_555
Na21 O57 2.543446 1_555
Na22 O61 2.425719 1_555
Na22 O62 2.427097 1_555
Na22 O60 2.432661 1_555
Na22 O67 2.503850 1_555
Na22 O68 2.504317 1_555
Na22 O66 2.530895 1_555
Na23 O71 2.401383 1_555
Na23 O70 2.416986 1_555
Na23 O69 2.488259 1_555
Na23 O64 2.502843 1_555
Na23 O63 2.506883 1_555
Na23 O65 2.575385 1_555
Mg0 O0 1.985767 1_555
Mg0 O1 2.005060 1_445
Mg0 O2 2.009919 1_455
Mg0 O38 2.065035 1_555
Mg0 O36 2.068782 1_545
Mg0 O37 2.119402 1_445
Mg1 O13 2.008323 1_555
Mg1 O14 2.027088 1_555
Mg1 O12 2.055198 1_555
Mg1 O48 2.100965 1_555
Mg1 O50 2.101365 1_555
Mg1 O49 2.144311 1_555
Mg2 O17 1.973280 1_555
Mg2 O15 1.973363 1_555
Mg2 O16 1.981108 1_555
Mg2 O53 2.170617 1_555
Mg2 O52 2.173986 1_555
Mg2 O51 2.205216 1_555
Ge0 O5 1.826463 1_565
Ge0 O4 1.843606 1_555
Ge0 O41 1.939489 1_555
Ge0 O3 1.941336 1_665
Ge0 O40 1.951501 1_655
Ge0 O39 1.967967 1_665
Ge1 O8 1.833581 1_655
Ge1 O6 1.859449 1_555
Ge1 O44 1.937669 1_555
Ge1 O7 1.967220 1_665
Ge1 O43 1.970015 1_665
Ge1 O42 2.178201 1_565
Ge2 O47 1.894057 1_665
Ge2 O46 1.894585 1_565
Ge2 O45 1.902532 1_555
Ge2 O9 2.013670 1_555
Ge2 O10 2.024897 1_665
Ge2 O11 2.030014 1_655
Ge3 O19 1.906868 1_556
Ge3 O18 1.907115 1_556
Ge3 O20 1.907757 1_556
Ge3 O56 1.977065 1_555
Ge3 O55 1.993875 1_555
Ge3 O54 1.995082 1_555
Ge4 O22 1.846084 1_555
Ge4 O21 1.871397 1_555
Ge4 O58 1.922851 1_555
Ge4 O59 1.940423 1_555
Ge4 O23 2.002741 1_555
Ge4 O57 2.164850 1_555
Ge5 O24 1.878422 1_554
Ge5 O25 1.885265 1_554
Ge5 O26 1.898891 1_554
Ge5 O61 1.919179 1_555
Ge5 O62 1.930309 1_555
Ge5 O60 1.931890 1_555
Ge6 O29 1.826164 1_555
Ge6 O28 1.838497 1_555
Ge6 O64 1.894109 1_555
Ge6 O63 1.908541 1_555
Ge6 O27 1.916137 1_555
Ge6 O65 2.007074 1_555
Ge7 O32 1.837626 1_555
Ge7 O30 1.842458 1_555
Ge7 O31 1.947439 1_555
Ge7 O68 2.025903 1_555
Ge7 O67 2.046151 1_555
Ge7 O66 2.053559 1_555
Ge8 O34 1.854125 1_555
Ge8 O35 1.877999 1_555
Ge8 O33 1.880129 1_555
Ge8 O70 1.935033 1_555
Ge8 O71 1.956645 1_555
Ge8 O69 2.161924 1_555
O0 P0 1.510785 1_545
O1 P1 1.511210 1_555
O2 P2 1.511890 1_655
O3 P3 1.561129 1_555
O4 Si0 1.640559 1_655
O5 Si1 1.643192 1_545
O6 Si1 1.675277 1_555
O7 P3 1.582251 1_555
O8 Si0 1.670523 1_555
O9 P1 1.590968 1_555
O10 P2 1.589681 1_555
O11 P0 1.590215 1_555
O12 P4 1.511278 1_555
O13 Si2 1.590270 1_555
O14 Si3 1.591047 1_555
O15 Si4 1.593533 1_555
O16 Si5 1.594397 1_555
O17 Si6 1.593946 1_555
O18 Si6 1.662634 1_555
O19 Si4 1.663234 1_555
O20 Si5 1.662917 1_555
O21 Si2 1.682106 1_555
O22 Si3 1.672582 1_555
O23 P4 1.580718 1_555
O24 Si7 1.634082 1_555
O25 Si8 1.634483 1_555
O26 Si9 1.633916 1_555
O27 P5 1.556930 1_555
O28 Si10 1.634415 1_555
O29 Si11 1.632668 1_555
O30 Si11 1.671970 1_555
O31 P5 1.579841 1_555
O32 Si10 1.671744 1_555
O33 Si8 1.648696 1_555
O34 Si9 1.644990 1_555
O35 Si7 1.649426 1_555
O36 Si11 1.610686 1_555
O37 P5 1.520992 1_555
O38 Si10 1.609664 1_555
O39 Si8 1.660279 1_555
O40 Si9 1.657064 1_555
O41 Si7 1.659500 1_555
O42 P4 1.567308 1_555
O43 Si2 1.677686 1_555
O44 Si3 1.672343 1_555
O45 Si4 1.680113 1_555
O46 Si5 1.677595 1_555
O47 Si6 1.679365 1_555
O48 Si1 1.611493 1_545
O49 P3 1.522448 1_555
O50 Si0 1.610158 1_655
O51 P1 1.541460 1_555
O52 P2 1.538801 1_655
O53 P0 1.540814 1_545
O54 Si7 1.652135 1_555
O55 Si8 1.652615 1_655
O56 Si9 1.650143 1_545
O57 P5 1.557910 1_545
O58 Si10 1.668489 1_555
O59 Si11 1.670496 1_655
O60 Si6 1.652230 1_555
O61 Si4 1.650863 1_455
O62 Si5 1.651554 1_565
O63 Si2 1.669093 1_565
O64 Si3 1.665160 1_555
O65 P4 1.574501 1_455
O66 P0 1.602666 1_555
O67 P1 1.602572 1_555
O68 P2 1.604327 1_555
O69 P3 1.562693 1_555
O70 Si0 1.668107 1_555
O71 Si1 1.669712 1_555
