# generated using pymatgen
data_Na5Mg2Zr2P5SO24
_symmetry_space_group_name_H-M   'P 1'
_cell_length_a   8.98499216
_cell_length_b   9.00454922
_cell_length_c   22.69820983
_cell_angle_alpha   90.16539756
_cell_angle_beta   89.96302186
_cell_angle_gamma   120.11572001
_symmetry_Int_Tables_number   1
_chemical_formula_structural   Na5Mg2Zr2P5SO24
_chemical_formula_sum   'Na15 Mg6 Zr6 P15 S3 O72'
_cell_volume   1588.51865600
_cell_formula_units_Z   3
loop_
 _symmetry_equiv_pos_site_id
 _symmetry_equiv_pos_as_xyz
  1  'x, y, z'
loop_
 _atom_site_type_symbol
 _atom_site_label
 _atom_site_symmetry_multiplicity
 _atom_site_fract_x
 _atom_site_fract_y
 _atom_site_fract_z
 _atom_site_occupancy
  Na  Na0  1  0.64103789  0.00013694  0.25364949  1
  Na  Na1  1  0.36948113  0.37563135  0.24605297  1
  Na  Na2  1  0.99231784  0.62100716  0.25342550  1
  Na  Na3  1  0.64204624  0.63038167  0.74534555  1
  Na  Na4  1  0.98641604  0.35490691  0.74675587  1
  Na  Na5  1  0.37062522  0.01520444  0.74667616  1
  Na  Na6  1  0.30408198  0.96361839  0.07349725  1
  Na  Na7  1  0.03982525  0.34836653  0.07543915  1
  Na  Na8  1  0.70986180  0.68026198  0.41587919  1
  Na  Na9  1  0.00559296  0.00441177  0.49733789  1
  Na  Na10  1  0.99962681  0.99810837  0.98563416  1
  Na  Na11  1  0.66700253  0.32773426  0.83146384  1
  Na  Na12  1  0.68219788  0.32766531  0.33386965  1
  Na  Na13  1  0.34663660  0.66051272  0.15992528  1
  Na  Na14  1  0.33521757  0.66548805  0.66235692  1
  Mg  Mg0  1  0.99185248  0.99982826  0.35198260  1
  Mg  Mg1  1  0.00839763  0.00809160  0.85181425  1
  Mg  Mg2  1  0.66759331  0.33534765  0.68193654  1
  Mg  Mg3  1  0.67142708  0.33986887  0.18012456  1
  Mg  Mg4  1  0.33349207  0.66572105  0.01621330  1
  Mg  Mg5  1  0.32823966  0.66493215  0.31864825  1
  Zr  Zr0  1  0.99808943  0.99787364  0.64613386  1
  Zr  Zr1  1  0.98751813  0.99608626  0.14658094  1
  Zr  Zr2  1  0.66773566  0.33273169  0.98016462  1
  Zr  Zr3  1  0.67342833  0.32734880  0.48292151  1
  Zr  Zr4  1  0.33096293  0.67516087  0.51954027  1
  Zr  Zr5  1  0.32703505  0.66799337  0.81910263  1
  P  P0  1  0.70106936  0.69888732  0.25405977  1
  P  P1  1  -0.00001279  0.29545765  0.25172337  1
  P  P2  1  0.29547675  0.29256946  0.75166021  1
  P  P3  1  0.99561067  0.70710433  0.75251548  1
  P  P4  1  0.70907279  0.00156865  0.75283741  1
  P  P5  1  0.96338472  0.33439207  0.58745685  1
  P  P6  1  0.37524955  0.04387761  0.58666667  1
  P  P7  1  0.66372512  0.62381012  0.58418327  1
  P  P8  1  0.96524495  0.62728147  0.08585354  1
  P  P9  1  0.65852938  0.03700595  0.08604921  1
  P  P10  1  0.37507405  0.33791850  0.08722578  1
  P  P11  1  0.03771319  0.36376153  0.92016601  1
  P  P12  1  0.32549758  0.96181582  0.92043320  1
  P  P13  1  0.62772869  0.95994911  0.41201636  1
  P  P14  1  0.03799069  0.67163445  0.41231334  1
  S  S0  1  0.29362883  0.00083472  0.25109626  1
  S  S1  1  0.63052680  0.67218539  0.91778115  1
  S  S2  1  0.33048150  0.36997052  0.41400603  1
  O  O0  1  0.20671438  0.02479225  0.30166771  1
  O  O1  1  0.81350063  0.78108751  0.30852613  1
  O  O2  1  0.97597156  0.17638914  0.30274880  1
  O  O3  1  0.21195223  0.17967979  0.80433445  1
  O  O4  1  0.96843599  0.79248230  0.80517147  1
  O  O5  1  0.82249815  0.02839238  0.80522854  1
  O  O6  1  0.79011151  0.96797939  0.69649389  1
  O  O7  1  0.17811802  0.21077487  0.69605038  1
  O  O8  1  0.03151486  0.82222614  0.69661235  1
  O  O9  1  0.79700263  0.81963872  0.19952879  1
  O  O10  1  0.02635383  0.21149858  0.19378937  1
  O  O11  1  0.19002049  0.97679057  0.19607639  1
  O  O12  1  0.88660069  0.35747416  0.64371941  1
  O  O13  1  0.47351141  0.11991304  0.64324442  1
  O  O14  1  0.64349149  0.52377682  0.64014424  1
  O  O15  1  0.88633854  0.52386647  0.14213676  1
  O  O16  1  0.63559199  0.11704589  0.14263378  1
  O  O17  1  0.47234013  0.35466980  0.14447238  1
  O  O18  1  0.46504001  0.30676966  0.03393369  1
  O  O19  1  0.84785161  0.53745283  0.03210323  1
  O  O20  1  0.69197084  0.15962309  0.03300642  1
  O  O21  1  0.46899590  0.15359058  0.53183034  1
  O  O22  1  0.68254443  0.53500528  0.52777034  1
  O  O23  1  0.85033493  0.31399927  0.53240588  1
  O  O24  1  0.53956436  0.68588928  0.96867871  1
  O  O25  1  0.14206658  0.45388264  0.97508623  1
  O  O26  1  0.31622278  0.85999999  0.97517280  1
  O  O27  1  0.52850857  0.84068290  0.46544737  1
  O  O28  1  0.31235687  0.45806820  0.46690671  1
  O  O29  1  0.14955657  0.68091933  0.46650753  1
  O  O30  1  0.11207749  0.64284488  0.35566968  1
  O  O31  1  0.52628156  0.88156980  0.35521500  1
  O  O32  1  0.35939545  0.47520081  0.36063508  1
  O  O33  1  0.12898723  0.47706169  0.86341394  1
  O  O34  1  0.35250666  0.87415610  0.86340045  1
  O  O35  1  0.52737482  0.64722128  0.86194594  1
  O  O36  1  0.01663117  0.83065796  0.41244349  1
  O  O37  1  0.80560555  0.97401161  0.41256824  1
  O  O38  1  0.18135864  0.19774370  0.40967521  1
  O  O39  1  0.01367883  0.18591678  0.91288621  1
  O  O40  1  0.16609810  0.97681144  0.91301143  1
  O  O41  1  0.80072363  0.82183985  0.91190308  1
  O  O42  1  0.98017337  0.17129298  0.58813520  1
  O  O43  1  0.19312733  0.02293782  0.58745293  1
  O  O44  1  0.82741294  0.80587346  0.58657076  1
  O  O45  1  0.98951804  0.81248338  0.08985598  1
  O  O46  1  0.82976430  0.02868362  0.08862627  1
  O  O47  1  0.19197017  0.16665191  0.08989750  1
  O  O48  1  0.68192145  0.15705654  0.74501498  1
  O  O49  1  0.47852900  0.32002082  0.74362810  1
  O  O50  1  0.84113635  0.52382240  0.74425909  1
  O  O51  1  0.67970423  0.51856308  0.24552722  1
  O  O52  1  0.83607078  0.31119661  0.24583191  1
  O  O53  1  0.46798272  0.15515916  0.24564567  1
  O  O54  1  0.64318770  0.51157210  0.92108259  1
  O  O55  1  0.85846502  0.35645475  0.92169031  1
  O  O56  1  0.49342124  0.14434119  0.92219677  1
  O  O57  1  0.64536080  0.14017426  0.42107535  1
  O  O58  1  0.49344033  0.36138298  0.42077226  1
  O  O59  1  0.85104917  0.51016527  0.42069014  1
  O  O60  1  0.34326736  0.48803882  0.07882907  1
  O  O61  1  0.14571450  0.64937473  0.07814732  1
  O  O62  1  0.50179951  0.86034873  0.07664953  1
  O  O63  1  0.35403509  0.86126790  0.57811194  1
  O  O64  1  0.50290759  0.64485706  0.57571418  1
  O  O65  1  0.14405490  0.49434787  0.57749063  1
  O  O66  1  0.31011830  0.84458069  0.25490156  1
  O  O67  1  0.52299154  0.68678053  0.25588184  1
  O  O68  1  0.16340913  0.47594246  0.25521245  1
  O  O69  1  0.31369717  0.47646065  0.75659459  1
  O  O70  1  0.16305882  0.68984035  0.75647704  1
  O  O71  1  0.52514570  0.83451937  0.75665743  1
loop_
_geom_bond_atom_site_label_1
_geom_bond_atom_site_label_2
_geom_bond_distance
_geom_bond_site_symmetry_2
Na0 O52 2.454511 1_555
Na0 O67 2.467122 1_545
Na0 O31 2.534586 1_545
Na0 O53 2.564991 1_555
Na0 O66 2.573749 1_545
Na0 O16 2.743619 1_555
Na0 O2 2.831696 1_555
Na0 O9 2.895906 1_545
Na1 O51 2.413714 1_555
Na1 O67 2.433291 1_555
Na1 O68 2.442140 1_555
Na1 O17 2.525030 1_555
Na1 O53 2.547086 1_555
Na1 O32 2.764785 1_555
Na1 O10 2.918671 1_555
Na1 O0 3.016108 1_555
Na2 O52 2.418775 1_555
Na2 O68 2.467083 1_655
Na2 O51 2.484392 1_555
Na2 O30 2.524027 1_655
Na2 O66 2.537450 1_655
Na2 O15 2.684645 1_555
Na3 O50 2.417310 1_555
Na3 O49 2.418546 1_555
Na3 O71 2.546060 1_555
Na3 O69 2.566658 1_555
Na3 O14 2.573489 1_555
Na3 O6 2.863514 1_555
Na3 O35 2.870556 1_555
Na3 O4 2.876270 1_555
Na4 O48 2.401898 1_555
Na4 O50 2.452253 1_555
Na4 O12 2.509661 1_555
Na4 O69 2.581606 1_655
Na4 O70 2.618527 1_655
Na4 O7 2.864947 1_655
Na4 O5 2.872214 1_555
Na4 O33 2.904476 1_655
Na5 O49 2.410178 1_555
Na5 O48 2.423044 1_555
Na5 O13 2.527972 1_555
Na5 O70 2.575132 1_545
Na5 O71 2.625883 1_545
Na5 O3 2.836201 1_555
Na5 O8 2.876540 1_545
Na5 O34 2.910408 1_545
Na6 O62 2.384119 1_555
Na6 O26 2.439906 1_554
Na6 O61 2.450252 1_555
Na6 O45 2.473850 1_455
Na6 O47 2.517801 1_565
Na7 O60 2.362165 1_555
Na7 O61 2.380507 1_555
Na7 O25 2.463549 1_554
Na7 O46 2.547625 1_455
Na7 O47 2.627182 1_555
Na7 O20 2.872047 1_455
Na7 O10 2.935806 1_555
Na7 O15 2.976844 1_455
Na8 O37 2.336624 1_555
Na8 O36 2.385773 1_655
Na8 O59 2.432705 1_555
Na8 O58 2.537096 1_555
Na8 O1 2.605852 1_555
Na8 O22 2.813800 1_555
Na8 O27 2.891002 1_555
Na8 O32 3.009089 1_555
Na9 O36 2.511759 1_545
Na9 O37 2.552212 1_445
Na9 O38 2.596337 1_555
Na9 O43 2.602174 1_555
Na9 O42 2.623665 1_455
Na9 O44 2.646894 1_445
Na10 O40 2.296541 1_655
Na10 O39 2.324666 1_665
Na10 O41 2.378230 1_555
Na10 O47 2.871111 1_666
Na10 O45 2.875510 1_556
Na10 O46 2.878103 1_566
Na11 O48 2.533634 1_555
Na11 O50 2.593748 1_555
Na11 O49 2.594796 1_555
Na11 O55 2.602986 1_555
Na11 O56 2.613783 1_555
Na11 O54 2.694330 1_555
Na12 O52 2.475296 1_555
Na12 O57 2.517061 1_555
Na12 O59 2.523698 1_555
Na12 O51 2.652316 1_555
Na12 O53 2.667273 1_555
Na12 O58 2.714476 1_555
Na13 O60 2.395326 1_555
Na13 O62 2.500656 1_555
Na13 O61 2.556599 1_555
Na13 O67 2.633625 1_555
Na13 O68 2.724124 1_555
Na13 O66 2.833096 1_555
Na14 O65 2.523215 1_555
Na14 O64 2.539141 1_555
Na14 O63 2.552043 1_555
Na14 O71 2.681374 1_555
Na14 O69 2.683320 1_555
Na14 O70 2.708921 1_555
Mg0 O2 2.008718 1_565
Mg0 O1 2.060078 1_555
Mg0 O37 2.086632 1_555
Mg0 O36 2.146198 1_655
Mg0 O0 2.155212 1_665
Mg0 O38 2.175871 1_665
Mg1 O3 2.016200 1_555
Mg1 O5 2.061856 1_455
Mg1 O4 2.075611 1_445
Mg1 O39 2.097343 1_555
Mg1 O40 2.102819 1_545
Mg1 O41 2.241494 1_445
Mg2 O13 2.042766 1_555
Mg2 O14 2.050339 1_555
Mg2 O12 2.066327 1_555
Mg2 O49 2.151361 1_555
Mg2 O50 2.155496 1_555
Mg2 O48 2.205641 1_555
Mg3 O15 2.003206 1_555
Mg3 O17 2.028336 1_555
Mg3 O16 2.048356 1_555
Mg3 O51 2.159788 1_555
Mg3 O52 2.206305 1_555
Mg3 O53 2.297687 1_555
Mg4 O25 2.041512 1_554
Mg4 O26 2.057723 1_554
Mg4 O24 2.070387 1_554
Mg4 O62 2.137603 1_555
Mg4 O61 2.143226 1_555
Mg4 O60 2.177579 1_555
Mg5 O30 2.032024 1_555
Mg5 O31 2.042009 1_555
Mg5 O32 2.096444 1_555
Mg5 O68 2.149907 1_555
Mg5 O67 2.187082 1_555
Mg5 O66 2.239434 1_555
O0 S0 1.463039 1_555
O1 P0 1.530606 1_555
O2 P1 1.520581 1_655
O3 P2 1.505432 1_555
O4 P3 1.503940 1_555
O5 P4 1.504662 1_555
O6 P4 1.573149 1_565
O6 Zr0 2.089331 1_555
O7 P2 1.569912 1_555
O7 Zr0 2.110309 1_445
O8 P3 1.568517 1_455
O8 Zr0 2.095735 1_455
O9 P0 1.588445 1_555
O9 Zr1 2.044035 1_555
O10 P1 1.590750 1_555
O10 Zr1 2.083664 1_445
O11 S0 1.506919 1_565
O11 Zr1 2.218979 1_455
O12 P5 1.513695 1_555
O13 P6 1.512365 1_555
O14 P7 1.516520 1_555
O15 P8 1.531358 1_555
O16 P9 1.534564 1_555
O17 P10 1.530684 1_555
O18 P10 1.555507 1_555
O18 Zr2 2.105362 1_554
O19 P8 1.547616 1_555
O19 Zr2 2.098396 1_554
O20 P9 1.559872 1_555
O20 Zr2 2.065793 1_554
O21 P6 1.550940 1_555
O21 Zr3 2.043963 1_555
O22 P7 1.561132 1_555
O22 Zr3 2.091599 1_555
O23 P5 1.562052 1_555
O23 Zr3 1.999347 1_555
O24 S1 1.455007 1_555
O25 P11 1.524393 1_555
O26 P12 1.523495 1_555
O27 P13 1.569817 1_555
O27 Zr4 2.057288 1_555
O28 S2 1.490470 1_555
O28 Zr4 2.221573 1_555
O29 P14 1.562659 1_555
O29 Zr4 2.048436 1_555
O30 P14 1.527583 1_555
O31 P13 1.530332 1_555
O32 S2 1.480571 1_555
O33 P11 1.593551 1_555
O33 Zr5 2.017808 1_555
O34 P12 1.594898 1_555
O34 Zr5 2.018112 1_555
O35 S1 1.518726 1_555
O35 Zr5 2.135892 1_555
O36 P14 1.537213 1_555
O37 P13 1.538648 1_555
O38 S2 1.457426 1_555
O39 P11 1.513256 1_555
O40 P12 1.514043 1_555
O41 S1 1.450895 1_555
O42 P5 1.549943 1_555
O42 Zr0 2.112314 1_545
O43 P6 1.550460 1_555
O43 Zr0 2.120807 1_445
O44 P7 1.560020 1_555
O44 Zr0 2.120657 1_555
O45 P8 1.571967 1_555
O45 Zr1 2.099735 1_555
O46 P9 1.578606 1_555
O46 Zr1 2.061024 1_545
O47 P10 1.594679 1_555
O47 Zr1 2.136805 1_445
O48 P4 1.547760 1_555
O49 P2 1.546399 1_555
O50 P3 1.544396 1_555
O51 P0 1.548008 1_555
O52 P1 1.554636 1_655
O53 S0 1.488854 1_555
O54 S1 1.508619 1_555
O54 Zr2 2.193098 1_555
O55 P11 1.578918 1_655
O55 Zr2 2.091740 1_555
O56 P12 1.578158 1_545
O56 Zr2 2.094170 1_555
O57 P13 1.562411 1_545
O57 Zr3 2.105983 1_555
O58 S2 1.512407 1_555
O58 Zr3 2.280793 1_555
O59 P14 1.588052 1_655
O59 Zr3 2.150884 1_555
O60 P10 1.527903 1_555
O61 P8 1.541303 1_455
O62 P9 1.519704 1_565
O63 P6 1.568917 1_565
O63 Zr4 2.063416 1_555
O64 P7 1.560802 1_555
O64 Zr4 2.124754 1_555
O65 P5 1.554351 1_455
O65 Zr4 2.113532 1_555
O66 S0 1.489616 1_565
O67 P0 1.548737 1_555
O68 P1 1.551859 1_555
O69 P2 1.583709 1_555
O69 Zr5 2.186451 1_555
O70 P3 1.590846 1_455
O70 Zr5 2.127248 1_555
O71 P4 1.583425 1_565
O71 Zr5 2.180944 1_555
