# generated using pymatgen
data_Na14Mg4Sc4Si5S7O48
_symmetry_space_group_name_H-M   'P 1'
_cell_length_a   18.28682666
_cell_length_b   9.10554318
_cell_length_c   22.38579539
_cell_angle_alpha   89.97758998
_cell_angle_beta   90.56708611
_cell_angle_gamma   119.86716553
_symmetry_Int_Tables_number   1
_chemical_formula_structural   Na14Mg4Sc4Si5S7O48
_chemical_formula_sum   'Na42 Mg12 Sc12 Si15 S21 O144'
_cell_volume   3232.21253247
_cell_formula_units_Z   3
loop_
 _symmetry_equiv_pos_site_id
 _symmetry_equiv_pos_as_xyz
  1  'x, y, z'
loop_
 _atom_site_type_symbol
 _atom_site_label
 _atom_site_symmetry_multiplicity
 _atom_site_fract_x
 _atom_site_fract_y
 _atom_site_fract_z
 _atom_site_occupancy
  Na  Na0  1  0.80724623  0.99394599  0.24969765  1
  Na  Na1  1  0.18409242  0.35147684  0.25259184  1
  Na  Na2  1  0.68158552  0.35090750  0.25138173  1
  Na  Na3  1  0.00396253  0.65102373  0.24651664  1
  Na  Na4  1  0.50897036  0.64981719  0.24058120  1
  Na  Na5  1  0.31816208  0.62007405  0.75248110  1
  Na  Na6  1  0.00807105  0.36684516  0.74068609  1
  Na  Na7  1  0.50309546  0.37160509  0.74549952  1
  Na  Na8  1  0.18479618  0.01730618  0.75067736  1
  Na  Na9  1  0.67196375  0.00033927  0.75129429  1
  Na  Na10  1  0.14855696  0.32454942  0.58275883  1
  Na  Na11  1  0.65222602  0.32110900  0.58294144  1
  Na  Na12  1  0.32841390  0.97686397  0.59083038  1
  Na  Na13  1  0.83319362  0.99014105  0.58514564  1
  Na  Na14  1  0.15708263  0.98933534  0.07556490  1
  Na  Na15  1  0.64702145  0.97011632  0.07758504  1
  Na  Na16  1  0.33520346  0.67879667  0.08088315  1
  Na  Na17  1  0.82614645  0.67890825  0.08462711  1
  Na  Na18  1  0.48645214  0.67967237  0.91719014  1
  Na  Na19  1  0.99122408  0.68061867  0.91449366  1
  Na  Na20  1  0.34236424  0.03436658  0.91112403  1
  Na  Na21  1  0.83986654  0.02569136  0.91216386  1
  Na  Na22  1  0.16860398  0.27943386  0.91357623  1
  Na  Na23  1  0.66447847  0.27965830  0.91493994  1
  Na  Na24  1  0.49267335  0.30424253  0.41892006  1
  Na  Na25  1  0.98735417  0.29873687  0.43185142  1
  Na  Na26  1  0.16751071  0.05438667  0.42164886  1
  Na  Na27  1  0.66804139  0.05709321  0.41904199  1
  Na  Na28  1  0.34382066  0.65437027  0.41777970  1
  Na  Na29  1  0.83950802  0.64954958  0.41657734  1
  Na  Na30  1  0.01214308  0.01645793  0.50616742  1
  Na  Na31  1  0.51428538  0.00746265  0.50233657  1
  Na  Na32  1  0.01296568  0.02135121  0.99661361  1
  Na  Na33  1  0.51244857  0.00756222  0.00092621  1
  Na  Na34  1  0.32769840  0.33339674  0.82772759  1
  Na  Na35  1  0.81804620  0.32759066  0.83062613  1
  Na  Na36  1  0.32182802  0.31130444  0.33228780  1
  Na  Na37  1  0.81594759  0.31989390  0.33542493  1
  Na  Na38  1  0.17024395  0.67061850  0.16462494  1
  Na  Na39  1  0.65255277  0.64564625  0.16277103  1
  Na  Na40  1  0.15516852  0.65919366  0.66617085  1
  Na  Na41  1  0.66073838  0.66750369  0.67097368  1
  Mg  Mg0  1  0.01087705  0.01593847  0.34995783  1
  Mg  Mg1  1  0.51334369  0.02226837  0.34836263  1
  Mg  Mg2  1  0.01127272  0.00224797  0.84798740  1
  Mg  Mg3  1  0.51285890  0.99280416  0.84514415  1
  Mg  Mg4  1  0.32750882  0.32948300  0.68591313  1
  Mg  Mg5  1  0.82143649  0.32103493  0.18140218  1
  Mg  Mg6  1  0.32613905  0.33073852  0.98627528  1
  Mg  Mg7  1  0.82293608  0.31651070  0.98424678  1
  Mg  Mg8  1  0.32301286  0.33264492  0.48645371  1
  Mg  Mg9  1  0.82649919  0.32432431  0.48810715  1
  Mg  Mg10  1  0.66535157  0.66255696  0.31739419  1
  Mg  Mg11  1  0.16795669  0.67145488  0.81613369  1
  Sc  Sc0  1  0.01035008  0.01735265  0.64748860  1
  Sc  Sc1  1  0.51167777  0.00028294  0.65286022  1
  Sc  Sc2  1  0.01005821  0.00818758  0.14880322  1
  Sc  Sc3  1  0.51108468  0.00428072  0.14643372  1
  Sc  Sc4  1  0.82802939  0.32191803  0.68111609  1
  Sc  Sc5  1  0.32968913  0.33279672  0.18070364  1
  Sc  Sc6  1  0.16319597  0.66151395  0.01592615  1
  Sc  Sc7  1  0.65337421  0.65702870  0.02146813  1
  Sc  Sc8  1  0.15492571  0.65110129  0.52359997  1
  Sc  Sc9  1  0.66208239  0.66198757  0.51766482  1
  Sc  Sc10  1  0.17167001  0.67481896  0.31636160  1
  Sc  Sc11  1  0.66631777  0.67008978  0.81313344  1
  Si  Si0  1  0.15170594  0.99817527  0.25159493  1
  Si  Si1  1  0.65278019  0.99605491  0.25309286  1
  Si  Si2  1  0.15063321  0.30874409  0.75351967  1
  Si  Si3  1  0.65283450  0.30460395  0.75140607  1
  Si  Si4  1  0.49532716  0.69159216  0.75322033  1
  Si  Si5  1  0.97761203  0.33013442  0.58285756  1
  Si  Si6  1  0.18804716  0.03688073  0.58307913  1
  Si  Si7  1  0.68200094  0.02835679  0.58000325  1
  Si  Si8  1  0.47744648  0.62443910  0.08312852  1
  Si  Si9  1  0.18268516  0.33752207  0.08217727  1
  Si  Si10  1  0.68651457  0.34089722  0.08332814  1
  Si  Si11  1  0.16795508  0.96478055  0.91593695  1
  Si  Si12  1  0.66870704  0.96717014  0.91712479  1
  Si  Si13  1  0.16725690  0.37078121  0.41545835  1
  Si  Si14  1  0.66819773  0.37132889  0.41500057  1
  S  S0  1  0.35409867  0.71102869  0.25178588  1
  S  S1  1  0.85569068  0.71014074  0.25093973  1
  S  S2  1  0.99789264  0.29362802  0.25111824  1
  S  S3  1  0.49777273  0.29291389  0.25255064  1
  S  S4  1  0.99820981  0.70266654  0.75241184  1
  S  S5  1  0.35386508  0.99749746  0.75091206  1
  S  S6  1  0.85578444  0.99934018  0.75170364  1
  S  S7  1  0.47740475  0.33309318  0.58196069  1
  S  S8  1  0.33604543  0.63314085  0.58225953  1
  S  S9  1  0.83336817  0.62847370  0.58078186  1
  S  S10  1  0.97805002  0.62095519  0.08451601  1
  S  S11  1  0.33336595  0.03776042  0.08121804  1
  S  S12  1  0.83719979  0.04175738  0.08367224  1
  S  S13  1  0.31344085  0.66951301  0.91593371  1
  S  S14  1  0.81686207  0.67024236  0.91813987  1
  S  S15  1  0.01659622  0.37047361  0.91556883  1
  S  S16  1  0.51601226  0.36588882  0.91517204  1
  S  S17  1  0.31745838  0.96408436  0.41775767  1
  S  S18  1  0.81511514  0.95945304  0.41381163  1
  S  S19  1  0.01751202  0.66702590  0.41407280  1
  S  S20  1  0.51679652  0.66382898  0.41483332  1
  O  O0  1  0.10713118  0.02807508  0.30897324  1
  O  O1  1  0.61061587  0.03065671  0.31121246  1
  O  O2  1  0.40347058  0.79779443  0.30613877  1
  O  O3  1  0.90707526  0.79857178  0.30468708  1
  O  O4  1  0.48712727  0.19559815  0.30814141  1
  O  O5  1  0.98297719  0.19014127  0.30545919  1
  O  O6  1  0.10699529  0.19110955  0.81182937  1
  O  O7  1  0.61058164  0.18802387  0.81006667  1
  O  O8  1  0.47371648  0.76437202  0.81290294  1
  O  O9  1  0.98715265  0.77791762  0.80825094  1
  O  O10  1  0.40578542  0.01652269  0.80494956  1
  O  O11  1  0.90588809  0.01294353  0.80594817  1
  O  O12  1  0.39387526  0.97517770  0.69629149  1
  O  O13  1  0.89500547  0.98055277  0.69701061  1
  O  O14  1  0.08891154  0.21706687  0.69384146  1
  O  O15  1  0.59274121  0.22023088  0.69070966  1
  O  O16  1  0.00633105  0.81006676  0.70051028  1
  O  O17  1  0.51521054  0.82645389  0.69818839  1
  O  O18  1  0.39246932  0.80762637  0.19725121  1
  O  O19  1  0.89532016  0.81475923  0.19670214  1
  O  O20  1  0.01026279  0.20715745  0.19908389  1
  O  O21  1  0.50607061  0.20310526  0.20051562  1
  O  O22  1  0.09037404  0.96462400  0.19146491  1
  O  O23  1  0.59235214  0.96733568  0.19352654  1
  O  O24  1  0.43888676  0.35266272  0.63577285  1
  O  O25  1  0.93348523  0.35181765  0.64286838  1
  O  O26  1  0.24822096  0.12234941  0.64140392  1
  O  O27  1  0.74179254  0.11661292  0.63985129  1
  O  O28  1  0.32636197  0.52947661  0.63477541  1
  O  O29  1  0.81936457  0.51666453  0.63238765  1
  O  O30  1  0.43457909  0.51615745  0.14451971  1
  O  O31  1  0.93957372  0.52415854  0.13929509  1
  O  O32  1  0.31872687  0.12034851  0.13361627  1
  O  O33  1  0.82895864  0.12655389  0.13779750  1
  O  O34  1  0.24087174  0.36670604  0.14301198  1
  O  O35  1  0.74420740  0.37999993  0.14404612  1
  O  O36  1  0.22166289  0.29634005  0.02447229  1
  O  O37  1  0.72722984  0.30307262  0.02497237  1
  O  O38  1  0.42117957  0.53587294  0.02406862  1
  O  O39  1  0.92875100  0.53611132  0.03013528  1
  O  O40  1  0.34437274  0.13347414  0.02656066  1
  O  O41  1  0.85043607  0.14426178  0.02942366  1
  O  O42  1  0.22438603  0.14879079  0.52207050  1
  O  O43  1  0.72232309  0.14318992  0.52115186  1
  O  O44  1  0.34890467  0.55876288  0.52659577  1
  O  O45  1  0.84532486  0.55639850  0.52528685  1
  O  O46  1  0.42905440  0.32303843  0.52662971  1
  O  O47  1  0.92395369  0.31054196  0.52216332  1
  O  O48  1  0.27044114  0.68458092  0.97076448  1
  O  O49  1  0.77891838  0.69454217  0.97293332  1
  O  O50  1  0.07405104  0.45022694  0.96836276  1
  O  O51  1  0.57271520  0.44660997  0.96801552  1
  O  O52  1  0.15408414  0.84449872  0.97638229  1
  O  O53  1  0.65910068  0.84935762  0.97559923  1
  O  O54  1  0.27847767  0.86242506  0.47119548  1
  O  O55  1  0.77461223  0.85730928  0.46817542  1
  O  O56  1  0.15679649  0.47146752  0.47233271  1
  O  O57  1  0.65544257  0.46839044  0.47364967  1
  O  O58  1  0.07369005  0.69873558  0.46628766  1
  O  O59  1  0.57408466  0.69801186  0.46720567  1
  O  O60  1  0.05850035  0.64519121  0.35968159  1
  O  O61  1  0.55567787  0.64053833  0.36062543  1
  O  O62  1  0.25963523  0.88444422  0.36489421  1
  O  O63  1  0.76097436  0.87722314  0.36045797  1
  O  O64  1  0.17858743  0.48794343  0.35559079  1
  O  O65  1  0.68084625  0.48775447  0.35640175  1
  O  O66  1  0.05555640  0.47123560  0.86175223  1
  O  O67  1  0.55706414  0.46998668  0.86151263  1
  O  O68  1  0.17925125  0.86910302  0.85862351  1
  O  O69  1  0.68225591  0.87257099  0.85921599  1
  O  O70  1  0.25999473  0.64414722  0.86287832  1
  O  O71  1  0.75967971  0.63572069  0.86628732  1
  O  O72  1  0.00483972  0.81567451  0.40873577  1
  O  O73  1  0.50230107  0.81075553  0.41053252  1
  O  O74  1  0.39970642  0.97093671  0.40851095  1
  O  O75  1  0.89878587  0.96954608  0.40864707  1
  O  O76  1  0.08070454  0.18393077  0.41413803  1
  O  O77  1  0.58076912  0.18345882  0.41509223  1
  O  O78  1  0.00188356  0.19406896  0.91188634  1
  O  O79  1  0.50347833  0.19225036  0.91017648  1
  O  O80  1  0.08033065  0.97773995  0.91533441  1
  O  O81  1  0.58261806  0.98166999  0.91590376  1
  O  O82  1  0.39581872  0.82894716  0.91365552  1
  O  O83  1  0.89992281  0.82886150  0.90990136  1
  O  O84  1  0.48200498  0.17214110  0.58380682  1
  O  O85  1  0.98244503  0.15169216  0.58671264  1
  O  O86  1  0.09346803  0.01811534  0.59031663  1
  O  O87  1  0.59014986  0.01936542  0.58651892  1
  O  O88  1  0.40726297  0.81050492  0.58779118  1
  O  O89  1  0.90515232  0.80145052  0.58964540  1
  O  O90  1  0.48339272  0.81374344  0.08790028  1
  O  O91  1  0.98171471  0.79158230  0.08726510  1
  O  O92  1  0.40491164  0.00834225  0.09076761  1
  O  O93  1  0.90879681  0.00796782  0.09005922  1
  O  O94  1  0.08897937  0.16345251  0.08971661  1
  O  O95  1  0.59240267  0.16945092  0.08959083  1
  O  O96  1  0.34657069  0.15265412  0.74646168  1
  O  O97  1  0.85048240  0.15929369  0.74934205  1
  O  O98  1  0.24293843  0.32250164  0.74644196  1
  O  O99  1  0.74414077  0.31055084  0.74356007  1
  O  O100  1  0.41746708  0.50053837  0.74168209  1
  O  O101  1  0.92531516  0.52812237  0.74694421  1
  O  O102  1  0.34794850  0.53946248  0.24988576  1
  O  O103  1  0.85255021  0.54319826  0.24690026  1
  O  O104  1  0.42458988  0.32156278  0.24744046  1
  O  O105  1  0.92562048  0.32156025  0.24224516  1
  O  O106  1  0.24386241  0.17060410  0.24445513  1
  O  O107  1  0.74788029  0.16565289  0.24663063  1
  O  O108  1  0.32516225  0.51961145  0.92032787  1
  O  O109  1  0.83252871  0.52441917  0.92321085  1
  O  O110  1  0.43352809  0.35749549  0.92168648  1
  O  O111  1  0.93471180  0.36478766  0.92484742  1
  O  O112  1  0.25347850  0.15298183  0.92088251  1
  O  O113  1  0.75540838  0.15511050  0.91848254  1
  O  O114  1  0.33167724  0.14006481  0.42180534  1
  O  O115  1  0.82688271  0.13291689  0.41785268  1
  O  O116  1  0.25423821  0.35748585  0.41750978  1
  O  O117  1  0.75398216  0.35441359  0.42045727  1
  O  O118  1  0.43444540  0.50585969  0.42333891  1
  O  O119  1  0.93459416  0.51079373  0.41951069  1
  O  O120  1  0.17929523  0.51509050  0.07824479  1
  O  O121  1  0.68161348  0.51645473  0.07588561  1
  O  O122  1  0.06686474  0.65572853  0.08115794  1
  O  O123  1  0.57627222  0.66545836  0.08227696  1
  O  O124  1  0.25421554  0.86459206  0.07777017  1
  O  O125  1  0.75843767  0.87356735  0.07913822  1
  O  O126  1  0.18312012  0.85074809  0.57597395  1
  O  O127  1  0.67914294  0.84403286  0.57599893  1
  O  O128  1  0.25681359  0.64331086  0.57672484  1
  O  O129  1  0.75451904  0.64328929  0.57653249  1
  O  O130  1  0.07672720  0.48694808  0.58242150  1
  O  O131  1  0.56662889  0.47835435  0.57845622  1
  O  O132  1  0.15385106  0.81815431  0.25487175  1
  O  O133  1  0.66028011  0.82207963  0.25621711  1
  O  O134  1  0.26547327  0.68014567  0.25433678  1
  O  O135  1  0.76923175  0.68549874  0.25402632  1
  O  O136  1  0.07689991  0.46292838  0.25580978  1
  O  O137  1  0.57657213  0.46275576  0.25553292  1
  O  O138  1  0.15918506  0.49801505  0.75618234  1
  O  O139  1  0.65956310  0.49068389  0.75607798  1
  O  O140  1  0.07723123  0.69211576  0.75535602  1
  O  O141  1  0.58498942  0.68617072  0.75663547  1
  O  O142  1  0.26802813  0.84614478  0.75425142  1
  O  O143  1  0.76843255  0.85384949  0.75423365  1
loop_
_geom_bond_atom_site_label_1
_geom_bond_atom_site_label_2
_geom_bond_distance
_geom_bond_site_symmetry_2
Na0 O107 2.305801 1_565
Na0 O133 2.347737 1_555
Na0 O135 2.537184 1_555
Na0 O63 2.671528 1_555
Na0 O105 2.681015 1_565
Na0 O33 2.725865 1_565
Na1 O106 2.395270 1_555
Na1 O134 2.595314 1_555
Na1 O102 2.609065 1_555
Na1 O136 2.619470 1_555
Na1 O64 2.646117 1_555
Na1 O34 2.649800 1_555
Na1 O0 2.854784 1_555
Na1 O20 3.005285 1_555
Na2 O107 2.523083 1_555
Na2 O137 2.585568 1_555
Na2 O35 2.628079 1_555
Na2 O135 2.643708 1_555
Na2 O65 2.664500 1_555
Na2 O103 2.721058 1_555
Na2 O1 2.871176 1_555
Na2 O21 3.006006 1_555
Na3 O132 2.387356 1_555
Na3 O103 2.433816 1_455
Na3 O105 2.603499 1_455
Na3 O136 2.650492 1_555
Na3 O31 2.659609 1_455
Na3 O60 2.723538 1_555
Na3 O22 2.776928 1_555
Na4 O133 2.428492 1_555
Na4 O30 2.500251 1_555
Na4 O137 2.574887 1_555
Na4 O104 2.597903 1_555
Na4 O102 2.605507 1_555
Na4 O23 2.726195 1_555
Na4 O61 2.825676 1_555
Na5 O98 2.352992 1_555
Na5 O138 2.545668 1_555
Na5 O100 2.553120 1_555
Na5 O142 2.638161 1_555
Na5 O70 2.751663 1_555
Na5 O28 2.789017 1_555
Na5 O8 2.801837 1_555
Na6 O138 2.424315 1_555
Na6 O25 2.535584 1_455
Na6 O97 2.549576 1_455
Na6 O101 2.585376 1_455
Na6 O140 2.596383 1_555
Na6 O14 2.680472 1_555
Na6 O66 2.852346 1_555
Na7 O100 2.380290 1_555
Na7 O141 2.495987 1_555
Na7 O139 2.513080 1_555
Na7 O96 2.546710 1_555
Na7 O24 2.680199 1_555
Na7 O67 2.755300 1_555
Na7 O15 2.895377 1_555
Na8 O98 2.433330 1_555
Na8 O96 2.579481 1_555
Na8 O140 2.617383 1_545
Na8 O142 2.666854 1_545
Na8 O26 2.682026 1_555
Na8 O68 2.745295 1_545
Na9 O99 2.457968 1_555
Na9 O141 2.489843 1_545
Na9 O143 2.690145 1_545
Na9 O69 2.726251 1_545
Na9 O17 2.747864 1_545
Na9 O27 2.773034 1_555
Na9 O7 2.802339 1_555
Na9 O97 2.837389 1_555
Na10 O130 2.417940 1_555
Na10 O86 2.456088 1_555
Na10 O128 2.577579 1_555
Na10 O85 2.637391 1_455
Na10 O14 2.705485 1_555
Na10 O56 2.779753 1_555
Na10 O42 2.928997 1_555
Na11 O87 2.395669 1_555
Na11 O129 2.581724 1_555
Na11 O131 2.596013 1_555
Na11 O15 2.627186 1_555
Na11 O84 2.706595 1_555
Na11 O57 2.776587 1_555
Na11 O29 2.872579 1_555
Na11 O43 2.878567 1_555
Na12 O126 2.330816 1_555
Na12 O84 2.471755 1_565
Na12 O88 2.560412 1_555
Na12 O12 2.639905 1_555
Na12 O128 2.659021 1_555
Na12 O26 2.675082 1_565
Na12 O54 2.845715 1_555
Na13 O85 2.369339 1_565
Na13 O127 2.450290 1_555
Na13 O89 2.634907 1_555
Na13 O129 2.747937 1_555
Na13 O27 2.752869 1_565
Na13 O13 2.756508 1_555
Na13 O55 2.850152 1_555
Na13 O47 2.911070 1_565
Na14 O94 2.477844 1_565
Na14 O124 2.540740 1_555
Na14 O52 2.569006 1_554
Na14 O122 2.641466 1_555
Na14 O36 2.693238 1_565
Na14 O91 2.803607 1_455
Na14 O22 2.838850 1_555
Na14 O32 2.874479 1_565
Na15 O123 2.410028 1_555
Na15 O95 2.485063 1_565
Na15 O125 2.589950 1_555
Na15 O53 2.593059 1_554
Na15 O90 2.608497 1_555
Na15 O23 2.786130 1_555
Na15 O37 2.886601 1_565
Na16 O90 2.356569 1_555
Na16 O120 2.473454 1_555
Na16 O92 2.619786 1_565
Na16 O48 2.736103 1_554
Na16 O124 2.748392 1_555
Na16 O38 2.803903 1_555
Na16 O18 2.825525 1_555
Na16 O34 2.854403 1_555
Na17 O121 2.303941 1_555
Na17 O91 2.497799 1_555
Na17 O93 2.600580 1_565
Na17 O125 2.621546 1_555
Na17 O49 2.664087 1_554
Na17 O35 2.719749 1_555
Na17 O19 2.793915 1_555
Na18 O81 2.416537 1_555
Na18 O8 2.503178 1_555
Na18 O108 2.559512 1_555
Na18 O110 2.593590 1_555
Na18 O82 2.615679 1_555
Na18 O38 2.713117 1_556
Na19 O80 2.362983 1_655
Na19 O109 2.526428 1_555
Na19 O111 2.536968 1_555
Na19 O9 2.550971 1_555
Na19 O83 2.619417 1_555
Na19 O39 2.880406 1_556
Na19 O52 2.917095 1_655
Na19 O66 2.945512 1_655
Na20 O112 2.368969 1_555
Na20 O82 2.505437 1_545
Na20 O79 2.555446 1_555
Na20 O110 2.568940 1_555
Na20 O10 2.695032 1_555
Na20 O40 2.731381 1_556
Na20 O68 2.829198 1_545
Na21 O113 2.368818 1_555
Na21 O83 2.526341 1_545
Na21 O78 2.569993 1_655
Na21 O111 2.698076 1_555
Na21 O11 2.705788 1_555
Na21 O69 2.754488 1_545
Na21 O41 2.806727 1_556
Na22 O112 2.352917 1_555
Na22 O80 2.395483 1_545
Na22 O6 2.480350 1_555
Na22 O108 2.599579 1_555
Na22 O36 2.632828 1_556
Na22 O78 2.745575 1_555
Na23 O81 2.357699 1_545
Na23 O113 2.435752 1_555
Na23 O7 2.513132 1_555
Na23 O79 2.640650 1_555
Na23 O37 2.670249 1_556
Na23 O109 2.759146 1_555
Na24 O77 2.362130 1_555
Na24 O118 2.542254 1_555
Na24 O114 2.554779 1_555
Na24 O74 2.647487 1_545
Na24 O4 2.652488 1_555
Na24 O46 2.729587 1_555
Na24 O57 2.844821 1_555
Na24 O61 2.986628 1_555
Na25 O47 2.369330 1_555
Na25 O76 2.440339 1_655
Na25 O115 2.560961 1_555
Na25 O119 2.566184 1_555
Na25 O75 2.650867 1_545
Na25 O56 2.826251 1_655
Na25 O5 2.984712 1_555
Na26 O116 2.405004 1_555
Na26 O76 2.408115 1_555
Na26 O42 2.437011 1_555
Na26 O72 2.683416 1_545
Na26 O114 2.699684 1_555
Na26 O0 2.705658 1_555
Na27 O117 2.358313 1_555
Na27 O77 2.388480 1_555
Na27 O43 2.450772 1_555
Na27 O1 2.585710 1_555
Na27 O115 2.630363 1_555
Na27 O73 2.733409 1_545
Na28 O116 2.362329 1_555
Na28 O73 2.520300 1_555
Na28 O74 2.542845 1_555
Na28 O44 2.602837 1_555
Na28 O118 2.611202 1_555
Na28 O2 2.788158 1_555
Na28 O64 2.953370 1_555
Na28 O54 2.954872 1_555
Na29 O117 2.343493 1_555
Na29 O75 2.560090 1_555
Na29 O45 2.595385 1_555
Na29 O119 2.609574 1_555
Na29 O72 2.629670 1_655
Na29 O3 2.833806 1_555
Na29 O65 2.840804 1_555
Na29 O55 2.930213 1_555
Na30 O86 2.383828 1_555
Na30 O85 2.397805 1_455
Na30 O76 2.507194 1_555
Na30 O89 2.721658 1_445
Na30 O72 2.805637 1_545
Na30 O75 2.876559 1_445
Na31 O87 2.299208 1_555
Na31 O77 2.442262 1_555
Na31 O84 2.613069 1_555
Na31 O73 2.661321 1_545
Na31 O88 2.698454 1_545
Na31 O74 2.851617 1_545
Na32 O80 2.349039 1_545
Na32 O94 2.470558 1_556
Na32 O78 2.533641 1_555
Na32 O83 2.725410 1_445
Na32 O91 2.765982 1_446
Na32 O93 2.804798 1_456
Na33 O81 2.382156 1_544
Na33 O95 2.459362 1_555
Na33 O90 2.504299 1_545
Na33 O79 2.692112 1_554
Na33 O82 2.734187 1_544
Na33 O92 2.829175 1_555
Na34 O98 2.348314 1_555
Na34 O100 2.508634 1_555
Na34 O96 2.591831 1_555
Na34 O112 2.592712 1_555
Na34 O108 2.693915 1_555
Na34 O110 2.777477 1_555
Na35 O99 2.321342 1_555
Na35 O113 2.428395 1_555
Na35 O97 2.634394 1_555
Na35 O109 2.664043 1_555
Na35 O101 2.682137 1_555
Na35 O111 2.882168 1_555
Na36 O106 2.380605 1_555
Na36 O116 2.430853 1_555
Na36 O114 2.597971 1_555
Na36 O102 2.640634 1_555
Na36 O104 2.653938 1_555
Na36 O118 2.796437 1_555
Na37 O117 2.324674 1_555
Na37 O107 2.384320 1_555
Na37 O115 2.583159 1_555
Na37 O103 2.679005 1_555
Na37 O119 2.727191 1_555
Na37 O105 2.902758 1_555
Na38 O120 2.452349 1_555
Na38 O132 2.528077 1_555
Na38 O124 2.571586 1_555
Na38 O122 2.599708 1_555
Na38 O134 2.617965 1_555
Na38 O136 2.740003 1_555
Na39 O123 2.329362 1_555
Na39 O121 2.468633 1_555
Na39 O133 2.597586 1_555
Na39 O137 2.601102 1_555
Na39 O125 2.761842 1_555
Na39 O135 2.828528 1_555
Na40 O130 2.395970 1_555
Na40 O138 2.514271 1_555
Na40 O126 2.551495 1_555
Na40 O140 2.566981 1_555
Na40 O142 2.732762 1_555
Na40 O128 2.797650 1_555
Na41 O141 2.431511 1_555
Na41 O139 2.487197 1_555
Na41 O127 2.586485 1_555
Na41 O143 2.614014 1_555
Na41 O131 2.682823 1_555
Na41 O129 2.812116 1_555
Mg0 O0 1.946885 1_555
Mg0 O76 2.013596 1_555
Mg0 O5 2.136211 1_455
Mg0 O3 2.183846 1_445
Mg0 O72 2.206621 1_545
Mg0 O75 2.301443 1_445
Mg1 O1 1.937910 1_555
Mg1 O77 2.017115 1_555
Mg1 O4 2.067701 1_555
Mg1 O2 2.232003 1_545
Mg1 O73 2.302830 1_545
Mg1 O74 2.331802 1_545
Mg2 O6 1.924946 1_555
Mg2 O80 2.039665 1_545
Mg2 O9 2.062654 1_445
Mg2 O11 2.181739 1_455
Mg2 O83 2.326388 1_445
Mg2 O78 2.330631 1_555
Mg3 O7 1.957739 1_565
Mg3 O8 1.966661 1_555
Mg3 O81 2.058008 1_555
Mg3 O10 2.253067 1_565
Mg3 O79 2.400868 1_565
Mg3 O82 2.458008 1_555
Mg4 O26 1.975219 1_555
Mg4 O100 2.024761 1_555
Mg4 O98 2.043346 1_555
Mg4 O28 2.159414 1_555
Mg4 O24 2.251589 1_555
Mg4 O96 2.258126 1_555
Mg5 O35 1.927066 1_555
Mg5 O107 2.021148 1_555
Mg5 O33 2.086695 1_555
Mg5 O31 2.244055 1_555
Mg5 O103 2.324907 1_555
Mg5 O105 2.329044 1_555
Mg6 O36 1.978768 1_556
Mg6 O38 1.991014 1_556
Mg6 O112 2.085560 1_555
Mg6 O40 2.177173 1_556
Mg6 O108 2.272775 1_555
Mg6 O110 2.363436 1_555
Mg7 O37 1.930648 1_556
Mg7 O113 2.002561 1_555
Mg7 O41 2.123645 1_556
Mg7 O39 2.215051 1_556
Mg7 O109 2.270136 1_555
Mg7 O111 2.301695 1_555
Mg8 O42 1.926491 1_555
Mg8 O116 2.063857 1_555
Mg8 O44 2.071943 1_555
Mg8 O46 2.170537 1_555
Mg8 O114 2.340444 1_555
Mg8 O118 2.343167 1_555
Mg9 O43 1.947875 1_555
Mg9 O47 1.992171 1_555
Mg9 O117 2.109220 1_555
Mg9 O45 2.132565 1_555
Mg9 O115 2.350653 1_555
Mg9 O119 2.421480 1_555
Mg10 O65 1.954331 1_555
Mg10 O133 2.030787 1_555
Mg10 O63 2.090834 1_555
Mg10 O61 2.153350 1_555
Mg10 O137 2.208847 1_555
Mg10 O135 2.307032 1_555
Mg11 O68 1.952821 1_555
Mg11 O138 2.016437 1_555
Mg11 O70 2.090774 1_555
Mg11 O66 2.213434 1_555
Mg11 O140 2.214732 1_555
Mg11 O142 2.224256 1_555
O0 Si0 1.621859 1_545
O1 Si1 1.627472 1_545
O2 S0 1.479303 1_555
O3 S1 1.484506 1_555
O4 S3 1.484540 1_555
O5 S2 1.480474 1_555
O6 Si2 1.629769 1_555
O7 Si3 1.627985 1_555
O8 Si4 1.628601 1_555
O9 S4 1.488811 1_555
O10 S5 1.486068 1_545
O11 S6 1.481362 1_545
O12 S5 1.495891 1_555
O12 Sc1 2.277949 1_565
O13 S6 1.477314 1_555
O13 Sc0 2.265478 1_665
O14 Si2 1.669775 1_555
O14 Sc0 1.953851 1_555
O15 Si3 1.665655 1_555
O15 Sc1 1.986433 1_555
O16 S4 1.478582 1_455
O16 Sc0 2.199657 1_565
O17 Si4 1.649485 1_555
O17 Sc1 1.907452 1_565
O18 S0 1.468938 1_555
O18 Sc3 2.320405 1_565
O19 S1 1.495241 1_555
O19 Sc2 2.239787 1_665
O20 S2 1.487033 1_455
O20 Sc2 2.131678 1_555
O21 S3 1.475279 1_555
O21 Sc3 2.218317 1_555
O22 Si0 1.671014 1_555
O22 Sc2 1.943898 1_565
O23 Si1 1.658568 1_555
O23 Sc3 1.974774 1_565
O24 S7 1.456363 1_555
O25 Si5 1.635596 1_555
O25 Sc4 2.008911 1_555
O26 Si6 1.625009 1_555
O27 Si7 1.653162 1_555
O27 Sc4 1.967546 1_555
O28 S8 1.463275 1_555
O29 S9 1.477130 1_555
O29 Sc4 2.152770 1_555
O30 Si8 1.650993 1_555
O30 Sc5 1.990702 1_555
O31 S10 1.474526 1_555
O32 S11 1.490123 1_555
O32 Sc5 2.122402 1_555
O33 S12 1.485659 1_555
O34 Si9 1.657523 1_555
O34 Sc5 1.979240 1_555
O35 Si10 1.638651 1_555
O36 Si9 1.613119 1_555
O37 Si10 1.629268 1_555
O38 Si8 1.613842 1_555
O39 S10 1.475422 1_555
O40 S11 1.458241 1_555
O41 S12 1.477981 1_555
O42 Si6 1.639394 1_555
O43 Si7 1.619539 1_555
O44 S8 1.493906 1_555
O45 S9 1.473350 1_555
O46 S7 1.490682 1_555
O47 Si5 1.624852 1_555
O48 S13 1.506788 1_555
O48 Sc6 2.131013 1_556
O49 S14 1.484897 1_555
O49 Sc7 2.415759 1_556
O50 S15 1.498052 1_555
O50 Sc6 2.082321 1_556
O51 S16 1.494024 1_555
O51 Sc7 2.104884 1_556
O52 Si11 1.680398 1_555
O52 Sc6 1.964678 1_556
O53 Si12 1.646475 1_555
O53 Sc7 1.987533 1_556
O54 S17 1.467928 1_555
O54 Sc8 2.429861 1_555
O55 S18 1.491814 1_555
O55 Sc9 2.241316 1_555
O56 Si13 1.636614 1_555
O56 Sc8 2.012874 1_555
O57 Si14 1.664788 1_555
O57 Sc9 1.969488 1_555
O58 S19 1.478538 1_555
O58 Sc8 2.155130 1_555
O59 S20 1.490002 1_555
O59 Sc9 2.112464 1_555
O60 S19 1.500184 1_555
O60 Sc10 2.186217 1_555
O61 S20 1.480045 1_555
O62 S17 1.502188 1_555
O62 Sc10 2.078518 1_555
O63 S18 1.485368 1_555
O64 Si13 1.661734 1_555
O64 Sc10 1.973237 1_555
O65 Si14 1.630588 1_555
O66 S15 1.471677 1_555
O67 S16 1.487671 1_555
O67 Sc11 2.213598 1_555
O68 Si11 1.622690 1_555
O69 Si12 1.644273 1_555
O69 Sc11 2.002175 1_555
O70 S13 1.473629 1_555
O71 S14 1.479361 1_555
O71 Sc11 2.218170 1_555
O72 S19 1.487190 1_555
O73 S20 1.490626 1_555
O74 S17 1.490506 1_555
O75 S18 1.492104 1_555
O76 Si13 1.648562 1_555
O77 Si14 1.660891 1_555
O78 S15 1.492814 1_555
O79 S16 1.484428 1_555
O80 Si11 1.664211 1_555
O81 Si12 1.644002 1_555
O82 S13 1.484176 1_555
O83 S14 1.499174 1_555
O84 S7 1.509740 1_555
O84 Sc1 2.441310 1_555
O85 Si5 1.672735 1_555
O85 Sc0 2.052893 1_655
O86 Si6 1.660717 1_555
O86 Sc0 1.994070 1_555
O87 Si7 1.648371 1_555
O87 Sc1 2.022030 1_555
O88 S8 1.490564 1_555
O88 Sc1 2.326876 1_565
O89 S9 1.476199 1_555
O89 Sc0 2.329853 1_665
O90 Si8 1.675612 1_555
O90 Sc3 2.024107 1_565
O91 S10 1.522632 1_555
O91 Sc2 2.241919 1_665
O92 S11 1.474005 1_555
O92 Sc3 2.312462 1_555
O93 S12 1.492245 1_555
O93 Sc2 2.259734 1_655
O94 Si9 1.666575 1_555
O94 Sc2 1.958394 1_555
O95 Si10 1.657500 1_555
O95 Sc3 1.975066 1_555
O96 S5 1.486945 1_545
O97 S6 1.507968 1_545
O97 Sc4 2.298979 1_555
O98 Si2 1.638509 1_555
O99 Si3 1.654519 1_555
O99 Sc4 2.049937 1_555
O100 Si4 1.626784 1_555
O101 S4 1.484820 1_555
O101 Sc4 2.342070 1_555
O102 S0 1.509935 1_555
O102 Sc5 2.327523 1_555
O103 S1 1.495073 1_555
O104 S3 1.488888 1_555
O104 Sc5 2.319368 1_555
O105 S2 1.476617 1_555
O106 Si0 1.643326 1_545
O106 Sc5 2.101237 1_555
O107 Si1 1.661354 1_545
O108 S13 1.486452 1_555
O109 S14 1.495370 1_555
O110 S16 1.480483 1_555
O111 S15 1.488953 1_655
O112 Si11 1.649930 1_545
O113 Si12 1.655292 1_545
O114 S17 1.492705 1_545
O115 S18 1.486761 1_545
O116 Si13 1.654433 1_555
O117 Si14 1.654202 1_555
O118 S20 1.490343 1_555
O119 S19 1.480828 1_655
O120 Si9 1.650887 1_555
O120 Sc6 2.047388 1_555
O121 Si10 1.653279 1_555
O121 Sc7 2.008411 1_555
O122 S10 1.494640 1_455
O122 Sc6 2.279647 1_555
O123 Si8 1.653561 1_555
O123 Sc7 1.998181 1_555
O124 S11 1.520531 1_565
O124 Sc6 2.235467 1_555
O125 S12 1.493479 1_565
O125 Sc7 2.329271 1_555
O126 Si6 1.659437 1_565
O126 Sc8 2.000337 1_555
O127 Si7 1.655400 1_565
O127 Sc9 2.007201 1_555
O128 S8 1.501102 1_555
O128 Sc8 2.231272 1_555
O129 S9 1.515697 1_555
O129 Sc9 2.205747 1_555
O130 Si5 1.657346 1_455
O130 Sc8 1.979852 1_555
O131 S7 1.506933 1_555
O131 Sc9 2.198409 1_555
O132 Si0 1.660648 1_555
O132 Sc10 2.029194 1_555
O133 Si1 1.658106 1_555
O134 S0 1.502278 1_555
O134 Sc10 2.199299 1_555
O135 S1 1.484483 1_555
O136 S2 1.501239 1_455
O136 Sc10 2.277852 1_555
O137 S3 1.500406 1_555
O138 Si2 1.652159 1_555
O139 Si3 1.639869 1_555
O139 Sc11 2.027986 1_555
O140 S4 1.496036 1_455
O141 Si4 1.665781 1_555
O141 Sc11 2.003105 1_555
O142 S5 1.488781 1_555
O143 S6 1.484567 1_555
O143 Sc11 2.227164 1_555
