# generated using pymatgen
data_PrSi2Mo2C
_symmetry_space_group_name_H-M   'P 1'
_cell_length_a   4.23802400
_cell_length_b   4.23802400
_cell_length_c   5.45346800
_cell_angle_alpha   90.00000000
_cell_angle_beta   90.00000000
_cell_angle_gamma   90.00000000
_symmetry_Int_Tables_number   1
_chemical_formula_structural   PrSi2Mo2C
_chemical_formula_sum   'Pr1 Si2 Mo2 C1'
_cell_volume   97.94890668
_cell_formula_units_Z   1
loop_
 _symmetry_equiv_pos_site_id
 _symmetry_equiv_pos_as_xyz
  1  'x, y, z'
loop_
 _atom_site_type_symbol
 _atom_site_label
 _atom_site_symmetry_multiplicity
 _atom_site_fract_x
 _atom_site_fract_y
 _atom_site_fract_z
 _atom_site_occupancy
  Pr  Pr0  1  0.00000000  0.00000000  0.50000000  1
  Si  Si0  1  0.50000000  0.50000000  0.72237600  1
  Si  Si1  1  0.50000000  0.50000000  0.27762400  1
  Mo  Mo0  1  0.50000000  0.00000000  0.00000000  1
  Mo  Mo1  1  0.00000000  0.50000000  0.00000000  1
  C  C0  1  0.00000000  0.00000000  0.00000000  1
loop_
_geom_bond_atom_site_label_1
_geom_bond_atom_site_label_2
_geom_bond_distance
_geom_bond_site_symmetry_2
Pr0 Si1 3.232818 1_545
Pr0 Si0 3.232818 1_555
Pr0 Si1 3.232818 1_555
Pr0 Si0 3.232818 1_455
Pr0 Si1 3.232818 1_455
Pr0 Si0 3.232818 1_545
Pr0 Si0 3.232818 1_445
Pr0 Si1 3.232818 1_445
Si0 Si1 2.425441 1_555
Mo0 Si0 2.604314 1_544
Mo0 Si1 2.604314 1_555
Mo0 Si0 2.604314 1_554
Mo0 Si1 2.604314 1_545
Mo1 Si0 2.604314 1_454
Mo1 Si1 2.604314 1_455
Mo1 Si1 2.604314 1_555
Mo1 Si0 2.604314 1_554
C0 Mo1 2.119012 1_555
C0 Mo0 2.119012 1_455
C0 Mo0 2.119012 1_555
C0 Mo1 2.119012 1_545
C0 Pr0 2.726734 1_554
C0 Pr0 2.726734 1_555
