# generated using pymatgen
data_Na6La4Ga4Si3(S3O16)3
_symmetry_space_group_name_H-M   'P 1'
_cell_length_a   18.10947745
_cell_length_b   9.11043367
_cell_length_c   23.70771905
_cell_angle_alpha   90.44951021
_cell_angle_beta   89.03122692
_cell_angle_gamma   120.12390066
_symmetry_Int_Tables_number   1
_chemical_formula_structural   Na6La4Ga4Si3(S3O16)3
_chemical_formula_sum   'Na18 La12 Ga12 Si9 S27 O144'
_cell_volume   3382.66972937
_cell_formula_units_Z   3
loop_
 _symmetry_equiv_pos_site_id
 _symmetry_equiv_pos_as_xyz
  1  'x, y, z'
loop_
 _atom_site_type_symbol
 _atom_site_label
 _atom_site_symmetry_multiplicity
 _atom_site_fract_x
 _atom_site_fract_y
 _atom_site_fract_z
 _atom_site_occupancy
  Na  Na0  1  0.00379461  0.63769387  0.25582084  1
  Na  Na1  1  0.50175986  0.37192885  0.74065928  1
  Na  Na2  1  0.16156235  0.31070798  0.91289730  1
  Na  Na3  1  0.66205714  0.30316225  0.90802271  1
  Na  Na4  1  0.16578029  0.02759230  0.41729726  1
  Na  Na5  1  0.65989527  0.00749906  0.41982617  1
  Na  Na6  1  0.99148045  0.98426710  0.49275770  1
  Na  Na7  1  0.48878603  0.00306734  0.49619996  1
  Na  Na8  1  0.99028096  0.99662372  0.98657246  1
  Na  Na9  1  0.49181563  0.99825139  0.98826347  1
  Na  Na10  1  0.33534203  0.33488759  0.82639134  1
  Na  Na11  1  0.83942666  0.33672593  0.83989604  1
  Na  Na12  1  0.34118092  0.34632823  0.34389435  1
  Na  Na13  1  0.83338735  0.33153156  0.33353830  1
  Na  Na14  1  0.17426909  0.68266642  0.18023748  1
  Na  Na15  1  0.66840773  0.69027825  0.17499922  1
  Na  Na16  1  0.17239897  0.65098377  0.67225930  1
  Na  Na17  1  0.66081420  0.64511554  0.66924047  1
  La  La0  1  0.99762377  0.00898937  0.64679734  1
  La  La1  1  0.51296454  0.01978212  0.64720884  1
  La  La2  1  0.01313249  0.01028481  0.14995773  1
  La  La3  1  0.49850633  0.98614966  0.14717742  1
  La  La4  1  0.82724405  0.33454158  0.69476000  1
  La  La5  1  0.32796060  0.32270615  0.19571479  1
  La  La6  1  0.15488576  0.65076589  0.01174348  1
  La  La7  1  0.66657254  0.65892999  0.01133571  1
  La  La8  1  0.16837000  0.67453579  0.51176407  1
  La  La9  1  0.64218896  0.63710028  0.51791122  1
  La  La10  1  0.66068670  0.67388628  0.32130060  1
  La  La11  1  0.16046255  0.64526427  0.81947525  1
  Ga  Ga0  1  0.00228113  0.98890033  0.35351079  1
  Ga  Ga1  1  0.50972668  0.98816439  0.34443724  1
  Ga  Ga2  1  0.01213224  0.04041151  0.84020432  1
  Ga  Ga3  1  0.50038997  0.01783688  0.84699695  1
  Ga  Ga4  1  0.32306971  0.32640992  0.67931587  1
  Ga  Ga5  1  0.82226257  0.31654772  0.18650294  1
  Ga  Ga6  1  0.34511892  0.33330970  0.97713745  1
  Ga  Ga7  1  0.83868747  0.32933903  0.98400227  1
  Ga  Ga8  1  0.35825315  0.37300933  0.49103268  1
  Ga  Ga9  1  0.84558128  0.35427551  0.47799089  1
  Ga  Ga10  1  0.15858104  0.67339912  0.32346136  1
  Ga  Ga11  1  0.65289908  0.64621348  0.82011206  1
  Si  Si0  1  0.14517011  0.98184207  0.26079614  1
  Si  Si1  1  0.65605103  0.01305690  0.24912993  1
  Si  Si2  1  0.16037414  0.29915568  0.74770636  1
  Si  Si3  1  0.64690343  0.31207812  0.76174574  1
  Si  Si4  1  0.46805516  0.32872779  0.59175546  1
  Si  Si5  1  0.00085804  0.33248163  0.91625565  1
  Si  Si6  1  0.51178015  0.35175472  0.91337997  1
  Si  Si7  1  0.01199485  0.66966562  0.41372191  1
  Si  Si8  1  0.50088269  0.67158371  0.41475618  1
  S  S0  1  0.34451024  0.71148286  0.26081691  1
  S  S1  1  0.85369795  0.69290088  0.24943281  1
  S  S2  1  0.00074198  0.30314647  0.25468921  1
  S  S3  1  0.50119097  0.28317085  0.25627688  1
  S  S4  1  0.00053873  0.72125216  0.75675184  1
  S  S5  1  0.50376724  0.71105812  0.75894228  1
  S  S6  1  0.35495414  0.00860199  0.75443709  1
  S  S7  1  0.84442580  0.97913647  0.76173026  1
  S  S8  1  0.97413832  0.32935351  0.57695930  1
  S  S9  1  0.19605031  0.05967099  0.57828633  1
  S  S10  1  0.69620113  0.05595863  0.57266875  1
  S  S11  1  0.33042515  0.60999151  0.58480314  1
  S  S12  1  0.83481398  0.62101544  0.57506292  1
  S  S13  1  0.47313449  0.61717707  0.07689810  1
  S  S14  1  0.96537141  0.59981966  0.08670163  1
  S  S15  1  0.33403401  0.04771290  0.07517544  1
  S  S16  1  0.83269692  0.05862211  0.08525243  1
  S  S17  1  0.19293078  0.33357034  0.07442746  1
  S  S18  1  0.70071832  0.33556321  0.08016398  1
  S  S19  1  0.32919948  0.66466801  0.91899766  1
  S  S20  1  0.82204835  0.66459583  0.91252176  1
  S  S21  1  0.16931898  0.99275358  0.91824764  1
  S  S22  1  0.66391130  0.96892612  0.91286751  1
  S  S23  1  0.32116617  0.97273947  0.40835771  1
  S  S24  1  0.82896611  0.98972118  0.41864067  1
  S  S25  1  0.16069452  0.36011080  0.40870769  1
  S  S26  1  0.66908258  0.34401419  0.41604566  1
  O  O0  1  0.09227000  0.00894271  0.31197839  1
  O  O1  1  0.61027053  0.02695515  0.30835804  1
  O  O2  1  0.40390108  0.81495103  0.30527455  1
  O  O3  1  0.90580501  0.77895840  0.29992621  1
  O  O4  1  0.50007875  0.17975309  0.30415817  1
  O  O5  1  0.98466404  0.18943408  0.30258626  1
  O  O6  1  0.11746234  0.19847405  0.80877589  1
  O  O7  1  0.59877973  0.18639126  0.81508795  1
  O  O8  1  0.49173813  0.80260237  0.80723000  1
  O  O9  1  0.99955087  0.82478765  0.80524380  1
  O  O10  1  0.40541275  0.01399105  0.80490692  1
  O  O11  1  0.90445095  0.99711948  0.80682903  1
  O  O12  1  0.39193211  0.98212843  0.70210327  1
  O  O13  1  0.87495207  0.95394282  0.70583564  1
  O  O14  1  0.09637180  0.20154221  0.69584851  1
  O  O15  1  0.59351489  0.23663333  0.70360129  1
  O  O16  1  0.99583746  0.79232721  0.70190624  1
  O  O17  1  0.51537169  0.80005097  0.70482866  1
  O  O18  1  0.37419391  0.79409802  0.20445469  1
  O  O19  1  0.89087159  0.79695991  0.19784796  1
  O  O20  1  0.01378982  0.23327621  0.20076487  1
  O  O21  1  0.49670126  0.20170284  0.20092007  1
  O  O22  1  0.09243623  0.94582736  0.20134866  1
  O  O23  1  0.59767101  0.98844218  0.19428725  1
  O  O24  1  0.41856926  0.33609821  0.65026200  1
  O  O25  1  0.93230955  0.32671413  0.63115757  1
  O  O26  1  0.23947992  0.14948574  0.63037646  1
  O  O27  1  0.73440558  0.14236149  0.62653175  1
  O  O28  1  0.32559224  0.51489872  0.63638183  1
  O  O29  1  0.83331345  0.53690231  0.62864039  1
  O  O30  1  0.43104631  0.53748431  0.13101999  1
  O  O31  1  0.92134887  0.50633716  0.13953540  1
  O  O32  1  0.33212694  0.12879821  0.12918883  1
  O  O33  1  0.83133880  0.14870505  0.13796882  1
  O  O34  1  0.23208276  0.32843019  0.12822015  1
  O  O35  1  0.74770613  0.33996604  0.13136514  1
  O  O36  1  0.24366375  0.33851731  0.02389569  1
  O  O37  1  0.74442398  0.33091090  0.02577587  1
  O  O38  1  0.42567478  0.51469748  0.02740450  1
  O  O39  1  0.92154152  0.51310979  0.03381033  1
  O  O40  1  0.33322243  0.14709022  0.02590226  1
  O  O41  1  0.83362512  0.15015640  0.03315617  1
  O  O42  1  0.24039915  0.15161222  0.52498946  1
  O  O43  1  0.74648991  0.15541806  0.52224528  1
  O  O44  1  0.32620234  0.51657149  0.53141744  1
  O  O45  1  0.83454542  0.51981767  0.52518841  1
  O  O46  1  0.42394510  0.32388493  0.53125656  1
  O  O47  1  0.92667607  0.33591887  0.52750063  1
  O  O48  1  0.29133809  0.70262222  0.96927815  1
  O  O49  1  0.79407062  0.70826765  0.96703090  1
  O  O50  1  0.06957361  0.41023061  0.96858088  1
  O  O51  1  0.57711774  0.42555503  0.96722089  1
  O  O52  1  0.15611637  0.88923386  0.96951659  1
  O  O53  1  0.65293804  0.87446900  0.96609797  1
  O  O54  1  0.29276529  0.87497377  0.46246928  1
  O  O55  1  0.79126246  0.87803813  0.46786580  1
  O  O56  1  0.14947772  0.43035771  0.46279953  1
  O  O57  1  0.65646718  0.42197801  0.46748134  1
  O  O58  1  0.07876900  0.72546414  0.46614149  1
  O  O59  1  0.56970868  0.72604290  0.46627258  1
  O  O60  1  0.05651392  0.63347789  0.35805236  1
  O  O61  1  0.53880992  0.62398124  0.35949220  1
  O  O62  1  0.25624703  0.87102864  0.36393858  1
  O  O63  1  0.77304865  0.91872616  0.36865987  1
  O  O64  1  0.17301627  0.47608102  0.36099947  1
  O  O65  1  0.68833606  0.45339442  0.36649330  1
  O  O66  1  0.04078151  0.45759880  0.86249780  1
  O  O67  1  0.55852803  0.48403414  0.86040532  1
  O  O68  1  0.18833201  0.91951548  0.86878706  1
  O  O69  1  0.67930540  0.88319815  0.86438086  1
  O  O70  1  0.27079678  0.62281818  0.87041351  1
  O  O71  1  0.75792646  0.63147624  0.86813654  1
  O  O72  1  0.00046270  0.83882101  0.40769200  1
  O  O73  1  0.49678947  0.84622067  0.40448192  1
  O  O74  1  0.40733958  0.00718359  0.39522866  1
  O  O75  1  0.91562015  0.01521198  0.40616904  1
  O  O76  1  0.08105361  0.18863162  0.40366552  1
  O  O77  1  0.59019761  0.17509242  0.40913192  1
  O  O78  1  0.99732040  0.14978700  0.90313217  1
  O  O79  1  0.49889393  0.15884024  0.90548795  1
  O  O80  1  0.09157977  0.00705497  0.91136691  1
  O  O81  1  0.58651101  0.98513093  0.90684581  1
  O  O82  1  0.41468516  0.81023964  0.90742417  1
  O  O83  1  0.90860058  0.80083932  0.89992926  1
  O  O84  1  0.47806104  0.16087695  0.58756881  1
  O  O85  1  0.97971511  0.17244904  0.57103368  1
  O  O86  1  0.10827796  0.03459913  0.57804465  1
  O  O87  1  0.60923118  0.03245039  0.56817276  1
  O  O88  1  0.41041544  0.77470290  0.58303064  1
  O  O89  1  0.91423350  0.78941687  0.57158733  1
  O  O90  1  0.47912902  0.78526319  0.07118976  1
  O  O91  1  0.97233571  0.76878025  0.08574503  1
  O  O92  1  0.41255739  0.03508333  0.07138819  1
  O  O93  1  0.91086041  0.04504104  0.08412164  1
  O  O94  1  0.10655367  0.17922693  0.07035653  1
  O  O95  1  0.61501252  0.18296060  0.07980874  1
  O  O96  1  0.35731767  0.17371199  0.75361942  1
  O  O97  1  0.84075336  0.13906396  0.76063555  1
  O  O98  1  0.25369676  0.30648485  0.73918928  1
  O  O99  1  0.74170247  0.33212030  0.76054673  1
  O  O100  1  0.42992433  0.53575990  0.75648460  1
  O  O101  1  0.92574588  0.54699763  0.76281697  1
  O  O102  1  0.34024994  0.54359788  0.25998087  1
  O  O103  1  0.85674161  0.53009664  0.24310213  1
  O  O104  1  0.42594034  0.30794446  0.26190698  1
  O  O105  1  0.92613622  0.33208173  0.24802164  1
  O  O106  1  0.23907025  0.15130684  0.25907881  1
  O  O107  1  0.74945453  0.19347876  0.24374523  1
  O  O108  1  0.33266638  0.50560692  0.92826981  1
  O  O109  1  0.81948130  0.49618708  0.92085471  1
  O  O110  1  0.41845792  0.33690519  0.92300856  1
  O  O111  1  0.90876645  0.31887055  0.93111862  1
  O  O112  1  0.24305190  0.17150989  0.92657981  1
  O  O113  1  0.73888430  0.14649179  0.91878536  1
  O  O114  1  0.31819880  0.13317485  0.41464795  1
  O  O115  1  0.83513115  0.15910791  0.42757280  1
  O  O116  1  0.23382153  0.33080116  0.41174224  1
  O  O117  1  0.74235104  0.31065521  0.42385090  1
  O  O118  1  0.40666317  0.50264275  0.42886448  1
  O  O119  1  0.91853604  0.49810167  0.42319855  1
  O  O120  1  0.18476797  0.48818578  0.07702123  1
  O  O121  1  0.69513738  0.49217112  0.08106464  1
  O  O122  1  0.05220391  0.61979653  0.08659761  1
  O  O123  1  0.55992856  0.63857827  0.07765310  1
  O  O124  1  0.25690117  0.87590611  0.07466736  1
  O  O125  1  0.75489431  0.88841553  0.08563109  1
  O  O126  1  0.19063687  0.89121377  0.58095672  1
  O  O127  1  0.69256943  0.89024413  0.57433638  1
  O  O128  1  0.25444427  0.63180369  0.58546168  1
  O  O129  1  0.75878627  0.64073119  0.57444748  1
  O  O130  1  0.06090180  0.48098496  0.57750886  1
  O  O131  1  0.56251989  0.50275111  0.59399882  1
  O  O132  1  0.15316208  0.80934066  0.26555398  1
  O  O133  1  0.67140774  0.85112764  0.25142514  1
  O  O134  1  0.25731341  0.68527877  0.26998144  1
  O  O135  1  0.76495418  0.65360110  0.25531536  1
  O  O136  1  0.07936901  0.47471722  0.26105168  1
  O  O137  1  0.58037922  0.45111370  0.25440545  1
  O  O138  1  0.17498404  0.49116558  0.75073554  1
  O  O139  1  0.65295599  0.49954712  0.76490007  1
  O  O140  1  0.07985126  0.71165431  0.75523374  1
  O  O141  1  0.58389348  0.69868713  0.76472508  1
  O  O142  1  0.26615339  0.86848097  0.75949206  1
  O  O143  1  0.75854782  0.83168076  0.77223751  1
loop_
_geom_bond_atom_site_label_1
_geom_bond_atom_site_label_2
_geom_bond_distance
_geom_bond_site_symmetry_2
Na0 O103 2.354983 1_455
Na0 O132 2.363289 1_555
Na0 O105 2.415476 1_455
Na0 O136 2.478187 1_555
Na0 O60 2.627486 1_555
Na0 O22 2.754763 1_555
Na0 O3 2.847308 1_455
Na1 O96 2.331933 1_555
Na1 O100 2.446335 1_555
Na1 O139 2.454893 1_555
Na1 O24 2.563928 1_555
Na1 O141 2.637705 1_555
Na1 O15 2.653611 1_555
Na2 O80 2.396115 1_555
Na2 O112 2.406727 1_555
Na2 O78 2.586636 1_455
Na2 O50 2.600557 1_555
Na2 O6 2.642748 1_555
Na2 O70 2.710079 1_555
Na2 O108 2.718913 1_555
Na2 O36 2.990557 1_556
Na3 O113 2.459494 1_555
Na3 O7 2.474721 1_555
Na3 O81 2.507722 1_545
Na3 O109 2.510232 1_555
Na3 O79 2.562888 1_555
Na3 O51 2.683869 1_555
Na3 O71 2.762504 1_555
Na4 O116 2.397919 1_555
Na4 O114 2.424479 1_555
Na4 O72 2.611774 1_545
Na4 O76 2.625820 1_555
Na4 O58 2.652369 1_545
Na4 O0 2.813205 1_555
Na4 O42 2.856577 1_555
Na4 O62 2.926770 1_545
Na5 O117 2.393316 1_555
Na5 O77 2.437200 1_555
Na5 O59 2.496980 1_545
Na5 O73 2.586043 1_545
Na5 O115 2.761933 1_555
Na5 O63 2.808662 1_545
Na5 O1 2.840812 1_555
Na5 O43 2.850831 1_555
Na6 O72 2.452091 1_655
Na6 O89 2.464122 1_555
Na6 O75 2.583417 1_565
Na6 O85 2.594567 1_565
Na6 O76 2.733758 1_665
Na6 O86 2.815840 1_665
Na7 O73 2.634289 1_545
Na7 O84 2.648420 1_555
Na7 O77 2.668969 1_555
Na7 O87 2.696923 1_555
Na7 O88 2.754090 1_545
Na7 O74 2.843147 1_555
Na8 O78 2.394321 1_565
Na8 O80 2.504055 1_665
Na8 O83 2.643080 1_555
Na8 O94 2.778543 1_666
Na8 O93 2.849549 1_566
Na9 O79 2.419977 1_565
Na9 O82 2.489079 1_555
Na9 O92 2.536496 1_566
Na9 O81 2.602132 1_555
Na9 O90 2.698191 1_556
Na9 O95 2.976176 1_566
Na10 O96 2.411351 1_555
Na10 O100 2.415551 1_555
Na10 O98 2.497600 1_555
Na10 O110 2.756955 1_555
Na10 O112 2.841620 1_555
Na10 O108 2.875385 1_555
Na11 O109 2.526731 1_555
Na11 O101 2.530849 1_555
Na11 O111 2.565702 1_555
Na11 O113 2.566155 1_555
Na11 O99 2.590252 1_555
Na11 O97 2.600611 1_555
Na12 O118 2.415153 1_555
Na12 O114 2.444223 1_555
Na12 O116 2.451348 1_555
Na12 O104 2.585279 1_555
Na12 O102 2.697333 1_555
Na12 O106 2.718704 1_555
Na13 O107 2.563685 1_555
Na13 O105 2.609238 1_555
Na13 O119 2.628770 1_555
Na13 O117 2.628831 1_555
Na13 O103 2.703799 1_555
Na13 O115 2.746939 1_555
Na14 O132 2.439080 1_555
Na14 O134 2.619258 1_555
Na14 O136 2.625072 1_555
Na14 O124 2.983447 1_555
Na14 O122 3.002999 1_555
Na14 O120 3.068831 1_555
Na15 O133 2.305440 1_555
Na15 O137 2.703561 1_555
Na15 O125 2.703786 1_555
Na15 O135 2.739194 1_555
Na15 O123 2.935098 1_555
Na15 O121 3.037859 1_555
Na16 O138 2.386936 1_555
Na16 O128 2.573738 1_555
Na16 O142 2.786317 1_555
Na16 O140 2.790230 1_555
Na16 O130 2.912298 1_555
Na16 O126 2.984802 1_555
Na17 O131 2.405511 1_555
Na17 O139 2.601753 1_555
Na17 O141 2.803840 1_555
Na17 O129 2.852163 1_555
La0 O14 2.125349 1_655
La0 O16 2.362028 1_545
La0 O13 2.435841 1_545
La0 O85 2.468924 1_555
La0 O86 2.480532 1_655
La0 O89 2.542505 1_545
La1 O84 2.219314 1_555
La1 O15 2.224894 1_555
La1 O12 2.402365 1_545
La1 O17 2.451092 1_545
La1 O87 2.500904 1_555
La1 O88 2.574759 1_545
La2 O22 2.192871 1_545
La2 O20 2.348620 1_555
La2 O19 2.366183 1_445
La2 O91 2.461328 1_445
La2 O94 2.473152 1_555
La2 O93 2.580861 1_455
La3 O23 2.121935 1_555
La3 O21 2.346199 1_565
La3 O18 2.439995 1_555
La3 O90 2.458257 1_555
La3 O95 2.520155 1_565
La3 O92 2.579436 1_565
La4 O99 2.171934 1_555
La4 O27 2.366725 1_555
La4 O29 2.388355 1_555
La4 O25 2.436481 1_555
La4 O101 2.472737 1_555
La4 O97 2.482816 1_555
La5 O106 2.172160 1_555
La5 O32 2.387479 1_555
La5 O34 2.400844 1_555
La5 O102 2.436090 1_555
La5 O30 2.439258 1_555
La5 O104 2.442545 1_555
La6 O50 2.203672 1_554
La6 O52 2.389024 1_554
La6 O120 2.398036 1_555
La6 O122 2.460962 1_555
La6 O124 2.467233 1_555
La6 O48 2.468712 1_554
La7 O51 2.191770 1_554
La7 O49 2.349493 1_554
La7 O53 2.365542 1_554
La7 O123 2.403865 1_555
La7 O121 2.483072 1_555
La7 O125 2.590897 1_555
La8 O58 2.200222 1_555
La8 O54 2.364434 1_555
La8 O56 2.371133 1_555
La8 O130 2.412953 1_555
La8 O126 2.433697 1_555
La8 O128 2.519104 1_555
La9 O131 2.237797 1_555
La9 O59 2.239573 1_555
La9 O57 2.408058 1_555
La9 O127 2.412782 1_555
La9 O129 2.506196 1_555
La9 O55 2.738344 1_555
La10 O61 2.197628 1_555
La10 O133 2.259601 1_555
La10 O137 2.411253 1_555
La10 O63 2.420494 1_555
La10 O135 2.508511 1_555
La10 O65 2.548594 1_555
La11 O66 2.212257 1_555
La11 O138 2.239663 1_555
La11 O140 2.406746 1_555
La11 O142 2.422326 1_555
La11 O70 2.447073 1_555
La11 O68 2.563702 1_555
Ga0 O0 1.818928 1_565
Ga0 O72 1.871221 1_555
Ga0 O76 2.043977 1_565
Ga0 O75 2.094185 1_465
Ga0 O3 2.237706 1_455
Ga0 O5 2.351551 1_465
Ga1 O73 1.862013 1_555
Ga1 O1 1.864946 1_565
Ga1 O2 2.006652 1_555
Ga1 O4 2.080126 1_565
Ga1 O77 2.218076 1_565
Ga1 O74 2.271933 1_565
Ga2 O6 1.865200 1_555
Ga2 O78 1.876699 1_455
Ga2 O11 1.964592 1_445
Ga2 O9 2.032101 1_445
Ga2 O80 2.353224 1_555
Ga2 O83 2.476924 1_445
Ga3 O7 1.825214 1_555
Ga3 O79 1.891970 1_555
Ga3 O10 1.988041 1_555
Ga3 O8 2.103817 1_545
Ga3 O82 2.249259 1_545
Ga3 O81 2.254393 1_545
Ga4 O24 1.811264 1_555
Ga4 O98 1.827832 1_555
Ga4 O26 1.953630 1_555
Ga4 O28 1.983452 1_555
Ga4 O96 2.522796 1_555
Ga5 O107 1.821202 1_555
Ga5 O33 1.976728 1_555
Ga5 O35 1.982535 1_555
Ga5 O31 2.073114 1_555
Ga5 O103 2.177959 1_555
Ga5 O105 2.346914 1_555
Ga6 O110 1.819657 1_555
Ga6 O38 1.971626 1_556
Ga6 O40 1.979070 1_556
Ga6 O108 2.061483 1_555
Ga6 O112 2.082882 1_555
Ga6 O36 2.150480 1_556
Ga7 O111 1.804826 1_555
Ga7 O37 1.965254 1_556
Ga7 O41 1.976675 1_556
Ga7 O39 1.989008 1_556
Ga7 O109 2.292772 1_555
Ga7 O113 2.337560 1_555
Ga8 O46 1.761934 1_555
Ga8 O118 1.811083 1_555
Ga8 O44 1.920351 1_555
Ga8 O42 2.217652 1_555
Ga9 O119 1.838715 1_555
Ga9 O45 1.958323 1_555
Ga9 O47 1.967312 1_555
Ga9 O115 2.064607 1_555
Ga9 O43 2.075111 1_555
Ga9 O117 2.151198 1_555
Ga10 O60 1.870819 1_555
Ga10 O132 1.892466 1_555
Ga10 O62 2.030946 1_555
Ga10 O134 2.132469 1_555
Ga10 O64 2.143958 1_555
Ga10 O136 2.224145 1_555
Ga11 O67 1.857069 1_555
Ga11 O139 1.863508 1_555
Ga11 O141 2.044355 1_555
Ga11 O143 2.124980 1_555
Ga11 O69 2.221862 1_555
Ga11 O71 2.294306 1_555
O0 Si0 1.626188 1_545
O1 Si1 1.654770 1_555
O2 S0 1.470152 1_555
O3 S1 1.489635 1_555
O4 S3 1.474330 1_555
O5 S2 1.466952 1_655
O6 Si2 1.675933 1_555
O7 Si3 1.629031 1_555
O8 S5 1.487454 1_555
O9 S4 1.486920 1_655
O10 S6 1.503360 1_555
O11 S7 1.486413 1_555
O12 S6 1.474891 1_565
O13 S7 1.487307 1_555
O14 Si2 1.625479 1_555
O15 Si3 1.634186 1_555
O16 S4 1.479700 1_655
O17 S5 1.477682 1_555
O18 S0 1.492088 1_555
O19 S1 1.482338 1_555
O20 S2 1.491101 1_555
O21 S3 1.485795 1_555
O22 Si0 1.652180 1_555
O23 Si1 1.631707 1_565
O24 Si4 1.657845 1_555
O25 S8 1.474680 1_555
O26 S9 1.477906 1_555
O27 S10 1.482029 1_555
O28 S11 1.479989 1_555
O29 S12 1.481410 1_555
O30 S13 1.476660 1_555
O31 S14 1.493750 1_555
O32 S15 1.481871 1_555
O33 S16 1.496407 1_555
O34 S17 1.481938 1_555
O35 S18 1.482919 1_555
O36 S17 1.484379 1_555
O37 S18 1.512994 1_555
O38 S13 1.482788 1_555
O39 S14 1.488338 1_555
O40 S15 1.488297 1_555
O41 S16 1.490812 1_555
O42 S9 1.500080 1_555
O43 S10 1.493774 1_555
O44 S11 1.501044 1_555
O45 S12 1.492216 1_555
O46 Si4 1.643049 1_555
O47 S8 1.484590 1_555
O48 S19 1.488118 1_555
O49 S20 1.502380 1_555
O50 Si5 1.656142 1_555
O51 Si6 1.649389 1_555
O52 S21 1.485198 1_555
O53 S22 1.486444 1_555
O54 S23 1.496459 1_555
O55 S24 1.468930 1_555
O56 S25 1.484645 1_555
O57 S26 1.477686 1_555
O58 Si7 1.639817 1_555
O59 Si8 1.646997 1_555
O60 Si7 1.650615 1_555
O61 Si8 1.623591 1_555
O62 S23 1.510911 1_555
O63 S24 1.489619 1_555
O64 S25 1.489605 1_555
O65 S26 1.466440 1_555
O66 Si5 1.615781 1_555
O67 Si6 1.646228 1_555
O68 S21 1.464037 1_555
O69 S22 1.484150 1_555
O70 S19 1.490036 1_555
O71 S20 1.493782 1_555
O72 Si7 1.663276 1_555
O73 Si8 1.649616 1_555
O74 S23 1.457483 1_545
O75 S24 1.491147 1_545
O76 S25 1.508747 1_555
O77 S26 1.494414 1_555
O78 Si5 1.660344 1_655
O79 Si6 1.662237 1_555
O80 S21 1.489210 1_545
O81 S22 1.490532 1_555
O82 S19 1.470136 1_555
O83 S20 1.457313 1_555
O84 Si4 1.629803 1_555
O85 S8 1.488149 1_555
O86 S9 1.488157 1_555
O87 S10 1.484768 1_555
O88 S11 1.472751 1_555
O89 S12 1.487376 1_555
O90 S13 1.486939 1_555
O91 S14 1.480360 1_555
O92 S15 1.484313 1_555
O93 S16 1.481259 1_555
O94 S17 1.492848 1_555
O95 S18 1.475217 1_555
O96 S6 1.483476 1_555
O97 S7 1.491940 1_545
O98 Si2 1.666378 1_555
O99 Si3 1.632546 1_555
O100 S5 1.483145 1_555
O101 S4 1.488018 1_655
O102 S0 1.492267 1_555
O103 S1 1.517822 1_555
O104 S3 1.492629 1_555
O105 S2 1.511701 1_655
O106 Si0 1.624920 1_545
O107 Si1 1.668681 1_555
O108 S19 1.499662 1_555
O109 S20 1.525794 1_555
O110 Si6 1.638449 1_555
O111 Si5 1.641372 1_655
O112 S21 1.515028 1_545
O113 S22 1.509410 1_545
O114 S23 1.495545 1_545
O115 S24 1.503818 1_545
O116 S25 1.479422 1_555
O117 S26 1.516935 1_555
O118 Si8 1.656779 1_555
O119 Si7 1.641764 1_655
O120 S17 1.489015 1_555
O121 S18 1.480041 1_555
O122 S14 1.489454 1_455
O123 S13 1.483970 1_555
O124 S15 1.485586 1_565
O125 S16 1.482089 1_565
O126 S9 1.489723 1_565
O127 S10 1.478635 1_565
O128 S11 1.485502 1_555
O129 S12 1.475488 1_555
O130 S8 1.482916 1_455
O131 Si4 1.649948 1_555
O132 Si0 1.653819 1_555
O133 Si1 1.634083 1_565
O134 S0 1.486117 1_555
O135 S1 1.464947 1_555
O136 S2 1.504335 1_555
O137 S3 1.481902 1_555
O138 Si2 1.633800 1_555
O139 Si3 1.656798 1_555
O140 S4 1.481954 1_555
O141 S5 1.519259 1_555
O142 S6 1.471526 1_565
O143 S7 1.476648 1_555
