# generated using pymatgen
data_Na7Hf2Zn2SiP5O24
_symmetry_space_group_name_H-M   'P 1'
_cell_length_a   9.11984644
_cell_length_b   9.11504003
_cell_length_c   22.20131857
_cell_angle_alpha   90.20465629
_cell_angle_beta   89.62938830
_cell_angle_gamma   120.03112023
_symmetry_Int_Tables_number   1
_chemical_formula_structural   Na7Hf2Zn2SiP5O24
_chemical_formula_sum   'Na21 Hf6 Zn6 Si3 P15 O72'
_cell_volume   1597.75473525
_cell_formula_units_Z   3
loop_
 _symmetry_equiv_pos_site_id
 _symmetry_equiv_pos_as_xyz
  1  'x, y, z'
loop_
 _atom_site_type_symbol
 _atom_site_label
 _atom_site_symmetry_multiplicity
 _atom_site_fract_x
 _atom_site_fract_y
 _atom_site_fract_z
 _atom_site_occupancy
  Na  Na0  1  0.35560913  0.37226172  0.25532419  1
  Na  Na1  1  0.01449045  0.63943828  0.25308012  1
  Na  Na2  1  0.62620002  0.64805354  0.75252239  1
  Na  Na3  1  0.01252263  0.37054603  0.75602783  1
  Na  Na4  1  0.36068688  0.97963551  0.75366408  1
  Na  Na5  1  0.29042226  0.30810225  0.58474598  1
  Na  Na6  1  0.02525857  0.71273112  0.58735086  1
  Na  Na7  1  0.68285926  0.97529894  0.59159323  1
  Na  Na8  1  0.28762630  0.97492055  0.08779784  1
  Na  Na9  1  0.69128455  0.70922772  0.08578562  1
  Na  Na10  1  0.02318333  0.31967966  0.08917082  1
  Na  Na11  1  0.95619211  0.64793654  0.92434068  1
  Na  Na12  1  0.69255999  0.04119355  0.91932453  1
  Na  Na13  1  0.95964537  0.30845702  0.42033984  1
  Na  Na14  1  0.35348023  0.04369931  0.42352089  1
  Na  Na15  1  0.99492882  0.98858625  0.50804938  1
  Na  Na16  1  0.01272474  0.00515593  0.00765792  1
  Na  Na17  1  0.65160188  0.32969314  0.84346055  1
  Na  Na18  1  0.66579473  0.33618522  0.34273405  1
  Na  Na19  1  0.34538994  0.68264263  0.17703508  1
  Na  Na20  1  0.33992843  0.67517362  0.67480691  1
  Hf  Hf0  1  0.99295770  0.99345350  0.35176520  1
  Hf  Hf1  1  0.00314093  0.00525693  0.85196846  1
  Hf  Hf2  1  0.66462149  0.32740488  0.68453084  1
  Hf  Hf3  1  0.67004904  0.32999200  0.18565956  1
  Hf  Hf4  1  0.33171885  0.66350006  0.01800961  1
  Hf  Hf5  1  0.33779428  0.66979162  0.51715158  1
  Zn  Zn0  1  0.00063859  0.99799690  0.65431584  1
  Zn  Zn1  1  0.99689247  0.99121646  0.15428888  1
  Zn  Zn2  1  0.66341906  0.34069580  0.98764153  1
  Zn  Zn3  1  0.65730534  0.33456410  0.48659707  1
  Zn  Zn4  1  0.34272493  0.67398709  0.32008014  1
  Zn  Zn5  1  0.34301170  0.67335625  0.82062657  1
  Si  Si0  1  0.70324162  -0.00031405  0.74781293  1
  Si  Si1  1  0.36391502  0.03344170  0.58049056  1
  Si  Si2  1  0.96502794  0.63320325  0.08089586  1
  P  P0  1  0.29658693  0.99921278  0.24893242  1
  P  P1  1  0.69915649  0.70042349  0.24628509  1
  P  P2  1  0.99834387  0.29335230  0.24819924  1
  P  P3  1  0.29677577  0.29699244  0.74678161  1
  P  P4  1  0.99855442  0.70227889  0.74884929  1
  P  P5  1  0.96361054  0.33604166  0.57928120  1
  P  P6  1  0.66522904  0.62578879  0.58188312  1
  P  P7  1  0.66611421  0.03841111  0.07888751  1
  P  P8  1  0.37351491  0.33376749  0.08350608  1
  P  P9  1  0.63254843  0.66578476  0.91342147  1
  P  P10  1  0.03864949  0.36987436  0.91383794  1
  P  P11  1  0.33458246  0.96549092  0.91533647  1
  P  P12  1  0.63072289  0.96449029  0.41537414  1
  P  P13  1  0.33157049  0.36821237  0.41221118  1
  P  P14  1  0.03664469  0.66452644  0.41393315  1
  O  O0  1  0.20203819  0.02308200  0.30472605  1
  O  O1  1  0.82167345  0.79860668  0.30011381  1
  O  O2  1  0.98130774  0.18338080  0.30490887  1
  O  O3  1  0.20478860  0.17355738  0.80076725  1
  O  O4  1  0.97738626  0.79599643  0.80493556  1
  O  O5  1  0.82762140  0.02889965  0.80679295  1
  O  O6  1  0.78667253  0.97032435  0.68780083  1
  O  O7  1  0.19777714  0.22161567  0.68849199  1
  O  O8  1  0.03010178  0.80851902  0.69163304  1
  O  O9  1  0.77505480  0.79492370  0.18712781  1
  O  O10  1  0.01955196  0.20971739  0.19108143  1
  O  O11  1  0.19413818  0.97675196  0.19124227  1
  O  O12  1  0.87722119  0.36564213  0.63664594  1
  O  O13  1  0.49032716  0.12763071  0.63962229  1
  O  O14  1  0.63872543  0.51867093  0.64080856  1
  O  O15  1  0.87000267  0.50605451  0.13984661  1
  O  O16  1  0.63331429  0.12854238  0.13363615  1
  O  O17  1  0.48431097  0.36124140  0.14128470  1
  O  O18  1  0.45182538  0.29579262  0.02928333  1
  O  O19  1  0.85316279  0.55123114  0.02108470  1
  O  O20  1  0.69061028  0.13943677  0.02108653  1
  O  O21  1  0.44587921  0.14574332  0.52060278  1
  O  O22  1  0.69838172  0.54237567  0.52835280  1
  O  O23  1  0.85857203  0.31413035  0.52319193  1
  O  O24  1  0.54172555  0.68917826  0.97033159  1
  O  O25  1  0.14704291  0.46282690  0.97124335  1
  O  O26  1  0.31040605  0.84626559  0.97114132  1
  O  O27  1  0.54782170  0.85819372  0.47444778  1
  O  O28  1  0.30870175  0.45818734  0.46956149  1
  O  O29  1  0.15597259  0.69289184  0.46988051  1
  O  O30  1  0.11795292  0.64083728  0.35660554  1
  O  O31  1  0.51594419  0.87753133  0.36207371  1
  O  O32  1  0.34301098  0.46675938  0.35512837  1
  O  O33  1  0.12482220  0.47581839  0.85746984  1
  O  O34  1  0.35683966  0.88515419  0.85738117  1
  O  O35  1  0.53577530  0.65282193  0.85587222  1
  O  O36  1  0.03008995  0.83418065  0.41115479  1
  O  O37  1  0.80983709  0.97970129  0.41084401  1
  O  O38  1  0.16063611  0.18850287  0.41150513  1
  O  O39  1  0.02435786  0.19096642  0.91300214  1
  O  O40  1  0.16478835  0.96979899  0.91365098  1
  O  O41  1  0.81184870  0.83628095  0.91270724  1
  O  O42  1  0.98768734  0.18181127  0.58584656  1
  O  O43  1  0.17372432  0.00550542  0.58765200  1
  O  O44  1  0.81396743  0.80821450  0.58628667  1
  O  O45  1  0.99444562  0.82453636  0.08723315  1
  O  O46  1  0.82157193  0.01708147  0.08762185  1
  O  O47  1  0.18982640  0.18785438  0.09018179  1
  O  O48  1  0.69428574  0.17903837  0.74643198  1
  O  O49  1  0.47709610  0.31359804  0.74494776  1
  O  O50  1  0.82788219  0.52847189  0.74603794  1
  O  O51  1  0.69261960  0.52258888  0.24613975  1
  O  O52  1  0.83431201  0.30954845  0.24674456  1
  O  O53  1  0.47095101  0.16891039  0.24672671  1
  O  O54  1  0.66347253  0.51608592  0.91784347  1
  O  O55  1  0.85798310  0.34368065  0.91800154  1
  O  O56  1  0.49244237  0.13975835  0.92269665  1
  O  O57  1  0.65980336  0.14655595  0.41966411  1
  O  O58  1  0.48062751  0.33631389  0.41611473  1
  O  O59  1  0.86165823  0.50820957  0.42215263  1
  O  O60  1  0.37026139  0.50505318  0.07744325  1
  O  O61  1  0.15416113  0.64405038  0.07879439  1
  O  O62  1  0.50246614  0.85751454  0.07684120  1
  O  O63  1  0.35320339  0.84466471  0.57840568  1
  O  O64  1  0.49470775  0.63065990  0.57671885  1
  O  O65  1  0.14315210  0.50058164  0.57648462  1
  O  O66  1  0.31276808  0.84076246  0.25593860  1
  O  O67  1  0.51799006  0.66649890  0.25428207  1
  O  O68  1  0.15363910  0.47424130  0.25257998  1
  O  O69  1  0.31753490  0.47371129  0.75560504  1
  O  O70  1  0.14785452  0.67006449  0.75566644  1
  O  O71  1  0.51176644  0.83782203  0.75362537  1
loop_
_geom_bond_atom_site_label_1
_geom_bond_atom_site_label_2
_geom_bond_distance
_geom_bond_site_symmetry_2
Na0 O67 2.326187 1_555
Na0 O32 2.397280 1_555
Na0 O68 2.444613 1_555
Na0 O53 2.554420 1_555
Na0 O51 2.672818 1_555
Na0 O17 2.806361 1_555
Na1 O66 2.403356 1_555
Na1 O68 2.406290 1_555
Na1 O30 2.487754 1_555
Na1 O51 2.578773 1_455
Na1 O52 2.610743 1_455
Na1 O15 2.819898 1_455
Na1 O1 2.967575 1_455
Na1 O11 2.996888 1_555
Na2 O71 2.426524 1_555
Na2 O35 2.440774 1_555
Na2 O69 2.444347 1_555
Na2 O50 2.567887 1_555
Na2 O49 2.649734 1_555
Na2 O14 2.768665 1_555
Na3 O70 2.367324 1_555
Na3 O69 2.450210 1_555
Na3 O33 2.464255 1_555
Na3 O48 2.539696 1_455
Na3 O50 2.718493 1_455
Na3 O12 2.921582 1_455
Na3 O5 2.925030 1_455
Na4 O71 2.313434 1_555
Na4 O34 2.455199 1_555
Na4 O70 2.499870 1_555
Na4 O48 2.654468 1_565
Na4 O49 2.682864 1_565
Na4 O13 2.831478 1_565
Na4 O3 2.953388 1_565
Na4 O8 2.958112 1_555
Na5 O42 2.401338 1_455
Na5 O43 2.409684 1_555
Na5 O7 2.441643 1_555
Na5 O64 2.581424 1_555
Na5 O65 2.698094 1_555
Na5 O28 2.868801 1_555
Na5 O21 2.878717 1_555
Na6 O43 2.310474 1_565
Na6 O8 2.464288 1_555
Na6 O44 2.480030 1_455
Na6 O63 2.612378 1_555
Na6 O65 2.651031 1_555
Na6 O22 2.901076 1_455
Na6 O29 2.903036 1_555
Na6 O12 2.959724 1_455
Na7 O6 2.351692 1_555
Na7 O44 2.362760 1_555
Na7 O42 2.459096 1_565
Na7 O63 2.639653 1_555
Na7 O64 2.743406 1_555
Na7 O27 2.850600 1_555
Na7 O13 2.924647 1_565
Na8 O45 2.315151 1_455
Na8 O11 2.447494 1_555
Na8 O47 2.509348 1_565
Na8 O61 2.634692 1_555
Na8 O62 2.670958 1_555
Na8 O18 2.846475 1_565
Na8 O26 2.888131 1_554
Na8 O16 2.923711 1_565
Na9 O9 2.380831 1_555
Na9 O45 2.417026 1_555
Na9 O46 2.439291 1_565
Na9 O60 2.572937 1_555
Na9 O62 2.677252 1_555
Na9 O24 2.873380 1_554
Na9 O19 2.898750 1_555
Na10 O47 2.362727 1_555
Na10 O46 2.431765 1_455
Na10 O10 2.471206 1_555
Na10 O61 2.586108 1_555
Na10 O60 2.753368 1_555
Na10 O25 2.888600 1_554
Na10 O15 2.905990 1_455
Na11 O54 2.320369 1_555
Na11 O19 2.330557 1_556
Na11 O55 2.454752 1_555
Na11 O40 2.587505 1_655
Na11 O41 2.648868 1_555
Na12 O55 2.390692 1_555
Na12 O56 2.404682 1_555
Na12 O20 2.430514 1_556
Na12 O41 2.592983 1_545
Na12 O39 2.626936 1_655
Na12 O5 2.804966 1_555
Na13 O57 2.369966 1_555
Na13 O59 2.396445 1_555
Na13 O23 2.467009 1_555
Na13 O38 2.567831 1_655
Na13 O37 2.606158 1_545
Na13 O2 2.846814 1_555
Na13 O28 2.979288 1_655
Na13 O30 2.981853 1_655
Na14 O58 2.321750 1_555
Na14 O21 2.333537 1_555
Na14 O57 2.463028 1_555
Na14 O36 2.605723 1_545
Na14 O38 2.690428 1_555
Na14 O31 2.925027 1_545
Na14 O0 2.946610 1_555
Na14 O29 2.960242 1_545
Na15 O43 2.364216 1_665
Na15 O44 2.389809 1_555
Na15 O42 2.486526 1_565
Na15 O36 2.670660 1_655
Na15 O37 2.724393 1_555
Na15 O38 2.725468 1_665
Na16 O45 2.366785 1_445
Na16 O47 2.462296 1_555
Na16 O46 2.520084 1_455
Na16 O40 2.605393 1_544
Na16 O39 2.671833 1_554
Na16 O41 2.715420 1_444
Na17 O54 2.328848 1_555
Na17 O56 2.381630 1_555
Na17 O55 2.469031 1_555
Na17 O49 2.673348 1_555
Na17 O48 2.679696 1_555
Na17 O50 2.759171 1_555
Na18 O58 2.339273 1_555
Na18 O57 2.415173 1_555
Na18 O59 2.444524 1_555
Na18 O51 2.673737 1_555
Na18 O52 2.699971 1_555
Na18 O53 2.709140 1_555
Na19 O66 2.374626 1_555
Na19 O67 2.389382 1_555
Na19 O68 2.477764 1_555
Na19 O62 2.690634 1_555
Na19 O61 2.711448 1_555
Na19 O60 2.809989 1_555
Na20 O71 2.325365 1_555
Na20 O70 2.484257 1_555
Na20 O69 2.505008 1_555
Na20 O63 2.610572 1_555
Na20 O64 2.725187 1_555
Na20 O65 2.772243 1_555
Hf0 O1 2.034969 1_555
Hf0 O0 2.064024 1_665
Hf0 O37 2.070842 1_555
Hf0 O2 2.070964 1_565
Hf0 O36 2.114804 1_655
Hf0 O38 2.132253 1_665
Hf1 O5 1.995554 1_455
Hf1 O3 2.046716 1_555
Hf1 O4 2.079485 1_445
Hf1 O39 2.097165 1_555
Hf1 O41 2.128153 1_445
Hf1 O40 2.158532 1_545
Hf2 O13 1.986680 1_555
Hf2 O48 2.043291 1_555
Hf2 O12 2.076174 1_555
Hf2 O14 2.112968 1_555
Hf2 O49 2.120356 1_555
Hf2 O50 2.171991 1_555
Hf3 O15 1.998430 1_555
Hf3 O16 2.047451 1_555
Hf3 O52 2.103706 1_555
Hf3 O17 2.104176 1_555
Hf3 O51 2.133598 1_555
Hf3 O53 2.145860 1_555
Hf4 O61 2.039806 1_555
Hf4 O25 2.045934 1_554
Hf4 O26 2.057882 1_554
Hf4 O24 2.090499 1_554
Hf4 O60 2.116188 1_555
Hf4 O62 2.124067 1_555
Hf5 O63 2.042711 1_555
Hf5 O27 2.052435 1_555
Hf5 O29 2.066129 1_555
Hf5 O28 2.093743 1_555
Hf5 O64 2.112524 1_555
Hf5 O65 2.123420 1_555
O0 P0 1.580266 1_545
O1 P1 1.576798 1_555
O2 P2 1.569932 1_555
O3 P3 1.567817 1_555
O4 P4 1.572211 1_555
O5 Si0 1.669313 1_555
O6 Si0 1.616749 1_565
O6 Zn0 1.978361 1_655
O7 P3 1.532897 1_555
O7 Zn0 2.073948 1_545
O8 P4 1.536011 1_455
O8 Zn0 2.054039 1_555
O9 P1 1.531520 1_555
O9 Zn1 2.047656 1_555
O10 P2 1.537571 1_455
O10 Zn1 2.062810 1_445
O11 P0 1.541898 1_555
O11 Zn1 2.045381 1_455
O12 P5 1.585194 1_555
O13 Si1 1.676438 1_555
O14 P6 1.578609 1_555
O15 Si2 1.672717 1_555
O16 P7 1.573527 1_555
O17 P8 1.578094 1_555
O18 P8 1.520652 1_555
O18 Zn2 1.983694 1_554
O19 Si2 1.615490 1_555
O19 Zn2 1.977609 1_554
O20 P7 1.530833 1_555
O20 Zn2 2.108464 1_554
O21 Si1 1.614115 1_555
O21 Zn3 1.979592 1_555
O22 P6 1.516866 1_555
O22 Zn3 1.967091 1_555
O23 P5 1.526547 1_555
O23 Zn3 2.103920 1_555
O24 P9 1.577731 1_555
O25 P10 1.577843 1_555
O26 P11 1.590864 1_555
O27 P12 1.579071 1_555
O28 P13 1.580375 1_555
O29 P14 1.589819 1_555
O30 P14 1.537028 1_555
O30 Zn4 2.076338 1_555
O31 P12 1.517603 1_555
O31 Zn4 1.969769 1_555
O32 P13 1.528546 1_555
O32 Zn4 2.046664 1_555
O33 P10 1.533805 1_555
O33 Zn5 2.067332 1_555
O34 P11 1.540016 1_555
O34 Zn5 2.038421 1_555
O35 P9 1.527886 1_555
O35 Zn5 2.021387 1_555
O36 P14 1.578608 1_555
O37 P12 1.571280 1_555
O38 P13 1.599314 1_555
O39 P10 1.569635 1_555
O40 P11 1.569206 1_555
O41 P9 1.595462 1_555
O42 P5 1.535132 1_555
O42 Zn0 2.313114 1_645
O43 Si1 1.628888 1_555
O43 Zn0 2.132893 1_545
O44 P6 1.535384 1_555
O44 Zn0 2.288812 1_655
O45 Si2 1.632098 1_555
O45 Zn1 2.115514 1_555
O46 P7 1.537902 1_555
O46 Zn1 2.283234 1_545
O47 P8 1.537944 1_555
O47 Zn1 2.272295 1_445
O48 Si0 1.677569 1_555
O49 P3 1.574471 1_555
O50 P4 1.571242 1_555
O51 P1 1.591963 1_555
O52 P2 1.575564 1_555
O53 P0 1.568815 1_545
O54 P9 1.528910 1_555
O54 Zn2 2.230246 1_555
O55 P10 1.544257 1_655
O55 Zn2 2.335836 1_555
O56 P11 1.527976 1_545
O56 Zn2 2.239763 1_555
O57 P12 1.546650 1_545
O57 Zn3 2.272870 1_555
O58 P13 1.528816 1_555
O58 Zn3 2.259111 1_555
O59 P14 1.527193 1_655
O59 Zn3 2.248252 1_555
O60 P8 1.582562 1_555
O61 Si2 1.677917 1_455
O62 P7 1.576523 1_565
O63 Si1 1.674445 1_565
O64 P6 1.582718 1_555
O65 P5 1.573395 1_455
O66 P0 1.532042 1_555
O66 Zn4 2.202179 1_555
O67 P1 1.530409 1_555
O67 Zn4 2.184432 1_555
O68 P2 1.548268 1_455
O68 Zn4 2.325014 1_555
O69 P3 1.536838 1_555
O69 Zn5 2.238703 1_555
O70 P4 1.538258 1_455
O70 Zn5 2.286479 1_555
O71 Si0 1.631684 1_565
O71 Zn5 2.122639 1_555
