# generated using pymatgen
data_MgTe4Mo3W(SeS)2
_symmetry_space_group_name_H-M   'P 1'
_cell_length_a   3.38900800
_cell_length_b   3.38870627
_cell_length_c   47.03302975
_cell_angle_alpha   90.03467057
_cell_angle_beta   90.00000000
_cell_angle_gamma   120.00292593
_symmetry_Int_Tables_number   1
_chemical_formula_structural   MgTe4Mo3W(SeS)2
_chemical_formula_sum   'Mg1 Te4 Mo3 W1 Se2 S2'
_cell_volume   467.76443281
_cell_formula_units_Z   1
loop_
 _symmetry_equiv_pos_site_id
 _symmetry_equiv_pos_as_xyz
  1  'x, y, z'
loop_
 _atom_site_type_symbol
 _atom_site_label
 _atom_site_symmetry_multiplicity
 _atom_site_fract_x
 _atom_site_fract_y
 _atom_site_fract_z
 _atom_site_occupancy
  Mg  Mg0  1  0.99991100  0.99982200  0.18453800  1
  Te  Te0  1  0.33337900  0.66675800  0.32898200  1
  Te  Te1  1  0.33358100  0.66716400  0.69725400  1
  Te  Te2  1  0.33291900  0.66583900  0.24882500  1
  Te  Te3  1  0.33305700  0.66611600  0.61746900  1
  Mo  Mo0  1  0.33348500  0.66696900  0.08547400  1
  Mo  Mo1  1  0.66650600  0.33301400  0.28912200  1
  Mo  Mo2  1  0.66666300  0.33332600  0.65735200  1
  W  W0  1  0.33334700  0.66669400  0.46961200  1
  Se  Se0  1  0.66679200  0.33358300  0.05047200  1
  Se  Se1  1  0.66688500  0.33376800  0.12095800  1
  S  S0  1  0.66656000  0.33311800  0.43751700  1
  S  S1  1  0.66691500  0.33383000  0.50172900  1
loop_
_geom_bond_atom_site_label_1
_geom_bond_atom_site_label_2
_geom_bond_distance
_geom_bond_site_symmetry_2
Mo0 Se0 2.556643 1_555
Mo0 Se0 2.556643 1_455
Mo0 Se0 2.557653 1_565
Mo0 Se1 2.570953 1_565
Mo0 Se1 2.571972 1_455
Mo0 Se1 2.571974 1_555
Mo1 Te0 2.709723 1_545
Mo1 Te0 2.709732 1_555
Mo1 Te0 2.709737 1_655
Mo1 Te2 2.723971 1_555
Mo1 Te2 2.723974 1_655
Mo1 Te2 2.724028 1_545
Mo2 Te3 2.710417 1_655
Mo2 Te3 2.710421 1_555
Mo2 Te3 2.710600 1_545
Mo2 Te1 2.710892 1_545
Mo2 Te1 2.711199 1_655
Mo2 Te1 2.711203 1_555
S0 W0 2.471076 1_655
S0 W0 2.471080 1_555
S0 W0 2.471347 1_545
S1 W0 2.471718 1_555
S1 W0 2.471719 1_655
S1 W0 2.471963 1_545
