# generated using pymatgen
data_MgFe6(O5F)2
_symmetry_space_group_name_H-M   'P 1'
_cell_length_a   5.10481774
_cell_length_b   7.59682888
_cell_length_c   5.70673430
_cell_angle_alpha   98.41046479
_cell_angle_beta   95.74336743
_cell_angle_gamma   86.99786979
_symmetry_Int_Tables_number   1
_chemical_formula_structural   MgFe6(O5F)2
_chemical_formula_sum   'Mg1 Fe6 O10 F2'
_cell_volume   217.67039662
_cell_formula_units_Z   1
loop_
 _symmetry_equiv_pos_site_id
 _symmetry_equiv_pos_as_xyz
  1  'x, y, z'
loop_
 _atom_site_type_symbol
 _atom_site_label
 _atom_site_symmetry_multiplicity
 _atom_site_fract_x
 _atom_site_fract_y
 _atom_site_fract_z
 _atom_site_occupancy
  Mg  Mg0  1  0.00252100  0.50011400  0.99290500  1
  Fe  Fe0  1  0.54323100  0.70366600  0.12228900  1
  Fe  Fe1  1  0.45795100  0.98848900  0.52963200  1
  Fe  Fe2  1  0.47162100  0.31518000  0.88434500  1
  Fe  Fe3  1  0.98435100  0.69214500  0.63544700  1
  Fe  Fe4  1  0.00214100  0.31962800  0.37758800  1
  Fe  Fe5  1  0.01478300  0.00453900  0.99119800  1
  O  O0  1  0.86328600  0.45300400  0.64250200  1
  O  O1  1  0.84964700  0.75949300  0.96338400  1
  O  O2  1  0.67597400  0.09606200  0.80949500  1
  O  O3  1  0.67763300  0.78061600  0.45670900  1
  O  O4  1  0.69319900  0.44042100  0.14467300  1
  O  O5  1  0.32923600  0.56257800  0.86679900  1
  O  O6  1  0.30619200  0.22753400  0.56223300  1
  O  O7  1  0.31526400  0.91526800  0.20689600  1
  O  O8  1  0.16077300  0.25281500  0.05628500  1
  O  O9  1  0.18386500  0.90168300  0.70499000  1
  F  F0  1  0.82140300  0.09700300  0.29413900  1
  F  F1  1  0.16081800  0.57011600  0.34182300  1
loop_
_geom_bond_atom_site_label_1
_geom_bond_atom_site_label_2
_geom_bond_distance
_geom_bond_site_symmetry_2
Mg0 O4 1.978062 1_456
Mg0 O5 1.986888 1_555
Mg0 O0 2.040768 1_455
Mg0 O8 2.072252 1_556
Mg0 O1 2.104714 1_455
Fe0 O5 1.953120 1_554
Fe0 O7 1.964924 1_555
Fe0 O3 1.976921 1_555
Fe0 O1 1.978588 1_554
Fe0 O4 2.120495 1_555
Fe1 O3 1.907947 1_555
Fe1 O7 1.925182 1_555
Fe1 O6 1.927492 1_565
Fe1 O2 1.953198 1_565
Fe1 O9 1.990953 1_555
Fe2 O2 1.934137 1_555
Fe2 O4 1.937690 1_556
Fe2 O6 1.981328 1_555
Fe2 O5 1.991990 1_555
Fe2 O8 2.057090 1_556
Fe3 O9 1.905999 1_655
Fe3 O3 1.927264 1_555
Fe3 O0 1.956525 1_555
Fe3 O1 2.043907 1_555
Fe3 O5 2.354777 1_655
Fe4 O0 1.872367 1_455
Fe4 O6 1.945111 1_555
Fe4 O8 2.063326 1_555
Fe4 O4 2.209452 1_455
Fe5 O9 1.965056 1_545
Fe5 O7 2.021213 1_546
Fe5 O8 2.034127 1_556
Fe5 O1 2.062144 1_445
Fe5 O2 2.067852 1_455
F0 Fe4 1.943772 1_655
F0 Fe5 2.090546 1_654
F1 Fe3 2.058853 1_455
F1 Mg0 2.076973 1_554
F1 Fe4 2.151053 1_555
