# generated using pymatgen
data_MgMn2(PO4)2
_symmetry_space_group_name_H-M   'P 1'
_cell_length_a   5.05823778
_cell_length_b   5.05823717
_cell_length_c   6.83745388
_cell_angle_alpha   88.19533135
_cell_angle_beta   88.19533193
_cell_angle_gamma   69.11260698
_symmetry_Int_Tables_number   1
_chemical_formula_structural   MgMn2(PO4)2
_chemical_formula_sum   'Mg1 Mn2 P2 O8'
_cell_volume   163.32531988
_cell_formula_units_Z   1
loop_
 _symmetry_equiv_pos_site_id
 _symmetry_equiv_pos_as_xyz
  1  'x, y, z'
loop_
 _atom_site_type_symbol
 _atom_site_label
 _atom_site_symmetry_multiplicity
 _atom_site_fract_x
 _atom_site_fract_y
 _atom_site_fract_z
 _atom_site_occupancy
  Mg  Mg0  1  0.50000400  0.50000400  0.49999400  1
  Mn  Mn0  1  0.00000300  0.00000300  0.50004200  1
  Mn  Mn1  1  0.99998400  0.99998400  0.99999500  1
  P  P0  1  0.33786200  0.33786200  0.22360700  1
  P  P1  1  0.66214000  0.66214200  0.77639000  1
  O  O0  1  0.67236200  0.23954300  0.25255400  1
  O  O1  1  0.76029400  0.76029600  0.57661400  1
  O  O2  1  0.24548700  0.24548700  0.04033000  1
  O  O3  1  0.23970700  0.23970700  0.42338700  1
  O  O4  1  0.76046400  0.32764400  0.74744000  1
  O  O5  1  0.32764400  0.76046400  0.74744000  1
  O  O6  1  0.75450200  0.75450400  0.95966000  1
  O  O7  1  0.23954400  0.67236100  0.25255400  1
loop_
_geom_bond_atom_site_label_1
_geom_bond_atom_site_label_2
_geom_bond_distance
_geom_bond_site_symmetry_2
Mg0 O7 2.141647 1_555
Mg0 O0 2.141650 1_555
Mg0 O5 2.141682 1_555
Mg0 O4 2.141682 1_555
Mg0 O1 2.250414 1_555
Mg0 O3 2.250439 1_555
Mn0 O1 2.045183 1_445
Mn0 O3 2.045275 1_555
Mn0 O4 2.385731 1_455
Mn0 O5 2.385731 1_545
Mn0 O0 2.386172 1_455
Mn0 O7 2.386176 1_545
Mn1 O6 2.074189 1_555
Mn1 O2 2.074371 1_666
Mn1 O0 2.390880 1_566
Mn1 O7 2.390883 1_656
Mn1 O4 2.390898 1_565
Mn1 O5 2.390898 1_655
O0 P0 1.601305 1_555
O1 P1 1.564986 1_555
O2 P0 1.495485 1_555
O3 P0 1.565014 1_555
O4 P1 1.601297 1_555
O5 P1 1.601288 1_555
O6 P1 1.495385 1_555
O7 P0 1.601301 1_555
