# generated using pymatgen
data_MgCu2(O2F)2
_symmetry_space_group_name_H-M   'P 1'
_cell_length_a   3.35972507
_cell_length_b   5.31761872
_cell_length_c   6.75465699
_cell_angle_alpha   108.38399904
_cell_angle_beta   104.36323244
_cell_angle_gamma   89.98261599
_symmetry_Int_Tables_number   1
_chemical_formula_structural   MgCu2(O2F)2
_chemical_formula_sum   'Mg1 Cu2 O4 F2'
_cell_volume   110.53916860
_cell_formula_units_Z   1
loop_
 _symmetry_equiv_pos_site_id
 _symmetry_equiv_pos_as_xyz
  1  'x, y, z'
loop_
 _atom_site_type_symbol
 _atom_site_label
 _atom_site_symmetry_multiplicity
 _atom_site_fract_x
 _atom_site_fract_y
 _atom_site_fract_z
 _atom_site_occupancy
  Mg  Mg0  1  0.63666000  0.22191000  0.27495900  1
  Cu  Cu0  1  0.89253700  0.54065800  0.78503100  1
  Cu  Cu1  1  0.13691600  0.72353000  0.27515500  1
  O  O0  1  0.06347000  0.33901400  0.12830600  1
  O  O1  1  0.94957000  0.26081700  0.89913300  1
  O  O2  1  0.44689400  0.71744300  0.89416000  1
  O  O3  1  0.56378500  0.80834300  0.12878300  1
  F  F0  1  0.74215300  0.58680700  0.48650800  1
  F  F1  1  0.21384800  0.12885800  0.43004700  1
loop_
_geom_bond_atom_site_label_1
_geom_bond_atom_site_label_2
_geom_bond_distance
_geom_bond_site_symmetry_2
Mg0 O3 2.093327 1_545
Mg0 O0 2.125914 1_555
Mg0 O0 2.125954 1_655
Cu0 O1 1.869523 1_555
Cu0 O2 1.943820 1_555
Cu0 O2 1.943909 1_655
Cu0 F0 2.046470 1_555
Cu1 O0 1.955807 1_555
Cu1 O3 2.054967 1_555
Cu1 O3 2.055457 1_455
Cu1 F1 2.061759 1_565
Cu1 F0 2.432088 1_555
Cu1 F0 2.433192 1_455
O0 O1 1.419784 1_454
O2 O3 1.451755 1_556
F0 Mg0 1.983128 1_555
F1 Mg0 2.102669 1_455
F1 Mg0 2.103767 1_555
