# generated using pymatgen
data_Na8ZnSi4Sn3(PO12)2
_symmetry_space_group_name_H-M   'P 1'
_cell_length_a   9.13421024
_cell_length_b   9.13339332
_cell_length_c   22.35284195
_cell_angle_alpha   89.82261590
_cell_angle_beta   90.27745345
_cell_angle_gamma   120.07019414
_symmetry_Int_Tables_number   1
_chemical_formula_structural   Na8ZnSi4Sn3(PO12)2
_chemical_formula_sum   'Na24 Zn3 Si12 Sn9 P6 O72'
_cell_volume   1613.81482250
_cell_formula_units_Z   3
loop_
 _symmetry_equiv_pos_site_id
 _symmetry_equiv_pos_as_xyz
  1  'x, y, z'
loop_
 _atom_site_type_symbol
 _atom_site_label
 _atom_site_symmetry_multiplicity
 _atom_site_fract_x
 _atom_site_fract_y
 _atom_site_fract_z
 _atom_site_occupancy
  Na  Na0  1  0.63800485  0.01362794  0.24370445  1
  Na  Na1  1  0.37639520  0.36302751  0.24504169  1
  Na  Na2  1  0.98656670  0.62356785  0.24507489  1
  Na  Na3  1  0.63711412  0.62498227  0.74713250  1
  Na  Na4  1  0.98408471  0.36617004  0.75007487  1
  Na  Na5  1  0.37921221  0.00833427  0.74610960  1
  Na  Na6  1  0.30986807  0.33457600  0.58482437  1
  Na  Na7  1  0.03013462  0.70004837  0.58465272  1
  Na  Na8  1  0.66319805  0.96839045  0.58853525  1
  Na  Na9  1  0.30591747  0.96987216  0.08259138  1
  Na  Na10  1  0.66386714  0.69397469  0.08259812  1
  Na  Na11  1  0.03015178  0.33610655  0.08252083  1
  Na  Na12  1  0.96532589  0.66535545  0.91722752  1
  Na  Na13  1  0.69973876  0.03488070  0.91714934  1
  Na  Na14  1  0.33484786  0.30111065  0.91864099  1
  Na  Na15  1  0.97132598  0.29432551  0.41385926  1
  Na  Na16  1  0.31889434  0.03392692  0.41619737  1
  Na  Na17  1  0.71047360  0.67355368  0.41429871  1
  Na  Na18  1  0.00461903  0.99778188  0.49627668  1
  Na  Na19  1  0.99979585  0.00002279  -0.00002775  1
  Na  Na20  1  0.67083624  0.33367730  0.82966268  1
  Na  Na21  1  0.66709440  0.33664931  0.32950225  1
  Na  Na22  1  0.33339036  0.66638520  0.16189338  1
  Na  Na23  1  0.33784090  0.67328483  0.66834587  1
  Zn  Zn0  1  0.00734172  0.00072787  0.35137243  1
  Zn  Zn1  1  0.66541746  0.33216482  0.68372236  1
  Zn  Zn2  1  0.66708697  0.33317056  0.17252887  1
  Si  Si0  1  0.00060950  0.70278262  0.75081980  1
  Si  Si1  1  0.70509172  0.00068721  0.75002736  1
  Si  Si2  1  0.37350075  0.03976878  0.58464506  1
  Si  Si3  1  0.66586550  0.62846115  0.58487750  1
  Si  Si4  1  0.96173277  0.62694222  0.08540197  1
  Si  Si5  1  0.66522523  0.03842478  0.08532041  1
  Si  Si6  1  0.37326989  0.33462693  0.08532734  1
  Si  Si7  1  0.62563855  0.66508354  0.91659283  1
  Si  Si8  1  0.03975189  0.37293826  0.91606564  1
  Si  Si9  1  0.33435696  0.96290897  0.91662537  1
  Si  Si10  1  0.33321054  0.37140312  0.41689691  1
  Si  Si11  1  0.03620284  0.66431131  0.41702691  1
  Sn  Sn0  1  0.99577281  0.99691537  0.85233059  1
  Sn  Sn1  1  0.99887410  0.99324716  0.64939784  1
  Sn  Sn2  1  0.99993861  0.99958211  0.14872268  1
  Sn  Sn3  1  0.66709947  0.33375368  0.98285226  1
  Sn  Sn4  1  0.66469185  0.33833271  0.48339078  1
  Sn  Sn5  1  0.33275662  0.66671150  0.01778560  1
  Sn  Sn6  1  0.33284513  0.66729697  0.51766069  1
  Sn  Sn7  1  0.33085762  0.66318056  0.31682353  1
  Sn  Sn8  1  0.33491561  0.67068798  0.81571946  1
  P  P0  1  0.29557448  0.99913706  0.25255834  1
  P  P1  1  0.70546001  0.70812310  0.25311816  1
  P  P2  1  0.00012366  0.29305523  0.25262942  1
  P  P3  1  0.28966298  0.29268093  0.75055199  1
  P  P4  1  0.96089012  0.33293415  0.58365580  1
  P  P5  1  0.62634509  0.96211393  0.41678084  1
  O  O0  1  0.21190431  0.02489048  0.30763761  1
  O  O1  1  0.81541515  0.79368711  0.30834759  1
  O  O2  1  0.97470812  0.18280886  0.30782866  1
  O  O3  1  0.20658814  0.17942370  0.80636167  1
  O  O4  1  0.96789860  0.79108213  0.80932690  1
  O  O5  1  0.82710164  0.03758254  0.80892293  1
  O  O6  1  0.78818981  0.96176300  0.69035517  1
  O  O7  1  0.17522173  0.21463522  0.69352558  1
  O  O8  1  0.04868205  0.82769010  0.69127239  1
  O  O9  1  0.78340537  0.82156958  0.19531071  1
  O  O10  1  0.03658065  0.21469468  0.19532314  1
  O  O11  1  0.17925999  0.96070086  0.19527774  1
  O  O12  1  0.88572248  0.36906539  0.63857196  1
  O  O13  1  0.49268197  0.11556649  0.64239287  1
  O  O14  1  0.62363789  0.50884153  0.64243960  1
  O  O15  1  0.88935820  0.51361073  0.14489480  1
  O  O16  1  0.62437236  0.11073024  0.14465298  1
  O  O17  1  0.48683370  0.37542854  0.14494944  1
  O  O18  1  0.44946268  0.29142916  0.02514146  1
  O  O19  1  0.84187479  0.55082866  0.02498262  1
  O  O20  1  0.70882557  0.15844987  0.02506465  1
  O  O21  1  0.45203489  0.15471984  0.52280140  1
  O  O22  1  0.71132009  0.55501022  0.52394910  1
  O  O23  1  0.84827453  0.29577400  0.52597701  1
  O  O24  1  0.54619552  0.70701809  0.97510129  1
  O  O25  1  0.16010198  0.45199699  0.97525881  1
  O  O26  1  0.29047660  0.84039337  0.97526215  1
  O  O27  1  0.54511649  0.84807516  0.47259075  1
  O  O28  1  0.29926493  0.45833431  0.47547908  1
  O  O29  1  0.15924852  0.70300355  0.47555785  1
  O  O30  1  0.11830985  0.62372322  0.35762903  1
  O  O31  1  0.50959540  0.88406667  0.36046586  1
  O  O32  1  0.38126418  0.49822180  0.35798866  1
  O  O33  1  0.12023265  0.49283988  0.85674397  1
  O  O34  1  0.37656534  0.88487357  0.85751309  1
  O  O35  1  0.50467034  0.62297721  0.85712072  1
  O  O36  1  0.01400157  0.82884354  0.41286190  1
  O  O37  1  0.80094062  0.97892686  0.41152718  1
  O  O38  1  0.16369838  0.18787251  0.41271710  1
  O  O39  1  0.02505732  0.18619183  0.91155526  1
  O  O40  1  0.16508319  0.98210973  0.91117887  1
  O  O41  1  0.81345779  0.83611878  0.91286720  1
  O  O42  1  0.98114157  0.17312984  0.58816231  1
  O  O43  1  0.18512571  0.02765741  0.58755042  1
  O  O44  1  0.83613552  0.82071792  0.58677329  1
  O  O45  1  0.97920779  0.81686567  0.08997424  1
  O  O46  1  0.83747117  0.02067017  0.08989606  1
  O  O47  1  0.18291152  0.16216307  0.08998577  1
  O  O48  1  0.68505620  0.16633336  0.74700313  1
  O  O49  1  0.46432890  0.30957721  0.74693153  1
  O  O50  1  0.83160599  0.51944371  0.74646855  1
  O  O51  1  0.68321880  0.53127918  0.24790747  1
  O  O52  1  0.84555640  0.31560147  0.24727898  1
  O  O53  1  0.47209181  0.15433863  0.24722170  1
  O  O54  1  0.64303738  0.49506422  0.92146878  1
  O  O55  1  0.85251561  0.35615176  0.92128389  1
  O  O56  1  0.50495573  0.14985427  0.92189500  1
  O  O57  1  0.63973260  0.13831800  0.42257916  1
  O  O58  1  0.50693067  0.35696989  0.42043812  1
  O  O59  1  0.85283762  0.48444276  0.42209381  1
  O  O60  1  0.35206275  0.50285319  0.07827279  1
  O  O61  1  0.15092816  0.64797522  0.07826777  1
  O  O62  1  0.49688771  0.84891895  0.07816111  1
  O  O63  1  0.34836823  0.84709106  0.57748383  1
  O  O64  1  0.49568659  0.64882454  0.57692652  1
  O  O65  1  0.14045432  0.49289613  0.57675164  1
  O  O66  1  0.30883989  0.83122492  0.25561374  1
  O  O67  1  0.52514934  0.69758031  0.25510012  1
  O  O68  1  0.16918819  0.47382682  0.25420403  1
  O  O69  1  0.30118508  0.46864695  0.75454881  1
  O  O70  1  0.17504986  0.68921834  0.75412872  1
  O  O71  1  0.52089495  0.82100815  0.75378625  1
loop_
_geom_bond_atom_site_label_1
_geom_bond_atom_site_label_2
_geom_bond_distance
_geom_bond_site_symmetry_2
Na0 O16 2.408329 1_555
Na0 O53 2.430656 1_555
Na0 O52 2.442820 1_555
Na0 O67 2.544792 1_545
Na0 O66 2.621394 1_545
Na0 O31 2.864870 1_545
Na0 O9 2.893337 1_545
Na1 O51 2.429622 1_555
Na1 O17 2.437612 1_555
Na1 O53 2.463345 1_555
Na1 O68 2.563724 1_555
Na1 O67 2.659727 1_555
Na1 O32 2.804262 1_555
Na1 O10 2.909776 1_555
Na1 O0 3.016061 1_555
Na2 O15 2.431573 1_555
Na2 O52 2.437684 1_555
Na2 O51 2.460269 1_555
Na2 O66 2.592142 1_655
Na2 O68 2.641182 1_655
Na2 O30 2.783319 1_655
Na2 O11 2.895661 1_655
Na3 O50 2.408702 1_555
Na3 O49 2.496659 1_555
Na3 O71 2.502467 1_555
Na3 O14 2.549226 1_555
Na3 O69 2.663547 1_555
Na3 O35 2.741289 1_555
Na3 O6 2.952213 1_555
Na3 O4 2.956739 1_555
Na4 O48 2.408235 1_555
Na4 O50 2.420364 1_555
Na4 O69 2.560578 1_655
Na4 O70 2.568855 1_655
Na4 O12 2.649856 1_555
Na4 O33 2.667722 1_655
Na4 O5 2.911101 1_555
Na4 O7 3.002519 1_655
Na5 O48 2.418048 1_555
Na5 O49 2.455883 1_555
Na5 O13 2.529867 1_555
Na5 O70 2.560845 1_545
Na5 O71 2.616580 1_545
Na5 O34 2.725618 1_545
Na5 O8 2.885252 1_545
Na6 O43 2.441060 1_555
Na6 O64 2.503539 1_555
Na6 O65 2.599263 1_555
Na6 O42 2.600066 1_455
Na6 O7 2.697927 1_555
Na6 O28 2.711337 1_555
Na6 O14 2.794934 1_555
Na6 O21 2.911371 1_555
Na7 O44 2.513022 1_455
Na7 O63 2.523873 1_555
Na7 O65 2.557473 1_555
Na7 O43 2.591688 1_565
Na7 O8 2.623558 1_555
Na7 O29 2.708103 1_555
Na7 O22 2.860671 1_455
Na7 O12 2.885812 1_455
Na8 O63 2.521964 1_555
Na8 O44 2.540073 1_555
Na8 O64 2.540257 1_555
Na8 O42 2.547339 1_565
Na8 O6 2.555464 1_555
Na8 O13 2.794352 1_565
Na8 O27 2.809013 1_555
Na8 O23 2.947119 1_565
Na9 O62 2.491276 1_555
Na9 O47 2.520962 1_565
Na9 O61 2.546889 1_555
Na9 O45 2.590354 1_455
Na9 O26 2.649770 1_554
Na9 O11 2.760422 1_555
Na9 O18 2.850908 1_565
Na9 O16 2.874488 1_565
Na10 O60 2.486819 1_555
Na10 O45 2.518002 1_555
Na10 O62 2.549419 1_555
Na10 O46 2.589083 1_565
Na10 O24 2.654192 1_554
Na10 O9 2.759403 1_555
Na10 O19 2.858790 1_555
Na10 O17 2.881678 1_555
Na11 O61 2.487947 1_555
Na11 O46 2.518631 1_455
Na11 O60 2.547270 1_555
Na11 O47 2.591590 1_555
Na11 O25 2.651535 1_554
Na11 O10 2.763574 1_555
Na11 O20 2.846178 1_455
Na11 O15 2.889092 1_455
Na12 O55 2.475592 1_555
Na12 O40 2.535208 1_655
Na12 O54 2.551023 1_555
Na12 O41 2.555815 1_555
Na12 O19 2.644975 1_556
Na12 O4 2.663216 1_555
Na12 O26 2.876954 1_655
Na12 O33 2.928913 1_655
Na13 O56 2.480782 1_555
Na13 O41 2.505080 1_545
Na13 O55 2.542240 1_555
Na13 O39 2.577345 1_655
Na13 O20 2.649615 1_556
Na13 O5 2.684121 1_555
Na13 O34 2.878934 1_545
Na13 O24 2.897749 1_545
Na14 O54 2.463388 1_555
Na14 O39 2.480776 1_555
Na14 O40 2.528673 1_545
Na14 O56 2.545088 1_555
Na14 O18 2.615030 1_556
Na14 O3 2.755110 1_555
Na14 O25 2.878071 1_555
Na14 O35 2.892255 1_555
Na15 O38 2.397142 1_655
Na15 O59 2.471356 1_555
Na15 O37 2.496089 1_545
Na15 O2 2.588985 1_555
Na15 O57 2.630831 1_555
Na15 O23 2.754393 1_555
Na15 O30 2.894599 1_655
Na15 O28 2.930882 1_655
Na16 O38 2.447094 1_555
Na16 O36 2.457912 1_545
Na16 O58 2.566341 1_555
Na16 O57 2.591244 1_555
Na16 O0 2.597651 1_555
Na16 O21 2.649157 1_555
Na16 O29 2.932470 1_545
Na16 O31 2.980000 1_545
Na17 O36 2.399858 1_655
Na17 O37 2.481030 1_555
Na17 O58 2.539469 1_555
Na17 O1 2.585253 1_555
Na17 O59 2.636555 1_555
Na17 O22 2.677961 1_555
Na17 O32 2.888135 1_555
Na17 O27 2.994068 1_555
Na18 O36 2.452873 1_555
Na18 O38 2.468285 1_565
Na18 O43 2.544700 1_565
Na18 O44 2.567389 1_455
Na18 O37 2.593538 1_455
Na18 O42 2.682944 1_465
Na19 O41 2.522211 1_544
Na19 O39 2.537897 1_654
Na19 O40 2.554233 1_644
Na19 O47 2.557870 1_655
Na19 O45 2.559041 1_545
Na19 O46 2.566264 1_555
Na20 O48 2.446547 1_555
Na20 O50 2.450199 1_555
Na20 O49 2.564954 1_555
Na20 O55 2.572678 1_555
Na20 O56 2.612383 1_555
Na20 O54 2.616727 1_555
Na21 O51 2.495664 1_555
Na21 O53 2.518528 1_555
Na21 O52 2.533262 1_555
Na21 O58 2.570939 1_555
Na21 O59 2.583110 1_555
Na21 O57 2.683356 1_555
Na22 O61 2.447672 1_555
Na22 O62 2.454689 1_555
Na22 O60 2.455473 1_555
Na22 O67 2.637819 1_555
Na22 O68 2.639009 1_555
Na22 O66 2.658579 1_555
Na23 O71 2.447018 1_555
Na23 O70 2.480971 1_555
Na23 O63 2.546220 1_555
Na23 O64 2.580437 1_555
Na23 O69 2.583623 1_555
Na23 O65 2.676808 1_555
O0 P0 1.531756 1_545
O0 Zn0 2.024569 1_555
O1 P1 1.533276 1_555
O1 Zn0 2.060804 1_665
O2 P2 1.533306 1_655
O2 Zn0 2.070213 1_655
O3 P3 1.554568 1_555
O3 Sn0 2.081919 1_445
O4 Si0 1.643717 1_655
O4 Sn0 2.013013 1_555
O5 Si1 1.643443 1_555
O5 Sn0 2.002463 1_545
O6 Si1 1.662774 1_565
O6 Sn1 2.021182 1_555
O7 P3 1.572165 1_555
O7 Sn1 2.095036 1_445
O8 Si0 1.661403 1_555
O8 Sn1 2.011482 1_455
O9 P1 1.584783 1_555
O9 Sn2 2.103980 1_555
O10 P2 1.585123 1_555
O10 Sn2 2.099395 1_445
O11 P0 1.583429 1_555
O11 Sn2 2.110936 1_455
O12 P4 1.524756 1_555
O12 Zn1 2.125905 1_555
O13 Si2 1.602276 1_555
O13 Zn1 2.031195 1_555
O14 Si3 1.603665 1_555
O14 Zn1 2.050744 1_555
O15 Si4 1.609713 1_555
O15 Zn2 1.967831 1_555
O16 Si5 1.609808 1_555
O16 Zn2 1.969558 1_555
O17 Si6 1.610389 1_555
O17 Zn2 1.966060 1_555
O18 Si6 1.654524 1_555
O18 Sn3 2.059305 1_554
O19 Si4 1.653674 1_555
O19 Sn3 2.047300 1_554
O20 Si5 1.653176 1_555
O20 Sn3 2.048869 1_554
O21 Si2 1.665450 1_555
O21 Sn4 2.025967 1_555
O22 Si3 1.663588 1_555
O22 Sn4 2.020510 1_555
O23 P4 1.573397 1_555
O23 Sn4 2.122412 1_555
O24 Si7 1.635387 1_555
O24 Sn5 2.035531 1_556
O25 Si8 1.636127 1_555
O25 Sn5 2.033296 1_556
O26 Si9 1.636233 1_555
O26 Sn5 2.042065 1_556
O27 P5 1.555030 1_555
O27 Sn6 2.073887 1_555
O28 Si10 1.642666 1_555
O28 Sn6 2.011795 1_555
O29 Si11 1.640250 1_555
O29 Sn6 2.002066 1_555
O30 Si11 1.659524 1_555
O30 Sn7 2.011232 1_555
O31 P5 1.568668 1_555
O31 Sn7 2.093619 1_555
O32 Si10 1.659767 1_555
O32 Sn7 2.002773 1_555
O33 Si8 1.640631 1_555
O33 Sn8 2.034932 1_555
O34 Si9 1.639714 1_555
O34 Sn8 2.026431 1_555
O35 Si7 1.642906 1_555
O35 Sn8 2.027640 1_555
O36 Si11 1.616277 1_555
O36 Zn0 2.106877 1_565
O37 P5 1.528732 1_555
O37 Zn0 2.246948 1_665
O38 Si10 1.616972 1_555
O38 Zn0 2.095423 1_555
O39 Si8 1.645862 1_555
O39 Sn0 2.088054 1_445
O40 Si9 1.645000 1_555
O40 Sn0 2.080652 1_455
O41 Si7 1.644791 1_555
O41 Sn0 2.078405 1_555
O42 P4 1.563374 1_555
O42 Sn1 2.202197 1_545
O43 Si2 1.669555 1_555
O43 Sn1 2.094887 1_445
O44 Si3 1.663461 1_555
O44 Sn1 2.073265 1_555
O45 Si4 1.663847 1_555
O45 Sn2 2.059074 1_555
O46 Si5 1.663171 1_555
O46 Sn2 2.057773 1_545
O47 Si6 1.664757 1_555
O47 Sn2 2.060151 1_445
O48 Si1 1.613590 1_555
O48 Zn1 2.140929 1_555
O49 P3 1.526506 1_555
O49 Zn1 2.248607 1_555
O50 Si0 1.614186 1_655
O50 Zn1 2.142305 1_555
O51 P1 1.528321 1_555
O51 Zn2 2.425679 1_555
O52 P2 1.529572 1_655
O52 Zn2 2.389385 1_555
O53 P0 1.527640 1_545
O53 Zn2 2.392557 1_555
O54 Si7 1.641519 1_555
O54 Sn3 2.100159 1_555
O55 Si8 1.643514 1_655
O55 Sn3 2.116096 1_555
O56 Si9 1.640315 1_545
O56 Sn3 2.091169 1_555
O57 P5 1.557451 1_545
O57 Sn4 2.198172 1_555
O58 Si10 1.658284 1_555
O58 Sn4 2.076137 1_555
O59 Si11 1.661398 1_655
O59 Sn4 2.079632 1_555
O60 Si6 1.649126 1_555
O60 Sn5 2.085321 1_555
O61 Si4 1.648827 1_455
O61 Sn5 2.085904 1_555
O62 Si5 1.648636 1_565
O62 Sn5 2.081465 1_555
O63 Si2 1.664862 1_565
O63 Sn6 2.069607 1_555
O64 Si3 1.664131 1_555
O64 Sn6 2.055946 1_555
O65 P4 1.564668 1_455
O65 Sn6 2.138791 1_555
O66 P0 1.598997 1_555
O66 Sn7 2.135830 1_555
O67 P1 1.601743 1_555
O67 Sn7 2.148044 1_555
O68 P2 1.598984 1_555
O68 Sn7 2.136949 1_555
O69 P3 1.559915 1_555
O69 Sn8 2.193522 1_555
O70 Si0 1.660206 1_555
O70 Sn8 2.069565 1_555
O71 Si1 1.662689 1_565
O71 Sn8 2.088314 1_555
