# generated using pymatgen
data_Na3Mg(CoO2)5
_symmetry_space_group_name_H-M   'P 1'
_cell_length_a   5.64709182
_cell_length_b   7.99199110
_cell_length_c   5.12109219
_cell_angle_alpha   71.65055865
_cell_angle_beta   71.81028404
_cell_angle_gamma   84.16921473
_symmetry_Int_Tables_number   1
_chemical_formula_structural   Na3Mg(CoO2)5
_chemical_formula_sum   'Na3 Mg1 Co5 O10'
_cell_volume   208.40719462
_cell_formula_units_Z   1
loop_
 _symmetry_equiv_pos_site_id
 _symmetry_equiv_pos_as_xyz
  1  'x, y, z'
loop_
 _atom_site_type_symbol
 _atom_site_label
 _atom_site_symmetry_multiplicity
 _atom_site_fract_x
 _atom_site_fract_y
 _atom_site_fract_z
 _atom_site_occupancy
  Na  Na0  1  0.48665100  0.18661500  0.57636100  1
  Na  Na1  1  0.49367800  0.38007100  0.97475100  1
  Na  Na2  1  0.49323000  0.81919500  0.76699000  1
  Mg  Mg0  1  0.50752100  0.60963100  0.36307100  1
  Co  Co0  1  0.96805900  0.00530000  0.00725900  1
  Co  Co1  1  0.00985000  0.20113500  0.39386200  1
  Co  Co2  1  0.01810100  0.59733600  0.19413600  1
  Co  Co3  1  0.99632700  0.40943200  0.79754200  1
  Co  Co4  1  0.01503200  0.80076200  0.58749000  1
  O  O0  1  0.17930200  0.20847000  0.00535500  1
  O  O1  1  0.18153600  0.99822900  0.63043600  1
  O  O2  1  0.80732200  0.99740500  0.39585600  1
  O  O3  1  0.22276000  0.41475200  0.38731300  1
  O  O4  1  0.78471900  0.41546800  0.20351000  1
  O  O5  1  0.22658600  0.78098400  0.22376800  1
  O  O6  1  0.80744600  0.21353100  0.77624800  1
  O  O7  1  0.22503200  0.59458600  0.77422400  1
  O  O8  1  0.78612200  0.60225800  0.58846100  1
  O  O9  1  0.80430200  0.78091000  0.00786400  1
loop_
_geom_bond_atom_site_label_1
_geom_bond_atom_site_label_2
_geom_bond_distance
_geom_bond_site_symmetry_2
Na0 O1 2.297587 1_545
Na0 O0 2.380920 1_556
Na0 O2 2.387253 1_545
Na0 O3 2.391574 1_555
Na0 O6 2.398212 1_555
Na0 O4 2.498877 1_555
Na1 O3 2.268418 1_556
Na1 O6 2.278733 1_555
Na1 O0 2.289709 1_556
Na1 O7 2.372961 1_555
Na1 O4 2.378833 1_556
Na1 O8 2.477563 1_555
Na2 O1 2.293747 1_555
Na2 O5 2.297181 1_556
Na2 O2 2.343306 1_555
Na2 O9 2.388948 1_556
Na2 O7 2.448056 1_555
Na2 O8 2.459421 1_555
Mg0 O5 2.133364 1_555
Mg0 O7 2.185209 1_555
Mg0 O8 2.209767 1_555
Mg0 O9 2.233052 1_555
Mg0 O4 2.243259 1_555
Mg0 O3 2.299895 1_555
Co0 O2 1.895515 1_545
Co0 O1 1.944944 1_644
Co0 O6 2.028628 1_554
Co0 O9 2.098296 1_545
Co0 O0 2.106172 1_655
Co0 O5 2.408722 1_645
Co1 O0 1.904437 1_555
Co1 O6 1.962821 1_455
Co1 O1 2.052885 1_545
Co1 O2 2.078414 1_445
Co1 O3 2.171901 1_555
Co1 O4 2.186471 1_455
Co2 O3 1.976343 1_555
Co2 O9 1.999514 1_455
Co2 O4 2.039032 1_455
Co2 O5 2.041125 1_555
Co2 O8 2.045357 1_455
Co2 O7 2.108541 1_554
Co3 O7 2.013132 1_655
Co3 O0 2.013189 1_656
Co3 O6 2.029835 1_555
Co3 O4 2.062257 1_556
Co3 O8 2.076856 1_555
Co3 O3 2.080378 1_655
Co4 O5 1.918179 1_555
Co4 O1 2.017962 1_555
Co4 O2 2.044950 1_455
Co4 O9 2.073554 1_456
Co4 O7 2.086813 1_555
Co4 O8 2.143719 1_455
