# generated using pymatgen
data_Na6Mg4Si3Sn4(S3O16)3
_symmetry_space_group_name_H-M   'P 1'
_cell_length_a   17.68689190
_cell_length_b   8.80187162
_cell_length_c   22.78121878
_cell_angle_alpha   90.09134504
_cell_angle_beta   89.94837153
_cell_angle_gamma   120.00298076
_symmetry_Int_Tables_number   1
_chemical_formula_structural   Na6Mg4Si3Sn4(S3O16)3
_chemical_formula_sum   'Na18 Mg12 Si9 Sn12 S27 O144'
_cell_volume   3071.28796144
_cell_formula_units_Z   3
loop_
 _symmetry_equiv_pos_site_id
 _symmetry_equiv_pos_as_xyz
  1  'x, y, z'
loop_
 _atom_site_type_symbol
 _atom_site_label
 _atom_site_symmetry_multiplicity
 _atom_site_fract_x
 _atom_site_fract_y
 _atom_site_fract_z
 _atom_site_occupancy
  Na  Na0  1  0.00033562  0.63555998  0.25134361  1
  Na  Na1  1  0.49884137  0.62478454  0.24129856  1
  Na  Na2  1  0.00458350  0.36735836  0.73994660  1
  Na  Na3  1  0.50103672  0.36933624  0.75097766  1
  Na  Na4  1  0.67225019  0.32014702  0.90943771  1
  Na  Na5  1  0.17022868  0.02712611  0.41522741  1
  Na  Na6  1  0.99164240  0.01180903  0.50129116  1
  Na  Na7  1  0.50635247  0.01444308  0.50095457  1
  Na  Na8  1  0.00664480  0.99928452  0.99519435  1
  Na  Na9  1  0.48998834  0.96665973  0.99584272  1
  Na  Na10  1  0.30405725  0.30324070  0.83062851  1
  Na  Na11  1  0.83731405  0.35884882  0.83671950  1
  Na  Na12  1  0.33062819  0.30912285  0.34076482  1
  Na  Na13  1  0.82004171  0.32688802  0.33913489  1
  Na  Na14  1  0.17591135  0.65384057  0.16354470  1
  Na  Na15  1  0.66724745  0.66313928  0.16221434  1
  Na  Na16  1  0.16445344  0.64775664  0.67187060  1
  Na  Na17  1  0.67915057  0.70457969  0.66695289  1
  Mg  Mg0  1  0.99745707  0.00193696  0.35062655  1
  Mg  Mg1  1  0.49746793  0.99257263  0.84952274  1
  Mg  Mg2  1  0.32256678  0.32908044  0.68788149  1
  Mg  Mg3  1  0.83322050  0.31686422  0.67891996  1
  Mg  Mg4  1  0.33046470  0.34669909  0.17676694  1
  Mg  Mg5  1  0.83096126  0.32961435  0.18303634  1
  Mg  Mg6  1  0.83847735  0.34322032  0.98042784  1
  Mg  Mg7  1  0.33736641  0.33285501  0.48284092  1
  Mg  Mg8  1  0.17131446  0.67210575  0.31885238  1
  Mg  Mg9  1  0.67348796  0.66037348  0.31841249  1
  Mg  Mg10  1  0.17132933  0.67666633  0.81420756  1
  Mg  Mg11  1  0.67361083  0.67431045  0.81734438  1
  Si  Si0  1  0.15021754  0.30333187  0.75373408  1
  Si  Si1  1  0.98125899  0.33712240  0.58331577  1
  Si  Si2  1  0.68267515  0.02981857  0.58500336  1
  Si  Si3  1  0.48298256  0.62204091  0.08465327  1
  Si  Si4  1  0.18364055  0.33921640  0.08496534  1
  Si  Si5  1  0.81308227  0.66485188  0.91567403  1
  Si  Si6  1  0.17321452  0.96014976  0.91718428  1
  Si  Si7  1  0.31026994  0.96146853  0.41655916  1
  Si  Si8  1  0.67401831  0.38098498  0.41658660  1
  Sn  Sn0  1  0.50075493  0.01601922  0.36030430  1
  Sn  Sn1  1  0.00765321  0.99195691  0.85734641  1
  Sn  Sn2  1  0.00259339  0.02126091  0.64818181  1
  Sn  Sn3  1  0.50334153  0.99468683  0.64789397  1
  Sn  Sn4  1  0.00335290  0.01072457  0.14688955  1
  Sn  Sn5  1  0.49937339  0.99046622  0.14499421  1
  Sn  Sn6  1  0.32584883  0.33507658  0.98321512  1
  Sn  Sn7  1  0.82558941  0.31862510  0.48681168  1
  Sn  Sn8  1  0.16616589  0.66329814  0.01528631  1
  Sn  Sn9  1  0.66900606  0.67538759  0.01522974  1
  Sn  Sn10  1  0.16842578  0.66294750  0.51841337  1
  Sn  Sn11  1  0.66564201  0.66292240  0.51840226  1
  S  S0  1  0.14782086  -0.00157378  0.25177088  1
  S  S1  1  0.64698872  0.00053540  0.25171829  1
  S  S2  1  0.35449162  0.70930693  0.25235507  1
  S  S3  1  0.85424769  0.71176034  0.24761107  1
  S  S4  1  0.99896745  0.29758617  0.25160518  1
  S  S5  1  0.49896772  0.29107046  0.24773215  1
  S  S6  1  0.64766702  0.29737433  0.75202675  1
  S  S7  1  0.99492969  0.70250634  0.74722993  1
  S  S8  1  0.50226682  0.70331795  0.75149542  1
  S  S9  1  0.35711392  -0.00034383  0.74740683  1
  S  S10  1  0.85129978  0.99754200  0.75155034  1
  S  S11  1  0.47778501  0.33173599  0.58731270  1
  S  S12  1  0.18643730  0.03966604  0.58217941  1
  S  S13  1  0.33434966  0.62348895  0.58364531  1
  S  S14  1  0.83581503  0.62983764  0.58609265  1
  S  S15  1  0.97865371  0.62488547  0.08766056  1
  S  S16  1  0.33474550  0.04251109  0.08575501  1
  S  S17  1  0.83295982  0.04332103  0.08499897  1
  S  S18  1  0.68745146  0.33314029  0.08430251  1
  S  S19  1  0.31763940  0.67298367  0.91451841  1
  S  S20  1  0.01697829  0.37019601  0.91478987  1
  S  S21  1  0.51780294  0.36964819  0.91381667  1
  S  S22  1  0.66404399  0.96345753  0.91518500  1
  S  S23  1  0.81608452  0.96199991  0.41407215  1
  S  S24  1  0.16461169  0.36688036  0.41459437  1
  S  S25  1  0.01765725  0.66599614  0.41296049  1
  S  S26  1  0.51925582  0.66374392  0.41236063  1
  O  O0  1  0.10487996  0.01875405  0.30465681  1
  O  O1  1  0.60462280  0.02824880  0.30362110  1
  O  O2  1  0.41612018  0.80229099  0.30206905  1
  O  O3  1  0.91175328  0.79733904  0.29818206  1
  O  O4  1  0.48902466  0.18377274  0.30071895  1
  O  O5  1  0.98744998  0.18590895  0.30211123  1
  O  O6  1  0.09885156  0.17392708  0.80970341  1
  O  O7  1  0.60487280  0.19119084  0.80505588  1
  O  O8  1  0.49016574  0.79148662  0.80207899  1
  O  O9  1  0.97942718  0.78066355  0.80073044  1
  O  O10  1  0.41512530  0.02792954  0.79770951  1
  O  O11  1  0.90778186  0.01808327  0.80209313  1
  O  O12  1  0.39689177  0.96769223  0.69219397  1
  O  O13  1  0.88722563  0.96333047  0.69580935  1
  O  O14  1  0.08534957  0.22262456  0.69396881  1
  O  O15  1  0.58706422  0.21055594  0.69929602  1
  O  O16  1  0.00495454  0.81065320  0.69373066  1
  O  O17  1  0.51689073  0.80849091  0.69581061  1
  O  O18  1  0.39265253  0.81695762  0.19699339  1
  O  O19  1  0.89571867  0.81860528  0.19245099  1
  O  O20  1  0.01190710  0.22083269  0.19578930  1
  O  O21  1  0.51330628  0.20732820  0.19415302  1
  O  O22  1  0.08679544  0.96313057  0.19910045  1
  O  O23  1  0.58949043  0.96541918  0.19799065  1
  O  O24  1  0.43823284  0.34961207  0.64157720  1
  O  O25  1  0.94552047  0.36266763  0.64462554  1
  O  O26  1  0.23817344  0.12908127  0.63401314  1
  O  O27  1  0.73738428  0.11167734  0.64284485  1
  O  O28  1  0.32976532  0.52614533  0.63653833  1
  O  O29  1  0.82350716  0.52052652  0.63678274  1
  O  O30  1  0.44894627  0.53052405  0.14758633  1
  O  O31  1  0.93979010  0.53023022  0.14321895  1
  O  O32  1  0.32587194  0.12676102  0.13840028  1
  O  O33  1  0.82611078  0.12740560  0.13906909  1
  O  O34  1  0.23675996  0.37095595  0.14432056  1
  O  O35  1  0.73697423  0.34593066  0.13755014  1
  O  O36  1  0.22103173  0.30155616  0.02467282  1
  O  O37  1  0.72425107  0.30713038  0.03040523  1
  O  O38  1  0.42230000  0.52809680  0.02718364  1
  O  O39  1  0.92668854  0.53468453  0.03613348  1
  O  O40  1  0.34778009  0.14242518  0.03133555  1
  O  O41  1  0.84218852  0.14324166  0.03195100  1
  O  O42  1  0.22310409  0.13704912  0.52716637  1
  O  O43  1  0.71745222  0.13784456  0.52325867  1
  O  O44  1  0.34341577  0.54424201  0.52946056  1
  O  O45  1  0.84885519  0.55830845  0.53008136  1
  O  O46  1  0.42836644  0.31872416  0.53431834  1
  O  O47  1  0.92435011  0.31507169  0.52336876  1
  O  O48  1  0.28045879  0.69171164  0.97201450  1
  O  O49  1  0.77422446  0.70578263  0.97838274  1
  O  O50  1  0.07090962  0.44731436  0.97010291  1
  O  O51  1  0.57632675  0.45025357  0.96697263  1
  O  O52  1  0.15772211  0.85250832  0.98054986  1
  O  O53  1  0.64345554  0.85501985  0.97078730  1
  O  O54  1  0.26867333  0.84077495  0.47672224  1
  O  O55  1  0.77656870  0.86345848  0.46965313  1
  O  O56  1  0.14582143  0.43772397  0.46914158  1
  O  O57  1  0.65455500  0.46100468  0.47688766  1
  O  O58  1  0.07623461  0.70070119  0.46490853  1
  O  O59  1  0.57457865  0.69452705  0.46541421  1
  O  O60  1  0.05549371  0.63878025  0.35864374  1
  O  O61  1  0.56004153  0.64475808  0.35838857  1
  O  O62  1  0.24716635  0.87803690  0.36103017  1
  O  O63  1  0.76090279  0.87812631  0.36247571  1
  O  O64  1  0.17264391  0.47186822  0.36267465  1
  O  O65  1  0.68485640  0.48387433  0.35724529  1
  O  O66  1  0.05937936  0.47490130  0.86277457  1
  O  O67  1  0.55667035  0.47418105  0.86051732  1
  O  O68  1  0.18197520  0.86688271  0.86059785  1
  O  O69  1  0.67176961  0.87160195  0.86446067  1
  O  O70  1  0.26242299  0.64981671  0.86470914  1
  O  O71  1  0.74346558  0.61435947  0.86370759  1
  O  O72  1  0.01121281  0.82807300  0.40783374  1
  O  O73  1  0.51135213  0.82557289  0.40926955  1
  O  O74  1  0.40552576  0.96724636  0.41411404  1
  O  O75  1  0.90300117  0.97778637  0.40887438  1
  O  O76  1  0.08905895  0.18350506  0.40938743  1
  O  O77  1  0.58901834  0.17777792  0.41612804  1
  O  O78  1  0.00651145  0.19220332  0.91257650  1
  O  O79  1  0.51082512  0.19439363  0.90891923  1
  O  O80  1  0.08719995  0.98612005  0.91844634  1
  O  O81  1  0.58921154  0.99664859  0.90964212  1
  O  O82  1  0.40530841  0.83112483  0.91008551  1
  O  O83  1  0.90753305  0.84680576  0.90967768  1
  O  O84  1  0.48541824  0.16763491  0.58938093  1
  O  O85  1  0.98764233  0.15457757  0.58243095  1
  O  O86  1  0.09460619  0.00951095  0.58675778  1
  O  O87  1  0.58256351  0.00345004  0.58683495  1
  O  O88  1  0.41197558  0.80745661  0.58687920  1
  O  O89  1  0.91535595  0.80866703  0.59067777  1
  O  O90  1  0.49296842  0.82288485  0.08494872  1
  O  O91  1  0.98460277  0.80311732  0.08967286  1
  O  O92  1  0.41601952  0.02411608  0.08894219  1
  O  O93  1  0.91054951  0.01631142  0.08893930  1
  O  O94  1  0.08302790  0.16424160  0.08686508  1
  O  O95  1  0.59527073  0.17630193  0.08914098  1
  O  O96  1  0.35482765  0.16406017  0.73948592  1
  O  O97  1  0.84928310  0.16350977  0.74705968  1
  O  O98  1  0.24296626  0.31435447  0.74774200  1
  O  O99  1  0.73359728  0.31676633  0.74408506  1
  O  O100  1  0.42573899  0.52639742  0.74442917  1
  O  O101  1  0.91760023  0.52470245  0.74287130  1
  O  O102  1  0.35077542  0.53843191  0.24802640  1
  O  O103  1  0.84758282  0.53699778  0.24085092  1
  O  O104  1  0.41918935  0.30247433  0.24407114  1
  O  O105  1  0.92061061  0.31858046  0.24562000  1
  O  O106  1  0.23388108  0.15196819  0.24362628  1
  O  O107  1  0.73299875  0.15692112  0.24370179  1
  O  O108  1  0.32909065  0.51452565  0.91773045  1
  O  O109  1  0.82333266  0.49325403  0.92494889  1
  O  O110  1  0.43179095  0.35245701  0.92330084  1
  O  O111  1  0.93028718  0.35251311  0.92258070  1
  O  O112  1  0.26353433  0.15531717  0.92252423  1
  O  O113  1  0.74427083  0.13504754  0.92273944  1
  O  O114  1  0.32245424  0.15506758  0.42499101  1
  O  O115  1  0.82708286  0.14208162  0.41786120  1
  O  O116  1  0.24483105  0.35550785  0.42147397  1
  O  O117  1  0.76324421  0.36807390  0.42423650  1
  O  O118  1  0.43194670  0.51076079  0.41994591  1
  O  O119  1  0.93084335  0.51077045  0.42139852  1
  O  O120  1  0.17210264  0.51482556  0.07668490  1
  O  O121  1  0.67858458  0.49295935  0.08167536  1
  O  O122  1  0.06857562  0.65196229  0.08427120  1
  O  O123  1  0.58245409  0.64913368  0.07550771  1
  O  O124  1  0.25847248  0.86260791  0.08162096  1
  O  O125  1  0.75261884  0.86447117  0.08292852  1
  O  O126  1  0.17908759  0.86206323  0.57980380  1
  O  O127  1  0.67138835  0.83043960  0.57696762  1
  O  O128  1  0.25372916  0.64026608  0.58197077  1
  O  O129  1  0.75806714  0.65491912  0.58092604  1
  O  O130  1  0.08105581  0.50934033  0.57516615  1
  O  O131  1  0.56898965  0.48695818  0.58381352  1
  O  O132  1  0.15083365  0.83254067  0.25409196  1
  O  O133  1  0.65212182  0.83848555  0.25708542  1
  O  O134  1  0.26817609  0.68995069  0.25918147  1
  O  O135  1  0.76803612  0.69671005  0.25147534  1
  O  O136  1  0.07717660  0.47517446  0.25622130  1
  O  O137  1  0.57650744  0.46907042  0.25218491  1
  O  O138  1  0.15296323  0.48992714  0.75790464  1
  O  O139  1  0.65041587  0.46893615  0.75456914  1
  O  O140  1  0.07454064  0.68975058  0.75202928  1
  O  O141  1  0.58113819  0.68506853  0.75671698  1
  O  O142  1  0.27047210  0.84719430  0.75172755  1
  O  O143  1  0.76227435  0.84627710  0.75686419  1
loop_
_geom_bond_atom_site_label_1
_geom_bond_atom_site_label_2
_geom_bond_distance
_geom_bond_site_symmetry_2
Na0 O132 2.340902 1_555
Na0 O103 2.401149 1_455
Na0 O136 2.402470 1_555
Na0 O105 2.419540 1_455
Na0 O60 2.627584 1_555
Na0 O31 2.660499 1_455
Na0 O22 2.768791 1_555
Na0 O3 2.800758 1_455
Na1 O30 2.300077 1_555
Na1 O102 2.338468 1_555
Na1 O137 2.389884 1_555
Na1 O133 2.432475 1_555
Na1 O104 2.457697 1_555
Na1 O23 2.780719 1_555
Na1 O61 2.851541 1_555
Na1 O2 2.962070 1_555
Na2 O138 2.321122 1_555
Na2 O25 2.401914 1_455
Na2 O97 2.421088 1_455
Na2 O140 2.479059 1_555
Na2 O101 2.533710 1_455
Na2 O14 2.563911 1_555
Na3 O96 2.312428 1_555
Na3 O139 2.332260 1_555
Na3 O100 2.355695 1_555
Na3 O141 2.410173 1_555
Na3 O67 2.671338 1_555
Na3 O24 2.699299 1_555
Na3 O15 2.787960 1_555
Na3 O10 2.813033 1_555
Na4 O109 2.348420 1_555
Na4 O81 2.466258 1_545
Na4 O71 2.474289 1_555
Na4 O79 2.493280 1_555
Na4 O113 2.539017 1_555
Na4 O7 2.647046 1_555
Na4 O51 2.800376 1_555
Na4 O37 2.926493 1_556
Na5 O114 2.352587 1_555
Na5 O76 2.439360 1_555
Na5 O72 2.465768 1_545
Na5 O116 2.510066 1_555
Na5 O62 2.622193 1_545
Na5 O42 2.721262 1_555
Na5 O58 2.744044 1_545
Na5 O0 2.757869 1_555
Na6 O85 2.254376 1_555
Na6 O75 2.552373 1_545
Na6 O89 2.599644 1_545
Na6 O76 2.652462 1_655
Na6 O86 2.674162 1_655
Na6 O72 2.795657 1_645
Na7 O87 2.406205 1_555
Na7 O77 2.416721 1_555
Na7 O84 2.550010 1_555
Na7 O74 2.555273 1_545
Na7 O88 2.627035 1_545
Na7 O73 2.696238 1_545
Na8 O80 2.293538 1_555
Na8 O83 2.512863 1_455
Na8 O94 2.515602 1_566
Na8 O78 2.537716 1_565
Na8 O91 2.665137 1_456
Na8 O93 2.778357 1_466
Na9 O82 2.386221 1_555
Na9 O90 2.408319 1_556
Na9 O81 2.556956 1_555
Na9 O92 2.668129 1_566
Na9 O79 2.710647 1_565
Na9 O95 2.819254 1_566
Na10 O98 2.202851 1_555
Na10 O112 2.379992 1_555
Na10 O108 2.599667 1_555
Na10 O96 2.776143 1_555
Na10 O100 2.850113 1_555
Na10 O110 2.962385 1_555
Na11 O109 2.405154 1_555
Na11 O111 2.575084 1_555
Na11 O101 2.578718 1_555
Na11 O113 2.682018 1_555
Na11 O99 2.698284 1_555
Na11 O97 2.743185 1_555
Na12 O114 2.313657 1_555
Na12 O118 2.535728 1_555
Na12 O116 2.542101 1_555
Na12 O106 2.714482 1_555
Na12 O104 2.719249 1_555
Na12 O102 2.820841 1_555
Na13 O117 2.292959 1_555
Na13 O115 2.467863 1_555
Na13 O119 2.607120 1_555
Na13 O107 2.650876 1_555
Na13 O103 2.789438 1_555
Na13 O105 2.798319 1_555
Na14 O120 2.308103 1_555
Na14 O124 2.512880 1_555
Na14 O122 2.615429 1_555
Na14 O134 2.645062 1_555
Na14 O136 2.690286 1_555
Na14 O132 2.758895 1_555
Na15 O121 2.437474 1_555
Na15 O123 2.446589 1_555
Na15 O125 2.451941 1_555
Na15 O135 2.622585 1_555
Na15 O137 2.637826 1_555
Na15 O133 2.743347 1_555
Na16 O138 2.353343 1_555
Na16 O140 2.565301 1_555
Na16 O142 2.571244 1_555
Na16 O130 2.591048 1_555
Na16 O128 2.605742 1_555
Na16 O126 2.747278 1_555
Na17 O127 2.368189 1_555
Na17 O143 2.464949 1_555
Na17 O129 2.565656 1_555
Na17 O141 2.629333 1_555
Na17 O131 2.704672 1_555
Na17 O139 2.738868 1_555
Mg0 O5 2.041493 1_555
Mg0 O3 2.057813 1_545
Mg0 O75 2.058824 1_545
Mg0 O76 2.092495 1_655
Mg0 O0 2.108126 1_655
Mg0 O72 2.116328 1_645
Mg1 O10 2.017108 1_565
Mg1 O8 2.020661 1_555
Mg1 O82 2.065317 1_555
Mg1 O7 2.090935 1_565
Mg1 O81 2.110858 1_555
Mg1 O79 2.148387 1_565
Mg2 O98 1.916562 1_555
Mg2 O28 2.044085 1_555
Mg2 O26 2.049745 1_555
Mg2 O96 2.157051 1_555
Mg2 O100 2.198482 1_555
Mg2 O24 2.226561 1_555
Mg3 O27 1.935596 1_555
Mg3 O25 1.978744 1_555
Mg3 O29 2.116181 1_555
Mg3 O97 2.168716 1_555
Mg3 O101 2.227422 1_555
Mg3 O99 2.302686 1_555
Mg4 O34 1.922328 1_555
Mg4 O30 2.015253 1_555
Mg4 O32 2.087005 1_555
Mg4 O102 2.235719 1_555
Mg4 O106 2.291574 1_555
Mg4 O104 2.362664 1_555
Mg5 O33 2.005026 1_555
Mg5 O35 2.024871 1_555
Mg5 O31 2.061223 1_555
Mg5 O107 2.142672 1_555
Mg5 O103 2.146963 1_555
Mg5 O105 2.171371 1_555
Mg6 O109 1.942359 1_555
Mg6 O111 2.060059 1_555
Mg6 O39 2.062015 1_556
Mg6 O41 2.145356 1_556
Mg6 O113 2.191749 1_555
Mg6 O37 2.198640 1_556
Mg7 O114 1.958693 1_555
Mg7 O46 2.045807 1_555
Mg7 O44 2.096676 1_555
Mg7 O42 2.143068 1_555
Mg7 O118 2.164835 1_555
Mg7 O116 2.237015 1_555
Mg8 O62 1.890336 1_555
Mg8 O64 2.037299 1_555
Mg8 O60 2.121492 1_555
Mg8 O134 2.129539 1_555
Mg8 O132 2.195696 1_555
Mg8 O136 2.218708 1_555
Mg9 O65 1.885096 1_555
Mg9 O63 2.025989 1_555
Mg9 O61 2.143751 1_555
Mg9 O135 2.164758 1_555
Mg9 O133 2.269997 1_555
Mg9 O137 2.271969 1_555
Mg10 O68 1.906547 1_555
Mg10 O138 1.977970 1_555
Mg10 O70 2.088139 1_555
Mg10 O142 2.173438 1_555
Mg10 O66 2.187284 1_555
Mg10 O140 2.269881 1_555
Mg11 O71 1.891207 1_555
Mg11 O69 2.054088 1_555
Mg11 O143 2.068219 1_555
Mg11 O67 2.169413 1_555
Mg11 O139 2.175392 1_555
Mg11 O141 2.179678 1_555
O0 S0 1.481203 1_555
O1 S1 1.483023 1_555
O1 Sn0 2.202818 1_555
O2 S2 1.499237 1_555
O2 Sn0 2.172354 1_565
O3 S3 1.470470 1_555
O4 S5 1.488996 1_555
O4 Sn0 2.092631 1_555
O5 S4 1.460995 1_555
O6 Si0 1.648066 1_555
O6 Sn1 1.940060 1_545
O7 S6 1.483343 1_555
O8 S8 1.462464 1_555
O9 S7 1.489726 1_555
O9 Sn1 2.106302 1_655
O10 S9 1.474366 1_555
O11 S10 1.475544 1_545
O11 Sn1 2.273476 1_645
O12 S9 1.533449 1_565
O12 Sn3 2.041987 1_555
O13 S10 1.515133 1_555
O13 Sn2 2.134974 1_665
O14 Si0 1.690960 1_555
O14 Sn2 1.942719 1_555
O15 S6 1.534974 1_555
O15 Sn3 2.087195 1_545
O16 S7 1.502491 1_455
O16 Sn2 2.144405 1_565
O17 S8 1.515524 1_555
O17 Sn3 2.081797 1_555
O18 S2 1.518780 1_555
O18 Sn5 2.101740 1_555
O19 S3 1.521102 1_555
O19 Sn4 2.084111 1_665
O20 S4 1.508970 1_455
O20 Sn4 2.097108 1_555
O21 S5 1.510296 1_555
O21 Sn5 2.116988 1_545
O22 S0 1.538525 1_565
O22 Sn4 2.095565 1_565
O23 S1 1.521368 1_565
O23 Sn5 2.098204 1_555
O24 S11 1.466374 1_555
O25 Si1 1.593882 1_555
O26 S12 1.459400 1_555
O27 Si2 1.579177 1_555
O28 S13 1.458175 1_555
O29 S14 1.449224 1_555
O30 Si3 1.607450 1_555
O31 S15 1.482444 1_555
O32 S16 1.458127 1_555
O33 S17 1.471802 1_555
O34 Si4 1.589884 1_555
O35 S18 1.467727 1_555
O36 Si4 1.627881 1_555
O36 Sn6 1.966383 1_554
O37 S18 1.459566 1_555
O38 Si3 1.631342 1_555
O38 Sn6 1.974592 1_554
O39 S15 1.456779 1_555
O40 S16 1.470954 1_555
O40 Sn6 2.211807 1_554
O41 S17 1.456047 1_555
O42 S12 1.473768 1_555
O43 Si2 1.636704 1_555
O43 Sn7 1.958863 1_555
O44 S13 1.464491 1_555
O45 S14 1.489933 1_555
O45 Sn7 2.171999 1_555
O46 S11 1.461493 1_555
O47 Si1 1.649878 1_555
O47 Sn7 1.950155 1_555
O48 S19 1.510447 1_555
O48 Sn8 2.147630 1_556
O49 Si5 1.699175 1_555
O49 Sn9 1.933766 1_556
O50 S20 1.519994 1_555
O50 Sn8 2.075038 1_556
O51 S21 1.518647 1_555
O51 Sn9 2.137775 1_556
O52 Si6 1.673491 1_555
O52 Sn8 1.917093 1_556
O53 S22 1.517734 1_555
O53 Sn9 2.109423 1_556
O54 Si7 1.664186 1_555
O54 Sn10 1.929238 1_555
O55 S23 1.496560 1_555
O55 Sn11 2.176497 1_555
O56 S24 1.499165 1_555
O56 Sn10 2.133244 1_555
O57 Si8 1.655373 1_555
O57 Sn11 1.933382 1_555
O58 S25 1.500597 1_555
O58 Sn10 2.191278 1_555
O59 S26 1.492505 1_555
O59 Sn11 2.140405 1_555
O60 S25 1.481309 1_555
O61 S26 1.475941 1_555
O62 Si7 1.601603 1_555
O63 S23 1.468985 1_555
O64 S24 1.464588 1_555
O65 Si8 1.585641 1_555
O66 S20 1.458284 1_555
O67 S21 1.470704 1_555
O68 Si6 1.575819 1_555
O69 S22 1.454266 1_555
O70 S19 1.443960 1_555
O71 Si5 1.602754 1_555
O72 S25 1.491622 1_555
O73 S26 1.500961 1_555
O73 Sn0 2.099983 1_565
O74 Si7 1.660820 1_555
O74 Sn0 1.949033 1_565
O75 S23 1.477387 1_555
O76 S24 1.499179 1_555
O77 Si8 1.664375 1_555
O77 Sn0 1.963781 1_555
O78 S20 1.483568 1_555
O78 Sn1 2.172219 1_545
O79 S21 1.488717 1_555
O80 Si6 1.647790 1_555
O80 Sn1 1.998905 1_555
O81 S22 1.496732 1_555
O82 S19 1.481104 1_555
O83 Si5 1.642832 1_555
O83 Sn1 1.981861 1_655
O84 S11 1.517228 1_555
O84 Sn3 2.164375 1_545
O85 Si1 1.666153 1_555
O85 Sn2 2.001796 1_655
O86 S12 1.512620 1_555
O86 Sn2 2.186558 1_555
O87 Si2 1.667262 1_555
O87 Sn3 1.947538 1_545
O88 S13 1.512902 1_555
O88 Sn3 2.143058 1_555
O89 S14 1.500936 1_555
O89 Sn2 2.169488 1_665
O90 Si3 1.686438 1_555
O90 Sn5 1.971410 1_555
O91 S15 1.519514 1_555
O91 Sn4 2.129619 1_665
O92 S16 1.526709 1_555
O92 Sn5 2.081597 1_545
O93 S17 1.508114 1_555
O93 Sn4 2.127047 1_655
O94 Si4 1.673224 1_555
O94 Sn4 1.944130 1_555
O95 S18 1.524885 1_555
O95 Sn5 2.097503 1_545
O96 S9 1.479038 1_555
O97 S10 1.482682 1_545
O98 Si0 1.599859 1_555
O99 S6 1.453252 1_555
O100 S8 1.474647 1_555
O101 S7 1.479468 1_555
O102 S2 1.475396 1_555
O103 S3 1.490544 1_555
O104 S5 1.466262 1_555
O105 S4 1.493308 1_555
O106 S0 1.456285 1_555
O107 S1 1.465743 1_555
O108 S19 1.508145 1_555
O108 Sn6 2.154155 1_555
O109 Si5 1.622870 1_555
O110 S21 1.467373 1_555
O110 Sn6 2.259838 1_555
O111 S20 1.472295 1_655
O112 Si6 1.665212 1_545
O112 Sn6 1.970163 1_555
O113 S22 1.476638 1_545
O114 Si7 1.618285 1_545
O115 S23 1.499642 1_545
O115 Sn7 2.217177 1_555
O116 S24 1.479916 1_555
O117 Si8 1.647329 1_555
O117 Sn7 1.980485 1_555
O118 S26 1.465734 1_555
O119 S25 1.470907 1_655
O119 Sn7 2.323981 1_555
O120 Si4 1.668185 1_555
O120 Sn8 1.954132 1_555
O121 S18 1.492621 1_555
O121 Sn9 2.275653 1_555
O122 S15 1.487621 1_455
O122 Sn8 2.298357 1_555
O123 Si3 1.665976 1_555
O123 Sn9 1.981411 1_555
O124 S16 1.483095 1_565
O124 Sn8 2.271193 1_555
O125 S17 1.504100 1_565
O125 Sn9 2.206784 1_555
O126 S12 1.503347 1_565
O126 Sn10 2.173755 1_555
O127 Si2 1.673842 1_565
O127 Sn11 1.951548 1_555
O128 S13 1.505732 1_555
O128 Sn10 2.172265 1_555
O129 S14 1.502505 1_555
O129 Sn11 2.196760 1_555
O130 Si1 1.665012 1_455
O130 Sn10 1.949364 1_555
O131 S11 1.507033 1_555
O131 Sn11 2.212815 1_555
O132 S0 1.488489 1_565
O133 S1 1.479097 1_565
O134 S2 1.457195 1_555
O135 S3 1.465654 1_555
O136 S4 1.484976 1_455
O137 S5 1.482112 1_555
O138 Si0 1.621286 1_555
O139 S6 1.487386 1_555
O140 S7 1.471612 1_455
O141 S8 1.486742 1_555
O142 S9 1.449955 1_565
O143 S10 1.473156 1_555
