# generated using pymatgen
data_CuTeO4
_symmetry_space_group_name_H-M   'P 1'
_cell_length_a   4.70645473
_cell_length_b   5.51570528
_cell_length_c   10.33112996
_cell_angle_alpha   90.00000000
_cell_angle_beta   90.00000000
_cell_angle_gamma   90.43003012
_symmetry_Int_Tables_number   1
_chemical_formula_structural   CuTeO4
_chemical_formula_sum   'Cu4 Te4 O16'
_cell_volume   268.18255900
_cell_formula_units_Z   4
loop_
 _symmetry_equiv_pos_site_id
 _symmetry_equiv_pos_as_xyz
  1  'x, y, z'
loop_
 _atom_site_type_symbol
 _atom_site_label
 _atom_site_symmetry_multiplicity
 _atom_site_fract_x
 _atom_site_fract_y
 _atom_site_fract_z
 _atom_site_occupancy
  Cu  Cu0  1  0.00000000  0.00000000  0.50000000  1
  Cu  Cu1  1  0.50000000  0.50000000  0.50000000  1
  Cu  Cu2  1  0.50000000  0.50000000  -0.00000000  1
  Cu  Cu3  1  0.00000000  0.00000000  -0.00000000  1
  Te  Te0  1  0.47505904  0.20687865  0.75059258  1
  Te  Te1  1  0.02494096  0.29312135  0.25059258  1
  Te  Te2  1  0.97505904  0.70687865  0.74940742  1
  Te  Te3  1  0.52494096  0.79312135  0.24940742  1
  O  O0  1  0.30141558  0.23095854  0.91452154  1
  O  O1  1  0.69858442  0.76904146  0.08547846  1
  O  O2  1  0.66464080  0.23663269  0.59258923  1
  O  O3  1  0.80141558  0.73095854  0.58547846  1
  O  O4  1  0.78313910  0.02964755  0.32664444  1
  O  O5  1  0.76897350  0.53260174  0.31989119  1
  O  O6  1  0.28313910  0.52964755  0.17335556  1
  O  O7  1  0.73102650  0.96739826  0.81989119  1
  O  O8  1  0.71686090  0.47035245  0.82664444  1
  O  O9  1  0.16464080  0.73663269  0.90741077  1
  O  O10  1  0.21686090  0.97035245  0.67335556  1
  O  O11  1  0.33535920  0.76336731  0.40741077  1
  O  O12  1  0.23102650  0.46739826  0.68010881  1
  O  O13  1  0.19858442  0.26904146  0.41452154  1
  O  O14  1  0.83535920  0.26336731  0.09258923  1
  O  O15  1  0.26897350  0.03260174  0.18010881  1
loop_
_geom_bond_atom_site_label_1
_geom_bond_atom_site_label_2
_geom_bond_distance
_geom_bond_site_symmetry_2
Cu0 O13 1.958233 1_555
Cu0 O3 1.958233 1_445
Cu0 O10 2.068453 1_545
Cu0 O4 2.068453 1_455
Cu0 O2 2.267300 1_455
Cu0 O11 2.267300 1_545
Cu1 O2 1.908541 1_555
Cu1 O11 1.908541 1_555
Cu1 O13 2.094746 1_555
Cu1 O3 2.094746 1_555
Cu1 O5 2.256936 1_555
Cu1 O12 2.256936 1_555
Cu2 O1 1.958233 1_555
Cu2 O0 1.958233 1_554
Cu2 O8 2.068453 1_554
Cu2 O6 2.068453 1_555
Cu2 O14 2.267300 1_555
Cu2 O9 2.267300 1_554
Cu3 O9 1.908541 1_544
Cu3 O14 1.908541 1_455
Cu3 O0 2.094746 1_554
Cu3 O1 2.094746 1_445
Cu3 O7 2.256936 1_444
Cu3 O15 2.256936 1_555
O0 Te0 1.885562 1_555
O1 Te3 1.885562 1_555
O2 Te0 1.866932 1_555
O3 Te2 1.885562 1_555
O4 Te3 1.947211 1_545
O4 Te1 1.999883 1_655
O5 Te1 1.931976 1_655
O5 Te3 1.984680 1_555
O6 Te1 1.947211 1_555
O6 Te3 1.999883 1_555
O7 Te0 1.931976 1_565
O7 Te2 1.984680 1_555
O8 Te2 1.947211 1_555
O8 Te0 1.999883 1_555
O9 Te2 1.866932 1_455
O10 Te0 1.947211 1_565
O10 Te2 1.999883 1_455
O11 Te3 1.866932 1_555
O12 Te2 1.931976 1_455
O12 Te0 1.984680 1_555
O13 Te1 1.885562 1_555
O14 Te1 1.866932 1_655
O15 Te3 1.931976 1_545
O15 Te1 1.984680 1_555
