# generated using pymatgen
data_Na3ScTi3(PO4)6
_symmetry_space_group_name_H-M   'P 1'
_cell_length_a   8.72855377
_cell_length_b   8.73384377
_cell_length_c   22.40118948
_cell_angle_alpha   90.00781195
_cell_angle_beta   89.97807928
_cell_angle_gamma   120.28527472
_symmetry_Int_Tables_number   1
_chemical_formula_structural   Na3ScTi3(PO4)6
_chemical_formula_sum   'Na9 Sc3 Ti9 P18 O72'
_cell_volume   1474.66633990
_cell_formula_units_Z   3
loop_
 _symmetry_equiv_pos_site_id
 _symmetry_equiv_pos_as_xyz
  1  'x, y, z'
loop_
 _atom_site_type_symbol
 _atom_site_label
 _atom_site_symmetry_multiplicity
 _atom_site_fract_x
 _atom_site_fract_y
 _atom_site_fract_z
 _atom_site_occupancy
  Na  Na0  1  0.36449454  0.36198650  0.24903410  1
  Na  Na1  1  0.63420911  0.63280344  0.74970927  1
  Na  Na2  1  0.96804729  0.29950599  0.41604545  1
  Na  Na3  1  0.00045163  0.99331532  0.50055252  1
  Na  Na4  1  0.99990319  0.99993129  0.00063033  1
  Na  Na5  1  0.66711389  0.32658726  0.83475230  1
  Na  Na6  1  0.66732031  0.33375786  0.33188277  1
  Na  Na7  1  0.33240995  0.67300035  0.16496447  1
  Na  Na8  1  0.32637539  0.66704554  0.66573906  1
  Sc  Sc0  1  0.99908851  0.99308814  0.35346727  1
  Sc  Sc1  1  0.66784237  0.32745917  0.68570708  1
  Sc  Sc2  1  0.67283342  0.33268918  0.18380335  1
  Ti  Ti0  1  0.00037122  0.00140103  0.85507049  1
  Ti  Ti1  1  0.00200218  0.00209606  0.64578283  1
  Ti  Ti2  1  0.99829596  0.99733157  0.14573909  1
  Ti  Ti3  1  0.66662435  0.33378809  0.98160244  1
  Ti  Ti4  1  0.66001972  0.33415501  0.48230221  1
  Ti  Ti5  1  0.33418697  0.66663792  0.01990568  1
  Ti  Ti6  1  0.33371088  0.66743009  0.52063952  1
  Ti  Ti7  1  0.33479059  0.67404579  0.31268802  1
  Ti  Ti8  1  0.32729238  0.66765826  0.81560944  1
  P  P0  1  0.28815426  0.99634900  0.24965435  1
  P  P1  1  0.70929456  0.71120636  0.24984963  1
  P  P2  1  0.99897593  0.29004003  0.25113943  1
  P  P3  1  0.28372579  0.28722355  0.75109295  1
  P  P4  1  0.00589610  0.71737431  0.75081320  1
  P  P5  1  0.71363683  0.00004410  0.75128113  1
  P  P6  1  0.95846067  0.33296582  0.58220980  1
  P  P7  1  0.37382870  0.04031308  0.58300610  1
  P  P8  1  0.66635289  0.62576673  0.58381735  1
  P  P9  1  0.95992298  0.62606579  0.08202626  1
  P  P10  1  0.66680308  0.04130099  0.08215067  1
  P  P11  1  0.37433251  0.33365330  0.08299527  1
  P  P12  1  0.62097644  0.66541349  0.91643678  1
  P  P13  1  0.04373855  0.37804395  0.91732795  1
  P  P14  1  0.33381665  0.95567115  0.91723121  1
  P  P15  1  0.61757940  0.95493603  0.41801361  1
  P  P16  1  0.33942670  0.38314283  0.41710352  1
  P  P17  1  0.04606264  0.66649092  0.41811091  1
  O  O0  1  0.20928925  0.03276579  0.30498894  1
  O  O1  1  0.81943595  0.79127984  0.30569433  1
  O  O2  1  0.97425013  0.18468679  0.30861669  1
  O  O3  1  0.19289919  0.16988844  0.80636939  1
  O  O4  1  0.97396175  0.80600686  0.80589806  1
  O  O5  1  0.83020436  0.02272693  0.80665290  1
  O  O6  1  0.79922246  0.96538503  0.69525203  1
  O  O7  1  0.16839168  0.19872238  0.69455839  1
  O  O8  1  0.03210918  0.83232425  0.69428047  1
  O  O9  1  0.79910347  0.82971766  0.19384964  1
  O  O10  1  0.03460373  0.20109980  0.19604665  1
  O  O11  1  0.16916020  0.96755939  0.19372312  1
  O  O12  1  0.88052423  0.36851536  0.63766641  1
  O  O13  1  0.48661919  0.11812823  0.63853946  1
  O  O14  1  0.63197827  0.51679471  0.64075117  1
  O  O15  1  0.88442082  0.51497000  0.13793737  1
  O  O16  1  0.62984310  0.11563689  0.13796456  1
  O  O17  1  0.48181940  0.36865733  0.14018511  1
  O  O18  1  0.46793753  0.30476612  0.02811907  1
  O  O19  1  0.83808946  0.53398482  0.02674545  1
  O  O20  1  0.69647889  0.16279286  0.02687199  1
  O  O21  1  0.46583178  0.16193800  0.52740154  1
  O  O22  1  0.69505374  0.53190977  0.52866455  1
  O  O23  1  0.84182232  0.30293729  0.52548062  1
  O  O24  1  0.53228773  0.69589288  0.97111025  1
  O  O25  1  0.16271594  0.46615872  0.97201012  1
  O  O26  1  0.30318218  0.83673375  0.97185655  1
  O  O27  1  0.52681454  0.83754056  0.47281163  1
  O  O28  1  0.30837359  0.47346062  0.47153123  1
  O  O29  1  0.16266571  0.68877476  0.47303552  1
  O  O30  1  0.13230906  0.63207459  0.36206816  1
  O  O31  1  0.50196964  0.86596861  0.36149588  1
  O  O32  1  0.36624967  0.49414356  0.35952907  1
  O  O33  1  0.13426654  0.49667986  0.86111030  1
  O  O34  1  0.36221437  0.86565494  0.86103944  1
  O  O35  1  0.50704618  0.63717321  0.85918427  1
  O  O36  1  0.02663851  0.82888150  0.41398434  1
  O  O37  1  0.80439054  0.98084549  0.41357121  1
  O  O38  1  0.17070419  0.20056467  0.41332191  1
  O  O39  1  0.02597131  0.19363791  0.90876570  1
  O  O40  1  0.16739015  0.97362602  0.90845412  1
  O  O41  1  0.80722582  0.83266117  0.90875494  1
  O  O42  1  0.97652617  0.16544595  0.58983578  1
  O  O43  1  0.18877240  0.02333888  0.58921171  1
  O  O44  1  0.83482559  0.81127487  0.58953463  1
  O  O45  1  0.97712792  0.81144955  0.08893259  1
  O  O46  1  0.83459986  0.02361999  0.08937700  1
  O  O47  1  0.18800948  0.16549286  0.08930815  1
  O  O48  1  0.69402398  0.16284229  0.74681386  1
  O  O49  1  0.47092289  0.31326810  0.74624642  1
  O  O50  1  0.83686376  0.53511808  0.74588706  1
  O  O51  1  0.67779478  0.52238290  0.24352203  1
  O  O52  1  0.83894938  0.31402330  0.24467301  1
  O  O53  1  0.47164416  0.16208121  0.24301306  1
  O  O54  1  0.64010459  0.49952632  0.92407813  1
  O  O55  1  0.85910253  0.35947190  0.92385977  1
  O  O56  1  0.50052730  0.14088574  0.92396799  1
  O  O57  1  0.63882847  0.14256937  0.42412841  1
  O  O58  1  0.50604428  0.36478951  0.42484086  1
  O  O59  1  0.86190095  0.49330659  0.42446647  1
  O  O60  1  0.35313444  0.49807849  0.07240131  1
  O  O61  1  0.14617060  0.64818857  0.07205638  1
  O  O62  1  0.50226767  0.85423607  0.07203334  1
  O  O63  1  0.35206453  0.85480273  0.57319866  1
  O  O64  1  0.50231932  0.64659299  0.57321517  1
  O  O65  1  0.14596347  0.49729639  0.57317890  1
  O  O66  1  0.30409603  0.82778975  0.25701767  1
  O  O67  1  0.52065203  0.69171575  0.25619954  1
  O  O68  1  0.17421944  0.47541162  0.25677313  1
  O  O69  1  0.30543052  0.47517899  0.75746347  1
  O  O70  1  0.17197248  0.69852354  0.75788459  1
  O  O71  1  0.52933967  0.82728205  0.75776755  1
loop_
_geom_bond_atom_site_label_1
_geom_bond_atom_site_label_2
_geom_bond_distance
_geom_bond_site_symmetry_2
Na0 O68 2.330008 1_555
Na0 O53 2.363901 1_555
Na0 O51 2.364728 1_555
Na0 O67 2.493565 1_555
Na0 O17 2.633555 1_555
Na0 O32 2.727751 1_555
Na0 O10 2.756075 1_555
Na0 O0 2.782976 1_555
Na1 O71 2.307267 1_555
Na1 O50 2.320816 1_555
Na1 O49 2.411221 1_555
Na1 O69 2.485130 1_555
Na1 O14 2.638917 1_555
Na1 O35 2.699663 1_555
Na1 O6 2.789255 1_555
Na1 O4 2.853906 1_555
Na2 O59 2.310948 1_555
Na2 O38 2.328328 1_655
Na2 O37 2.404076 1_545
Na2 O57 2.489199 1_555
Na2 O2 2.618008 1_555
Na2 O23 2.693647 1_555
Na2 O30 2.784547 1_655
Na2 O28 2.850908 1_655
Na3 O36 2.491053 1_555
Na3 O44 2.504283 1_455
Na3 O43 2.506557 1_565
Na3 O37 2.559612 1_455
Na3 O38 2.566875 1_565
Na3 O42 2.572826 1_465
Na4 O45 2.516485 1_555
Na4 O47 2.517925 1_665
Na4 O46 2.525014 1_565
Na4 O41 2.592733 1_554
Na4 O39 2.600223 1_664
Na4 O40 2.605753 1_654
Na5 O48 2.513706 1_555
Na5 O56 2.521704 1_555
Na5 O55 2.528273 1_555
Na5 O49 2.584285 1_555
Na5 O54 2.588232 1_555
Na5 O50 2.598498 1_555
Na6 O52 2.519641 1_555
Na6 O51 2.547383 1_555
Na6 O53 2.558788 1_555
Na6 O57 2.588798 1_555
Na6 O59 2.596654 1_555
Na6 O58 2.602648 1_555
Na7 O66 2.544961 1_555
Na7 O67 2.575857 1_555
Na7 O61 2.582306 1_555
Na7 O62 2.582430 1_555
Na7 O68 2.590322 1_555
Na7 O60 2.635111 1_555
Na8 O70 2.554239 1_555
Na8 O65 2.573698 1_555
Na8 O63 2.581948 1_555
Na8 O69 2.599058 1_555
Na8 O71 2.616944 1_555
Na8 O64 2.638258 1_555
O0 P0 1.526959 1_545
O0 Sc0 2.005746 1_445
O1 P1 1.516857 1_555
O1 Sc0 1.980892 1_555
O2 P2 1.533251 1_555
O2 Sc0 2.055049 1_545
O3 P3 1.546655 1_555
O3 Ti0 1.919508 1_555
O4 P4 1.554578 1_655
O4 Ti0 1.944654 1_665
O5 P5 1.552628 1_555
O5 Ti0 1.922899 1_655
O6 P5 1.565976 1_565
O6 Ti1 1.972271 1_665
O7 P3 1.559055 1_555
O7 Ti1 1.933231 1_555
O8 P4 1.559643 1_555
O8 Ti1 1.959995 1_565
O9 P1 1.562295 1_555
O9 Ti2 1.938898 1_555
O10 P2 1.570450 1_455
O10 Ti2 1.992128 1_445
O11 P0 1.565035 1_555
O11 Ti2 1.959524 1_455
O12 P6 1.521429 1_555
O12 Sc1 2.014977 1_555
O13 P7 1.518075 1_555
O13 Sc1 2.011216 1_555
O14 P8 1.527896 1_555
O14 Sc1 2.090327 1_555
O15 P9 1.516319 1_555
O15 Sc2 2.008603 1_555
O16 P10 1.516427 1_555
O16 Sc2 2.017718 1_555
O17 P11 1.525280 1_555
O17 Sc2 2.088736 1_555
O18 P11 1.565062 1_555
O18 Ti3 1.926916 1_554
O19 P9 1.565030 1_555
O19 Ti3 1.918611 1_554
O20 P10 1.565028 1_555
O20 Ti3 1.928680 1_554
O21 P7 1.569720 1_555
O21 Ti4 1.893063 1_555
O22 P8 1.570911 1_555
O22 Ti4 1.903226 1_555
O23 P6 1.565824 1_555
O23 Ti4 1.991409 1_555
O24 P12 1.541811 1_555
O24 Ti5 1.950133 1_556
O25 P13 1.538133 1_555
O25 Ti5 1.953098 1_556
O26 P14 1.538792 1_555
O26 Ti5 1.960848 1_556
O27 P15 1.538207 1_555
O27 Ti6 1.915596 1_555
O28 P16 1.548354 1_555
O28 Ti6 1.936713 1_555
O29 P17 1.545535 1_555
O29 Ti6 1.919089 1_555
O30 P17 1.568619 1_555
O30 Ti7 1.956212 1_555
O31 P15 1.560397 1_555
O31 Ti7 1.915245 1_555
O32 P16 1.558612 1_555
O32 Ti7 2.020160 1_555
O33 P13 1.567715 1_555
O33 Ti8 1.889181 1_555
O34 P14 1.568457 1_555
O34 Ti8 1.893960 1_555
O35 P12 1.564649 1_555
O35 Ti8 1.976875 1_555
O36 P17 1.513747 1_555
O36 Sc0 2.073897 1_455
O37 P15 1.532206 1_555
O37 Sc0 2.127746 1_555
O38 P16 1.533056 1_555
O38 Sc0 2.142043 1_445
O39 P13 1.550098 1_555
O39 Ti0 1.984170 1_555
O40 P14 1.550312 1_555
O40 Ti0 1.993064 1_565
O41 P12 1.552707 1_555
O41 Ti0 1.988299 1_665
O42 P6 1.558035 1_555
O42 Ti1 1.994050 1_655
O43 P7 1.552005 1_555
O43 Ti1 1.997862 1_555
O44 P8 1.549489 1_555
O44 Ti1 2.010595 1_665
O45 P9 1.556509 1_555
O45 Ti2 1.996544 1_555
O46 P10 1.556753 1_555
O46 Ti2 2.005172 1_545
O47 P11 1.553297 1_555
O47 Ti2 2.010737 1_445
O48 P5 1.518732 1_555
O48 Sc1 2.079729 1_555
O49 P3 1.535692 1_555
O49 Sc1 2.142955 1_555
O50 P4 1.534316 1_655
O50 Sc1 2.141353 1_555
O51 P1 1.535588 1_555
O51 Sc2 2.112680 1_555
O52 P2 1.520255 1_555
O52 Sc2 2.056259 1_555
O53 P0 1.531040 1_545
O53 Sc2 2.103077 1_555
O54 P12 1.549311 1_555
O54 Ti3 2.036701 1_555
O55 P13 1.543100 1_655
O55 Ti3 2.040678 1_555
O56 P14 1.543664 1_545
O56 Ti3 2.035801 1_555
O57 P15 1.559517 1_545
O57 Ti4 2.054198 1_555
O58 P16 1.551175 1_555
O58 Ti4 1.974557 1_555
O59 P17 1.561927 1_655
O59 Ti4 2.060110 1_555
O60 P11 1.555944 1_555
O60 Ti5 1.955435 1_555
O61 P9 1.553366 1_455
O61 Ti5 1.953422 1_555
O62 P10 1.554592 1_565
O62 Ti5 1.943399 1_555
O63 P7 1.548856 1_565
O63 Ti6 1.955806 1_555
O64 P8 1.549974 1_555
O64 Ti6 1.964098 1_555
O65 P6 1.552428 1_455
O65 Ti6 1.954908 1_555
O66 P0 1.555813 1_555
O66 Ti7 1.947718 1_555
O67 P1 1.574022 1_555
O67 Ti7 2.000725 1_555
O68 P2 1.574532 1_455
O68 Ti7 2.022689 1_555
O69 P3 1.561186 1_555
O69 Ti8 2.057937 1_555
O70 P4 1.547404 1_555
O70 Ti8 1.988168 1_555
O71 P5 1.561185 1_565
O71 Ti8 2.061949 1_555
