# generated using pymatgen
data_TcP4
_symmetry_space_group_name_H-M   'P 1'
_cell_length_a   6.25683404
_cell_length_b   9.23803098
_cell_length_c   10.84614875
_cell_angle_alpha   90.00000000
_cell_angle_beta   90.00000000
_cell_angle_gamma   90.00000000
_symmetry_Int_Tables_number   1
_chemical_formula_structural   TcP4
_chemical_formula_sum   'Tc8 P32'
_cell_volume   626.91636424
_cell_formula_units_Z   8
loop_
 _symmetry_equiv_pos_site_id
 _symmetry_equiv_pos_as_xyz
  1  'x, y, z'
loop_
 _atom_site_type_symbol
 _atom_site_label
 _atom_site_symmetry_multiplicity
 _atom_site_fract_x
 _atom_site_fract_y
 _atom_site_fract_z
 _atom_site_occupancy
  Tc  Tc0  1  0.62131760  0.10901345  0.42427044  1
  Tc  Tc1  1  0.12131760  0.39098655  0.57572956  1
  Tc  Tc2  1  0.37868240  0.60901345  0.07572956  1
  Tc  Tc3  1  0.87868240  0.89098655  0.92427044  1
  Tc  Tc4  1  0.37868240  0.89098655  0.57572956  1
  Tc  Tc5  1  0.87868240  0.60901345  0.42427044  1
  Tc  Tc6  1  0.62131760  0.39098655  0.92427044  1
  Tc  Tc7  1  0.12131760  0.10901345  0.07572956  1
  P  P0  1  0.00261384  0.20750337  0.43034807  1
  P  P1  1  0.50261384  0.29249663  0.56965193  1
  P  P2  1  -0.00261384  0.70750337  0.06965193  1
  P  P3  1  0.49738616  0.79249663  0.93034807  1
  P  P4  1  -0.00261384  0.79249663  0.56965193  1
  P  P5  1  0.49738616  0.70750337  0.43034807  1
  P  P6  1  0.00261384  0.29249663  0.93034807  1
  P  P7  1  0.50261384  0.20750337  0.06965193  1
  P  P8  1  0.06013966  0.28237149  0.23581797  1
  P  P9  1  0.56013966  0.21762851  0.76418203  1
  P  P10  1  0.93986034  0.78237149  0.26418203  1
  P  P11  1  0.43986034  0.71762851  0.73581797  1
  P  P12  1  0.93986034  0.71762851  0.76418203  1
  P  P13  1  0.43986034  0.78237149  0.23581797  1
  P  P14  1  0.06013966  0.21762851  0.73581797  1
  P  P15  1  0.56013966  0.28237149  0.26418203  1
  P  P16  1  0.18994045  0.94632071  0.23876815  1
  P  P17  1  0.68994045  0.55367929  0.76123185  1
  P  P18  1  0.81005955  0.44632071  0.26123185  1
  P  P19  1  0.31005955  0.05367929  0.73876815  1
  P  P20  1  0.81005955  0.05367929  0.76123185  1
  P  P21  1  0.31005955  0.44632071  0.23876815  1
  P  P22  1  0.18994045  0.55367929  0.73876815  1
  P  P23  1  0.68994045  0.94632071  0.26123185  1
  P  P24  1  0.75800893  0.04330670  0.08127961  1
  P  P25  1  0.25800893  0.45669330  0.91872039  1
  P  P26  1  0.24199107  0.54330670  0.41872039  1
  P  P27  1  0.74199107  0.95669330  0.58127961  1
  P  P28  1  0.24199107  0.95669330  0.91872039  1
  P  P29  1  0.74199107  0.54330670  0.08127961  1
  P  P30  1  0.75800893  0.45669330  0.58127961  1
  P  P31  1  0.25800893  0.04330670  0.41872039  1
loop_
_geom_bond_atom_site_label_1
_geom_bond_atom_site_label_2
_geom_bond_distance
_geom_bond_site_symmetry_2
P0 P31 2.206863 1_555
P0 P8 2.249354 1_555
P0 Tc1 2.431278 1_555
P0 Tc0 2.554169 1_455
P1 P30 2.206863 1_555
P1 P9 2.249354 1_555
P1 Tc0 2.431278 1_555
P1 Tc1 2.554169 1_555
P2 P29 2.206863 1_455
P2 Tc3 2.431278 1_454
P2 Tc2 2.554169 1_555
P3 Tc2 2.431278 1_556
P3 Tc3 2.554169 1_555
P4 Tc5 2.431278 1_455
P4 Tc4 2.554169 1_555
P5 Tc4 2.431278 1_555
P5 Tc5 2.554169 1_555
P6 Tc7 2.431278 1_556
P6 Tc6 2.554169 1_455
P7 Tc6 2.431278 1_554
P7 Tc7 2.554169 1_555
P8 Tc7 2.392941 1_555
P9 Tc6 2.392941 1_555
P10 P23 2.177182 1_555
P10 P16 2.195043 1_655
P10 P2 2.249354 1_655
P10 Tc5 2.392941 1_555
P11 P22 2.177182 1_555
P11 P17 2.195043 1_555
P11 P3 2.249354 1_555
P11 Tc4 2.392941 1_555
P12 P17 2.177182 1_555
P12 P22 2.195043 1_655
P12 P4 2.249354 1_655
P12 Tc3 2.392941 1_555
P13 P16 2.177182 1_555
P13 P23 2.195043 1_555
P13 P5 2.249354 1_555
P13 Tc2 2.392941 1_555
P14 P19 2.177182 1_555
P14 P20 2.195043 1_455
P14 P6 2.249354 1_555
P14 Tc1 2.392941 1_555
P15 P18 2.177182 1_555
P15 P21 2.195043 1_555
P15 P7 2.249354 1_555
P15 Tc0 2.392941 1_555
P16 P31 2.189431 1_565
P16 Tc7 2.360142 1_565
P17 P30 2.189431 1_555
P17 Tc6 2.360142 1_555
P18 P29 2.189431 1_555
P18 P8 2.195043 1_655
P18 Tc5 2.360142 1_555
P19 P28 2.189431 1_545
P19 P9 2.195043 1_555
P19 Tc4 2.360142 1_545
P20 P9 2.177182 1_555
P20 P27 2.189431 1_545
P20 Tc3 2.360142 1_545
P21 P8 2.177182 1_555
P21 P26 2.189431 1_555
P21 Tc2 2.360142 1_555
P22 P25 2.189431 1_555
P22 Tc1 2.360142 1_555
P23 P24 2.189431 1_565
P23 Tc0 2.360142 1_565
P24 P7 2.206863 1_555
P24 Tc3 2.334552 1_544
P24 Tc7 2.353580 1_655
P25 P6 2.206863 1_555
P25 Tc2 2.334552 1_556
P25 Tc6 2.353580 1_555
P26 P5 2.206863 1_555
P26 Tc1 2.334552 1_555
P26 Tc5 2.353580 1_455
P27 P4 2.206863 1_655
P27 Tc0 2.334552 1_565
P27 Tc4 2.353580 1_555
P28 P3 2.206863 1_555
P28 Tc7 2.334552 1_566
P28 Tc3 2.353580 1_455
P29 Tc6 2.334552 1_554
P29 Tc2 2.353580 1_555
P30 Tc5 2.334552 1_555
P30 Tc1 2.353580 1_655
P31 Tc4 2.334552 1_545
P31 Tc0 2.353580 1_555
