# generated using pymatgen
data_MgTe2Mo3W(Se2S)2
_symmetry_space_group_name_H-M   'P 1'
_cell_length_a   3.34324000
_cell_length_b   3.34306961
_cell_length_c   44.74975017
_cell_angle_alpha   89.99052791
_cell_angle_beta   90.00000000
_cell_angle_gamma   120.00168606
_symmetry_Int_Tables_number   1
_chemical_formula_structural   MgTe2Mo3W(Se2S)2
_chemical_formula_sum   'Mg1 Te2 Mo3 W1 Se4 S2'
_cell_volume   433.13854509
_cell_formula_units_Z   1
loop_
 _symmetry_equiv_pos_site_id
 _symmetry_equiv_pos_as_xyz
  1  'x, y, z'
loop_
 _atom_site_type_symbol
 _atom_site_label
 _atom_site_symmetry_multiplicity
 _atom_site_fract_x
 _atom_site_fract_y
 _atom_site_fract_z
 _atom_site_occupancy
  Mg  Mg0  1  0.99997100  0.99994100  0.55368900  1
  Te  Te0  1  0.66668000  0.33335800  0.05113800  1
  Te  Te1  1  0.66659100  0.33318000  0.13592200  1
  Mo  Mo0  1  0.33329400  0.66658900  0.09352000  1
  Mo  Mo1  1  0.33327900  0.66655900  0.46394100  1
  Mo  Mo2  1  0.66671500  0.33343000  0.28219500  1
  W  W0  1  0.66669700  0.33339300  0.66473100  1
  Se  Se0  1  0.33336100  0.66672400  0.31943700  1
  Se  Se1  1  0.33336700  0.66673400  0.70211700  1
  Se  Se2  1  0.33342600  0.66685300  0.24497300  1
  Se  Se3  1  0.33341100  0.66682400  0.62711800  1
  S  S0  1  0.66663500  0.33326900  0.43036000  1
  S  S1  1  0.66657400  0.33314600  0.49863400  1
loop_
_geom_bond_atom_site_label_1
_geom_bond_atom_site_label_2
_geom_bond_distance
_geom_bond_site_symmetry_2
Mg0 S1 3.129505 1_565
Mg0 S1 3.129507 1_665
Mg0 S1 3.130224 1_555
Mo0 Te0 2.705923 1_565
Mo0 Te0 2.706061 1_455
Mo0 Te0 2.706067 1_555
Mo0 Te1 2.706614 1_455
Mo0 Te1 2.706620 1_555
Mo0 Te1 2.706700 1_565
Mo1 S0 2.445987 1_565
Mo1 S0 2.446254 1_455
Mo1 S0 2.446258 1_555
Mo1 S1 2.477044 1_455
Mo1 S1 2.477047 1_565
Mo1 S1 2.477051 1_555
Mo2 Se2 2.549499 1_545
Mo2 Se2 2.549506 1_655
Mo2 Se2 2.549508 1_555
Mo2 Se0 2.549885 1_545
Mo2 Se0 2.550189 1_655
Mo2 Se0 2.550193 1_555
Se1 W0 2.553997 1_565
Se1 W0 2.554458 1_455
Se1 W0 2.554460 1_555
Se3 W0 2.560950 1_565
Se3 W0 2.560977 1_455
Se3 W0 2.560983 1_555
