# generated using pymatgen
data_Na4MgV2O6
_symmetry_space_group_name_H-M   'P 1'
_cell_length_a   5.56352221
_cell_length_b   5.56351809
_cell_length_c   5.85721108
_cell_angle_alpha   80.40732576
_cell_angle_beta   99.59284235
_cell_angle_gamma   59.63828723
_symmetry_Int_Tables_number   1
_chemical_formula_structural   Na4MgV2O6
_chemical_formula_sum   'Na4 Mg1 V2 O6'
_cell_volume   147.38652034
_cell_formula_units_Z   1
loop_
 _symmetry_equiv_pos_site_id
 _symmetry_equiv_pos_as_xyz
  1  'x, y, z'
loop_
 _atom_site_type_symbol
 _atom_site_label
 _atom_site_symmetry_multiplicity
 _atom_site_fract_x
 _atom_site_fract_y
 _atom_site_fract_z
 _atom_site_occupancy
  Na  Na0  1  0.26401300  0.14911800  0.47322200  1
  Na  Na1  1  0.85088300  0.73598600  0.47322200  1
  Na  Na2  1  0.40420900  0.59579100  0.44823000  1
  Na  Na3  1  0.99079100  0.00920900  0.08464500  1
  Mg  Mg0  1  0.87861300  0.12138700  0.65171500  1
  V  V0  1  0.65831000  0.67794000  0.99223400  1
  V  V1  1  0.32206000  0.34169000  0.99223600  1
  O  O0  1  0.26804200  0.73195800  0.77755000  1
  O  O1  1  0.06330300  0.56009000  0.18070700  1
  O  O2  1  0.43991000  0.93669700  0.18070600  1
  O  O3  1  0.91148200  0.41143600  0.78893900  1
  O  O4  1  0.58856400  0.08851800  0.78894000  1
  O  O5  1  0.72232100  0.27767900  0.28670500  1
loop_
_geom_bond_atom_site_label_1
_geom_bond_atom_site_label_2
_geom_bond_distance
_geom_bond_site_symmetry_2
Na0 O4 2.203993 1_555
Na0 O1 2.210415 1_555
Na0 O2 2.313947 1_545
Na0 O0 2.668261 1_545
Na0 O5 2.692715 1_455
Na1 O3 2.203991 1_555
Na1 O2 2.210419 1_555
Na1 O1 2.313938 1_655
Na1 O0 2.668257 1_655
Na1 O5 2.692718 1_565
Na2 O5 2.260372 1_555
Na2 O0 2.293978 1_555
Na2 O1 2.363478 1_555
Na2 O2 2.363484 1_555
Na3 O5 2.187607 1_555
Na3 O1 2.271453 1_645
Na3 O2 2.271453 1_645
Na3 O4 2.378571 1_554
Na3 O3 2.378577 1_554
Na3 O0 2.727293 1_644
Mg0 O3 1.991245 1_555
Mg0 O4 1.991251 1_555
Mg0 O5 2.019766 1_555
Mg0 O0 2.030196 1_645
O0 V0 2.165714 1_555
O0 V1 2.165720 1_555
O1 V1 1.993961 1_554
O1 V0 2.040025 1_454
O2 V0 1.993965 1_554
O2 V1 2.040021 1_564
O3 V0 2.153233 1_555
O3 V1 2.197662 1_655
O4 V1 2.153237 1_555
O4 V0 2.197658 1_545
O5 V1 2.402922 1_554
O5 V0 2.402930 1_554
