# generated using pymatgen
data_Dy4MgTi2O10
_symmetry_space_group_name_H-M   'P 1'
_cell_length_a   6.33732623
_cell_length_b   6.33999535
_cell_length_c   7.99875712
_cell_angle_alpha   69.29948961
_cell_angle_beta   109.09797248
_cell_angle_gamma   128.53888005
_symmetry_Int_Tables_number   1
_chemical_formula_structural   Dy4MgTi2O10
_chemical_formula_sum   'Dy4 Mg1 Ti2 O10'
_cell_volume   232.62377326
_cell_formula_units_Z   1
loop_
 _symmetry_equiv_pos_site_id
 _symmetry_equiv_pos_as_xyz
  1  'x, y, z'
loop_
 _atom_site_type_symbol
 _atom_site_label
 _atom_site_symmetry_multiplicity
 _atom_site_fract_x
 _atom_site_fract_y
 _atom_site_fract_z
 _atom_site_occupancy
  Dy  Dy0  1  0.36028900  0.64289600  0.80464100  1
  Dy  Dy1  1  0.35041500  0.63011000  0.28514900  1
  Dy  Dy2  1  0.61609500  0.38787600  0.73362100  1
  Dy  Dy3  1  0.62040600  0.36870700  0.21595300  1
  Mg  Mg0  1  0.86148800  0.17834600  0.60690300  1
  Ti  Ti0  1  0.00142000  0.95070500  0.45089000  1
  Ti  Ti1  1  0.00164600  0.00844300  0.01237900  1
  O  O0  1  0.00307800  0.61789600  0.60859600  1
  O  O1  1  0.29559700  0.96240100  0.13923800  1
  O  O2  1  0.63561700  0.77990100  0.55196900  1
  O  O3  1  0.19321300  0.22115800  0.76701800  1
  O  O4  1  0.73934500  0.61532700  0.94430400  1
  O  O5  1  0.24356100  0.40715500  0.07081800  1
  O  O6  1  0.78738900  0.80581600  0.23285600  1
  O  O7  1  0.39583900  0.23527400  0.45831900  1
  O  O8  1  0.70178300  0.06906000  0.83104300  1
  O  O9  1  0.94281900  0.29601300  0.35773200  1
loop_
_geom_bond_atom_site_label_1
_geom_bond_atom_site_label_2
_geom_bond_distance
_geom_bond_site_symmetry_2
Dy0 O5 2.171936 1_556
Dy0 O8 2.201451 1_565
Dy0 O0 2.239293 1_555
Dy0 O3 2.278930 1_555
Dy0 O4 2.382901 1_555
Dy0 O2 2.657365 1_555
Dy1 O9 2.188620 1_455
Dy1 O1 2.197614 1_555
Dy1 O5 2.270798 1_555
Dy1 O2 2.343803 1_555
Dy1 O6 2.380997 1_555
Dy1 O7 2.540373 1_555
Dy2 O8 2.228237 1_555
Dy2 O4 2.232180 1_555
Dy2 O3 2.260476 1_555
Dy2 O0 2.293143 1_655
Dy2 O2 2.342065 1_555
Dy2 O7 2.354903 1_555
Dy3 O1 2.221018 1_545
Dy3 O4 2.221595 1_554
Dy3 O9 2.227322 1_555
Dy3 O6 2.309761 1_555
Dy3 O7 2.375927 1_555
Dy3 O5 2.412820 1_555
Mg0 O3 1.976431 1_655
Mg0 O9 1.984037 1_555
Mg0 O8 2.038149 1_555
Mg0 O2 2.119138 1_545
Mg0 O0 2.339678 1_655
O0 Ti0 2.044687 1_555
O1 Ti1 1.953554 1_565
O2 Ti0 2.163284 1_655
O3 Ti1 2.189091 1_556
O4 Ti1 2.115680 1_666
O5 Ti1 2.120406 1_555
O6 Ti0 1.938348 1_655
O6 Ti1 2.096608 1_665
O7 Ti0 1.966101 1_545
O8 Ti1 2.138943 1_656
O9 Ti0 2.272603 1_645
