# generated using pymatgen
data_SmSnPt
_symmetry_space_group_name_H-M   'P 1'
_cell_length_a   4.60023408
_cell_length_b   7.35900376
_cell_length_c   8.02496208
_cell_angle_alpha   90.00004129
_cell_angle_beta   90.00000046
_cell_angle_gamma   90.00000028
_symmetry_Int_Tables_number   1
_chemical_formula_structural   SmSnPt
_chemical_formula_sum   'Sm4 Sn4 Pt4'
_cell_volume   271.67016392
_cell_formula_units_Z   4
loop_
 _symmetry_equiv_pos_site_id
 _symmetry_equiv_pos_as_xyz
  1  'x, y, z'
loop_
 _atom_site_type_symbol
 _atom_site_label
 _atom_site_symmetry_multiplicity
 _atom_site_fract_x
 _atom_site_fract_y
 _atom_site_fract_z
 _atom_site_occupancy
  Sm  Sm0  1  0.74999998  0.48842545  0.80367684  1
  Sm  Sm1  1  0.24999999  0.01156229  0.30366271  1
  Sm  Sm2  1  0.74999997  0.98842634  0.69632040  1
  Sm  Sm3  1  0.24999998  0.51156311  0.19634003  1
  Sn  Sn0  1  0.25000002  0.67781781  0.58377849  1
  Sn  Sn1  1  0.25000000  0.17781735  0.91621870  1
  Sn  Sn2  1  0.75000002  0.32219160  0.41619475  1
  Sn  Sn3  1  0.74999999  0.82219055  0.08380805  1
  Pt  Pt0  1  0.25000000  0.78736095  0.90971751  1
  Pt  Pt1  1  0.25000001  0.28736244  0.59028280  1
  Pt  Pt2  1  0.75000001  0.71264041  0.40968522  1
  Pt  Pt3  1  0.75000002  0.21264170  0.09031450  1
loop_
_geom_bond_atom_site_label_1
_geom_bond_atom_site_label_2
_geom_bond_distance
_geom_bond_site_symmetry_2
Sm0 Sn0 3.216696 1_555
Sm0 Sn0 3.216696 1_655
Sm0 Sn3 3.329640 1_556
Sm0 Sn2 3.341507 1_555
Sm0 Sn1 3.366146 1_555
Sm0 Sn1 3.366146 1_655
Sm1 Sn3 3.216437 1_445
Sm1 Sn3 3.216437 1_545
Sm1 Sn0 3.329446 1_545
Sm1 Sn1 3.341281 1_554
Sm1 Sn2 3.366230 1_455
Sm1 Sn2 3.366230 1_555
Sm2 Sn1 3.216690 1_565
Sm2 Sn1 3.216690 1_665
Sm2 Sn2 3.329613 1_565
Sm2 Sn3 3.341555 1_556
Sm2 Sn0 3.366147 1_555
Sm2 Sn0 3.366147 1_655
Sm3 Sn2 3.216437 1_455
Sm3 Sn2 3.216437 1_555
Sm3 Sn1 3.329481 1_554
Sm3 Sn0 3.341237 1_555
Sm3 Sn3 3.366221 1_455
Sm3 Sn3 3.366221 1_555
Pt0 Sn3 2.703338 1_556
Pt0 Sn3 2.703338 1_456
Pt0 Sn0 2.737052 1_555
Pt0 Sn1 2.873844 1_565
Pt0 Sm3 3.067555 1_556
Pt0 Sm2 3.226848 1_555
Pt0 Sm2 3.226848 1_455
Pt0 Sm0 3.294557 1_555
Pt0 Sm0 3.294557 1_455
Pt1 Sn2 2.703328 1_455
Pt1 Sn2 2.703328 1_555
Pt1 Sn1 2.737034 1_555
Pt1 Sn0 2.873837 1_555
Pt1 Sm1 3.067549 1_555
Pt1 Sm0 3.226826 1_555
Pt1 Sm0 3.226826 1_455
Pt1 Sm2 3.294554 1_545
Pt1 Sm2 3.294555 1_445
Pt2 Sn0 2.703345 1_555
Pt2 Sn0 2.703345 1_655
Pt2 Sn3 2.736594 1_555
Pt2 Sn2 2.873789 1_555
Pt2 Sm2 3.067571 1_555
Pt2 Sm3 3.226666 1_655
Pt2 Sm3 3.226666 1_555
Pt2 Sm1 3.294453 1_665
Pt2 Sm1 3.294453 1_565
Pt3 Sn1 2.703356 1_654
Pt3 Sn1 2.703356 1_554
Pt3 Sn2 2.736616 1_555
Pt3 Sn3 2.873806 1_545
Pt3 Sm0 3.067577 1_554
Pt3 Sm1 3.226687 1_655
Pt3 Sm1 3.226687 1_555
Pt3 Sm3 3.294456 1_655
Pt3 Sm3 3.294457 1_555
