# generated using pymatgen
data_Na6Mg4Nb8Si9(SO8)9
_symmetry_space_group_name_H-M   'P 1'
_cell_length_a   8.86005547
_cell_length_b   8.85067356
_cell_length_c   22.94391131
_cell_angle_alpha   89.79443735
_cell_angle_beta   90.04360107
_cell_angle_gamma   119.97458164
_symmetry_Int_Tables_number   1
_chemical_formula_structural   Na6Mg4Nb8Si9(SO8)9
_chemical_formula_sum   'Na6 Mg4 Nb8 Si9 S9 O72'
_cell_volume   1558.54349795
_cell_formula_units_Z   1
loop_
 _symmetry_equiv_pos_site_id
 _symmetry_equiv_pos_as_xyz
  1  'x, y, z'
loop_
 _atom_site_type_symbol
 _atom_site_label
 _atom_site_symmetry_multiplicity
 _atom_site_fract_x
 _atom_site_fract_y
 _atom_site_fract_z
 _atom_site_occupancy
  Na  Na0  1  0.99955072  0.00024711  0.49575491  1
  Na  Na1  1  0.99628537  0.00278816  0.99946623  1
  Na  Na2  1  0.67420490  0.33571540  0.82574779  1
  Na  Na3  1  0.66537040  0.32639191  0.32651336  1
  Na  Na4  1  0.33081951  0.66650380  0.16947892  1
  Na  Na5  1  0.33245698  0.66968550  0.66322236  1
  Mg  Mg0  1  0.67487460  0.33424461  0.68738838  1
  Mg  Mg1  1  0.66533851  0.32624855  0.18991319  1
  Mg  Mg2  1  0.33609129  0.66069614  0.01724261  1
  Mg  Mg3  1  0.33296881  0.66724814  0.51357343  1
  Nb  Nb0  1  0.01211034  0.01518285  0.35735273  1
  Nb  Nb1  1  0.97885499  0.98985513  0.85354074  1
  Nb  Nb2  1  0.98977731  0.98585262  0.64563382  1
  Nb  Nb3  1  0.00856178  0.00732812  0.15233498  1
  Nb  Nb4  1  0.67661949  0.34101107  0.97724679  1
  Nb  Nb5  1  0.66581020  0.32896335  0.47113108  1
  Nb  Nb6  1  0.32163839  0.66531970  0.31585857  1
  Nb  Nb7  1  0.33006551  0.65934907  0.81125398  1
  Si  Si0  1  0.30014416  0.00388411  0.25213622  1
  Si  Si1  1  0.99828475  0.29840605  0.25213649  1
  Si  Si2  1  0.99445411  0.70331670  0.75045141  1
  Si  Si3  1  0.70435937  0.00459354  0.74848704  1
  Si  Si4  1  0.61350939  0.66633149  0.91957610  1
  Si  Si5  1  0.05433562  0.37933582  0.91908496  1
  Si  Si6  1  0.61755143  0.94164986  0.41847177  1
  Si  Si7  1  0.33262775  0.38887713  0.41933788  1
  Si  Si8  1  0.05131878  0.67390473  0.42030436  1
  S  S0  1  0.71055346  0.70857456  0.25022288  1
  S  S1  1  0.28883843  0.28492787  0.74950103  1
  S  S2  1  0.95860933  0.33789177  0.58446320  1
  S  S3  1  0.38083327  0.04422944  0.58495854  1
  S  S4  1  0.65895033  0.61511216  0.58439584  1
  S  S5  1  0.95823323  0.62267320  0.08467591  1
  S  S6  1  0.66230855  0.04088413  0.08423207  1
  S  S7  1  0.38020941  0.33607207  0.08449059  1
  S  S8  1  0.33263497  0.95382477  0.91790033  1
  O  O0  1  0.18804721  0.01950289  0.30534264  1
  O  O1  1  0.81785276  0.79000555  0.30152975  1
  O  O2  1  0.97272419  0.16637311  0.30543707  1
  O  O3  1  0.20794347  0.18201107  0.80299311  1
  O  O4  1  0.98294784  0.81405052  0.80629706  1
  O  O5  1  0.83001346  0.02617951  0.80577803  1
  O  O6  1  0.80847183  0.97086378  0.69347821  1
  O  O7  1  0.17675272  0.20788456  0.69709475  1
  O  O8  1  0.03339931  0.83810386  0.69309833  1
  O  O9  1  0.79800878  0.82566089  0.19553339  1
  O  O10  1  0.02865776  0.19312920  0.19336872  1
  O  O11  1  0.16393549  0.96708748  0.19279740  1
  O  O12  1  0.87406974  0.35646922  0.63622630  1
  O  O13  1  0.48293396  0.12894688  0.63689337  1
  O  O14  1  0.64352518  0.51624356  0.63691892  1
  O  O15  1  0.87247209  0.51534323  0.13469214  1
  O  O16  1  0.64237479  0.12588170  0.13479244  1
  O  O17  1  0.48458238  0.35628875  0.13537495  1
  O  O18  1  0.46061924  0.30546539  0.03054282  1
  O  O19  1  0.84397974  0.53615420  0.02956098  1
  O  O20  1  0.69207104  0.15494022  0.02998304  1
  O  O21  1  0.45774137  0.15376598  0.53166590  1
  O  O22  1  0.69689670  0.54448133  0.53170177  1
  O  O23  1  0.84788517  0.30342938  0.53157247  1
  O  O24  1  0.54396693  0.70743378  0.97613510  1
  O  O25  1  0.15819490  0.46196668  0.97616566  1
  O  O26  1  0.30351840  0.85025123  0.97020556  1
  O  O27  1  0.54567793  0.84140893  0.47723830  1
  O  O28  1  0.29605573  0.45569448  0.47745775  1
  O  O29  1  0.15910287  0.70579750  0.47718781  1
  O  O30  1  0.12753293  0.63005487  0.35989096  1
  O  O31  1  0.49880950  0.86580769  0.35860061  1
  O  O32  1  0.36871625  0.50044427  0.35851165  1
  O  O33  1  0.13349515  0.49967007  0.85928063  1
  O  O34  1  0.36544548  0.87914530  0.86440445  1
  O  O35  1  0.49944065  0.63590399  0.85967030  1
  O  O36  1  0.01268281  0.83083543  0.40546135  1
  O  O37  1  0.81440185  0.97938324  0.40557739  1
  O  O38  1  0.17073271  0.18824575  0.40872622  1
  O  O39  1  0.02558211  0.18449190  0.90626127  1
  O  O40  1  0.18186817  0.98092079  0.90893973  1
  O  O41  1  0.81605662  0.82848312  0.90811345  1
  O  O42  1  0.97576765  0.17268495  0.59154276  1
  O  O43  1  0.19948878  0.03019371  0.59118951  1
  O  O44  1  0.82913564  0.80141869  0.59053138  1
  O  O45  1  0.96866380  0.79785346  0.08694421  1
  O  O46  1  0.82453556  0.02452257  0.08801929  1
  O  O47  1  0.19934140  0.17006669  0.08852730  1
  O  O48  1  0.68421710  0.17006431  0.74389077  1
  O  O49  1  0.46162028  0.30847302  0.74239731  1
  O  O50  1  0.82456172  0.52157697  0.74379155  1
  O  O51  1  0.69507052  0.53959543  0.24007019  1
  O  O52  1  0.83273379  0.31620907  0.24216998  1
  O  O53  1  0.47772831  0.17659710  0.24246457  1
  O  O54  1  0.64057134  0.49128520  0.92702816  1
  O  O55  1  0.84978195  0.35030402  0.92718543  1
  O  O56  1  0.49266984  0.13329683  0.92438866  1
  O  O57  1  0.64347846  0.14435753  0.42609299  1
  O  O58  1  0.50340853  0.35650258  0.42672835  1
  O  O59  1  0.85293474  0.49613960  0.42685875  1
  O  O60  1  0.35497930  0.48658728  0.07733255  1
  O  O61  1  0.13221709  0.64569073  0.07538292  1
  O  O62  1  0.50801367  0.86804031  0.07587512  1
  O  O63  1  0.35383497  0.86790263  0.57925061  1
  O  O64  1  0.51337603  0.64724776  0.57908821  1
  O  O65  1  0.13396746  0.48810640  0.57860774  1
  O  O66  1  0.30777462  0.82346428  0.25512641  1
  O  O67  1  0.53963540  0.69885613  0.25299480  1
  O  O68  1  0.18357589  0.48091183  0.25537167  1
  O  O69  1  0.30193370  0.46217180  0.75546805  1
  O  O70  1  0.17640117  0.69680954  0.75889798  1
  O  O71  1  0.52023866  0.82174768  0.75880054  1
loop_
_geom_bond_atom_site_label_1
_geom_bond_atom_site_label_2
_geom_bond_distance
_geom_bond_site_symmetry_2
Na0 O38 2.552477 1_655
Na0 O37 2.588602 1_545
Na0 O36 2.598197 1_645
Na0 O44 2.725381 1_545
Na0 O43 2.744443 1_655
Na0 O42 2.747705 1_555
Na1 O46 2.603967 1_556
Na1 O39 2.604968 1_655
Na1 O41 2.622894 1_545
Na1 O45 2.628550 1_546
Na1 O47 2.637946 1_656
Na1 O40 2.716842 1_645
Na2 O50 2.410078 1_555
Na2 O48 2.415511 1_555
Na2 O49 2.609024 1_555
Na2 O55 2.765728 1_555
Na2 O54 2.796167 1_555
Na2 O56 2.831226 1_555
Na3 O53 2.459970 1_555
Na3 O52 2.467994 1_555
Na3 O51 2.653567 1_555
Na3 O57 2.741426 1_555
Na3 O58 2.794398 1_555
Na3 O59 2.800661 1_555
Na4 O68 2.474519 1_555
Na4 O66 2.477253 1_555
Na4 O67 2.577959 1_555
Na4 O60 2.723377 1_555
Na4 O62 2.727310 1_555
Na4 O61 2.732103 1_555
Na5 O63 2.543589 1_555
Na5 O65 2.576356 1_555
Na5 O64 2.580844 1_555
Na5 O70 2.669878 1_555
Na5 O71 2.677042 1_555
Na5 O69 2.720755 1_555
Mg0 O48 1.976232 1_555
Mg0 O50 1.999549 1_555
Mg0 O12 2.045982 1_555
Mg0 O14 2.108543 1_555
Mg0 O13 2.111946 1_555
Mg0 O49 2.187669 1_555
Mg1 O53 1.939792 1_555
Mg1 O52 1.942506 1_555
Mg1 O16 2.107338 1_555
Mg1 O51 2.115978 1_555
Mg1 O17 2.149736 1_555
Mg1 O15 2.166448 1_555
Mg2 O24 1.921308 1_554
Mg2 O25 1.925021 1_554
Mg2 O26 2.129078 1_554
Mg2 O60 2.132023 1_555
Mg2 O62 2.172349 1_555
Mg2 O61 2.196051 1_555
Mg3 O28 1.923090 1_555
Mg3 O29 1.925501 1_555
Mg3 O27 1.926966 1_555
Mg3 O65 2.245608 1_555
Mg3 O64 2.263392 1_555
Mg3 O63 2.269256 1_555
Nb0 O38 1.889468 1_555
Nb0 O2 1.945700 1_455
Nb0 O0 1.948923 1_555
Nb0 O37 1.959328 1_445
Nb0 O36 1.968719 1_545
Nb0 O1 2.272026 1_445
Nb1 O5 1.860720 1_565
Nb1 O41 1.902524 1_555
Nb1 O4 1.914659 1_555
Nb1 O39 1.975777 1_665
Nb1 O3 2.213002 1_665
Nb1 O40 2.234982 1_655
Nb2 O8 1.881362 1_655
Nb2 O6 1.895197 1_555
Nb2 O44 1.994810 1_555
Nb2 O43 2.106700 1_665
Nb2 O42 2.116634 1_565
Nb2 O7 2.181951 1_665
Nb3 O10 1.827736 1_555
Nb3 O11 1.835590 1_545
Nb3 O9 2.010456 1_445
Nb3 O47 2.151958 1_555
Nb3 O46 2.258728 1_455
Nb3 O45 2.275408 1_445
Nb4 O55 1.885690 1_555
Nb4 O54 1.900391 1_555
Nb4 O19 2.018807 1_556
Nb4 O20 2.098961 1_556
Nb4 O56 2.127411 1_555
Nb4 O18 2.157772 1_556
Nb5 O57 1.861536 1_555
Nb5 O59 1.873602 1_555
Nb5 O58 1.874603 1_555
Nb5 O21 2.205457 1_555
Nb5 O23 2.221534 1_555
Nb5 O22 2.266970 1_555
Nb6 O30 1.881423 1_555
Nb6 O31 1.949703 1_555
Nb6 O32 1.964299 1_555
Nb6 O66 2.018268 1_555
Nb6 O68 2.026054 1_555
Nb6 O67 2.308099 1_555
Nb7 O33 1.943467 1_555
Nb7 O35 1.958585 1_555
Nb7 O70 1.962714 1_555
Nb7 O71 1.980924 1_555
Nb7 O69 2.080107 1_555
Nb7 O34 2.185604 1_555
O0 Si0 1.623587 1_555
O1 S0 1.459012 1_555
O2 Si1 1.624234 1_555
O3 S1 1.480095 1_555
O4 Si2 1.649773 1_555
O5 Si3 1.670581 1_555
O6 Si3 1.677082 1_565
O7 S1 1.491436 1_555
O8 Si2 1.688763 1_455
O9 S0 1.561600 1_555
O10 Si1 1.737474 1_455
O11 Si0 1.738968 1_565
O12 S2 1.457532 1_555
O13 S3 1.458571 1_555
O14 S4 1.452519 1_555
O15 S5 1.438374 1_555
O16 S6 1.442978 1_555
O17 S7 1.443856 1_555
O18 S7 1.519743 1_555
O19 S5 1.562253 1_555
O20 S6 1.537305 1_555
O21 S3 1.493973 1_555
O22 S4 1.477016 1_555
O23 S2 1.493291 1_555
O24 Si4 1.557094 1_555
O25 Si5 1.558652 1_555
O26 S8 1.450298 1_555
O27 Si6 1.561676 1_555
O28 Si7 1.559081 1_555
O29 Si8 1.557692 1_555
O30 Si8 1.671850 1_555
O31 Si6 1.656250 1_555
O32 Si7 1.643247 1_555
O33 Si5 1.659389 1_555
O34 S8 1.492067 1_555
O35 Si4 1.646725 1_555
O36 Si8 1.622912 1_555
O37 Si6 1.630649 1_555
O38 Si7 1.651485 1_555
O39 Si5 1.640093 1_555
O40 S8 1.484412 1_555
O41 Si4 1.665485 1_555
O42 S2 1.551733 1_555
O43 S3 1.555058 1_555
O44 S4 1.590387 1_555
O45 S5 1.507508 1_555
O46 S6 1.517290 1_555
O47 S7 1.543334 1_555
O48 Si3 1.564556 1_555
O49 S1 1.447370 1_555
O50 Si2 1.567967 1_555
O51 S0 1.451648 1_555
O52 Si1 1.568046 1_555
O53 Si0 1.567272 1_555
O54 Si4 1.690032 1_555
O55 Si5 1.708814 1_655
O56 S8 1.518762 1_545
O57 Si6 1.700739 1_545
O58 Si7 1.683123 1_555
O59 Si8 1.680144 1_655
O60 S7 1.465446 1_555
O61 S5 1.466151 1_455
O62 S6 1.468967 1_565
O63 S3 1.462284 1_565
O64 S4 1.457867 1_555
O65 S2 1.461011 1_455
O66 Si0 1.632864 1_565
O67 S0 1.474663 1_555
O68 Si1 1.631177 1_455
O69 S1 1.520776 1_555
O70 Si2 1.652825 1_455
O71 Si3 1.641954 1_565
