# generated using pymatgen
data_Na4Mg(MoO4)2
_symmetry_space_group_name_H-M   'P 1'
_cell_length_a   6.50861264
_cell_length_b   6.50861089
_cell_length_c   6.85106489
_cell_angle_alpha   101.80585260
_cell_angle_beta   101.80589308
_cell_angle_gamma   124.66378112
_symmetry_Int_Tables_number   1
_chemical_formula_structural   Na4Mg(MoO4)2
_chemical_formula_sum   'Na4 Mg1 Mo2 O8'
_cell_volume   214.29079450
_cell_formula_units_Z   1
loop_
 _symmetry_equiv_pos_site_id
 _symmetry_equiv_pos_as_xyz
  1  'x, y, z'
loop_
 _atom_site_type_symbol
 _atom_site_label
 _atom_site_symmetry_multiplicity
 _atom_site_fract_x
 _atom_site_fract_y
 _atom_site_fract_z
 _atom_site_occupancy
  Na  Na0  1  0.61427700  0.38572300  0.25000000  1
  Na  Na1  1  0.13553700  0.86446500  0.25000000  1
  Na  Na2  1  0.80292000  0.19707900  0.75000000  1
  Na  Na3  1  0.44713300  0.55286700  0.75000000  1
  Mg  Mg0  1  0.37479300  0.62520700  0.25000000  1
  Mo  Mo0  1  0.87494200  0.12505800  0.24999900  1
  Mo  Mo1  1  0.12509000  0.87491100  0.75000000  1
  O  O0  1  0.24987600  0.21316700  0.93492200  1
  O  O1  1  0.27814400  0.81428000  0.56461200  1
  O  O2  1  0.78683400  0.75012500  0.56507800  1
  O  O3  1  0.18571900  0.72185600  0.93538800  1
  O  O4  1  0.69914500  0.75452900  0.12062700  1
  O  O5  1  0.63392400  0.07880400  0.37956400  1
  O  O6  1  0.92119600  0.36607600  0.12043500  1
  O  O7  1  0.24547200  0.30085500  0.37937300  1
loop_
_geom_bond_atom_site_label_1
_geom_bond_atom_site_label_2
_geom_bond_distance
_geom_bond_site_symmetry_2
Na0 O0 2.330060 1_554
Na0 O2 2.330062 1_555
Na0 O5 2.400927 1_555
Na0 O6 2.400931 1_555
Na0 O7 2.532855 1_555
Na0 O4 2.532859 1_555
Na1 O3 2.329882 1_554
Na1 O1 2.329888 1_555
Na1 O7 2.400713 1_565
Na1 O4 2.400722 1_455
Na1 O5 2.534534 1_565
Na1 O6 2.534542 1_455
Na2 O6 2.310496 1_556
Na2 O5 2.310503 1_555
Na2 O1 2.595506 1_545
Na2 O3 2.595510 1_655
Na2 O2 2.858284 1_545
Na2 O0 2.858287 1_655
Na3 O4 2.311645 1_556
Na3 O7 2.311646 1_555
Na3 O0 2.593183 1_555
Na3 O2 2.593189 1_555
Na3 O1 2.856425 1_555
Na3 O3 2.856432 1_555
Mg0 O5 2.235962 1_565
Mg0 O6 2.235962 1_455
Mg0 O7 2.236157 1_555
Mg0 O4 2.236158 1_555
Mg0 O1 2.627920 1_555
Mg0 O3 2.627922 1_554
Mg0 O0 2.635440 1_554
Mg0 O2 2.635441 1_555
Mo0 O6 1.865819 1_555
Mo0 O5 1.865825 1_555
Mo0 O4 1.866080 1_545
Mo0 O7 1.866087 1_655
Mo1 O2 1.874914 1_455
Mo1 O0 1.874914 1_565
Mo1 O3 1.876447 1_555
Mo1 O1 1.876448 1_555
