# generated using pymatgen
data_KMnBr3
_symmetry_space_group_name_H-M   'P 1'
_cell_length_a   4.06261933
_cell_length_b   9.33159817
_cell_length_c   15.20534512
_cell_angle_alpha   90.00000000
_cell_angle_beta   90.00000000
_cell_angle_gamma   90.00000000
_symmetry_Int_Tables_number   1
_chemical_formula_structural   KMnBr3
_chemical_formula_sum   'K4 Mn4 Br12'
_cell_volume   576.44575021
_cell_formula_units_Z   4
loop_
 _symmetry_equiv_pos_site_id
 _symmetry_equiv_pos_as_xyz
  1  'x, y, z'
loop_
 _atom_site_type_symbol
 _atom_site_label
 _atom_site_symmetry_multiplicity
 _atom_site_fract_x
 _atom_site_fract_y
 _atom_site_fract_z
 _atom_site_occupancy
  K  K0  1  0.75000000  0.06730888  0.67666592  1
  K  K1  1  0.25000000  0.93269112  0.32333408  1
  K  K2  1  0.75000000  0.56730888  0.82333408  1
  K  K3  1  0.25000000  0.43269112  0.17666592  1
  Mn  Mn0  1  0.25000000  0.66545371  0.55329961  1
  Mn  Mn1  1  0.75000000  0.33454629  0.44670039  1
  Mn  Mn2  1  0.25000000  0.16545371  0.94670039  1
  Mn  Mn3  1  0.75000000  0.83454629  0.05329961  1
  Br  Br0  1  0.25000000  0.78366980  0.70621273  1
  Br  Br1  1  0.75000000  0.21633020  0.29378727  1
  Br  Br2  1  0.25000000  0.28366980  0.79378727  1
  Br  Br3  1  0.75000000  0.71633020  0.20621273  1
  Br  Br4  1  0.75000000  0.82886666  0.49109600  1
  Br  Br5  1  0.25000000  0.17113334  0.50890400  1
  Br  Br6  1  0.75000000  0.32886666  0.00890400  1
  Br  Br7  1  0.25000000  0.67113334  0.99109600  1
  Br  Br8  1  0.25000000  0.52045899  0.39846907  1
  Br  Br9  1  0.75000000  0.47954101  0.60153093  1
  Br  Br10  1  0.25000000  0.02045899  0.10153093  1
  Br  Br11  1  0.75000000  0.97954101  0.89846907  1
loop_
_geom_bond_atom_site_label_1
_geom_bond_atom_site_label_2
_geom_bond_distance
_geom_bond_site_symmetry_2
Br0 Mn0 2.573520 1_555
Br0 K0 3.366548 1_465
Br0 K0 3.366548 1_565
Br0 K2 3.372544 1_555
Br0 K2 3.372544 1_455
Br1 Mn1 2.573520 1_555
Br1 K1 3.366548 1_545
Br1 K1 3.366548 1_645
Br1 K3 3.372544 1_555
Br1 K3 3.372544 1_655
Br2 Mn2 2.573520 1_555
Br2 K2 3.366548 1_555
Br2 K2 3.366548 1_455
Br2 K0 3.372544 1_455
Br2 K0 3.372544 1_555
Br3 Mn3 2.573520 1_555
Br3 K3 3.366548 1_555
Br3 K3 3.366548 1_655
Br3 K1 3.372544 1_655
Br3 K1 3.372544 1_555
Br4 Mn0 2.710376 1_655
Br4 Mn0 2.710376 1_555
Br4 K1 3.401744 1_655
Br4 K1 3.401744 1_555
Br4 K0 3.593406 1_565
Br5 Mn1 2.710376 1_455
Br5 Mn1 2.710376 1_555
Br5 K0 3.401744 1_555
Br5 K0 3.401744 1_455
Br5 K1 3.593406 1_545
Br6 Mn2 2.710376 1_554
Br6 Mn2 2.710376 1_654
Br6 K3 3.401744 1_555
Br6 K3 3.401744 1_655
Br6 K2 3.593406 1_554
Br7 Mn3 2.710376 1_456
Br7 Mn3 2.710376 1_556
Br7 K2 3.401744 1_455
Br7 K2 3.401744 1_555
Br7 K3 3.593406 1_556
Br8 Mn0 2.715363 1_555
Br8 Mn1 2.770163 1_455
Br8 Mn1 2.770163 1_555
Br8 K3 3.470615 1_555
Br9 Mn1 2.715363 1_555
Br9 Mn0 2.770163 1_655
Br9 Mn0 2.770163 1_555
Br9 K2 3.470615 1_555
Br10 Mn2 2.715363 1_554
Br10 Mn3 2.770163 1_445
Br10 Mn3 2.770163 1_545
Br10 K1 3.470615 1_545
Br11 Mn3 2.715363 1_556
Br11 Mn2 2.770163 1_665
Br11 Mn2 2.770163 1_565
Br11 K0 3.470615 1_565
