# generated using pymatgen
data_MgFe6(OF)6
_symmetry_space_group_name_H-M   'P 1'
_cell_length_a   5.29885648
_cell_length_b   5.36550650
_cell_length_c   8.78763848
_cell_angle_alpha   87.18258563
_cell_angle_beta   94.70199838
_cell_angle_gamma   92.54085362
_symmetry_Int_Tables_number   1
_chemical_formula_structural   MgFe6(OF)6
_chemical_formula_sum   'Mg1 Fe6 O6 F6'
_cell_volume   248.49603930
_cell_formula_units_Z   1
loop_
 _symmetry_equiv_pos_site_id
 _symmetry_equiv_pos_as_xyz
  1  'x, y, z'
loop_
 _atom_site_type_symbol
 _atom_site_label
 _atom_site_symmetry_multiplicity
 _atom_site_fract_x
 _atom_site_fract_y
 _atom_site_fract_z
 _atom_site_occupancy
  Mg  Mg0  1  0.47892800  0.96157900  0.04002000  1
  Fe  Fe0  1  0.95159200  0.90775700  0.99295800  1
  Fe  Fe1  1  0.04355500  0.07346200  0.33025700  1
  Fe  Fe2  1  0.08508800  0.04327800  0.66964900  1
  Fe  Fe3  1  0.43895000  0.54874700  0.83286000  1
  Fe  Fe4  1  0.58958900  0.42557900  0.19620200  1
  Fe  Fe5  1  0.39144300  0.56702100  0.49396600  1
  O  O0  1  0.18289100  0.85172100  0.50128400  1
  O  O1  1  0.23116000  0.83621800  0.84858600  1
  O  O2  1  0.29416400  0.34696100  0.66945000  1
  O  O3  1  0.29065900  0.34613700  0.33007100  1
  O  O4  1  0.66467200  0.65287900  0.00688600  1
  O  O5  1  0.78913100  0.11546300  0.15862300  1
  F  F0  1  0.22427600  0.86020900  0.18254900  1
  F  F1  1  0.32156600  0.28219500  0.99139000  1
  F  F2  1  0.64978900  0.68539400  0.67148700  1
  F  F3  1  0.67135500  0.67547300  0.36543400  1
  F  F4  1  0.82746600  0.13695100  0.80907300  1
  F  F5  1  0.84595000  0.18297900  0.49497000  1
loop_
_geom_bond_atom_site_label_1
_geom_bond_atom_site_label_2
_geom_bond_distance
_geom_bond_site_symmetry_2
Mg0 O4 2.008945 1_555
Mg0 O5 2.037942 1_565
Mg0 O1 2.162618 1_554
Fe0 O4 2.006574 1_556
Fe0 O1 2.087544 1_655
Fe0 O5 2.133649 1_566
Fe1 O3 1.919688 1_555
Fe1 O5 1.950208 1_455
Fe1 O0 1.984840 1_545
Fe2 O2 1.929336 1_555
Fe2 O0 1.958670 1_545
Fe2 O1 2.002722 1_545
Fe3 O2 1.929103 1_555
Fe3 O4 1.950976 1_556
Fe3 O1 1.951145 1_555
Fe4 O5 2.064690 1_555
Fe4 O3 2.066625 1_555
Fe4 O4 2.068670 1_555
Fe5 O0 1.931262 1_555
Fe5 O3 1.936413 1_555
Fe5 O2 1.983744 1_555
F0 Mg0 1.957139 1_555
F0 Fe1 2.087581 1_565
F0 Fe0 2.127166 1_454
F1 Mg0 1.957989 1_546
F1 Fe3 2.059218 1_555
F1 Fe4 2.338458 1_556
F2 Fe3 1.970172 1_555
F2 Fe5 2.093121 1_555
F3 Fe5 1.986908 1_555
F3 Fe4 2.058149 1_555
F4 Fe2 2.003203 1_655
F4 Fe0 2.063532 1_545
F5 Fe1 1.980754 1_655
F5 Fe2 2.043532 1_655
