# generated using pymatgen
data_MgFe8(OF)8
_symmetry_space_group_name_H-M   'P 1'
_cell_length_a   9.82660899
_cell_length_b   9.72715982
_cell_length_c   3.09038195
_cell_angle_alpha   90.29533167
_cell_angle_beta   90.22918956
_cell_angle_gamma   89.01047256
_symmetry_Int_Tables_number   1
_chemical_formula_structural   MgFe8(OF)8
_chemical_formula_sum   'Mg1 Fe8 O8 F8'
_cell_volume   295.34391054
_cell_formula_units_Z   1
loop_
 _symmetry_equiv_pos_site_id
 _symmetry_equiv_pos_as_xyz
  1  'x, y, z'
loop_
 _atom_site_type_symbol
 _atom_site_label
 _atom_site_symmetry_multiplicity
 _atom_site_fract_x
 _atom_site_fract_y
 _atom_site_fract_z
 _atom_site_occupancy
  Mg  Mg0  1  0.25591600  0.50716300  0.47896000  1
  Fe  Fe0  1  0.99789600  0.99020300  0.99925200  1
  Fe  Fe1  1  0.99136000  0.49849100  0.98071500  1
  Fe  Fe2  1  0.20233800  0.22034900  0.50896200  1
  Fe  Fe3  1  0.22563200  0.77439400  0.49647700  1
  Fe  Fe4  1  0.55631500  0.49855900  0.97955100  1
  Fe  Fe5  1  0.50368600  0.00787100  0.99995200  1
  Fe  Fe6  1  0.76403900  0.27047800  0.47873000  1
  Fe  Fe7  1  0.76058100  0.73002700  0.48677000  1
  O  O0  1  0.09737400  0.38838900  0.48322000  1
  O  O1  1  0.06567500  0.89825600  0.49860600  1
  O  O2  1  0.13436000  0.13296700  0.00399500  1
  O  O3  1  0.18294600  0.62364300  0.98300400  1
  O  O4  1  0.60391000  0.39204900  0.47857500  1
  O  O5  1  0.66838300  0.65142300  0.98362000  1
  O  O6  1  0.85111700  0.34932800  0.98149200  1
  O  O7  1  0.91351700  0.60302300  0.48275500  1
  F  F0  1  0.33491300  0.37516700  0.96673600  1
  F  F1  1  0.34896600  0.86737100  0.00898400  1
  F  F2  1  0.38835400  0.12309600  0.50079100  1
  F  F3  1  0.43398100  0.59356300  0.47991200  1
  F  F4  1  0.60445500  0.89844800  0.49717500  1
  F  F5  1  0.65859700  0.15288100  0.98680400  1
  F  F6  1  0.83323800  0.85607700  0.99231200  1
  F  F7  1  0.88634500  0.09678300  0.49181800  1
loop_
_geom_bond_atom_site_label_1
_geom_bond_atom_site_label_2
_geom_bond_distance
_geom_bond_site_symmetry_2
Mg0 O0 1.955660 1_555
Mg0 O3 2.031770 1_554
Mg0 O3 2.046207 1_555
Fe0 O1 1.900107 1_656
Fe0 O1 1.900190 1_655
Fe0 O2 1.947009 1_666
Fe1 O7 1.991739 1_555
Fe1 O7 1.998126 1_556
Fe1 O6 2.018299 1_555
Fe1 O0 2.133849 1_655
Fe1 O0 2.146980 1_656
Fe1 O3 2.259502 1_655
Fe2 O2 1.884220 1_556
Fe2 O2 1.897779 1_555
Fe2 O0 1.919482 1_555
Fe3 O1 1.963900 1_555
Fe3 O3 2.153116 1_555
Fe3 O3 2.199129 1_554
Fe4 O5 1.865510 1_555
Fe4 O4 1.913527 1_555
Fe4 O4 1.914259 1_556
Fe6 O6 1.930571 1_554
Fe6 O6 1.932427 1_555
Fe6 O4 1.951951 1_555
Fe7 O7 1.928922 1_555
Fe7 O5 1.951976 1_555
Fe7 O5 1.955408 1_554
F0 Mg0 2.121221 1_555
F0 Mg0 2.170566 1_556
F0 Fe2 2.448972 1_555
F0 Fe4 2.502910 1_555
F0 Fe2 2.623777 1_556
F1 Fe5 2.062181 1_564
F1 Fe3 2.150105 1_555
F1 Fe3 2.191591 1_554
F2 Fe2 2.043816 1_555
F2 Fe5 2.209120 1_555
F2 Fe5 2.211007 1_554
F3 Mg0 1.954166 1_555
F3 Fe4 2.155172 1_555
F3 Fe4 2.156836 1_554
F4 Fe5 2.107813 1_564
F4 Fe5 2.118134 1_565
F4 Fe7 2.225242 1_555
F5 Fe5 2.093742 1_555
F5 Fe6 2.168776 1_556
F5 Fe6 2.218078 1_555
F6 Fe0 2.095943 1_555
F6 Fe7 2.099132 1_556
F6 Fe7 2.110805 1_555
F7 Fe6 2.056910 1_555
F7 Fe0 2.133389 1_544
F7 Fe0 2.167780 1_545
