# generated using pymatgen
data_NaSb5O13
_symmetry_space_group_name_H-M   'P 1'
_cell_length_a   5.54495513
_cell_length_b   5.54495513
_cell_length_c   16.53752506
_cell_angle_alpha   90.00000000
_cell_angle_beta   90.00000000
_cell_angle_gamma   107.01218072
_symmetry_Int_Tables_number   1
_chemical_formula_structural   NaSb5O13
_chemical_formula_sum   'Na2 Sb10 O26'
_cell_volume   486.22206607
_cell_formula_units_Z   2
loop_
 _symmetry_equiv_pos_site_id
 _symmetry_equiv_pos_as_xyz
  1  'x, y, z'
loop_
 _atom_site_type_symbol
 _atom_site_label
 _atom_site_symmetry_multiplicity
 _atom_site_fract_x
 _atom_site_fract_y
 _atom_site_fract_z
 _atom_site_occupancy
  Na  Na0  1  0.87382883  0.12710881  0.75000000  1
  Na  Na1  1  0.12710881  0.87382883  0.25000000  1
  Sb  Sb0  1  0.38678520  0.61634753  0.07949344  1
  Sb  Sb1  1  0.61634753  0.38678520  0.92050656  1
  Sb  Sb2  1  0.00136144  0.00136144  0.00000000  1
  Sb  Sb3  1  0.38678520  0.61634753  0.42050656  1
  Sb  Sb4  1  0.61634753  0.38678520  0.57949344  1
  Sb  Sb5  1  0.00136144  0.00136144  0.50000000  1
  Sb  Sb6  1  0.76981139  0.23297700  0.36069349  1
  Sb  Sb7  1  0.76981139  0.23297700  0.13930651  1
  Sb  Sb8  1  0.23297700  0.76981139  0.86069349  1
  Sb  Sb9  1  0.23297700  0.76981139  0.63930651  1
  O  O0  1  0.52967720  0.06937056  0.86422989  1
  O  O1  1  0.06937056  0.52967720  0.36422989  1
  O  O2  1  0.06937056  0.52967720  0.13577011  1
  O  O3  1  0.52967720  0.06937056  0.63577011  1
  O  O4  1  0.31221249  0.31221249  0.00000000  1
  O  O5  1  0.31221249  0.31221249  0.50000000  1
  O  O6  1  0.01475154  0.98807053  0.61501022  1
  O  O7  1  0.17190907  0.83105453  0.75000000  1
  O  O8  1  0.22774751  0.77532648  0.98952664  1
  O  O9  1  0.22774751  0.77532648  0.51047336  1
  O  O10  1  0.44820390  0.55524860  0.65332588  1
  O  O11  1  0.55524860  0.44820390  0.15332588  1
  O  O12  1  0.77532648  0.22774751  0.48952664  1
  O  O13  1  0.98807053  0.01475154  0.38498978  1
  O  O14  1  0.55524860  0.44820390  0.34667412  1
  O  O15  1  0.98807053  0.01475154  0.11501022  1
  O  O16  1  0.83105453  0.17190907  0.25000000  1
  O  O17  1  0.77532648  0.22774751  0.01047336  1
  O  O18  1  0.01475154  0.98807053  0.88498978  1
  O  O19  1  0.44820390  0.55524860  0.84667412  1
  O  O20  1  0.69092671  0.69092671  0.50000000  1
  O  O21  1  0.69092671  0.69092671  0.00000000  1
  O  O22  1  0.47311490  0.93363690  0.36421085  1
  O  O23  1  0.93363690  0.47311490  0.63578915  1
  O  O24  1  0.93363690  0.47311490  0.86421085  1
  O  O25  1  0.47311490  0.93363690  0.13578915  1
loop_
_geom_bond_atom_site_label_1
_geom_bond_atom_site_label_2
_geom_bond_distance
_geom_bond_site_symmetry_2
Na0 O6 2.557556 1_645
Na0 O18 2.557556 1_645
Na0 O3 2.637281 1_555
Na0 O0 2.637281 1_555
Na0 O23 2.643120 1_555
Na0 O24 2.643120 1_555
Na0 O7 2.648482 1_645
Na1 O15 2.557556 1_465
Na1 O13 2.557556 1_465
Na1 O1 2.637281 1_555
Na1 O2 2.637281 1_555
Na1 O25 2.643120 1_555
Na1 O22 2.643120 1_555
Na1 O16 2.648482 1_465
O0 Sb1 1.923524 1_555
O0 Sb8 1.967250 1_545
O1 Sb3 1.923524 1_555
O1 Sb6 1.967250 1_455
O2 Sb0 1.923524 1_555
O2 Sb7 1.967250 1_455
O3 Sb4 1.923524 1_555
O3 Sb9 1.967250 1_545
O4 Sb2 2.050244 1_555
O4 Sb0 2.082108 1_555
O4 Sb1 2.082108 1_554
O5 Sb5 2.050244 1_555
O5 Sb3 2.082108 1_555
O5 Sb4 2.082108 1_555
O6 Sb5 1.905699 1_565
O6 Sb9 1.986772 1_555
O7 Sb9 1.910067 1_555
O7 Sb8 1.910067 1_555
O8 Sb2 2.024182 1_566
O8 Sb0 2.055064 1_556
O8 Sb8 2.131120 1_555
O9 Sb5 2.024182 1_565
O9 Sb3 2.055064 1_555
O9 Sb9 2.131120 1_555
O10 Sb9 1.929852 1_555
O10 Sb4 1.934512 1_555
O11 Sb7 1.929852 1_555
O11 Sb0 1.934512 1_555
O12 Sb5 2.024182 1_655
O12 Sb4 2.055064 1_555
O12 Sb6 2.131120 1_555
O13 Sb5 1.905699 1_655
O13 Sb6 1.986772 1_555
O14 Sb6 1.929852 1_555
O14 Sb3 1.934512 1_555
O15 Sb2 1.905699 1_655
O15 Sb7 1.986772 1_555
O16 Sb6 1.910067 1_555
O16 Sb7 1.910067 1_555
O17 Sb2 2.024182 1_655
O17 Sb1 2.055064 1_554
O17 Sb7 2.131120 1_555
O18 Sb2 1.905699 1_566
O18 Sb8 1.986772 1_555
O19 Sb8 1.929852 1_555
O19 Sb1 1.934512 1_555
O20 Sb5 2.047498 1_665
O20 Sb3 2.082133 1_555
O20 Sb4 2.082133 1_555
O21 Sb2 2.047498 1_665
O21 Sb1 2.082133 1_554
O21 Sb0 2.082133 1_555
O22 Sb3 1.923126 1_555
O22 Sb6 1.966500 1_565
O23 Sb4 1.923126 1_555
O23 Sb9 1.966500 1_655
O24 Sb1 1.923126 1_555
O24 Sb8 1.966500 1_655
O25 Sb0 1.923126 1_555
O25 Sb7 1.966500 1_565
