# generated using pymatgen
data_GaSbCl6
_symmetry_space_group_name_H-M   'P 1'
_cell_length_a   7.76622442
_cell_length_b   10.23232183
_cell_length_c   12.90986241
_cell_angle_alpha   78.07142810
_cell_angle_beta   90.00000000
_cell_angle_gamma   90.00000000
_symmetry_Int_Tables_number   1
_chemical_formula_structural   GaSbCl6
_chemical_formula_sum   'Ga4 Sb4 Cl24'
_cell_volume   1003.74839529
_cell_formula_units_Z   4
loop_
 _symmetry_equiv_pos_site_id
 _symmetry_equiv_pos_as_xyz
  1  'x, y, z'
loop_
 _atom_site_type_symbol
 _atom_site_label
 _atom_site_symmetry_multiplicity
 _atom_site_fract_x
 _atom_site_fract_y
 _atom_site_fract_z
 _atom_site_occupancy
  Ga  Ga0  1  0.76159740  0.65700469  0.92210175  1
  Ga  Ga1  1  0.26159740  0.34299531  0.57789825  1
  Ga  Ga2  1  0.23840260  0.34299531  0.07789825  1
  Ga  Ga3  1  0.73840260  0.65700469  0.42210175  1
  Sb  Sb0  1  0.23561202  0.74668032  0.37757024  1
  Sb  Sb1  1  0.73561202  0.25331968  0.12242976  1
  Sb  Sb2  1  0.76438798  0.25331968  0.62242976  1
  Sb  Sb3  1  0.26438798  0.74668032  0.87757024  1
  Cl  Cl0  1  0.65694651  0.04550743  0.08928412  1
  Cl  Cl1  1  0.15694651  0.95449257  0.41071588  1
  Cl  Cl2  1  0.34305349  0.95449257  0.91071588  1
  Cl  Cl3  1  0.84305349  0.04550743  0.58928412  1
  Cl  Cl4  1  0.82169053  0.18237501  0.29858897  1
  Cl  Cl5  1  0.32169053  0.81762499  0.20141103  1
  Cl  Cl6  1  0.17830947  0.81762499  0.70141103  1
  Cl  Cl7  1  0.67830947  0.18237501  0.79858897  1
  Cl  Cl8  1  0.41819948  0.26214664  0.21155508  1
  Cl  Cl9  1  0.91819948  0.73785336  0.28844492  1
  Cl  Cl10  1  0.58180052  0.73785336  0.78844492  1
  Cl  Cl11  1  0.08180052  0.26214664  0.71155508  1
  Cl  Cl12  1  0.38757488  0.38362564  0.93414930  1
  Cl  Cl13  1  0.88757488  0.61637436  0.56585070  1
  Cl  Cl14  1  0.61242512  0.61637436  0.06585070  1
  Cl  Cl15  1  0.11242512  0.38362564  0.43414930  1
  Cl  Cl16  1  0.90168740  0.49746206  0.87488546  1
  Cl  Cl17  1  0.40168740  0.50253794  0.62511454  1
  Cl  Cl18  1  0.09831260  0.50253794  0.12511454  1
  Cl  Cl19  1  0.59831260  0.49746206  0.37488546  1
  Cl  Cl20  1  0.05718369  0.17777818  0.06573969  1
  Cl  Cl21  1  0.55718369  0.82222182  0.43426031  1
  Cl  Cl22  1  0.94281631  0.82222182  0.93426031  1
  Cl  Cl23  1  0.44281631  0.17777818  0.56573969  1
loop_
_geom_bond_atom_site_label_1
_geom_bond_atom_site_label_2
_geom_bond_distance
_geom_bond_site_symmetry_2
Cl0 Sb1 2.335394 1_555
Cl1 Sb0 2.335394 1_555
Cl2 Sb3 2.335394 1_555
Cl3 Sb2 2.335394 1_555
Cl4 Sb1 2.337383 1_555
Cl5 Sb0 2.337383 1_555
Cl6 Sb3 2.337383 1_555
Cl7 Sb2 2.337383 1_555
Cl8 Ga2 2.240845 1_555
Cl8 Sb1 2.729779 1_555
Cl9 Ga3 2.240845 1_555
Cl9 Sb0 2.729779 1_655
Cl10 Ga0 2.240845 1_555
Cl10 Sb3 2.729779 1_555
Cl11 Ga1 2.240845 1_555
Cl11 Sb2 2.729779 1_455
Cl12 Ga2 2.154056 1_556
Cl13 Ga3 2.154056 1_555
Cl14 Ga0 2.154056 1_554
Cl15 Ga1 2.154056 1_555
Cl16 Ga0 2.152121 1_555
Cl17 Ga1 2.152121 1_555
Cl18 Ga2 2.152121 1_555
Cl19 Ga3 2.152121 1_555
Cl20 Ga2 2.230033 1_555
Cl20 Sb1 2.757525 1_455
Cl21 Ga3 2.230033 1_555
Cl21 Sb0 2.757525 1_555
Cl22 Ga0 2.230033 1_555
Cl22 Sb3 2.757525 1_655
Cl23 Ga1 2.230033 1_555
Cl23 Sb2 2.757525 1_555
