# generated using pymatgen
data_Na7Mg2Al2P5SO24
_symmetry_space_group_name_H-M   'P 1'
_cell_length_a   8.81742315
_cell_length_b   8.80702261
_cell_length_c   21.57567796
_cell_angle_alpha   90.03379307
_cell_angle_beta   90.01355666
_cell_angle_gamma   119.93620835
_symmetry_Int_Tables_number   1
_chemical_formula_structural   Na7Mg2Al2P5SO24
_chemical_formula_sum   'Na21 Mg6 Al6 P15 S3 O72'
_cell_volume   1451.92615632
_cell_formula_units_Z   3
loop_
 _symmetry_equiv_pos_site_id
 _symmetry_equiv_pos_as_xyz
  1  'x, y, z'
loop_
 _atom_site_type_symbol
 _atom_site_label
 _atom_site_symmetry_multiplicity
 _atom_site_fract_x
 _atom_site_fract_y
 _atom_site_fract_z
 _atom_site_occupancy
  Na  Na0  1  0.63877789  0.99336411  0.25162998  1
  Na  Na1  1  -0.00049724  0.63225001  0.25523734  1
  Na  Na2  1  0.63457937  0.64176409  0.74756594  1
  Na  Na3  1  0.00807895  0.36701120  0.75209809  1
  Na  Na4  1  0.36218845  0.99365392  0.75203106  1
  Na  Na5  1  0.29012362  0.33281497  0.58681091  1
  Na  Na6  1  0.04577838  0.71199635  0.58276658  1
  Na  Na7  1  0.66947102  0.95548185  0.58357541  1
  Na  Na8  1  0.29030034  0.95507965  0.07944777  1
  Na  Na9  1  0.66796196  0.70978609  0.08729495  1
  Na  Na10  1  0.04477070  0.33165314  0.08427924  1
  Na  Na11  1  0.98806305  0.66831311  0.91614669  1
  Na  Na12  1  0.32835881  0.31056730  0.92054855  1
  Na  Na13  1  0.97545437  0.31777895  0.41373576  1
  Na  Na14  1  0.68862394  0.67159667  0.41946091  1
  Na  Na15  1  0.01129916  0.99509767  0.49991864  1
  Na  Na16  1  0.99328451  0.00779295  -0.00044364  1
  Na  Na17  1  0.66872829  0.31069327  0.83559109  1
  Na  Na18  1  0.65091640  0.32519615  0.33397207  1
  Na  Na19  1  0.33412931  0.64019665  0.16929714  1
  Na  Na20  1  0.33442875  0.66886613  0.66721820  1
  Mg  Mg0  1  0.00024104  0.00090014  0.64679502  1
  Mg  Mg1  1  0.99764190  0.00204702  0.14663188  1
  Mg  Mg2  1  0.32745958  0.66554882  0.01757678  1
  Mg  Mg3  1  0.33415089  0.67759060  0.51739645  1
  Mg  Mg4  1  0.33276792  0.66475232  0.31808946  1
  Mg  Mg5  1  0.32845772  0.67113381  0.81823233  1
  Al  Al0  1  0.98674547  0.99104882  0.34853662  1
  Al  Al1  1  0.00591502  0.00940274  0.84718863  1
  Al  Al2  1  0.66782709  0.33303865  0.68672359  1
  Al  Al3  1  0.67159756  0.33879450  0.18537032  1
  Al  Al4  1  0.66705596  0.32180423  0.98342233  1
  Al  Al5  1  0.67023984  0.32962489  0.48312002  1
  P  P0  1  0.70200356  0.69705582  0.24797227  1
  P  P1  1  -0.00205411  0.29307496  0.24867055  1
  P  P2  1  0.29965384  0.29492670  0.74881300  1
  P  P3  1  0.99449412  0.70548330  0.74906125  1
  P  P4  1  0.71056429  0.00356029  0.74765709  1
  P  P5  1  0.95377102  0.33559465  0.58383183  1
  P  P6  1  0.38738546  0.05262372  0.58432748  1
  P  P7  1  0.66457016  0.61385709  0.58279617  1
  P  P8  1  0.95063550  0.61545528  0.08275288  1
  P  P9  1  0.66399284  0.04682057  0.08624137  1
  P  P10  1  0.38852871  0.33499198  0.08269244  1
  P  P11  1  0.02344446  0.35612858  0.91665473  1
  P  P12  1  0.33351201  0.97405557  0.91617757  1
  P  P13  1  0.63667992  0.97282965  0.41558575  1
  P  P14  1  0.02851655  0.67146541  0.41694794  1
  S  S0  1  0.29210807  0.00831981  0.24973004  1
  S  S1  1  0.63839384  0.67190208  0.91655176  1
  S  S2  1  0.33130025  0.35896529  0.41735351  1
  O  O0  1  0.19462975  0.02219012  0.30369155  1
  O  O1  1  0.82465900  0.79280703  0.30509612  1
  O  O2  1  0.97556767  0.17166251  0.30540449  1
  O  O3  1  0.20659535  0.17459658  0.80588523  1
  O  O4  1  0.97125529  0.80090997  0.80674345  1
  O  O5  1  0.83839947  0.03088535  0.80183152  1
  O  O6  1  0.78130154  0.97176573  0.68731772  1
  O  O7  1  0.18909223  0.21760994  0.69054511  1
  O  O8  1  0.02233987  0.81273086  0.69044927  1
  O  O9  1  0.78714001  0.80653546  0.18970945  1
  O  O10  1  0.01846932  0.21369888  0.18879499  1
  O  O11  1  0.19456727  0.98463640  0.19165586  1
  O  O12  1  0.86156352  0.35348234  0.64259947  1
  O  O13  1  0.49206068  0.13886903  0.64473242  1
  O  O14  1  0.64679395  0.50573931  0.64218599  1
  O  O15  1  0.86398743  0.50690697  0.14228240  1
  O  O16  1  0.64481711  0.13493343  0.14627771  1
  O  O17  1  0.50245871  0.35326115  0.13962125  1
  O  O18  1  0.47793750  0.32059230  0.02258836  1
  O  O19  1  0.83786365  0.52355157  0.02461318  1
  O  O20  1  0.68360066  0.16134477  0.02964397  1
  O  O21  1  0.48432062  0.16690990  0.52784927  1
  O  O22  1  0.67894969  0.51999282  0.52403194  1
  O  O23  1  0.84732584  0.32085559  0.52462470  1
  O  O24  1  0.55667976  0.69128329  0.97367314  1
  O  O25  1  0.14399331  0.43652527  0.97379457  1
  O  O26  1  0.29789180  0.85593149  0.97350829  1
  O  O27  1  0.55882167  0.85273257  0.47247962  1
  O  O28  1  0.29857041  0.43385492  0.47441946  1
  O  O29  1  0.13400599  0.69541184  0.47605342  1
  O  O30  1  0.11168230  0.63325913  0.36083556  1
  O  O31  1  0.52900429  0.88868197  0.35733400  1
  O  O32  1  0.36395094  0.47774867  0.36489003  1
  O  O33  1  0.10710755  0.47626764  0.86021089  1
  O  O34  1  0.35881965  0.89162653  0.85808208  1
  O  O35  1  0.52797866  0.64627474  0.86222384  1
  O  O36  1  0.00440922  0.83491928  0.40734329  1
  O  O37  1  0.82759216  0.99788966  0.40784302  1
  O  O38  1  0.17275256  0.18330105  0.40763770  1
  O  O39  1  0.00588046  0.17244677  0.90651679  1
  O  O40  1  0.16377872  0.99237218  0.90899580  1
  O  O41  1  0.81830296  0.82759058  0.91062194  1
  O  O42  1  0.97137751  0.16952468  0.58469572  1
  O  O43  1  0.20243359  0.03197939  0.58530496  1
  O  O44  1  0.83072142  0.79732632  0.58363348  1
  O  O45  1  0.97194061  0.80097913  0.08493083  1
  O  O46  1  0.82936999  0.02787784  0.08648228  1
  O  O47  1  0.20441320  0.16876681  0.08491258  1
  O  O48  1  0.69616559  0.17496371  0.74543418  1
  O  O49  1  0.48378889  0.30813121  0.74528854  1
  O  O50  1  0.82428535  0.51986170  0.74605952  1
  O  O51  1  0.69122507  0.51399838  0.24457724  1
  O  O52  1  0.82206608  0.30334981  0.24746251  1
  O  O53  1  0.46989312  0.16737431  0.24853037  1
  O  O54  1  0.65961621  0.51216540  0.92026034  1
  O  O55  1  0.84075193  0.34194330  0.92564307  1
  O  O56  1  0.49345470  0.16346203  0.92423015  1
  O  O57  1  0.66337177  0.16118526  0.42414561  1
  O  O58  1  0.48982830  0.34001872  0.42348227  1
  O  O59  1  0.83714555  0.50580528  0.42251711  1
  O  O60  1  0.36843861  0.50000535  0.08017146  1
  O  O61  1  0.13366141  0.63246393  0.07943416  1
  O  O62  1  0.49930343  0.86271970  0.08162532  1
  O  O63  1  0.36944003  0.86873153  0.58087938  1
  O  O64  1  0.49895921  0.63245795  0.58000047  1
  O  O65  1  0.13819888  0.50043860  0.58127950  1
  O  O66  1  0.31355881  0.85111982  0.25589988  1
  O  O67  1  0.52176158  0.68065605  0.25635736  1
  O  O68  1  0.15119992  0.48086486  0.25641801  1
  O  O69  1  0.32733114  0.48092793  0.75815739  1
  O  O70  1  0.15388647  0.67864423  0.75582503  1
  O  O71  1  0.52580657  0.84468566  0.75730466  1
loop_
_geom_bond_atom_site_label_1
_geom_bond_atom_site_label_2
_geom_bond_distance
_geom_bond_site_symmetry_2
Na0 O52 2.381153 1_565
Na0 O67 2.413286 1_555
Na0 O31 2.470025 1_555
Na0 O66 2.493146 1_555
Na0 O16 2.580936 1_565
Na0 O53 2.616935 1_565
Na0 O2 2.823581 1_565
Na0 O9 2.889646 1_555
Na1 O68 2.312410 1_555
Na1 O51 2.387511 1_455
Na1 O66 2.460999 1_555
Na1 O30 2.481833 1_555
Na1 O52 2.518441 1_455
Na1 O15 2.695306 1_455
Na1 O1 2.776363 1_455
Na2 O69 2.359810 1_555
Na2 O50 2.396664 1_555
Na2 O71 2.422446 1_555
Na2 O49 2.550390 1_555
Na2 O14 2.596512 1_555
Na2 O35 2.653888 1_555
Na2 O6 2.839496 1_555
Na2 O4 2.872398 1_555
Na3 O70 2.381160 1_555
Na3 O48 2.408770 1_455
Na3 O69 2.475621 1_555
Na3 O33 2.507426 1_555
Na3 O50 2.575437 1_455
Na3 O12 2.666309 1_455
Na3 O5 2.781563 1_455
Na3 O7 2.852612 1_555
Na4 O71 2.388465 1_555
Na4 O49 2.424502 1_565
Na4 O70 2.447754 1_555
Na4 O34 2.453490 1_555
Na4 O48 2.559147 1_565
Na4 O13 2.617139 1_565
Na4 O3 2.819994 1_565
Na4 O8 2.917857 1_555
Na5 O64 2.350964 1_555
Na5 O43 2.360897 1_555
Na5 O7 2.435938 1_555
Na5 O42 2.436203 1_455
Na5 O65 2.441718 1_555
Na5 O28 2.571795 1_555
Na6 O44 2.362869 1_455
Na6 O65 2.377383 1_555
Na6 O43 2.442809 1_565
Na6 O29 2.457940 1_555
Na6 O63 2.473852 1_555
Na6 O8 2.531486 1_555
Na7 O63 2.359735 1_555
Na7 O42 2.373183 1_565
Na7 O6 2.420815 1_555
Na7 O44 2.436855 1_555
Na7 O64 2.467885 1_555
Na7 O27 2.575144 1_555
Na8 O47 2.356135 1_565
Na8 O62 2.357149 1_555
Na8 O45 2.435930 1_455
Na8 O26 2.459169 1_554
Na8 O61 2.462478 1_555
Na8 O11 2.619332 1_555
Na9 O60 2.354045 1_555
Na9 O45 2.383966 1_555
Na9 O9 2.411622 1_555
Na9 O46 2.427886 1_565
Na9 O62 2.457619 1_555
Na9 O24 2.614928 1_554
Na10 O61 2.360442 1_555
Na10 O46 2.386587 1_455
Na10 O10 2.445510 1_555
Na10 O47 2.460685 1_555
Na10 O60 2.475486 1_555
Na10 O25 2.549115 1_554
Na11 O40 2.481312 1_655
Na11 O55 2.503102 1_555
Na11 O54 2.512266 1_555
Na11 O41 2.513618 1_555
Na11 O4 2.670809 1_555
Na11 O19 2.678781 1_556
Na11 O33 2.681244 1_655
Na11 O26 2.686232 1_655
Na12 O56 2.384598 1_555
Na12 O40 2.441590 1_545
Na12 O39 2.490670 1_555
Na12 O18 2.544879 1_556
Na12 O54 2.551038 1_555
Na12 O25 2.644290 1_555
Na12 O3 2.723807 1_555
Na12 O35 2.869583 1_555
Na13 O57 2.395327 1_555
Na13 O37 2.446735 1_545
Na13 O59 2.506121 1_555
Na13 O38 2.550046 1_655
Na13 O23 2.651967 1_555
Na13 O2 2.667731 1_555
Na13 O30 2.671832 1_655
Na13 O28 2.822434 1_655
Na14 O59 2.399970 1_555
Na14 O36 2.427697 1_655
Na14 O37 2.511739 1_555
Na14 O58 2.549357 1_555
Na14 O22 2.601989 1_555
Na14 O27 2.642747 1_555
Na14 O1 2.719078 1_555
Na14 O32 2.759430 1_555
Na15 O43 2.406491 1_565
Na15 O36 2.427827 1_555
Na15 O44 2.463427 1_455
Na15 O42 2.523123 1_465
Na15 O38 2.527511 1_565
Na15 O37 2.570851 1_455
Na16 O46 2.427693 1_555
Na16 O39 2.446951 1_654
Na16 O41 2.476325 1_544
Na16 O47 2.495638 1_655
Na16 O40 2.510182 1_644
Na16 O45 2.531397 1_545
Na17 O48 2.357403 1_555
Na17 O56 2.394054 1_555
Na17 O55 2.394317 1_555
Na17 O49 2.533259 1_555
Na17 O50 2.547534 1_555
Na17 O54 2.574988 1_555
Na18 O53 2.378931 1_555
Na18 O58 2.439322 1_555
Na18 O51 2.454696 1_555
Na18 O57 2.458703 1_555
Na18 O52 2.467576 1_555
Na18 O59 2.502844 1_555
Na19 O60 2.384096 1_555
Na19 O67 2.408693 1_555
Na19 O68 2.418577 1_555
Na19 O62 2.587826 1_555
Na19 O61 2.601215 1_555
Na19 O66 2.703198 1_555
Na20 O65 2.462864 1_555
Na20 O63 2.474986 1_555
Na20 O64 2.492670 1_555
Na20 O70 2.516841 1_555
Na20 O71 2.531814 1_555
Na20 O69 2.548287 1_555
Mg0 O8 1.998870 1_545
Mg0 O6 2.015859 1_445
Mg0 O7 2.032641 1_555
Mg0 O42 2.108270 1_455
Mg0 O43 2.127902 1_555
Mg0 O44 2.151088 1_445
Mg1 O10 1.998029 1_655
Mg1 O9 2.021549 1_545
Mg1 O11 2.060894 1_645
Mg1 O46 2.067297 1_555
Mg1 O45 2.134450 1_545
Mg1 O47 2.141218 1_655
Mg2 O26 2.054605 1_554
Mg2 O61 2.071397 1_555
Mg2 O25 2.077987 1_554
Mg2 O24 2.139530 1_554
Mg2 O62 2.142661 1_555
Mg2 O60 2.146613 1_555
Mg3 O27 2.048350 1_555
Mg3 O29 2.051965 1_555
Mg3 O63 2.069041 1_555
Mg3 O65 2.152299 1_555
Mg3 O64 2.161112 1_555
Mg3 O28 2.211658 1_555
Mg4 O30 2.046756 1_555
Mg4 O31 2.047383 1_555
Mg4 O32 2.064321 1_555
Mg4 O67 2.083010 1_555
Mg4 O68 2.089273 1_555
Mg4 O66 2.191582 1_555
Mg5 O34 2.015160 1_555
Mg5 O33 2.057788 1_555
Mg5 O70 2.070621 1_555
Mg5 O35 2.104206 1_555
Mg5 O71 2.107401 1_555
Mg5 O69 2.113544 1_555
Al0 O1 1.864475 1_555
Al0 O2 1.887894 1_565
Al0 O37 1.922342 1_555
Al0 O36 1.934045 1_655
Al0 O0 1.967409 1_665
Al0 O38 2.099430 1_665
Al1 O5 1.858391 1_455
Al1 O3 1.864064 1_555
Al1 O4 1.914268 1_445
Al1 O39 1.923197 1_555
Al1 O40 1.986470 1_545
Al1 O41 2.129207 1_445
Al2 O13 1.870661 1_555
Al2 O12 1.884376 1_555
Al2 O14 1.885293 1_555
Al2 O49 1.980925 1_555
Al2 O48 1.988537 1_555
Al2 O50 1.995123 1_555
Al3 O17 1.844943 1_555
Al3 O15 1.851933 1_555
Al3 O16 1.888290 1_555
Al3 O51 1.942613 1_555
Al3 O52 2.016297 1_555
Al3 O53 2.150127 1_555
Al4 O20 1.794496 1_556
Al4 O18 1.864883 1_556
Al4 O19 1.881960 1_556
Al4 O55 1.913434 1_555
Al4 O56 1.945578 1_555
Al4 O54 2.187361 1_555
Al5 O21 1.824837 1_555
Al5 O23 1.834598 1_555
Al5 O22 1.861633 1_555
Al5 O57 1.931685 1_555
Al5 O59 2.001818 1_555
Al5 O58 2.083046 1_555
O0 S0 1.488041 1_555
O1 P0 1.577241 1_555
O2 P1 1.572174 1_655
O3 P2 1.564212 1_555
O4 P3 1.570963 1_555
O5 P4 1.556587 1_555
O6 P4 1.528578 1_565
O7 P2 1.526559 1_555
O8 P3 1.523717 1_455
O9 P0 1.533903 1_555
O10 P1 1.521723 1_555
O11 S0 1.474221 1_565
O12 P5 1.556159 1_555
O13 P6 1.557530 1_555
O14 P7 1.557480 1_555
O15 P8 1.555705 1_555
O16 P9 1.561577 1_555
O17 P10 1.543235 1_555
O18 P10 1.555415 1_555
O19 P8 1.553169 1_555
O20 P9 1.538135 1_555
O21 P6 1.540069 1_555
O22 P7 1.552551 1_555
O23 P5 1.551530 1_555
O24 S1 1.479890 1_555
O25 P11 1.548620 1_555
O26 P12 1.544845 1_555
O27 P13 1.540794 1_555
O28 S2 1.491116 1_555
O29 P14 1.529451 1_555
O30 P14 1.537165 1_555
O31 P13 1.525222 1_555
O32 S2 1.469524 1_555
O33 P11 1.539380 1_555
O34 P12 1.519435 1_555
O35 S1 1.467171 1_555
O36 P14 1.570396 1_555
O37 P13 1.593634 1_555
O38 S2 1.494193 1_555
O39 P11 1.561496 1_555
O40 P12 1.590834 1_555
O41 S1 1.497424 1_555
O42 P5 1.546041 1_555
O43 P6 1.548256 1_555
O44 P7 1.547514 1_555
O45 P8 1.549428 1_555
O46 P9 1.548227 1_555
O47 P10 1.552109 1_555
O48 P4 1.577510 1_555
O49 P2 1.570667 1_555
O50 P3 1.574858 1_555
O51 P0 1.568595 1_555
O52 P1 1.598098 1_655
O53 S0 1.492880 1_555
O54 S1 1.511088 1_555
O55 P11 1.564436 1_655
O56 P12 1.566283 1_545
O57 P13 1.565645 1_545
O58 S2 1.493964 1_555
O59 P14 1.591709 1_655
O60 P10 1.550284 1_555
O61 P8 1.546209 1_455
O62 P9 1.548325 1_565
O63 P6 1.548410 1_565
O64 P7 1.549698 1_555
O65 P5 1.548870 1_455
O66 S0 1.493919 1_565
O67 P0 1.533113 1_555
O68 P1 1.535659 1_555
O69 P2 1.544092 1_555
O70 P3 1.543991 1_455
O71 P4 1.542890 1_565
