# generated using pymatgen
data_PuSi2
_symmetry_space_group_name_H-M   'P 1'
_cell_length_a   7.51814266
_cell_length_b   7.51814266
_cell_length_c   7.51814266
_cell_angle_alpha   148.91802984
_cell_angle_beta   148.91802984
_cell_angle_gamma   44.53197601
_symmetry_Int_Tables_number   1
_chemical_formula_structural   PuSi2
_chemical_formula_sum   'Pu2 Si4'
_cell_volume   112.92041580
_cell_formula_units_Z   2
loop_
 _symmetry_equiv_pos_site_id
 _symmetry_equiv_pos_as_xyz
  1  'x, y, z'
loop_
 _atom_site_type_symbol
 _atom_site_label
 _atom_site_symmetry_multiplicity
 _atom_site_fract_x
 _atom_site_fract_y
 _atom_site_fract_z
 _atom_site_occupancy
  Pu  Pu0  1  0.50000000  0.50000000  0.00000000  1
  Pu  Pu1  1  0.25000000  0.75000000  0.50000000  1
  Si  Si0  1  0.83286013  0.33286013  0.50000000  1
  Si  Si1  1  0.08286013  0.08286013  0.00000000  1
  Si  Si2  1  0.66713987  0.16713987  0.50000000  1
  Si  Si3  1  0.91713987  0.91713987  -0.00000000  1
loop_
_geom_bond_atom_site_label_1
_geom_bond_atom_site_label_2
_geom_bond_distance
_geom_bond_site_symmetry_2
Pu0 Si3 3.073171 1_455
Pu0 Si1 3.073171 1_554
Pu0 Si3 3.073171 1_545
Pu0 Si3 3.073171 1_556
Pu0 Si1 3.073171 1_565
Pu0 Si1 3.073171 1_655
Pu0 Si1 3.073171 1_666
Pu0 Si3 3.073171 1_444
Pu0 Si0 3.076796 1_454
Pu0 Si0 3.076796 1_555
Pu0 Si2 3.076796 1_565
Pu0 Si2 3.076796 1_554
Pu1 Si2 3.073171 1_465
Pu1 Si0 3.073171 1_454
Pu1 Si2 3.073171 1_555
Pu1 Si2 3.073171 1_566
Pu1 Si0 3.073171 1_555
Pu1 Si0 3.073171 1_465
Pu1 Si2 3.073171 1_454
Pu1 Si0 3.073171 1_566
Pu1 Si1 3.076796 1_566
Pu1 Si1 3.076796 1_555
Pu1 Si3 3.076796 1_455
Pu1 Si3 3.076796 1_556
Si0 Si2 2.306014 1_555
Si0 Si3 2.330847 1_545
Si0 Si3 2.330847 1_556
Si1 Si3 2.306014 1_445
Si1 Si2 2.330847 1_555
Si1 Si2 2.330847 1_454
