# generated using pymatgen
data_Na6Ca4Ga4SiS11O48
_symmetry_space_group_name_H-M   'P 1'
_cell_length_a   17.79843938
_cell_length_b   8.92186337
_cell_length_c   22.98412477
_cell_angle_alpha   89.89722613
_cell_angle_beta   90.01526528
_cell_angle_gamma   120.06357019
_symmetry_Int_Tables_number   1
_chemical_formula_structural   Na6Ca4Ga4SiS11O48
_chemical_formula_sum   'Na18 Ca12 Ga12 Si3 S33 O144'
_cell_volume   3158.76068871
_cell_formula_units_Z   3
loop_
 _symmetry_equiv_pos_site_id
 _symmetry_equiv_pos_as_xyz
  1  'x, y, z'
loop_
 _atom_site_type_symbol
 _atom_site_label
 _atom_site_symmetry_multiplicity
 _atom_site_fract_x
 _atom_site_fract_y
 _atom_site_fract_z
 _atom_site_occupancy
  Na  Na0  1  0.81603839  0.99333380  0.24756680  1
  Na  Na1  1  0.99572686  0.63221594  0.25504260  1
  Na  Na2  1  0.31653595  0.64199202  0.74580487  1
  Na  Na3  1  0.81466850  0.64130233  0.74532411  1
  Na  Na4  1  0.99857726  0.35974346  0.75267254  1
  Na  Na5  1  0.69201511  0.99701595  0.74966745  1
  Na  Na6  1  0.99977089  0.99876379  0.49808200  1
  Na  Na7  1  0.50093189  0.00209320  0.49842532  1
  Na  Na8  1  0.00154497  0.00247583  0.00221555  1
  Na  Na9  1  0.50029833  0.99825050  0.00177773  1
  Na  Na10  1  0.33547558  0.30486503  0.83241577  1
  Na  Na11  1  0.83436690  0.31639027  0.83914549  1
  Na  Na12  1  0.33527026  0.33548779  0.33415538  1
  Na  Na13  1  0.82621943  0.35209363  0.33450717  1
  Na  Na14  1  0.17653128  0.66842431  0.16260209  1
  Na  Na15  1  0.66388564  0.65180756  0.16806331  1
  Na  Na16  1  0.17748520  0.69997219  0.66400745  1
  Na  Na17  1  0.66867707  0.67082766  0.66336305  1
  Ca  Ca0  1  0.49655739  0.99465275  0.35317455  1
  Ca  Ca1  1  0.83422764  0.32900319  0.68193808  1
  Ca  Ca2  1  0.33204059  0.33014945  0.17785027  1
  Ca  Ca3  1  0.83004406  0.34436837  0.17963375  1
  Ca  Ca4  1  0.33257288  0.33323971  0.98927661  1
  Ca  Ca5  1  0.83222550  0.33228158  0.98787873  1
  Ca  Ca6  1  0.83190078  0.32916619  0.48332560  1
  Ca  Ca7  1  0.16504743  0.66108485  0.51660837  1
  Ca  Ca8  1  0.67054399  0.67432747  0.51826919  1
  Ca  Ca9  1  0.17841753  0.67518758  0.31868725  1
  Ca  Ca10  1  0.17281379  0.68598971  0.81264754  1
  Ca  Ca11  1  0.66390263  0.66253178  0.81525920  1
  Ga  Ga0  1  0.99841863  0.99002899  0.34974438  1
  Ga  Ga1  1  0.99920282  0.00598624  0.85414668  1
  Ga  Ga2  1  0.48899568  0.01324277  0.85216879  1
  Ga  Ga3  1  0.99519059  0.99988093  0.64971140  1
  Ga  Ga4  1  0.49452468  0.99376086  0.64805273  1
  Ga  Ga5  1  0.98891813  0.98648650  0.15305469  1
  Ga  Ga6  1  0.50343728  0.00646576  0.15251483  1
  Ga  Ga7  1  0.33406066  0.31063493  0.68318887  1
  Ga  Ga8  1  0.33371681  0.33333715  0.48474990  1
  Ga  Ga9  1  0.16691879  0.66622166  0.01394660  1
  Ga  Ga10  1  0.66540136  0.66880837  0.01373992  1
  Ga  Ga11  1  0.66811787  0.65120699  0.31350287  1
  Si  Si0  1  0.85307733  0.71161689  0.25380772  1
  Si  Si1  1  0.36013559  0.01188150  0.74512520  1
  Si  Si2  1  0.85984148  0.00177480  0.75215786  1
  S  S0  1  0.13939217  0.00232155  0.24970613  1
  S  S1  1  0.64353753  0.98674230  0.24888396  1
  S  S2  1  0.35537626  0.71263118  0.24393163  1
  S  S3  1  0.00310251  0.28345610  0.24939718  1
  S  S4  1  0.50492504  0.29960182  0.24930516  1
  S  S5  1  0.14569974  0.27702024  0.74786079  1
  S  S6  1  0.63747531  0.27352267  0.75051263  1
  S  S7  1  0.00062197  0.72414855  0.74968969  1
  S  S8  1  0.49587549  0.71517848  0.74749478  1
  S  S9  1  0.47353315  0.32210173  0.58420070  1
  S  S10  1  0.98853597  0.32119844  0.58827703  1
  S  S11  1  0.18669995  0.05276221  0.58596431  1
  S  S12  1  0.66833339  0.02623274  0.58965156  1
  S  S13  1  0.33880996  0.61353238  0.58725047  1
  S  S14  1  0.84222122  0.65444460  0.58861497  1
  S  S15  1  0.49518532  0.65689936  0.08267900  1
  S  S16  1  0.99601761  0.65548452  0.08399630  1
  S  S17  1  0.33329578  0.00986239  0.08305580  1
  S  S18  1  0.83203076  0.01009914  0.08354362  1
  S  S19  1  0.17050521  0.33191773  0.08297780  1
  S  S20  1  0.67062273  0.33451626  0.08244068  1
  S  S21  1  0.31896434  0.67919780  0.91626696  1
  S  S22  1  0.81884037  0.67883128  0.91664924  1
  S  S23  1  0.02308048  0.36550722  0.91543609  1
  S  S24  1  0.52085204  0.36201354  0.91860175  1
  S  S25  1  0.15826526  0.95951872  0.91760811  1
  S  S26  1  0.65797115  0.95892708  0.91517179  1
  S  S27  1  0.31956458  0.98938493  0.42309819  1
  S  S28  1  0.81874863  0.96280188  0.40856919  1
  S  S29  1  0.16709162  0.34768520  0.41733072  1
  S  S30  1  0.66744072  0.37559144  0.41413205  1
  S  S31  1  0.01537995  0.67933667  0.41213323  1
  S  S32  1  0.51414096  0.64870069  0.41647635  1
  O  O0  1  0.10042266  0.02330638  0.30396857  1
  O  O1  1  0.60690041  0.01555839  0.30095345  1
  O  O2  1  0.39870331  0.78984293  0.29824825  1
  O  O3  1  0.91814393  0.80870177  0.30790096  1
  O  O4  1  0.49450088  0.20089622  0.30126903  1
  O  O5  1  0.99641935  0.18362800  0.30274408  1
  O  O6  1  0.11034305  0.17657065  0.80239309  1
  O  O7  1  0.59667113  0.16733518  0.80393508  1
  O  O8  1  0.48318854  0.79567725  0.80063920  1
  O  O9  1  0.99667866  0.81187084  0.80326334  1
  O  O10  1  0.41322549  0.04024880  0.80686510  1
  O  O11  1  0.92241762  0.03169213  0.80929628  1
  O  O12  1  0.40683505  0.97645200  0.69008655  1
  O  O13  1  0.90579642  0.97512338  0.69457804  1
  O  O14  1  0.09240258  0.19019244  0.69604318  1
  O  O15  1  0.59111157  0.18928441  0.69652547  1
  O  O16  1  0.01278912  0.82542928  0.69575035  1
  O  O17  1  0.51336319  0.82554724  0.69503179  1
  O  O18  1  0.40456509  0.82096565  0.19192690  1
  O  O19  1  0.89222573  0.83537151  0.19492285  1
  O  O20  1  0.01419197  0.20396251  0.19553856  1
  O  O21  1  0.51725804  0.21584809  0.19553000  1
  O  O22  1  0.08601942  0.98483464  0.19712239  1
  O  O23  1  0.59232759  0.97272283  0.19496022  1
  O  O24  1  0.43210736  0.34608331  0.63719728  1
  O  O25  1  0.94963321  0.33681361  0.64327680  1
  O  O26  1  0.23880787  0.13758198  0.63941101  1
  O  O27  1  0.71722450  0.10322072  0.64378664  1
  O  O28  1  0.33027845  0.50998890  0.64125902  1
  O  O29  1  0.83296441  0.56037131  0.64376540  1
  O  O30  1  0.45806484  0.54657557  0.13414091  1
  O  O31  1  0.96197324  0.55289294  0.13797888  1
  O  O32  1  0.31444285  0.08188450  0.13481023  1
  O  O33  1  0.81709572  0.08029787  0.13749837  1
  O  O34  1  0.22590245  0.36871141  0.13458455  1
  O  O35  1  0.72418892  0.36954599  0.13455618  1
  O  O36  1  0.20884057  0.29907789  0.03120195  1
  O  O37  1  0.70792071  0.29832037  0.03109754  1
  O  O38  1  0.44043462  0.58176172  0.03078140  1
  O  O39  1  0.93832671  0.57192276  0.03412250  1
  O  O40  1  0.35010932  0.11940854  0.03131315  1
  O  O41  1  0.84595026  0.12327236  0.03327697  1
  O  O42  1  0.22884243  0.15887561  0.53304883  1
  O  O43  1  0.71141532  0.13168057  0.53805709  1
  O  O44  1  0.34766562  0.52819645  0.53348564  1
  O  O45  1  0.84722032  0.56024304  0.53807698  1
  O  O46  1  0.42016290  0.30133552  0.53143342  1
  O  O47  1  0.93400237  0.30175287  0.53755217  1
  O  O48  1  0.27192530  0.70075058  0.96726614  1
  O  O49  1  0.77023485  0.69690165  0.96735626  1
  O  O50  1  0.07902570  0.46175969  0.96673493  1
  O  O51  1  0.57612251  0.45340396  0.97053306  1
  O  O52  1  0.14725450  0.84898275  0.97012888  1
  O  O53  1  0.64901895  0.84473260  0.96647739  1
  O  O54  1  0.27468500  0.87957360  0.47339261  1
  O  O55  1  0.78178630  0.86448212  0.46238565  1
  O  O56  1  0.15082676  0.42375752  0.46897183  1
  O  O57  1  0.66259663  0.46029241  0.46729126  1
  O  O58  1  0.06729633  0.69442994  0.46396917  1
  O  O59  1  0.56424047  0.66958223  0.46917568  1
  O  O60  1  0.05625404  0.66288512  0.35814021  1
  O  O61  1  0.55685370  0.62799855  0.36303250  1
  O  O62  1  0.27157638  0.91730881  0.36826603  1
  O  O63  1  0.76319617  0.87024051  0.35667841  1
  O  O64  1  0.18428875  0.45505224  0.36475761  1
  O  O65  1  0.67258358  0.47834083  0.36056579  1
  O  O66  1  0.05966652  0.45725550  0.86032327  1
  O  O67  1  0.55834967  0.45671523  0.86485044  1
  O  O68  1  0.16970098  0.88441554  0.86463486  1
  O  O69  1  0.66991240  0.88791986  0.86040920  1
  O  O70  1  0.27257737  0.65668038  0.86140371  1
  O  O71  1  0.77346219  0.65916572  0.86130766  1
  O  O72  1  0.01001292  0.84291076  0.41086000  1
  O  O73  1  0.50090371  0.79862498  0.41191111  1
  O  O74  1  0.40762321  0.01345364  0.42058341  1
  O  O75  1  0.90852180  0.98736167  0.40370325  1
  O  O76  1  0.08896612  0.17119944  0.40864836  1
  O  O77  1  0.59051815  0.20220901  0.41205247  1
  O  O78  1  0.02005101  0.19302105  0.91504841  1
  O  O79  1  0.51765781  0.18871957  0.91635452  1
  O  O80  1  0.07549086  0.96896479  0.91340416  1
  O  O81  1  0.57623498  0.96803190  0.91261251  1
  O  O82  1  0.40639891  0.84427051  0.91408166  1
  O  O83  1  0.90641691  0.84139750  0.91585088  1
  O  O84  1  0.47995799  0.16177978  0.58787131  1
  O  O85  1  0.99727932  0.16205556  0.58979683  1
  O  O86  1  0.09981219  0.03731155  0.59134438  1
  O  O87  1  0.58089475  0.01794741  0.59216536  1
  O  O88  1  0.41966448  0.78594739  0.58977352  1
  O  O89  1  0.92619476  0.82642648  0.58892935  1
  O  O90  1  0.50698033  0.83455949  0.09158749  1
  O  O91  1  0.00708834  0.83285349  0.09146247  1
  O  O92  1  0.41113940  0.98936281  0.09256593  1
  O  O93  1  0.91171789  0.99251527  0.08841032  1
  O  O94  1  0.08199732  0.17857269  0.09221027  1
  O  O95  1  0.58160700  0.17752725  0.09193572  1
  O  O96  1  0.35012573  0.18678565  0.74061983  1
  O  O97  1  0.84897567  0.17379179  0.75301988  1
  O  O98  1  0.23717821  0.31397893  0.74135816  1
  O  O99  1  0.72701968  0.29709961  0.74985002  1
  O  O100  1  0.41439921  0.54334585  0.74111422  1
  O  O101  1  0.91714884  0.55463162  0.74827711  1
  O  O102  1  0.34602788  0.53850989  0.23971560  1
  O  O103  1  0.84833857  0.52589363  0.24927230  1
  O  O104  1  0.42865304  0.32239386  0.24197474  1
  O  O105  1  0.92077892  0.28957904  0.24572915  1
  O  O106  1  0.22759196  0.15402009  0.24550533  1
  O  O107  1  0.73418141  0.13221540  0.24182178  1
  O  O108  1  0.33157126  0.52992090  0.92460617  1
  O  O109  1  0.83011765  0.52705535  0.92394860  1
  O  O110  1  0.43240595  0.33399134  0.92498688  1
  O  O111  1  0.93491312  0.33885558  0.92252973  1
  O  O112  1  0.23342702  0.13556696  0.92442844  1
  O  O113  1  0.73453598  0.13355502  0.92272011  1
  O  O114  1  0.32562758  0.16316365  0.42903741  1
  O  O115  1  0.82626861  0.13573338  0.41066321  1
  O  O116  1  0.24660300  0.33075710  0.42654004  1
  O  O117  1  0.74704026  0.36202112  0.41347917  1
  O  O118  1  0.42524545  0.48681088  0.42143618  1
  O  O119  1  0.92701901  0.52711338  0.41621883  1
  O  O120  1  0.16186215  0.49143695  0.07297087  1
  O  O121  1  0.65992968  0.48971701  0.07256797  1
  O  O122  1  0.08408576  0.67442545  0.07312751  1
  O  O123  1  0.58416945  0.67715081  0.07289673  1
  O  O124  1  0.25493606  0.83184188  0.07305394  1
  O  O125  1  0.75419447  0.83257282  0.07350415  1
  O  O126  1  0.17824681  0.88007855  0.58249481  1
  O  O127  1  0.65476960  0.84928897  0.58552614  1
  O  O128  1  0.26200829  0.63354026  0.58422820  1
  O  O129  1  0.76742191  0.68417882  0.58555641  1
  O  O130  1  0.07578357  0.47633182  0.58438900  1
  O  O131  1  0.56064622  0.47559831  0.58102887  1
  O  O132  1  0.14284231  0.83881558  0.25205156  1
  O  O133  1  0.64748184  0.82199946  0.25274812  1
  O  O134  1  0.26864966  0.69952082  0.24191058  1
  O  O135  1  0.75675664  0.69805468  0.25969893  1
  O  O136  1  0.07696546  0.46341282  0.25249764  1
  O  O137  1  0.58628732  0.47582165  0.25261379  1
  O  O138  1  0.14910415  0.44817808  0.75135461  1
  O  O139  1  0.64701192  0.44798612  0.75254040  1
  O  O140  1  0.07184299  0.68362457  0.75065557  1
  O  O141  1  0.57243065  0.69267424  0.75182004  1
  O  O142  1  0.26661718  0.83361060  0.74512376  1
  O  O143  1  0.76241232  0.83067690  0.75045749  1
loop_
_geom_bond_atom_site_label_1
_geom_bond_atom_site_label_2
_geom_bond_distance
_geom_bond_site_symmetry_2
Na0 O135 2.311674 1_555
Na0 O107 2.341672 1_565
Na0 O105 2.350701 1_565
Na0 O133 2.599216 1_555
Na0 O33 2.642106 1_565
Na0 O19 2.685278 1_555
Na0 O63 2.708577 1_555
Na1 O103 2.303494 1_555
Na1 O132 2.328607 1_655
Na1 O136 2.558205 1_655
Na1 O60 2.560487 1_655
Na1 O105 2.662100 1_555
Na1 O31 2.771484 1_555
Na1 O3 2.836946 1_555
Na2 O142 2.287815 1_555
Na2 O100 2.314410 1_555
Na2 O98 2.535612 1_555
Na2 O138 2.592951 1_555
Na2 O28 2.742229 1_555
Na2 O70 2.791723 1_555
Na2 O8 2.862846 1_555
Na2 O12 2.882653 1_555
Na3 O143 2.304095 1_555
Na3 O101 2.311356 1_555
Na3 O29 2.513584 1_555
Na3 O139 2.597947 1_555
Na3 O99 2.659721 1_555
Na3 O71 2.790941 1_555
Na3 O13 2.830196 1_555
Na4 O97 2.327296 1_555
Na4 O138 2.383967 1_655
Na4 O140 2.505340 1_655
Na4 O25 2.635312 1_555
Na4 O66 2.668254 1_655
Na4 O101 2.767328 1_555
Na4 O11 2.847772 1_555
Na5 O143 2.373938 1_555
Na5 O97 2.425632 1_565
Na5 O99 2.425891 1_565
Na5 O141 2.472777 1_555
Na5 O27 2.566672 1_565
Na5 O69 2.681178 1_555
Na6 O72 2.499957 1_655
Na6 O89 2.532098 1_555
Na6 O85 2.577562 1_565
Na6 O76 2.579875 1_665
Na6 O75 2.680837 1_555
Na6 O86 2.696410 1_665
Na7 O74 2.477046 1_555
Na7 O87 2.546629 1_555
Na7 O77 2.609177 1_555
Na7 O84 2.634271 1_555
Na7 O73 2.694690 1_545
Na7 O88 2.722413 1_545
Na8 O93 2.519426 1_445
Na8 O80 2.527083 1_544
Na8 O78 2.537620 1_554
Na8 O83 2.538273 1_444
Na8 O94 2.559948 1_555
Na8 O91 2.577981 1_545
Na9 O79 2.510053 1_564
Na9 O82 2.539861 1_554
Na9 O81 2.543208 1_554
Na9 O90 2.563394 1_555
Na9 O95 2.576391 1_565
Na9 O92 2.598820 1_555
Na10 O96 2.431622 1_555
Na10 O110 2.668649 1_555
Na10 O112 2.700892 1_555
Na10 O98 2.754563 1_555
Na10 O100 2.809797 1_555
Na10 O108 2.946440 1_555
Na11 O97 2.438332 1_555
Na11 O111 2.560453 1_555
Na11 O113 2.567967 1_555
Na11 O109 2.737347 1_555
Na11 O99 2.749915 1_555
Na11 O101 2.810472 1_555
Na12 O118 2.500679 1_555
Na12 O114 2.621606 1_555
Na12 O116 2.633586 1_555
Na12 O106 2.710489 1_555
Na12 O104 2.731716 1_555
Na12 O102 2.769080 1_555
Na13 O117 2.327117 1_555
Na13 O103 2.403158 1_555
Na13 O119 2.527061 1_555
Na13 O115 2.603767 1_555
Na13 O107 2.804172 1_555
Na13 O105 2.872908 1_555
Na14 O134 2.373256 1_555
Na14 O124 2.502297 1_555
Na14 O120 2.530593 1_555
Na14 O122 2.650547 1_555
Na14 O136 2.737850 1_555
Na14 O132 2.796876 1_555
Na15 O137 2.442758 1_555
Na15 O133 2.575742 1_555
Na15 O135 2.579995 1_555
Na15 O121 2.612102 1_555
Na15 O123 2.677042 1_555
Na15 O125 2.701872 1_555
Na16 O142 2.350640 1_555
Na16 O126 2.461634 1_555
Na16 O128 2.622110 1_555
Na16 O130 2.645594 1_555
Na16 O140 2.692408 1_555
Na16 O138 2.860010 1_555
Na17 O129 2.468248 1_555
Na17 O127 2.486240 1_555
Na17 O143 2.539492 1_555
Na17 O131 2.639397 1_555
Na17 O141 2.728336 1_555
Na17 O139 2.742313 1_555
Ca0 O2 2.187362 1_555
Ca0 O4 2.206821 1_565
Ca0 O77 2.227596 1_565
Ca0 O1 2.228426 1_565
Ca0 O73 2.239263 1_555
Ca0 O74 2.280871 1_565
Ca1 O25 2.207006 1_555
Ca1 O27 2.228405 1_555
Ca1 O97 2.238638 1_555
Ca1 O29 2.251962 1_555
Ca1 O101 2.363990 1_555
Ca1 O99 2.369433 1_555
Ca2 O102 2.255037 1_555
Ca2 O104 2.291584 1_555
Ca2 O32 2.301186 1_555
Ca2 O34 2.307569 1_555
Ca2 O106 2.325760 1_555
Ca2 O30 2.328890 1_555
Ca3 O103 2.184369 1_555
Ca3 O35 2.257370 1_555
Ca3 O107 2.300591 1_555
Ca3 O31 2.347216 1_555
Ca3 O105 2.437569 1_555
Ca3 O33 2.450673 1_555
Ca4 O36 2.280109 1_556
Ca4 O38 2.292081 1_556
Ca4 O40 2.293542 1_556
Ca4 O108 2.304527 1_555
Ca4 O110 2.308717 1_555
Ca4 O112 2.309917 1_555
Ca5 O41 2.252779 1_556
Ca5 O39 2.286677 1_556
Ca5 O109 2.288311 1_555
Ca5 O37 2.302572 1_556
Ca5 O113 2.308465 1_555
Ca5 O111 2.343836 1_555
Ca6 O45 2.313915 1_555
Ca6 O47 2.314868 1_555
Ca6 O119 2.315177 1_555
Ca6 O117 2.320554 1_555
Ca6 O43 2.343799 1_555
Ca6 O115 2.369485 1_555
Ca7 O54 2.185693 1_555
Ca7 O130 2.244198 1_555
Ca7 O58 2.257304 1_555
Ca7 O56 2.284171 1_555
Ca7 O126 2.390903 1_555
Ca7 O128 2.424090 1_555
Ca8 O59 2.184856 1_555
Ca8 O57 2.185565 1_555
Ca8 O55 2.253044 1_555
Ca8 O129 2.284700 1_555
Ca8 O127 2.313679 1_555
Ca8 O131 2.359651 1_555
Ca9 O62 2.265678 1_555
Ca9 O64 2.277639 1_555
Ca9 O60 2.307285 1_555
Ca9 O134 2.321878 1_555
Ca9 O136 2.394870 1_555
Ca9 O132 2.407368 1_555
Ca10 O68 2.161197 1_555
Ca10 O142 2.172924 1_555
Ca10 O70 2.222644 1_555
Ca10 O140 2.284948 1_555
Ca10 O66 2.301402 1_555
Ca10 O138 2.403692 1_555
Ca11 O67 2.176632 1_555
Ca11 O143 2.213826 1_555
Ca11 O69 2.218986 1_555
Ca11 O71 2.231814 1_555
Ca11 O139 2.294663 1_555
Ca11 O141 2.298898 1_555
Ga0 O3 1.809002 1_555
Ga0 O0 1.987719 1_665
Ga0 O72 2.000796 1_655
Ga0 O75 2.015324 1_555
Ga0 O5 2.050984 1_565
Ga0 O76 2.107035 1_665
Ga1 O11 1.815333 1_555
Ga1 O80 2.062639 1_645
Ga1 O78 2.066235 1_655
Ga1 O9 2.073265 1_545
Ga1 O83 2.111633 1_545
Ga1 O6 2.150021 1_655
Ga2 O10 1.812429 1_555
Ga2 O79 2.023694 1_555
Ga2 O7 2.036601 1_555
Ga2 O82 2.057126 1_545
Ga2 O8 2.233472 1_545
Ga2 O81 2.264512 1_545
Ga3 O13 1.814296 1_555
Ga3 O85 1.982485 1_565
Ga3 O89 1.989311 1_555
Ga3 O14 2.018095 1_665
Ga3 O16 2.030438 1_655
Ga3 O86 2.180662 1_665
Ga4 O12 1.775361 1_555
Ga4 O87 1.930649 1_565
Ga4 O17 2.007196 1_555
Ga4 O15 2.059347 1_565
Ga4 O88 2.130726 1_555
Ga4 O84 2.146951 1_565
Ga5 O19 1.837662 1_555
Ga5 O22 2.009349 1_655
Ga5 O20 2.013112 1_665
Ga5 O93 2.042339 1_555
Ga5 O91 2.106840 1_655
Ga5 O94 2.187523 1_665
Ga6 O18 1.932318 1_545
Ga6 O23 2.005185 1_545
Ga6 O95 2.017317 1_555
Ga6 O21 2.018362 1_555
Ga6 O92 2.090184 1_545
Ga6 O90 2.102845 1_545
Ga7 O96 1.832001 1_555
Ga7 O26 1.911160 1_555
Ga7 O24 1.926019 1_555
Ga7 O28 2.051954 1_555
Ga7 O98 2.194243 1_555
Ga7 O100 2.272054 1_555
Ga8 O114 1.937371 1_555
Ga8 O44 1.978174 1_555
Ga8 O46 2.009545 1_555
Ga8 O116 2.039063 1_555
Ga8 O42 2.055047 1_555
Ga8 O118 2.098951 1_555
Ga9 O50 2.024693 1_554
Ga9 O120 2.032763 1_555
Ga9 O122 2.034369 1_555
Ga9 O48 2.040108 1_554
Ga9 O124 2.042048 1_555
Ga9 O52 2.088357 1_554
Ga10 O123 2.013406 1_555
Ga10 O51 2.037370 1_554
Ga10 O53 2.044712 1_554
Ga10 O125 2.052257 1_555
Ga10 O49 2.052408 1_554
Ga10 O121 2.056005 1_555
Ga11 O135 1.879204 1_555
Ga11 O65 1.916203 1_555
Ga11 O137 2.061961 1_555
Ga11 O63 2.088073 1_555
Ga11 O61 2.202280 1_555
Ga11 O133 2.227013 1_555
O0 S0 1.484244 1_555
O1 S1 1.446741 1_545
O2 S2 1.448482 1_555
O3 Si0 1.623344 1_555
O4 S4 1.438418 1_555
O5 S3 1.483517 1_655
O6 S5 1.483735 1_555
O7 S6 1.496525 1_555
O8 S8 1.491505 1_555
O9 S7 1.480610 1_655
O10 Si1 1.652742 1_555
O11 Si2 1.654999 1_555
O12 Si1 1.629807 1_565
O13 Si2 1.635101 1_565
O14 S5 1.478122 1_555
O15 S6 1.472048 1_555
O16 S7 1.483393 1_555
O17 S8 1.486390 1_555
O18 S2 1.509297 1_555
O19 Si0 1.661523 1_555
O20 S3 1.489254 1_555
O21 S4 1.517229 1_555
O22 S0 1.496334 1_565
O23 S1 1.506060 1_555
O24 S9 1.494190 1_555
O25 S10 1.481415 1_555
O26 S11 1.497125 1_555
O27 S12 1.476755 1_555
O28 S13 1.507590 1_555
O29 S14 1.481925 1_555
O30 S15 1.465965 1_555
O31 S16 1.478185 1_555
O32 S17 1.469511 1_555
O33 S18 1.473274 1_555
O34 S19 1.470826 1_555
O35 S20 1.464114 1_555
O36 S19 1.472930 1_555
O37 S20 1.467697 1_555
O38 S15 1.472941 1_555
O39 S16 1.469563 1_555
O40 S17 1.470407 1_555
O41 S18 1.470047 1_555
O42 S11 1.490960 1_555
O43 S12 1.467314 1_555
O44 S13 1.501754 1_555
O45 S14 1.463560 1_555
O46 S9 1.493793 1_555
O47 S10 1.470660 1_555
O48 S21 1.508155 1_555
O49 S22 1.507858 1_555
O50 S23 1.505125 1_555
O51 S24 1.502147 1_555
O52 S25 1.506779 1_555
O53 S26 1.512312 1_555
O54 S27 1.465103 1_555
O55 S28 1.466492 1_555
O56 S29 1.467368 1_555
O57 S30 1.462870 1_555
O58 S31 1.471981 1_555
O59 S32 1.459704 1_555
O60 S31 1.482886 1_555
O61 S32 1.504298 1_555
O62 S27 1.477615 1_555
O63 S28 1.505608 1_555
O64 S29 1.474337 1_555
O65 S30 1.508799 1_555
O66 S23 1.470144 1_555
O67 S24 1.455094 1_555
O68 S25 1.453453 1_555
O69 S26 1.472641 1_555
O70 S21 1.465009 1_555
O71 S22 1.469456 1_555
O72 S31 1.509738 1_555
O73 S32 1.473409 1_555
O74 S27 1.472650 1_545
O75 S28 1.504254 1_555
O76 S29 1.503314 1_555
O77 S30 1.465576 1_555
O78 S23 1.512649 1_555
O79 S24 1.519394 1_555
O80 S25 1.520268 1_555
O81 S26 1.498256 1_555
O82 S21 1.515507 1_555
O83 S22 1.506126 1_555
O84 S9 1.493183 1_555
O85 S10 1.504198 1_555
O86 S11 1.487382 1_555
O87 S12 1.521694 1_555
O88 S13 1.490943 1_555
O89 S14 1.513464 1_555
O90 S15 1.505376 1_555
O91 S16 1.503664 1_455
O92 S17 1.501468 1_565
O93 S18 1.507150 1_565
O94 S19 1.496047 1_555
O95 S20 1.515019 1_555
O96 Si1 1.659967 1_555
O97 Si2 1.640311 1_555
O98 S5 1.498020 1_555
O99 S6 1.499543 1_555
O100 S8 1.499327 1_555
O101 S7 1.498189 1_655
O102 S2 1.480524 1_555
O103 Si0 1.619942 1_555
O104 S4 1.479506 1_555
O105 S3 1.495697 1_655
O106 S0 1.475236 1_555
O107 S1 1.488327 1_545
O108 S21 1.469465 1_555
O109 S22 1.474304 1_555
O110 S24 1.472353 1_555
O111 S23 1.473697 1_655
O112 S25 1.475382 1_545
O113 S26 1.479238 1_545
O114 S27 1.505733 1_545
O115 S28 1.481231 1_545
O116 S29 1.511362 1_555
O117 S30 1.481193 1_555
O118 S32 1.520650 1_555
O119 S31 1.478603 1_655
O120 S19 1.523237 1_555
O121 S20 1.505968 1_555
O122 S16 1.510829 1_455
O123 S15 1.518186 1_555
O124 S17 1.517348 1_565
O125 S18 1.511226 1_565
O126 S11 1.473371 1_565
O127 S12 1.475854 1_565
O128 S13 1.466161 1_555
O129 S14 1.483727 1_555
O130 S10 1.476914 1_455
O131 S9 1.468686 1_555
O132 S0 1.491368 1_565
O133 S1 1.508668 1_555
O134 S2 1.489166 1_555
O135 Si0 1.662597 1_555
O136 S3 1.482139 1_555
O137 S4 1.514572 1_555
O138 S5 1.499908 1_555
O139 S6 1.479643 1_555
O140 S7 1.482304 1_555
O141 S8 1.476729 1_555
O142 Si1 1.627194 1_565
O143 Si2 1.639150 1_565
