# generated using pymatgen
data_NaMgCr2In(H2O5)2
_symmetry_space_group_name_H-M   'P 1'
_cell_length_a   5.74956053
_cell_length_b   6.25626709
_cell_length_c   7.58387661
_cell_angle_alpha   109.32290449
_cell_angle_beta   86.15750382
_cell_angle_gamma   116.34803547
_symmetry_Int_Tables_number   1
_chemical_formula_structural   NaMgCr2In(H2O5)2
_chemical_formula_sum   'Na1 Mg1 Cr2 In1 H4 O10'
_cell_volume   229.65708314
_cell_formula_units_Z   1
loop_
 _symmetry_equiv_pos_site_id
 _symmetry_equiv_pos_as_xyz
  1  'x, y, z'
loop_
 _atom_site_type_symbol
 _atom_site_label
 _atom_site_symmetry_multiplicity
 _atom_site_fract_x
 _atom_site_fract_y
 _atom_site_fract_z
 _atom_site_occupancy
  Na  Na0  1  0.85082575  0.89992984  0.41157893  1
  Mg  Mg0  1  0.48069778  0.35462191  0.75654197  1
  Cr  Cr0  1  0.54500861  0.18250482  0.28363093  1
  Cr  Cr1  1  0.40904649  0.79287891  0.67774204  1
  In  In0  1  0.97605557  0.98306844  0.97595762  1
  H  H0  1  0.24631781  0.51635667  0.20880621  1
  H  H1  1  0.95716219  0.53483435  0.84100130  1
  H  H2  1  0.21288018  0.51774738  0.99567307  1
  H  H3  1  0.75919641  0.47599954  0.10529612  1
  O  O0  1  0.18489027  0.41094985  0.07455839  1
  O  O1  1  0.82004697  0.57504733  0.90899347  1
  O  O2  1  0.69480956  0.47067153  0.23074417  1
  O  O3  1  0.27240861  0.54160340  0.76892508  1
  O  O4  1  0.62710469  0.26762913  0.51411074  1
  O  O5  1  0.32652266  0.68134893  0.44994866  1
  O  O6  1  0.68296963  0.98431821  0.16520846  1
  O  O7  1  0.21846315  0.04234109  0.21998006  1
  O  O8  1  0.28564518  0.01939832  0.79205515  1
  O  O9  1  0.74161550  0.93625037  0.73531863  1
loop_
_geom_bond_atom_site_label_1
_geom_bond_atom_site_label_2
_geom_bond_distance
_geom_bond_site_symmetry_2
Na0 O2 2.342399 1_555
Na0 O9 2.454535 1_555
Na0 O6 2.459272 1_555
Na0 O7 2.479230 1_665
Na0 O5 2.743832 1_555
Na0 O4 2.976556 1_565
Mg0 O1 1.975893 1_555
Mg0 O4 1.980443 1_555
Mg0 O3 1.991781 1_555
Mg0 O8 1.993555 1_555
Cr0 O4 1.683178 1_555
Cr0 O7 1.704962 1_555
Cr0 O6 1.736014 1_545
Cr0 O2 1.790774 1_555
Cr1 O5 1.647638 1_555
Cr1 O9 1.726770 1_555
Cr1 O3 1.765523 1_555
Cr1 O8 1.805642 1_565
In0 O6 2.140034 1_556
In0 O8 2.164065 1_665
In0 O1 2.179308 1_555
In0 O9 2.204253 1_555
In0 O7 2.222081 1_666
In0 O0 2.260398 1_666
H0 O0 0.996652 1_555
H1 O1 0.993176 1_555
H2 O0 0.993188 1_556
H3 O2 1.003052 1_555
