# generated using pymatgen
data_MgCo3BiO8
_symmetry_space_group_name_H-M   'P 1'
_cell_length_a   5.94892412
_cell_length_b   6.15097903
_cell_length_c   6.05795002
_cell_angle_alpha   61.15196682
_cell_angle_beta   116.31587018
_cell_angle_gamma   121.16245918
_symmetry_Int_Tables_number   1
_chemical_formula_structural   MgCo3BiO8
_chemical_formula_sum   'Mg1 Co3 Bi1 O8'
_cell_volume   160.50398829
_cell_formula_units_Z   1
loop_
 _symmetry_equiv_pos_site_id
 _symmetry_equiv_pos_as_xyz
  1  'x, y, z'
loop_
 _atom_site_type_symbol
 _atom_site_label
 _atom_site_symmetry_multiplicity
 _atom_site_fract_x
 _atom_site_fract_y
 _atom_site_fract_z
 _atom_site_occupancy
  Mg  Mg0  1  0.50000000  0.00000000  0.50000000  1
  Co  Co0  1  0.50000000  0.50000000  0.00000000  1
  Co  Co1  1  0.50000000  0.00000000  0.00000000  1
  Co  Co2  1  0.00000000  0.50000000  0.00000000  1
  Bi  Bi0  1  0.50000000  0.50000000  0.50000000  1
  O  O0  1  0.72636700  0.73255500  0.75881000  1
  O  O1  1  0.71135700  0.23261000  0.75268900  1
  O  O2  1  0.30594500  0.73769300  0.81559300  1
  O  O3  1  0.28321000  0.27687600  0.79343900  1
  O  O4  1  0.71679000  0.72312400  0.20656100  1
  O  O5  1  0.69405500  0.26230700  0.18440700  1
  O  O6  1  0.28864300  0.76739000  0.24731100  1
  O  O7  1  0.27363300  0.26744500  0.24119000  1
loop_
_geom_bond_atom_site_label_1
_geom_bond_atom_site_label_2
_geom_bond_distance
_geom_bond_site_symmetry_2
Mg0 O6 2.125198 1_545
Mg0 O1 2.125198 1_555
Mg0 O2 2.154911 1_545
Mg0 O5 2.154911 1_555
Mg0 O7 2.215764 1_555
Mg0 O0 2.215764 1_545
Co0 O4 1.872752 1_555
Co0 O3 1.872752 1_554
Co0 O0 1.930956 1_554
Co0 O7 1.930956 1_555
Co0 O5 1.935323 1_555
Co0 O2 1.935323 1_554
Co1 O1 1.900661 1_554
Co1 O6 1.900661 1_545
Co1 O2 1.962668 1_544
Co1 O5 1.962668 1_555
Co1 O3 2.217041 1_554
Co1 O4 2.217041 1_545
Co2 O5 2.042257 1_455
Co2 O2 2.042257 1_554
Co2 O6 2.252153 1_555
Co2 O1 2.252153 1_454
Co2 O0 2.261640 1_454
Co2 O7 2.261640 1_555
Bi0 O3 2.133878 1_555
Bi0 O4 2.133878 1_555
Bi0 O0 2.148577 1_555
Bi0 O7 2.148577 1_555
Bi0 O1 2.152544 1_555
Bi0 O6 2.152544 1_555
