# generated using pymatgen
data_K3NO3
_symmetry_space_group_name_H-M   'P 1'
_cell_length_a   7.14902818
_cell_length_b   7.14902846
_cell_length_c   7.23506101
_cell_angle_alpha   119.60741575
_cell_angle_beta   119.60741370
_cell_angle_gamma   90.00000245
_symmetry_Int_Tables_number   1
_chemical_formula_structural   K3NO3
_chemical_formula_sum   'K6 N2 O6'
_cell_volume   264.54226948
_cell_formula_units_Z   2
loop_
 _symmetry_equiv_pos_site_id
 _symmetry_equiv_pos_as_xyz
  1  'x, y, z'
loop_
 _atom_site_type_symbol
 _atom_site_label
 _atom_site_symmetry_multiplicity
 _atom_site_fract_x
 _atom_site_fract_y
 _atom_site_fract_z
 _atom_site_occupancy
  K  K0  1  0.70134845  0.20134845  0.02872062  1
  K  K1  1  0.82737218  0.70134845  0.02872062  1
  K  K2  1  0.20134845  0.32737218  0.02872062  1
  K  K3  1  0.32737218  0.82737218  0.02872062  1
  K  K4  1  0.75360065  0.75360065  0.50720130  1
  K  K5  1  0.25360065  0.25360065  0.50720130  1
  N  N0  1  0.28561066  0.78561066  0.57122232  1
  N  N1  1  0.78561066  0.28561066  0.57122232  1
  O  O0  1  0.82538153  0.11286131  0.43824184  1
  O  O1  1  0.61286131  0.32538153  0.43824184  1
  O  O2  1  0.49982522  0.49982522  0.99965044  1
  O  O3  1  0.99982522  0.99982522  0.99965044  1
  O  O4  1  0.32538153  0.82538153  0.43824184  1
  O  O5  1  0.11286131  0.61286131  0.43824184  1
loop_
_geom_bond_atom_site_label_1
_geom_bond_atom_site_label_2
_geom_bond_distance
_geom_bond_site_symmetry_2
K0 O3 2.610952 1_544
K0 O2 2.610952 1_554
K0 O5 2.977015 1_655
K0 N0 3.030124 1_544
K0 O1 3.036661 1_555
K0 O0 3.036661 1_555
K0 O4 3.163466 1_544
K1 O3 2.610952 1_554
K1 O2 2.610952 1_554
K1 O0 2.977012 1_565
K1 N1 3.030121 1_554
K1 O5 3.036662 1_655
K1 O4 3.036666 1_655
K1 O1 3.163467 1_554
K2 O2 2.610952 1_554
K2 O3 2.610952 1_444
K2 O1 2.977012 1_555
K2 N1 3.030121 1_454
K2 O5 3.036662 1_555
K2 O4 3.036666 1_555
K2 O0 3.163467 1_454
K3 O3 2.610952 1_454
K3 O2 2.610952 1_554
K3 O4 2.977008 1_555
K3 N0 3.030117 1_554
K3 O0 3.036667 1_565
K3 O1 3.036667 1_565
K3 O5 3.163468 1_554
K4 O3 2.548956 1_555
K4 O2 2.627124 1_554
K4 O1 2.937326 1_555
K4 O4 2.937327 1_555
K4 O5 2.937332 1_655
K4 O0 2.937334 1_565
K5 O2 2.548956 1_555
K5 O3 2.627124 1_444
K5 O0 2.937326 1_455
K5 O4 2.937328 1_545
K5 O5 2.937333 1_555
K5 O1 2.937334 1_555
N0 O5 1.275898 1_555
N0 O4 1.275915 1_555
N1 O0 1.275906 1_555
N1 O1 1.275907 1_555
