# generated using pymatgen
data_Na6Ta4Zn2Si6(SO12)3
_symmetry_space_group_name_H-M   'P 1'
_cell_length_a   9.01032706
_cell_length_b   9.01032675
_cell_length_c   22.42074539
_cell_angle_alpha   90.00000000
_cell_angle_beta   90.00000000
_cell_angle_gamma   120.00000115
_symmetry_Int_Tables_number   1
_chemical_formula_structural   Na6Ta4Zn2Si6(SO12)3
_chemical_formula_sum   'Na12 Ta8 Zn4 Si12 S6 O72'
_cell_volume   1576.38309679
_cell_formula_units_Z   2
loop_
 _symmetry_equiv_pos_site_id
 _symmetry_equiv_pos_as_xyz
  1  'x, y, z'
loop_
 _atom_site_type_symbol
 _atom_site_label
 _atom_site_symmetry_multiplicity
 _atom_site_fract_x
 _atom_site_fract_y
 _atom_site_fract_z
 _atom_site_occupancy
  Na  Na0  1  0.96755779  0.68008627  0.91578659  1
  Na  Na1  1  0.71252748  0.03244221  0.91578659  1
  Na  Na2  1  0.31991373  0.28747252  0.91578659  1
  Na  Na3  1  0.96755779  0.28747252  0.41578659  1
  Na  Na4  1  0.31991373  0.03244221  0.41578659  1
  Na  Na5  1  0.71252748  0.68008627  0.41578659  1
  Na  Na6  1  -0.00000000  0.00000000  0.49406564  1
  Na  Na7  1  -0.00000000  0.00000000  0.99406564  1
  Na  Na8  1  0.66666700  0.33333300  0.82309383  1
  Na  Na9  1  0.66666700  0.33333300  0.32309383  1
  Na  Na10  1  0.33333300  0.66666700  0.16142077  1
  Na  Na11  1  0.33333300  0.66666700  0.66142077  1
  Ta  Ta0  1  -0.00000000  0.00000000  0.64049177  1
  Ta  Ta1  1  -0.00000000  0.00000000  0.14049177  1
  Ta  Ta2  1  0.66666700  0.33333300  0.98299394  1
  Ta  Ta3  1  0.66666700  0.33333300  0.48299394  1
  Ta  Ta4  1  0.33333300  0.66666700  0.02242005  1
  Ta  Ta5  1  0.33333300  0.66666700  0.52242005  1
  Ta  Ta6  1  0.33333300  0.66666700  0.31306151  1
  Ta  Ta7  1  0.33333300  0.66666700  0.81306151  1
  Zn  Zn0  1  -0.00000000  0.00000000  0.35518669  1
  Zn  Zn1  1  -0.00000000  0.00000000  0.85518669  1
  Zn  Zn2  1  0.66666700  0.33333300  0.66936753  1
  Zn  Zn3  1  0.66666700  0.33333300  0.16936753  1
  Si  Si0  1  0.95790759  0.33828500  0.58697148  1
  Si  Si1  1  0.38037842  0.04209241  0.58697148  1
  Si  Si2  1  0.66171500  0.61962158  0.58697148  1
  Si  Si3  1  0.95790759  0.61962158  0.08697148  1
  Si  Si4  1  0.66171500  0.04209241  0.08697148  1
  Si  Si5  1  0.38037842  0.33828500  0.08697148  1
  Si  Si6  1  0.62194642  0.66257570  0.91606842  1
  Si  Si7  1  0.04062828  0.37805358  0.91606842  1
  Si  Si8  1  0.33742430  0.95937172  0.91606842  1
  Si  Si9  1  0.62194642  0.95937172  0.41606842  1
  Si  Si10  1  0.33742430  0.37805358  0.41606842  1
  Si  Si11  1  0.04062828  0.66257570  0.41606842  1
  S  S0  1  0.28946568  0.99667509  0.25237359  1
  S  S1  1  0.70720941  0.71053432  0.25237359  1
  S  S2  1  0.00332491  0.29279059  0.25237359  1
  S  S3  1  0.28946568  0.29279059  0.75237359  1
  S  S4  1  0.00332491  0.71053432  0.75237359  1
  S  S5  1  0.70720941  0.99667509  0.75237359  1
  O  O0  1  0.20817406  0.00498064  0.30837435  1
  O  O1  1  0.79680657  0.79182594  0.30837435  1
  O  O2  1  0.99501936  0.20319343  0.30837435  1
  O  O3  1  0.20817406  0.20319343  0.80837435  1
  O  O4  1  0.99501936  0.79182594  0.80837435  1
  O  O5  1  0.79680657  0.00498064  0.80837435  1
  O  O6  1  0.80160523  0.97947162  0.69978299  1
  O  O7  1  0.17786639  0.19839477  0.69978299  1
  O  O8  1  0.02052838  0.82213361  0.69978299  1
  O  O9  1  0.80160523  0.82213361  0.19978299  1
  O  O10  1  0.02052838  0.19839477  0.19978299  1
  O  O11  1  0.17786639  0.97947162  0.19978299  1
  O  O12  1  0.88698442  0.37597974  0.64561436  1
  O  O13  1  0.48899632  0.11301558  0.64561436  1
  O  O14  1  0.62402026  0.51100368  0.64561436  1
  O  O15  1  0.88698442  0.51100368  0.14561436  1
  O  O16  1  0.62402026  0.11301558  0.14561436  1
  O  O17  1  0.48899632  0.37597974  0.14561436  1
  O  O18  1  0.46714442  0.30247313  0.02621033  1
  O  O19  1  0.83532972  0.53285558  0.02621033  1
  O  O20  1  0.69752687  0.16467028  0.02621033  1
  O  O21  1  0.46714442  0.16467028  0.52621033  1
  O  O22  1  0.69752687  0.53285558  0.52621033  1
  O  O23  1  0.83532972  0.30247313  0.52621033  1
  O  O24  1  0.52470365  0.69146907  0.97156281  1
  O  O25  1  0.16676443  0.47529635  0.97156281  1
  O  O26  1  0.30853093  0.83323557  0.97156281  1
  O  O27  1  0.52470365  0.83323557  0.47156281  1
  O  O28  1  0.30853093  0.47529635  0.47156281  1
  O  O29  1  0.16676443  0.69146907  0.47156281  1
  O  O30  1  0.13682747  0.63143223  0.35648582  1
  O  O31  1  0.49460375  0.86317253  0.35648582  1
  O  O32  1  0.36856777  0.50539625  0.35648582  1
  O  O33  1  0.13682747  0.50539625  0.85648582  1
  O  O34  1  0.36856777  0.86317253  0.85648582  1
  O  O35  1  0.49460375  0.63143223  0.85648582  1
  O  O36  1  0.01653315  0.82704187  0.41130090  1
  O  O37  1  0.81050872  0.98346685  0.41130090  1
  O  O38  1  0.17295813  0.18949128  0.41130090  1
  O  O39  1  0.01653315  0.18949128  0.91130090  1
  O  O40  1  0.17295813  0.98346685  0.91130090  1
  O  O41  1  0.81050872  0.82704187  0.91130090  1
  O  O42  1  0.97466406  0.16048308  0.59369261  1
  O  O43  1  0.18581902  0.02533594  0.59369261  1
  O  O44  1  0.83951692  0.81418098  0.59369261  1
  O  O45  1  0.97466406  0.81418098  0.09369261  1
  O  O46  1  0.83951692  0.02533594  0.09369261  1
  O  O47  1  0.18581902  0.16048308  0.09369261  1
  O  O48  1  0.68236918  0.14359538  0.74824258  1
  O  O49  1  0.46122721  0.31763082  0.74824258  1
  O  O50  1  0.85640462  0.53877279  0.74824258  1
  O  O51  1  0.68236918  0.53877279  0.24824258  1
  O  O52  1  0.85640462  0.31763082  0.24824258  1
  O  O53  1  0.46122721  0.14359538  0.24824258  1
  O  O54  1  0.62883026  0.48435966  0.92155028  1
  O  O55  1  0.85553040  0.37116974  0.92155028  1
  O  O56  1  0.51564034  0.14446960  0.92155028  1
  O  O57  1  0.62883026  0.14446960  0.42155028  1
  O  O58  1  0.51564034  0.37116974  0.42155028  1
  O  O59  1  0.85553040  0.48435966  0.42155028  1
  O  O60  1  0.34362332  0.49471126  0.07320622  1
  O  O61  1  0.15108694  0.65637668  0.07320622  1
  O  O62  1  0.50528874  0.84891306  0.07320622  1
  O  O63  1  0.34362332  0.84891306  0.57320622  1
  O  O64  1  0.50528874  0.65637668  0.57320622  1
  O  O65  1  0.15108694  0.49471126  0.57320622  1
  O  O66  1  0.29767735  0.83001759  0.25207643  1
  O  O67  1  0.53233924  0.70232265  0.25207643  1
  O  O68  1  0.16998241  0.46766076  0.25207643  1
  O  O69  1  0.29767735  0.46766076  0.75207643  1
  O  O70  1  0.16998241  0.70232265  0.75207643  1
  O  O71  1  0.53233924  0.83001759  0.75207643  1
loop_
_geom_bond_atom_site_label_1
_geom_bond_atom_site_label_2
_geom_bond_distance
_geom_bond_site_symmetry_2
Na0 O41 2.374767 1_555
Na0 O40 2.418382 1_655
Na0 O55 2.444077 1_555
Na0 O4 2.574004 1_555
Na0 O54 2.656946 1_555
Na0 O19 2.779983 1_556
Na0 O26 2.944052 1_655
Na0 O33 2.995343 1_655
Na1 O39 2.374775 1_655
Na1 O41 2.418389 1_545
Na1 O56 2.444061 1_555
Na1 O5 2.574008 1_555
Na1 O55 2.656944 1_555
Na1 O20 2.779978 1_556
Na1 O24 2.944052 1_545
Na1 O34 2.995343 1_545
Na2 O40 2.374775 1_545
Na2 O39 2.418381 1_555
Na2 O54 2.444075 1_555
Na2 O3 2.574005 1_555
Na2 O56 2.656961 1_555
Na2 O18 2.779986 1_556
Na2 O25 2.944052 1_555
Na2 O35 2.995343 1_555
Na3 O37 2.374775 1_545
Na3 O38 2.418389 1_655
Na3 O59 2.444061 1_555
Na3 O2 2.574008 1_555
Na3 O57 2.656944 1_555
Na3 O23 2.779978 1_555
Na3 O28 2.944052 1_655
Na3 O30 2.995343 1_655
Na4 O38 2.374767 1_555
Na4 O36 2.418382 1_545
Na4 O57 2.444077 1_555
Na4 O0 2.574004 1_555
Na4 O58 2.656946 1_555
Na4 O21 2.779983 1_555
Na4 O29 2.944052 1_545
Na4 O31 2.995343 1_545
Na5 O36 2.374775 1_655
Na5 O37 2.418380 1_555
Na5 O58 2.444074 1_555
Na5 O1 2.574005 1_555
Na5 O59 2.656961 1_555
Na5 O22 2.779986 1_555
Na5 O27 2.944052 1_555
Na5 O32 2.995343 1_555
Na6 O38 2.475159 1_555
Na6 O36 2.475159 1_545
Na6 O37 2.475159 1_445
Na6 O44 2.731778 1_445
Na6 O42 2.731778 1_455
Na6 O43 2.731778 1_555
Na7 O39 2.475159 1_555
Na7 O41 2.475159 1_445
Na7 O40 2.475159 1_545
Na7 O45 2.731778 1_446
Na7 O47 2.731778 1_556
Na7 O46 2.731778 1_456
Na8 O50 2.449703 1_555
Na8 O49 2.449703 1_555
Na8 O48 2.449703 1_555
Na8 O56 2.702747 1_555
Na8 O54 2.702747 1_555
Na8 O55 2.702747 1_555
Na9 O51 2.449703 1_555
Na9 O53 2.449703 1_555
Na9 O52 2.449703 1_555
Na9 O57 2.702747 1_555
Na9 O59 2.702747 1_555
Na9 O58 2.702747 1_555
Na10 O62 2.542569 1_555
Na10 O60 2.542569 1_555
Na10 O61 2.542569 1_555
Na10 O68 2.621778 1_555
Na10 O66 2.621778 1_555
Na10 O67 2.621778 1_555
Na11 O63 2.542569 1_555
Na11 O65 2.542569 1_555
Na11 O64 2.542569 1_555
Na11 O69 2.621778 1_555
Na11 O71 2.621778 1_555
Na11 O70 2.621778 1_555
O0 S0 1.474244 1_545
O0 Zn0 2.130197 1_555
O1 S1 1.474244 1_555
O1 Zn0 2.130197 1_665
O2 S2 1.474244 1_655
O2 Zn0 2.130197 1_655
O3 S3 1.474244 1_555
O3 Zn1 2.130197 1_555
O4 S4 1.474244 1_655
O4 Zn1 2.130197 1_665
O5 S5 1.474244 1_545
O5 Zn1 2.130197 1_655
O6 S5 1.506522 1_555
O6 Ta0 2.160154 1_665
O7 S3 1.506522 1_555
O7 Ta0 2.160154 1_555
O8 S4 1.506522 1_555
O8 Ta0 2.160154 1_565
O9 S1 1.506522 1_555
O9 Ta1 2.160154 1_665
O10 S2 1.506522 1_555
O10 Ta1 2.160154 1_555
O11 S0 1.506522 1_555
O11 Ta1 2.160154 1_565
O12 Si0 1.571470 1_555
O12 Zn2 1.899795 1_555
O13 Si1 1.571470 1_555
O13 Zn2 1.899795 1_555
O14 Si2 1.571470 1_555
O14 Zn2 1.899795 1_555
O15 Si3 1.571470 1_555
O15 Zn3 1.899795 1_555
O16 Si4 1.571470 1_555
O16 Zn3 1.899795 1_555
O17 Si5 1.571470 1_555
O17 Zn3 1.899795 1_555
O18 Si5 1.680319 1_555
O18 Ta2 1.936037 1_554
O19 Si3 1.680319 1_555
O19 Ta2 1.936037 1_554
O20 Si4 1.680319 1_555
O20 Ta2 1.936037 1_554
O21 Si1 1.680319 1_555
O21 Ta3 1.936037 1_555
O22 Si2 1.680319 1_555
O22 Ta3 1.936037 1_555
O23 Si0 1.680319 1_555
O23 Ta3 1.936037 1_555
O24 Si6 1.616071 1_555
O24 Ta4 1.984449 1_556
O25 Si7 1.616071 1_555
O25 Ta4 1.984449 1_556
O26 Si8 1.616071 1_555
O26 Ta4 1.984449 1_556
O27 Si9 1.616071 1_555
O27 Ta5 1.984449 1_555
O28 Si10 1.616071 1_555
O28 Ta5 1.984449 1_555
O29 Si11 1.616072 1_555
O29 Ta5 1.984449 1_555
O30 Si11 1.690528 1_555
O30 Ta6 1.903032 1_555
O31 Si9 1.690528 1_555
O31 Ta6 1.903032 1_555
O32 Si10 1.690528 1_555
O32 Ta6 1.903032 1_555
O33 Si7 1.690528 1_555
O33 Ta7 1.903032 1_555
O34 Si8 1.690528 1_555
O34 Ta7 1.903032 1_555
O35 Si6 1.690528 1_555
O35 Ta7 1.903032 1_555
O36 Si11 1.605085 1_555
O36 Zn0 2.065395 1_565
O37 Si9 1.605094 1_555
O37 Zn0 2.065395 1_665
O38 Si10 1.605090 1_555
O38 Zn0 2.065395 1_555
O39 Si7 1.605094 1_555
O39 Zn1 2.065395 1_555
O40 Si8 1.605085 1_555
O40 Zn1 2.065395 1_565
O41 Si6 1.605090 1_555
O41 Zn1 2.065395 1_665
O42 Si0 1.689366 1_555
O42 Ta0 1.890534 1_655
O43 Si1 1.689375 1_555
O43 Ta0 1.890534 1_555
O44 Si2 1.689372 1_555
O44 Ta0 1.890534 1_665
O45 Si3 1.689375 1_555
O45 Ta1 1.890534 1_665
O46 Si4 1.689366 1_555
O46 Ta1 1.890534 1_655
O47 Si5 1.689372 1_555
O47 Ta1 1.890534 1_555
O48 S5 1.451692 1_545
O48 Zn2 2.512367 1_555
O49 S3 1.451701 1_555
O49 Zn2 2.512367 1_555
O50 S4 1.451698 1_655
O50 Zn2 2.512367 1_555
O51 S1 1.451701 1_555
O51 Zn3 2.512367 1_555
O52 S2 1.451692 1_655
O52 Zn3 2.512367 1_555
O53 S0 1.451698 1_545
O53 Zn3 2.512367 1_555
O54 Si6 1.642284 1_555
O54 Ta2 2.080804 1_555
O55 Si7 1.642266 1_655
O55 Ta2 2.080804 1_555
O56 Si8 1.642275 1_545
O56 Ta2 2.080804 1_555
O57 Si9 1.642266 1_545
O57 Ta3 2.080804 1_555
O58 Si10 1.642284 1_555
O58 Ta3 2.080804 1_555
O59 Si11 1.642275 1_655
O59 Ta3 2.080804 1_555
O60 Si5 1.630417 1_555
O60 Ta4 1.961984 1_555
O61 Si3 1.630399 1_455
O61 Ta4 1.961984 1_555
O62 Si4 1.630405 1_565
O62 Ta4 1.961984 1_555
O63 Si1 1.630399 1_565
O63 Ta5 1.961984 1_555
O64 Si2 1.630417 1_555
O64 Ta5 1.961984 1_555
O65 Si0 1.630405 1_455
O65 Ta5 1.961984 1_555
O66 S0 1.539982 1_555
O66 Ta6 2.147553 1_555
O67 S1 1.539991 1_555
O67 Ta6 2.147553 1_555
O68 S2 1.539986 1_555
O68 Ta6 2.147553 1_555
O69 S3 1.539991 1_555
O69 Ta7 2.147553 1_555
O70 S4 1.539982 1_555
O70 Ta7 2.147553 1_555
O71 S5 1.539986 1_555
O71 Ta7 2.147553 1_555
