# generated using pymatgen
data_CaB2H10O9
_symmetry_space_group_name_H-M   'P 1'
_cell_length_a   6.52898500
_cell_length_b   7.82636906
_cell_length_c   8.13254283
_cell_angle_alpha   69.07153804
_cell_angle_beta   68.43495537
_cell_angle_gamma   73.78843746
_symmetry_Int_Tables_number   1
_chemical_formula_structural   CaB2H10O9
_chemical_formula_sum   'Ca2 B4 H20 O18'
_cell_volume   355.70312240
_cell_formula_units_Z   2
loop_
 _symmetry_equiv_pos_site_id
 _symmetry_equiv_pos_as_xyz
  1  'x, y, z'
loop_
 _atom_site_type_symbol
 _atom_site_label
 _atom_site_symmetry_multiplicity
 _atom_site_fract_x
 _atom_site_fract_y
 _atom_site_fract_z
 _atom_site_occupancy
  Ca  Ca0  1  0.59538400  0.00256900  0.23598700  1
  Ca  Ca1  1  0.40461600  0.99743100  0.76401300  1
  B  B0  1  0.84980200  0.99748800  0.79256400  1
  B  B1  1  0.15019800  0.00251200  0.20743600  1
  B  B2  1  0.62434200  0.32073400  0.84186100  1
  B  B3  1  0.37565800  0.67926600  0.15813900  1
  H  H0  1  0.19491600  0.56945200  0.52262100  1
  H  H1  1  0.76225600  0.49146500  0.27423600  1
  H  H2  1  0.23774400  0.50853500  0.72576400  1
  H  H3  1  0.80508400  0.43054800  0.47737900  1
  H  H4  1  0.12181900  0.51956600  0.30737500  1
  H  H5  1  0.70976000  0.69466100  0.04890600  1
  H  H6  1  0.10199400  0.07534400  0.55731400  1
  H  H7  1  0.89800600  0.92465600  0.44268600  1
  H  H8  1  0.99305700  0.17763500  0.00731900  1
  H  H9  1  0.00694300  0.82236500  0.99268100  1
  H  H10  1  0.91077800  0.76863300  0.70025200  1
  H  H11  1  0.87818100  0.48043400  0.69262500  1
  H  H12  1  0.32399600  0.59947100  0.96001700  1
  H  H13  1  0.67600400  0.40052900  0.03998300  1
  H  H14  1  0.35131900  0.74723400  0.57754000  1
  H  H15  1  0.64868100  0.25276600  0.42246000  1
  H  H16  1  0.59067700  0.67355000  0.60419400  1
  H  H17  1  0.40932300  0.32645000  0.39580600  1
  H  H18  1  0.29024000  0.30533900  0.95109400  1
  H  H19  1  0.08922200  0.23136700  0.29974800  1
  O  O0  1  0.19750600  0.11402900  0.30237600  1
  O  O1  1  0.13961500  0.59219500  0.64755800  1
  O  O2  1  0.06826500  0.05843800  0.69044900  1
  O  O3  1  0.93173500  0.94156200  0.30955100  1
  O  O4  1  0.14585300  0.11886900  0.01592900  1
  O  O5  1  0.85414700  0.88113100  0.98407100  1
  O  O6  1  0.50986200  0.20921500  0.44357500  1
  O  O7  1  0.80249400  0.88597100  0.69762400  1
  O  O8  1  0.34674600  0.85488700  0.19434300  1
  O  O9  1  0.65325400  0.14511300  0.80565700  1
  O  O10  1  0.86038500  0.40780500  0.35244200  1
  O  O11  1  0.70547700  0.28514000  0.00298000  1
  O  O12  1  0.25965000  0.53421400  0.32001700  1
  O  O13  1  0.74035000  0.46578600  0.67998300  1
  O  O14  1  0.38203000  0.40541200  0.87929800  1
  O  O15  1  0.61797000  0.59458800  0.12070200  1
  O  O16  1  0.49013800  0.79078500  0.55642500  1
  O  O17  1  0.29452300  0.71486000  0.99702000  1
loop_
_geom_bond_atom_site_label_1
_geom_bond_atom_site_label_2
_geom_bond_distance
_geom_bond_site_symmetry_2
Ca0 O3 2.363197 1_545
Ca0 O8 2.411918 1_545
Ca0 O0 2.416782 1_555
Ca0 O11 2.427077 1_555
Ca0 O5 2.429998 1_544
Ca0 O16 2.498876 1_545
Ca0 O6 2.555553 1_555
Ca1 O2 2.363197 1_565
Ca1 O9 2.411918 1_565
Ca1 O7 2.416782 1_555
Ca1 O17 2.427077 1_555
Ca1 O4 2.429998 1_566
Ca1 O6 2.498876 1_565
Ca1 O16 2.555553 1_555
B0 O9 1.467157 1_565
B0 O2 1.475738 1_665
B0 O7 1.503506 1_555
B0 O5 1.503507 1_555
B1 O8 1.467157 1_545
B1 O3 1.475738 1_445
B1 O0 1.503506 1_555
B1 O4 1.503507 1_555
B2 O9 1.454265 1_555
B2 O14 1.496468 1_555
B2 O11 1.497399 1_556
B2 O13 1.508301 1_555
B3 O8 1.454265 1_555
B3 O15 1.496468 1_555
B3 O17 1.497399 1_554
B3 O12 1.508301 1_555
H0 O1 1.008985 1_555
H0 O12 1.648386 1_555
H1 O10 1.005736 1_555
H2 O1 1.005736 1_555
H3 O10 1.008985 1_555
H3 O13 1.648386 1_555
H4 O12 0.983648 1_555
H5 O15 0.995814 1_555
H6 O2 0.988406 1_555
H7 O3 0.988406 1_555
H8 O4 0.991865 1_655
H9 O5 0.991865 1_455
H10 O7 0.989031 1_555
H11 O13 0.983648 1_555
H12 O17 0.998840 1_555
H13 O11 0.998840 1_555
H14 O16 0.991664 1_555
H15 O6 0.991664 1_555
H16 O16 1.010037 1_555
H16 O13 1.678802 1_555
H17 O6 1.010037 1_555
H17 O12 1.678802 1_555
H18 O14 0.995814 1_555
H19 O0 0.989031 1_555
