# generated using pymatgen
data_Na3Y2Al2P3(SO8)3
_symmetry_space_group_name_H-M   'P 1'
_cell_length_a   8.80237373
_cell_length_b   8.79324147
_cell_length_c   22.83833674
_cell_angle_alpha   88.72605634
_cell_angle_beta   91.13399199
_cell_angle_gamma   119.98755676
_symmetry_Int_Tables_number   1
_chemical_formula_structural   Na3Y2Al2P3(SO8)3
_chemical_formula_sum   'Na9 Y6 Al6 P9 S9 O72'
_cell_volume   1530.62631227
_cell_formula_units_Z   3
loop_
 _symmetry_equiv_pos_site_id
 _symmetry_equiv_pos_as_xyz
  1  'x, y, z'
loop_
 _atom_site_type_symbol
 _atom_site_label
 _atom_site_symmetry_multiplicity
 _atom_site_fract_x
 _atom_site_fract_y
 _atom_site_fract_z
 _atom_site_occupancy
  Na  Na0  1  0.36609133  0.36566093  0.25202560  1
  Na  Na1  1  0.68022427  0.00804612  0.92193947  1
  Na  Na2  1  0.97813141  0.30897706  0.41459118  1
  Na  Na3  1  0.00983041  0.99125060  0.48990606  1
  Na  Na4  1  0.00927602  0.98502944  0.00789813  1
  Na  Na5  1  0.65317869  0.33871530  0.83893362  1
  Na  Na6  1  0.66610938  0.33331701  0.33172914  1
  Na  Na7  1  0.33663669  0.70176291  0.17445765  1
  Na  Na8  1  0.33057828  0.66754237  0.66540075  1
  Y  Y0  1  0.00288980  0.99359347  0.85536166  1
  Y  Y1  1  0.99085176  0.01064344  0.64072394  1
  Y  Y2  1  0.67223903  0.32487741  0.68460793  1
  Y  Y3  1  0.33782852  0.67083560  0.03032785  1
  Y  Y4  1  0.32155797  0.66377927  0.50804265  1
  Y  Y5  1  0.34967689  0.67804298  0.82271878  1
  Al  Al0  1  0.01814805  0.00774190  0.34252813  1
  Al  Al1  1  0.00407885  0.01176494  0.15431321  1
  Al  Al2  1  0.66922177  0.30671285  0.18841300  1
  Al  Al3  1  0.66690977  0.32771146  0.99139771  1
  Al  Al4  1  0.66892212  0.35244333  0.47428742  1
  Al  Al5  1  0.30062304  0.65585027  0.31572724  1
  P  P0  1  0.28639901  0.99412187  0.24821069  1
  P  P1  1  -0.00005344  0.28889449  0.25089444  1
  P  P2  1  0.69138075  0.99314429  0.75364119  1
  P  P3  1  0.94997804  0.33198061  0.57044824  1
  P  P4  1  0.69372629  0.05876912  0.09020687  1
  P  P5  1  0.63305870  0.64608734  0.92613361  1
  P  P6  1  0.34950581  0.98689394  0.92604907  1
  P  P7  1  0.33317840  0.36549607  0.40760287  1
  P  P8  1  0.02431218  0.67300353  0.40890054  1
  S  S0  1  0.71521392  0.71850715  0.24773004  1
  S  S1  1  0.30149568  0.30801547  0.74889234  1
  S  S2  1  0.00552178  0.70005039  0.74871473  1
  S  S3  1  0.37946643  0.04964491  0.57295258  1
  S  S4  1  0.66902801  0.62380143  0.57444330  1
  S  S5  1  0.93207545  0.61463703  0.09251864  1
  S  S6  1  0.37937901  0.30997680  0.09232463  1
  S  S7  1  0.02095661  0.36959990  0.92336442  1
  S  S8  1  0.63343201  0.96441843  0.40840528  1
  O  O0  1  0.20980287  0.04453352  0.29977442  1
  O  O1  1  0.82641497  0.80706217  0.29938897  1
  O  O2  1  0.97072249  0.17389335  0.30642887  1
  O  O3  1  0.21318807  0.20652777  0.80186499  1
  O  O4  1  0.00990322  0.79432742  0.80191043  1
  O  O5  1  0.77540522  0.98689502  0.81293388  1
  O  O6  1  0.80207512  0.00030765  0.70089566  1
  O  O7  1  0.20996296  0.21451649  0.69486327  1
  O  O8  1  0.01088102  0.79747175  0.69478918  1
  O  O9  1  0.79841278  0.82442523  0.19392591  1
  O  O10  1  0.04425116  0.20671514  0.19904251  1
  O  O11  1  0.16634018  0.96143699  0.19389395  1
  O  O12  1  0.86283794  0.33185356  0.62792883  1
  O  O13  1  0.45943857  0.12721928  0.62991944  1
  O  O14  1  0.65912335  0.53503034  0.63049401  1
  O  O15  1  0.84223682  0.51165689  0.14574412  1
  O  O16  1  0.66623868  0.14914907  0.14204312  1
  O  O17  1  0.48607598  0.33336849  0.14639960  1
  O  O18  1  0.46555431  0.29478125  0.03945786  1
  O  O19  1  0.83260873  0.52636945  0.03832604  1
  O  O20  1  0.70984799  0.16286424  0.03224722  1
  O  O21  1  0.48304129  0.15894149  0.52246690  1
  O  O22  1  0.66464368  0.52032481  0.52334238  1
  O  O23  1  0.84558273  0.33725054  0.51524523  1
  O  O24  1  0.53527832  0.68537395  0.97303786  1
  O  O25  1  0.13462779  0.45275513  0.97387207  1
  O  O26  1  0.31167562  0.85876637  0.97720639  1
  O  O27  1  0.57098098  0.86923283  0.46464119  1
  O  O28  1  0.27934448  0.43310478  0.46064391  1
  O  O29  1  0.13157980  0.72112662  0.46595908  1
  O  O30  1  0.11979236  0.62266671  0.36215893  1
  O  O31  1  0.50927620  0.86740298  0.35980197  1
  O  O32  1  0.36338811  0.49172614  0.35382335  1
  O  O33  1  0.09669755  0.46525339  0.86764079  1
  O  O34  1  0.38090530  0.91025425  0.86946947  1
  O  O35  1  0.53388978  0.61383111  0.86674323  1
  O  O36  1  0.00171942  0.82945599  0.39169490  1
  O  O37  1  0.81226736  0.98986717  0.39971253  1
  O  O38  1  0.17073983  0.17999658  0.39731711  1
  O  O39  1  0.98908630  0.18705898  0.91981898  1
  O  O40  1  0.19970695  0.02650096  0.92109587  1
  O  O41  1  0.81575634  0.81503191  0.92231127  1
  O  O42  1  0.96194316  0.16241505  0.56748882  1
  O  O43  1  0.20201823  0.03069806  0.57051050  1
  O  O44  1  0.83666300  0.79360925  0.57212592  1
  O  O45  1  0.95036111  0.79135626  0.09374647  1
  O  O46  1  0.86288916  0.04529541  0.09814527  1
  O  O47  1  0.20366400  0.14816624  0.09639279  1
  O  O48  1  0.67173852  0.15747921  0.75540161  1
  O  O49  1  0.48180722  0.33608818  0.74995893  1
  O  O50  1  0.84082345  0.52878850  0.75151371  1
  O  O51  1  0.69018602  0.53647980  0.24502950  1
  O  O52  1  0.83667770  0.31029816  0.24162011  1
  O  O53  1  0.47574780  0.15936779  0.23983834  1
  O  O54  1  0.65310232  0.48697375  0.94098476  1
  O  O55  1  0.84798984  0.35780448  0.93017846  1
  O  O56  1  0.52491381  0.15895719  0.93646194  1
  O  O57  1  0.65277307  0.14391739  0.41274722  1
  O  O58  1  0.49933968  0.35126205  0.42042389  1
  O  O59  1  0.84218707  0.50179778  0.41766620  1
  O  O60  1  0.35466510  0.46411465  0.08866644  1
  O  O61  1  0.10926863  0.63144132  0.09105056  1
  O  O62  1  0.53080544  0.87248954  0.08828817  1
  O  O63  1  0.36655160  0.87590954  0.57268162  1
  O  O64  1  0.51919993  0.65426793  0.57215273  1
  O  O65  1  0.13558874  0.49370647  0.57336437  1
  O  O66  1  0.30213691  0.82803126  0.26214512  1
  O  O67  1  0.53627423  0.69670372  0.25252638  1
  O  O68  1  0.16704988  0.47605984  0.25973874  1
  O  O69  1  0.30659651  0.47757214  0.74874203  1
  O  O70  1  0.15686903  0.67202173  0.74929715  1
  O  O71  1  0.50977355  0.82789211  0.74740597  1
loop_
_geom_bond_atom_site_label_1
_geom_bond_atom_site_label_2
_geom_bond_distance
_geom_bond_site_symmetry_2
Na0 O68 2.400634 1_555
Na0 O53 2.466384 1_555
Na0 O51 2.478729 1_555
Na0 O67 2.521817 1_555
Na0 O32 2.603394 1_555
Na0 O0 2.663569 1_555
Na0 O10 2.724850 1_555
Na0 O17 2.728822 1_555
Na1 O56 2.364501 1_555
Na1 O39 2.365474 1_555
Na1 O41 2.515328 1_545
Na1 O34 2.602548 1_545
Na1 O55 2.673881 1_555
Na1 O5 2.681992 1_545
Na1 O24 2.707988 1_545
Na1 O20 2.835405 1_556
Na2 O37 2.459326 1_545
Na2 O57 2.480567 1_555
Na2 O38 2.506966 1_655
Na2 O59 2.519607 1_555
Na2 O28 2.524921 1_655
Na2 O30 2.659191 1_655
Na2 O23 2.670015 1_555
Na2 O2 2.750265 1_555
Na3 O43 2.385278 1_565
Na3 O44 2.487947 1_455
Na3 O42 2.522856 1_465
Na3 O38 2.616252 1_565
Na3 O36 2.663484 1_555
Na3 O37 2.665633 1_455
Na4 O45 2.454021 1_455
Na4 O40 2.522123 1_564
Na4 O41 2.531728 1_454
Na4 O47 2.570743 1_565
Na4 O46 2.650582 1_465
Na4 O39 2.715975 1_464
Na5 O49 2.500224 1_555
Na5 O48 2.571700 1_555
Na5 O50 2.594283 1_555
Na5 O56 2.625544 1_555
Na5 O55 2.626339 1_555
Na5 O54 2.695861 1_555
Na6 O57 2.426371 1_555
Na6 O59 2.482465 1_555
Na6 O51 2.576414 1_555
Na6 O58 2.578083 1_555
Na6 O52 2.641006 1_555
Na6 O53 2.644450 1_555
Na7 O66 2.407395 1_555
Na7 O67 2.493908 1_555
Na7 O62 2.546506 1_555
Na7 O61 2.584729 1_555
Na7 O68 2.634836 1_555
Na7 O60 2.959198 1_555
Na8 O71 2.400207 1_555
Na8 O69 2.445373 1_555
Na8 O70 2.488040 1_555
Na8 O65 2.660481 1_555
Na8 O63 2.686149 1_555
Na8 O64 2.765925 1_555
Al0 O0 1.846530 1_555
Al0 O36 1.855003 1_545
Al0 O2 1.879104 1_455
Al0 O38 1.910006 1_555
Al0 O1 1.991825 1_445
Al0 O37 2.194165 1_445
Al1 O46 1.887696 1_455
Al1 O10 1.888079 1_555
Al1 O11 1.901562 1_545
Al1 O9 1.956259 1_445
Al1 O47 2.046926 1_555
Al1 O45 2.251764 1_445
Al2 O16 1.752018 1_555
Al2 O52 1.880072 1_555
Al2 O15 1.937468 1_555
Al2 O53 1.940153 1_555
Al2 O17 1.970032 1_555
Al2 O51 2.349893 1_555
Al3 O54 1.842414 1_555
Al3 O56 1.872169 1_555
Al3 O20 1.894192 1_556
Al3 O19 1.949868 1_556
Al3 O18 1.994960 1_556
Al3 O55 2.053192 1_555
Al4 O23 1.858897 1_555
Al4 O22 1.888540 1_555
Al4 O58 1.911546 1_555
Al4 O59 1.929600 1_555
Al4 O21 1.997014 1_555
Al4 O57 2.281197 1_555
Al5 O30 1.825388 1_555
Al5 O66 1.920433 1_555
Al5 O68 1.920701 1_555
Al5 O32 1.966514 1_555
Al5 O31 2.107545 1_555
Al5 O67 2.421924 1_555
O0 P0 1.546381 1_545
O1 S0 1.479739 1_555
O2 P1 1.547009 1_655
O3 S1 1.469707 1_555
O3 Y0 2.224478 1_545
O4 S2 1.475020 1_555
O4 Y0 2.184129 1_555
O5 P2 1.543191 1_555
O5 Y0 2.181709 1_655
O6 P2 1.544737 1_545
O6 Y1 2.142849 1_555
O7 S1 1.480301 1_555
O7 Y1 2.238385 1_455
O8 S2 1.472355 1_555
O8 Y1 2.299603 1_465
O9 S0 1.488831 1_555
O10 P1 1.553920 1_555
O11 P0 1.548751 1_555
O12 P3 1.533175 1_555
O12 Y2 2.115109 1_555
O13 S3 1.475373 1_555
O13 Y2 2.199778 1_555
O14 S4 1.465449 1_555
O14 Y2 2.249800 1_555
O15 S5 1.481979 1_555
O16 P4 1.528739 1_555
O17 S6 1.490583 1_555
O18 S6 1.481816 1_555
O19 S5 1.490416 1_555
O20 P4 1.560088 1_555
O21 S3 1.483491 1_555
O22 S4 1.483833 1_555
O23 P3 1.558898 1_555
O24 P5 1.535518 1_555
O24 Y3 2.146970 1_556
O25 S7 1.458379 1_555
O25 Y3 2.264729 1_556
O26 P6 1.525489 1_555
O26 Y3 2.129734 1_556
O27 S8 1.473929 1_555
O27 Y4 2.260131 1_555
O28 P7 1.543290 1_555
O28 Y4 2.180023 1_555
O29 P8 1.531385 1_555
O29 Y4 2.175378 1_555
O30 P8 1.571693 1_555
O31 S8 1.488752 1_555
O32 P7 1.571168 1_555
O33 S7 1.482221 1_555
O33 Y5 2.313514 1_555
O34 P6 1.561838 1_555
O34 Y5 2.215655 1_555
O35 P5 1.550788 1_555
O35 Y5 2.187341 1_555
O36 P8 1.527394 1_555
O37 S8 1.491905 1_555
O38 P7 1.559681 1_555
O39 S7 1.488772 1_655
O39 Y0 2.323992 1_645
O40 P6 1.524520 1_545
O40 Y0 2.180407 1_545
O41 P5 1.553189 1_555
O41 Y0 2.219032 1_655
O42 P3 1.549379 1_555
O42 Y1 2.206053 1_555
O43 S3 1.485744 1_555
O43 Y1 2.415626 1_455
O44 S4 1.485531 1_555
O44 Y1 2.323403 1_565
O45 S5 1.480926 1_555
O46 P4 1.558474 1_555
O47 S6 1.491755 1_555
O48 P2 1.540211 1_545
O48 Y2 2.160735 1_555
O49 S1 1.479097 1_555
O49 Y2 2.306050 1_555
O50 S2 1.480095 1_655
O50 Y2 2.263674 1_555
O51 S0 1.505209 1_555
O52 P1 1.549921 1_655
O53 P0 1.582785 1_545
O54 P5 1.525452 1_555
O55 S7 1.484534 1_655
O56 P6 1.547880 1_545
O57 S8 1.505912 1_545
O58 P7 1.550825 1_555
O59 P8 1.569481 1_655
O60 S6 1.476590 1_555
O60 Y3 2.292407 1_555
O61 S5 1.492365 1_455
O61 Y3 2.341637 1_555
O62 P4 1.547297 1_565
O62 Y3 2.187768 1_555
O63 S3 1.474316 1_565
O63 Y4 2.275164 1_555
O64 S4 1.470946 1_555
O64 Y4 2.283984 1_555
O65 P3 1.540610 1_455
O65 Y4 2.166115 1_555
O66 P0 1.559900 1_555
O67 S0 1.494559 1_555
O68 P1 1.579911 1_555
O69 S1 1.468955 1_555
O69 Y5 2.354678 1_555
O70 S2 1.470744 1_555
O70 Y5 2.344443 1_555
O71 P2 1.537985 1_555
O71 Y5 2.195359 1_555
