# generated using pymatgen
data_Lu6MgWO12
_symmetry_space_group_name_H-M   'P 1'
_cell_length_a   6.44275375
_cell_length_b   6.44275388
_cell_length_c   6.44275426
_cell_angle_alpha   92.93429158
_cell_angle_beta   92.93429845
_cell_angle_gamma   92.93429268
_symmetry_Int_Tables_number   1
_chemical_formula_structural   Lu6MgWO12
_chemical_formula_sum   'Lu6 Mg1 W1 O12'
_cell_volume   266.34348058
_cell_formula_units_Z   1
loop_
 _symmetry_equiv_pos_site_id
 _symmetry_equiv_pos_as_xyz
  1  'x, y, z'
loop_
 _atom_site_type_symbol
 _atom_site_label
 _atom_site_symmetry_multiplicity
 _atom_site_fract_x
 _atom_site_fract_y
 _atom_site_fract_z
 _atom_site_occupancy
  Lu  Lu0  1  0.07868581  0.26429091  0.56266185  1
  Lu  Lu1  1  0.43733815  0.92131419  0.73570909  1
  Lu  Lu2  1  0.26429091  0.56266185  0.07868581  1
  Lu  Lu3  1  0.73570909  0.43733815  0.92131419  1
  Lu  Lu4  1  0.56266185  0.07868581  0.26429091  1
  Lu  Lu5  1  0.92131419  0.73570909  0.43733815  1
  Mg  Mg0  1  0.50000000  0.50000000  0.50000000  1
  W  W0  1  -0.00000000  0.00000000  -0.00000000  1
  O  O0  1  0.08057236  0.92917663  0.69333405  1
  O  O1  1  0.07082337  0.30666595  0.91942764  1
  O  O2  1  0.18872099  0.53939052  0.40531523  1
  O  O3  1  0.30666595  0.91942764  0.07082337  1
  O  O4  1  0.46060948  0.59468477  0.81127901  1
  O  O5  1  0.40531523  0.18872099  0.53939052  1
  O  O6  1  0.59468477  0.81127901  0.46060948  1
  O  O7  1  0.53939052  0.40531523  0.18872099  1
  O  O8  1  0.69333405  0.08057236  0.92917663  1
  O  O9  1  0.81127901  0.46060948  0.59468477  1
  O  O10  1  0.92917663  0.69333405  0.08057236  1
  O  O11  1  0.91942764  0.07082337  0.30666595  1
loop_
_geom_bond_atom_site_label_1
_geom_bond_atom_site_label_2
_geom_bond_distance
_geom_bond_site_symmetry_2
Lu0 O2 2.191016 1_555
Lu0 O11 2.193638 1_455
Lu0 O5 2.194932 1_555
Lu0 O9 2.200751 1_455
Lu0 O1 2.304244 1_555
Lu0 O0 2.357583 1_545
Lu1 O6 2.191016 1_555
Lu1 O8 2.193638 1_565
Lu1 O4 2.194932 1_555
Lu1 O5 2.200751 1_565
Lu1 O0 2.304244 1_555
Lu1 O3 2.357583 1_556
Lu2 O7 2.191016 1_555
Lu2 O1 2.193638 1_554
Lu2 O2 2.194932 1_555
Lu2 O4 2.200751 1_554
Lu2 O3 2.304244 1_555
Lu2 O10 2.357583 1_455
Lu3 O4 2.191016 1_555
Lu3 O10 2.193638 1_556
Lu3 O9 2.194932 1_555
Lu3 O7 2.200751 1_556
Lu3 O8 2.304244 1_555
Lu3 O1 2.357583 1_655
Lu4 O5 2.191016 1_555
Lu4 O3 2.193638 1_545
Lu4 O7 2.194932 1_555
Lu4 O6 2.200751 1_545
Lu4 O11 2.304244 1_555
Lu4 O8 2.357583 1_554
Lu5 O9 2.191016 1_555
Lu5 O0 2.193638 1_655
Lu5 O6 2.194932 1_555
Lu5 O2 2.200751 1_655
Lu5 O10 2.304244 1_555
Lu5 O11 2.357583 1_565
Mg0 O2 2.097916 1_555
Mg0 O9 2.097916 1_555
Mg0 O6 2.097916 1_555
Mg0 O5 2.097916 1_555
Mg0 O4 2.097917 1_555
Mg0 O7 2.097917 1_555
O0 W0 2.101979 1_566
O1 W0 2.101979 1_556
O3 W0 2.101979 1_565
O8 W0 2.101979 1_656
O10 W0 2.101979 1_665
O11 W0 2.101979 1_655
