# generated using pymatgen
data_GdCrO4
_symmetry_space_group_name_H-M   'P 1'
_cell_length_a   5.98567858
_cell_length_b   5.98565825
_cell_length_c   5.98555523
_cell_angle_alpha   106.16209605
_cell_angle_beta   106.16227017
_cell_angle_gamma   116.31405121
_symmetry_Int_Tables_number   1
_chemical_formula_structural   GdCrO4
_chemical_formula_sum   'Gd2 Cr2 O8'
_cell_volume   163.29809858
_cell_formula_units_Z   2
loop_
 _symmetry_equiv_pos_site_id
 _symmetry_equiv_pos_as_xyz
  1  'x, y, z'
loop_
 _atom_site_type_symbol
 _atom_site_label
 _atom_site_symmetry_multiplicity
 _atom_site_fract_x
 _atom_site_fract_y
 _atom_site_fract_z
 _atom_site_occupancy
  Gd  Gd0  1  0.50000167  0.50000020  0.00000172  1
  Gd  Gd1  1  0.74999823  0.25000002  0.49999850  1
  Cr  Cr0  1  0.25000079  0.74999875  0.49999920  1
  Cr  Cr1  1  -0.00000085  -0.00000139  -0.00000216  1
  O  O0  1  0.82303177  0.00914914  0.17665681  1
  O  O1  1  0.89635406  0.57300273  0.31387631  1
  O  O2  1  0.25912874  0.58248221  0.68612502  1
  O  O3  1  0.83248383  0.64636613  0.82334478  1
  O  O4  1  0.35363076  0.16751292  0.17665531  1
  O  O5  1  0.41752503  0.74087500  0.31387596  1
  O  O6  1  0.42699159  0.10364041  0.68612354  1
  O  O7  1  0.99085438  0.17697288  0.82334501  1
loop_
_geom_bond_atom_site_label_1
_geom_bond_atom_site_label_2
_geom_bond_distance
_geom_bond_site_symmetry_2
Gd0 O5 2.343389 1_555
Gd0 O1 2.343390 1_555
Gd0 O6 2.343408 1_554
Gd0 O2 2.343413 1_554
Gd0 O3 2.446976 1_554
Gd0 O4 2.446982 1_555
Gd0 O7 2.447026 1_454
Gd0 O0 2.447031 1_565
Gd1 O4 2.343406 1_555
Gd1 O3 2.343411 1_555
Gd1 O0 2.343420 1_555
Gd1 O7 2.343425 1_555
Gd1 O1 2.446897 1_555
Gd1 O5 2.446903 1_545
Gd1 O6 2.446937 1_555
Gd1 O2 2.446938 1_655
Cr0 O2 1.698853 1_555
Cr0 O6 1.698860 1_565
Cr0 O5 1.698878 1_555
Cr0 O1 1.698883 1_455
Cr1 O7 1.698792 1_454
Cr1 O0 1.698797 1_455
Cr1 O3 1.698819 1_444
Cr1 O4 1.698823 1_555
