# generated using pymatgen
data_U2Si5Tc3
_symmetry_space_group_name_H-M   'P 1'
_cell_length_a   10.94031200
_cell_length_b   10.94031200
_cell_length_c   5.48139100
_cell_angle_alpha   90.00000000
_cell_angle_beta   90.00000000
_cell_angle_gamma   90.00000000
_symmetry_Int_Tables_number   1
_chemical_formula_structural   U2Si5Tc3
_chemical_formula_sum   'U8 Si20 Tc12'
_cell_volume   656.07002747
_cell_formula_units_Z   4
loop_
 _symmetry_equiv_pos_site_id
 _symmetry_equiv_pos_as_xyz
  1  'x, y, z'
loop_
 _atom_site_type_symbol
 _atom_site_label
 _atom_site_symmetry_multiplicity
 _atom_site_fract_x
 _atom_site_fract_y
 _atom_site_fract_z
 _atom_site_occupancy
  U  U0  1  0.23558200  0.07368800  0.50000000  1
  U  U1  1  0.76441800  0.92631200  0.50000000  1
  U  U2  1  0.92631200  0.23558200  0.50000000  1
  U  U3  1  0.07368800  0.76441800  0.50000000  1
  U  U4  1  0.57368800  0.73558200  0.00000000  1
  U  U5  1  0.73558200  0.42631200  0.00000000  1
  U  U6  1  0.26441800  0.57368800  0.00000000  1
  U  U7  1  0.42631200  0.26441800  0.00000000  1
  Si  Si0  1  0.50000000  0.50000000  0.76528600  1
  Si  Si1  1  0.00000000  0.00000000  0.73471400  1
  Si  Si2  1  0.50000000  0.50000000  0.23471400  1
  Si  Si3  1  0.00000000  0.00000000  0.26528600  1
  Si  Si4  1  0.67417700  0.17417700  0.75000000  1
  Si  Si5  1  0.17417700  0.32582300  0.75000000  1
  Si  Si6  1  0.82582300  0.67417700  0.75000000  1
  Si  Si7  1  0.32582300  0.82582300  0.75000000  1
  Si  Si8  1  0.32582300  0.82582300  0.25000000  1
  Si  Si9  1  0.82582300  0.67417700  0.25000000  1
  Si  Si10  1  0.17417700  0.32582300  0.25000000  1
  Si  Si11  1  0.67417700  0.17417700  0.25000000  1
  Si  Si12  1  0.47543400  0.18425000  0.50000000  1
  Si  Si13  1  0.52456600  0.81575000  0.50000000  1
  Si  Si14  1  0.81575000  0.47543400  0.50000000  1
  Si  Si15  1  0.31575000  0.02456600  0.00000000  1
  Si  Si16  1  0.68425000  0.97543400  0.00000000  1
  Si  Si17  1  0.97543400  0.31575000  0.00000000  1
  Si  Si18  1  0.02456600  0.68425000  0.00000000  1
  Si  Si19  1  0.18425000  0.52456600  0.50000000  1
  Tc  Tc0  1  0.14197500  0.87561100  0.00000000  1
  Tc  Tc1  1  0.50000000  0.00000000  0.75000000  1
  Tc  Tc2  1  0.00000000  0.50000000  0.25000000  1
  Tc  Tc3  1  0.50000000  0.00000000  0.25000000  1
  Tc  Tc4  1  0.35802500  0.37561100  0.50000000  1
  Tc  Tc5  1  0.64197500  0.62438900  0.50000000  1
  Tc  Tc6  1  0.62438900  0.35802500  0.50000000  1
  Tc  Tc7  1  0.37561100  0.64197500  0.50000000  1
  Tc  Tc8  1  0.87561100  0.85802500  0.00000000  1
  Tc  Tc9  1  0.85802500  0.12438900  0.00000000  1
  Tc  Tc10  1  0.12438900  0.14197500  0.00000000  1
  Tc  Tc11  1  0.00000000  0.50000000  0.75000000  1
loop_
_geom_bond_atom_site_label_1
_geom_bond_atom_site_label_2
_geom_bond_distance
_geom_bond_site_symmetry_2
Si0 Tc5 2.525673 1_555
Si0 Tc6 2.525673 1_555
Si0 Tc7 2.525673 1_555
Si0 Tc4 2.525673 1_555
Si0 Si2 2.573118 1_556
Si0 U4 2.991292 1_556
Si0 U6 2.991292 1_556
Si0 U5 2.991292 1_556
Si0 U7 2.991292 1_556
Si1 Tc10 2.525673 1_556
Si1 Tc0 2.525673 1_546
Si1 Tc9 2.525673 1_456
Si1 Tc8 2.525673 1_446
Si1 Si3 2.573118 1_555
Si1 U0 2.991292 1_555
Si1 U2 2.991292 1_455
Si1 U3 2.991292 1_545
Si1 U1 2.991292 1_445
Si2 Tc5 2.525673 1_555
Si2 Tc7 2.525673 1_555
Si2 Tc6 2.525673 1_555
Si2 Tc4 2.525673 1_555
Si2 U4 2.991292 1_555
Si2 U6 2.991292 1_555
Si2 U5 2.991292 1_555
Si2 U7 2.991292 1_555
Si3 Tc10 2.525673 1_555
Si3 Tc0 2.525673 1_545
Si3 Tc9 2.525673 1_455
Si3 Tc8 2.525673 1_445
Si3 U0 2.991292 1_555
Si3 U2 2.991292 1_455
Si3 U3 2.991292 1_545
Si3 U1 2.991292 1_445
Si4 Tc6 2.494012 1_555
Si4 Tc9 2.494012 1_556
Si4 Tc1 2.694856 1_555
Si4 U5 3.152479 1_556
Si4 U2 3.152479 1_555
Si4 U7 3.194679 1_556
Si4 U1 3.194679 1_545
Si5 Tc10 2.494012 1_556
Si5 Tc4 2.494012 1_555
Si5 Tc11 2.694856 1_555
Si5 U7 3.152479 1_556
Si5 U0 3.152479 1_555
Si5 U6 3.194679 1_556
Si5 U2 3.194679 1_455
Si6 Tc5 2.494012 1_555
Si6 Tc8 2.494012 1_556
Si6 Tc11 2.694856 1_655
Si6 Si9 2.740696 1_556
Si6 Si9 2.740696 1_555
Si6 U4 3.152479 1_556
Si6 U1 3.152479 1_555
Si6 U3 3.194679 1_655
Si6 U5 3.194679 1_556
Si7 Tc0 2.494012 1_556
Si7 Tc7 2.494012 1_555
Si7 Tc1 2.694856 1_565
Si7 Si8 2.740696 1_555
Si7 Si8 2.740696 1_556
Si7 U6 3.152479 1_556
Si7 U3 3.152479 1_555
Si7 U4 3.194679 1_556
Si7 U0 3.194679 1_565
Si8 Tc0 2.494012 1_555
Si8 Tc7 2.494012 1_555
Si8 Tc3 2.694856 1_565
Si8 U6 3.152479 1_555
Si8 U3 3.152479 1_555
Si8 U4 3.194679 1_555
Si8 U0 3.194679 1_565
Si9 Tc8 2.494012 1_555
Si9 Tc5 2.494012 1_555
Si9 Tc2 2.694856 1_655
Si9 U1 3.152479 1_555
Si9 U4 3.152479 1_555
Si9 U3 3.194679 1_655
Si9 U5 3.194679 1_555
Si10 Tc4 2.494012 1_555
Si10 Tc10 2.494012 1_555
Si10 Si19 2.572474 1_555
Si10 Si17 2.572474 1_455
Si10 Tc2 2.694856 1_555
Si10 Si5 2.740696 1_554
Si10 Si5 2.740696 1_555
Si10 U7 3.152479 1_555
Si10 U0 3.152479 1_555
Si10 U6 3.194679 1_555
Si10 U2 3.194679 1_455
Si11 Tc6 2.494012 1_555
Si11 Tc9 2.494012 1_555
Si11 Si12 2.572474 1_555
Si11 Si16 2.572474 1_545
Si11 Tc3 2.694856 1_555
Si11 Si4 2.740696 1_555
Si11 Si4 2.740696 1_554
Si11 U5 3.152479 1_555
Si11 U2 3.152479 1_555
Si11 U7 3.194679 1_555
Si11 U1 3.194679 1_545
Si12 Tc1 2.452212 1_555
Si12 Tc3 2.452212 1_555
Si12 Tc4 2.456189 1_555
Si12 Tc6 2.504002 1_555
Si12 Si4 2.572474 1_555
Si12 U0 2.889422 1_555
Si12 U7 2.927364 1_555
Si12 U7 2.927364 1_556
Si13 Tc1 2.452212 1_565
Si13 Tc3 2.452212 1_565
Si13 Tc5 2.456189 1_555
Si13 Tc7 2.504002 1_555
Si13 Si7 2.572474 1_555
Si13 Si8 2.572474 1_555
Si13 U1 2.889422 1_555
Si13 U4 2.927364 1_556
Si13 U4 2.927364 1_555
Si14 Tc11 2.452212 1_655
Si14 Tc2 2.452212 1_655
Si14 Tc6 2.456189 1_555
Si14 Tc5 2.504002 1_555
Si14 Si6 2.572474 1_555
Si14 Si9 2.572474 1_555
Si14 U2 2.889422 1_555
Si14 U5 2.927364 1_556
Si14 U5 2.927364 1_555
Si15 Tc1 2.452212 1_554
Si15 Tc3 2.452212 1_555
Si15 Tc10 2.456189 1_555
Si15 Tc0 2.504002 1_545
Si15 Si7 2.572474 1_544
Si15 Si8 2.572474 1_545
Si15 U7 2.889422 1_555
Si15 U0 2.927364 1_555
Si15 U0 2.927364 1_554
Si16 Tc1 2.452212 1_564
Si16 Tc3 2.452212 1_565
Si16 Tc8 2.456189 1_555
Si16 Tc9 2.504002 1_565
Si16 Si4 2.572474 1_564
Si16 U4 2.889422 1_555
Si16 U1 2.927364 1_555
Si16 U1 2.927364 1_554
Si17 Tc11 2.452212 1_654
Si17 Tc2 2.452212 1_655
Si17 Tc9 2.456189 1_555
Si17 Tc10 2.504002 1_655
Si17 Si5 2.572474 1_654
Si17 U5 2.889422 1_555
Si17 U2 2.927364 1_555
Si17 U2 2.927364 1_554
Si18 Tc11 2.452212 1_554
Si18 Tc2 2.452212 1_555
Si18 Tc0 2.456189 1_555
Si18 Tc8 2.504002 1_455
Si18 Si9 2.572474 1_455
Si18 Si6 2.572474 1_454
Si18 U6 2.889422 1_555
Si18 U3 2.927364 1_554
Si18 U3 2.927364 1_555
Si19 Tc11 2.452212 1_555
Si19 Tc2 2.452212 1_555
Si19 Tc7 2.456189 1_555
Si19 Tc4 2.504002 1_555
Si19 Si5 2.572474 1_555
Si19 U3 2.889422 1_555
Si19 U6 2.927364 1_556
Si19 U6 2.927364 1_555
Tc0 U3 3.090207 1_555
Tc0 U3 3.090207 1_554
Tc1 Tc3 2.740696 1_556
Tc1 Tc3 2.740696 1_555
Tc1 U1 3.300931 1_545
Tc1 U4 3.300931 1_546
Tc1 U7 3.300931 1_556
Tc1 U0 3.300931 1_555
Tc2 U3 3.300931 1_555
Tc2 U6 3.300931 1_555
Tc2 U5 3.300931 1_455
Tc2 U2 3.300931 1_455
Tc3 U1 3.300931 1_545
Tc3 U4 3.300931 1_545
Tc3 U7 3.300931 1_555
Tc3 U0 3.300931 1_555
Tc4 U7 3.090207 1_555
Tc4 U7 3.090207 1_556
Tc5 U4 3.090207 1_556
Tc5 U4 3.090207 1_555
Tc6 U5 3.090207 1_556
Tc6 U5 3.090207 1_555
Tc7 U6 3.090207 1_556
Tc7 U6 3.090207 1_555
Tc8 U1 3.090207 1_554
Tc8 U1 3.090207 1_555
Tc9 U2 3.090207 1_555
Tc9 U2 3.090207 1_554
Tc10 U0 3.090207 1_555
Tc10 U0 3.090207 1_554
Tc11 Tc2 2.740696 1_556
Tc11 Tc2 2.740696 1_555
Tc11 U3 3.300931 1_555
Tc11 U6 3.300931 1_556
Tc11 U5 3.300931 1_456
Tc11 U2 3.300931 1_455
