# generated using pymatgen
data_Na3YHfSi(PO6)2
_symmetry_space_group_name_H-M   'P 1'
_cell_length_a   9.25592158
_cell_length_b   9.25592124
_cell_length_c   22.70721161
_cell_angle_alpha   90.01647898
_cell_angle_beta   89.98352102
_cell_angle_gamma   119.77968365
_symmetry_Int_Tables_number   1
_chemical_formula_structural   Na3YHfSi(PO6)2
_chemical_formula_sum   'Na18 Y6 Hf6 Si6 P12 O72'
_cell_volume   1688.47103314
_cell_formula_units_Z   6
loop_
 _symmetry_equiv_pos_site_id
 _symmetry_equiv_pos_as_xyz
  1  'x, y, z'
loop_
 _atom_site_type_symbol
 _atom_site_label
 _atom_site_symmetry_multiplicity
 _atom_site_fract_x
 _atom_site_fract_y
 _atom_site_fract_z
 _atom_site_occupancy
  Na  Na0  1  0.00308160  0.98834254  0.49863672  1
  Na  Na1  1  0.01165746  0.99691840  0.99863672  1
  Na  Na2  1  0.66566906  0.31702339  0.83258554  1
  Na  Na3  1  0.68297661  0.33433094  0.33258554  1
  Na  Na4  1  0.35134733  0.67759329  0.16525179  1
  Na  Na5  1  0.32240671  0.64865267  0.66525179  1
  Na  Na6  1  0.35902040  0.35677041  0.24603844  1
  Na  Na7  1  0.99660544  0.63782001  0.24482274  1
  Na  Na8  1  0.64322959  0.64097960  0.74603844  1
  Na  Na9  1  0.36217999  0.00339456  0.74482274  1
  Na  Na10  1  0.04183627  0.70030323  0.57650841  1
  Na  Na11  1  0.64846349  0.96965614  0.58584965  1
  Na  Na12  1  0.29969677  0.95816373  0.07650841  1
  Na  Na13  1  0.03034386  0.35153651  0.08584965  1
  Na  Na14  1  0.98178833  0.68166041  0.91988941  1
  Na  Na15  1  0.68947412  0.02003178  0.90838572  1
  Na  Na16  1  0.97996822  0.31052588  0.40838572  1
  Na  Na17  1  0.31833959  0.01821167  0.41988941  1
  Y  Y0  1  0.98397560  0.99000411  0.35076596  1
  Y  Y1  1  0.00999589  0.01602440  0.85076596  1
  Y  Y2  1  0.66997762  0.32761967  0.68469225  1
  Y  Y3  1  0.67238033  0.33002238  0.18469225  1
  Y  Y4  1  0.33726199  0.66333745  0.01719257  1
  Y  Y5  1  0.33666255  0.66273801  0.51719257  1
  Hf  Hf0  1  0.00519431  0.00946135  0.64831777  1
  Hf  Hf1  1  0.99053865  0.99480569  0.14831777  1
  Hf  Hf2  1  0.66297754  0.33869437  0.98176364  1
  Hf  Hf3  1  0.66130563  0.33702246  0.48176364  1
  Hf  Hf4  1  0.33226207  0.66680582  0.31516295  1
  Hf  Hf5  1  0.33319418  0.66773793  0.81516295  1
  Si  Si0  1  0.00921484  0.30700683  0.25236721  1
  Si  Si1  1  0.69299317  0.99078516  0.75236721  1
  Si  Si2  1  0.36146170  0.03545849  0.58386579  1
  Si  Si3  1  0.96454151  0.63853830  0.08386579  1
  Si  Si4  1  0.34103981  0.97106217  0.91907090  1
  Si  Si5  1  0.02893783  0.65896019  0.41907090  1
  P  P0  1  0.28894622  0.99120589  0.25116434  1
  P  P1  1  0.69373066  0.70412685  0.24816398  1
  P  P2  1  0.29587315  0.30626934  0.74816398  1
  P  P3  1  0.00879411  0.71105378  0.75116434  1
  P  P4  1  0.95787692  0.32275182  0.58007998  1
  P  P5  1  0.67954268  0.63766572  0.58732521  1
  P  P6  1  0.67724818  0.04212308  0.08007998  1
  P  P7  1  0.36233428  0.32045732  0.08732521  1
  P  P8  1  0.62865885  0.65685741  0.91284675  1
  P  P9  1  0.02780369  0.37427594  0.91952047  1
  P  P10  1  0.62572406  0.97219631  0.41952047  1
  P  P11  1  0.34314259  0.37134115  0.41284675  1
  O  O0  1  0.20796194  0.00833788  0.30742313  1
  O  O1  1  0.80414816  0.77464031  0.30246026  1
  O  O2  1  0.99929958  0.21208386  0.31295012  1
  O  O3  1  0.22535969  0.19585184  0.80246026  1
  O  O4  1  0.99166212  0.79203806  0.80742313  1
  O  O5  1  0.78791614  0.00070042  0.81295012  1
  O  O6  1  0.80006061  0.97647801  0.69488906  1
  O  O7  1  0.18486473  0.20792504  0.69404411  1
  O  O8  1  0.03389172  0.83008326  0.69733665  1
  O  O9  1  0.79207496  0.81513527  0.19404411  1
  O  O10  1  0.02352199  0.19993939  0.19488906  1
  O  O11  1  0.16991674  0.96610828  0.19733665  1
  O  O12  1  0.87955303  0.35536246  0.63380259  1
  O  O13  1  0.46979049  0.11785649  0.64266227  1
  O  O14  1  0.66277578  0.54907637  0.64545037  1
  O  O15  1  0.88214351  0.53020951  0.14266227  1
  O  O16  1  0.64463754  0.12044697  0.13380259  1
  O  O17  1  0.45092363  0.33722422  0.14545037  1
  O  O18  1  0.46713959  0.30645773  0.03511115  1
  O  O19  1  0.84855712  0.53480986  0.02559916  1
  O  O20  1  0.69763481  0.15394919  0.02493735  1
  O  O21  1  0.46519014  0.15144288  0.52559916  1
  O  O22  1  0.69354227  0.53286041  0.53511115  1
  O  O23  1  0.84605081  0.30236519  0.52493735  1
  O  O24  1  0.54468363  0.68242056  0.96613348  1
  O  O25  1  0.11708613  0.44321150  0.97840278  1
  O  O26  1  0.32092512  0.86525688  0.97834602  1
  O  O27  1  0.55678850  0.88291387  0.47840278  1
  O  O28  1  0.31757944  0.45531637  0.46613348  1
  O  O29  1  0.13474312  0.67907488  0.47834602  1
  O  O30  1  0.13669848  0.63928119  0.36235832  1
  O  O31  1  0.51050086  0.86436512  0.36790239  1
  O  O32  1  0.36179014  0.47824024  0.35653069  1
  O  O33  1  0.13563488  0.48949914  0.86790239  1
  O  O34  1  0.36071881  0.86330152  0.86235832  1
  O  O35  1  0.52175976  0.63820986  0.85653069  1
  O  O36  1  0.01607346  0.82719063  0.41498596  1
  O  O37  1  0.80774099  0.01379516  0.41403427  1
  O  O38  1  0.19297293  0.19298998  0.40965651  1
  O  O39  1  0.98620484  0.19225901  0.91403427  1
  O  O40  1  0.17280937  0.98392654  0.91498596  1
  O  O41  1  0.80701002  0.80702707  0.90965651  1
  O  O42  1  0.95471052  0.15242955  0.58628724  1
  O  O43  1  0.17374145  0.01545950  0.58696526  1
  O  O44  1  0.84717717  0.80891691  0.58698601  1
  O  O45  1  0.98454050  0.82625855  0.08696526  1
  O  O46  1  0.84757045  0.04528948  0.08628724  1
  O  O47  1  0.19108309  0.15282283  0.08698601  1
  O  O48  1  0.65294190  0.14352689  0.75049543  1
  O  O49  1  0.47638989  0.34251113  0.74217480  1
  O  O50  1  0.85274628  0.54064537  0.74503538  1
  O  O51  1  0.65748887  0.52361011  0.24217480  1
  O  O52  1  0.85647311  0.34705810  0.25049543  1
  O  O53  1  0.45935463  0.14725372  0.24503538  1
  O  O54  1  0.64167668  0.49557519  0.91899542  1
  O  O55  1  0.85906734  0.37681494  0.91869911  1
  O  O56  1  0.51740691  0.15121318  0.92119452  1
  O  O57  1  0.62318506  0.14093266  0.41869911  1
  O  O58  1  0.50442481  0.35832332  0.41899542  1
  O  O59  1  0.84878682  0.48259309  0.42119452  1
  O  O60  1  0.32697081  0.46496946  0.08034255  1
  O  O61  1  0.15283484  0.66153696  0.08201628  1
  O  O62  1  0.53193038  0.86407445  0.07567546  1
  O  O63  1  0.33846304  0.84716516  0.58201628  1
  O  O64  1  0.53503054  0.67302919  0.58034255  1
  O  O65  1  0.13592555  0.46806962  0.57567546  1
  O  O66  1  0.30182016  0.82900373  0.25409358  1
  O  O67  1  0.52605998  0.70296927  0.25343183  1
  O  O68  1  0.18810938  0.49065015  0.25232231  1
  O  O69  1  0.29703073  0.47394002  0.75343183  1
  O  O70  1  0.17099627  0.69817984  0.75409358  1
  O  O71  1  0.50934985  0.81189062  0.75232231  1
loop_
_geom_bond_atom_site_label_1
_geom_bond_atom_site_label_2
_geom_bond_distance
_geom_bond_site_symmetry_2
Na0 O36 2.454339 1_555
Na0 O43 2.487709 1_565
Na0 O44 2.546538 1_455
Na0 O42 2.672382 1_465
Na0 O37 2.727731 1_465
Na0 O38 2.729961 1_565
Na1 O40 2.454339 1_555
Na1 O45 2.487709 1_456
Na1 O47 2.546538 1_566
Na1 O46 2.672382 1_466
Na1 O39 2.727731 1_465
Na1 O41 2.729961 1_455
Na2 O48 2.424422 1_555
Na2 O56 2.488999 1_555
Na2 O55 2.520232 1_555
Na2 O54 2.644427 1_555
Na2 O50 2.770375 1_555
Na2 O49 2.784350 1_555
Na3 O52 2.424422 1_555
Na3 O59 2.488999 1_555
Na3 O57 2.520232 1_555
Na3 O58 2.644427 1_555
Na3 O53 2.770375 1_555
Na3 O51 2.784350 1_555
Na4 O67 2.510749 1_555
Na4 O68 2.566953 1_555
Na4 O61 2.588638 1_555
Na4 O66 2.622956 1_555
Na4 O62 2.654164 1_555
Na4 O60 2.682987 1_555
Na5 O69 2.510749 1_555
Na5 O71 2.566953 1_555
Na5 O63 2.588638 1_555
Na5 O70 2.622956 1_555
Na5 O65 2.654164 1_555
Na5 O64 2.682987 1_555
Na6 O51 2.405537 1_555
Na6 O68 2.450605 1_555
Na6 O17 2.474843 1_555
Na6 O53 2.532325 1_555
Na6 O32 2.743986 1_555
Na6 O67 2.786627 1_555
Na6 O10 2.936451 1_555
Na7 O52 2.339771 1_555
Na7 O66 2.488156 1_655
Na7 O15 2.539246 1_555
Na7 O68 2.724930 1_655
Na7 O51 2.770827 1_555
Na7 O11 2.850988 1_655
Na7 O1 2.954412 1_555
Na7 O30 2.964657 1_655
Na8 O49 2.405537 1_555
Na8 O71 2.450605 1_555
Na8 O14 2.474843 1_555
Na8 O50 2.532325 1_555
Na8 O35 2.743986 1_555
Na8 O69 2.786627 1_555
Na8 O6 2.936451 1_555
Na9 O48 2.339771 1_555
Na9 O70 2.488156 1_545
Na9 O13 2.539246 1_555
Na9 O71 2.724930 1_545
Na9 O49 2.770827 1_555
Na9 O8 2.850989 1_545
Na9 O3 2.954412 1_555
Na9 O34 2.964657 1_545
Na10 O63 2.386285 1_555
Na10 O29 2.431667 1_555
Na10 O44 2.472336 1_455
Na10 O43 2.553096 1_565
Na10 O65 2.690498 1_555
Na11 O64 2.406767 1_555
Na11 O42 2.476612 1_565
Na11 O63 2.508930 1_555
Na11 O27 2.576952 1_555
Na11 O6 2.831476 1_555
Na11 O44 2.883642 1_555
Na11 O13 2.920970 1_565
Na11 O23 3.024540 1_565
Na12 O61 2.386285 1_555
Na12 O26 2.431667 1_554
Na12 O47 2.472336 1_565
Na12 O45 2.553096 1_455
Na12 O62 2.690498 1_555
Na13 O60 2.406767 1_555
Na13 O46 2.476612 1_455
Na13 O61 2.508930 1_555
Na13 O25 2.576952 1_554
Na13 O10 2.831476 1_555
Na13 O47 2.883642 1_555
Na13 O15 2.920970 1_455
Na13 O20 3.024540 1_455
Na14 O41 2.425406 1_555
Na14 O40 2.460145 1_655
Na14 O55 2.463500 1_555
Na14 O19 2.732255 1_556
Na14 O4 2.735435 1_555
Na14 O54 2.737013 1_555
Na15 O5 2.391455 1_555
Na15 O39 2.398338 1_555
Na15 O56 2.452717 1_555
Na15 O41 2.683655 1_545
Na15 O34 2.841185 1_545
Na15 O55 2.876626 1_555
Na15 O20 2.907173 1_556
Na15 O24 3.020252 1_545
Na16 O2 2.391455 1_555
Na16 O37 2.398338 1_555
Na16 O59 2.452717 1_555
Na16 O38 2.683655 1_655
Na16 O30 2.841184 1_655
Na16 O57 2.876626 1_555
Na16 O23 2.907173 1_555
Na16 O28 3.020253 1_655
Na17 O38 2.425406 1_555
Na17 O36 2.460145 1_545
Na17 O57 2.463500 1_555
Na17 O21 2.732255 1_555
Na17 O0 2.735435 1_555
Na17 O58 2.737013 1_555
Hf0 O7 2.045367 1_555
Hf0 O6 2.059083 1_445
Hf0 O43 2.071347 1_555
Hf0 O8 2.122602 1_545
Hf0 O42 2.137553 1_455
Hf0 O44 2.197082 1_445
Hf1 O9 2.045367 1_555
Hf1 O10 2.059083 1_665
Hf1 O45 2.071347 1_555
Hf1 O11 2.122602 1_655
Hf1 O46 2.137553 1_565
Hf1 O47 2.197082 1_665
Hf2 O19 2.034470 1_556
Hf2 O18 2.074580 1_556
Hf2 O56 2.096547 1_555
Hf2 O54 2.112957 1_555
Hf2 O20 2.129338 1_556
Hf2 O55 2.198189 1_555
Hf3 O21 2.034470 1_555
Hf3 O22 2.074580 1_555
Hf3 O59 2.096547 1_555
Hf3 O58 2.112957 1_555
Hf3 O23 2.129338 1_555
Hf3 O57 2.198189 1_555
Hf4 O30 2.007708 1_555
Hf4 O68 2.076933 1_555
Hf4 O32 2.116185 1_555
Hf4 O31 2.122000 1_555
Hf4 O66 2.162837 1_555
Hf4 O67 2.167248 1_555
Hf5 O34 2.007708 1_555
Hf5 O71 2.076933 1_555
Hf5 O35 2.116185 1_555
Hf5 O33 2.122000 1_555
Hf5 O70 2.162837 1_555
Hf5 O69 2.167248 1_555
O0 P0 1.528522 1_545
O0 Y0 2.223747 1_445
O1 P1 1.525860 1_555
O1 Y0 2.156665 1_555
O2 Si0 1.610389 1_655
O2 Y0 2.166588 1_545
O3 P2 1.525860 1_555
O3 Y1 2.156665 1_555
O4 P3 1.528522 1_655
O4 Y1 2.223747 1_665
O5 Si1 1.610389 1_545
O5 Y1 2.166588 1_655
O6 Si1 1.683037 1_555
O7 P2 1.570213 1_555
O8 P3 1.583702 1_555
O9 P1 1.570213 1_555
O10 Si0 1.683037 1_555
O11 P0 1.583702 1_555
O12 P4 1.523631 1_555
O12 Y2 2.160608 1_555
O13 Si2 1.615583 1_555
O13 Y2 2.130769 1_555
O14 P5 1.520715 1_555
O14 Y2 2.266471 1_555
O15 Si3 1.615583 1_555
O15 Y3 2.130769 1_555
O16 P6 1.523631 1_555
O16 Y3 2.160608 1_555
O17 P7 1.520715 1_555
O17 Y3 2.266471 1_555
O18 P7 1.577235 1_555
O19 Si3 1.673637 1_555
O20 P6 1.575242 1_555
O21 Si2 1.673637 1_555
O22 P5 1.577235 1_555
O23 P4 1.575242 1_555
O24 P8 1.518615 1_555
O24 Y4 2.173327 1_556
O25 P9 1.534317 1_555
O25 Y4 2.226146 1_556
O26 Si4 1.620149 1_555
O26 Y4 2.139085 1_556
O27 P10 1.534317 1_555
O27 Y5 2.226146 1_555
O28 P11 1.518615 1_555
O28 Y5 2.173327 1_555
O29 Si5 1.620149 1_555
O29 Y5 2.139085 1_555
O30 Si5 1.692931 1_555
O31 P10 1.565278 1_555
O32 P11 1.573227 1_555
O33 P9 1.565278 1_555
O34 Si4 1.692931 1_555
O35 P8 1.573227 1_555
O36 Si5 1.622249 1_555
O36 Y0 2.220820 1_455
O37 P10 1.535464 1_545
O37 Y0 2.264638 1_545
O38 P11 1.543738 1_555
O38 Y0 2.334543 1_445
O39 P9 1.535464 1_655
O39 Y1 2.264638 1_655
O40 Si4 1.622249 1_555
O40 Y1 2.220820 1_565
O41 P8 1.543738 1_555
O41 Y1 2.334543 1_665
O42 P4 1.568526 1_555
O43 Si2 1.654889 1_555
O44 P5 1.573855 1_555
O45 Si3 1.654889 1_555
O46 P6 1.568526 1_555
O47 P7 1.573855 1_555
O48 Si1 1.630526 1_545
O48 Y2 2.212554 1_555
O49 P2 1.538149 1_555
O49 Y2 2.275361 1_555
O50 P3 1.526563 1_655
O50 Y2 2.305116 1_555
O51 P1 1.538149 1_555
O51 Y3 2.275361 1_555
O52 Si0 1.630526 1_655
O52 Y3 2.212554 1_555
O53 P0 1.526563 1_545
O53 Y3 2.305116 1_555
O54 P8 1.562470 1_555
O55 P9 1.573731 1_655
O56 Si4 1.656422 1_545
O57 P10 1.573731 1_545
O58 P11 1.562470 1_555
O59 Si5 1.656422 1_655
O60 P7 1.535086 1_555
O60 Y4 2.294386 1_555
O61 Si3 1.648018 1_455
O61 Y4 2.247503 1_555
O62 P6 1.527480 1_565
O62 Y4 2.266450 1_555
O63 Si2 1.648018 1_565
O63 Y5 2.247502 1_555
O64 P5 1.535086 1_555
O64 Y5 2.294386 1_555
O65 P4 1.527480 1_455
O65 Y5 2.266450 1_555
O66 P0 1.565370 1_555
O67 P1 1.551238 1_555
O68 Si0 1.683825 1_555
O69 P2 1.551238 1_555
O70 P3 1.565370 1_555
O71 Si1 1.683825 1_555
