# generated using pymatgen
data_Na7MgCu3O8
_symmetry_space_group_name_H-M   'P 1'
_cell_length_a   5.86431627
_cell_length_b   6.12904894
_cell_length_c   7.97234073
_cell_angle_alpha   110.96889281
_cell_angle_beta   107.61978840
_cell_angle_gamma   92.15103677
_symmetry_Int_Tables_number   1
_chemical_formula_structural   Na7MgCu3O8
_chemical_formula_sum   'Na7 Mg1 Cu3 O8'
_cell_volume   251.56965211
_cell_formula_units_Z   1
loop_
 _symmetry_equiv_pos_site_id
 _symmetry_equiv_pos_as_xyz
  1  'x, y, z'
loop_
 _atom_site_type_symbol
 _atom_site_label
 _atom_site_symmetry_multiplicity
 _atom_site_fract_x
 _atom_site_fract_y
 _atom_site_fract_z
 _atom_site_occupancy
  Na  Na0  1  0.26782948  0.50203823  0.34954331  1
  Na  Na1  1  0.68781974  0.16519872  0.77046702  1
  Na  Na2  1  0.77954217  0.62047371  0.05523501  1
  Na  Na3  1  0.86613259  0.89226809  0.46188368  1
  Na  Na4  1  0.25358994  0.35137424  0.92594288  1
  Na  Na5  1  0.40348375  0.83024775  0.19964043  1
  Na  Na6  1  0.70921107  0.59457898  0.63722457  1
  Mg  Mg0  1  0.30494531  0.15153575  0.50120283  1
  Cu  Cu0  1  0.75255636  0.27041039  0.26504201  1
  Cu  Cu1  1  0.00677152  0.99897148  0.02037521  1
  Cu  Cu2  1  0.22939469  0.74538844  0.74663264  1
  O  O0  1  0.59216843  0.53681548  0.25163875  1
  O  O1  1  0.60177152  0.18384205  0.42641891  1
  O  O2  1  0.91584462  0.29594274  0.08771003  1
  O  O3  1  0.00270609  0.01965190  0.26383441  1
  O  O4  1  0.01647579  0.98402543  0.78471336  1
  O  O5  1  0.08003257  0.68951796  0.93062586  1
  O  O6  1  0.33794848  0.87756108  0.58527227  1
  O  O7  1  0.39415688  0.46724057  0.71873979  1
loop_
_geom_bond_atom_site_label_1
_geom_bond_atom_site_label_2
_geom_bond_distance
_geom_bond_site_symmetry_2
Na0 O0 2.293419 1_555
Na0 O6 2.315939 1_555
Na0 O2 2.349940 1_455
Na0 O1 2.903398 1_555
Na1 O4 2.253660 1_645
Na1 O2 2.290958 1_556
Na1 O6 2.351415 1_545
Na1 O7 2.630328 1_555
Na1 O1 2.679877 1_555
Na2 O2 2.241645 1_555
Na2 O0 2.344347 1_555
Na2 O5 2.361340 1_654
Na2 O3 2.448285 1_665
Na2 O7 2.748337 1_554
Na3 O4 2.295795 1_655
Na3 O3 2.311906 1_665
Na3 O0 2.372830 1_555
Na3 O1 2.445655 1_565
Na3 O6 2.658163 1_655
Na4 O4 2.296361 1_545
Na4 O5 2.336349 1_555
Na4 O7 2.352153 1_555
Na4 O0 2.563876 1_556
Na4 O2 2.740639 1_456
Na5 O5 2.243196 1_554
Na5 O0 2.244095 1_555
Na5 O1 2.247518 1_565
Na6 O7 2.329517 1_555
Na6 O1 2.402222 1_555
Na6 O5 2.527908 1_655
Na6 O4 2.590862 1_655
Na6 O0 2.823392 1_555
Na6 O6 2.858606 1_555
Mg0 O7 1.999613 1_555
Mg0 O6 2.014391 1_545
Mg0 O1 2.027694 1_555
Mg0 O3 2.035451 1_555
Cu0 O0 1.934287 1_555
Cu0 O1 1.964866 1_555
Cu0 O2 1.976561 1_555
Cu0 O3 2.163645 1_655
Cu1 O2 1.852640 1_465
Cu1 O4 1.866379 1_554
Cu1 O5 1.889396 1_554
Cu1 O3 1.906841 1_565
Cu2 O4 1.959402 1_555
Cu2 O7 1.967665 1_555
Cu2 O6 1.979725 1_555
Cu2 O5 2.037392 1_555
