# generated using pymatgen
data_Na30Mg16Nb8Si15(S7O48)3
_symmetry_space_group_name_H-M   'P 1'
_cell_length_a   17.96860731
_cell_length_b   8.98853276
_cell_length_c   22.33274334
_cell_angle_alpha   89.98759503
_cell_angle_beta   89.83961148
_cell_angle_gamma   119.95454097
_symmetry_Int_Tables_number   1
_chemical_formula_structural   Na30Mg16Nb8Si15(S7O48)3
_chemical_formula_sum   'Na30 Mg16 Nb8 Si15 S21 O144'
_cell_volume   3125.15981984
_cell_formula_units_Z   1
loop_
 _symmetry_equiv_pos_site_id
 _symmetry_equiv_pos_as_xyz
  1  'x, y, z'
loop_
 _atom_site_type_symbol
 _atom_site_label
 _atom_site_symmetry_multiplicity
 _atom_site_fract_x
 _atom_site_fract_y
 _atom_site_fract_z
 _atom_site_occupancy
  Na  Na0  1  0.32390149  0.02246833  0.24721153  1
  Na  Na1  1  0.82410495  0.02187177  0.24786563  1
  Na  Na2  1  0.18550636  0.34745147  0.24794069  1
  Na  Na3  1  0.68372080  0.34733445  0.24700033  1
  Na  Na4  1  0.98841374  0.62720408  0.24857869  1
  Na  Na5  1  0.48735848  0.61826264  0.24032399  1
  Na  Na6  1  0.32295558  0.62565482  0.74893880  1
  Na  Na7  1  0.82593395  0.62836401  0.74972913  1
  Na  Na8  1  0.98735665  0.35469052  0.74219840  1
  Na  Na9  1  0.48679818  0.35410600  0.74145017  1
  Na  Na10  1  0.18288448  0.02188020  0.74817431  1
  Na  Na11  1  0.68487071  0.02239634  0.74814748  1
  Na  Na12  1  0.01325068  0.67780626  0.58997147  1
  Na  Na13  1  0.51348898  0.67794131  0.58931013  1
  Na  Na14  1  0.51347809  0.34723257  0.08612873  1
  Na  Na15  1  0.47866937  0.66470352  0.91854492  1
  Na  Na16  1  0.47914061  0.29288332  0.42085164  1
  Na  Na17  1  0.97864909  0.29185699  0.42221093  1
  Na  Na18  1  0.99826421  0.00504971  0.50071781  1
  Na  Na19  1  0.49903488  0.00551271  0.50017160  1
  Na  Na20  1  0.00054695  0.00092049  0.99230015  1
  Na  Na21  1  0.49777986  0.99122557  0.99683751  1
  Na  Na22  1  0.32645305  0.31892482  0.82726958  1
  Na  Na23  1  0.83586762  0.33713600  0.82838544  1
  Na  Na24  1  0.32887616  0.33501121  0.32739897  1
  Na  Na25  1  0.82607917  0.33292584  0.32894556  1
  Na  Na26  1  0.16689756  0.66584646  0.15378356  1
  Na  Na27  1  0.66566365  0.68185480  0.15298840  1
  Na  Na28  1  0.16519360  0.64940488  0.65520479  1
  Na  Na29  1  0.66574873  0.64984422  0.65448788  1
  Mg  Mg0  1  0.00042367  0.99687370  0.34856481  1
  Mg  Mg1  1  0.50173895  0.99652366  0.34872918  1
  Mg  Mg2  1  0.00139188  0.00320444  0.84948214  1
  Mg  Mg3  1  0.50176572  0.00733642  0.84834288  1
  Mg  Mg4  1  0.33658477  0.33422422  0.68422389  1
  Mg  Mg5  1  0.83704783  0.33366225  0.68410373  1
  Mg  Mg6  1  0.33690356  0.33947818  0.18365859  1
  Mg  Mg7  1  0.83398381  0.33321053  0.18385003  1
  Mg  Mg8  1  0.33162212  0.33995834  0.98555991  1
  Mg  Mg9  1  0.83517395  0.33708087  0.98090637  1
  Mg  Mg10  1  0.33385146  0.32530115  0.48778094  1
  Mg  Mg11  1  0.83330807  0.32423922  0.48809435  1
  Mg  Mg12  1  0.16600282  0.66517379  0.01666591  1
  Mg  Mg13  1  0.66820640  0.67437906  0.01916645  1
  Mg  Mg14  1  0.16741272  0.66218097  0.52002606  1
  Mg  Mg15  1  0.66756171  0.66248205  0.51969406  1
  Nb  Nb0  1  0.99933424  0.01381989  0.65088757  1
  Nb  Nb1  1  0.49873004  0.01285351  0.65114659  1
  Nb  Nb2  1  -0.00002269  -0.00009829  0.15048127  1
  Nb  Nb3  1  0.49917667  0.98492116  0.14982123  1
  Nb  Nb4  1  0.16759960  0.66787848  0.31022805  1
  Nb  Nb5  1  0.66667016  0.66542737  0.30999442  1
  Nb  Nb6  1  0.16404642  0.66753822  0.81123868  1
  Nb  Nb7  1  0.66762688  0.66651828  0.81093494  1
  Si  Si0  1  0.14686231  0.00620405  0.25252880  1
  Si  Si1  1  0.64773854  0.00676143  0.25440273  1
  Si  Si2  1  0.35551166  0.70513619  0.25431840  1
  Si  Si3  1  0.85544384  0.70550319  0.25258310  1
  Si  Si4  1  0.99775642  0.28880760  0.25567391  1
  Si  Si5  1  0.49733097  0.28373149  0.25376023  1
  Si  Si6  1  0.14774523  0.29025473  0.75514341  1
  Si  Si7  1  0.64835446  0.28930989  0.75440054  1
  Si  Si8  1  0.99697957  0.71155290  0.75104042  1
  Si  Si9  1  0.49790540  0.71052405  0.75427308  1
  Si  Si10  1  0.35388730  0.00451373  0.75492160  1
  Si  Si11  1  0.85577601  0.00656297  0.75539475  1
  Si  Si12  1  0.48306362  0.33580389  0.58038695  1
  Si  Si13  1  0.98319665  0.33542256  0.58023761  1
  Si  Si14  1  0.48251662  0.62770987  0.08032011  1
  S  S0  1  0.18441902  0.03763934  0.58276898  1
  S  S1  1  0.68408695  0.03726395  0.58316655  1
  S  S2  1  0.33448458  0.62916181  0.58288845  1
  S  S3  1  0.83431943  0.62907455  0.58271581  1
  S  S4  1  0.98151005  0.63045553  0.08317247  1
  S  S5  1  0.33139424  0.03551073  0.08318207  1
  S  S6  1  0.83671570  0.04302008  0.08294401  1
  S  S7  1  0.18306584  0.33247522  0.08370786  1
  S  S8  1  0.68710445  0.33255013  0.08265712  1
  S  S9  1  0.31157355  0.66480251  0.91817725  1
  S  S10  1  0.81222803  0.66590010  0.92005647  1
  S  S11  1  0.01972014  0.37382119  0.91985314  1
  S  S12  1  0.52016066  0.36926374  0.91922524  1
  S  S13  1  0.16727116  0.96062085  0.91996828  1
  S  S14  1  0.66862725  0.96269189  0.91845945  1
  S  S15  1  0.31080012  0.95654308  0.41852222  1
  S  S16  1  0.81117748  0.95683920  0.41819140  1
  S  S17  1  0.16841753  0.37566016  0.41807938  1
  S  S18  1  0.66859623  0.37501631  0.41843001  1
  S  S19  1  0.02051283  0.67122232  0.41823440  1
  S  S20  1  0.52067864  0.67125783  0.41854491  1
  O  O0  1  0.10756186  0.05271156  0.30799672  1
  O  O1  1  0.61009200  0.05434011  0.31030373  1
  O  O2  1  0.41683313  0.78822232  0.30952921  1
  O  O3  1  0.91763646  0.78678732  0.30776454  1
  O  O4  1  0.48307472  0.17670395  0.31373164  1
  O  O5  1  0.97881388  0.17904204  0.31543994  1
  O  O6  1  0.11012561  0.16733063  0.81105085  1
  O  O7  1  0.61001629  0.16627732  0.81015093  1
  O  O8  1  0.48328115  0.78908166  0.81412978  1
  O  O9  1  0.97913404  0.79770166  0.80663759  1
  O  O10  1  0.41709403  0.04704625  0.80932130  1
  O  O11  1  0.91817885  0.05030123  0.81012239  1
  O  O12  1  0.39775820  0.95874555  0.69499834  1
  O  O13  1  0.89898447  0.95993786  0.69530098  1
  O  O14  1  0.07916004  0.20391737  0.69651780  1
  O  O15  1  0.57917021  0.20379814  0.69628875  1
  O  O16  1  0.02128669  0.83369326  0.68898573  1
  O  O17  1  0.52057414  0.83757336  0.69393460  1
  O  O18  1  0.39890573  0.83727634  0.19457845  1
  O  O19  1  0.89919658  0.84036027  0.19323293  1
  O  O20  1  0.01984216  0.19397979  0.19813041  1
  O  O21  1  0.52045688  0.20332838  0.19343210  1
  O  O22  1  0.07868102  0.95617288  0.19355682  1
  O  O23  1  0.57969218  0.95578208  0.19601860  1
  O  O24  1  0.43757139  0.36015853  0.63936994  1
  O  O25  1  0.93740900  0.35845713  0.63909994  1
  O  O26  1  0.22951221  0.11691160  0.63883634  1
  O  O27  1  0.72930788  0.11662454  0.63904949  1
  O  O28  1  0.32343533  0.53513368  0.63931694  1
  O  O29  1  0.82342899  0.53527555  0.63913046  1
  O  O30  1  0.43878977  0.51652560  0.14052207  1
  O  O31  1  0.94294397  0.53741666  0.13978282  1
  O  O32  1  0.32111745  0.10713162  0.14007699  1
  O  O33  1  0.82802329  0.11851137  0.13964029  1
  O  O34  1  0.22938495  0.34765450  0.13983880  1
  O  O35  1  0.73173504  0.34353921  0.13941597  1
  O  O36  1  0.22440223  0.30824877  0.03090697  1
  O  O37  1  0.73058279  0.31152930  0.03069499  1
  O  O38  1  0.42814672  0.55059410  0.01931155  1
  O  O39  1  0.92822893  0.54365948  0.03109473  1
  O  O40  1  0.34184714  0.14636409  0.03171225  1
  O  O41  1  0.84630495  0.15025459  0.03088117  1
  O  O42  1  0.22611670  0.14458799  0.52965015  1
  O  O43  1  0.72499982  0.14383159  0.52993447  1
  O  O44  1  0.34454239  0.53900833  0.53079326  1
  O  O45  1  0.84404204  0.53820825  0.53066711  1
  O  O46  1  0.42998563  0.30339969  0.51828301  1
  O  O47  1  0.93000144  0.30369552  0.51816510  1
  O  O48  1  0.26523710  0.67417841  0.97058308  1
  O  O49  1  0.76453458  0.67730628  0.97121289  1
  O  O50  1  0.07224162  0.46657393  0.97149130  1
  O  O51  1  0.57008949  0.45771662  0.97284670  1
  O  O52  1  0.16134744  0.85387656  0.97130367  1
  O  O53  1  0.66033162  0.85169372  0.96910351  1
  O  O54  1  0.26337030  0.85283006  0.46980151  1
  O  O55  1  0.76375924  0.85384818  0.46978602  1
  O  O56  1  0.16014888  0.47052091  0.46829881  1
  O  O57  1  0.66074784  0.47077387  0.46848274  1
  O  O58  1  0.07046025  0.68134586  0.47131538  1
  O  O59  1  0.57043782  0.68169511  0.47193362  1
  O  O60  1  0.06896723  0.65421983  0.36313904  1
  O  O61  1  0.56987059  0.65464957  0.36391539  1
  O  O62  1  0.26098185  0.86305813  0.36147016  1
  O  O63  1  0.76212991  0.86382882  0.36116020  1
  O  O64  1  0.17533069  0.47886877  0.36049978  1
  O  O65  1  0.67578001  0.47778018  0.36068136  1
  O  O66  1  0.06613354  0.48156697  0.86341804  1
  O  O67  1  0.56857043  0.48353274  0.86477374  1
  O  O68  1  0.17419208  0.86831886  0.86295880  1
  O  O69  1  0.67599865  0.87422897  0.86131389  1
  O  O70  1  0.26199989  0.65793656  0.86186992  1
  O  O71  1  0.75962926  0.65226455  0.86309598  1
  O  O72  1  0.01323331  0.82557322  0.41309175  1
  O  O73  1  0.51331667  0.82544135  0.41347171  1
  O  O74  1  0.39776065  0.97692851  0.41619772  1
  O  O75  1  0.89819150  0.97683344  0.41628199  1
  O  O76  1  0.08771499  0.20743064  0.41478813  1
  O  O77  1  0.58796744  0.20722794  0.41559518  1
  O  O78  1  0.01306578  0.20475203  0.91558820  1
  O  O79  1  0.51272974  0.20013856  0.91442943  1
  O  O80  1  0.08916580  0.97312112  0.91605986  1
  O  O81  1  0.58819189  0.97010353  0.91562256  1
  O  O82  1  0.39866638  0.81777513  0.91631885  1
  O  O83  1  0.89706015  0.82115867  0.91601991  1
  O  O84  1  0.49232589  0.15551830  0.58970677  1
  O  O85  1  0.99273375  0.15516232  0.58880714  1
  O  O86  1  0.09380135  0.01090519  0.58462869  1
  O  O87  1  0.59300997  0.00872937  0.58558995  1
  O  O88  1  0.41905688  0.79968078  0.58571548  1
  O  O89  1  0.91848212  0.79988567  0.58512456  1
  O  O90  1  0.49238238  0.82810484  0.08957236  1
  O  O91  1  0.98885912  0.80781584  0.08662613  1
  O  O92  1  0.41572860  0.03157063  0.08599428  1
  O  O93  1  0.91875992  0.03041210  0.08654845  1
  O  O94  1  0.09366510  0.17130423  0.08764470  1
  O  O95  1  0.59620009  0.17697653  0.08508636  1
  O  O96  1  0.33091927  0.15171814  0.74221354  1
  O  O97  1  0.83192239  0.15224863  0.74225165  1
  O  O98  1  0.24257309  0.33173156  0.73845905  1
  O  O99  1  0.74332104  0.33208642  0.73814094  1
  O  O100  1  0.42003020  0.51889508  0.74406242  1
  O  O101  1  0.92078892  0.51778347  0.74245927  1
  O  O102  1  0.33201016  0.51141008  0.24235409  1
  O  O103  1  0.83427161  0.51371422  0.23908930  1
  O  O104  1  0.41948627  0.32021990  0.24401234  1
  O  O105  1  0.92252428  0.32852077  0.24040102  1
  O  O106  1  0.24233658  0.15417594  0.23772690  1
  O  O107  1  0.74336620  0.15516080  0.23931224  1
  O  O108  1  0.31784296  0.50557542  0.91674079  1
  O  O109  1  0.81727734  0.50640803  0.92033882  1
  O  O110  1  0.43559374  0.36155100  0.91763034  1
  O  O111  1  0.93483052  0.36342655  0.92012818  1
  O  O112  1  0.24689427  0.12992697  0.92038780  1
  O  O113  1  0.74629190  0.13292664  0.92037734  1
  O  O114  1  0.31634805  0.12711307  0.41598227  1
  O  O115  1  0.81697968  0.12763744  0.41599209  1
  O  O116  1  0.24610079  0.36058705  0.41953477  1
  O  O117  1  0.74635709  0.35983423  0.41995261  1
  O  O118  1  0.43630936  0.50989504  0.41644046  1
  O  O119  1  0.93590323  0.50964422  0.41613288  1
  O  O120  1  0.17024942  0.48296239  0.07819056  1
  O  O121  1  0.67558519  0.48536933  0.07804446  1
  O  O122  1  0.06994974  0.65699168  0.07818265  1
  O  O123  1  0.57871821  0.65088355  0.07667437  1
  O  O124  1  0.25896119  0.85730135  0.07675731  1
  O  O125  1  0.76311539  0.86629059  0.07777779  1
  O  O126  1  0.17401083  0.86276163  0.57748324  1
  O  O127  1  0.67375470  0.86222357  0.57774067  1
  O  O128  1  0.26343287  0.66517109  0.57605478  1
  O  O129  1  0.76296212  0.66458536  0.57593759  1
  O  O130  1  0.07915806  0.50571567  0.57722278  1
  O  O131  1  0.57907535  0.50579514  0.57710728  1
  O  O132  1  0.14880750  0.82106765  0.25951941  1
  O  O133  1  0.65090436  0.82295686  0.26016924  1
  O  O134  1  0.26112961  0.70383840  0.25851027  1
  O  O135  1  0.76083186  0.70078088  0.25819278  1
  O  O136  1  0.08992214  0.47863854  0.25911533  1
  O  O137  1  0.58835437  0.47955016  0.25991038  1
  O  O138  1  0.14984261  0.47911009  0.76097175  1
  O  O139  1  0.65016212  0.47807563  0.76055121  1
  O  O140  1  0.08836413  0.69981553  0.75957779  1
  O  O141  1  0.58910477  0.69753601  0.76067466  1
  O  O142  1  0.25992989  0.81884344  0.76017340  1
  O  O143  1  0.76166367  0.81902653  0.76006316  1
loop_
_geom_bond_atom_site_label_1
_geom_bond_atom_site_label_2
_geom_bond_distance
_geom_bond_site_symmetry_2
Na0 O106 2.308400 1_555
Na0 O104 2.350893 1_555
Na0 O134 2.512093 1_545
Na0 O32 2.518749 1_555
Na0 O132 2.749272 1_545
Na0 O18 2.863781 1_545
Na0 O62 2.864795 1_545
Na0 O4 2.893821 1_555
Na1 O107 2.305160 1_555
Na1 O105 2.425483 1_555
Na1 O135 2.529230 1_545
Na1 O33 2.557012 1_555
Na1 O133 2.719582 1_545
Na1 O63 2.839513 1_545
Na1 O5 2.846695 1_555
Na1 O19 2.856766 1_545
Na2 O102 2.289369 1_555
Na2 O106 2.425559 1_555
Na2 O136 2.534325 1_555
Na2 O34 2.537313 1_555
Na2 O0 2.657382 1_555
Na2 O134 2.796267 1_555
Na2 O20 2.814239 1_555
Na2 O64 2.821725 1_555
Na3 O103 2.354346 1_555
Na3 O107 2.451475 1_555
Na3 O137 2.542240 1_555
Na3 O35 2.556573 1_555
Na3 O1 2.682023 1_555
Na3 O135 2.771608 1_555
Na3 O21 2.817992 1_555
Na3 O65 2.829671 1_555
Na4 O105 2.338814 1_555
Na4 O103 2.436951 1_555
Na4 O132 2.528105 1_655
Na4 O31 2.564342 1_555
Na4 O3 2.689836 1_555
Na4 O136 2.756826 1_655
Na4 O22 2.842891 1_655
Na4 O60 2.893041 1_655
Na5 O104 2.325434 1_555
Na5 O30 2.404258 1_555
Na5 O102 2.457308 1_555
Na5 O133 2.612613 1_555
Na5 O137 2.702408 1_555
Na5 O23 2.810456 1_555
Na5 O2 2.872592 1_555
Na6 O98 2.304840 1_555
Na6 O100 2.376093 1_555
Na6 O142 2.514612 1_555
Na6 O28 2.581342 1_555
Na6 O138 2.717823 1_555
Na6 O70 2.819021 1_555
Na6 O12 2.862246 1_555
Na6 O8 2.893966 1_555
Na7 O99 2.327512 1_555
Na7 O101 2.368466 1_555
Na7 O143 2.509795 1_555
Na7 O29 2.601309 1_555
Na7 O9 2.710361 1_555
Na7 O139 2.755629 1_555
Na7 O71 2.848599 1_555
Na7 O13 2.857593 1_555
Na8 O101 2.308865 1_555
Na8 O97 2.456914 1_555
Na8 O25 2.479897 1_555
Na8 O138 2.587891 1_655
Na8 O140 2.729480 1_655
Na8 O14 2.796815 1_655
Na8 O11 2.814843 1_555
Na9 O100 2.326154 1_555
Na9 O24 2.458014 1_555
Na9 O96 2.462970 1_555
Na9 O139 2.604056 1_555
Na9 O141 2.725970 1_555
Na9 O15 2.797871 1_555
Na9 O10 2.831843 1_555
Na10 O96 2.313677 1_555
Na10 O98 2.443289 1_555
Na10 O140 2.533207 1_545
Na10 O26 2.582061 1_555
Na10 O6 2.662272 1_555
Na10 O142 2.800701 1_545
Na10 O16 2.856129 1_545
Na10 O68 2.877816 1_545
Na11 O97 2.297746 1_555
Na11 O99 2.445528 1_555
Na11 O141 2.558321 1_545
Na11 O27 2.569846 1_555
Na11 O7 2.669559 1_555
Na11 O143 2.799494 1_545
Na11 O69 2.823246 1_545
Na11 O17 2.839771 1_545
Na12 O130 2.388287 1_555
Na12 O89 2.445921 1_455
Na12 O126 2.526941 1_555
Na12 O16 2.583593 1_555
Na12 O86 2.597091 1_565
Na12 O25 2.717430 1_455
Na12 O58 2.834053 1_555
Na13 O131 2.382604 1_555
Na13 O88 2.436791 1_555
Na13 O127 2.517059 1_555
Na13 O87 2.577923 1_565
Na13 O17 2.712046 1_555
Na13 O24 2.714530 1_555
Na13 O59 2.805379 1_555
Na13 O44 2.952986 1_555
Na14 O123 2.381489 1_555
Na14 O92 2.481700 1_555
Na14 O121 2.538528 1_555
Na14 O95 2.612147 1_555
Na14 O51 2.719754 1_554
Na14 O21 2.755682 1_555
Na14 O30 2.761036 1_555
Na14 O40 2.951112 1_555
Na15 O110 2.432794 1_555
Na15 O82 2.436723 1_555
Na15 O38 2.449111 1_556
Na15 O81 2.452974 1_555
Na15 O108 2.504300 1_555
Na15 O8 2.568980 1_555
Na16 O46 2.365660 1_555
Na16 O118 2.430315 1_555
Na16 O77 2.435699 1_555
Na16 O74 2.463402 1_545
Na16 O114 2.537287 1_555
Na16 O4 2.625337 1_555
Na17 O47 2.334531 1_555
Na17 O76 2.434630 1_655
Na17 O119 2.437728 1_555
Na17 O75 2.457388 1_545
Na17 O115 2.521357 1_555
Na17 O5 2.591926 1_555
Na18 O85 2.415491 1_555
Na18 O89 2.520435 1_545
Na18 O86 2.527702 1_655
Na18 O75 2.533238 1_545
Na18 O76 2.576179 1_655
Na18 O72 2.633662 1_645
Na19 O84 2.448046 1_555
Na19 O74 2.539082 1_545
Na19 O87 2.541761 1_555
Na19 O88 2.542813 1_545
Na19 O77 2.548901 1_555
Na19 O73 2.616881 1_545
Na20 O80 2.424752 1_545
Na20 O78 2.434603 1_555
Na20 O83 2.447268 1_445
Na20 O93 2.651835 1_456
Na20 O91 2.669524 1_446
Na20 O94 2.672342 1_556
Na21 O82 2.466233 1_555
Na21 O81 2.501332 1_555
Na21 O90 2.510755 1_556
Na21 O79 2.545080 1_565
Na21 O92 2.605293 1_566
Na21 O95 2.621387 1_566
Na22 O96 2.448334 1_555
Na22 O98 2.531527 1_555
Na22 O100 2.544415 1_555
Na22 O112 2.609769 1_555
Na22 O108 2.662732 1_555
Na22 O110 2.708729 1_555
Na23 O101 2.481005 1_555
Na23 O97 2.520233 1_555
Na23 O99 2.602442 1_555
Na23 O111 2.648915 1_555
Na23 O109 2.673721 1_555
Na23 O113 2.685158 1_555
Na24 O102 2.456300 1_555
Na24 O104 2.517100 1_555
Na24 O106 2.562292 1_555
Na24 O116 2.612186 1_555
Na24 O114 2.651836 1_555
Na24 O118 2.672891 1_555
Na25 O107 2.532899 1_555
Na25 O103 2.539175 1_555
Na25 O117 2.563445 1_555
Na25 O115 2.627949 1_555
Na25 O105 2.639025 1_555
Na25 O119 2.664821 1_555
Na26 O120 2.378113 1_555
Na26 O122 2.402007 1_555
Na26 O124 2.407708 1_555
Na26 O134 2.810489 1_555
Na26 O136 2.816736 1_555
Na26 O132 2.842248 1_555
Na27 O123 2.236890 1_555
Na27 O125 2.391487 1_555
Na27 O121 2.503251 1_555
Na27 O133 2.782463 1_555
Na27 O135 2.864524 1_555
Na27 O137 2.897452 1_555
Na28 O130 2.261232 1_555
Na28 O128 2.448110 1_555
Na28 O126 2.531659 1_555
Na28 O138 2.751660 1_555
Na28 O142 2.854403 1_555
Na28 O140 2.855088 1_555
Na29 O131 2.256254 1_555
Na29 O129 2.428541 1_555
Na29 O127 2.515068 1_555
Na29 O139 2.763289 1_555
Na29 O143 2.872113 1_555
Na29 O141 2.876779 1_555
Mg0 O0 1.950380 1_565
Mg0 O3 1.952477 1_455
Mg0 O5 2.003801 1_465
Mg0 O72 2.203464 1_555
Mg0 O76 2.297640 1_565
Mg0 O75 2.312547 1_455
Mg1 O2 1.937832 1_555
Mg1 O1 1.943490 1_565
Mg1 O4 1.972218 1_565
Mg1 O73 2.195177 1_555
Mg1 O77 2.302457 1_565
Mg1 O74 2.334000 1_555
Mg2 O9 1.937184 1_445
Mg2 O11 1.956236 1_455
Mg2 O6 1.960103 1_555
Mg2 O78 2.264710 1_555
Mg2 O80 2.282588 1_545
Mg2 O83 2.306536 1_445
Mg3 O10 1.936799 1_555
Mg3 O7 1.940904 1_555
Mg3 O8 1.973352 1_545
Mg3 O79 2.209566 1_555
Mg3 O81 2.305031 1_545
Mg3 O82 2.338952 1_545
Mg4 O24 1.979344 1_555
Mg4 O96 2.051889 1_555
Mg4 O98 2.066855 1_555
Mg4 O100 2.077523 1_555
Mg4 O28 2.179330 1_555
Mg4 O26 2.191650 1_555
Mg5 O25 1.974913 1_555
Mg5 O97 2.049948 1_555
Mg5 O101 2.055873 1_555
Mg5 O99 2.063416 1_555
Mg5 O29 2.190023 1_555
Mg5 O27 2.192328 1_555
Mg6 O30 1.972883 1_555
Mg6 O102 2.061613 1_555
Mg6 O106 2.069045 1_555
Mg6 O104 2.077562 1_555
Mg6 O32 2.190947 1_555
Mg6 O34 2.201795 1_555
Mg7 O107 2.032804 1_555
Mg7 O103 2.036373 1_555
Mg7 O105 2.050880 1_555
Mg7 O33 2.122625 1_555
Mg7 O35 2.132933 1_555
Mg7 O31 2.137886 1_555
Mg8 O38 1.972216 1_556
Mg8 O36 2.063780 1_556
Mg8 O40 2.108013 1_556
Mg8 O108 2.238019 1_555
Mg8 O112 2.267965 1_555
Mg8 O110 2.334800 1_555
Mg9 O37 2.092425 1_556
Mg9 O39 2.100203 1_556
Mg9 O41 2.107488 1_556
Mg9 O111 2.160513 1_555
Mg9 O109 2.177120 1_555
Mg9 O113 2.198147 1_555
Mg10 O46 1.957755 1_555
Mg10 O42 2.027158 1_555
Mg10 O44 2.069508 1_555
Mg10 O114 2.299569 1_555
Mg10 O116 2.328598 1_555
Mg10 O118 2.369123 1_555
Mg11 O47 1.957212 1_555
Mg11 O43 2.031703 1_555
Mg11 O45 2.066760 1_555
Mg11 O115 2.299549 1_555
Mg11 O117 2.317664 1_555
Mg11 O119 2.381758 1_555
Mg12 O50 2.012418 1_554
Mg12 O52 2.012878 1_554
Mg12 O48 2.022556 1_554
Mg12 O120 2.168083 1_555
Mg12 O124 2.169395 1_555
Mg12 O122 2.175231 1_555
Mg13 O123 1.982131 1_555
Mg13 O53 2.008870 1_554
Mg13 O49 2.021801 1_554
Mg13 O51 2.133859 1_554
Mg13 O125 2.161724 1_555
Mg13 O121 2.204052 1_555
Mg14 O130 1.971056 1_555
Mg14 O56 2.023994 1_555
Mg14 O54 2.050693 1_555
Mg14 O128 2.123448 1_555
Mg14 O58 2.134997 1_555
Mg14 O126 2.167841 1_555
Mg15 O131 1.976659 1_555
Mg15 O57 2.020717 1_555
Mg15 O55 2.051364 1_555
Mg15 O129 2.120448 1_555
Mg15 O59 2.127082 1_555
Mg15 O127 2.172230 1_555
Nb0 O14 1.891273 1_655
Nb0 O13 1.894041 1_545
Nb0 O85 1.923784 1_555
Nb0 O16 2.034693 1_645
Nb0 O86 2.258761 1_655
Nb0 O89 2.277874 1_545
Nb1 O15 1.892836 1_555
Nb1 O12 1.896327 1_545
Nb1 O84 1.920378 1_555
Nb1 O17 2.041671 1_545
Nb1 O87 2.250244 1_555
Nb1 O88 2.264913 1_545
Nb2 O22 1.908515 1_545
Nb2 O19 1.908867 1_445
Nb2 O20 1.919401 1_555
Nb2 O94 2.138382 1_555
Nb2 O93 2.157479 1_455
Nb2 O91 2.170900 1_445
Nb3 O18 1.899497 1_555
Nb3 O23 1.900730 1_555
Nb3 O90 1.908417 1_555
Nb3 O21 2.049895 1_565
Nb3 O95 2.255857 1_565
Nb3 O92 2.257341 1_565
Nb4 O134 1.925988 1_555
Nb4 O132 1.938620 1_555
Nb4 O136 1.945084 1_555
Nb4 O62 2.067574 1_555
Nb4 O60 2.079252 1_555
Nb4 O64 2.098053 1_555
Nb5 O137 1.919510 1_555
Nb5 O133 1.930032 1_555
Nb5 O135 1.937525 1_555
Nb5 O61 2.074799 1_555
Nb5 O63 2.094114 1_555
Nb5 O65 2.104510 1_555
Nb6 O140 1.915006 1_555
Nb6 O138 1.940287 1_555
Nb6 O142 1.940866 1_555
Nb6 O68 2.073146 1_555
Nb6 O66 2.073240 1_555
Nb6 O70 2.132302 1_555
Nb7 O143 1.923664 1_555
Nb7 O139 1.924991 1_555
Nb7 O141 1.931300 1_555
Nb7 O71 2.080518 1_555
Nb7 O67 2.093484 1_555
Nb7 O69 2.120286 1_555
O0 Si0 1.580527 1_555
O1 Si1 1.575896 1_555
O2 Si2 1.574292 1_555
O3 Si3 1.579267 1_555
O4 Si5 1.592584 1_555
O5 Si4 1.591336 1_555
O6 Si6 1.576545 1_555
O7 Si7 1.575288 1_555
O8 Si9 1.593214 1_555
O9 Si8 1.578054 1_555
O10 Si10 1.576816 1_555
O11 Si11 1.572684 1_555
O12 Si10 1.702867 1_565
O13 Si11 1.702614 1_565
O14 Si6 1.699883 1_555
O15 Si7 1.695798 1_555
O16 Si8 1.683376 1_455
O17 Si9 1.678573 1_555
O18 Si2 1.693321 1_555
O19 Si3 1.698838 1_555
O20 Si4 1.694379 1_455
O21 Si5 1.675519 1_555
O22 Si0 1.701989 1_565
O23 Si1 1.689598 1_565
O24 Si12 1.619897 1_555
O25 Si13 1.616170 1_555
O26 S0 1.470239 1_555
O27 S1 1.467611 1_555
O28 S2 1.473913 1_555
O29 S3 1.473048 1_555
O30 Si14 1.622676 1_555
O31 S4 1.481169 1_555
O32 S5 1.476741 1_555
O33 S6 1.480931 1_555
O34 S7 1.474871 1_555
O35 S8 1.478608 1_555
O36 S7 1.465033 1_555
O37 S8 1.461210 1_555
O38 Si14 1.619533 1_555
O39 S4 1.462410 1_555
O40 S5 1.469958 1_555
O41 S6 1.463960 1_555
O42 S0 1.472425 1_555
O43 S1 1.470603 1_555
O44 S2 1.479314 1_555
O45 S3 1.480043 1_555
O46 Si12 1.627346 1_555
O47 Si13 1.628505 1_555
O48 S9 1.461076 1_555
O49 S10 1.460297 1_555
O50 S11 1.461650 1_555
O51 S12 1.471449 1_555
O52 S13 1.463949 1_555
O53 S14 1.465232 1_555
O54 S15 1.451741 1_555
O55 S16 1.454992 1_555
O56 S17 1.460459 1_555
O57 S18 1.459790 1_555
O58 S19 1.464065 1_555
O59 S20 1.467001 1_555
O60 S19 1.556381 1_555
O61 S20 1.554948 1_555
O62 S15 1.544830 1_555
O63 S16 1.539101 1_555
O64 S17 1.553423 1_555
O65 S18 1.553271 1_555
O66 S11 1.552083 1_555
O67 S12 1.546517 1_555
O68 S13 1.558008 1_555
O69 S14 1.543765 1_555
O70 S9 1.526429 1_555
O71 S10 1.554865 1_555
O72 S19 1.461638 1_555
O73 S20 1.460857 1_555
O74 S15 1.480366 1_555
O75 S16 1.482474 1_555
O76 S17 1.485152 1_555
O77 S18 1.481928 1_555
O78 S11 1.466791 1_555
O79 S12 1.462094 1_555
O80 S13 1.465624 1_555
O81 S14 1.481230 1_555
O82 S9 1.480593 1_555
O83 S10 1.467672 1_555
O84 Si12 1.722332 1_555
O85 Si13 1.722967 1_555
O86 S0 1.523031 1_555
O87 S1 1.525537 1_555
O88 S2 1.528765 1_555
O89 S3 1.526101 1_555
O90 Si14 1.732090 1_555
O91 S4 1.534526 1_555
O92 S5 1.534821 1_555
O93 S6 1.536278 1_555
O94 S7 1.536927 1_555
O95 S8 1.531322 1_555
O96 Si10 1.596061 1_555
O97 Si11 1.595524 1_555
O98 Si6 1.594740 1_555
O99 Si7 1.591482 1_555
O100 Si9 1.603732 1_555
O101 Si8 1.601548 1_555
O102 Si2 1.596371 1_555
O103 Si3 1.597910 1_555
O104 Si5 1.603527 1_555
O105 Si4 1.598620 1_555
O106 Si0 1.593550 1_555
O107 Si1 1.597836 1_555
O108 S9 1.491011 1_555
O109 S10 1.481003 1_555
O110 S12 1.486678 1_555
O111 S11 1.480905 1_655
O112 S13 1.479440 1_545
O113 S14 1.469230 1_545
O114 S15 1.486970 1_545
O115 S16 1.486708 1_545
O116 S17 1.468655 1_555
O117 S18 1.470638 1_555
O118 S20 1.486199 1_555
O119 S19 1.489402 1_655
O120 S7 1.486294 1_555
O121 S8 1.491400 1_555
O122 S4 1.488336 1_455
O123 Si14 1.636380 1_555
O124 S5 1.483111 1_565
O125 S6 1.479441 1_565
O126 S0 1.492110 1_565
O127 S1 1.494359 1_565
O128 S2 1.473686 1_555
O129 S3 1.476001 1_555
O130 Si13 1.638383 1_455
O131 Si12 1.638042 1_555
O132 Si0 1.689036 1_565
O133 Si1 1.686169 1_565
O134 Si2 1.692448 1_555
O135 Si3 1.683566 1_555
O136 Si4 1.684895 1_455
O137 Si5 1.708359 1_555
O138 Si6 1.684107 1_555
O139 Si7 1.686385 1_555
O140 Si8 1.708381 1_455
O141 Si9 1.706412 1_555
O142 Si10 1.683566 1_565
O143 Si11 1.692439 1_565
