# generated using pymatgen
data_Na9Ta7Zn5Si9(SO8)9
_symmetry_space_group_name_H-M   'P 1'
_cell_length_a   8.91883176
_cell_length_b   8.90872776
_cell_length_c   22.68211944
_cell_angle_alpha   89.85812465
_cell_angle_beta   89.59501098
_cell_angle_gamma   120.06302484
_symmetry_Int_Tables_number   1
_chemical_formula_structural   Na9Ta7Zn5Si9(SO8)9
_chemical_formula_sum   'Na9 Ta7 Zn5 Si9 S9 O72'
_cell_volume   1559.69764263
_cell_formula_units_Z   1
loop_
 _symmetry_equiv_pos_site_id
 _symmetry_equiv_pos_as_xyz
  1  'x, y, z'
loop_
 _atom_site_type_symbol
 _atom_site_label
 _atom_site_symmetry_multiplicity
 _atom_site_fract_x
 _atom_site_fract_y
 _atom_site_fract_z
 _atom_site_occupancy
  Na  Na0  1  0.97830583  0.35375244  0.74690529  1
  Na  Na1  1  0.64827259  0.96875803  0.58060217  1
  Na  Na2  1  0.32579794  0.02681627  0.40696115  1
  Na  Na3  1  0.99015996  0.00486232  0.49227530  1
  Na  Na4  1  0.98351964  0.99708495  0.98999549  1
  Na  Na5  1  0.65768942  0.32446476  0.82727670  1
  Na  Na6  1  0.66630848  0.33054627  0.32043851  1
  Na  Na7  1  0.32951701  0.68504095  0.16278441  1
  Na  Na8  1  0.31527616  0.66915870  0.65503324  1
  Ta  Ta0  1  0.99540062  0.00078842  0.64479545  1
  Ta  Ta1  1  0.99938546  0.99241653  0.14406106  1
  Ta  Ta2  1  0.69095629  0.34442419  0.97812576  1
  Ta  Ta3  1  0.66375711  0.31738196  0.48202337  1
  Ta  Ta4  1  0.33360311  0.66416206  0.02081117  1
  Ta  Ta5  1  0.33878714  0.68148165  0.31106451  1
  Ta  Ta6  1  0.34370816  0.66550644  0.81326502  1
  Zn  Zn0  1  0.99575809  0.00433837  0.34832933  1
  Zn  Zn1  1  0.96383028  0.99937328  0.85957339  1
  Zn  Zn2  1  0.67147681  0.30847962  0.68095858  1
  Zn  Zn3  1  0.66437974  0.30785160  0.18234738  1
  Zn  Zn4  1  0.33247523  0.67376928  0.51963251  1
  Si  Si0  1  0.29461555  0.01819314  0.25475129  1
  Si  Si1  1  0.70423747  0.00377491  0.75135408  1
  Si  Si2  1  0.97346897  0.34690676  0.58723528  1
  Si  Si3  1  0.36688437  0.03546786  0.58586296  1
  Si  Si4  1  0.95368035  0.61425421  0.08823859  1
  Si  Si5  1  0.66394536  0.04178656  0.08560768  1
  Si  Si6  1  0.62628555  0.65769628  0.91851615  1
  Si  Si7  1  0.05138065  0.37409825  0.91495758  1
  Si  Si8  1  0.63767161  0.95499303  0.41994544  1
  S  S0  1  0.70776894  0.70885693  0.25096483  1
  S  S1  1  0.00550836  0.29592332  0.25164721  1
  S  S2  1  0.29017724  0.28830748  0.75122985  1
  S  S3  1  0.00318384  0.71660233  0.75294214  1
  S  S4  1  0.67259030  0.61890401  0.58602786  1
  S  S5  1  0.37559679  0.33215313  0.08409383  1
  S  S6  1  0.33719215  0.95497726  0.91685519  1
  S  S7  1  0.34152530  0.38369550  0.41828160  1
  S  S8  1  0.03807236  0.65938705  0.41669378  1
  O  O0  1  0.20391811  0.01709486  0.31619235  1
  O  O1  1  0.80399812  0.79029406  0.30385802  1
  O  O2  1  0.98213224  0.19489121  0.30496111  1
  O  O3  1  0.21480715  0.18656671  0.80412178  1
  O  O4  1  0.99733426  0.80472352  0.80526363  1
  O  O5  1  0.83627230  0.04218340  0.80326962  1
  O  O6  1  0.79711867  0.97073662  0.69027016  1
  O  O7  1  0.17212337  0.20094123  0.69769238  1
  O  O8  1  0.02667922  0.82471990  0.69749586  1
  O  O9  1  0.78795504  0.82428715  0.19676949  1
  O  O10  1  0.02753273  0.21138605  0.19768395  1
  O  O11  1  0.16116223  0.98480088  0.19783820  1
  O  O12  1  0.90061689  0.37561322  0.64796100  1
  O  O13  1  0.48962239  0.12917898  0.63915287  1
  O  O14  1  0.65654648  0.52070468  0.63870709  1
  O  O15  1  0.86733575  0.50452115  0.14541099  1
  O  O16  1  0.60776539  0.09594002  0.14395091  1
  O  O17  1  0.47356584  0.36577261  0.13762888  1
  O  O18  1  0.45332281  0.30401835  0.03069782  1
  O  O19  1  0.83582202  0.53189868  0.02691512  1
  O  O20  1  0.69092129  0.16648533  0.02680616  1
  O  O21  1  0.46052159  0.16288671  0.52320678  1
  O  O22  1  0.69630700  0.53756030  0.53052171  1
  O  O23  1  0.82664668  0.30451548  0.53080147  1
  O  O24  1  0.51689955  0.67730125  0.97315105  1
  O  O25  1  0.16234978  0.49238298  0.97093197  1
  O  O26  1  0.32055189  0.85138902  0.97112041  1
  O  O27  1  0.54762139  0.85374758  0.47924017  1
  O  O28  1  0.32161190  0.46437982  0.47029827  1
  O  O29  1  0.14267784  0.68192094  0.46805350  1
  O  O30  1  0.12371277  0.63282279  0.36163291  1
  O  O31  1  0.49585515  0.85434713  0.36246085  1
  O  O32  1  0.35412452  0.48480963  0.36276855  1
  O  O33  1  0.13413561  0.49550751  0.85469485  1
  O  O34  1  0.36483491  0.86712225  0.86361779  1
  O  O35  1  0.50225632  0.64100244  0.85952775  1
  O  O36  1  0.01987333  0.81314740  0.40976721  1
  O  O37  1  0.82868903  0.98932398  0.40836071  1
  O  O38  1  0.19854738  0.20242040  0.41424032  1
  O  O39  1  0.04475398  0.19362776  0.91652395  1
  O  O40  1  0.18391506  0.96817362  0.91106003  1
  O  O41  1  0.81696566  0.81716053  0.91622847  1
  O  O42  1  0.95971918  0.14858598  0.59074646  1
  O  O43  1  0.17642766  0.02316835  0.59167781  1
  O  O44  1  0.84041671  0.79836056  0.58800746  1
  O  O45  1  0.97821951  0.81508136  0.09359171  1
  O  O46  1  0.84502741  0.03111065  0.09378986  1
  O  O47  1  0.19468568  0.17386773  0.08999973  1
  O  O48  1  0.67929112  0.17098582  0.74845850  1
  O  O49  1  0.46741692  0.33284571  0.74042576  1
  O  O50  1  0.85000528  0.54309709  0.74731432  1
  O  O51  1  0.67930898  0.53636836  0.24270721  1
  O  O52  1  0.86449664  0.33246803  0.24680091  1
  O  O53  1  0.48620380  0.17775587  0.24692684  1
  O  O54  1  0.61647195  0.46874715  0.92491871  1
  O  O55  1  0.85688619  0.36052584  0.92219216  1
  O  O56  1  0.49902367  0.12599445  0.92131992  1
  O  O57  1  0.63587335  0.14842873  0.42276422  1
  O  O58  1  0.51057281  0.37681819  0.41973057  1
  O  O59  1  0.86213222  0.49941445  0.42040964  1
  O  O60  1  0.34264775  0.48181631  0.07509389  1
  O  O61  1  0.15078559  0.65086049  0.07476069  1
  O  O62  1  0.50663885  0.84385685  0.07030258  1
  O  O63  1  0.35262026  0.85135925  0.57724628  1
  O  O64  1  0.53044379  0.65426059  0.57987334  1
  O  O65  1  0.16548141  0.49091088  0.57242453  1
  O  O66  1  0.30352015  0.82568350  0.25936509  1
  O  O67  1  0.52750140  0.69649943  0.25579214  1
  O  O68  1  0.17697861  0.47040685  0.25660779  1
  O  O69  1  0.28568179  0.46137434  0.75390782  1
  O  O70  1  0.16365201  0.69458895  0.75312182  1
  O  O71  1  0.51031543  0.82131399  0.75640100  1
loop_
_geom_bond_atom_site_label_1
_geom_bond_atom_site_label_2
_geom_bond_distance
_geom_bond_site_symmetry_2
Na0 O48 2.326451 1_555
Na0 O12 2.389515 1_555
Na0 O69 2.415249 1_655
Na0 O50 2.467522 1_555
Na0 O70 2.636059 1_655
Na0 O5 2.716666 1_555
Na0 O33 2.794416 1_655
Na0 O7 2.902663 1_655
Na1 O63 2.300628 1_555
Na1 O42 2.426448 1_565
Na1 O64 2.450526 1_555
Na1 O27 2.502169 1_555
Na1 O13 2.795931 1_565
Na1 O44 2.806882 1_555
Na1 O23 2.818542 1_565
Na1 O6 2.823788 1_555
Na2 O0 2.316485 1_555
Na2 O38 2.353762 1_555
Na2 O36 2.421861 1_545
Na2 O57 2.442203 1_555
Na2 O58 2.717538 1_555
Na3 O37 2.357169 1_545
Na3 O38 2.519032 1_655
Na3 O36 2.636651 1_645
Na3 O42 2.656252 1_555
Na3 O44 2.713051 1_545
Na3 O43 2.766460 1_655
Na4 O39 2.270655 1_665
Na4 O41 2.288733 1_555
Na4 O40 2.623859 1_655
Na4 O46 2.738202 1_566
Na4 O45 2.838218 1_556
Na4 O47 2.877309 1_666
Na5 O48 2.318167 1_555
Na5 O50 2.572277 1_555
Na5 O49 2.634321 1_555
Na5 O56 2.666589 1_555
Na5 O54 2.677377 1_555
Na5 O55 2.716632 1_555
Na6 O53 2.252053 1_555
Na6 O52 2.417082 1_555
Na6 O51 2.500446 1_555
Na6 O57 2.761169 1_555
Na6 O58 2.775866 1_555
Na6 O59 2.809942 1_555
Na7 O61 2.486312 1_555
Na7 O62 2.568409 1_555
Na7 O66 2.592311 1_555
Na7 O68 2.714501 1_555
Na7 O67 2.729840 1_555
Na7 O60 2.733980 1_555
Na8 O63 2.300978 1_555
Na8 O65 2.396243 1_555
Na8 O64 2.610881 1_555
Na8 O70 2.664014 1_555
Na8 O71 2.803458 1_555
Na8 O69 2.829736 1_555
O0 Si0 1.603953 1_555
O0 Zn0 1.939095 1_455
O1 S0 1.448212 1_555
O1 Zn0 2.084488 1_565
O2 S1 1.455666 1_655
O2 Zn0 2.016012 1_555
O3 S2 1.444109 1_555
O3 Zn1 2.362911 1_445
O4 S3 1.439514 1_655
O4 Zn1 2.266792 1_555
O5 Si1 1.583774 1_555
O5 Zn1 1.877109 1_545
O6 Si1 1.709557 1_565
O6 Ta0 1.939452 1_565
O7 S2 1.546194 1_555
O7 Ta0 2.079620 1_455
O8 S3 1.530149 1_555
O8 Ta0 2.097827 1_465
O9 S0 1.524635 1_555
O9 Ta1 2.087609 1_555
O10 S1 1.501112 1_555
O10 Ta1 2.207525 1_445
O11 Si0 1.685379 1_565
O11 Ta1 1.922722 1_455
O12 Si2 1.593850 1_555
O12 Zn2 1.961122 1_555
O13 Si3 1.569837 1_555
O13 Zn2 1.874793 1_555
O14 S4 1.442401 1_555
O14 Zn2 2.180785 1_555
O15 Si4 1.567073 1_555
O15 Zn3 1.960104 1_555
O16 Si5 1.571953 1_555
O16 Zn3 1.907032 1_555
O17 S5 1.443009 1_555
O17 Zn3 2.256761 1_555
O18 S5 1.474432 1_555
O18 Ta2 2.289365 1_554
O19 Si4 1.682556 1_555
O19 Ta2 1.884357 1_554
O20 Si5 1.670692 1_555
O20 Ta2 1.929487 1_554
O21 Si3 1.741023 1_555
O21 Ta3 1.876881 1_555
O22 S4 1.519636 1_555
O22 Ta3 2.141628 1_555
O23 Si2 1.739679 1_555
O23 Ta3 1.880627 1_555
O24 Si6 1.634837 1_555
O24 Ta4 1.907233 1_556
O25 Si7 1.637487 1_555
O25 Ta4 1.909437 1_556
O26 S6 1.497739 1_555
O26 Ta4 2.062286 1_556
O27 Si8 1.587563 1_555
O27 Zn4 1.994386 1_555
O28 S7 1.438538 1_555
O28 Zn4 2.138234 1_555
O29 S8 1.447995 1_555
O29 Zn4 2.095281 1_555
O30 S8 1.538909 1_555
O30 Ta5 2.077591 1_555
O31 Si8 1.731096 1_555
O31 Ta5 1.887754 1_555
O32 S7 1.516740 1_555
O32 Ta5 2.167057 1_555
O33 Si7 1.661803 1_555
O33 Ta6 1.949963 1_555
O34 S6 1.524897 1_555
O34 Ta6 2.059163 1_555
O35 Si6 1.700901 1_555
O35 Ta6 1.864795 1_555
O36 S8 1.466105 1_555
O36 Zn0 2.291039 1_465
O37 Si8 1.592559 1_555
O37 Zn0 1.965442 1_565
O38 S7 1.477037 1_555
O38 Zn0 2.339618 1_455
O39 Si7 1.579285 1_555
O39 Zn1 1.989283 1_445
O40 S6 1.436460 1_555
O40 Zn1 2.423112 1_455
O41 Si6 1.578247 1_555
O41 Zn1 1.959006 1_555
O42 Si2 1.710264 1_555
O42 Ta0 1.937840 1_555
O43 Si3 1.650787 1_555
O43 Ta0 1.935693 1_455
O44 S4 1.549888 1_555
O44 Ta0 2.088334 1_565
O45 Si4 1.694908 1_555
O45 Ta1 1.885515 1_555
O46 Si5 1.676273 1_555
O46 Ta1 1.951926 1_545
O47 S5 1.525203 1_555
O47 Ta1 2.071151 1_445
O48 Si1 1.613883 1_555
O48 Zn2 1.981682 1_555
O49 S2 1.442898 1_555
O49 Zn2 2.354011 1_555
O50 S3 1.469578 1_655
O50 Zn2 2.425769 1_555
O51 S0 1.439487 1_555
O51 Zn3 2.404451 1_555
O52 S1 1.453202 1_655
O52 Zn3 2.239918 1_555
O53 Si0 1.591485 1_555
O53 Zn3 2.031650 1_555
O54 Si6 1.647190 1_555
O54 Ta2 1.966308 1_555
O55 Si7 1.684144 1_655
O55 Ta2 1.892124 1_555
O56 S6 1.488064 1_545
O56 Ta2 2.254620 1_555
O57 Si8 1.732689 1_545
O57 Ta3 1.942609 1_555
O58 S7 1.539887 1_555
O58 Ta3 2.211719 1_555
O59 S8 1.502480 1_655
O59 Ta3 2.189161 1_555
O60 S5 1.515851 1_555
O60 Ta4 2.069823 1_555
O61 Si4 1.645513 1_455
O61 Ta4 1.986842 1_555
O62 Si5 1.652102 1_565
O62 Ta4 1.939773 1_555
O63 Si3 1.592932 1_565
O63 Zn4 1.992942 1_555
O64 S4 1.458884 1_555
O64 Zn4 2.314113 1_555
O65 Si2 1.574794 1_455
O65 Zn4 1.959624 1_555
O66 Si0 1.759043 1_565
O66 Ta5 1.878027 1_555
O67 S0 1.558578 1_555
O67 Ta5 2.041137 1_555
O68 S1 1.545726 1_555
O68 Ta5 2.112377 1_555
O69 S2 1.563594 1_555
O69 Ta6 2.113449 1_555
O70 S3 1.538851 1_555
O70 Ta6 2.225548 1_555
O71 Si1 1.681144 1_565
O71 Ta6 1.922454 1_555
