# generated using pymatgen
data_Na10Zr4Al4Si7S5O48
_symmetry_space_group_name_H-M   'P 1'
_cell_length_a   17.87971410
_cell_length_b   8.91082681
_cell_length_c   22.46372040
_cell_angle_alpha   89.76263241
_cell_angle_beta   91.08992074
_cell_angle_gamma   119.81110764
_symmetry_Int_Tables_number   1
_chemical_formula_structural   Na10Zr4Al4Si7S5O48
_chemical_formula_sum   'Na30 Zr12 Al12 Si21 S15 O144'
_cell_volume   3104.75729275
_cell_formula_units_Z   3
loop_
 _symmetry_equiv_pos_site_id
 _symmetry_equiv_pos_as_xyz
  1  'x, y, z'
loop_
 _atom_site_type_symbol
 _atom_site_label
 _atom_site_symmetry_multiplicity
 _atom_site_fract_x
 _atom_site_fract_y
 _atom_site_fract_z
 _atom_site_occupancy
  Na  Na0  1  0.18330433  0.37126049  0.24197439  1
  Na  Na1  1  0.68332875  0.37196600  0.24242834  1
  Na  Na2  1  0.99514892  0.62993137  0.25366032  1
  Na  Na3  1  0.49533447  0.62947745  0.25360018  1
  Na  Na4  1  0.49503723  0.35817094  0.75721359  1
  Na  Na5  1  0.18282679  0.99394816  0.74610534  1
  Na  Na6  1  0.68520690  0.99804769  0.74448142  1
  Na  Na7  1  0.65593476  0.33468397  0.57984488  1
  Na  Na8  1  0.01782272  0.70441073  0.57896784  1
  Na  Na9  1  0.82822151  0.96062047  0.58974404  1
  Na  Na10  1  0.48795249  0.66399211  0.91173273  1
  Na  Na11  1  0.98935575  0.66595120  0.91099168  1
  Na  Na12  1  0.85129437  0.03833964  0.90695777  1
  Na  Na13  1  0.16012603  0.29364410  0.92167726  1
  Na  Na14  1  0.48950374  0.31459234  0.41140298  1
  Na  Na15  1  0.98722845  0.31103058  0.41114611  1
  Na  Na16  1  0.35368119  0.66575268  0.40684680  1
  Na  Na17  1  0.85268955  0.66629449  0.41044171  1
  Na  Na18  1  0.01832875  0.00648658  0.49623772  1
  Na  Na19  1  0.51430407  0.99353103  0.49458199  1
  Na  Na20  1  0.01200786  0.01862997  0.99817373  1
  Na  Na21  1  0.51429392  0.03622419  0.99381722  1
  Na  Na22  1  0.33846920  0.32351001  0.83134484  1
  Na  Na23  1  0.84215927  0.33835941  0.82543945  1
  Na  Na24  1  0.33430137  0.33189625  0.32796738  1
  Na  Na25  1  0.83343554  0.33114167  0.32942478  1
  Na  Na26  1  0.17515547  0.66481696  0.15937186  1
  Na  Na27  1  0.67523546  0.66591448  0.15986962  1
  Na  Na28  1  0.17537407  0.67620993  0.66534427  1
  Na  Na29  1  0.67240452  0.68385444  0.66400718  1
  Zr  Zr0  1  0.99929021  0.99081839  0.64820168  1
  Zr  Zr1  1  0.49497331  0.98191527  0.64748880  1
  Zr  Zr2  1  0.00011730  0.01286252  0.14487592  1
  Zr  Zr3  1  0.49964976  0.01196374  0.14489759  1
  Zr  Zr4  1  0.33034817  0.31891241  0.97934057  1
  Zr  Zr5  1  0.82442696  0.32260280  0.98049571  1
  Zr  Zr6  1  0.32634482  0.32926483  0.48026426  1
  Zr  Zr7  1  0.82800911  0.33881483  0.48069358  1
  Zr  Zr8  1  0.16470957  0.65559575  0.31270681  1
  Zr  Zr9  1  0.66413403  0.65571511  0.31339008  1
  Zr  Zr10  1  0.16180225  0.67137408  0.81281060  1
  Zr  Zr11  1  0.66561349  0.67461505  0.81356693  1
  Al  Al0  1  0.00091470  0.00078691  0.35257354  1
  Al  Al1  1  0.50298225  0.00076536  0.35182286  1
  Al  Al2  1  0.99746447  0.99529475  0.85078255  1
  Al  Al3  1  0.49690281  -0.00144385  0.85439729  1
  Al  Al4  1  0.33303333  0.31591477  0.69025744  1
  Al  Al5  1  0.83211969  0.33293669  0.68773975  1
  Al  Al6  1  0.33716076  0.35622085  0.18629570  1
  Al  Al7  1  0.83676113  0.35669456  0.18671757  1
  Al  Al8  1  0.15872822  0.64316435  0.01615811  1
  Al  Al9  1  0.65389561  0.63906556  0.01702970  1
  Al  Al10  1  0.16125748  0.67330712  0.51549355  1
  Al  Al11  1  0.66097248  0.66468980  0.52080327  1
  Si  Si0  1  0.35780206  0.71379066  0.25129539  1
  Si  Si1  1  0.85774539  0.71424970  0.25119112  1
  Si  Si2  1  0.98907652  0.27914341  0.25240027  1
  Si  Si3  1  0.48918653  0.27913341  0.25248538  1
  Si  Si4  1  0.98953843  0.69545850  0.75259093  1
  Si  Si5  1  0.48947318  0.69717192  0.75341294  1
  Si  Si6  1  0.35678144  0.00040982  0.75180128  1
  Si  Si7  1  0.85746834  0.01157302  0.75092794  1
  Si  Si8  1  0.19160463  0.03222841  0.58691197  1
  Si  Si9  1  0.68744669  0.03427350  0.58598444  1
  Si  Si10  1  0.82723811  0.61870590  0.58509512  1
  Si  Si11  1  0.19195180  0.35074001  0.08411947  1
  Si  Si12  1  0.69000623  0.35151098  0.08644050  1
  Si  Si13  1  0.02126514  0.36530355  0.91725535  1
  Si  Si14  1  0.52224586  0.36133064  0.91575761  1
  Si  Si15  1  0.16076892  0.94710398  0.91949817  1
  Si  Si16  1  0.65899876  0.94622244  0.92076906  1
  Si  Si17  1  0.15979743  0.37148076  0.41998996  1
  Si  Si18  1  0.65918300  0.36480738  0.41966292  1
  Si  Si19  1  0.02290882  0.68143512  0.41694684  1
  Si  Si20  1  0.52542590  0.68144420  0.41829590  1
  S  S0  1  0.14686215  0.00842418  0.25145017  1
  S  S1  1  0.64699681  0.00829666  0.25129458  1
  S  S2  1  0.14889300  0.29071623  0.75165553  1
  S  S3  1  0.64647256  0.28595198  0.75063888  1
  S  S4  1  0.48071663  0.34075594  0.58528291  1
  S  S5  1  0.98281341  0.34173436  0.58351698  1
  S  S6  1  0.32609700  0.61712535  0.58386456  1
  S  S7  1  0.48199363  0.62215182  0.08499045  1
  S  S8  1  0.98225570  0.62205831  0.08464361  1
  S  S9  1  0.32622775  0.03612234  0.08626607  1
  S  S10  1  0.82708620  0.03868177  0.08512419  1
  S  S11  1  0.31313238  0.67641963  0.91949209  1
  S  S12  1  0.81255681  0.67200786  0.91941620  1
  S  S13  1  0.31128921  0.95199824  0.41961445  1
  S  S14  1  0.81307332  0.95475776  0.41926898  1
  O  O0  1  0.10533487  0.03499443  0.30378101  1
  O  O1  1  0.60534052  0.03489581  0.30366304  1
  O  O2  1  0.41865704  0.80404618  0.31073480  1
  O  O3  1  0.91888216  0.80474263  0.31031829  1
  O  O4  1  0.48177945  0.16689852  0.31190241  1
  O  O5  1  0.98231157  0.16792578  0.31188419  1
  O  O6  1  0.10826907  0.18301610  0.80517773  1
  O  O7  1  0.60420688  0.17483351  0.80204004  1
  O  O8  1  0.48217589  0.79479432  0.81199572  1
  O  O9  1  0.98550106  0.80108152  0.81096916  1
  O  O10  1  0.42356417  0.03621611  0.80658163  1
  O  O11  1  0.91587388  0.02656532  0.81010327  1
  O  O12  1  0.40075664  0.98316241  0.69078604  1
  O  O13  1  0.90016622  0.98785424  0.69020876  1
  O  O14  1  0.09583996  0.21399894  0.69760090  1
  O  O15  1  0.59383919  0.21432889  0.69453615  1
  O  O16  1  0.01461784  0.82132068  0.69368881  1
  O  O17  1  0.51724727  0.82831734  0.69603351  1
  O  O18  1  0.40530283  0.82505870  0.19297378  1
  O  O19  1  0.90535177  0.82604461  0.19267981  1
  O  O20  1  0.01875809  0.20514202  0.19645342  1
  O  O21  1  0.51836982  0.20432854  0.19660655  1
  O  O22  1  0.09321151  0.97390983  0.19675988  1
  O  O23  1  0.59324812  0.97370222  0.19675238  1
  O  O24  1  0.43687962  0.35683005  0.63831607  1
  O  O25  1  0.93884579  0.36511828  0.63447646  1
  O  O26  1  0.25009752  0.13798730  0.64576988  1
  O  O27  1  0.74887432  0.12917294  0.64481628  1
  O  O28  1  0.32078051  0.51189519  0.63595304  1
  O  O29  1  0.81452226  0.48518188  0.63820867  1
  O  O30  1  0.43892150  0.51666668  0.13869607  1
  O  O31  1  0.93851108  0.51722834  0.13830437  1
  O  O32  1  0.32153867  0.13079658  0.13800032  1
  O  O33  1  0.82284628  0.13561115  0.13637563  1
  O  O34  1  0.25071472  0.36204558  0.14375882  1
  O  O35  1  0.74906701  0.36364728  0.14584606  1
  O  O36  1  0.23561528  0.32118904  0.02465683  1
  O  O37  1  0.73596111  0.32052064  0.02894726  1
  O  O38  1  0.42972427  0.54121263  0.03037107  1
  O  O39  1  0.93041476  0.54143350  0.02975792  1
  O  O40  1  0.34152591  0.14026697  0.03076041  1
  O  O41  1  0.84202889  0.13966164  0.02872407  1
  O  O42  1  0.23680770  0.15176619  0.52851318  1
  O  O43  1  0.73415467  0.16076656  0.52881993  1
  O  O44  1  0.34135186  0.54479315  0.52819416  1
  O  O45  1  0.85236615  0.55143927  0.52412444  1
  O  O46  1  0.43041807  0.31795188  0.52994996  1
  O  O47  1  0.93101549  0.31073342  0.52731975  1
  O  O48  1  0.27056018  0.69484332  0.97190550  1
  O  O49  1  0.77010126  0.69336024  0.97123259  1
  O  O50  1  0.08593564  0.45483046  0.97409790  1
  O  O51  1  0.58177913  0.46014995  0.97351912  1
  O  O52  1  0.14941387  0.81634534  0.97424837  1
  O  O53  1  0.65068497  0.81749709  0.97535310  1
  O  O54  1  0.26723802  0.84567117  0.47166329  1
  O  O55  1  0.77216467  0.85065730  0.47261549  1
  O  O56  1  0.15122193  0.48330438  0.47404503  1
  O  O57  1  0.64791042  0.46376463  0.47714493  1
  O  O58  1  0.07923827  0.70007908  0.47723418  1
  O  O59  1  0.58669282  0.69700554  0.47452343  1
  O  O60  1  0.06586825  0.64729133  0.35825207  1
  O  O61  1  0.56189409  0.64185801  0.35685655  1
  O  O62  1  0.26043309  0.88180534  0.36426946  1
  O  O63  1  0.76008208  0.87928306  0.36493303  1
  O  O64  1  0.18346446  0.48895789  0.35889532  1
  O  O65  1  0.68106373  0.48877612  0.36047448  1
  O  O66  1  0.06414562  0.48973603  0.86002786  1
  O  O67  1  0.56213318  0.48237955  0.85591073  1
  O  O68  1  0.18043351  0.87808148  0.85769138  1
  O  O69  1  0.68340324  0.87697826  0.85977051  1
  O  O70  1  0.25912204  0.63799375  0.86495709  1
  O  O71  1  0.76168607  0.64010492  0.86399234  1
  O  O72  1  0.00766309  0.84642925  0.40875944  1
  O  O73  1  0.50843171  0.84460424  0.40923243  1
  O  O74  1  0.39675687  0.96381963  0.41613702  1
  O  O75  1  0.89877843  0.96683974  0.41415480  1
  O  O76  1  0.07337590  0.18422405  0.40987583  1
  O  O77  1  0.57227691  0.17879756  0.40852982  1
  O  O78  1  0.00980471  0.17172340  0.90769531  1
  O  O79  1  0.51061271  0.17092779  0.90699523  1
  O  O80  1  0.07428249  0.96784593  0.91064624  1
  O  O81  1  0.57247855  0.95993647  0.91004039  1
  O  O82  1  0.39958403  0.82866921  0.91377260  1
  O  O83  1  0.89902147  0.83069525  0.91465674  1
  O  O84  1  0.49342812  0.18788013  0.58874696  1
  O  O85  1  0.99258112  0.18672716  0.58876813  1
  O  O86  1  0.09423200  0.00968852  0.58876585  1
  O  O87  1  0.59413149  0.03070819  0.58785389  1
  O  O88  1  0.40499441  0.79370196  0.58675500  1
  O  O89  1  0.91137378  0.81578677  0.58857547  1
  O  O90  1  0.49148023  0.79627640  0.08926796  1
  O  O91  1  0.99143154  0.79663607  0.08856217  1
  O  O92  1  0.40420842  0.01497059  0.08884749  1
  O  O93  1  0.90552065  0.01780007  0.08794671  1
  O  O94  1  0.09571086  0.17377698  0.08793692  1
  O  O95  1  0.59459220  0.17473103  0.08902258  1
  O  O96  1  0.34544834  0.17477178  0.74496775  1
  O  O97  1  0.84082227  0.17641828  0.74354464  1
  O  O98  1  0.23429650  0.29996470  0.74567961  1
  O  O99  1  0.73186391  0.30017745  0.74495545  1
  O  O100  1  0.40716223  0.50519031  0.73831132  1
  O  O101  1  0.90518386  0.50944982  0.74071779  1
  O  O102  1  0.34573798  0.51618156  0.24432419  1
  O  O103  1  0.84623865  0.51699637  0.24439495  1
  O  O104  1  0.40720010  0.30872176  0.23836846  1
  O  O105  1  0.90707046  0.30829913  0.23818575  1
  O  O106  1  0.23258339  0.16432188  0.24554752  1
  O  O107  1  0.73265526  0.16409312  0.24560302  1
  O  O108  1  0.32572836  0.52049512  0.92466028  1
  O  O109  1  0.82960634  0.52389528  0.92407248  1
  O  O110  1  0.42874310  0.36136500  0.92217407  1
  O  O111  1  0.92638332  0.35199989  0.92392475  1
  O  O112  1  0.24245977  0.14813310  0.92229106  1
  O  O113  1  0.74693334  0.13806158  0.92409731  1
  O  O114  1  0.32791604  0.13380107  0.42395179  1
  O  O115  1  0.82878613  0.13484693  0.42326930  1
  O  O116  1  0.24777779  0.35540480  0.42315526  1
  O  O117  1  0.74720485  0.35014842  0.42031158  1
  O  O118  1  0.42835683  0.50171342  0.42429614  1
  O  O119  1  0.92806509  0.49837627  0.41976419  1
  O  O120  1  0.18304103  0.52486495  0.07533030  1
  O  O121  1  0.68166900  0.52514162  0.07576587  1
  O  O122  1  0.06797992  0.63643061  0.08074175  1
  O  O123  1  0.56786689  0.63660419  0.08087197  1
  O  O124  1  0.24843296  0.86649169  0.07952911  1
  O  O125  1  0.74963640  0.86824967  0.07967480  1
  O  O126  1  0.17868064  0.83643652  0.57670405  1
  O  O127  1  0.68037037  0.84583404  0.57586947  1
  O  O128  1  0.24907148  0.63410454  0.57732871  1
  O  O129  1  0.74075603  0.63645823  0.57485176  1
  O  O130  1  0.06854114  0.49978281  0.57850868  1
  O  O131  1  0.56756978  0.49678162  0.58205159  1
  O  O132  1  0.15609124  0.85267902  0.25736636  1
  O  O133  1  0.65613329  0.85260636  0.25744409  1
  O  O134  1  0.25978864  0.68573270  0.25380599  1
  O  O135  1  0.75948204  0.68528398  0.25410935  1
  O  O136  1  0.07543035  0.47869161  0.25575161  1
  O  O137  1  0.57565765  0.47848790  0.25572041  1
  O  O138  1  0.16202348  0.46628268  0.75675812  1
  O  O139  1  0.65544935  0.45987625  0.75583137  1
  O  O140  1  0.07904581  0.68222424  0.75431711  1
  O  O141  1  0.57626562  0.67265510  0.75512159  1
  O  O142  1  0.25987448  0.83303255  0.75426269  1
  O  O143  1  0.75973290  0.83616889  0.75404538  1
loop_
_geom_bond_atom_site_label_1
_geom_bond_atom_site_label_2
_geom_bond_distance
_geom_bond_site_symmetry_2
Na0 O106 2.407201 1_555
Na0 O134 2.444440 1_555
Na0 O102 2.524060 1_555
Na0 O34 2.555036 1_555
Na0 O136 2.567745 1_555
Na0 O20 2.731376 1_555
Na0 O64 2.831589 1_555
Na0 O0 2.955572 1_555
Na1 O107 2.415536 1_555
Na1 O135 2.435233 1_555
Na1 O35 2.505822 1_555
Na1 O103 2.531637 1_555
Na1 O137 2.556825 1_555
Na1 O21 2.739819 1_555
Na1 O65 2.861072 1_555
Na1 O1 2.955074 1_555
Na2 O103 2.336967 1_555
Na2 O136 2.408140 1_655
Na2 O105 2.512903 1_555
Na2 O132 2.557433 1_655
Na2 O60 2.615052 1_655
Na2 O31 2.767594 1_555
Na2 O3 2.846101 1_555
Na2 O22 2.968554 1_655
Na3 O102 2.347880 1_555
Na3 O137 2.406888 1_555
Na3 O104 2.505775 1_555
Na3 O133 2.556326 1_555
Na3 O61 2.564212 1_555
Na3 O30 2.757653 1_555
Na3 O2 2.854903 1_555
Na3 O23 2.969430 1_555
Na4 O96 2.351532 1_555
Na4 O141 2.432965 1_555
Na4 O67 2.485698 1_555
Na4 O100 2.526215 1_555
Na4 O139 2.543055 1_555
Na4 O10 2.734179 1_555
Na4 O24 2.845570 1_555
Na5 O98 2.405780 1_565
Na5 O142 2.437134 1_555
Na5 O140 2.465132 1_555
Na5 O96 2.528920 1_565
Na5 O26 2.591984 1_565
Na5 O68 2.699956 1_555
Na5 O16 2.842230 1_555
Na5 O6 2.948768 1_565
Na6 O99 2.389760 1_565
Na6 O143 2.408342 1_555
Na6 O97 2.423450 1_565
Na6 O27 2.535021 1_565
Na6 O141 2.579702 1_555
Na6 O69 2.795984 1_555
Na6 O17 2.804219 1_555
Na6 O7 2.933832 1_565
Na7 O129 2.343659 1_555
Na7 O87 2.370201 1_555
Na7 O84 2.536599 1_555
Na7 O57 2.606806 1_555
Na7 O131 2.618714 1_555
Na7 O29 2.765809 1_555
Na7 O43 2.811080 1_555
Na7 O15 2.814722 1_555
Na8 O86 2.369214 1_565
Na8 O130 2.406622 1_555
Na8 O126 2.509852 1_555
Na8 O89 2.559203 1_455
Na8 O58 2.562872 1_555
Na8 O16 2.795892 1_555
Na8 O45 2.827242 1_455
Na8 O25 2.912131 1_455
Na9 O127 2.326900 1_555
Na9 O89 2.405466 1_555
Na9 O13 2.527944 1_555
Na9 O129 2.529416 1_555
Na9 O85 2.609770 1_565
Na9 O55 2.798600 1_555
Na9 O27 2.828398 1_565
Na10 O81 2.297496 1_555
Na10 O110 2.369267 1_555
Na10 O108 2.544348 1_555
Na10 O8 2.545216 1_555
Na10 O82 2.638251 1_555
Na10 O67 2.857409 1_555
Na10 O53 2.877526 1_555
Na10 O38 2.886570 1_556
Na11 O80 2.341230 1_655
Na11 O111 2.460152 1_555
Na11 O109 2.506177 1_555
Na11 O9 2.560728 1_555
Na11 O83 2.670972 1_555
Na11 O66 2.779439 1_655
Na11 O52 2.837748 1_655
Na11 O39 2.894716 1_556
Na12 O83 2.396519 1_545
Na12 O111 2.453160 1_555
Na12 O78 2.468662 1_655
Na12 O113 2.469491 1_555
Na12 O11 2.509163 1_555
Na12 O69 2.793230 1_545
Na12 O41 2.917366 1_556
Na13 O78 2.360113 1_555
Na13 O112 2.396966 1_555
Na13 O80 2.531092 1_545
Na13 O36 2.605745 1_556
Na13 O108 2.626826 1_555
Na13 O50 2.679000 1_555
Na13 O6 2.774976 1_555
Na14 O77 2.333135 1_555
Na14 O118 2.426517 1_555
Na14 O114 2.534037 1_555
Na14 O4 2.564945 1_555
Na14 O74 2.716870 1_545
Na14 O61 2.821121 1_555
Na14 O57 2.843145 1_555
Na14 O46 2.889236 1_555
Na15 O76 2.320032 1_655
Na15 O119 2.389497 1_555
Na15 O115 2.483537 1_555
Na15 O5 2.551554 1_555
Na15 O75 2.663066 1_545
Na15 O47 2.813850 1_555
Na15 O60 2.865672 1_655
Na15 O56 2.887112 1_655
Na16 O74 2.378180 1_555
Na16 O73 2.410215 1_555
Na16 O118 2.447211 1_555
Na16 O116 2.485731 1_555
Na16 O2 2.485880 1_555
Na16 O64 2.833153 1_555
Na16 O44 2.898832 1_555
Na17 O75 2.379752 1_555
Na17 O72 2.415977 1_655
Na17 O119 2.467934 1_555
Na17 O117 2.504072 1_555
Na17 O3 2.570577 1_555
Na17 O45 2.746286 1_555
Na17 O65 2.869825 1_555
Na18 O72 2.381311 1_545
Na18 O76 2.395414 1_555
Na18 O86 2.453072 1_555
Na18 O75 2.682976 1_445
Na18 O89 2.781684 1_445
Na18 O85 2.812680 1_455
Na19 O73 2.307145 1_555
Na19 O77 2.425874 1_565
Na19 O87 2.441058 1_565
Na19 O74 2.627209 1_555
Na19 O88 2.817942 1_555
Na19 O84 2.883760 1_565
Na20 O80 2.429428 1_545
Na20 O78 2.453764 1_555
Na20 O94 2.463347 1_556
Na20 O83 2.631235 1_445
Na20 O91 2.728137 1_446
Na20 O93 2.797121 1_456
Na21 O79 2.302872 1_555
Na21 O81 2.423699 1_545
Na21 O95 2.510309 1_556
Na21 O82 2.641204 1_545
Na21 O92 2.872805 1_556
Na21 O90 2.909231 1_546
Na22 O96 2.394186 1_555
Na22 O110 2.494225 1_555
Na22 O100 2.567023 1_555
Na22 O98 2.587434 1_555
Na22 O112 2.646212 1_555
Na22 O108 2.823705 1_555
Na23 O97 2.335227 1_555
Na23 O101 2.359136 1_555
Na23 O99 2.544765 1_555
Na23 O111 2.621160 1_555
Na23 O113 2.843484 1_555
Na23 O109 2.847997 1_555
Na24 O102 2.433928 1_555
Na24 O106 2.481907 1_555
Na24 O104 2.482629 1_555
Na24 O118 2.675600 1_555
Na24 O116 2.731507 1_555
Na24 O114 2.748717 1_555
Na25 O103 2.461106 1_555
Na25 O107 2.497081 1_555
Na25 O105 2.519540 1_555
Na25 O119 2.566941 1_555
Na25 O117 2.637495 1_555
Na25 O115 2.709620 1_555
Na26 O120 2.311640 1_555
Na26 O124 2.425822 1_555
Na26 O122 2.499792 1_555
Na26 O134 2.534836 1_555
Na26 O136 2.791810 1_555
Na26 O132 2.896674 1_555
Na27 O121 2.308142 1_555
Na27 O125 2.438270 1_555
Na27 O123 2.505671 1_555
Na27 O135 2.530522 1_555
Na27 O137 2.784754 1_555
Na27 O133 2.883077 1_555
Na28 O126 2.429774 1_555
Na28 O142 2.456480 1_555
Na28 O128 2.526469 1_555
Na28 O130 2.612103 1_555
Na28 O140 2.680957 1_555
Na28 O138 2.704793 1_555
Na29 O127 2.409619 1_555
Na29 O143 2.483242 1_555
Na29 O129 2.509240 1_555
Na29 O131 2.543427 1_555
Na29 O141 2.667500 1_555
Na29 O139 2.778151 1_555
Al0 O3 1.875411 1_445
Al0 O5 1.906292 1_455
Al0 O72 1.908999 1_545
Al0 O76 1.963590 1_555
Al0 O0 2.071039 1_555
Al0 O75 2.209846 1_445
Al1 O2 1.878970 1_545
Al1 O4 1.916640 1_555
Al1 O77 1.917515 1_555
Al1 O73 1.929804 1_545
Al1 O1 2.032602 1_555
Al1 O74 2.298185 1_545
Al2 O11 1.841787 1_565
Al2 O9 1.864964 1_555
Al2 O78 1.953403 1_665
Al2 O80 2.003921 1_655
Al2 O6 2.130858 1_665
Al2 O83 2.195429 1_555
Al3 O10 1.834867 1_555
Al3 O79 1.856074 1_555
Al3 O8 1.950058 1_545
Al3 O81 1.975167 1_545
Al3 O82 2.133283 1_545
Al3 O7 2.146080 1_555
Al4 O26 1.824963 1_555
Al4 O96 1.842802 1_555
Al4 O100 1.872052 1_555
Al4 O24 2.085101 1_555
Al4 O98 2.125901 1_555
Al4 O28 2.222253 1_555
Al5 O101 1.873551 1_555
Al5 O29 1.891037 1_555
Al5 O27 1.927356 1_555
Al5 O97 1.932555 1_555
Al5 O99 2.124766 1_555
Al5 O25 2.166820 1_555
Al6 O34 1.824249 1_555
Al6 O102 1.882786 1_555
Al6 O104 1.892841 1_555
Al6 O30 1.993170 1_555
Al6 O32 2.176837 1_555
Al6 O106 2.255790 1_555
Al7 O35 1.829371 1_555
Al7 O103 1.874599 1_555
Al7 O105 1.892780 1_555
Al7 O31 2.003390 1_555
Al7 O33 2.177665 1_555
Al7 O107 2.249117 1_555
Al8 O50 1.788198 1_554
Al8 O120 1.867905 1_555
Al8 O52 1.879630 1_554
Al8 O48 2.086780 1_554
Al8 O122 2.175569 1_555
Al8 O124 2.307000 1_555
Al9 O51 1.755191 1_554
Al9 O121 1.866344 1_555
Al9 O53 1.866594 1_554
Al9 O123 2.115019 1_555
Al9 O49 2.164971 1_554
Al9 O125 2.353201 1_555
Al10 O58 1.801200 1_555
Al10 O56 1.862872 1_555
Al10 O126 1.910691 1_555
Al10 O54 2.020834 1_555
Al10 O130 2.159928 1_555
Al10 O128 2.230474 1_555
Al11 O59 1.803557 1_555
Al11 O127 1.923407 1_555
Al11 O57 1.952440 1_555
Al11 O129 1.964869 1_555
Al11 O131 2.122859 1_555
Al11 O55 2.159081 1_555
O0 S0 1.483093 1_555
O1 S1 1.485251 1_555
O2 Si0 1.642286 1_555
O3 Si1 1.639055 1_555
O4 Si3 1.631937 1_555
O5 Si2 1.630427 1_555
O6 S2 1.491548 1_555
O7 S3 1.471215 1_555
O8 Si5 1.623093 1_555
O9 Si4 1.640786 1_555
O10 Si6 1.615682 1_555
O11 Si7 1.638701 1_555
O12 Si6 1.638093 1_565
O12 Zr1 1.965937 1_555
O13 Si7 1.640232 1_565
O13 Zr0 2.012237 1_555
O14 S2 1.469651 1_555
O14 Zr0 2.167583 1_445
O15 S3 1.498533 1_555
O15 Zr1 2.199504 1_545
O16 Si4 1.649215 1_455
O16 Zr0 1.946411 1_455
O17 Si5 1.645762 1_555
O17 Zr1 1.932397 1_555
O18 Si0 1.617123 1_555
O18 Zr3 2.011652 1_565
O19 Si1 1.622690 1_555
O19 Zr2 2.011271 1_665
O20 Si2 1.635891 1_455
O20 Zr2 1.955273 1_555
O21 Si3 1.633983 1_555
O21 Zr3 1.957238 1_555
O22 S0 1.479545 1_565
O22 Zr2 2.178699 1_565
O23 S1 1.477673 1_565
O23 Zr3 2.182572 1_565
O24 S4 1.484135 1_555
O25 S5 1.473406 1_555
O26 Si8 1.645532 1_555
O27 Si9 1.642723 1_555
O28 S6 1.471036 1_555
O29 Si10 1.618791 1_555
O30 S7 1.496089 1_555
O31 S8 1.495816 1_555
O32 S9 1.466788 1_555
O33 S10 1.467621 1_555
O34 Si11 1.658682 1_555
O35 Si12 1.655796 1_555
O36 Si11 1.646219 1_555
O36 Zr4 2.001389 1_554
O37 Si12 1.639609 1_555
O37 Zr5 1.929514 1_554
O38 S7 1.480718 1_555
O38 Zr4 2.199279 1_554
O39 S8 1.482288 1_555
O39 Zr5 2.209541 1_554
O40 S9 1.497230 1_555
O40 Zr4 2.049522 1_554
O41 S10 1.500209 1_555
O41 Zr5 2.100641 1_554
O42 Si8 1.637549 1_555
O42 Zr6 1.942538 1_555
O43 Si9 1.646138 1_555
O43 Zr7 1.977260 1_555
O44 S6 1.499395 1_555
O44 Zr6 2.100826 1_555
O45 Si10 1.653781 1_555
O45 Zr7 1.977365 1_555
O46 S4 1.474093 1_555
O46 Zr6 2.196598 1_555
O47 S5 1.493893 1_555
O47 Zr7 2.221321 1_555
O48 S11 1.467161 1_555
O49 S12 1.465042 1_555
O50 Si13 1.624497 1_555
O51 Si14 1.617715 1_555
O52 Si15 1.635204 1_555
O53 Si16 1.633106 1_555
O54 S13 1.472741 1_555
O55 S14 1.476843 1_555
O56 Si17 1.630917 1_555
O57 Si18 1.637551 1_555
O58 Si19 1.630840 1_555
O59 Si20 1.616280 1_555
O60 Si19 1.641709 1_555
O60 Zr8 2.028192 1_555
O61 Si20 1.649660 1_555
O61 Zr9 2.037836 1_555
O62 S13 1.470259 1_555
O62 Zr8 2.201757 1_555
O63 S14 1.472779 1_555
O63 Zr9 2.190399 1_555
O64 Si17 1.651714 1_555
O64 Zr8 1.965437 1_555
O65 Si18 1.648962 1_555
O65 Zr9 1.961040 1_555
O66 Si13 1.627975 1_555
O66 Zr10 2.009920 1_555
O67 Si14 1.655009 1_555
O67 Zr11 2.040717 1_555
O68 Si15 1.634089 1_555
O68 Zr10 1.978046 1_555
O69 Si16 1.657154 1_555
O69 Zr11 1.965375 1_555
O70 S11 1.476573 1_555
O70 Zr10 2.218698 1_555
O71 S12 1.470019 1_555
O71 Zr11 2.185552 1_555
O72 Si19 1.632192 1_555
O73 Si20 1.637685 1_555
O74 S13 1.482169 1_555
O75 S14 1.488471 1_555
O76 Si17 1.627790 1_555
O77 Si18 1.628551 1_555
O78 Si13 1.647285 1_555
O79 Si14 1.615842 1_555
O80 Si15 1.654413 1_555
O81 Si16 1.624693 1_555
O82 S11 1.472207 1_555
O83 S12 1.494126 1_555
O84 S4 1.489874 1_555
O84 Zr1 2.267014 1_545
O85 S5 1.479851 1_555
O85 Zr0 2.242139 1_545
O86 Si8 1.651711 1_555
O86 Zr0 2.119687 1_445
O87 Si9 1.654221 1_555
O87 Zr1 2.108546 1_545
O88 S6 1.503450 1_555
O88 Zr1 2.124866 1_555
O89 Si10 1.650186 1_555
O89 Zr0 2.048688 1_555
O90 S7 1.477968 1_555
O90 Zr3 2.238455 1_565
O91 S8 1.483739 1_555
O91 Zr2 2.247662 1_665
O92 S9 1.496999 1_555
O92 Zr3 2.112225 1_555
O93 S10 1.503763 1_555
O93 Zr2 2.118800 1_655
O94 Si11 1.661776 1_555
O94 Zr2 2.060228 1_555
O95 Si12 1.651111 1_555
O95 Zr3 2.044177 1_555
O96 Si6 1.669883 1_555
O97 Si7 1.644558 1_555
O98 S2 1.496361 1_555
O99 S3 1.475892 1_555
O100 Si5 1.640143 1_555
O101 Si4 1.611195 1_555
O102 Si0 1.671834 1_555
O103 Si1 1.672299 1_555
O104 Si3 1.638545 1_555
O105 Si2 1.636944 1_555
O106 S0 1.478411 1_555
O107 S1 1.476894 1_555
O108 S11 1.517719 1_555
O108 Zr4 2.206256 1_555
O109 S12 1.497808 1_555
O109 Zr5 2.157044 1_555
O110 Si14 1.680886 1_555
O110 Zr4 2.075441 1_555
O111 Si13 1.650466 1_655
O111 Zr5 2.148781 1_555
O112 Si15 1.655946 1_545
O112 Zr4 1.997347 1_555
O113 Si16 1.650463 1_545
O113 Zr5 1.978391 1_555
O114 S13 1.497889 1_545
O114 Zr6 2.168620 1_555
O115 S14 1.488011 1_545
O115 Zr7 2.238928 1_555
O116 Si17 1.649188 1_555
O116 Zr6 1.981838 1_555
O117 Si18 1.642453 1_555
O117 Zr7 2.001685 1_555
O118 Si20 1.684851 1_555
O118 Zr6 2.133835 1_555
O119 Si19 1.671340 1_655
O119 Zr7 2.154834 1_555
O120 Si11 1.647384 1_555
O121 Si12 1.642684 1_555
O122 S8 1.477557 1_455
O123 S7 1.480293 1_555
O124 S9 1.464868 1_565
O125 S10 1.463927 1_565
O126 Si8 1.658401 1_565
O127 Si9 1.636465 1_565
O128 S6 1.463015 1_555
O129 Si10 1.642651 1_555
O130 S5 1.484729 1_455
O131 S4 1.485441 1_555
O132 S0 1.481981 1_565
O132 Zr8 2.212920 1_555
O133 S1 1.480993 1_565
O133 Zr9 2.214153 1_555
O134 Si0 1.644621 1_555
O134 Zr8 2.083617 1_555
O135 Si1 1.646525 1_555
O135 Zr9 2.094260 1_555
O136 Si2 1.678777 1_455
O136 Zr8 2.026586 1_555
O137 Si3 1.678482 1_555
O137 Zr9 2.032187 1_555
O138 S2 1.466633 1_555
O138 Zr10 2.225262 1_555
O139 S3 1.481463 1_555
O139 Zr11 2.245538 1_555
O140 Si4 1.661877 1_455
O140 Zr10 1.998128 1_555
O141 Si5 1.670959 1_555
O141 Zr11 2.041745 1_555
O142 Si6 1.631928 1_565
O142 Zr10 2.107164 1_555
O143 Si7 1.670211 1_565
O143 Zr11 2.086385 1_555
