# generated using pymatgen
data_SrCaPb
_symmetry_space_group_name_H-M   'P 1'
_cell_length_a   5.21315453
_cell_length_b   8.51509185
_cell_length_c   9.68031028
_cell_angle_alpha   90.00054149
_cell_angle_beta   90.00000000
_cell_angle_gamma   90.00000000
_symmetry_Int_Tables_number   1
_chemical_formula_structural   SrCaPb
_chemical_formula_sum   'Sr4 Ca4 Pb4'
_cell_volume   429.71371330
_cell_formula_units_Z   4
loop_
 _symmetry_equiv_pos_site_id
 _symmetry_equiv_pos_as_xyz
  1  'x, y, z'
loop_
 _atom_site_type_symbol
 _atom_site_label
 _atom_site_symmetry_multiplicity
 _atom_site_fract_x
 _atom_site_fract_y
 _atom_site_fract_z
 _atom_site_occupancy
  Sr  Sr0  1  0.75000000  0.97831022  0.31829241  1
  Sr  Sr1  1  0.25000000  0.02168978  0.68170759  1
  Sr  Sr2  1  0.75000000  0.47830943  0.18170883  1
  Sr  Sr3  1  0.25000000  0.52169057  0.81829117  1
  Ca  Ca0  1  0.75000000  0.85146926  0.92955259  1
  Ca  Ca1  1  0.25000000  0.14853074  0.07044741  1
  Ca  Ca2  1  0.75000000  0.35147266  0.57044740  1
  Ca  Ca3  1  0.25000000  0.64852734  0.42955260  1
  Pb  Pb0  1  0.75000000  0.73544960  0.60905674  1
  Pb  Pb1  1  0.25000000  0.26455040  0.39094326  1
  Pb  Pb2  1  0.75000000  0.23545662  0.89094139  1
  Pb  Pb3  1  0.25000000  0.76454338  0.10905861  1
loop_
_geom_bond_atom_site_label_1
_geom_bond_atom_site_label_2
_geom_bond_distance
_geom_bond_site_symmetry_2
Ca0 Pb3 3.218952 1_656
Ca0 Pb3 3.218952 1_556
Ca0 Pb0 3.255983 1_555
Ca0 Pb2 3.290985 1_565
Ca1 Pb2 3.218952 1_554
Ca1 Pb2 3.218952 1_454
Ca1 Pb1 3.255983 1_555
Ca1 Pb3 3.290985 1_545
Ca2 Pb1 3.218927 1_555
Ca2 Pb1 3.218927 1_655
Ca2 Pb2 3.255974 1_555
Ca2 Pb0 3.290888 1_555
Ca3 Pb0 3.218927 1_555
Ca3 Pb0 3.218927 1_455
Ca3 Pb3 3.255974 1_555
Ca3 Pb1 3.290888 1_555
Pb0 Sr0 3.492725 1_555
Pb0 Sr1 3.637245 1_665
Pb0 Sr1 3.637245 1_565
Pb0 Sr3 3.769592 1_655
Pb0 Sr3 3.769592 1_555
Pb1 Sr1 3.492725 1_555
Pb1 Sr0 3.637245 1_445
Pb1 Sr0 3.637245 1_545
Pb1 Sr2 3.769592 1_455
Pb1 Sr2 3.769592 1_555
Pb2 Sr2 3.492678 1_556
Pb2 Sr3 3.637217 1_555
Pb2 Sr3 3.637217 1_655
Pb2 Sr1 3.769603 1_655
Pb2 Sr1 3.769603 1_555
Pb3 Sr3 3.492678 1_554
Pb3 Sr2 3.637217 1_455
Pb3 Sr2 3.637217 1_555
Pb3 Sr0 3.769603 1_455
Pb3 Sr0 3.769603 1_555
