# generated using pymatgen
data_MgTa5(PO4)9
_symmetry_space_group_name_H-M   'P 1'
_cell_length_a   8.74811401
_cell_length_b   8.74811372
_cell_length_c   22.54827646
_cell_angle_alpha   90.00000000
_cell_angle_beta   90.00000000
_cell_angle_gamma   120.00000105
_symmetry_Int_Tables_number   1
_chemical_formula_structural   MgTa5(PO4)9
_chemical_formula_sum   'Mg2 Ta10 P18 O72'
_cell_volume   1494.42055557
_cell_formula_units_Z   2
loop_
 _symmetry_equiv_pos_site_id
 _symmetry_equiv_pos_as_xyz
  1  'x, y, z'
loop_
 _atom_site_type_symbol
 _atom_site_label
 _atom_site_symmetry_multiplicity
 _atom_site_fract_x
 _atom_site_fract_y
 _atom_site_fract_z
 _atom_site_occupancy
  Mg  Mg0  1  0.66666700  0.33333300  0.68943546  1
  Mg  Mg1  1  0.66666700  0.33333300  0.18943546  1
  Ta  Ta0  1  0.00000000  0.00000000  0.35428248  1
  Ta  Ta1  1  0.00000000  0.00000000  0.85428248  1
  Ta  Ta2  1  0.00000000  0.00000000  0.64368888  1
  Ta  Ta3  1  0.00000000  0.00000000  0.14368888  1
  Ta  Ta4  1  0.66666700  0.33333300  0.97888044  1
  Ta  Ta5  1  0.66666700  0.33333300  0.47888044  1
  Ta  Ta6  1  0.33333300  0.66666700  0.02436164  1
  Ta  Ta7  1  0.33333300  0.66666700  0.52436164  1
  Ta  Ta8  1  0.33333300  0.66666700  0.30740597  1
  Ta  Ta9  1  0.33333300  0.66666700  0.80740597  1
  P  P0  1  0.29264093  0.00671617  0.24924848  1
  P  P1  1  0.71407524  0.70735907  0.24924848  1
  P  P2  1  0.99328383  0.28592476  0.24924848  1
  P  P3  1  0.29264093  0.28592476  0.74924848  1
  P  P4  1  0.99328383  0.70735907  0.74924848  1
  P  P5  1  0.71407524  0.00671617  0.74924848  1
  P  P6  1  0.95065583  0.33292070  0.58539112  1
  P  P7  1  0.38226587  0.04934417  0.58539112  1
  P  P8  1  0.66707930  0.61773413  0.58539112  1
  P  P9  1  0.95065583  0.61773413  0.08539112  1
  P  P10  1  0.66707930  0.04934417  0.08539112  1
  P  P11  1  0.38226587  0.33292070  0.08539112  1
  P  P12  1  0.61917339  0.66639356  0.91639947  1
  P  P13  1  0.04721917  0.38082661  0.91639947  1
  P  P14  1  0.33360644  0.95278083  0.91639947  1
  P  P15  1  0.61917339  0.95278083  0.41639947  1
  P  P16  1  0.33360644  0.38082661  0.41639947  1
  P  P17  1  0.04721917  0.66639356  0.41639947  1
  O  O0  1  0.19370816  0.02272711  0.30501758  1
  O  O1  1  0.82901895  0.80629184  0.30501758  1
  O  O2  1  0.97727289  0.17098105  0.30501758  1
  O  O3  1  0.19370816  0.17098105  0.80501758  1
  O  O4  1  0.97727289  0.80629184  0.80501758  1
  O  O5  1  0.82901895  0.02272711  0.80501758  1
  O  O6  1  0.80026428  0.96517544  0.69553223  1
  O  O7  1  0.16491116  0.19973572  0.69553223  1
  O  O8  1  0.03482456  0.83508884  0.69553223  1
  O  O9  1  0.80026428  0.83508884  0.19553223  1
  O  O10  1  0.03482456  0.19973572  0.19553223  1
  O  O11  1  0.16491116  0.96517544  0.19553223  1
  O  O12  1  0.87574113  0.36989436  0.63878615  1
  O  O13  1  0.49415423  0.12425887  0.63878615  1
  O  O14  1  0.63010564  0.50584577  0.63878615  1
  O  O15  1  0.87574113  0.50584577  0.13878615  1
  O  O16  1  0.63010564  0.12425887  0.13878615  1
  O  O17  1  0.49415423  0.36989436  0.13878615  1
  O  O18  1  0.46522627  0.30338324  0.02754137  1
  O  O19  1  0.83815797  0.53477373  0.02754137  1
  O  O20  1  0.69661676  0.16184203  0.02754137  1
  O  O21  1  0.46522627  0.16184203  0.52754137  1
  O  O22  1  0.69661676  0.53477373  0.52754137  1
  O  O23  1  0.83815797  0.30338324  0.52754137  1
  O  O24  1  0.53340381  0.69672773  0.97140932  1
  O  O25  1  0.16332292  0.46659619  0.97140932  1
  O  O26  1  0.30327227  0.83667708  0.97140932  1
  O  O27  1  0.53340381  0.83667708  0.47140932  1
  O  O28  1  0.30327227  0.46659619  0.47140932  1
  O  O29  1  0.16332292  0.69672773  0.47140932  1
  O  O30  1  0.13351524  0.63573273  0.36170117  1
  O  O31  1  0.50221649  0.86648476  0.36170117  1
  O  O32  1  0.36426727  0.49778351  0.36170117  1
  O  O33  1  0.13351524  0.49778351  0.86170117  1
  O  O34  1  0.36426727  0.86648476  0.86170117  1
  O  O35  1  0.50221649  0.63573273  0.86170117  1
  O  O36  1  0.02500357  0.82880856  0.40697655  1
  O  O37  1  0.80380500  0.97499643  0.40697655  1
  O  O38  1  0.17119144  0.19619500  0.40697655  1
  O  O39  1  0.02500357  0.19619500  0.90697655  1
  O  O40  1  0.17119144  0.97499643  0.90697655  1
  O  O41  1  0.80380500  0.82880856  0.90697655  1
  O  O42  1  0.97696178  0.17017800  0.59173913  1
  O  O43  1  0.19321622  0.02303822  0.59173913  1
  O  O44  1  0.82982200  0.80678378  0.59173913  1
  O  O45  1  0.97696178  0.80678378  0.09173913  1
  O  O46  1  0.82982200  0.02303822  0.09173913  1
  O  O47  1  0.19321622  0.17017800  0.09173913  1
  O  O48  1  0.69228007  0.16261736  0.74253505  1
  O  O49  1  0.47033828  0.30771993  0.74253505  1
  O  O50  1  0.83738264  0.52966172  0.74253505  1
  O  O51  1  0.69228007  0.52966172  0.24253505  1
  O  O52  1  0.83738264  0.30771993  0.24253505  1
  O  O53  1  0.47033828  0.16261736  0.24253505  1
  O  O54  1  0.64094211  0.50363564  0.92676440  1
  O  O55  1  0.86269453  0.35905789  0.92676440  1
  O  O56  1  0.49636436  0.13730547  0.92676440  1
  O  O57  1  0.64094211  0.13730547  0.42676440  1
  O  O58  1  0.49636436  0.35905789  0.42676440  1
  O  O59  1  0.86269453  0.50363564  0.42676440  1
  O  O60  1  0.35411794  0.49246382  0.07082410  1
  O  O61  1  0.13834488  0.64588206  0.07082410  1
  O  O62  1  0.50753618  0.86165512  0.07082410  1
  O  O63  1  0.35411794  0.86165512  0.57082410  1
  O  O64  1  0.50753618  0.64588206  0.57082410  1
  O  O65  1  0.13834488  0.49246382  0.57082410  1
  O  O66  1  0.30022655  0.83322438  0.26078226  1
  O  O67  1  0.53299683  0.69977345  0.26078226  1
  O  O68  1  0.16677562  0.46700317  0.26078226  1
  O  O69  1  0.30022655  0.46700317  0.76078226  1
  O  O70  1  0.16677562  0.69977345  0.76078226  1
  O  O71  1  0.53299683  0.83322438  0.76078226  1
loop_
_geom_bond_atom_site_label_1
_geom_bond_atom_site_label_2
_geom_bond_distance
_geom_bond_site_symmetry_2
Mg0 O48 2.012147 1_555
Mg0 O50 2.012147 1_555
Mg0 O49 2.012147 1_555
Mg0 O13 2.041287 1_555
Mg0 O14 2.041287 1_555
Mg0 O12 2.041287 1_555
Mg1 O52 2.012147 1_555
Mg1 O53 2.012147 1_555
Mg1 O51 2.012147 1_555
Mg1 O16 2.041287 1_555
Mg1 O15 2.041287 1_555
Mg1 O17 2.041287 1_555
O0 P0 1.572001 1_555
O0 Ta0 1.951456 1_555
O1 P1 1.572001 1_555
O1 Ta0 1.951456 1_665
O2 P2 1.572001 1_555
O2 Ta0 1.951456 1_655
O3 P3 1.572001 1_555
O3 Ta1 1.951456 1_555
O4 P4 1.572001 1_555
O4 Ta1 1.951456 1_665
O5 P5 1.572001 1_555
O5 Ta1 1.951456 1_655
O6 P5 1.562560 1_565
O6 Ta2 1.995019 1_665
O7 P3 1.562560 1_555
O7 Ta2 1.995019 1_555
O8 P4 1.562560 1_455
O8 Ta2 1.995019 1_565
O9 P1 1.562560 1_555
O9 Ta3 1.995019 1_665
O10 P2 1.562560 1_455
O10 Ta3 1.995019 1_555
O11 P0 1.562560 1_565
O11 Ta3 1.995019 1_565
O12 P6 1.481766 1_555
O13 P7 1.481766 1_555
O14 P8 1.481766 1_555
O15 P9 1.481766 1_555
O16 P10 1.481766 1_555
O17 P11 1.481766 1_555
O18 P11 1.575595 1_555
O18 Ta4 1.978957 1_554
O19 P9 1.575595 1_555
O19 Ta4 1.978957 1_554
O20 P10 1.575595 1_555
O20 Ta4 1.978957 1_554
O21 P7 1.575595 1_555
O21 Ta5 1.978957 1_555
O22 P8 1.575595 1_555
O22 Ta5 1.978957 1_555
O23 P6 1.575595 1_555
O23 Ta5 1.978957 1_555
O24 P12 1.539821 1_555
O24 Ta6 2.024310 1_556
O25 P13 1.539821 1_555
O25 Ta6 2.024310 1_556
O26 P14 1.539821 1_555
O26 Ta6 2.024310 1_556
O27 P15 1.539821 1_555
O27 Ta7 2.024310 1_555
O28 P16 1.539821 1_555
O28 Ta7 2.024310 1_555
O29 P17 1.539821 1_555
O29 Ta7 2.024310 1_555
O30 P17 1.538021 1_555
O30 Ta8 2.038287 1_555
O31 P15 1.538021 1_555
O31 Ta8 2.038286 1_555
O32 P16 1.538021 1_555
O32 Ta8 2.038287 1_555
O33 P13 1.538021 1_555
O33 Ta9 2.038287 1_555
O34 P14 1.538021 1_555
O34 Ta9 2.038286 1_555
O35 P12 1.538021 1_555
O35 Ta9 2.038287 1_555
O36 P17 1.542007 1_555
O36 Ta0 2.007476 1_565
O37 P15 1.542016 1_555
O37 Ta0 2.007476 1_665
O38 P16 1.542013 1_555
O38 Ta0 2.007476 1_555
O39 P13 1.542016 1_555
O39 Ta1 2.007476 1_555
O40 P14 1.542007 1_555
O40 Ta1 2.007476 1_565
O41 P12 1.542013 1_555
O41 Ta1 2.007476 1_665
O42 P6 1.558196 1_555
O42 Ta2 1.982201 1_655
O43 P7 1.558205 1_555
O43 Ta2 1.982201 1_555
O44 P8 1.558201 1_555
O44 Ta2 1.982201 1_665
O45 P9 1.558205 1_555
O45 Ta3 1.982201 1_665
O46 P10 1.558196 1_555
O46 Ta3 1.982201 1_655
O47 P11 1.558201 1_555
O47 Ta3 1.982201 1_555
O48 P5 1.476269 1_555
O49 P3 1.476278 1_555
O50 P4 1.476274 1_555
O51 P1 1.476278 1_555
O52 P2 1.476269 1_555
O53 P0 1.476274 1_555
O54 P12 1.545739 1_555
O54 Ta4 1.996604 1_555
O55 P13 1.545722 1_655
O55 Ta4 1.996604 1_555
O56 P14 1.545729 1_545
O56 Ta4 1.996604 1_555
O57 P15 1.545722 1_545
O57 Ta5 1.996604 1_555
O58 P16 1.545739 1_555
O58 Ta5 1.996604 1_555
O59 P17 1.545729 1_655
O59 Ta5 1.996604 1_555
O60 P11 1.568497 1_555
O60 Ta6 1.931359 1_555
O61 P9 1.568480 1_455
O61 Ta6 1.931359 1_555
O62 P10 1.568487 1_565
O62 Ta6 1.931359 1_555
O63 P7 1.568480 1_565
O63 Ta7 1.931359 1_555
O64 P8 1.568497 1_555
O64 Ta7 1.931359 1_555
O65 P6 1.568487 1_455
O65 Ta7 1.931359 1_555
O66 P0 1.573609 1_565
O66 Ta8 1.932383 1_555
O67 P1 1.573618 1_555
O67 Ta8 1.932383 1_555
O68 P2 1.573614 1_455
O68 Ta8 1.932383 1_555
O69 P3 1.573618 1_555
O69 Ta9 1.932383 1_555
O70 P4 1.573609 1_455
O70 Ta9 1.932383 1_555
O71 P5 1.573614 1_565
O71 Ta9 1.932383 1_555
