# generated using pymatgen
data_MgV3Zn2O8
_symmetry_space_group_name_H-M   'P 1'
_cell_length_a   6.02122662
_cell_length_b   5.99100144
_cell_length_c   6.02402142
_cell_angle_alpha   60.58150888
_cell_angle_beta   89.17988040
_cell_angle_gamma   119.58723126
_symmetry_Int_Tables_number   1
_chemical_formula_structural   MgV3Zn2O8
_chemical_formula_sum   'Mg1 V3 Zn2 O8'
_cell_volume   154.85258026
_cell_formula_units_Z   1
loop_
 _symmetry_equiv_pos_site_id
 _symmetry_equiv_pos_as_xyz
  1  'x, y, z'
loop_
 _atom_site_type_symbol
 _atom_site_label
 _atom_site_symmetry_multiplicity
 _atom_site_fract_x
 _atom_site_fract_y
 _atom_site_fract_z
 _atom_site_occupancy
  Mg  Mg0  1  0.12500000  0.75000000  0.62500000  1
  V  V0  1  0.62500000  0.25000000  0.12500000  1
  V  V1  1  0.62500000  0.25000000  0.62500000  1
  V  V2  1  0.62500000  0.75000000  0.62500000  1
  Zn  Zn0  1  0.98941900  0.00003300  0.99840000  1
  Zn  Zn1  1  0.26058100  0.49996700  0.25160000  1
  O  O0  1  0.84973200  0.22188100  0.38988900  1
  O  O1  1  0.39626500  0.23358800  0.38702600  1
  O  O2  1  0.85373500  0.26641200  0.86297400  1
  O  O3  1  0.85361300  0.73752300  0.40741700  1
  O  O4  1  0.84950300  0.72492400  0.86657900  1
  O  O5  1  0.40026800  0.27811900  0.86011100  1
  O  O6  1  0.40049600  0.77507600  0.38342100  1
  O  O7  1  0.39638700  0.76247700  0.84258300  1
loop_
_geom_bond_atom_site_label_1
_geom_bond_atom_site_label_2
_geom_bond_distance
_geom_bond_site_symmetry_2
Mg0 O1 2.072810 1_565
Mg0 O2 2.072810 1_455
Mg0 O6 2.088571 1_555
Mg0 O4 2.088576 1_455
Mg0 O3 2.104936 1_455
Mg0 O7 2.104936 1_555
O0 V2 2.015760 1_545
O0 Zn1 2.024119 1_655
O0 V1 2.066398 1_555
O0 V0 2.104405 1_555
O1 Zn1 1.976724 1_555
O1 V1 2.005713 1_555
O1 V0 2.012364 1_555
O2 Zn0 1.976724 1_555
O2 V1 2.005713 1_555
O2 V0 2.012364 1_556
O3 V2 1.940266 1_555
O3 Zn0 2.019570 1_564
O3 V1 2.088285 1_555
O4 Zn0 1.997632 1_565
O4 V2 2.002449 1_555
O4 V0 2.033894 1_556
O5 V2 2.015760 1_555
O5 Zn0 2.024119 1_455
O5 V1 2.066398 1_555
O5 V0 2.104405 1_556
O6 Zn1 1.997632 1_555
O6 V2 2.002453 1_555
O6 V0 2.033894 1_565
O7 V2 1.940266 1_555
O7 Zn1 2.019570 1_556
O7 V1 2.088285 1_565
