# generated using pymatgen
data_Na7La2Hf2Si3(PO8)3
_symmetry_space_group_name_H-M   'P 1'
_cell_length_a   9.43361086
_cell_length_b   9.44495493
_cell_length_c   23.15014709
_cell_angle_alpha   90.03315122
_cell_angle_beta   90.09251176
_cell_angle_gamma   120.07637469
_symmetry_Int_Tables_number   1
_chemical_formula_structural   Na7La2Hf2Si3(PO8)3
_chemical_formula_sum   'Na21 La6 Hf6 Si9 P9 O72'
_cell_volume   1784.95125398
_cell_formula_units_Z   3
loop_
 _symmetry_equiv_pos_site_id
 _symmetry_equiv_pos_as_xyz
  1  'x, y, z'
loop_
 _atom_site_type_symbol
 _atom_site_label
 _atom_site_symmetry_multiplicity
 _atom_site_fract_x
 _atom_site_fract_y
 _atom_site_fract_z
 _atom_site_occupancy
  Na  Na0  1  0.63489762  0.00437532  0.25531910  1
  Na  Na1  1  0.36342007  0.36995237  0.24680535  1
  Na  Na2  1  0.00126287  0.61921570  0.25077474  1
  Na  Na3  1  0.63593780  0.63574389  0.74631384  1
  Na  Na4  1  0.98783407  0.36103820  0.74465140  1
  Na  Na5  1  0.37786051  0.00267428  0.74241788  1
  Na  Na6  1  0.03403792  0.69192909  0.58161563  1
  Na  Na7  1  0.65978354  0.97173357  0.58118755  1
  Na  Na8  1  0.67063411  0.68780506  0.08213382  1
  Na  Na9  1  0.02954072  0.34261096  0.08747192  1
  Na  Na10  1  0.95596423  0.66250910  0.92417409  1
  Na  Na11  1  0.69829088  0.03023292  0.91865454  1
  Na  Na12  1  0.34312495  0.30697274  0.92177290  1
  Na  Na13  1  0.96640446  0.30889047  0.41665866  1
  Na  Na14  1  0.33588322  0.02575213  0.41997167  1
  Na  Na15  1  0.00078610  0.99880579  0.50012159  1
  Na  Na16  1  0.01124305  0.99315603  0.00402341  1
  Na  Na17  1  0.66659771  0.33345437  0.83301016  1
  Na  Na18  1  0.67859992  0.34451064  0.33692887  1
  Na  Na19  1  0.32085528  0.66446665  0.16407750  1
  Na  Na20  1  0.33367703  0.66032414  0.66227786  1
  La  La0  1  0.99331568  0.99771831  0.85084404  1
  La  La1  1  0.66556035  0.32950633  0.66870048  1
  La  La2  1  0.66799147  0.33297411  0.18045218  1
  La  La3  1  0.66139320  0.33482508  0.99500477  1
  La  La4  1  0.33073803  0.66347740  0.32410996  1
  La  La5  1  0.34003405  0.66878279  0.81451853  1
  Hf  Hf0  1  0.99169198  0.99721819  0.35667258  1
  Hf  Hf1  1  0.00267454  0.00647979  0.64411559  1
  Hf  Hf2  1  0.00769411  0.00562108  0.14898191  1
  Hf  Hf3  1  0.66644827  0.33197797  0.48679595  1
  Hf  Hf4  1  0.33481277  0.66872367  0.01828772  1
  Hf  Hf5  1  0.33329753  0.66742269  0.51233316  1
  Si  Si0  1  0.99916942  0.28616630  0.25226310  1
  Si  Si1  1  0.70313140  0.00320394  0.74550446  1
  Si  Si2  1  0.97875786  0.33687779  0.58206539  1
  Si  Si3  1  0.35736909  0.01992583  0.58141535  1
  Si  Si4  1  0.98771196  0.65444867  0.08393578  1
  Si  Si5  1  0.34700555  0.33615349  0.08317441  1
  Si  Si6  1  0.63228929  0.66268274  0.91884348  1
  Si  Si7  1  0.63741861  0.97659392  0.41733260  1
  Si  Si8  1  0.02355596  0.66387860  0.41721413  1
  P  P0  1  0.28051659  0.00083608  0.25363932  1
  P  P1  1  0.71981658  0.71990808  0.25040688  1
  P  P2  1  0.29346819  0.29244612  0.74641378  1
  P  P3  1  0.99742762  0.70476165  0.74468320  1
  P  P4  1  0.66488298  0.64049842  0.58285316  1
  P  P5  1  0.66851973  0.01190940  0.08464234  1
  P  P6  1  0.03743381  0.37179334  0.91964938  1
  P  P7  1  0.33593911  0.96305633  0.91836135  1
  P  P8  1  0.33618059  0.36088899  0.41685276  1
  O  O0  1  0.18956600  0.00509317  0.30902494  1
  O  O1  1  0.82292642  0.81698709  0.30431066  1
  O  O2  1  0.99752314  0.18038241  0.30972674  1
  O  O3  1  0.22681831  0.21020759  0.80543369  1
  O  O4  1  0.99036423  0.78092016  0.80295625  1
  O  O5  1  0.79308503  0.01888740  0.80777382  1
  O  O6  1  0.81935928  0.99784441  0.69226617  1
  O  O7  1  0.18086402  0.17732377  0.69683911  1
  O  O8  1  0.00182111  0.81504133  0.69338991  1
  O  O9  1  0.81024513  0.81317454  0.19540499  1
  O  O10  1  0.99832741  0.18293177  0.19508169  1
  O  O11  1  0.17960846  0.99681632  0.20016882  1
  O  O12  1  0.92623848  0.38721747  0.64237403  1
  O  O13  1  0.45954147  0.07558988  0.64180458  1
  O  O14  1  0.63165662  0.55901426  0.64246466  1
  O  O15  1  0.90755364  0.52535445  0.13852898  1
  O  O16  1  0.63619243  0.08892644  0.13814247  1
  O  O17  1  0.47205280  0.37965054  0.13836498  1
  O  O18  1  0.41667345  0.29954460  0.02449228  1
  O  O19  1  0.86874866  0.58169653  0.02710100  1
  O  O20  1  0.71039160  0.12288943  0.03114382  1
  O  O21  1  0.46594900  0.15207107  0.53052215  1
  O  O22  1  0.69094895  0.53291948  0.53784834  1
  O  O23  1  0.83612001  0.30671274  0.53326380  1
  O  O24  1  0.51532359  0.66529617  0.97154673  1
  O  O25  1  0.14545398  0.48340460  0.97018720  1
  O  O26  1  0.33359775  0.84870791  0.96699210  1
  O  O27  1  0.53305294  0.84830344  0.46912496  1
  O  O28  1  0.30871914  0.46489952  0.46256391  1
  O  O29  1  0.16251845  0.69221223  0.46688732  1
  O  O30  1  0.07976465  0.61343745  0.35721258  1
  O  O31  1  0.53376819  0.91606927  0.35698583  1
  O  O32  1  0.36916799  0.44595088  0.35768245  1
  O  O33  1  0.10718247  0.45819071  0.86131182  1
  O  O34  1  0.34337234  0.89197871  0.85894790  1
  O  O35  1  0.54210681  0.64882122  0.85676331  1
  O  O36  1  0.02529336  0.83967677  0.41231513  1
  O  O37  1  0.82494876  0.00260234  0.41295665  1
  O  O38  1  0.17503338  0.18805010  0.41442071  1
  O  O39  1  0.03905619  0.20874436  0.92438082  1
  O  O40  1  0.17901746  0.97541613  0.92414107  1
  O  O41  1  0.81007317  0.83282150  0.92514423  1
  O  O42  1  0.97800055  0.16107855  0.58688409  1
  O  O43  1  0.17037501  0.99288601  0.58673088  1
  O  O44  1  0.82767743  0.81199819  0.58502074  1
  O  O45  1  0.99588813  0.82905987  0.09550860  1
  O  O46  1  0.81809851  0.98723610  0.09395166  1
  O  O47  1  0.16049575  0.18141118  0.09308638  1
  O  O48  1  0.68282379  0.16620754  0.74359260  1
  O  O49  1  0.46918308  0.32083422  0.74163733  1
  O  O50  1  0.84078740  0.53371155  0.74285311  1
  O  O51  1  0.70404056  0.54799495  0.25210427  1
  O  O52  1  0.83129671  0.29961712  0.25445674  1
  O  O53  1  0.45120429  0.15906973  0.25263272  1
  O  O54  1  0.65367062  0.50035074  0.92011625  1
  O  O55  1  0.86068274  0.34143197  0.92371915  1
  O  O56  1  0.49285402  0.13344199  0.92192843  1
  O  O57  1  0.65886237  0.16042429  0.42940926  1
  O  O58  1  0.48011614  0.33183633  0.43147897  1
  O  O59  1  0.84464518  0.50460060  0.43330590  1
  O  O60  1  0.32733230  0.49982726  0.07580146  1
  O  O61  1  0.16663878  0.67028086  0.07384619  1
  O  O62  1  0.51819302  0.83871300  0.07518505  1
  O  O63  1  0.33902774  0.83789907  0.56881171  1
  O  O64  1  0.52218389  0.67046812  0.56736694  1
  O  O65  1  0.15669132  0.49410939  0.56514103  1
  O  O66  1  0.29643437  0.84514308  0.25124753  1
  O  O67  1  0.54906271  0.70653185  0.25091252  1
  O  O68  1  0.16717382  0.46742084  0.24904916  1
  O  O69  1  0.29143952  0.45532019  0.74131008  1
  O  O70  1  0.15510220  0.69231173  0.74085066  1
  O  O71  1  0.52574247  0.83206001  0.74030479  1
loop_
_geom_bond_atom_site_label_1
_geom_bond_atom_site_label_2
_geom_bond_distance
_geom_bond_site_symmetry_2
Na0 O52 2.455779 1_555
Na0 O67 2.509179 1_545
Na0 O31 2.521350 1_545
Na0 O66 2.766104 1_545
Na0 O53 2.771107 1_555
Na0 O16 2.826521 1_555
Na1 O68 2.446631 1_555
Na1 O53 2.514827 1_555
Na1 O32 2.658037 1_555
Na1 O17 2.697267 1_555
Na1 O67 2.756974 1_555
Na1 O51 2.783984 1_555
Na2 O66 2.520214 1_555
Na2 O51 2.534764 1_455
Na2 O30 2.580256 1_555
Na2 O68 2.599228 1_555
Na2 O52 2.615267 1_455
Na2 O15 2.742998 1_455
Na3 O14 2.504991 1_555
Na3 O71 2.543587 1_555
Na3 O50 2.556673 1_555
Na3 O49 2.577259 1_555
Na3 O35 2.730045 1_555
Na3 O69 2.815433 1_555
Na4 O12 2.478951 1_555
Na4 O48 2.521636 1_555
Na4 O69 2.538988 1_655
Na4 O50 2.617875 1_555
Na4 O70 2.709176 1_655
Na4 O33 2.890543 1_655
Na5 O13 2.443159 1_555
Na5 O48 2.491762 1_555
Na5 O71 2.607436 1_545
Na5 O70 2.614487 1_545
Na5 O49 2.679159 1_555
Na5 O34 2.853353 1_545
Na6 O43 2.466357 1_555
Na6 O63 2.508792 1_555
Na6 O65 2.672567 1_555
Na6 O44 2.700959 1_455
Na6 O12 2.893305 1_455
Na6 O8 2.914334 1_555
Na6 O29 2.920686 1_555
Na6 O22 2.978780 1_455
Na7 O64 2.485836 1_555
Na7 O42 2.616248 1_565
Na7 O63 2.645556 1_555
Na7 O44 2.680924 1_555
Na7 O27 2.847473 1_555
Na7 O13 2.892054 1_565
Na7 O6 2.924752 1_555
Na7 O23 2.956841 1_565
Na8 O46 2.462283 1_555
Na8 O62 2.485842 1_555
Na8 O45 2.680265 1_555
Na8 O60 2.810169 1_555
Na8 O19 2.829132 1_555
Na8 O17 2.867461 1_555
Na8 O24 2.901902 1_554
Na8 O9 2.904308 1_555
Na9 O47 2.397099 1_555
Na9 O60 2.447782 1_555
Na9 O61 2.709379 1_555
Na9 O15 2.773683 1_455
Na9 O10 2.851114 1_455
Na9 O46 2.925454 1_445
Na9 O20 2.965357 1_455
Na9 O25 2.982019 1_554
Na10 O54 2.471461 1_555
Na10 O19 2.513189 1_556
Na10 O41 2.588680 1_555
Na10 O40 2.632284 1_655
Na10 O55 2.696717 1_555
Na10 O4 2.978879 1_555
Na11 O55 2.546704 1_555
Na11 O41 2.565465 1_545
Na11 O56 2.570177 1_555
Na11 O20 2.730701 1_556
Na11 O5 2.739217 1_555
Na11 O39 2.785694 1_655
Na12 O18 2.486908 1_556
Na12 O39 2.534899 1_555
Na12 O54 2.560691 1_555
Na12 O56 2.646092 1_555
Na12 O40 2.710626 1_545
Na12 O3 2.876690 1_555
Na13 O37 2.507365 1_555
Na13 O57 2.529068 1_555
Na13 O59 2.648291 1_555
Na13 O38 2.725906 1_655
Na13 O2 2.836094 1_555
Na13 O30 2.870113 1_655
Na13 O23 2.963669 1_555
Na13 O28 2.991072 1_655
Na14 O58 2.516987 1_555
Na14 O36 2.557664 1_545
Na14 O38 2.645704 1_555
Na14 O57 2.657455 1_555
Na14 O21 2.828039 1_555
Na14 O0 2.873703 1_555
Na14 O29 2.936701 1_545
Na14 O31 2.937610 1_545
Na15 O43 2.581109 1_555
Na15 O42 2.599541 1_465
Na15 O44 2.601770 1_455
Na15 O36 2.605881 1_555
Na15 O37 2.621751 1_465
Na15 O38 2.627316 1_565
Na16 O40 2.495562 1_554
Na16 O41 2.516816 1_454
Na16 O45 2.586187 1_455
Na16 O47 2.621480 1_565
Na16 O39 2.661733 1_564
Na16 O46 2.750886 1_455
Na17 O54 2.599197 1_555
Na17 O48 2.653923 1_555
Na17 O56 2.721102 1_555
Na17 O50 2.744869 1_555
Na17 O55 2.759850 1_555
Na17 O49 2.778750 1_555
Na18 O52 2.553454 1_555
Na18 O51 2.674135 1_555
Na18 O57 2.705996 1_555
Na18 O59 2.707170 1_555
Na18 O53 2.773856 1_555
Na18 O58 2.846088 1_555
Na19 O61 2.559937 1_555
Na19 O60 2.586517 1_555
Na19 O68 2.596933 1_555
Na19 O62 2.711899 1_555
Na19 O66 2.725624 1_555
Na19 O67 2.821589 1_555
Na20 O71 2.493404 1_555
Na20 O69 2.547248 1_555
Na20 O70 2.599465 1_555
Na20 O63 2.723424 1_555
Na20 O65 2.768681 1_555
Na20 O64 2.800235 1_555
La0 O5 2.230420 1_565
La0 O4 2.315769 1_555
La0 O3 2.358826 1_665
La0 O41 2.384672 1_555
La0 O39 2.487684 1_665
La0 O40 2.520564 1_655
La1 O13 2.288893 1_555
La1 O12 2.318968 1_555
La1 O48 2.380178 1_555
La1 O14 2.421956 1_555
La1 O49 2.479484 1_555
La1 O50 2.488116 1_555
La2 O15 2.290000 1_555
La2 O17 2.317698 1_555
La2 O16 2.380306 1_555
La2 O52 2.426164 1_555
La2 O51 2.508699 1_555
La2 O53 2.513925 1_555
La3 O18 2.267362 1_556
La3 O19 2.288444 1_556
La3 O54 2.360510 1_555
La3 O20 2.418383 1_556
La3 O56 2.442153 1_555
La3 O55 2.480790 1_555
La4 O30 2.302349 1_555
La4 O31 2.313561 1_555
La4 O32 2.388318 1_555
La4 O68 2.439894 1_555
La4 O67 2.539945 1_555
La4 O66 2.540100 1_555
La5 O35 2.231656 1_555
La5 O34 2.331036 1_555
La5 O33 2.363438 1_555
La5 O71 2.388297 1_555
La5 O69 2.492880 1_555
La5 O70 2.526027 1_555
Hf0 O2 2.020885 1_565
Hf0 O1 2.043723 1_555
Hf0 O37 2.064309 1_565
Hf0 O36 2.108903 1_655
Hf0 O0 2.138756 1_665
Hf0 O38 2.211894 1_665
Hf1 O6 2.026010 1_445
Hf1 O7 2.047332 1_555
Hf1 O42 2.069689 1_455
Hf1 O43 2.119970 1_545
Hf1 O8 2.135048 1_545
Hf1 O44 2.218418 1_445
Hf2 O10 2.024329 1_455
Hf2 O47 2.029436 1_555
Hf2 O45 2.033907 1_445
Hf2 O11 2.042141 1_545
Hf2 O46 2.129132 1_445
Hf2 O9 2.131566 1_445
Hf3 O23 2.038063 1_555
Hf3 O21 2.067930 1_555
Hf3 O57 2.067962 1_555
Hf3 O59 2.068690 1_555
Hf3 O22 2.146870 1_555
Hf3 O58 2.172581 1_555
Hf4 O24 2.032936 1_554
Hf4 O61 2.049730 1_555
Hf4 O60 2.052412 1_555
Hf4 O26 2.078922 1_554
Hf4 O25 2.086154 1_554
Hf4 O62 2.124079 1_555
Hf5 O29 2.032265 1_555
Hf5 O63 2.053070 1_555
Hf5 O65 2.055521 1_555
Hf5 O27 2.061921 1_555
Hf5 O28 2.142938 1_555
Hf5 O64 2.177236 1_555
O0 P0 1.555583 1_555
O1 P1 1.563614 1_555
O2 Si0 1.659584 1_555
O3 P2 1.542718 1_555
O4 P3 1.545620 1_555
O5 Si1 1.640093 1_555
O6 Si1 1.668436 1_565
O7 P2 1.569947 1_555
O8 P3 1.566835 1_455
O9 P1 1.541625 1_555
O10 Si0 1.641287 1_555
O11 P0 1.549128 1_565
O12 Si2 1.630443 1_555
O13 Si3 1.626889 1_555
O14 P4 1.534872 1_555
O15 Si4 1.654239 1_555
O16 P5 1.542285 1_555
O17 Si5 1.643643 1_555
O18 Si5 1.620841 1_555
O19 Si4 1.638301 1_555
O20 P5 1.541660 1_555
O21 Si3 1.649028 1_555
O22 P4 1.558332 1_555
O23 Si2 1.666918 1_555
O24 Si6 1.654795 1_555
O25 P6 1.560927 1_555
O26 P7 1.553044 1_555
O27 Si7 1.638570 1_555
O28 P8 1.551376 1_555
O29 Si8 1.660012 1_555
O30 Si8 1.640852 1_555
O31 Si7 1.633708 1_555
O32 P8 1.539713 1_555
O33 P6 1.545548 1_555
O34 P7 1.547200 1_555
O35 Si6 1.640289 1_555
O36 Si8 1.656208 1_555
O37 Si7 1.662920 1_545
O38 P8 1.578392 1_555
O39 P6 1.551649 1_555
O40 P7 1.548148 1_555
O41 Si6 1.647426 1_555
O42 Si2 1.660664 1_555
O43 Si3 1.655702 1_565
O44 P4 1.578323 1_555
O45 Si4 1.633859 1_555
O46 P5 1.555806 1_565
O47 Si5 1.645808 1_555
O48 Si1 1.644561 1_555
O49 P2 1.544989 1_555
O50 P3 1.549936 1_555
O51 P1 1.554998 1_555
O52 Si0 1.651835 1_555
O53 P0 1.554026 1_555
O54 Si6 1.643871 1_555
O55 P6 1.546810 1_655
O56 P7 1.549064 1_545
O57 Si7 1.667612 1_545
O58 P8 1.551040 1_555
O59 Si8 1.645684 1_655
O60 Si5 1.655634 1_555
O61 Si4 1.635341 1_455
O62 P5 1.551893 1_565
O63 Si3 1.664914 1_565
O64 P4 1.549615 1_555
O65 Si2 1.637293 1_455
O66 P0 1.552186 1_565
O67 P1 1.551432 1_555
O68 Si0 1.652023 1_455
O69 P2 1.552586 1_555
O70 P3 1.552386 1_455
O71 Si1 1.647910 1_565
