# generated using pymatgen
data_Li3Bi2(PO4)3
_symmetry_space_group_name_H-M   'P 1'
_cell_length_a   9.75635833
_cell_length_b   9.75635833
_cell_length_c   9.75635799
_cell_angle_alpha   54.45921640
_cell_angle_beta   54.45921640
_cell_angle_gamma   54.45921978
_symmetry_Int_Tables_number   1
_chemical_formula_structural   Li3Bi2(PO4)3
_chemical_formula_sum   'Li6 Bi4 P6 O24'
_cell_volume   571.83283418
_cell_formula_units_Z   2
loop_
 _symmetry_equiv_pos_site_id
 _symmetry_equiv_pos_as_xyz
  1  'x, y, z'
loop_
 _atom_site_type_symbol
 _atom_site_label
 _atom_site_symmetry_multiplicity
 _atom_site_fract_x
 _atom_site_fract_y
 _atom_site_fract_z
 _atom_site_occupancy
  Li  Li0  1  0.33325900  0.06480200  0.73715500  1
  Li  Li1  1  0.66674100  0.93519800  0.26284500  1
  Li  Li2  1  0.26284500  0.66674100  0.93519800  1
  Li  Li3  1  0.93519800  0.26284600  0.66674100  1
  Li  Li4  1  0.06480200  0.73715500  0.33325900  1
  Li  Li5  1  0.73715500  0.33325900  0.06480200  1
  Bi  Bi0  1  0.65540100  0.65540100  0.65540100  1
  Bi  Bi1  1  0.15233800  0.15233800  0.15233800  1
  Bi  Bi2  1  0.84766200  0.84766200  0.84766200  1
  Bi  Bi3  1  0.34459900  0.34459900  0.34459900  1
  P  P0  1  0.95002000  0.56227900  0.25198200  1
  P  P1  1  0.43772100  0.74801800  0.04998000  1
  P  P2  1  0.56227900  0.25198200  0.95002000  1
  P  P3  1  0.04998000  0.43772100  0.74801800  1
  P  P4  1  0.74801800  0.04998000  0.43772100  1
  P  P5  1  0.25198200  0.95002000  0.56227900  1
  O  O0  1  0.85655000  0.49520500  0.46374400  1
  O  O1  1  0.46374400  0.85655000  0.49520500  1
  O  O2  1  0.16075700  0.82425700  0.74784800  1
  O  O3  1  0.20007000  0.12212600  0.58936000  1
  O  O4  1  0.79993000  0.87787400  0.41064000  1
  O  O5  1  0.83924300  0.17574300  0.25215200  1
  O  O6  1  0.53625600  0.14345000  0.50479500  1
  O  O7  1  0.87787400  0.41064000  0.79993000  1
  O  O8  1  0.01062300  0.42066300  0.18499700  1
  O  O9  1  0.41064000  0.79993000  0.87787400  1
  O  O10  1  0.81500300  0.98937700  0.57933700  1
  O  O11  1  0.98937700  0.57933700  0.81500300  1
  O  O12  1  0.50479500  0.53625600  0.14345000  1
  O  O13  1  0.25215200  0.83924300  0.17574300  1
  O  O14  1  0.17574300  0.25215200  0.83924300  1
  O  O15  1  0.57933700  0.81500300  0.98937700  1
  O  O16  1  0.42066300  0.18499700  0.01062300  1
  O  O17  1  0.14345000  0.50479500  0.53625600  1
  O  O18  1  0.74784800  0.16075700  0.82425700  1
  O  O19  1  0.49520500  0.46374400  0.85655000  1
  O  O20  1  0.82425700  0.74784800  0.16075700  1
  O  O21  1  0.18499700  0.01062300  0.42066300  1
  O  O22  1  0.58936000  0.20007000  0.12212600  1
  O  O23  1  0.12212600  0.58936000  0.20007000  1
loop_
_geom_bond_atom_site_label_1
_geom_bond_atom_site_label_2
_geom_bond_distance
_geom_bond_site_symmetry_2
Li0 O14 1.940659 1_555
Li0 O9 1.986234 1_545
Li0 O6 2.043332 1_555
Li0 O3 2.115754 1_555
Li1 O20 1.940659 1_555
Li1 O22 1.986234 1_565
Li1 O1 2.043332 1_555
Li1 O4 2.115754 1_555
Li2 O2 1.940659 1_555
Li2 O23 1.986234 1_556
Li2 O19 2.043332 1_555
Li2 O9 2.115754 1_555
Li3 O18 1.940665 1_555
Li3 O3 1.986236 1_655
Li3 O0 2.043329 1_555
Li3 O7 2.115746 1_555
Li4 O13 1.940659 1_555
Li4 O4 1.986234 1_455
Li4 O17 2.043332 1_555
Li4 O23 2.115754 1_555
Li5 O5 1.940659 1_555
Li5 O7 1.986234 1_554
Li5 O12 2.043332 1_555
Li5 O22 2.115754 1_555
Bi0 O19 2.314326 1_555
Bi0 O0 2.314326 1_555
Bi0 O1 2.314326 1_555
Bi0 O4 2.453508 1_555
Bi0 O9 2.453508 1_555
Bi0 O7 2.453508 1_555
Bi1 O21 2.261874 1_555
Bi1 O16 2.261875 1_555
Bi1 O8 2.261875 1_555
Bi1 O14 2.514116 1_554
Bi1 O5 2.514116 1_455
Bi1 O13 2.514116 1_545
Bi2 O10 2.261874 1_555
Bi2 O15 2.261875 1_555
Bi2 O11 2.261875 1_555
Bi2 O20 2.514116 1_556
Bi2 O2 2.514116 1_655
Bi2 O18 2.514116 1_565
Bi3 O12 2.314326 1_555
Bi3 O17 2.314326 1_555
Bi3 O6 2.314326 1_555
Bi3 O3 2.453508 1_555
Bi3 O22 2.453508 1_555
Bi3 O23 2.453508 1_555
O0 P0 1.568422 1_555
O1 P5 1.568422 1_555
O2 P5 1.545694 1_555
O3 P5 1.586603 1_545
O4 P4 1.586603 1_565
O5 P4 1.545694 1_555
O6 P4 1.568422 1_555
O7 P3 1.586603 1_655
O8 P0 1.528548 1_455
O9 P1 1.586603 1_556
O10 P4 1.528548 1_565
O11 P3 1.528548 1_655
O12 P1 1.568422 1_555
O13 P1 1.545694 1_555
O14 P3 1.545694 1_555
O15 P1 1.528548 1_556
O16 P2 1.528548 1_554
O17 P3 1.568422 1_555
O18 P2 1.545694 1_555
O19 P2 1.568422 1_555
O20 P0 1.545694 1_555
O21 P5 1.528548 1_545
O22 P2 1.586603 1_554
O23 P0 1.586603 1_455
