# generated using pymatgen
data_MgMn6(O2F)4
_symmetry_space_group_name_H-M   'P 1'
_cell_length_a   5.12720538
_cell_length_b   7.70666333
_cell_length_c   5.79978377
_cell_angle_alpha   96.57650873
_cell_angle_beta   98.23108833
_cell_angle_gamma   85.32917268
_symmetry_Int_Tables_number   1
_chemical_formula_structural   MgMn6(O2F)4
_chemical_formula_sum   'Mg1 Mn6 O8 F4'
_cell_volume   224.82393024
_cell_formula_units_Z   1
loop_
 _symmetry_equiv_pos_site_id
 _symmetry_equiv_pos_as_xyz
  1  'x, y, z'
loop_
 _atom_site_type_symbol
 _atom_site_label
 _atom_site_symmetry_multiplicity
 _atom_site_fract_x
 _atom_site_fract_y
 _atom_site_fract_z
 _atom_site_occupancy
  Mg  Mg0  1  0.01009616  0.49751948  0.01613231  1
  Mn  Mn0  1  0.43944712  0.98849636  0.51818499  1
  Mn  Mn1  1  0.51158791  0.68126845  0.17419180  1
  Mn  Mn2  1  0.49739617  0.35052531  0.82910283  1
  Mn  Mn3  1  0.00250118  0.69006776  0.64450986  1
  Mn  Mn4  1  0.93374732  0.30368007  0.41388108  1
  Mn  Mn5  1  0.03333609  0.00535693  0.00198382  1
  O  O0  1  0.84201025  0.46373575  0.66924337  1
  O  O1  1  0.86853218  0.09006986  0.26159016  1
  O  O2  1  0.66149046  0.77385284  0.48407133  1
  O  O3  1  0.69332120  0.43744035  0.14356041  1
  O  O4  1  0.30847981  0.58132326  0.87469577  1
  O  O5  1  0.30138559  0.23922435  0.53945932  1
  O  O6  1  0.33993700  0.91210755  0.19073463  1
  O  O7  1  0.16011728  0.90888373  0.70923637  1
  F  F0  1  0.84409736  0.75169184  0.99052881  1
  F  F1  1  0.69496303  0.10950816  0.79622824  1
  F  F2  1  0.17050821  0.57323019  0.34021046  1
  F  F3  1  0.18704765  0.25868175  0.00959644  1
loop_
_geom_bond_atom_site_label_1
_geom_bond_atom_site_label_2
_geom_bond_distance
_geom_bond_site_symmetry_2
Mg0 O3 1.985715 1_455
Mg0 O4 2.017953 1_554
Mg0 O0 2.068398 1_454
Mn0 O6 1.931062 1_555
Mn0 O2 1.937625 1_555
Mn0 O5 1.999407 1_565
Mn0 O7 2.099666 1_555
Mn1 O6 1.917992 1_555
Mn1 O2 1.931304 1_555
Mn1 O4 2.000295 1_554
Mn1 O3 2.028935 1_555
Mn2 O4 1.963889 1_555
Mn2 O5 1.973486 1_555
Mn2 O3 2.022166 1_556
Mn2 O0 2.376595 1_555
Mn3 O7 1.904683 1_555
Mn3 O2 1.956454 1_455
Mn3 O0 2.016190 1_455
Mn3 O4 2.094822 1_555
Mn4 O1 1.809423 1_555
Mn4 O0 1.903354 1_555
Mn4 O5 1.966610 1_655
Mn4 O3 2.156407 1_555
Mn5 O1 1.859170 1_455
Mn5 O6 1.920811 1_545
Mn5 O7 1.950958 1_544
F0 Mg0 2.083828 1_656
F0 Mn5 2.242368 1_666
F0 Mn3 2.257900 1_655
F0 Mn1 2.266894 1_556
F1 Mn2 2.044574 1_555
F1 Mn0 2.106203 1_545
F1 Mn5 2.116136 1_656
F2 Mg0 1.983441 1_555
F2 Mn3 2.147681 1_555
F2 Mn1 2.362528 1_555
F2 Mn4 2.594994 1_455
F3 Mg0 1.983539 1_555
F3 Mn5 2.157632 1_555
F3 Mn2 2.226862 1_554
