# generated using pymatgen
data_H8W3Se(NO6)2
_symmetry_space_group_name_H-M   'P 1'
_cell_length_a   7.34753615
_cell_length_b   7.34753615
_cell_length_c   12.59430200
_cell_angle_alpha   90.00000000
_cell_angle_beta   90.00000000
_cell_angle_gamma   120.00000132
_symmetry_Int_Tables_number   1
_chemical_formula_structural   H8W3Se(NO6)2
_chemical_formula_sum   'H16 W6 Se2 N4 O24'
_cell_volume   588.82764492
_cell_formula_units_Z   2
loop_
 _symmetry_equiv_pos_site_id
 _symmetry_equiv_pos_as_xyz
  1  'x, y, z'
loop_
 _atom_site_type_symbol
 _atom_site_label
 _atom_site_symmetry_multiplicity
 _atom_site_fract_x
 _atom_site_fract_y
 _atom_site_fract_z
 _atom_site_occupancy
  H  H0  1  0.66666700  0.33333300  0.15156400  1
  H  H1  1  0.25501400  0.51166600  0.15029200  1
  H  H2  1  0.74334700  0.25501400  0.65029200  1
  H  H3  1  0.51166600  0.25665300  0.65029200  1
  H  H4  1  0.33333300  0.66666700  0.65156400  1
  H  H5  1  0.66666700  0.33333300  0.54129000  1
  H  H6  1  0.33333300  0.66666700  0.04129000  1
  H  H7  1  0.40079400  0.81931300  0.76221600  1
  H  H8  1  0.58148100  0.40079400  0.26221600  1
  H  H9  1  0.48833400  0.74334700  0.15029200  1
  H  H10  1  0.81931300  0.41851900  0.26221600  1
  H  H11  1  0.41851900  0.59920600  0.76221600  1
  H  H12  1  0.59920600  0.18068700  0.26221600  1
  H  H13  1  0.74498600  0.48833400  0.65029200  1
  H  H14  1  0.25665300  0.74498600  0.15029200  1
  H  H15  1  0.18068700  0.58148100  0.76221600  1
  W  W0  1  0.66109200  0.82577100  0.39404300  1
  W  W1  1  0.82577100  0.16468000  0.89404300  1
  W  W2  1  0.83532000  0.66109200  0.89404300  1
  W  W3  1  0.16468000  0.33890800  0.39404300  1
  W  W4  1  0.33890800  0.17422900  0.89404300  1
  W  W5  1  0.17422900  0.83532000  0.39404300  1
  Se  Se0  1  0.00000000  0.00000000  0.66511600  1
  Se  Se1  1  0.00000000  0.00000000  0.16511600  1
  N  N0  1  0.66666700  0.33333300  0.23389200  1
  N  N1  1  0.33333300  0.66666700  0.73389200  1
  N  N2  1  0.66666700  0.33333300  0.62265300  1
  N  N3  1  0.33333300  0.66666700  0.12265300  1
  O  O0  1  0.79190000  0.19659000  0.02985200  1
  O  O1  1  0.20810000  0.80341000  0.52985200  1
  O  O2  1  0.80341000  0.59531000  0.02985200  1
  O  O3  1  0.59531000  0.79190000  0.52985200  1
  O  O4  1  0.54003300  0.08462200  0.84820400  1
  O  O5  1  0.45541100  0.54003300  0.34820400  1
  O  O6  1  0.40469000  0.20810000  0.02985200  1
  O  O7  1  0.91537800  0.45541100  0.84820400  1
  O  O8  1  0.54458900  0.45996700  0.84820400  1
  O  O9  1  0.45996700  0.91537800  0.34820400  1
  O  O10  1  0.24909700  0.12870200  0.72381500  1
  O  O11  1  0.12039400  0.24909700  0.22381500  1
  O  O12  1  0.12870200  0.87960600  0.22381500  1
  O  O13  1  0.87129800  0.12039400  0.72381500  1
  O  O14  1  0.87960600  0.75090300  0.72381500  1
  O  O15  1  0.75090300  0.87129800  0.22381500  1
  O  O16  1  0.08462200  0.54458900  0.34820400  1
  O  O17  1  0.87340300  0.12196800  0.40427200  1
  O  O18  1  0.75143500  0.87340300  0.90427200  1
  O  O19  1  0.12196800  0.24856500  0.90427200  1
  O  O20  1  0.87803200  0.75143500  0.40427200  1
  O  O21  1  0.24856500  0.12659700  0.40427200  1
  O  O22  1  0.12659700  0.87803200  0.90427200  1
  O  O23  1  0.19659000  0.40469000  0.52985200  1
loop_
_geom_bond_atom_site_label_1
_geom_bond_atom_site_label_2
_geom_bond_distance
_geom_bond_site_symmetry_2
H0 N0 1.036864 1_555
H1 N3 1.045937 1_555
H2 N2 1.045925 1_555
H3 N2 1.045937 1_555
H4 N1 1.036864 1_555
H5 N2 1.024710 1_555
H6 N3 1.024710 1_555
H7 N1 1.036790 1_555
H8 N0 1.036796 1_555
H9 N3 1.045937 1_555
H10 N0 1.036790 1_555
H11 N1 1.036796 1_555
H12 N0 1.036790 1_555
H13 N2 1.045937 1_555
H14 N3 1.045925 1_555
H15 N1 1.036790 1_555
O0 W1 1.760906 1_554
O1 W5 1.760906 1_555
O2 W2 1.760908 1_554
O3 W0 1.760908 1_555
O4 W1 1.962678 1_555
O4 W4 1.980791 1_555
O5 W0 1.962680 1_555
O5 W3 1.980785 1_555
O6 W4 1.760908 1_554
O7 W2 1.962685 1_555
O7 W1 1.980784 1_555
O8 W4 1.962680 1_555
O8 W2 1.980785 1_555
O9 W5 1.962678 1_555
O9 W0 1.980791 1_555
O10 Se0 1.749233 1_555
O10 W4 2.218768 1_555
O11 Se1 1.749233 1_555
O11 W3 2.218768 1_555
O12 Se1 1.749227 1_565
O12 W5 2.218771 1_555
O13 Se0 1.749227 1_655
O13 W1 2.218771 1_555
O14 Se0 1.749233 1_665
O14 W2 2.218768 1_555
O15 Se1 1.749233 1_665
O15 W0 2.218768 1_555
O16 W3 1.962685 1_555
O16 W5 1.980784 1_555
O17 W3 1.930362 1_655
O17 W0 1.947169 1_545
O18 W1 1.930364 1_565
O18 W2 1.947163 1_555
O19 W4 1.930357 1_555
O19 W1 1.947170 1_455
O20 W0 1.930357 1_555
O20 W5 1.947170 1_655
O21 W5 1.930364 1_545
O21 W3 1.947163 1_555
O22 W2 1.930362 1_455
O22 W4 1.947169 1_565
O23 W3 1.760908 1_555
