# generated using pymatgen
data_Na2HfTaSi2PO12
_symmetry_space_group_name_H-M   'P 1'
_cell_length_a   8.99318662
_cell_length_b   8.99318632
_cell_length_c   22.73801374
_cell_angle_alpha   90.11137486
_cell_angle_beta   89.88862509
_cell_angle_gamma   119.73551698
_symmetry_Int_Tables_number   1
_chemical_formula_structural   Na2HfTaSi2PO12
_chemical_formula_sum   'Na12 Hf6 Ta6 Si12 P6 O72'
_cell_volume   1596.83682230
_cell_formula_units_Z   6
loop_
 _symmetry_equiv_pos_site_id
 _symmetry_equiv_pos_as_xyz
  1  'x, y, z'
loop_
 _atom_site_type_symbol
 _atom_site_label
 _atom_site_symmetry_multiplicity
 _atom_site_fract_x
 _atom_site_fract_y
 _atom_site_fract_z
 _atom_site_occupancy
  Na  Na0  1  0.99254327  0.62931294  0.25083981  1
  Na  Na1  1  0.37068706  0.00745673  0.75083981  1
  Na  Na2  1  0.65921027  0.96264594  0.58417281  1
  Na  Na3  1  0.03735406  0.34078973  0.08417281  1
  Na  Na4  1  0.32587627  0.29597994  0.91750681  1
  Na  Na5  1  0.70402006  0.67412373  0.41750681  1
  Na  Na6  1  0.01906766  0.00317540  0.49814530  1
  Na  Na7  1  0.99682460  0.98093234  0.99814530  1
  Na  Na8  1  0.68573466  0.33650840  0.83147830  1
  Na  Na9  1  0.66349160  0.31426534  0.33147830  1
  Na  Na10  1  0.35240066  0.66984240  0.16481230  1
  Na  Na11  1  0.33015760  0.64759934  0.66481230  1
  Hf  Hf0  1  0.99862906  0.00350345  0.35406260  1
  Hf  Hf1  1  0.99649655  0.00137094  0.85406260  1
  Hf  Hf2  1  0.66529606  0.33683645  0.68739560  1
  Hf  Hf3  1  0.66316355  0.33470394  0.18739560  1
  Hf  Hf4  1  0.33196206  0.67017045  0.02072960  1
  Hf  Hf5  1  0.32982955  0.66803794  0.52072960  1
  Ta  Ta0  1  0.00068247  -0.00001827  0.64600265  1
  Ta  Ta1  1  0.00001827  0.99931753  0.14600265  1
  Ta  Ta2  1  0.66734947  0.33331473  0.97933565  1
  Ta  Ta3  1  0.66668527  0.33265053  0.47933565  1
  Ta  Ta4  1  0.33401547  0.66664873  0.31266965  1
  Ta  Ta5  1  0.33335127  0.66598453  0.81266965  1
  Si  Si0  1  0.70735476  0.71291454  0.25092361  1
  Si  Si1  1  0.00171433  0.29167401  0.24955858  1
  Si  Si2  1  0.28708546  0.29264524  0.75092361  1
  Si  Si3  1  0.70832599  0.99828567  0.74955858  1
  Si  Si4  1  0.37402176  0.04624754  0.58425661  1
  Si  Si5  1  0.66838133  0.62500701  0.58289158  1
  Si  Si6  1  0.95375246  0.62597824  0.08425661  1
  Si  Si7  1  0.37499299  0.33161867  0.08289158  1
  Si  Si8  1  0.04068776  0.37958154  0.91759061  1
  Si  Si9  1  0.33504733  0.95834101  0.91622558  1
  Si  Si10  1  0.62041846  0.95931224  0.41759061  1
  Si  Si11  1  0.04165899  0.66495267  0.41622558  1
  P  P0  1  0.28821798  0.99929943  0.25061200  1
  P  P1  1  0.00070057  0.71178202  0.75061200  1
  P  P2  1  0.95488498  0.33263243  0.58394500  1
  P  P3  1  0.66736757  0.04511502  0.08394500  1
  P  P4  1  0.62155098  0.66596643  0.91727900  1
  P  P5  1  0.33403357  0.37844902  0.41727900  1
  O  O0  1  0.20447994  0.02176750  0.30511402  1
  O  O1  1  0.82593247  0.79444926  0.30875611  1
  O  O2  1  0.98087968  0.17525582  0.30567203  1
  O  O3  1  0.20555074  0.17406753  0.80875611  1
  O  O4  1  0.97823250  0.79552006  0.80511402  1
  O  O5  1  0.82474418  0.01912032  0.80567203  1
  O  O6  1  0.79917962  0.97168488  0.68968535  1
  O  O7  1  0.16275620  0.18980735  0.69389874  1
  O  O8  1  0.02884691  0.82912304  0.69546264  1
  O  O9  1  0.81019265  0.83724380  0.19389874  1
  O  O10  1  0.02831512  0.20082038  0.18968535  1
  O  O11  1  0.17087696  0.97115309  0.19546264  1
  O  O12  1  0.87114694  0.35510050  0.63844702  1
  O  O13  1  0.49259947  0.12778226  0.64208911  1
  O  O14  1  0.64754668  0.50858882  0.63900503  1
  O  O15  1  0.87221774  0.50740053  0.14208911  1
  O  O16  1  0.64489950  0.12885306  0.13844702  1
  O  O17  1  0.49141118  0.35245332  0.13900503  1
  O  O18  1  0.46584662  0.30501788  0.02301835  1
  O  O19  1  0.82942320  0.52314035  0.02723174  1
  O  O20  1  0.69551391  0.16245604  0.02879564  1
  O  O21  1  0.47685965  0.17057680  0.52723174  1
  O  O22  1  0.69498212  0.53415338  0.52301835  1
  O  O23  1  0.83754396  0.30448609  0.52879564  1
  O  O24  1  0.53781294  0.68843450  0.97178102  1
  O  O25  1  0.15926547  0.46111626  0.97542311  1
  O  O26  1  0.31421268  0.84192282  0.97233903  1
  O  O27  1  0.53888374  0.84073453  0.47542311  1
  O  O28  1  0.31156550  0.46218706  0.47178102  1
  O  O29  1  0.15807718  0.68578732  0.47233903  1
  O  O30  1  0.13251262  0.63835188  0.35635235  1
  O  O31  1  0.49608920  0.85647435  0.36056574  1
  O  O32  1  0.36217991  0.49579004  0.36212964  1
  O  O33  1  0.14352565  0.50391080  0.86056574  1
  O  O34  1  0.36164812  0.86748738  0.85635235  1
  O  O35  1  0.50420996  0.63782009  0.86212964  1
  O  O36  1  0.01392140  0.82955475  0.41168491  1
  O  O37  1  0.80826310  0.97675367  0.41020448  1
  O  O38  1  0.18266474  0.19875881  0.40995706  1
  O  O39  1  0.02324633  0.19173690  0.91020448  1
  O  O40  1  0.17044525  0.98607860  0.91168491  1
  O  O41  1  0.80124119  0.81733526  0.90995706  1
  O  O42  1  0.96232169  0.16197060  0.58877382  1
  O  O43  1  0.18490350  0.02992816  0.59077436  1
  O  O44  1  0.84021745  0.81836088  0.58987192  1
  O  O45  1  0.97007184  0.81509650  0.09077436  1
  O  O46  1  0.83802940  0.03767831  0.08877382  1
  O  O47  1  0.18163912  0.15978255  0.08987192  1
  O  O48  1  0.68058840  0.16288775  0.74501791  1
  O  O49  1  0.47493010  0.31008667  0.74353748  1
  O  O50  1  0.84933174  0.53209181  0.74329006  1
  O  O51  1  0.68991333  0.52506990  0.24353748  1
  O  O52  1  0.83711225  0.31941160  0.24501791  1
  O  O53  1  0.46790819  0.15066826  0.24329006  1
  O  O54  1  0.62898869  0.49530360  0.92210682  1
  O  O55  1  0.85157050  0.36326116  0.92410736  1
  O  O56  1  0.50688445  0.15169388  0.92320492  1
  O  O57  1  0.63673884  0.14842950  0.42410736  1
  O  O58  1  0.50469640  0.37101131  0.42210682  1
  O  O59  1  0.84830612  0.49311555  0.42320492  1
  O  O60  1  0.34725440  0.49622175  0.07835191  1
  O  O61  1  0.14159610  0.64342067  0.07687148  1
  O  O62  1  0.51599774  0.86542581  0.07662406  1
  O  O63  1  0.35657933  0.85840390  0.57687148  1
  O  O64  1  0.50377825  0.65274560  0.57835191  1
  O  O65  1  0.13457419  0.48400226  0.57662406  1
  O  O66  1  0.29565469  0.82863760  0.25544082  1
  O  O67  1  0.51823650  0.69659516  0.25744136  1
  O  O68  1  0.17355045  0.48502788  0.25653892  1
  O  O69  1  0.30340484  0.48176350  0.75744136  1
  O  O70  1  0.17136240  0.70434531  0.75544082  1
  O  O71  1  0.51497212  0.82644955  0.75653892  1
loop_
_geom_bond_atom_site_label_1
_geom_bond_atom_site_label_2
_geom_bond_distance
_geom_bond_site_symmetry_2
Na0 O51 2.404935 1_555
Na0 O66 2.409989 1_655
Na0 O52 2.423540 1_555
Na0 O68 2.539125 1_655
Na0 O30 2.693787 1_655
Na0 O15 2.703809 1_555
Na0 O1 2.894301 1_555
Na0 O11 2.953776 1_655
Na1 O49 2.404935 1_555
Na1 O70 2.409989 1_545
Na1 O48 2.423540 1_555
Na1 O71 2.539125 1_545
Na1 O34 2.693787 1_545
Na1 O13 2.703809 1_555
Na1 O3 2.894301 1_555
Na1 O8 2.953776 1_545
Na2 O63 2.404944 1_555
Na2 O42 2.409989 1_565
Na2 O64 2.423531 1_555
Na2 O44 2.539125 1_555
Na2 O6 2.693787 1_555
Na2 O27 2.703789 1_555
Na2 O13 2.894301 1_565
Na2 O23 2.953776 1_565
Na3 O61 2.404944 1_555
Na3 O46 2.409989 1_455
Na3 O60 2.423531 1_555
Na3 O47 2.539125 1_555
Na3 O10 2.693787 1_555
Na3 O25 2.703789 1_554
Na3 O15 2.894301 1_455
Na3 O20 2.953776 1_455
Na4 O39 2.404935 1_555
Na4 O54 2.409994 1_555
Na4 O40 2.423540 1_545
Na4 O56 2.539139 1_555
Na4 O18 2.693773 1_556
Na4 O3 2.703809 1_555
Na4 O25 2.894301 1_555
Na4 O35 2.953776 1_555
Na5 O37 2.404935 1_555
Na5 O58 2.409993 1_555
Na5 O36 2.423540 1_655
Na5 O59 2.539139 1_555
Na5 O22 2.693773 1_555
Na5 O1 2.703809 1_555
Na5 O27 2.894301 1_555
Na5 O32 2.953776 1_555
Na6 O36 2.494347 1_545
Na6 O43 2.524384 1_555
Na6 O38 2.591228 1_555
Na6 O44 2.654828 1_445
Na6 O37 2.686068 1_445
Na6 O42 2.693286 1_455
Na7 O40 2.494347 1_655
Na7 O45 2.524384 1_556
Na7 O41 2.591228 1_555
Na7 O47 2.654828 1_666
Na7 O39 2.686068 1_665
Na7 O46 2.693286 1_566
Na8 O48 2.494347 1_555
Na8 O55 2.524384 1_555
Na8 O50 2.591228 1_555
Na8 O56 2.654828 1_555
Na8 O49 2.686068 1_555
Na8 O54 2.693286 1_555
Na9 O52 2.494347 1_555
Na9 O57 2.524384 1_555
Na9 O53 2.591228 1_555
Na9 O59 2.654828 1_555
Na9 O51 2.686068 1_555
Na9 O58 2.693286 1_555
Na10 O60 2.494347 1_555
Na10 O67 2.524384 1_555
Na10 O62 2.591228 1_555
Na10 O68 2.654828 1_555
Na10 O61 2.686068 1_555
Na10 O66 2.693286 1_555
Na11 O64 2.494347 1_555
Na11 O69 2.524384 1_555
Na11 O65 2.591228 1_555
Na11 O71 2.654828 1_555
Na11 O63 2.686068 1_555
Na11 O70 2.693286 1_555
Hf0 O2 1.968201 1_555
Hf0 O1 2.027353 1_545
Hf0 O37 2.050011 1_545
Hf0 O0 2.093787 1_655
Hf0 O36 2.098778 1_645
Hf0 O38 2.134117 1_655
Hf1 O5 1.968201 1_555
Hf1 O3 2.027353 1_655
Hf1 O39 2.050011 1_655
Hf1 O4 2.093786 1_545
Hf1 O40 2.098778 1_645
Hf1 O41 2.134117 1_545
Hf2 O14 1.968201 1_555
Hf2 O13 2.027353 1_555
Hf2 O49 2.050011 1_555
Hf2 O12 2.093787 1_555
Hf2 O48 2.098778 1_555
Hf2 O50 2.134117 1_555
Hf3 O17 1.968201 1_555
Hf3 O15 2.027353 1_555
Hf3 O51 2.050011 1_555
Hf3 O16 2.093786 1_555
Hf3 O52 2.098778 1_555
Hf3 O53 2.134117 1_555
Hf4 O26 1.968201 1_554
Hf4 O25 2.027353 1_554
Hf4 O61 2.050011 1_555
Hf4 O24 2.093787 1_554
Hf4 O60 2.098778 1_555
Hf4 O62 2.134117 1_555
Hf5 O29 1.968201 1_555
Hf5 O27 2.027353 1_555
Hf5 O63 2.050011 1_555
Hf5 O28 2.093786 1_555
Hf5 O64 2.098778 1_555
Hf5 O65 2.134117 1_555
O0 P0 1.513299 1_545
O1 Si0 1.621757 1_555
O2 Si1 1.602767 1_655
O3 Si2 1.621757 1_555
O4 P1 1.513299 1_655
O5 Si3 1.602767 1_545
O6 Si3 1.663290 1_555
O6 Ta0 1.967674 1_665
O7 Si2 1.661909 1_555
O7 Ta0 1.937902 1_555
O8 P1 1.577683 1_555
O8 Ta0 2.020857 1_565
O9 Si0 1.661909 1_555
O9 Ta1 1.937902 1_655
O10 Si1 1.663290 1_555
O10 Ta1 1.967674 1_545
O11 P0 1.577683 1_555
O11 Ta1 2.020857 1_555
O12 P2 1.513299 1_555
O13 Si4 1.621757 1_555
O14 Si5 1.602767 1_555
O15 Si6 1.621757 1_555
O16 P3 1.513299 1_555
O17 Si7 1.602767 1_555
O18 Si7 1.663290 1_555
O18 Ta2 1.967674 1_554
O19 Si6 1.661909 1_555
O19 Ta2 1.937902 1_554
O20 P3 1.577683 1_555
O20 Ta2 2.020857 1_554
O21 Si4 1.661909 1_555
O21 Ta3 1.937902 1_555
O22 Si5 1.663290 1_555
O22 Ta3 1.967674 1_555
O23 P2 1.577683 1_555
O23 Ta3 2.020857 1_555
O24 P4 1.513299 1_555
O25 Si8 1.621757 1_555
O26 Si9 1.602767 1_555
O27 Si10 1.621757 1_555
O28 P5 1.513299 1_555
O29 Si11 1.602767 1_555
O30 Si11 1.663290 1_555
O30 Ta4 1.967674 1_555
O31 Si10 1.661909 1_555
O31 Ta4 1.937902 1_555
O32 P5 1.577683 1_555
O32 Ta4 2.020857 1_555
O33 Si8 1.661909 1_555
O33 Ta5 1.937902 1_555
O34 Si9 1.663290 1_555
O34 Ta5 1.967674 1_555
O35 P4 1.577683 1_555
O35 Ta5 2.020857 1_555
O36 Si11 1.622086 1_555
O37 Si10 1.625657 1_555
O38 P5 1.519823 1_555
O39 Si8 1.625657 1_555
O40 Si9 1.622086 1_555
O41 P4 1.519823 1_555
O42 P2 1.573095 1_555
O42 Ta0 2.107662 1_655
O43 Si4 1.639400 1_555
O43 Ta0 1.986178 1_555
O44 Si5 1.664692 1_555
O44 Ta0 2.010011 1_665
O45 Si6 1.639400 1_555
O45 Ta1 1.986178 1_655
O46 P3 1.573095 1_555
O46 Ta1 2.107662 1_645
O47 Si7 1.664692 1_555
O47 Ta1 2.010011 1_545
O48 Si3 1.622086 1_545
O49 Si2 1.625657 1_555
O50 P1 1.519823 1_655
O51 Si0 1.625657 1_555
O52 Si1 1.622086 1_655
O53 P0 1.519823 1_545
O54 P4 1.573107 1_555
O54 Ta2 2.107662 1_555
O55 Si8 1.639385 1_655
O55 Ta2 1.986178 1_555
O56 Si9 1.664688 1_545
O56 Ta2 2.010011 1_555
O57 Si10 1.639385 1_545
O57 Ta3 1.986178 1_555
O58 P5 1.573107 1_555
O58 Ta3 2.107662 1_555
O59 Si11 1.664688 1_655
O59 Ta3 2.010011 1_555
O60 Si7 1.622098 1_555
O61 Si6 1.625642 1_455
O62 P3 1.519818 1_565
O63 Si4 1.625642 1_565
O64 Si5 1.622098 1_555
O65 P2 1.519818 1_455
O66 P0 1.573095 1_555
O66 Ta4 2.107662 1_555
O67 Si0 1.639400 1_555
O67 Ta4 1.986178 1_555
O68 Si1 1.664692 1_555
O68 Ta4 2.010011 1_555
O69 Si2 1.639400 1_555
O69 Ta5 1.986178 1_555
O70 P1 1.573095 1_555
O70 Ta5 2.107662 1_555
O71 Si3 1.664692 1_555
O71 Ta5 2.010011 1_555
