# generated using pymatgen
data_CaZr3P2(SO6)4
_symmetry_space_group_name_H-M   'P 1'
_cell_length_a   9.04965078
_cell_length_b   9.06349632
_cell_length_c   23.31088350
_cell_angle_alpha   90.04241771
_cell_angle_beta   90.00993955
_cell_angle_gamma   119.98746269
_symmetry_Int_Tables_number   1
_chemical_formula_structural   CaZr3P2(SO6)4
_chemical_formula_sum   'Ca3 Zr9 P6 S12 O72'
_cell_volume   1656.04295203
_cell_formula_units_Z   3
loop_
 _symmetry_equiv_pos_site_id
 _symmetry_equiv_pos_as_xyz
  1  'x, y, z'
loop_
 _atom_site_type_symbol
 _atom_site_label
 _atom_site_symmetry_multiplicity
 _atom_site_fract_x
 _atom_site_fract_y
 _atom_site_fract_z
 _atom_site_occupancy
  Ca  Ca0  1  0.99664015  0.00092939  0.35890623  1
  Ca  Ca1  1  0.67265484  0.33532915  0.68954623  1
  Ca  Ca2  1  0.66426292  0.33431533  0.18594884  1
  Zr  Zr0  1  0.00068005  0.00051591  0.86139142  1
  Zr  Zr1  1  0.99851990  0.00552984  0.64345294  1
  Zr  Zr2  1  0.00676073  0.00730425  0.14436438  1
  Zr  Zr3  1  0.65793381  0.33163539  0.97681043  1
  Zr  Zr4  1  0.67225950  0.32509062  0.47723391  1
  Zr  Zr5  1  0.33296215  0.66152420  0.01960935  1
  Zr  Zr6  1  0.33469905  0.66632989  0.52162883  1
  Zr  Zr7  1  0.34024323  0.67345728  0.30911430  1
  Zr  Zr8  1  0.33077301  0.66519534  0.81489521  1
  P  P0  1  0.95804229  0.33457946  0.58310636  1
  P  P1  1  0.37588256  0.33384455  0.08289457  1
  P  P2  1  0.61819775  0.66522652  0.91637153  1
  P  P3  1  0.04336657  0.38137494  0.91680502  1
  P  P4  1  0.33514516  0.95194466  0.91689750  1
  P  P5  1  0.61332919  0.95072768  0.41743157  1
  S  S0  1  0.28585117  0.99532506  0.25084823  1
  S  S1  1  0.71134697  0.71422645  0.25025935  1
  S  S2  1  0.00572766  0.29293713  0.25075599  1
  S  S3  1  0.27970358  0.28581029  0.75151702  1
  S  S4  1  0.00681802  0.72258096  0.75148670  1
  S  S5  1  0.71328740  0.99239123  0.75186084  1
  S  S6  1  0.37351220  0.04164519  0.58273921  1
  S  S7  1  0.66818896  0.62492429  0.58260941  1
  S  S8  1  0.95958210  0.62738268  0.08244620  1
  S  S9  1  0.66699112  0.04018441  0.08233628  1
  S  S10  1  0.34215182  0.38620217  0.41784154  1
  S  S11  1  0.04690729  0.66110101  0.41741365  1
  O  O0  1  0.20781946  0.01795992  0.30180161  1
  O  O1  1  0.81080309  0.79193862  0.30156017  1
  O  O2  1  0.98152074  0.19090949  0.30144531  1
  O  O3  1  0.19198827  0.17824509  0.80185212  1
  O  O4  1  0.98823600  0.81103255  0.80217412  1
  O  O5  1  0.82231169  0.01340478  0.80198286  1
  O  O6  1  0.79629110  0.96857966  0.69897550  1
  O  O7  1  0.17194033  0.20283662  0.69879895  1
  O  O8  1  0.03094348  0.82852550  0.69898854  1
  O  O9  1  0.79274934  0.82490060  0.19847055  1
  O  O10  1  0.03411848  0.20861906  0.19855134  1
  O  O11  1  0.17454824  0.96799924  0.19870468  1
  O  O12  1  0.88836662  0.37174580  0.63612141  1
  O  O13  1  0.47640738  0.11001425  0.63411767  1
  O  O14  1  0.63180852  0.52239798  0.63412847  1
  O  O15  1  0.89382634  0.52488826  0.13360841  1
  O  O16  1  0.63401695  0.10811969  0.13375229  1
  O  O17  1  0.48097455  0.37022779  0.13598494  1
  O  O18  1  0.46342630  0.30294153  0.02973923  1
  O  O19  1  0.84787988  0.54521447  0.03156533  1
  O  O20  1  0.69855651  0.15231097  0.03151959  1
  O  O21  1  0.45398734  0.15331424  0.53189831  1
  O  O22  1  0.69698019  0.54400270  0.53175955  1
  O  O23  1  0.83849043  0.30207681  0.52989882  1
  O  O24  1  0.53664626  0.69800213  0.96883470  1
  O  O25  1  0.16015654  0.46430012  0.96877546  1
  O  O26  1  0.30345290  0.83854010  0.96916647  1
  O  O27  1  0.51687773  0.83984354  0.47008861  1
  O  O28  1  0.31955931  0.47261788  0.46901009  1
  O  O29  1  0.15222218  0.67871584  0.46884500  1
  O  O30  1  0.12501615  0.63071993  0.36580451  1
  O  O31  1  0.49833510  0.86372389  0.36374310  1
  O  O32  1  0.36791985  0.49330105  0.36614995  1
  O  O33  1  0.12903981  0.49493705  0.86311536  1
  O  O34  1  0.36313695  0.86723424  0.86300736  1
  O  O35  1  0.50399517  0.63563980  0.86290686  1
  O  O36  1  0.02980951  0.80992629  0.41295184  1
  O  O37  1  0.78760169  0.97255119  0.41335245  1
  O  O38  1  0.19467740  0.21892895  0.41309461  1
  O  O39  1  0.02518752  0.20459578  0.90525581  1
  O  O40  1  0.17846232  0.97400374  0.90566299  1
  O  O41  1  0.79586218  0.82259057  0.90537263  1
  O  O42  1  0.97679483  0.17233021  0.59233342  1
  O  O43  1  0.20016289  0.02227290  0.59078562  1
  O  O44  1  0.82244094  0.79801930  0.59111932  1
  O  O45  1  0.97649078  0.79959278  0.09104080  1
  O  O46  1  0.82134898  0.02061184  0.09065149  1
  O  O47  1  0.19433542  0.17145436  0.09205612  1
  O  O48  1  0.69428779  0.14145822  0.74584738  1
  O  O49  1  0.44745267  0.30384655  0.74485964  1
  O  O50  1  0.85625871  0.55489329  0.74638344  1
  O  O51  1  0.68318296  0.54386641  0.24200498  1
  O  O52  1  0.86321823  0.31993129  0.24065162  1
  O  O53  1  0.45687013  0.13567217  0.24183122  1
  O  O54  1  0.63957914  0.50891307  0.92658625  1
  O  O55  1  0.86707376  0.36067749  0.92819650  1
  O  O56  1  0.49327289  0.12936034  0.92649380  1
  O  O57  1  0.62196291  0.12712200  0.42722692  1
  O  O58  1  0.50019857  0.37637043  0.42772875  1
  O  O59  1  0.87530007  0.50450939  0.42614986  1
  O  O60  1  0.34601053  0.48390693  0.06819914  1
  O  O61  1  0.13342346  0.65523533  0.07033106  1
  O  O62  1  0.51936047  0.86796191  0.07041759  1
  O  O63  1  0.34650142  0.86857610  0.57106744  1
  O  O64  1  0.52181561  0.65310349  0.57134811  1
  O  O65  1  0.13716325  0.48270357  0.56781304  1
  O  O66  1  0.29412201  0.83193496  0.25699913  1
  O  O67  1  0.53676374  0.70138547  0.25716952  1
  O  O68  1  0.16671256  0.46384358  0.25807610  1
  O  O69  1  0.29101598  0.45437457  0.75836592  1
  O  O70  1  0.16366074  0.70920584  0.75864819  1
  O  O71  1  0.54484759  0.83492324  0.75855699  1
loop_
_geom_bond_atom_site_label_1
_geom_bond_atom_site_label_2
_geom_bond_distance
_geom_bond_site_symmetry_2
Ca0 O37 2.184161 1_545
Ca0 O1 2.239279 1_545
Ca0 O2 2.239784 1_555
Ca0 O0 2.270334 1_655
Ca0 O38 2.273159 1_655
Ca0 O36 2.279643 1_645
Ca1 O12 2.197282 1_555
Ca1 O50 2.272976 1_555
Ca1 O48 2.279377 1_555
Ca1 O14 2.304293 1_555
Ca1 O49 2.305988 1_555
Ca1 O13 2.315987 1_555
Ca2 O17 2.180213 1_555
Ca2 O51 2.239468 1_555
Ca2 O53 2.255535 1_555
Ca2 O52 2.262489 1_555
Ca2 O16 2.278959 1_555
Ca2 O15 2.281442 1_555
O0 S0 1.447856 1_545
O1 S1 1.449468 1_555
O2 S2 1.448630 1_655
O3 S3 1.478432 1_555
O3 Zr0 2.175965 1_555
O4 S4 1.483408 1_655
O4 Zr0 2.161184 1_665
O5 S5 1.478607 1_545
O5 Zr0 2.173708 1_655
O6 S5 1.514131 1_555
O6 Zr1 2.127295 1_565
O7 S3 1.513905 1_555
O7 Zr1 2.125068 1_455
O8 S4 1.503199 1_555
O8 Zr1 2.193000 1_465
O9 S1 1.506567 1_555
O9 Zr2 2.208651 1_665
O10 S2 1.525116 1_555
O10 Zr2 2.128608 1_555
O11 S0 1.517606 1_555
O11 Zr2 2.139580 1_565
O12 P0 1.500100 1_555
O13 S6 1.451622 1_555
O14 S7 1.452637 1_555
O15 S8 1.445252 1_555
O16 S9 1.444783 1_555
O17 P1 1.493430 1_555
O18 P1 1.569426 1_555
O18 Zr3 2.057172 1_554
O19 S8 1.492982 1_555
O19 Zr3 2.236181 1_554
O20 S9 1.493092 1_555
O20 Zr3 2.236824 1_554
O21 S6 1.491504 1_555
O21 Zr4 2.208873 1_555
O22 S7 1.483483 1_555
O22 Zr4 2.270406 1_555
O23 P0 1.573555 1_555
O23 Zr4 2.031523 1_555
O24 P2 1.532147 1_555
O24 Zr5 2.073648 1_556
O25 P3 1.534199 1_555
O25 Zr5 2.060806 1_556
O26 P4 1.526630 1_555
O26 Zr5 2.111633 1_556
O27 P5 1.550458 1_555
O27 Zr6 2.011582 1_555
O28 S10 1.495579 1_555
O28 Zr6 2.088564 1_555
O29 S11 1.489437 1_555
O29 Zr6 2.106740 1_555
O30 S11 1.489020 1_555
O30 Zr7 2.222056 1_555
O31 P5 1.564892 1_555
O31 Zr7 2.042599 1_555
O32 S10 1.491357 1_555
O32 Zr7 2.215521 1_555
O33 P3 1.559305 1_555
O33 Zr8 2.040787 1_555
O34 P4 1.557192 1_555
O34 Zr8 2.039012 1_555
O35 P2 1.554132 1_555
O35 Zr8 2.049713 1_555
O36 S11 1.436336 1_555
O37 P5 1.491200 1_555
O38 S10 1.438401 1_555
O39 P3 1.550021 1_555
O39 Zr0 2.025607 1_555
O40 P4 1.549967 1_555
O40 Zr0 2.024224 1_565
O41 P2 1.547062 1_555
O41 Zr0 2.025449 1_665
O42 P0 1.577177 1_555
O42 Zr1 2.010941 1_555
O43 S6 1.500601 1_555
O43 Zr1 2.141136 1_455
O44 S7 1.503170 1_555
O44 Zr1 2.136539 1_565
O45 S8 1.503500 1_555
O45 Zr2 2.155273 1_665
O46 S9 1.505986 1_555
O46 Zr2 2.144638 1_655
O47 P1 1.579401 1_555
O47 Zr2 2.015101 1_555
O48 S5 1.451580 1_545
O49 S3 1.451688 1_555
O50 S4 1.452638 1_655
O51 S1 1.446461 1_555
O52 S2 1.447050 1_655
O53 S0 1.445713 1_545
O54 P2 1.541370 1_555
O54 Zr3 2.061422 1_555
O55 P3 1.533630 1_655
O55 Zr3 2.106844 1_555
O56 P4 1.543586 1_545
O56 Zr3 2.054910 1_555
O57 P5 1.577602 1_545
O57 Zr4 1.991444 1_555
O58 S10 1.494673 1_555
O58 Zr4 2.166997 1_555
O59 S11 1.504935 1_655
O59 Zr4 2.110787 1_555
O60 P1 1.551924 1_555
O60 Zr5 2.020180 1_555
O61 S8 1.490544 1_455
O61 Zr5 2.135404 1_555
O62 S9 1.487692 1_565
O62 Zr5 2.142447 1_555
O63 S6 1.486735 1_565
O63 Zr6 2.121506 1_555
O64 S7 1.492295 1_555
O64 Zr6 2.104161 1_555
O65 P0 1.543558 1_455
O65 Zr6 2.038103 1_555
O66 S0 1.526530 1_555
O66 Zr7 2.077233 1_555
O67 S1 1.533603 1_555
O67 Zr7 2.060184 1_555
O68 S2 1.514818 1_555
O68 Zr7 2.122415 1_555
O69 S3 1.487742 1_555
O69 Zr8 2.196783 1_555
O70 S4 1.493026 1_555
O70 Zr8 2.183678 1_555
O71 S5 1.486795 1_555
O71 Zr8 2.206610 1_555
