# generated using pymatgen
data_Na6CaSi2Sn3(PO6)4
_symmetry_space_group_name_H-M   'P 1'
_cell_length_a   9.12997035
_cell_length_b   9.14836520
_cell_length_c   22.46234805
_cell_angle_alpha   90.17299776
_cell_angle_beta   89.96948346
_cell_angle_gamma   120.20397567
_symmetry_Int_Tables_number   1
_chemical_formula_structural   Na6CaSi2Sn3(PO6)4
_chemical_formula_sum   'Na18 Ca3 Si6 Sn9 P12 O72'
_cell_volume   1621.43693310
_cell_formula_units_Z   3
loop_
 _symmetry_equiv_pos_site_id
 _symmetry_equiv_pos_as_xyz
  1  'x, y, z'
loop_
 _atom_site_type_symbol
 _atom_site_label
 _atom_site_symmetry_multiplicity
 _atom_site_fract_x
 _atom_site_fract_y
 _atom_site_fract_z
 _atom_site_occupancy
  Na  Na0  1  0.00073006  0.99695727  0.50243806  1
  Na  Na1  1  0.00032449  0.99788828  0.99849558  1
  Na  Na2  1  0.65110336  0.30323009  0.83475667  1
  Na  Na3  1  0.65010592  0.33092965  0.32438507  1
  Na  Na4  1  0.32607995  0.66761002  0.16148307  1
  Na  Na5  1  0.32746970  0.66486619  0.66524765  1
  Na  Na6  1  0.64737481  0.01115185  0.24353822  1
  Na  Na7  1  0.98857296  0.62770719  0.23851373  1
  Na  Na8  1  0.63153810  0.61898327  0.74373140  1
  Na  Na9  1  0.99027216  0.36993358  0.74877938  1
  Na  Na10  1  0.66525324  0.97325338  0.58580833  1
  Na  Na11  1  0.66625943  0.68546477  0.07803671  1
  Na  Na12  1  0.02450127  0.34205561  0.08279180  1
  Na  Na13  1  0.96909244  0.66771928  0.91990387  1
  Na  Na14  1  0.33428001  0.30348232  0.91848170  1
  Na  Na15  1  0.96158577  0.28453404  0.41410948  1
  Na  Na16  1  0.32892067  0.03244964  0.41206331  1
  Na  Na17  1  0.71237673  0.68481973  0.41847263  1
  Ca  Ca0  1  0.00186593  0.00053092  0.35147522  1
  Ca  Ca1  1  0.65748868  0.32939825  0.68413081  1
  Ca  Ca2  1  0.66025852  0.33041207  0.17844941  1
  Si  Si0  1  0.66836924  0.63867987  0.58586998  1
  Si  Si1  1  0.97539026  0.63990275  0.08429504  1
  Si  Si2  1  0.62626235  0.66502929  0.91608586  1
  Si  Si3  1  0.03713202  0.37239412  0.91554937  1
  Si  Si4  1  0.33796652  0.96457404  0.91516325  1
  Si  Si5  1  0.62218738  0.96707658  0.41953885  1
  Sn  Sn0  1  0.99775070  0.99952139  0.85595924  1
  Sn  Sn1  1  0.00406383  0.99572757  0.64707507  1
  Sn  Sn2  1  0.00865022  0.00237075  0.14956092  1
  Sn  Sn3  1  0.66769248  0.33265453  0.98144017  1
  Sn  Sn4  1  0.66550046  0.33514570  0.48710369  1
  Sn  Sn5  1  0.33320832  0.67364379  0.01293247  1
  Sn  Sn6  1  0.33461578  0.66331563  0.52102453  1
  Sn  Sn7  1  0.33681724  0.66751632  0.31470949  1
  Sn  Sn8  1  0.33552618  0.67443901  0.81721802  1
  P  P0  1  0.29773579  0.98958531  0.25446462  1
  P  P1  1  0.69518815  0.70424130  0.25184119  1
  P  P2  1  0.00998167  0.30499485  0.25191831  1
  P  P3  1  0.28292343  0.29395809  0.75312922  1
  P  P4  1  0.01333614  0.71568139  0.75236450  1
  P  P5  1  0.70734637  0.98986133  0.75039866  1
  P  P6  1  0.97057449  0.33199111  0.58477611  1
  P  P7  1  0.36096878  0.02979997  0.58022726  1
  P  P8  1  0.66794388  0.02910607  0.08513044  1
  P  P9  1  0.36223585  0.33602746  0.07997843  1
  P  P10  1  0.34492390  0.38302103  0.41830948  1
  P  P11  1  0.03906042  0.65322325  0.41817155  1
  O  O0  1  0.22675583  0.00301653  0.31377912  1
  O  O1  1  0.78656638  0.78125547  0.31016665  1
  O  O2  1  0.99395900  0.21013142  0.30885485  1
  O  O3  1  0.19761320  0.19446947  0.81061377  1
  O  O4  1  0.99342824  0.80043660  0.80957079  1
  O  O5  1  0.82131616  0.00871034  0.80409005  1
  O  O6  1  0.78739332  0.96720162  0.69144827  1
  O  O7  1  0.16962268  0.20383630  0.69744459  1
  O  O8  1  0.03288788  0.82262748  0.69628444  1
  O  O9  1  0.78874485  0.82327147  0.19636870  1
  O  O10  1  0.02598453  0.21389661  0.19404650  1
  O  O11  1  0.17765727  0.96819441  0.20060907  1
  O  O12  1  0.89606822  0.35500224  0.64165535  1
  O  O13  1  0.48415324  0.10704391  0.63118980  1
  O  O14  1  0.64336916  0.54163087  0.64663616  1
  O  O15  1  0.90829118  0.53293559  0.14435981  1
  O  O16  1  0.63987686  0.08819940  0.14466840  1
  O  O17  1  0.47139087  0.36970014  0.13406682  1
  O  O18  1  0.43910526  0.30419613  0.02269773  1
  O  O19  1  0.84080367  0.54567781  0.02744726  1
  O  O20  1  0.69762218  0.15490931  0.03350868  1
  O  O21  1  0.43871551  0.13404817  0.52094675  1
  O  O22  1  0.69267676  0.54751513  0.52444889  1
  O  O23  1  0.84998510  0.29654320  0.52864609  1
  O  O24  1  0.54455452  0.69553177  0.97587692  1
  O  O25  1  0.16074282  0.45458621  0.97331034  1
  O  O26  1  0.28490219  0.83474246  0.97057402  1
  O  O27  1  0.52847929  0.84645096  0.47641219  1
  O  O28  1  0.30970976  0.46339478  0.47280437  1
  O  O29  1  0.15340409  0.67477310  0.47139853  1
  O  O30  1  0.11396685  0.62249757  0.35953655  1
  O  O31  1  0.50433346  0.88367916  0.35832741  1
  O  O32  1  0.37420085  0.49377695  0.36177353  1
  O  O33  1  0.11689117  0.49394583  0.85611720  1
  O  O34  1  0.37804579  0.88835304  0.85560421  1
  O  O35  1  0.50510229  0.62467474  0.85680254  1
  O  O36  1  0.01861147  0.80894346  0.41665117  1
  O  O37  1  0.80997956  0.99152467  0.41965429  1
  O  O38  1  0.19487404  0.20320603  0.41511708  1
  O  O39  1  0.02363443  0.18720050  0.91148459  1
  O  O40  1  0.16857667  0.98598632  0.91097894  1
  O  O41  1  0.82116320  0.82517183  0.91201622  1
  O  O42  1  0.98506519  0.16862911  0.58632929  1
  O  O43  1  0.18819804  0.02128731  0.58662556  1
  O  O44  1  0.83728929  0.83387128  0.58500257  1
  O  O45  1  0.98012011  0.82478805  0.08820647  1
  O  O46  1  0.83782662  0.02101350  0.08659656  1
  O  O47  1  0.17678455  0.17992779  0.08644893  1
  O  O48  1  0.69338385  0.14858616  0.74951988  1
  O  O49  1  0.46170537  0.32282420  0.75160496  1
  O  O50  1  0.85539208  0.53851157  0.75053373  1
  O  O51  1  0.67713620  0.53026535  0.24500270  1
  O  O52  1  0.85268444  0.32472306  0.24733948  1
  O  O53  1  0.47946076  0.13470548  0.24739109  1
  O  O54  1  0.64148550  0.49325933  0.92162010  1
  O  O55  1  0.85368086  0.36147770  0.92303266  1
  O  O56  1  0.49940413  0.15504075  0.92416161  1
  O  O57  1  0.63409831  0.15572084  0.42349640  1
  O  O58  1  0.51383726  0.37825107  0.42260974  1
  O  O59  1  0.86087067  0.48907324  0.42322426  1
  O  O60  1  0.34283575  0.49610210  0.07381822  1
  O  O61  1  0.16062603  0.65376621  0.07475356  1
  O  O62  1  0.51965348  0.84541836  0.07460416  1
  O  O63  1  0.32938059  0.84605409  0.57419044  1
  O  O64  1  0.50493716  0.67184738  0.57983911  1
  O  O65  1  0.14776985  0.48947708  0.57561853  1
  O  O66  1  0.29657135  0.81467850  0.25133400  1
  O  O67  1  0.52005232  0.70090722  0.25105519  1
  O  O68  1  0.17395443  0.48617152  0.25201791  1
  O  O69  1  0.28967337  0.47080319  0.75341081  1
  O  O70  1  0.17480652  0.69638021  0.75304391  1
  O  O71  1  0.53341604  0.81942342  0.75358571  1
loop_
_geom_bond_atom_site_label_1
_geom_bond_atom_site_label_2
_geom_bond_distance
_geom_bond_site_symmetry_2
Na0 O44 2.380314 1_455
Na0 O43 2.484492 1_565
Na0 O42 2.499151 1_465
Na0 O37 2.531613 1_455
Na0 O36 2.638283 1_555
Na0 O38 2.683805 1_565
Na1 O45 2.515437 1_456
Na1 O41 2.515956 1_455
Na1 O40 2.529790 1_555
Na1 O46 2.544059 1_466
Na1 O39 2.552227 1_565
Na1 O47 2.560492 1_566
Na2 O56 2.431761 1_555
Na2 O48 2.519643 1_555
Na2 O55 2.577292 1_555
Na2 O49 2.613084 1_555
Na2 O54 2.640054 1_555
Na2 O50 2.769899 1_555
Na3 O53 2.410595 1_555
Na3 O51 2.476340 1_555
Na3 O52 2.553572 1_555
Na3 O58 2.671424 1_555
Na3 O57 2.707833 1_555
Na3 O59 2.812312 1_555
Na4 O61 2.429476 1_555
Na4 O66 2.510757 1_555
Na4 O68 2.552962 1_555
Na4 O60 2.566190 1_555
Na4 O62 2.588584 1_555
Na4 O67 2.595101 1_555
Na5 O64 2.490627 1_555
Na5 O70 2.512567 1_555
Na5 O69 2.568436 1_555
Na5 O65 2.579703 1_555
Na5 O71 2.604633 1_555
Na5 O63 2.631099 1_555
Na6 O53 2.319076 1_555
Na6 O16 2.343468 1_555
Na6 O67 2.473543 1_545
Na6 O52 2.517639 1_555
Na6 O66 2.780016 1_545
Na6 O9 2.821786 1_545
Na6 O31 2.862871 1_545
Na7 O15 2.261194 1_555
Na7 O52 2.409246 1_555
Na7 O66 2.464644 1_655
Na7 O51 2.520097 1_555
Na7 O68 2.615560 1_655
Na7 O11 2.830501 1_655
Na7 O30 2.960057 1_655
Na8 O14 2.310081 1_555
Na8 O49 2.356245 1_555
Na8 O71 2.421607 1_555
Na8 O50 2.501446 1_555
Na8 O69 2.714918 1_555
Na8 O35 2.800465 1_555
Na9 O69 2.407537 1_655
Na9 O50 2.409748 1_555
Na9 O48 2.434241 1_555
Na9 O12 2.535839 1_555
Na9 O70 2.588919 1_655
Na9 O33 2.665252 1_655
Na10 O64 2.387602 1_555
Na10 O44 2.471493 1_555
Na10 O42 2.543493 1_565
Na10 O6 2.634972 1_555
Na10 O63 2.689672 1_555
Na10 O13 2.701473 1_565
Na10 O27 2.733474 1_555
Na10 O23 2.870917 1_565
Na11 O62 2.431121 1_555
Na11 O45 2.492415 1_555
Na11 O60 2.565495 1_555
Na11 O24 2.572157 1_554
Na11 O46 2.659417 1_565
Na11 O19 2.739701 1_555
Na11 O17 2.818254 1_555
Na11 O9 2.910224 1_555
Na12 O61 2.479119 1_555
Na12 O47 2.493074 1_555
Na12 O60 2.520659 1_555
Na12 O46 2.550092 1_455
Na12 O25 2.716316 1_554
Na12 O10 2.766537 1_555
Na12 O20 2.813254 1_455
Na12 O15 2.817031 1_455
Na13 O41 2.426839 1_555
Na13 O55 2.448491 1_555
Na13 O40 2.549979 1_655
Na13 O54 2.586924 1_555
Na13 O19 2.674214 1_556
Na13 O4 2.722470 1_555
Na13 O26 2.739334 1_655
Na13 O33 2.922955 1_655
Na14 O54 2.446615 1_555
Na14 O39 2.482755 1_555
Na14 O56 2.488851 1_555
Na14 O40 2.515892 1_545
Na14 O18 2.528237 1_556
Na14 O3 2.675603 1_555
Na14 O25 2.851192 1_555
Na14 O35 2.897810 1_555
Na15 O37 2.320658 1_545
Na15 O59 2.473365 1_555
Na15 O2 2.516421 1_555
Na15 O38 2.585580 1_655
Na15 O57 2.613166 1_555
Na15 O23 2.788814 1_555
Na16 O0 2.358465 1_555
Na16 O38 2.421907 1_555
Na16 O57 2.436903 1_555
Na16 O36 2.527921 1_545
Na16 O21 2.627168 1_555
Na16 O58 2.745242 1_555
Na16 O31 2.838175 1_545
Na17 O36 2.431871 1_655
Na17 O58 2.458954 1_555
Na17 O37 2.480206 1_555
Na17 O1 2.562348 1_555
Na17 O22 2.658405 1_555
Na17 O59 2.738675 1_555
Na17 O32 2.961555 1_555
Na17 O27 3.030377 1_555
Ca0 O2 2.179217 1_455
Ca0 O1 2.184534 1_445
Ca0 O0 2.210105 1_555
Ca0 O37 2.296529 1_445
Ca0 O38 2.299111 1_555
Ca0 O36 2.350326 1_545
Ca1 O14 2.181172 1_555
Ca1 O13 2.192001 1_555
Ca1 O12 2.279388 1_555
Ca1 O49 2.320643 1_555
Ca1 O48 2.358291 1_555
Ca1 O50 2.378441 1_555
Ca2 O17 2.173489 1_555
Ca2 O15 2.220903 1_555
Ca2 O16 2.257326 1_555
Ca2 O51 2.302535 1_555
Ca2 O53 2.317076 1_555
Ca2 O52 2.362019 1_555
O0 P0 1.512748 1_545
O1 P1 1.520864 1_555
O2 P2 1.512938 1_655
O3 P3 1.547609 1_555
O3 Sn0 2.069412 1_445
O4 P4 1.555945 1_655
O4 Sn0 2.078631 1_555
O5 P5 1.544839 1_545
O5 Sn0 2.024397 1_545
O6 P5 1.574876 1_555
O6 Sn1 2.110657 1_655
O7 P3 1.565681 1_555
O7 Sn1 2.069508 1_545
O8 P4 1.551578 1_555
O8 Sn1 2.056452 1_555
O9 P1 1.593486 1_555
O9 Sn2 2.125867 1_665
O10 P2 1.587926 1_555
O10 Sn2 2.109164 1_555
O11 P0 1.577260 1_555
O11 Sn2 2.069538 1_565
O12 P6 1.510279 1_555
O13 P7 1.507152 1_555
O14 Si0 1.583205 1_555
O15 Si1 1.599107 1_555
O16 P8 1.510335 1_555
O17 P9 1.501440 1_555
O18 P9 1.560526 1_555
O18 Sn3 2.175979 1_554
O19 Si1 1.677136 1_555
O19 Sn3 2.062604 1_554
O20 P8 1.560922 1_555
O20 Sn3 2.132046 1_554
O21 P7 1.584939 1_555
O21 Sn4 2.103255 1_555
O22 Si0 1.681441 1_555
O22 Sn4 2.011270 1_555
O23 P6 1.595850 1_555
O23 Sn4 2.105853 1_555
O24 Si2 1.626119 1_555
O24 Sn5 2.016617 1_556
O25 Si3 1.632256 1_555
O25 Sn5 2.025668 1_556
O26 Si4 1.619856 1_555
O26 Sn5 1.983626 1_556
O27 Si5 1.624555 1_555
O27 Sn6 1.992113 1_555
O28 P10 1.540907 1_555
O28 Sn6 2.034650 1_555
O29 P11 1.533297 1_555
O29 Sn6 2.041559 1_555
O30 P11 1.572147 1_555
O30 Sn7 2.116692 1_555
O31 Si5 1.673206 1_555
O31 Sn7 2.038747 1_555
O32 P10 1.563880 1_555
O32 Sn7 2.077680 1_555
O33 Si3 1.655955 1_555
O33 Sn8 2.040841 1_555
O34 Si4 1.631104 1_555
O34 Sn8 1.987376 1_555
O35 Si2 1.649521 1_555
O35 Sn8 2.026813 1_555
O36 P11 1.527538 1_555
O37 Si5 1.613640 1_555
O38 P10 1.523122 1_555
O39 Si3 1.637959 1_555
O39 Sn0 2.034332 1_445
O40 Si4 1.656508 1_555
O40 Sn0 2.042661 1_455
O41 Si2 1.642782 1_555
O41 Sn0 2.037517 1_555
O42 P6 1.565725 1_555
O42 Sn1 2.164083 1_645
O43 P7 1.546322 1_555
O43 Sn1 2.080528 1_545
O44 Si0 1.672364 1_555
O44 Sn1 2.043608 1_655
O45 Si1 1.672133 1_555
O45 Sn2 2.041462 1_665
O46 P8 1.589920 1_555
O46 Sn2 2.175602 1_655
O47 P9 1.579696 1_555
O47 Sn2 2.123064 1_555
O48 P5 1.520387 1_545
O49 P3 1.517076 1_555
O50 P4 1.534984 1_655
O51 P1 1.522680 1_555
O52 P2 1.538391 1_655
O53 P0 1.524888 1_545
O54 Si2 1.650777 1_555
O54 Sn3 2.094640 1_555
O55 Si3 1.635553 1_655
O55 Sn3 2.055099 1_555
O56 Si4 1.632049 1_545
O56 Sn3 2.033189 1_555
O57 Si5 1.675805 1_545
O57 Sn4 2.081031 1_555
O58 P10 1.567619 1_555
O58 Sn4 2.174058 1_555
O59 P11 1.567611 1_655
O59 Sn4 2.169270 1_555
O60 P9 1.567571 1_555
O60 Sn5 2.161810 1_555
O61 Si1 1.645033 1_455
O61 Sn5 2.038393 1_555
O62 P8 1.556149 1_565
O62 Sn5 2.141032 1_555
O63 P7 1.561449 1_565
O63 Sn6 2.071600 1_555
O64 Si0 1.671191 1_555
O64 Sn6 2.012211 1_555
O65 P6 1.546463 1_455
O65 Sn6 2.054989 1_555
O66 P0 1.596126 1_555
O66 Sn7 2.117526 1_555
O67 P1 1.583967 1_555
O67 Sn7 2.102931 1_555
O68 P2 1.578535 1_555
O68 Sn7 2.110071 1_555
O69 P3 1.587727 1_555
O69 Sn8 2.213558 1_555
O70 P4 1.570569 1_555
O70 Sn8 2.138161 1_555
O71 P5 1.570756 1_555
O71 Sn8 2.159643 1_555
