# generated using pymatgen
data_Na3Si2SnGePO12
_symmetry_space_group_name_H-M   'P 1'
_cell_length_a   8.84126464
_cell_length_b   8.85893189
_cell_length_c   22.06865695
_cell_angle_alpha   90.23383753
_cell_angle_beta   89.84285684
_cell_angle_gamma   120.05482132
_symmetry_Int_Tables_number   1
_chemical_formula_structural   Na3Si2SnGePO12
_chemical_formula_sum   'Na18 Si12 Sn6 Ge6 P6 O72'
_cell_volume   1496.09218357
_cell_formula_units_Z   6
loop_
 _symmetry_equiv_pos_site_id
 _symmetry_equiv_pos_as_xyz
  1  'x, y, z'
loop_
 _atom_site_type_symbol
 _atom_site_label
 _atom_site_symmetry_multiplicity
 _atom_site_fract_x
 _atom_site_fract_y
 _atom_site_fract_z
 _atom_site_occupancy
  Na  Na0  1  0.99612947  0.98756916  0.49995465  1
  Na  Na1  1  0.00548768  0.00181956  0.99840989  1
  Na  Na2  1  0.66398946  0.32491919  0.83857230  1
  Na  Na3  1  0.67012998  0.33357952  0.32776270  1
  Na  Na4  1  0.33150947  0.65953389  0.16557890  1
  Na  Na5  1  0.34886174  0.67080658  0.67185283  1
  Na  Na6  1  0.64384124  0.00123522  0.24936839  1
  Na  Na7  1  0.99774997  0.63986404  0.25279807  1
  Na  Na8  1  0.00082626  0.36286498  0.75559772  1
  Na  Na9  1  0.37126788  0.00103734  0.75690416  1
  Na  Na10  1  0.30842042  0.33521238  0.58701759  1
  Na  Na11  1  0.66135987  0.96349069  0.58729533  1
  Na  Na12  1  0.66573438  0.70510013  0.08069860  1
  Na  Na13  1  0.04033742  0.33443925  0.08357046  1
  Na  Na14  1  0.96331983  0.66538858  0.91772997  1
  Na  Na15  1  0.33488418  0.29688269  0.92080205  1
  Na  Na16  1  0.32866531  0.02801342  0.41843790  1
  Na  Na17  1  0.70715849  0.67253674  0.41837292  1
  Si  Si0  1  0.69551249  0.69651767  0.24697949  1
  Si  Si1  1  0.00236985  0.30161707  0.24414510  1
  Si  Si2  1  0.28987626  0.29739829  0.75720845  1
  Si  Si3  1  0.70611092  0.98799881  0.75523836  1
  Si  Si4  1  0.37242698  0.04001443  0.58508156  1
  Si  Si5  1  0.67175097  0.62628357  0.58109621  1
  Si  Si6  1  0.95498502  0.61653038  0.07942309  1
  Si  Si7  1  0.38663364  0.33583024  0.07799684  1
  Si  Si8  1  0.04185781  0.37578896  0.91829754  1
  Si  Si9  1  0.33601304  0.95267752  0.91797741  1
  Si  Si10  1  0.62157181  0.95416325  0.41365518  1
  Si  Si11  1  0.04570082  0.66445005  0.41052102  1
  Sn  Sn0  1  0.99608213  0.00041536  0.34806136  1
  Sn  Sn1  1  0.99576158  0.99586323  0.65074543  1
  Sn  Sn2  1  0.00461635  0.00266352  0.14423434  1
  Sn  Sn3  1  0.66412263  0.33460241  0.69174726  1
  Sn  Sn4  1  0.67189505  0.33537601  0.47674418  1
  Sn  Sn5  1  0.33160221  0.66974193  0.52013600  1
  Ge  Ge0  1  0.00548117  0.00983340  0.85720641  1
  Ge  Ge1  1  0.67253212  0.34430090  0.18228573  1
  Ge  Ge2  1  0.66464646  0.32406053  0.97929878  1
  Ge  Ge3  1  0.32253067  0.65967198  0.01931478  1
  Ge  Ge4  1  0.33055813  0.66191321  0.31098753  1
  Ge  Ge5  1  0.33678640  0.67060143  0.81820183  1
  P  P0  1  0.30273602  0.00614133  0.24842461  1
  P  P1  1  0.00428644  0.71354113  0.75797409  1
  P  P2  1  0.95805355  0.33555083  0.58699674  1
  P  P3  1  0.65498228  0.04432214  0.08186481  1
  P  P4  1  0.62253060  0.67417093  0.91855563  1
  P  P5  1  0.32753084  0.37814041  0.41442861  1
  O  O0  1  0.23158581  0.03824631  0.30850825  1
  O  O1  1  0.82799099  0.77347084  0.30537216  1
  O  O2  1  0.94918077  0.16026746  0.29859736  1
  O  O3  1  0.20417343  0.16364254  0.81506716  1
  O  O4  1  0.97914968  0.79460182  0.81650157  1
  O  O5  1  0.84864085  0.02586634  0.80834574  1
  O  O6  1  0.77445569  0.96328968  0.68903713  1
  O  O7  1  0.17190464  0.21998458  0.69536974  1
  O  O8  1  0.03615247  0.82660019  0.70151891  1
  O  O9  1  0.77849375  0.82949759  0.18877304  1
  O  O10  1  0.03978616  0.22634039  0.18176746  1
  O  O11  1  0.16920002  0.95921015  0.19660196  1
  O  O12  1  0.88535634  0.35859372  0.64803409  1
  O  O13  1  0.49276050  0.11967392  0.64604654  1
  O  O14  1  0.63890308  0.49885850  0.63814543  1
  O  O15  1  0.87423985  0.49725576  0.14058579  1
  O  O16  1  0.63785172  0.12622878  0.14167321  1
  O  O17  1  0.51508834  0.36753744  0.13526026  1
  O  O18  1  0.46925975  0.31084870  0.01491224  1
  O  O19  1  0.82977528  0.52736920  0.01979295  1
  O  O20  1  0.69131220  0.16511774  0.02688953  1
  O  O21  1  0.45639415  0.15544869  0.52306689  1
  O  O22  1  0.69493864  0.55082549  0.51621997  1
  O  O23  1  0.84030563  0.30707658  0.53220530  1
  O  O24  1  0.54525174  0.69993623  0.97862519  1
  O  O25  1  0.17071951  0.45409029  0.97812433  1
  O  O26  1  0.29229410  0.81486875  0.97354298  1
  O  O27  1  0.55080039  0.84632301  0.47717261  1
  O  O28  1  0.30667457  0.44674906  0.47650905  1
  O  O29  1  0.16104098  0.69818454  0.47106725  1
  O  O30  1  0.13815251  0.65020125  0.34830473  1
  O  O31  1  0.49704334  0.85552281  0.35477802  1
  O  O32  1  0.34887095  0.49781860  0.36103269  1
  O  O33  1  0.12947812  0.50819918  0.86031697  1
  O  O34  1  0.36231826  0.87107095  0.85494046  1
  O  O35  1  0.49703480  0.63917275  0.86500879  1
  O  O36  1  0.02918446  0.84243953  0.40960934  1
  O  O37  1  0.81373157  0.97249064  0.40992093  1
  O  O38  1  0.16966894  0.19231888  0.40881676  1
  O  O39  1  0.02766010  0.18368039  0.91187569  1
  O  O40  1  0.15649253  0.97228785  0.91455653  1
  O  O41  1  0.80939205  0.83568184  0.91229552  1
  O  O42  1  0.97190985  0.16800595  0.58731006  1
  O  O43  1  0.18742939  0.03756660  0.59006833  1
  O  O44  1  0.83699837  0.82310375  0.58620615  1
  O  O45  1  0.96427464  0.80596667  0.08471511  1
  O  O46  1  0.82193594  0.02452464  0.08279419  1
  O  O47  1  0.18756552  0.16790577  0.08206652  1
  O  O48  1  0.69404850  0.17008872  0.75384342  1
  O  O49  1  0.48053481  0.31055328  0.75309554  1
  O  O50  1  0.84354896  0.52732031  0.75269181  1
  O  O51  1  0.68463016  0.50838400  0.23828855  1
  O  O52  1  0.82117490  0.31408135  0.23922170  1
  O  O53  1  0.48407184  0.16708427  0.23829001  1
  O  O54  1  0.64254639  0.50835413  0.91890351  1
  O  O55  1  0.84812111  0.35974696  0.92475756  1
  O  O56  1  0.50724020  0.15133146  0.92353899  1
  O  O57  1  0.62790743  0.14220121  0.41562347  1
  O  O58  1  0.49665629  0.36442990  0.41335089  1
  O  O59  1  0.84849473  0.49560185  0.41294969  1
  O  O60  1  0.36964927  0.51657779  0.07623296  1
  O  O61  1  0.14830775  0.63132484  0.07542151  1
  O  O62  1  0.49300632  0.85985881  0.07627309  1
  O  O63  1  0.35508600  0.84861398  0.58273549  1
  O  O64  1  0.48997984  0.63646902  0.58128210  1
  O  O65  1  0.14292623  0.49388923  0.58154936  1
  O  O66  1  0.32357740  0.84175336  0.25175932  1
  O  O67  1  0.50630005  0.68487565  0.25693671  1
  O  O68  1  0.17041725  0.49754255  0.25406288  1
  O  O69  1  0.29986851  0.48640330  0.76492665  1
  O  O70  1  0.17006298  0.69415922  0.75916953  1
  O  O71  1  0.50780344  0.82091818  0.76159156  1
loop_
_geom_bond_atom_site_label_1
_geom_bond_atom_site_label_2
_geom_bond_distance
_geom_bond_site_symmetry_2
Na0 O44 2.383288 1_555
Na0 O36 2.462904 1_655
Na0 O43 2.504507 1_665
Na0 O37 2.523077 1_555
Na0 O42 2.575440 1_565
Na0 O38 2.629583 1_665
Na1 O40 2.368056 1_545
Na1 O47 2.405486 1_556
Na1 O39 2.446975 1_555
Na1 O45 2.482081 1_446
Na1 O41 2.494587 1_445
Na1 O46 2.539553 1_456
Na2 O56 2.382440 1_555
Na2 O48 2.406205 1_555
Na2 O55 2.423240 1_555
Na2 O49 2.452221 1_555
Na2 O54 2.470374 1_555
Na2 O50 2.547025 1_555
Na3 O59 2.410041 1_555
Na3 O52 2.417692 1_555
Na3 O51 2.477538 1_555
Na3 O57 2.482394 1_555
Na3 O53 2.518741 1_555
Na3 O58 2.528715 1_555
Na4 O68 2.421030 1_555
Na4 O60 2.451342 1_555
Na4 O67 2.483806 1_555
Na4 O61 2.500576 1_555
Na4 O66 2.513078 1_555
Na4 O62 2.558793 1_555
Na5 O71 2.405646 1_555
Na5 O64 2.450676 1_555
Na5 O63 2.507989 1_555
Na5 O69 2.527651 1_555
Na5 O70 2.561747 1_555
Na5 O65 2.622802 1_555
Na6 O52 2.416627 1_555
Na6 O67 2.439311 1_545
Na6 O66 2.451358 1_545
Na6 O53 2.509474 1_555
Na6 O2 2.578161 1_555
Na6 O16 2.637895 1_555
Na6 O31 2.663087 1_545
Na6 O9 2.703542 1_545
Na7 O68 2.418554 1_655
Na7 O30 2.427061 1_655
Na7 O51 2.427978 1_555
Na7 O66 2.517363 1_655
Na7 O52 2.517713 1_555
Na7 O1 2.599692 1_555
Na7 O15 2.743789 1_555
Na7 O11 2.749949 1_655
Na8 O69 2.309375 1_555
Na8 O48 2.373806 1_455
Na8 O50 2.467936 1_455
Na8 O70 2.541419 1_555
Na8 O12 2.579223 1_455
Na8 O33 2.610646 1_555
Na8 O7 2.747647 1_555
Na8 O5 2.841574 1_455
Na9 O70 2.390463 1_545
Na9 O49 2.409756 1_555
Na9 O34 2.437396 1_545
Na9 O71 2.438333 1_545
Na9 O48 2.471909 1_555
Na9 O13 2.668224 1_555
Na9 O3 2.830418 1_555
Na9 O8 2.842313 1_545
Na10 O43 2.297258 1_555
Na10 O64 2.329339 1_555
Na10 O65 2.488780 1_555
Na10 O42 2.575174 1_455
Na10 O28 2.638058 1_555
Na10 O7 2.643210 1_555
Na10 O14 2.770200 1_555
Na10 O21 2.880607 1_555
Na11 O63 2.370360 1_555
Na11 O42 2.416280 1_565
Na11 O44 2.427494 1_555
Na11 O6 2.460762 1_555
Na11 O64 2.511469 1_555
Na11 O27 2.629676 1_555
Na11 O13 2.803227 1_565
Na11 O23 2.905501 1_565
Na12 O60 2.296203 1_555
Na12 O45 2.326224 1_555
Na12 O46 2.449847 1_565
Na12 O24 2.484875 1_554
Na12 O62 2.514038 1_555
Na12 O9 2.605372 1_555
Na12 O17 2.863146 1_555
Na12 O19 2.940835 1_555
Na13 O61 2.312802 1_555
Na13 O10 2.371819 1_555
Na13 O47 2.407269 1_555
Na13 O46 2.440545 1_455
Na13 O60 2.529951 1_555
Na13 O25 2.578578 1_554
Na13 O15 2.813699 1_455
Na13 O20 2.950668 1_455
Na14 O55 2.373405 1_555
Na14 O40 2.379802 1_655
Na14 O54 2.455016 1_555
Na14 O4 2.485807 1_555
Na14 O41 2.490236 1_555
Na14 O19 2.554249 1_556
Na14 O33 2.779762 1_655
Na14 O26 2.806909 1_655
Na15 O18 2.367367 1_556
Na15 O39 2.386492 1_555
Na15 O54 2.409597 1_555
Na15 O56 2.440833 1_555
Na15 O40 2.496103 1_545
Na15 O3 2.607610 1_555
Na15 O25 2.765283 1_555
Na15 O35 2.903912 1_555
Na16 O57 2.312062 1_555
Na16 O36 2.321963 1_545
Na16 O38 2.488681 1_555
Na16 O21 2.568538 1_555
Na16 O58 2.582384 1_555
Na16 O0 2.592592 1_555
Na16 O29 2.786356 1_545
Na16 O31 2.962177 1_545
Na17 O37 2.340693 1_555
Na17 O22 2.395434 1_555
Na17 O58 2.415888 1_555
Na17 O59 2.447914 1_555
Na17 O36 2.473029 1_655
Na17 O1 2.684492 1_555
Na17 O27 2.840916 1_555
Ge0 O5 1.820016 1_455
Ge0 O3 1.846942 1_555
Ge0 O39 1.884032 1_555
Ge0 O40 1.988109 1_545
Ge0 O4 2.009794 1_445
Ge0 O41 2.046580 1_445
Ge1 O17 1.831321 1_555
Ge1 O15 1.855801 1_555
Ge1 O51 1.866062 1_555
Ge1 O52 1.934366 1_555
Ge1 O16 2.005873 1_555
Ge1 O53 2.037871 1_555
Ge2 O18 1.845622 1_556
Ge2 O20 1.867410 1_556
Ge2 O19 1.879938 1_556
Ge2 O56 1.911400 1_555
Ge2 O55 1.912800 1_555
Ge2 O54 2.195200 1_555
Ge3 O26 1.833868 1_554
Ge3 O25 1.867988 1_554
Ge3 O61 1.890370 1_555
Ge3 O60 1.975640 1_555
Ge3 O24 2.024953 1_554
Ge3 O62 2.076449 1_555
Ge4 O30 1.843631 1_555
Ge4 O31 1.872915 1_555
Ge4 O67 1.885119 1_555
Ge4 O32 1.899756 1_555
Ge4 O68 1.906013 1_555
Ge4 O66 2.089612 1_555
Ge5 O34 1.857414 1_555
Ge5 O35 1.886096 1_555
Ge5 O69 1.898564 1_555
Ge5 O71 1.899119 1_555
Ge5 O33 1.911376 1_555
Ge5 O70 2.057778 1_555
O0 P0 1.551240 1_555
O0 Sn0 2.122038 1_455
O1 Si0 1.642726 1_555
O1 Sn0 2.034112 1_565
O2 Si1 1.628670 1_655
O2 Sn0 1.993046 1_555
O3 Si2 1.648119 1_555
O4 P1 1.544046 1_655
O5 Si3 1.629590 1_545
O6 Si3 1.634783 1_555
O6 Sn1 2.013236 1_555
O7 Si2 1.644473 1_555
O7 Sn1 2.057305 1_445
O8 P1 1.536358 1_555
O8 Sn1 2.045433 1_455
O9 Si0 1.648507 1_555
O9 Sn2 2.060543 1_665
O10 Si1 1.630991 1_555
O10 Sn2 2.019929 1_555
O11 P0 1.544843 1_565
O11 Sn2 2.043312 1_565
O12 P2 1.547143 1_555
O12 Sn3 2.092031 1_555
O13 Si4 1.639543 1_555
O13 Sn3 2.010258 1_555
O14 Si5 1.620166 1_555
O14 Sn3 1.976593 1_555
O15 Si6 1.642808 1_555
O16 P3 1.546842 1_555
O17 Si7 1.628239 1_555
O18 Si7 1.635445 1_555
O19 Si6 1.644621 1_555
O20 P3 1.544157 1_555
O21 Si4 1.647822 1_555
O21 Sn4 2.043661 1_555
O22 Si5 1.632971 1_555
O22 Sn4 2.010301 1_555
O23 P2 1.533256 1_555
O23 Sn4 2.040668 1_555
O24 P4 1.557258 1_555
O25 Si8 1.652735 1_555
O26 Si9 1.637225 1_555
O27 Si10 1.635986 1_555
O27 Sn5 2.016741 1_555
O28 P5 1.544179 1_555
O28 Sn5 2.104183 1_555
O29 Si11 1.616640 1_555
O29 Sn5 1.975322 1_555
O30 Si11 1.632498 1_555
O31 Si10 1.642851 1_555
O32 P5 1.535203 1_555
O33 Si8 1.646190 1_555
O34 Si9 1.634150 1_555
O35 P4 1.543783 1_555
O36 Si11 1.654970 1_555
O36 Sn0 2.077772 1_465
O37 Si10 1.625600 1_555
O37 Sn0 2.028611 1_565
O38 P5 1.539847 1_555
O38 Sn0 2.102984 1_455
O39 Si8 1.648142 1_555
O40 Si9 1.682856 1_555
O41 P4 1.558310 1_555
O42 P2 1.549301 1_555
O42 Sn1 2.161268 1_545
O43 Si4 1.628286 1_555
O43 Sn1 2.041003 1_445
O44 Si5 1.623295 1_555
O44 Sn1 2.045134 1_555
O45 Si6 1.642298 1_555
O45 Sn2 2.061616 1_665
O46 P3 1.571465 1_555
O46 Sn2 2.193645 1_655
O47 Si7 1.642071 1_555
O47 Sn2 2.067363 1_555
O48 Si3 1.669499 1_545
O48 Sn3 2.115783 1_555
O49 Si2 1.632714 1_555
O49 Sn3 2.038846 1_555
O50 P1 1.551048 1_655
O50 Sn3 2.126116 1_555
O51 Si0 1.631159 1_555
O52 Si1 1.663916 1_655
O53 P0 1.537605 1_555
O54 P4 1.565153 1_555
O55 Si8 1.652110 1_655
O56 Si9 1.653667 1_545
O57 Si10 1.638879 1_545
O57 Sn4 2.053452 1_555
O58 P5 1.559772 1_555
O58 Sn4 2.199582 1_555
O59 Si11 1.633431 1_655
O59 Sn4 2.054030 1_555
O60 Si7 1.682078 1_555
O61 Si6 1.649630 1_455
O62 P3 1.546521 1_565
O63 Si4 1.624866 1_565
O63 Sn5 2.028983 1_555
O64 Si5 1.654116 1_555
O64 Sn5 2.072574 1_555
O65 P2 1.535390 1_455
O65 Sn5 2.109095 1_555
O66 P0 1.558821 1_565
O67 Si0 1.637923 1_555
O68 Si1 1.638167 1_555
O69 Si2 1.640110 1_555
O70 P1 1.559072 1_555
O71 Si3 1.638733 1_555
