# generated using pymatgen
data_Yb2Ge2O7
_symmetry_space_group_name_H-M   'P 1'
_cell_length_a   7.07125732
_cell_length_b   7.07125732
_cell_length_c   7.07125732
_cell_angle_alpha   60.00000000
_cell_angle_beta   60.00000000
_cell_angle_gamma   60.00000000
_symmetry_Int_Tables_number   1
_chemical_formula_structural   Yb2Ge2O7
_chemical_formula_sum   'Yb4 Ge4 O14'
_cell_volume   250.02010054
_cell_formula_units_Z   2
loop_
 _symmetry_equiv_pos_site_id
 _symmetry_equiv_pos_as_xyz
  1  'x, y, z'
loop_
 _atom_site_type_symbol
 _atom_site_label
 _atom_site_symmetry_multiplicity
 _atom_site_fract_x
 _atom_site_fract_y
 _atom_site_fract_z
 _atom_site_occupancy
  Yb  Yb0  1  0.12500000  0.12500000  0.62500000  1
  Yb  Yb1  1  0.12500000  0.62500000  0.12500000  1
  Yb  Yb2  1  0.62500000  0.12500000  0.12500000  1
  Yb  Yb3  1  0.12500000  0.12500000  0.12500000  1
  Ge  Ge0  1  0.62500000  0.62500000  0.12500000  1
  Ge  Ge1  1  0.62500000  0.12500000  0.62500000  1
  Ge  Ge2  1  0.12500000  0.62500000  0.62500000  1
  Ge  Ge3  1  0.62500000  0.62500000  0.62500000  1
  O  O0  1  0.54955600  0.95044400  0.54955600  1
  O  O1  1  0.29955600  0.70044400  0.29955600  1
  O  O2  1  0.54955600  0.54955600  0.95044400  1
  O  O3  1  0.95044400  0.54955600  0.54955600  1
  O  O4  1  0.54955600  0.95044400  0.95044400  1
  O  O5  1  0.95044400  0.95044400  0.54955600  1
  O  O6  1  0.70044400  0.70044400  0.29955600  1
  O  O7  1  0.29955600  0.29955600  0.70044400  1
  O  O8  1  0.00000000  0.00000000  0.00000000  1
  O  O9  1  0.25000000  0.25000000  0.25000000  1
  O  O10  1  0.95044400  0.54955600  0.95044400  1
  O  O11  1  0.70044400  0.29955600  0.29955600  1
  O  O12  1  0.29955600  0.70044400  0.70044400  1
  O  O13  1  0.70044400  0.29955600  0.70044400  1
loop_
_geom_bond_atom_site_label_1
_geom_bond_atom_site_label_2
_geom_bond_distance
_geom_bond_site_symmetry_2
Ge0 O6 1.922076 1_555
Ge0 O10 1.922076 1_554
Ge0 O2 1.922076 1_554
Ge0 O4 1.922076 1_554
Ge0 O1 1.922076 1_555
Ge0 O11 1.922076 1_555
Ge1 O13 1.922076 1_555
Ge1 O4 1.922076 1_545
Ge1 O5 1.922076 1_545
Ge1 O0 1.922076 1_545
Ge1 O7 1.922076 1_555
Ge1 O11 1.922076 1_555
Ge2 O12 1.922076 1_555
Ge2 O10 1.922076 1_455
Ge2 O3 1.922076 1_455
Ge2 O5 1.922076 1_455
Ge2 O7 1.922076 1_555
Ge2 O1 1.922076 1_555
Ge3 O2 1.922076 1_555
Ge3 O0 1.922076 1_555
Ge3 O3 1.922076 1_555
Ge3 O12 1.922076 1_555
Ge3 O6 1.922076 1_555
Ge3 O13 1.922076 1_555
O0 Yb2 2.484414 1_565
O0 Yb0 2.484414 1_565
O1 Yb1 2.484414 1_555
O1 Yb3 2.484414 1_565
O2 Yb2 2.484414 1_556
O2 Yb1 2.484414 1_556
O3 Yb1 2.484414 1_655
O3 Yb0 2.484414 1_655
O4 Yb3 2.484414 1_566
O4 Yb2 2.484414 1_566
O5 Yb0 2.484414 1_665
O5 Yb3 2.484414 1_665
O6 Yb1 2.484414 1_655
O6 Yb2 2.484414 1_565
O7 Yb0 2.484414 1_555
O7 Yb3 2.484414 1_556
O8 Yb3 2.165122 1_555
O8 Yb0 2.165122 1_554
O8 Yb1 2.165122 1_545
O8 Yb2 2.165122 1_455
O9 Yb3 2.165122 1_555
O9 Yb0 2.165122 1_555
O9 Yb2 2.165122 1_555
O9 Yb1 2.165122 1_555
O10 Yb3 2.484414 1_656
O10 Yb1 2.484414 1_656
O11 Yb2 2.484414 1_555
O11 Yb3 2.484414 1_655
O12 Yb1 2.484414 1_556
O12 Yb0 2.484414 1_565
O13 Yb2 2.484414 1_556
O13 Yb0 2.484414 1_655
