# generated using pymatgen
data_Na4In2Si2SO12
_symmetry_space_group_name_H-M   'P 1'
_cell_length_a   9.28627388
_cell_length_b   9.28627353
_cell_length_c   22.62094480
_cell_angle_alpha   90.10385912
_cell_angle_beta   89.89614088
_cell_angle_gamma   119.55846790
_symmetry_Int_Tables_number   1
_chemical_formula_structural   Na4In2Si2SO12
_chemical_formula_sum   'Na24 In12 Si12 S6 O72'
_cell_volume   1696.83058244
_cell_formula_units_Z   6
loop_
 _symmetry_equiv_pos_site_id
 _symmetry_equiv_pos_as_xyz
  1  'x, y, z'
loop_
 _atom_site_type_symbol
 _atom_site_label
 _atom_site_symmetry_multiplicity
 _atom_site_fract_x
 _atom_site_fract_y
 _atom_site_fract_z
 _atom_site_occupancy
  Na  Na0  1  0.64834752  0.99862928  0.25594328  1
  Na  Na1  1  0.36753902  0.38047326  0.24050368  1
  Na  Na2  1  0.98865376  0.61780251  0.25462405  1
  Na  Na3  1  0.61952674  0.63246098  0.74050368  1
  Na  Na4  1  0.00137072  0.35165248  0.75594328  1
  Na  Na5  1  0.38219749  0.01134624  0.75462405  1
  Na  Na6  1  0.31501452  0.33196228  0.58927628  1
  Na  Na7  1  0.03420602  0.71380626  0.57383668  1
  Na  Na8  1  0.65532076  0.95113551  0.58795705  1
  Na  Na9  1  0.28619374  0.96579398  0.07383668  1
  Na  Na10  1  0.66803772  0.68498548  0.08927628  1
  Na  Na11  1  0.04886449  0.34467924  0.08795705  1
  Na  Na12  1  0.98168052  0.66529628  0.92261028  1
  Na  Na13  1  0.70087202  0.04714026  0.90717068  1
  Na  Na14  1  0.32198676  0.28446951  0.92129105  1
  Na  Na15  1  0.95285974  0.29912798  0.40717068  1
  Na  Na16  1  0.33470372  0.01831948  0.42261028  1
  Na  Na17  1  0.71553049  0.67801324  0.42129105  1
  Na  Na18  1  0.98854188  0.97527282  0.49999747  1
  Na  Na19  1  0.02472718  0.01145812  -0.00000253  1
  Na  Na20  1  0.65520888  0.30860582  0.83333047  1
  Na  Na21  1  0.69139418  0.34479112  0.33333047  1
  Na  Na22  1  0.32187488  0.64193982  0.16666447  1
  Na  Na23  1  0.35806018  0.67812512  0.66666447  1
  In  In0  1  0.98242476  0.98836980  0.34867417  1
  In  In1  1  0.01163020  0.01757524  0.84867417  1
  In  In2  1  0.99929141  0.00256423  0.65113729  1
  In  In3  1  0.99743577  0.00070859  0.15113729  1
  In  In4  1  0.64909176  0.32170280  0.68200717  1
  In  In5  1  0.67829720  0.35090824  0.18200717  1
  In  In6  1  0.66595841  0.33589723  0.98447029  1
  In  In7  1  0.66410277  0.33404159  0.48447029  1
  In  In8  1  0.31575776  0.65503680  0.01534117  1
  In  In9  1  0.34496320  0.68424224  0.51534117  1
  In  In10  1  0.33262441  0.66923123  0.31780429  1
  In  In11  1  0.33076877  0.66737559  0.81780429  1
  Si  Si0  1  0.69543255  0.69739476  0.24980949  1
  Si  Si1  1  0.00015509  0.29895958  0.24983482  1
  Si  Si2  1  0.30260524  0.30456745  0.74980949  1
  Si  Si3  1  0.70104042  0.99984491  0.74983482  1
  Si  Si4  1  0.36209955  0.03072776  0.58314249  1
  Si  Si5  1  0.66682209  0.63229258  0.58316782  1
  Si  Si6  1  0.96927224  0.63790045  0.08314249  1
  Si  Si7  1  0.36770742  0.33317791  0.08316782  1
  Si  Si8  1  0.02876555  0.36406176  0.91647649  1
  Si  Si9  1  0.33348809  0.96562658  0.91650182  1
  Si  Si10  1  0.63593824  0.97123445  0.41647649  1
  Si  Si11  1  0.03437342  0.66651191  0.41650182  1
  S  S0  1  0.29882215  0.00166734  0.25021951  1
  S  S1  1  0.99833266  0.70117785  0.75021951  1
  S  S2  1  0.96548915  0.33500034  0.58355251  1
  S  S3  1  0.66499966  0.03451085  0.08355251  1
  S  S4  1  0.63215515  0.66833434  0.91688651  1
  S  S5  1  0.33166566  0.36784485  0.41688651  1
  O  O0  1  0.22197397  0.02791013  0.30362309  1
  O  O1  1  0.81536221  0.77207939  0.30785443  1
  O  O2  1  0.97710713  0.18967108  0.30982953  1
  O  O3  1  0.22792061  0.18463779  0.80785443  1
  O  O4  1  0.97208987  0.77802603  0.80362309  1
  O  O5  1  0.81032892  0.02289287  0.80982953  1
  O  O6  1  0.78061881  0.96249084  0.69081426  1
  O  O7  1  0.18701792  0.22178302  0.69072052  1
  O  O8  1  0.02179990  0.80261422  0.69621282  1
  O  O9  1  0.77821698  0.81298208  0.19072052  1
  O  O10  1  0.03750916  0.21938119  0.19081426  1
  O  O11  1  0.19738578  0.97820010  0.19621282  1
  O  O12  1  0.88864097  0.36124313  0.63695609  1
  O  O13  1  0.48202921  0.10541239  0.64118743  1
  O  O14  1  0.64377413  0.52300408  0.64316253  1
  O  O15  1  0.89458761  0.51797079  0.14118743  1
  O  O16  1  0.63875687  0.11135903  0.13695609  1
  O  O17  1  0.47699592  0.35622587  0.14316253  1
  O  O18  1  0.44728581  0.29582384  0.02414726  1
  O  O19  1  0.85368492  0.55511602  0.02405352  1
  O  O20  1  0.68846690  0.13594722  0.02954582  1
  O  O21  1  0.44488398  0.14631508  0.52405352  1
  O  O22  1  0.70417616  0.55271419  0.52414726  1
  O  O23  1  0.86405278  0.31153310  0.52954582  1
  O  O24  1  0.55530697  0.69457713  0.97029009  1
  O  O25  1  0.14869521  0.43874639  0.97452143  1
  O  O26  1  0.31044013  0.85633808  0.97649653  1
  O  O27  1  0.56125361  0.85130479  0.47452143  1
  O  O28  1  0.30542287  0.44469303  0.47029009  1
  O  O29  1  0.14366192  0.68955987  0.47649653  1
  O  O30  1  0.11395181  0.62915784  0.35748126  1
  O  O31  1  0.52035092  0.88845002  0.35738752  1
  O  O32  1  0.35513290  0.46928122  0.36287982  1
  O  O33  1  0.11154998  0.47964908  0.85738752  1
  O  O34  1  0.37084216  0.88604819  0.85748126  1
  O  O35  1  0.53071878  0.64486710  0.86287982  1
  O  O36  1  0.03176049  0.84415367  0.41271444  1
  O  O37  1  0.82572739  0.99908931  0.41483241  1
  O  O38  1  0.18525967  0.19954701  0.41156622  1
  O  O39  1  0.00091069  0.17427261  0.91483241  1
  O  O40  1  0.15584633  0.96823951  0.91271444  1
  O  O41  1  0.80045299  0.81474033  0.91156622  1
  O  O42  1  0.97966271  0.18228840  0.58708708  1
  O  O43  1  0.17904114  0.02029707  0.58769935  1
  O  O44  1  0.82910456  0.82058637  0.58630210  1
  O  O45  1  0.97970293  0.82095886  0.08769935  1
  O  O46  1  0.81771160  0.02033729  0.08708708  1
  O  O47  1  0.17941363  0.17089544  0.08630210  1
  O  O48  1  0.69842749  0.17748667  0.74604744  1
  O  O49  1  0.49239439  0.33242231  0.74816541  1
  O  O50  1  0.85192667  0.53288001  0.74489922  1
  O  O51  1  0.66757769  0.50760561  0.24816541  1
  O  O52  1  0.82251333  0.30157251  0.24604744  1
  O  O53  1  0.46711999  0.14807333  0.24489922  1
  O  O54  1  0.64632971  0.51562140  0.92042008  1
  O  O55  1  0.84570814  0.35363007  0.92103235  1
  O  O56  1  0.49577156  0.15391937  0.91963510  1
  O  O57  1  0.64636993  0.15429186  0.42103235  1
  O  O58  1  0.48437860  0.35367029  0.42042008  1
  O  O59  1  0.84608063  0.50422844  0.41963510  1
  O  O60  1  0.36509349  0.51082067  0.07938144  1
  O  O61  1  0.15906039  0.66575631  0.08149941  1
  O  O62  1  0.51859267  0.86621401  0.07823322  1
  O  O63  1  0.33424369  0.84093961  0.58149941  1
  O  O64  1  0.48917933  0.63490651  0.57938144  1
  O  O65  1  0.13378599  0.48140733  0.57823322  1
  O  O66  1  0.31299571  0.84895540  0.25375408  1
  O  O67  1  0.51237414  0.68696407  0.25436635  1
  O  O68  1  0.16243756  0.48725337  0.25296910  1
  O  O69  1  0.31303593  0.48762586  0.75436635  1
  O  O70  1  0.15104460  0.68700429  0.75375408  1
  O  O71  1  0.51274663  0.83756244  0.75296910  1
loop_
_geom_bond_atom_site_label_1
_geom_bond_atom_site_label_2
_geom_bond_distance
_geom_bond_site_symmetry_2
Na0 O52 2.468195 1_565
Na0 O67 2.523151 1_555
Na0 O31 2.554280 1_555
Na0 O53 2.669768 1_565
Na0 O66 2.713327 1_555
Na0 O16 2.907163 1_565
Na0 O2 2.935243 1_565
Na0 O9 2.939210 1_555
Na1 O51 2.437740 1_555
Na1 O17 2.479585 1_555
Na1 O67 2.495876 1_555
Na1 O68 2.559444 1_555
Na1 O53 2.737272 1_555
Na1 O10 2.894302 1_555
Na1 O32 2.905338 1_555
Na2 O68 2.450583 1_655
Na2 O52 2.563304 1_555
Na2 O30 2.581957 1_655
Na2 O51 2.636132 1_555
Na2 O66 2.702026 1_655
Na2 O15 2.721690 1_555
Na2 O1 2.890226 1_555
Na3 O49 2.437740 1_555
Na3 O14 2.479585 1_555
Na3 O69 2.495876 1_555
Na3 O71 2.559444 1_555
Na3 O50 2.737273 1_555
Na3 O6 2.894302 1_555
Na3 O35 2.905338 1_555
Na4 O48 2.468195 1_455
Na4 O69 2.523151 1_555
Na4 O33 2.554280 1_555
Na4 O50 2.669768 1_455
Na4 O70 2.713327 1_555
Na4 O12 2.907163 1_455
Na4 O5 2.935243 1_455
Na4 O7 2.939210 1_555
Na5 O71 2.450583 1_545
Na5 O48 2.563304 1_555
Na5 O34 2.581957 1_545
Na5 O49 2.636132 1_555
Na5 O70 2.702026 1_545
Na5 O13 2.721690 1_555
Na5 O3 2.890226 1_555
Na6 O64 2.468200 1_555
Na6 O43 2.523151 1_555
Na6 O7 2.554280 1_555
Na6 O65 2.669782 1_555
Na6 O42 2.713327 1_455
Na6 O28 2.907148 1_555
Na6 O14 2.935243 1_555
Na6 O21 2.939210 1_555
Na7 O63 2.437732 1_555
Na7 O29 2.479558 1_555
Na7 O43 2.495876 1_565
Na7 O44 2.559444 1_455
Na7 O65 2.737258 1_555
Na7 O22 2.894302 1_455
Na7 O8 2.905338 1_555
Na8 O44 2.450583 1_555
Na8 O64 2.563295 1_555
Na8 O6 2.581957 1_555
Na8 O63 2.636141 1_555
Na8 O42 2.702026 1_565
Na8 O27 2.721668 1_555
Na8 O13 2.890226 1_565
Na9 O61 2.437732 1_555
Na9 O26 2.479558 1_554
Na9 O45 2.495876 1_455
Na9 O47 2.559444 1_565
Na9 O62 2.737258 1_555
Na9 O18 2.894302 1_565
Na9 O11 2.905338 1_555
Na10 O60 2.468200 1_555
Na10 O45 2.523151 1_555
Na10 O9 2.554280 1_555
Na10 O62 2.669782 1_555
Na10 O46 2.713327 1_565
Na10 O24 2.907148 1_554
Na10 O17 2.935243 1_555
Na10 O19 2.939210 1_555
Na11 O47 2.450583 1_555
Na11 O60 2.563295 1_555
Na11 O10 2.581957 1_555
Na11 O61 2.636141 1_555
Na11 O46 2.702026 1_455
Na11 O25 2.721668 1_554
Na11 O15 2.890226 1_455
Na12 O40 2.468195 1_655
Na12 O55 2.523160 1_555
Na12 O19 2.554259 1_556
Na12 O41 2.669768 1_555
Na12 O54 2.713319 1_555
Na12 O4 2.907163 1_555
Na12 O26 2.935243 1_655
Na12 O33 2.939210 1_655
Na13 O39 2.437740 1_655
Na13 O5 2.479585 1_555
Na13 O55 2.495865 1_555
Na13 O56 2.559426 1_555
Na13 O41 2.737272 1_545
Na13 O34 2.894302 1_545
Na13 O20 2.905312 1_556
Na14 O56 2.450599 1_555
Na14 O40 2.563304 1_545
Na14 O18 2.581943 1_556
Na14 O39 2.636132 1_555
Na14 O54 2.702031 1_555
Na14 O3 2.721690 1_555
Na14 O25 2.890226 1_555
Na15 O37 2.437740 1_545
Na15 O2 2.479585 1_555
Na15 O57 2.495865 1_555
Na15 O59 2.559426 1_555
Na15 O38 2.737273 1_655
Na15 O30 2.894302 1_655
Na15 O23 2.905312 1_555
Na16 O36 2.468195 1_545
Na16 O57 2.523160 1_555
Na16 O21 2.554259 1_555
Na16 O38 2.669768 1_555
Na16 O58 2.713319 1_555
Na16 O0 2.907163 1_555
Na16 O29 2.935243 1_545
Na16 O31 2.939210 1_545
Na17 O59 2.450599 1_555
Na17 O36 2.563304 1_655
Na17 O22 2.581943 1_555
Na17 O37 2.636132 1_555
Na17 O58 2.702030 1_555
Na17 O1 2.721690 1_555
Na17 O27 2.890226 1_555
Na18 O44 2.443015 1_555
Na18 O36 2.452049 1_655
Na18 O37 2.527520 1_555
Na18 O43 2.553448 1_665
Na18 O42 2.779496 1_565
Na18 O38 2.815031 1_665
Na19 O47 2.443015 1_555
Na19 O40 2.452049 1_544
Na19 O39 2.527520 1_554
Na19 O45 2.553448 1_445
Na19 O46 2.779496 1_455
Na19 O41 2.815031 1_444
Na20 O56 2.443015 1_555
Na20 O48 2.452049 1_555
Na20 O49 2.527520 1_555
Na20 O55 2.553448 1_555
Na20 O54 2.779496 1_555
Na20 O50 2.815031 1_555
Na21 O59 2.443015 1_555
Na21 O52 2.452049 1_555
Na21 O51 2.527520 1_555
Na21 O57 2.553448 1_555
Na21 O58 2.779496 1_555
Na21 O53 2.815031 1_555
Na22 O68 2.443015 1_555
Na22 O60 2.452049 1_555
Na22 O61 2.527520 1_555
Na22 O67 2.553448 1_555
Na22 O66 2.779496 1_555
Na22 O62 2.815031 1_555
Na23 O71 2.443015 1_555
Na23 O64 2.452049 1_555
Na23 O63 2.527520 1_555
Na23 O69 2.553448 1_555
Na23 O70 2.779496 1_555
Na23 O65 2.815031 1_555
In0 O1 2.053723 1_555
In0 O2 2.089538 1_565
In0 O37 2.121674 1_555
In0 O36 2.171824 1_655
In0 O0 2.304155 1_665
In0 O38 2.402669 1_665
In1 O3 2.053723 1_555
In1 O5 2.089539 1_455
In1 O39 2.121674 1_555
In1 O40 2.171824 1_545
In1 O4 2.304155 1_445
In1 O41 2.402669 1_445
In2 O6 2.077652 1_545
In2 O7 2.117226 1_655
In2 O43 2.143278 1_655
In2 O44 2.206550 1_545
In2 O8 2.218468 1_645
In2 O42 2.286436 1_555
In3 O10 2.077652 1_655
In3 O9 2.117226 1_545
In3 O45 2.143278 1_545
In3 O47 2.206550 1_655
In3 O11 2.218468 1_645
In3 O46 2.286436 1_555
In4 O13 2.053723 1_555
In4 O14 2.089538 1_555
In4 O49 2.121674 1_555
In4 O48 2.171824 1_555
In4 O12 2.304155 1_555
In4 O50 2.402669 1_555
In5 O15 2.053723 1_555
In5 O17 2.089539 1_555
In5 O51 2.121674 1_555
In5 O52 2.171824 1_555
In5 O16 2.304155 1_555
In5 O53 2.402669 1_555
In6 O18 2.077652 1_556
In6 O19 2.117226 1_556
In6 O55 2.143278 1_555
In6 O56 2.206550 1_555
In6 O20 2.218468 1_556
In6 O54 2.286436 1_555
In7 O22 2.077652 1_555
In7 O21 2.117226 1_555
In7 O57 2.143278 1_555
In7 O59 2.206550 1_555
In7 O23 2.218468 1_555
In7 O58 2.286436 1_555
In8 O25 2.053723 1_554
In8 O26 2.089538 1_554
In8 O61 2.121674 1_555
In8 O60 2.171824 1_555
In8 O24 2.304155 1_554
In8 O62 2.402669 1_555
In9 O27 2.053723 1_555
In9 O29 2.089539 1_555
In9 O63 2.121674 1_555
In9 O64 2.171824 1_555
In9 O28 2.304155 1_555
In9 O65 2.402669 1_555
In10 O30 2.077652 1_555
In10 O31 2.117226 1_555
In10 O67 2.143278 1_555
In10 O68 2.206550 1_555
In10 O32 2.218468 1_555
In10 O66 2.286436 1_555
In11 O34 2.077652 1_555
In11 O33 2.117226 1_555
In11 O69 2.143278 1_555
In11 O71 2.206550 1_555
In11 O35 2.218468 1_555
In11 O70 2.286436 1_555
O0 S0 1.481692 1_555
O1 Si0 1.638693 1_555
O2 Si1 1.645372 1_655
O3 Si2 1.638693 1_555
O4 S1 1.481692 1_555
O5 Si3 1.645372 1_545
O6 Si3 1.642126 1_555
O7 Si2 1.648363 1_555
O8 S1 1.492640 1_455
O9 Si0 1.648363 1_555
O10 Si1 1.642126 1_555
O11 S0 1.492640 1_565
O12 S2 1.481692 1_555
O13 Si4 1.638693 1_555
O14 Si5 1.645372 1_555
O15 Si6 1.638693 1_555
O16 S3 1.481692 1_555
O17 Si7 1.645372 1_555
O18 Si7 1.642126 1_555
O19 Si6 1.648363 1_555
O20 S3 1.492640 1_555
O21 Si4 1.648363 1_555
O22 Si5 1.642126 1_555
O23 S2 1.492640 1_555
O24 S4 1.481692 1_555
O25 Si8 1.638693 1_555
O26 Si9 1.645372 1_555
O27 Si10 1.638693 1_555
O28 S5 1.481692 1_555
O29 Si11 1.645372 1_555
O30 Si11 1.642126 1_555
O31 Si10 1.648363 1_555
O32 S5 1.492640 1_555
O33 Si8 1.648363 1_555
O34 Si9 1.642126 1_555
O35 S4 1.492640 1_555
O36 Si11 1.664097 1_555
O37 Si10 1.650599 1_555
O38 S5 1.486257 1_555
O39 Si8 1.650599 1_555
O40 Si9 1.664097 1_555
O41 S4 1.486257 1_555
O42 S2 1.489765 1_555
O43 Si4 1.657322 1_555
O44 Si5 1.653366 1_555
O45 Si6 1.657322 1_555
O46 S3 1.489765 1_555
O47 Si7 1.653366 1_555
O48 Si3 1.664097 1_545
O49 Si2 1.650599 1_555
O50 S1 1.486257 1_555
O51 Si0 1.650599 1_555
O52 Si1 1.664097 1_655
O53 S0 1.486257 1_555
O54 S4 1.489778 1_555
O55 Si8 1.657307 1_655
O56 Si9 1.653363 1_545
O57 Si10 1.657307 1_545
O58 S5 1.489778 1_555
O59 Si11 1.653363 1_655
O60 Si7 1.664110 1_555
O61 Si6 1.650586 1_455
O62 S3 1.486253 1_565
O63 Si4 1.650586 1_565
O64 Si5 1.664110 1_555
O65 S2 1.486253 1_455
O66 S0 1.489765 1_565
O67 Si0 1.657322 1_555
O68 Si1 1.653366 1_555
O69 Si2 1.657322 1_555
O70 S1 1.489765 1_455
O71 Si3 1.653366 1_555
