# generated using pymatgen
data_Na3Mg2Ta4(PO4)9
_symmetry_space_group_name_H-M   'P 1'
_cell_length_a   8.72644679
_cell_length_b   8.72644652
_cell_length_c   22.72225219
_cell_angle_alpha   90.00000000
_cell_angle_beta   90.00000000
_cell_angle_gamma   120.00000106
_symmetry_Int_Tables_number   1
_chemical_formula_structural   Na3Mg2Ta4(PO4)9
_chemical_formula_sum   'Na6 Mg4 Ta8 P18 O72'
_cell_volume   1498.50045473
_cell_formula_units_Z   2
loop_
 _symmetry_equiv_pos_site_id
 _symmetry_equiv_pos_as_xyz
  1  'x, y, z'
loop_
 _atom_site_type_symbol
 _atom_site_label
 _atom_site_symmetry_multiplicity
 _atom_site_fract_x
 _atom_site_fract_y
 _atom_site_fract_z
 _atom_site_occupancy
  Na  Na0  1  -0.00000000  0.00000000  0.49324205  1
  Na  Na1  1  -0.00000000  0.00000000  0.99324205  1
  Na  Na2  1  0.66666700  0.33333300  0.82208593  1
  Na  Na3  1  0.66666700  0.33333300  0.32208593  1
  Na  Na4  1  0.33333300  0.66666700  0.16746362  1
  Na  Na5  1  0.33333300  0.66666700  0.66746362  1
  Mg  Mg0  1  -0.00000000  0.00000000  0.35407702  1
  Mg  Mg1  1  -0.00000000  0.00000000  0.85407702  1
  Mg  Mg2  1  0.66666700  0.33333300  0.68679728  1
  Mg  Mg3  1  0.66666700  0.33333300  0.18679728  1
  Ta  Ta0  1  -0.00000000  0.00000000  0.64892079  1
  Ta  Ta1  1  -0.00000000  0.00000000  0.14892079  1
  Ta  Ta2  1  0.66666700  0.33333300  0.97841028  1
  Ta  Ta3  1  0.66666700  0.33333300  0.47841028  1
  Ta  Ta4  1  0.33333300  0.66666700  0.02044597  1
  Ta  Ta5  1  0.33333300  0.66666700  0.52044597  1
  Ta  Ta6  1  0.33333300  0.66666700  0.30913199  1
  Ta  Ta7  1  0.33333300  0.66666700  0.80913199  1
  P  P0  1  0.29191449  0.00722123  0.25310536  1
  P  P1  1  0.71530674  0.70808551  0.25310536  1
  P  P2  1  0.99277877  0.28469326  0.25310536  1
  P  P3  1  0.29191449  0.28469326  0.75310536  1
  P  P4  1  0.99277877  0.70808551  0.75310536  1
  P  P5  1  0.71530674  0.00722123  0.75310536  1
  P  P6  1  0.95254474  0.33157439  0.58482609  1
  P  P7  1  0.37903066  0.04745526  0.58482609  1
  P  P8  1  0.66842561  0.62096934  0.58482609  1
  P  P9  1  0.95254474  0.62096934  0.08482609  1
  P  P10  1  0.66842561  0.04745526  0.08482609  1
  P  P11  1  0.37903066  0.33157439  0.08482609  1
  P  P12  1  0.62353657  0.66934080  0.91618167  1
  P  P13  1  0.04580323  0.37646343  0.91618167  1
  P  P14  1  0.33065920  0.95419677  0.91618167  1
  P  P15  1  0.62353657  0.95419677  0.41618167  1
  P  P16  1  0.33065920  0.37646343  0.41618167  1
  P  P17  1  0.04580323  0.66934080  0.41618167  1
  O  O0  1  0.20456203  0.02491184  0.30680435  1
  O  O1  1  0.82034981  0.79543797  0.30680435  1
  O  O2  1  0.97508816  0.17965019  0.30680435  1
  O  O3  1  0.20456203  0.17965019  0.80680435  1
  O  O4  1  0.97508816  0.79543797  0.80680435  1
  O  O5  1  0.82034981  0.02491184  0.80680435  1
  O  O6  1  0.80138530  0.97165352  0.69544181  1
  O  O7  1  0.17026821  0.19861470  0.69544181  1
  O  O8  1  0.02834648  0.82973179  0.69544181  1
  O  O9  1  0.80138530  0.82973179  0.19544181  1
  O  O10  1  0.02834648  0.19861470  0.19544181  1
  O  O11  1  0.17026821  0.97165352  0.19544181  1
  O  O12  1  0.88008598  0.36863947  0.63837774  1
  O  O13  1  0.48855450  0.11991402  0.63837774  1
  O  O14  1  0.63136053  0.51144550  0.63837774  1
  O  O15  1  0.88008598  0.51144550  0.13837774  1
  O  O16  1  0.63136053  0.11991402  0.13837774  1
  O  O17  1  0.48855450  0.36863947  0.13837774  1
  O  O18  1  0.46743221  0.30588498  0.02798898  1
  O  O19  1  0.83845376  0.53256779  0.02798898  1
  O  O20  1  0.69411502  0.16154624  0.02798898  1
  O  O21  1  0.46743221  0.16154624  0.52798898  1
  O  O22  1  0.69411502  0.53256779  0.52798898  1
  O  O23  1  0.83845376  0.30588498  0.52798898  1
  O  O24  1  0.52414991  0.68306184  0.97136455  1
  O  O25  1  0.15891093  0.47585009  0.97136455  1
  O  O26  1  0.31693816  0.84108907  0.97136455  1
  O  O27  1  0.52414991  0.84108907  0.47136455  1
  O  O28  1  0.31693816  0.47585009  0.47136455  1
  O  O29  1  0.15891093  0.68306184  0.47136455  1
  O  O30  1  0.13343683  0.63644724  0.36188727  1
  O  O31  1  0.50300941  0.86656317  0.36188727  1
  O  O32  1  0.36355276  0.49699059  0.36188727  1
  O  O33  1  0.13343683  0.49699059  0.86188727  1
  O  O34  1  0.36355276  0.86656317  0.86188727  1
  O  O35  1  0.50300941  0.63644724  0.86188727  1
  O  O36  1  0.02590178  0.82952788  0.41390335  1
  O  O37  1  0.80362610  0.97409822  0.41390335  1
  O  O38  1  0.17047212  0.19637390  0.41390335  1
  O  O39  1  0.02590178  0.19637390  0.91390335  1
  O  O40  1  0.17047212  0.97409822  0.91390335  1
  O  O41  1  0.80362610  0.82952788  0.91390335  1
  O  O42  1  0.97537494  0.16566290  0.58905850  1
  O  O43  1  0.19028796  0.02462506  0.58905850  1
  O  O44  1  0.83433710  0.80971204  0.58905850  1
  O  O45  1  0.97537494  0.80971204  0.08905850  1
  O  O46  1  0.83433710  0.02462506  0.08905850  1
  O  O47  1  0.19028796  0.16566290  0.08905850  1
  O  O48  1  0.68327974  0.15861681  0.74293876  1
  O  O49  1  0.47533806  0.31672026  0.74293876  1
  O  O50  1  0.84138319  0.52466194  0.74293876  1
  O  O51  1  0.68327974  0.52466194  0.24293876  1
  O  O52  1  0.84138319  0.31672026  0.24293876  1
  O  O53  1  0.47533806  0.15861681  0.24293876  1
  O  O54  1  0.63221372  0.49508200  0.92502838  1
  O  O55  1  0.86286928  0.36778628  0.92502838  1
  O  O56  1  0.50491800  0.13713072  0.92502838  1
  O  O57  1  0.63221372  0.13713072  0.42502838  1
  O  O58  1  0.50491800  0.36778628  0.42502838  1
  O  O59  1  0.86286928  0.49508200  0.42502838  1
  O  O60  1  0.35057101  0.49332570  0.07248512  1
  O  O61  1  0.14275369  0.64942899  0.07248512  1
  O  O62  1  0.50667430  0.85724631  0.07248512  1
  O  O63  1  0.35057101  0.85724631  0.57248512  1
  O  O64  1  0.50667430  0.64942899  0.57248512  1
  O  O65  1  0.14275369  0.49332570  0.57248512  1
  O  O66  1  0.30025021  0.82740031  0.25708309  1
  O  O67  1  0.52714910  0.69974979  0.25708309  1
  O  O68  1  0.17259969  0.47285090  0.25708309  1
  O  O69  1  0.30025021  0.47285090  0.75708309  1
  O  O70  1  0.17259969  0.69974979  0.75708309  1
  O  O71  1  0.52714910  0.82740031  0.75708309  1
loop_
_geom_bond_atom_site_label_1
_geom_bond_atom_site_label_2
_geom_bond_distance
_geom_bond_site_symmetry_2
Na0 O38 2.418731 1_555
Na0 O36 2.418731 1_545
Na0 O37 2.418731 1_445
Na0 O44 2.680817 1_445
Na0 O42 2.680817 1_455
Na0 O43 2.680817 1_555
Na1 O39 2.418731 1_555
Na1 O41 2.418731 1_445
Na1 O40 2.418731 1_545
Na1 O45 2.680817 1_446
Na1 O47 2.680817 1_556
Na1 O46 2.680817 1_456
Na2 O48 2.408497 1_555
Na2 O50 2.408497 1_555
Na2 O49 2.408497 1_555
Na2 O56 2.824606 1_555
Na2 O54 2.824606 1_555
Na2 O55 2.824606 1_555
Na3 O52 2.408497 1_555
Na3 O53 2.408497 1_555
Na3 O51 2.408497 1_555
Na3 O57 2.824606 1_555
Na3 O59 2.824606 1_555
Na3 O58 2.824606 1_555
Na4 O68 2.569513 1_555
Na4 O66 2.569513 1_555
Na4 O67 2.569513 1_555
Na4 O62 2.682498 1_555
Na4 O60 2.682498 1_555
Na4 O61 2.682498 1_555
Na5 O69 2.569513 1_555
Na5 O71 2.569513 1_555
Na5 O70 2.569513 1_555
Na5 O63 2.682498 1_555
Na5 O65 2.682498 1_555
Na5 O64 2.682498 1_555
Mg0 O1 1.999888 1_445
Mg0 O2 1.999888 1_455
Mg0 O0 1.999888 1_555
Mg0 O38 2.109094 1_555
Mg0 O36 2.109094 1_545
Mg0 O37 2.109094 1_445
Mg1 O4 1.999888 1_445
Mg1 O3 1.999888 1_555
Mg1 O5 1.999888 1_455
Mg1 O39 2.109094 1_555
Mg1 O41 2.109094 1_445
Mg1 O40 2.109094 1_545
Mg2 O48 2.047906 1_555
Mg2 O50 2.047906 1_555
Mg2 O49 2.047906 1_555
Mg2 O14 2.049405 1_555
Mg2 O13 2.049405 1_555
Mg2 O12 2.049405 1_555
Mg3 O52 2.047906 1_555
Mg3 O53 2.047906 1_555
Mg3 O51 2.047906 1_555
Mg3 O17 2.049405 1_555
Mg3 O15 2.049405 1_555
Mg3 O16 2.049405 1_555
O0 P0 1.487068 1_555
O1 P1 1.487068 1_555
O2 P2 1.487068 1_555
O3 P3 1.487068 1_555
O4 P4 1.487068 1_555
O5 P5 1.487068 1_555
O6 P5 1.615694 1_565
O6 Ta0 1.937478 1_665
O7 P3 1.615694 1_555
O7 Ta0 1.937478 1_555
O8 P4 1.615694 1_455
O8 Ta0 1.937478 1_565
O9 P1 1.615694 1_555
O9 Ta1 1.937478 1_665
O10 P2 1.615694 1_455
O10 Ta1 1.937478 1_555
O11 P0 1.615694 1_565
O11 Ta1 1.937478 1_565
O12 P6 1.479724 1_555
O13 P7 1.479724 1_555
O14 P8 1.479724 1_555
O15 P9 1.479724 1_555
O16 P10 1.479724 1_555
O17 P11 1.479724 1_555
O18 P11 1.576765 1_555
O18 Ta2 1.983128 1_554
O19 P9 1.576765 1_555
O19 Ta2 1.983128 1_554
O20 P10 1.576765 1_555
O20 Ta2 1.983128 1_554
O21 P7 1.576765 1_555
O21 Ta3 1.983128 1_555
O22 P8 1.576765 1_555
O22 Ta3 1.983128 1_555
O23 P6 1.576765 1_555
O23 Ta3 1.983128 1_555
O24 P12 1.562879 1_555
O24 Ta4 1.949034 1_556
O25 P13 1.562879 1_555
O25 Ta4 1.949034 1_556
O26 P14 1.562879 1_555
O26 Ta4 1.949034 1_556
O27 P15 1.562879 1_555
O27 Ta5 1.949034 1_555
O28 P16 1.562879 1_555
O28 Ta5 1.949034 1_555
O29 P17 1.562879 1_555
O29 Ta5 1.949034 1_555
O30 P17 1.552002 1_555
O30 Ta6 2.022209 1_555
O31 P15 1.552002 1_555
O31 Ta6 2.022209 1_555
O32 P16 1.552002 1_555
O32 Ta6 2.022209 1_555
O33 P13 1.552002 1_555
O33 Ta7 2.022209 1_555
O34 P14 1.552002 1_555
O34 Ta7 2.022209 1_555
O35 P12 1.552002 1_555
O35 Ta7 2.022209 1_555
O36 P17 1.493195 1_555
O37 P15 1.493203 1_555
O38 P16 1.493200 1_555
O39 P13 1.493203 1_555
O40 P14 1.493195 1_555
O41 P12 1.493200 1_555
O42 P6 1.559987 1_555
O42 Ta0 2.072895 1_655
O43 P7 1.559996 1_555
O43 Ta0 2.072895 1_555
O44 P8 1.559992 1_555
O44 Ta0 2.072895 1_665
O45 P9 1.559996 1_555
O45 Ta1 2.072895 1_665
O46 P10 1.559987 1_555
O46 Ta1 2.072895 1_655
O47 P11 1.559992 1_555
O47 Ta1 2.072895 1_555
O48 P5 1.498712 1_555
O49 P3 1.498720 1_555
O50 P4 1.498717 1_555
O51 P1 1.498720 1_555
O52 P2 1.498712 1_555
O53 P0 1.498717 1_555
O54 P12 1.572798 1_555
O54 Ta2 1.994579 1_555
O55 P13 1.572781 1_655
O55 Ta2 1.994579 1_555
O56 P14 1.572789 1_545
O56 Ta2 1.994579 1_555
O57 P15 1.572781 1_545
O57 Ta3 1.994579 1_555
O58 P16 1.572798 1_555
O58 Ta3 1.994579 1_555
O59 P17 1.572789 1_655
O59 Ta3 1.994579 1_555
O60 P11 1.575828 1_555
O60 Ta4 1.984055 1_555
O61 P9 1.575811 1_455
O61 Ta4 1.984055 1_555
O62 P10 1.575818 1_565
O62 Ta4 1.984055 1_555
O63 P7 1.575811 1_565
O63 Ta5 1.984055 1_555
O64 P8 1.575828 1_555
O64 Ta5 1.984055 1_555
O65 P6 1.575818 1_455
O65 Ta5 1.984055 1_555
O66 P0 1.609344 1_565
O66 Ta6 1.963251 1_555
O67 P1 1.609352 1_555
O67 Ta6 1.963251 1_555
O68 P2 1.609348 1_455
O68 Ta6 1.963251 1_555
O69 P3 1.609352 1_555
O69 Ta7 1.963251 1_555
O70 P4 1.609344 1_455
O70 Ta7 1.963251 1_555
O71 P5 1.609348 1_565
O71 Ta7 1.963251 1_555
