# generated using pymatgen
data_CaCrO3
_symmetry_space_group_name_H-M   'P 1'
_cell_length_a   5.33343300
_cell_length_b   5.47225500
_cell_length_c   7.54876000
_cell_angle_alpha   90.00058264
_cell_angle_beta   90.00018461
_cell_angle_gamma   90.00044520
_symmetry_Int_Tables_number   1
_chemical_formula_structural   CaCrO3
_chemical_formula_sum   'Ca4 Cr4 O12'
_cell_volume   220.31739525
_cell_formula_units_Z   4
loop_
 _symmetry_equiv_pos_site_id
 _symmetry_equiv_pos_as_xyz
  1  'x, y, z'
loop_
 _atom_site_type_symbol
 _atom_site_label
 _atom_site_symmetry_multiplicity
 _atom_site_fract_x
 _atom_site_fract_y
 _atom_site_fract_z
 _atom_site_occupancy
  Ca  Ca0  1  0.99212900  0.04491300  0.25001800  1
  Ca  Ca1  1  0.49246200  0.45498300  0.74998500  1
  Ca  Ca2  1  0.50785500  0.54475500  0.24997900  1
  Ca  Ca3  1  0.00753900  0.95513900  0.75001100  1
  Cr  Cr0  1  0.49998800  0.00022600  0.99999000  1
  Cr  Cr1  1  0.00012300  0.50017300  0.00002300  1
  Cr  Cr2  1  0.99997600  0.50013100  0.50000200  1
  Cr  Cr3  1  0.49988000  0.00002300  0.49998300  1
  O  O0  1  0.92284700  0.52131500  0.74999000  1
  O  O1  1  0.42260200  0.97857300  0.25001000  1
  O  O2  1  0.57713000  0.02122800  0.75001100  1
  O  O3  1  0.07736700  0.47865800  0.24999000  1
  O  O4  1  0.71229000  0.29700900  0.46007200  1
  O  O5  1  0.21223800  0.20293300  0.53985700  1
  O  O6  1  0.78774300  0.79701200  0.03993700  1
  O  O7  1  0.28780600  0.70298300  0.96014000  1
  O  O8  1  0.71224700  0.29701300  0.03991600  1
  O  O9  1  0.21218200  0.20297900  0.96014800  1
  O  O10  1  0.28782400  0.70298000  0.53986800  1
  O  O11  1  0.78777000  0.79697400  0.46006800  1
loop_
_geom_bond_atom_site_label_1
_geom_bond_atom_site_label_2
_geom_bond_distance
_geom_bond_site_symmetry_2
Ca0 O1 2.324426 1_645
Ca0 O11 2.354366 1_545
Ca0 O6 2.354447 1_545
Ca0 O3 2.416704 1_655
Ca0 O4 2.577781 1_555
Ca0 O8 2.578160 1_555
Ca0 O5 2.629225 1_655
Ca0 O9 2.629390 1_654
Ca1 O0 2.323950 1_555
Ca1 O10 2.355583 1_555
Ca1 O7 2.355817 1_555
Ca1 O2 2.416194 1_555
Ca1 O5 2.579161 1_555
Ca1 O9 2.579385 1_555
Ca1 O4 2.628950 1_555
Ca1 O8 2.628962 1_556
Ca2 O3 2.324292 1_555
Ca2 O8 2.353884 1_555
Ca2 O4 2.354169 1_555
Ca2 O1 2.417118 1_555
Ca2 O6 2.578353 1_555
Ca2 O11 2.578520 1_555
Ca2 O7 2.629477 1_554
Ca2 O10 2.629735 1_555
Ca3 O2 2.323874 1_465
Ca3 O9 2.355174 1_565
Ca3 O5 2.355278 1_565
Ca3 O0 2.416582 1_455
Ca3 O7 2.579639 1_555
Ca3 O10 2.579757 1_555
Ca3 O6 2.629240 1_456
Ca3 O11 2.629330 1_455
Cr0 O9 1.917738 1_555
Cr0 O6 1.919105 1_546
Cr0 O2 1.934782 1_555
Cr0 O1 1.935576 1_546
Cr0 O8 2.002513 1_556
Cr0 O7 2.004219 1_545
Cr1 O7 1.917430 1_554
Cr1 O8 1.919374 1_455
Cr1 O3 1.934976 1_555
Cr1 O0 1.935375 1_454
Cr1 O6 2.003110 1_455
Cr1 O9 2.003675 1_554
Cr2 O10 1.918232 1_655
Cr2 O4 1.918482 1_555
Cr2 O0 1.934891 1_555
Cr2 O3 1.935461 1_655
Cr2 O11 2.002630 1_555
Cr2 O5 2.004285 1_655
Cr3 O5 1.917571 1_555
Cr3 O11 1.919118 1_545
Cr3 O1 1.935034 1_545
Cr3 O2 1.935327 1_555
Cr3 O10 2.002997 1_545
Cr3 O4 2.003841 1_555
