# generated using pymatgen
data_Ce(SeO4)2
_symmetry_space_group_name_H-M   'P 1'
_cell_length_a   9.24195854
_cell_length_b   9.84289431
_cell_length_c   13.84608289
_cell_angle_alpha   90.00000000
_cell_angle_beta   90.00000000
_cell_angle_gamma   90.00000000
_symmetry_Int_Tables_number   1
_chemical_formula_structural   Ce(SeO4)2
_chemical_formula_sum   'Ce8 Se16 O64'
_cell_volume   1259.54522243
_cell_formula_units_Z   8
loop_
 _symmetry_equiv_pos_site_id
 _symmetry_equiv_pos_as_xyz
  1  'x, y, z'
loop_
 _atom_site_type_symbol
 _atom_site_label
 _atom_site_symmetry_multiplicity
 _atom_site_fract_x
 _atom_site_fract_y
 _atom_site_fract_z
 _atom_site_occupancy
  Ce  Ce0  1  0.22148299  0.03579020  0.89595728  1
  Ce  Ce1  1  0.77851701  0.46420980  0.39595728  1
  Ce  Ce2  1  0.72148299  0.46420980  0.89595728  1
  Ce  Ce3  1  0.27851701  0.53579020  0.10404272  1
  Ce  Ce4  1  0.77851701  0.96420980  0.10404272  1
  Ce  Ce5  1  0.72148299  0.96420980  0.60404272  1
  Ce  Ce6  1  0.27851701  0.03579020  0.39595728  1
  Ce  Ce7  1  0.22148299  0.53579020  0.60404272  1
  Se  Se0  1  0.99908678  0.27490775  0.06049770  1
  Se  Se1  1  0.49908678  0.22509225  0.06049770  1
  Se  Se2  1  0.81493077  0.60674976  0.65380235  1
  Se  Se3  1  0.68506923  0.60674976  0.15380235  1
  Se  Se4  1  0.68506923  0.10674976  0.34619765  1
  Se  Se5  1  0.18506923  0.89325024  0.15380235  1
  Se  Se6  1  0.31493077  0.39325024  0.84619765  1
  Se  Se7  1  0.50091322  0.77490775  0.93950230  1
  Se  Se8  1  0.31493077  0.89325024  0.65380235  1
  Se  Se9  1  0.81493077  0.10674976  0.84619765  1
  Se  Se10  1  0.00091322  0.72509225  0.93950230  1
  Se  Se11  1  0.49908678  0.72509225  0.43950230  1
  Se  Se12  1  0.18506923  0.39325024  0.34619765  1
  Se  Se13  1  0.50091322  0.27490775  0.56049770  1
  Se  Se14  1  0.00091322  0.22509225  0.56049770  1
  Se  Se15  1  0.99908678  0.77490775  0.43950230  1
  O  O0  1  0.24224731  0.41852572  0.45771440  1
  O  O1  1  0.74224731  0.08147428  0.45771440  1
  O  O2  1  0.88508799  0.18757880  0.12708447  1
  O  O3  1  0.57805253  0.35473662  0.46968120  1
  O  O4  1  0.92194747  0.35473662  0.96968120  1
  O  O5  1  0.50836747  0.58594618  0.15859120  1
  O  O6  1  0.61491201  0.18757880  0.62708447  1
  O  O7  1  0.76432240  0.49853624  0.22683284  1
  O  O8  1  0.91649537  0.11343581  0.62934122  1
  O  O9  1  0.58350463  0.61343581  0.37065878  1
  O  O10  1  0.23567760  0.00146376  0.72683284  1
  O  O11  1  0.75775269  0.58147428  0.54228560  1
  O  O12  1  0.73567760  0.49853624  0.72683284  1
  O  O13  1  0.73097875  0.76215378  0.18561231  1
  O  O14  1  0.99163253  0.08594618  0.84140880  1
  O  O15  1  0.00836747  0.41405382  0.34140880  1
  O  O16  1  0.92194747  0.85473662  0.53031880  1
  O  O17  1  0.76432240  -0.00146376  0.27316716  1
  O  O18  1  0.49163253  0.91405382  0.65859120  1
  O  O19  1  0.08350463  0.38656419  0.12934122  1
  O  O20  1  0.11491201  0.31242120  0.62708447  1
  O  O21  1  0.76902125  0.26215378  0.81438769  1
  O  O22  1  0.61491201  0.68757880  0.87291553  1
  O  O23  1  0.41649537  0.38656419  0.62934122  1
  O  O24  1  0.57805253  0.85473662  0.03031880  1
  O  O25  1  0.07805253  0.14526338  0.46968120  1
  O  O26  1  0.07805253  0.64526338  0.03031880  1
  O  O27  1  0.11733765  0.16429302  0.01679981  1
  O  O28  1  0.61733765  0.83570698  0.48320019  1
  O  O29  1  0.42194747  0.14526338  0.96968120  1
  O  O30  1  0.11491201  0.81242120  0.87291553  1
  O  O31  1  0.76902125  0.76215378  0.68561231  1
  O  O32  1  0.25775269  0.91852572  0.54228560  1
  O  O33  1  0.73567760  -0.00146376  0.77316716  1
  O  O34  1  0.88508799  0.68757880  0.37291553  1
  O  O35  1  0.38266235  0.16429302  0.51679981  1
  O  O36  1  0.24224731  0.91852572  0.04228560  1
  O  O37  1  0.88266235  0.33570698  0.51679981  1
  O  O38  1  0.38508799  0.31242120  0.12708447  1
  O  O39  1  0.23097875  0.23784622  0.31438769  1
  O  O40  1  0.58350463  0.11343581  0.12934122  1
  O  O41  1  0.26902125  0.73784622  0.68561231  1
  O  O42  1  0.42194747  0.64526338  0.53031880  1
  O  O43  1  0.74224731  0.58147428  0.04228560  1
  O  O44  1  0.26432240  0.50146376  0.27316716  1
  O  O45  1  0.26902125  0.23784622  0.81438769  1
  O  O46  1  0.38266235  0.66429302  0.98320019  1
  O  O47  1  0.25775269  0.41852572  0.95771440  1
  O  O48  1  0.99163253  0.58594618  0.65859120  1
  O  O49  1  0.73097875  0.26215378  0.31438769  1
  O  O50  1  0.49163253  0.41405382  0.84140880  1
  O  O51  1  0.11733765  0.66429302  0.48320019  1
  O  O52  1  0.88266235  0.83570698  0.98320019  1
  O  O53  1  0.23567760  0.50146376  0.77316716  1
  O  O54  1  0.75775269  0.08147428  0.95771440  1
  O  O55  1  0.41649537  0.88656419  0.87065878  1
  O  O56  1  0.91649537  0.61343581  0.87065878  1
  O  O57  1  0.00836747  0.91405382  0.15859120  1
  O  O58  1  0.08350463  0.88656419  0.37065878  1
  O  O59  1  0.23097875  0.73784622  0.18561231  1
  O  O60  1  0.26432240  0.00146376  0.22683284  1
  O  O61  1  0.38508799  0.81242120  0.37291553  1
  O  O62  1  0.50836747  0.08594618  0.34140880  1
  O  O63  1  0.61733765  0.33570698  0.01679981  1
loop_
_geom_bond_atom_site_label_1
_geom_bond_atom_site_label_2
_geom_bond_distance
_geom_bond_site_symmetry_2
Ce0 O27 2.307774 1_556
Ce0 O14 2.307962 1_455
Ce0 O45 2.328949 1_555
Ce0 O36 2.339665 1_546
Ce0 O55 2.351253 1_545
Ce0 O10 2.369594 1_555
Ce0 O29 2.373926 1_555
Ce0 O30 2.430163 1_545
Ce1 O37 2.307774 1_555
Ce1 O15 2.307962 1_655
Ce1 O49 2.328949 1_555
Ce1 O11 2.339665 1_555
Ce1 O9 2.351253 1_555
Ce1 O7 2.369594 1_555
Ce1 O3 2.373926 1_555
Ce1 O34 2.430163 1_555
Ce2 O63 2.307774 1_556
Ce2 O50 2.307962 1_555
Ce2 O21 2.328949 1_555
Ce2 O43 2.339665 1_556
Ce2 O56 2.351253 1_555
Ce2 O12 2.369594 1_555
Ce2 O4 2.373926 1_555
Ce2 O22 2.430163 1_555
Ce3 O46 2.307774 1_554
Ce3 O5 2.307962 1_555
Ce3 O59 2.328949 1_555
Ce3 O47 2.339665 1_554
Ce3 O19 2.351253 1_555
Ce3 O44 2.369594 1_555
Ce3 O26 2.373926 1_555
Ce3 O38 2.430163 1_555
Ce4 O52 2.307774 1_554
Ce4 O57 2.307962 1_655
Ce4 O13 2.328949 1_555
Ce4 O54 2.339665 1_564
Ce4 O40 2.351253 1_565
Ce4 O17 2.369594 1_565
Ce4 O24 2.373926 1_555
Ce4 O2 2.430163 1_565
Ce5 O28 2.307774 1_555
Ce5 O18 2.307962 1_555
Ce5 O31 2.328949 1_555
Ce5 O1 2.339665 1_565
Ce5 O8 2.351253 1_565
Ce5 O33 2.369594 1_565
Ce5 O16 2.373926 1_555
Ce5 O6 2.430163 1_565
Ce6 O35 2.307774 1_555
Ce6 O62 2.307962 1_555
Ce6 O39 2.328949 1_555
Ce6 O32 2.339665 1_545
Ce6 O58 2.351253 1_545
Ce6 O60 2.369594 1_555
Ce6 O25 2.373926 1_555
Ce6 O61 2.430163 1_545
Ce7 O51 2.307774 1_555
Ce7 O48 2.307962 1_455
Ce7 O41 2.328949 1_555
Ce7 O0 2.339665 1_555
Ce7 O23 2.351253 1_555
Ce7 O53 2.369594 1_555
Ce7 O42 2.373926 1_555
Ce7 O20 2.430163 1_555
O0 Se12 1.650846 1_555
O1 Se4 1.650846 1_555
O2 Se0 1.642831 1_555
O3 Se13 1.645247 1_555
O4 Se0 1.645247 1_556
O5 Se3 1.647193 1_555
O6 Se13 1.642831 1_555
O7 Se3 1.641188 1_555
O8 Se14 1.650805 1_655
O9 Se11 1.650805 1_555
O10 Se8 1.641188 1_545
O11 Se2 1.650846 1_555
O12 Se2 1.641188 1_555
O13 Se3 1.647352 1_555
O14 Se9 1.647193 1_555
O15 Se12 1.647193 1_555
O16 Se15 1.645247 1_555
O17 Se4 1.641188 1_555
O18 Se8 1.647193 1_555
O19 Se0 1.650805 1_455
O20 Se14 1.642831 1_555
O21 Se9 1.647352 1_555
O22 Se7 1.642831 1_555
O23 Se13 1.650805 1_555
O24 Se7 1.645247 1_554
O25 Se14 1.645247 1_555
O26 Se10 1.645247 1_554
O27 Se0 1.657064 1_455
O28 Se11 1.657064 1_555
O29 Se1 1.645247 1_556
O30 Se10 1.642831 1_555
O31 Se2 1.647352 1_555
O32 Se8 1.650846 1_555
O33 Se9 1.641188 1_555
O34 Se15 1.642831 1_555
O35 Se13 1.657064 1_555
O36 Se5 1.650846 1_555
O37 Se14 1.657064 1_655
O38 Se1 1.642831 1_555
O39 Se12 1.647352 1_555
O40 Se1 1.650805 1_555
O41 Se8 1.647352 1_555
O42 Se11 1.645247 1_555
O43 Se3 1.650846 1_555
O44 Se12 1.641188 1_555
O45 Se6 1.647352 1_555
O46 Se7 1.657064 1_555
O47 Se6 1.650846 1_555
O48 Se2 1.647193 1_555
O49 Se4 1.647352 1_555
O50 Se6 1.647193 1_555
O51 Se15 1.657064 1_455
O52 Se10 1.657064 1_655
O53 Se6 1.641188 1_555
O54 Se9 1.650846 1_555
O55 Se7 1.650805 1_555
O56 Se10 1.650805 1_655
O57 Se5 1.647193 1_555
O58 Se15 1.650805 1_455
O59 Se5 1.647352 1_555
O60 Se5 1.641188 1_545
O61 Se11 1.642831 1_555
O62 Se4 1.647193 1_555
O63 Se1 1.657064 1_555
