# generated using pymatgen
data_Na6HfMg7(SO4)12
_symmetry_space_group_name_H-M   'P 1'
_cell_length_a   17.45076663
_cell_length_b   8.71709313
_cell_length_c   22.75663462
_cell_angle_alpha   89.98101363
_cell_angle_beta   90.01552649
_cell_angle_gamma   119.91935723
_symmetry_Int_Tables_number   1
_chemical_formula_structural   Na6HfMg7(SO4)12
_chemical_formula_sum   'Na18 Hf3 Mg21 S36 O144'
_cell_volume   3000.38632037
_cell_formula_units_Z   3
loop_
 _symmetry_equiv_pos_site_id
 _symmetry_equiv_pos_as_xyz
  1  'x, y, z'
loop_
 _atom_site_type_symbol
 _atom_site_label
 _atom_site_symmetry_multiplicity
 _atom_site_fract_x
 _atom_site_fract_y
 _atom_site_fract_z
 _atom_site_occupancy
  Na  Na0  1  0.32107483  0.64152412  0.74981737  1
  Na  Na1  1  0.64826276  0.32999969  0.58414139  1
  Na  Na2  1  0.98663867  0.66694893  0.91689516  1
  Na  Na3  1  0.66524320  0.30090707  0.91546960  1
  Na  Na4  1  0.16723326  0.03029983  0.41682033  1
  Na  Na5  1  0.66630963  0.02872235  0.41696401  1
  Na  Na6  1  0.99677389  0.00175255  0.49559759  1
  Na  Na7  1  0.48983376  0.98747308  0.50081229  1
  Na  Na8  1  0.00231157  0.01178988  0.99703867  1
  Na  Na9  1  0.49381814  0.98960794  0.99543320  1
  Na  Na10  1  0.33645576  0.32851981  0.83564514  1
  Na  Na11  1  0.83147167  0.32199268  0.83041453  1
  Na  Na12  1  0.33779019  0.34126647  0.33331737  1
  Na  Na13  1  0.83814580  0.34162464  0.33278378  1
  Na  Na14  1  0.16745752  0.66669447  0.16664624  1
  Na  Na15  1  0.66612178  0.66624237  0.16684443  1
  Na  Na16  1  0.16673917  0.67122333  0.66429577  1
  Na  Na17  1  0.66320851  0.67122430  0.66909021  1
  Hf  Hf0  1  0.00024969  0.00167642  0.64762665  1
  Hf  Hf1  1  0.00029511  0.00100602  0.14796859  1
  Hf  Hf2  1  0.49911770  0.99949661  0.14760674  1
  Mg  Mg0  1  0.99629834  0.99940482  0.35136721  1
  Mg  Mg1  1  0.49512366  0.99821835  0.35153304  1
  Mg  Mg2  1  0.00098196  0.00860816  0.85135926  1
  Mg  Mg3  1  0.49596064  0.99372659  0.84990985  1
  Mg  Mg4  1  0.49599133  0.99174566  0.65009571  1
  Mg  Mg5  1  0.33799534  0.33258938  0.68226755  1
  Mg  Mg6  1  0.83106327  0.32843432  0.68568897  1
  Mg  Mg7  1  0.33367168  0.33372640  0.18424174  1
  Mg  Mg8  1  0.83335976  0.33314133  0.18499666  1
  Mg  Mg9  1  0.33355373  0.33631465  0.98072807  1
  Mg  Mg10  1  0.83340607  0.32251427  0.98371803  1
  Mg  Mg11  1  0.33829388  0.34423978  0.48351905  1
  Mg  Mg12  1  0.83819368  0.33748870  0.48175838  1
  Mg  Mg13  1  0.16980087  0.66778189  0.01645105  1
  Mg  Mg14  1  0.66430366  0.66764876  0.01709292  1
  Mg  Mg15  1  0.16932544  0.66395097  0.51730795  1
  Mg  Mg16  1  0.66448868  0.67172193  0.51597612  1
  Mg  Mg17  1  0.16705227  0.66455799  0.31657282  1
  Mg  Mg18  1  0.66631906  0.66443826  0.31587440  1
  Mg  Mg19  1  0.16760299  0.67307371  0.81824092  1
  Mg  Mg20  1  0.66344095  0.66425209  0.81472465  1
  S  S0  1  0.14797792  0.00043387  0.25200500  1
  S  S1  1  0.64780442  0.00084890  0.25193297  1
  S  S2  1  0.35244997  0.70413860  0.25149535  1
  S  S3  1  0.85273875  0.70485557  0.25140459  1
  S  S4  1  0.99969896  0.29516982  0.25156184  1
  S  S5  1  0.49974485  0.29465307  0.25144630  1
  S  S6  1  0.14755557  0.29451817  0.75146604  1
  S  S7  1  0.64723461  0.29431401  0.74997749  1
  S  S8  1  0.99961840  0.70426764  0.75193469  1
  S  S9  1  0.50090768  0.70825369  0.74976885  1
  S  S10  1  0.35335560  0.00191462  0.75012337  1
  S  S11  1  0.85305806  0.00013285  0.75166397  1
  S  S12  1  0.48018259  0.33328573  0.58296144  1
  S  S13  1  0.97912975  0.33936553  0.58363179  1
  S  S14  1  0.18919093  0.04004506  0.58272815  1
  S  S15  1  0.68759782  0.03999621  0.58285601  1
  S  S16  1  0.33283373  0.62620120  0.58430420  1
  S  S17  1  0.83213361  0.62139986  0.58298561  1
  S  S18  1  0.47918994  0.61988116  0.08334692  1
  S  S19  1  0.97984877  0.62125700  0.08264332  1
  S  S20  1  0.33045774  0.04222604  0.08309425  1
  S  S21  1  0.83060453  0.04003577  0.08371754  1
  S  S22  1  0.19009269  0.33838696  0.08325064  1
  S  S23  1  0.68942101  0.33844268  0.08280261  1
  S  S24  1  0.31331322  0.66589883  0.91609496  1
  S  S25  1  0.81292204  0.66904691  0.91692595  1
  S  S26  1  0.02101581  0.37419230  0.91688623  1
  S  S27  1  0.52023254  0.37514348  0.91680432  1
  S  S28  1  0.16722545  0.96046313  0.91695091  1
  S  S29  1  0.66675883  0.95832867  0.91655018  1
  S  S30  1  0.31290515  0.95865970  0.41679259  1
  S  S31  1  0.81291490  0.95738801  0.41682977  1
  S  S32  1  0.16666395  0.37417490  0.41658522  1
  S  S33  1  0.66691911  0.37402522  0.41729649  1
  S  S34  1  0.02050596  0.66505145  0.41667548  1
  S  S35  1  0.52002623  0.66546319  0.41577368  1
  O  O0  1  0.10662890  0.02631618  0.30464340  1
  O  O1  1  0.60675435  0.02668960  0.30479816  1
  O  O2  1  0.40815780  0.78878951  0.30282882  1
  O  O3  1  0.90829879  0.78933618  0.30283402  1
  O  O4  1  0.48693369  0.18391321  0.30289667  1
  O  O5  1  0.98648824  0.18380362  0.30289293  1
  O  O6  1  0.10505182  0.18319370  0.80261570  1
  O  O7  1  0.60675054  0.18727412  0.80378267  1
  O  O8  1  0.48439526  0.78748645  0.80239598  1
  O  O9  1  0.98676346  0.78673976  0.80478523  1
  O  O10  1  0.40678991  0.02754088  0.80308868  1
  O  O11  1  0.90869385  0.02649157  0.80297327  1
  O  O12  1  0.39308131  0.96838044  0.69760504  1
  O  O13  1  0.89755040  0.97566344  0.69739840  1
  O  O14  1  0.09109025  0.20752893  0.69760514  1
  O  O15  1  0.59414565  0.21296179  0.69604347  1
  O  O16  1  0.01201558  0.82005466  0.69839245  1
  O  O17  1  0.51378248  0.81505813  0.69671489  1
  O  O18  1  0.39671209  0.81830887  0.19732182  1
  O  O19  1  0.89695131  0.81872116  0.19722892  1
  O  O20  1  0.01220272  0.20648751  0.19729854  1
  O  O21  1  0.51236713  0.20606431  0.19724592  1
  O  O22  1  0.09031542  0.97581570  0.19835044  1
  O  O23  1  0.59038675  0.97625811  0.19833635  1
  O  O24  1  0.44047380  0.36057320  0.63579094  1
  O  O25  1  0.93806707  0.35982071  0.63689264  1
  O  O26  1  0.24086587  0.12414834  0.63565931  1
  O  O27  1  0.74248964  0.12441582  0.63502321  1
  O  O28  1  0.31958025  0.52059354  0.63884059  1
  O  O29  1  0.81920626  0.51546762  0.63607187  1
  O  O30  1  0.43875843  0.51782463  0.13683060  1
  O  O31  1  0.93743363  0.51616590  0.13525199  1
  O  O32  1  0.32018608  0.12291698  0.13681368  1
  O  O33  1  0.82014168  0.12277703  0.13671574  1
  O  O34  1  0.24097983  0.35909806  0.13679657  1
  O  O35  1  0.74195425  0.35869201  0.13538922  1
  O  O36  1  0.22683371  0.30329506  0.03052411  1
  O  O37  1  0.72563685  0.30546977  0.02870402  1
  O  O38  1  0.42518770  0.54629324  0.03054084  1
  O  O39  1  0.92679284  0.54921574  0.02860694  1
  O  O40  1  0.34774748  0.15077547  0.03036514  1
  O  O41  1  0.84845289  0.14831861  0.03081388  1
  O  O42  1  0.22453604  0.14500629  0.52865713  1
  O  O43  1  0.72665067  0.15052825  0.52881782  1
  O  O44  1  0.34572172  0.54208287  0.53195052  1
  O  O45  1  0.84866000  0.54681004  0.53014181  1
  O  O46  1  0.42608657  0.30650517  0.53044333  1
  O  O47  1  0.92518101  0.30328727  0.53063460  1
  O  O48  1  0.27127199  0.69267375  0.96820132  1
  O  O49  1  0.77287105  0.69466275  0.96998951  1
  O  O50  1  0.07402973  0.45488210  0.97002777  1
  O  O51  1  0.57685478  0.45479081  0.96942054  1
  O  O52  1  0.15002396  0.84644227  0.96931946  1
  O  O53  1  0.65426572  0.85302582  0.96966811  1
  O  O54  1  0.27233541  0.85127614  0.46973849  1
  O  O55  1  0.77257621  0.85043201  0.46995340  1
  O  O56  1  0.15260328  0.45381508  0.46922833  1
  O  O57  1  0.65422264  0.45261579  0.47146250  1
  O  O58  1  0.07641656  0.69738917  0.46941999  1
  O  O59  1  0.57589834  0.69884866  0.46858800  1
  O  O60  1  0.06074318  0.63910581  0.36329257  1
  O  O61  1  0.56120214  0.63949955  0.36300471  1
  O  O62  1  0.25694258  0.87906590  0.36386313  1
  O  O63  1  0.75681621  0.87823860  0.36405128  1
  O  O64  1  0.17982716  0.48096786  0.36359625  1
  O  O65  1  0.67988758  0.48339304  0.36502198  1
  O  O66  1  0.06037308  0.48563649  0.86388393  1
  O  O67  1  0.56113655  0.48262107  0.86387702  1
  O  O68  1  0.17944530  0.87931265  0.86361152  1
  O  O69  1  0.68101725  0.87842313  0.86384001  1
  O  O70  1  0.26078097  0.63908602  0.86141048  1
  O  O71  1  0.75755772  0.63728074  0.86437762  1
  O  O72  1  0.01347271  0.82982571  0.41005082  1
  O  O73  1  0.51360312  0.83044525  0.40947819  1
  O  O74  1  0.40149892  0.97819947  0.41002406  1
  O  O75  1  0.90173281  0.97803013  0.41017653  1
  O  O76  1  0.08750630  0.19137716  0.41031656  1
  O  O77  1  0.58794419  0.19262938  0.41051757  1
  O  O78  1  0.01042420  0.19616093  0.91007486  1
  O  O79  1  0.51371538  0.19709725  0.91031434  1
  O  O80  1  0.08444190  0.97304497  0.91010635  1
  O  O81  1  0.58803433  0.98332712  0.91045733  1
  O  O82  1  0.40198157  0.82654112  0.91020771  1
  O  O83  1  0.90400685  0.82387327  0.91035313  1
  O  O84  1  0.49222277  0.17515426  0.58939432  1
  O  O85  1  0.98843618  0.17345415  0.59110609  1
  O  O86  1  0.09748115  0.02253070  0.59113741  1
  O  O87  1  0.59911790  0.02714562  0.58966136  1
  O  O88  1  0.41310280  0.80375655  0.58989704  1
  O  O89  1  0.91302098  0.80403120  0.59045283  1
  O  O90  1  0.48888503  0.80419009  0.09103769  1
  O  O91  1  0.98843919  0.80405757  0.09056548  1
  O  O92  1  0.41299318  0.02261942  0.09073566  1
  O  O93  1  0.91331474  0.02224724  0.09082756  1
  O  O94  1  0.09795867  0.17303085  0.09099509  1
  O  O95  1  0.59832407  0.17338962  0.09073591  1
  O  O96  1  0.34269741  0.15853594  0.74302904  1
  O  O97  1  0.84602245  0.15991972  0.74308923  1
  O  O98  1  0.23604354  0.31446091  0.74324805  1
  O  O99  1  0.73628794  0.31131001  0.74373995  1
  O  O100  1  0.41845088  0.53030761  0.74348227  1
  O  O101  1  0.92022099  0.53096950  0.74279404  1
  O  O102  1  0.34504479  0.53007080  0.24279880  1
  O  O103  1  0.84516474  0.53058347  0.24269008  1
  O  O104  1  0.42031380  0.30999219  0.24283696  1
  O  O105  1  0.92017432  0.31019753  0.24281812  1
  O  O106  1  0.23463970  0.15951793  0.24295593  1
  O  O107  1  0.73468992  0.15976185  0.24304000  1
  O  O108  1  0.32175693  0.50554015  0.92298760  1
  O  O109  1  0.82284197  0.50638607  0.92325765  1
  O  O110  1  0.43170614  0.35517247  0.92378396  1
  O  O111  1  0.93188609  0.36087062  0.92320385  1
  O  O112  1  0.24564192  0.13704309  0.92368375  1
  O  O113  1  0.74585877  0.14169057  0.92284827  1
  O  O114  1  0.31975871  0.13679236  0.42340697  1
  O  O115  1  0.81961652  0.13546924  0.42329019  1
  O  O116  1  0.24552394  0.34940407  0.42283864  1
  O  O117  1  0.74607034  0.35002879  0.42301432  1
  O  O118  1  0.43164644  0.50841372  0.42282946  1
  O  O119  1  0.93158414  0.50825107  0.42330252  1
  O  O120  1  0.17655974  0.49133317  0.07704155  1
  O  O121  1  0.67724838  0.49286681  0.07681953  1
  O  O122  1  0.06903883  0.64558610  0.07661462  1
  O  O123  1  0.56891468  0.64587668  0.07721646  1
  O  O124  1  0.25396185  0.86248655  0.07700598  1
  O  O125  1  0.75384664  0.86169489  0.07690945  1
  O  O126  1  0.17587256  0.86045639  0.57699575  1
  O  O127  1  0.67832042  0.86302713  0.57651164  1
  O  O128  1  0.25276681  0.64377700  0.57754709  1
  O  O129  1  0.75295156  0.64134129  0.57654467  1
  O  O130  1  0.06860280  0.49197906  0.57705227  1
  O  O131  1  0.57124537  0.49173416  0.57679245  1
  O  O132  1  0.15435763  0.83868032  0.25566718  1
  O  O133  1  0.65457318  0.83941046  0.25568381  1
  O  O134  1  0.26536757  0.69167735  0.25564159  1
  O  O135  1  0.76550542  0.69170786  0.25567299  1
  O  O136  1  0.08034121  0.46941658  0.25558612  1
  O  O137  1  0.58042568  0.46904824  0.25550292  1
  O  O138  1  0.15615854  0.47198722  0.75578270  1
  O  O139  1  0.65633560  0.47249106  0.75628226  1
  O  O140  1  0.08026697  0.69097819  0.75579721  1
  O  O141  1  0.57953776  0.68808128  0.75637698  1
  O  O142  1  0.26455798  0.83608768  0.75650182  1
  O  O143  1  0.76595007  0.83955179  0.75573694  1
loop_
_geom_bond_atom_site_label_1
_geom_bond_atom_site_label_2
_geom_bond_distance
_geom_bond_site_symmetry_2
Na0 O100 2.343480 1_555
Na0 O142 2.353990 1_555
Na0 O98 2.476400 1_555
Na0 O138 2.498438 1_555
Na0 O28 2.732065 1_555
Na0 O70 2.745105 1_555
Na0 O12 2.745162 1_555
Na0 O8 2.748657 1_555
Na1 O87 2.337129 1_555
Na1 O84 2.363171 1_555
Na1 O131 2.389977 1_555
Na1 O129 2.405612 1_555
Na1 O15 2.730551 1_555
Na1 O57 2.759671 1_555
Na1 O43 2.835652 1_555
Na1 O29 2.845610 1_555
Na2 O111 2.347146 1_555
Na2 O80 2.348067 1_655
Na2 O83 2.437248 1_555
Na2 O109 2.481819 1_555
Na2 O39 2.745389 1_556
Na2 O52 2.747701 1_655
Na2 O9 2.755945 1_555
Na2 O66 2.764022 1_655
Na3 O79 2.331892 1_555
Na3 O81 2.402397 1_545
Na3 O113 2.425085 1_555
Na3 O109 2.426781 1_555
Na3 O7 2.733964 1_555
Na3 O37 2.776540 1_556
Na3 O51 2.784247 1_555
Na3 O71 2.798471 1_555
Na4 O114 2.346025 1_555
Na4 O72 2.366376 1_545
Na4 O116 2.414956 1_555
Na4 O76 2.424402 1_555
Na4 O42 2.734923 1_555
Na4 O0 2.756501 1_555
Na4 O62 2.775238 1_545
Na4 O58 2.788709 1_545
Na5 O73 2.350117 1_545
Na5 O115 2.358061 1_555
Na5 O77 2.425292 1_555
Na5 O117 2.431521 1_555
Na5 O1 2.752452 1_555
Na5 O43 2.756874 1_555
Na5 O59 2.758822 1_545
Na5 O63 2.781018 1_545
Na6 O75 2.495723 1_545
Na6 O76 2.528707 1_655
Na6 O72 2.561015 1_645
Na6 O85 2.684187 1_555
Na6 O89 2.693064 1_545
Na6 O86 2.743898 1_655
Na7 O88 2.515482 1_555
Na7 O74 2.554479 1_555
Na7 O84 2.583798 1_565
Na7 O73 2.633338 1_555
Na7 O87 2.680514 1_565
Na7 O77 2.701266 1_565
Na8 O78 2.508105 1_555
Na8 O80 2.562562 1_545
Na8 O83 2.591276 1_445
Na8 O94 2.644406 1_556
Na8 O93 2.668106 1_456
Na8 O91 2.725436 1_446
Na9 O82 2.465367 1_555
Na9 O79 2.552561 1_565
Na9 O81 2.556804 1_555
Na9 O92 2.680055 1_566
Na9 O90 2.685557 1_556
Na9 O95 2.771577 1_566
Na10 O110 2.540301 1_555
Na10 O112 2.583042 1_555
Na10 O108 2.606675 1_555
Na10 O96 2.610133 1_555
Na10 O100 2.651159 1_555
Na10 O98 2.700101 1_555
Na11 O97 2.523803 1_555
Na11 O99 2.549938 1_555
Na11 O113 2.604623 1_555
Na11 O101 2.622549 1_555
Na11 O111 2.655228 1_555
Na11 O109 2.704466 1_555
Na12 O118 2.564069 1_555
Na12 O102 2.599614 1_555
Na12 O104 2.604119 1_555
Na12 O116 2.619831 1_555
Na12 O114 2.630119 1_555
Na12 O106 2.670950 1_555
Na13 O119 2.578613 1_555
Na13 O105 2.590133 1_555
Na13 O103 2.593888 1_555
Na13 O117 2.631096 1_555
Na13 O115 2.644677 1_555
Na13 O107 2.662426 1_555
Na14 O134 2.587579 1_555
Na14 O132 2.597691 1_555
Na14 O136 2.599294 1_555
Na14 O120 2.600840 1_555
Na14 O124 2.604264 1_555
Na14 O122 2.619989 1_555
Na15 O137 2.587814 1_555
Na15 O133 2.590792 1_555
Na15 O135 2.599559 1_555
Na15 O123 2.601370 1_555
Na15 O121 2.610335 1_555
Na15 O125 2.613914 1_555
Na16 O126 2.535544 1_555
Na16 O128 2.562872 1_555
Na16 O130 2.578138 1_555
Na16 O140 2.627498 1_555
Na16 O142 2.633429 1_555
Na16 O138 2.657592 1_555
Na17 O141 2.512954 1_555
Na17 O143 2.575106 1_555
Na17 O139 2.596754 1_555
Na17 O127 2.619472 1_555
Na17 O131 2.632618 1_555
Na17 O129 2.713841 1_555
Hf0 O13 2.035124 1_445
Hf0 O14 2.046761 1_555
Hf0 O16 2.050923 1_545
Hf0 O85 2.060484 1_455
Hf0 O86 2.063469 1_555
Hf0 O89 2.088660 1_445
Hf1 O20 2.035113 1_555
Hf1 O22 2.042914 1_545
Hf1 O19 2.043322 1_445
Hf1 O94 2.069962 1_555
Hf1 O93 2.075630 1_455
Hf1 O91 2.084154 1_445
Hf2 O18 2.037740 1_555
Hf2 O21 2.039068 1_565
Hf2 O23 2.056988 1_555
Hf2 O92 2.067695 1_565
Hf2 O90 2.070184 1_555
Hf2 O95 2.086120 1_565
Mg0 O5 2.025635 1_565
Mg0 O3 2.031382 1_555
Mg0 O75 2.059943 1_555
Mg0 O0 2.107831 1_665
Mg0 O76 2.115807 1_665
Mg0 O72 2.121047 1_655
Mg1 O4 2.023659 1_565
Mg1 O2 2.025106 1_555
Mg1 O74 2.046499 1_555
Mg1 O73 2.109657 1_555
Mg1 O1 2.122782 1_565
Mg1 O77 2.135283 1_565
Mg2 O11 2.019854 1_455
Mg2 O6 2.021775 1_555
Mg2 O78 2.053787 1_555
Mg2 O9 2.109011 1_445
Mg2 O80 2.110370 1_545
Mg2 O83 2.130880 1_445
Mg3 O8 2.020197 1_555
Mg3 O10 2.024858 1_565
Mg3 O82 2.076547 1_555
Mg3 O7 2.105300 1_565
Mg3 O79 2.140515 1_565
Mg3 O81 2.152300 1_555
Mg4 O17 2.017392 1_555
Mg4 O12 2.017798 1_555
Mg4 O88 2.071277 1_555
Mg4 O15 2.109787 1_565
Mg4 O84 2.138219 1_565
Mg4 O87 2.161573 1_565
Mg5 O24 1.985428 1_555
Mg5 O26 2.056078 1_555
Mg5 O28 2.071199 1_555
Mg5 O96 2.084089 1_555
Mg5 O100 2.113987 1_555
Mg5 O98 2.199266 1_555
Mg6 O27 2.034590 1_555
Mg6 O99 2.063397 1_555
Mg6 O25 2.070269 1_555
Mg6 O29 2.076310 1_555
Mg6 O97 2.076852 1_555
Mg6 O101 2.118194 1_555
Mg7 O30 2.041221 1_555
Mg7 O32 2.041320 1_555
Mg7 O34 2.046184 1_555
Mg7 O102 2.099292 1_555
Mg7 O104 2.101827 1_555
Mg7 O106 2.111849 1_555
Mg8 O33 2.049954 1_555
Mg8 O35 2.054657 1_555
Mg8 O31 2.057855 1_555
Mg8 O105 2.089871 1_555
Mg8 O103 2.091908 1_555
Mg8 O107 2.097053 1_555
Mg9 O108 2.060706 1_555
Mg9 O38 2.067121 1_556
Mg9 O36 2.074003 1_556
Mg9 O40 2.086004 1_556
Mg9 O110 2.088122 1_555
Mg9 O112 2.097175 1_555
Mg10 O41 1.979868 1_556
Mg10 O37 2.080664 1_556
Mg10 O113 2.082170 1_555
Mg10 O111 2.095086 1_555
Mg10 O39 2.095801 1_556
Mg10 O109 2.188433 1_555
Mg11 O44 1.995994 1_555
Mg11 O46 2.024167 1_555
Mg11 O118 2.069684 1_555
Mg11 O42 2.138427 1_555
Mg11 O116 2.145033 1_555
Mg11 O114 2.159608 1_555
Mg12 O47 2.020061 1_555
Mg12 O119 2.054567 1_555
Mg12 O45 2.060063 1_555
Mg12 O115 2.099630 1_555
Mg12 O43 2.104099 1_555
Mg12 O117 2.134836 1_555
Mg13 O48 2.001462 1_554
Mg13 O52 2.056661 1_554
Mg13 O50 2.063907 1_554
Mg13 O124 2.109611 1_555
Mg13 O120 2.111965 1_555
Mg13 O122 2.159989 1_555
Mg14 O53 2.021838 1_554
Mg14 O51 2.030862 1_554
Mg14 O49 2.085613 1_554
Mg14 O123 2.089223 1_555
Mg14 O125 2.125917 1_555
Mg14 O121 2.135770 1_555
Mg15 O56 2.026227 1_555
Mg15 O54 2.035036 1_555
Mg15 O128 2.069929 1_555
Mg15 O58 2.090824 1_555
Mg15 O130 2.134628 1_555
Mg15 O126 2.144402 1_555
Mg16 O59 1.993107 1_555
Mg16 O55 2.037221 1_555
Mg16 O127 2.082493 1_555
Mg16 O57 2.089510 1_555
Mg16 O131 2.116071 1_555
Mg16 O129 2.181636 1_555
Mg17 O64 2.027469 1_555
Mg17 O62 2.046865 1_555
Mg17 O60 2.052211 1_555
Mg17 O134 2.125685 1_555
Mg17 O136 2.131232 1_555
Mg17 O132 2.146579 1_555
Mg18 O61 2.040979 1_555
Mg18 O65 2.041837 1_555
Mg18 O63 2.057609 1_555
Mg18 O137 2.118694 1_555
Mg18 O135 2.126010 1_555
Mg18 O133 2.134224 1_555
Mg19 O68 1.992816 1_555
Mg19 O70 2.043614 1_555
Mg19 O66 2.049393 1_555
Mg19 O142 2.111266 1_555
Mg19 O140 2.145324 1_555
Mg19 O138 2.187461 1_555
Mg20 O67 2.031104 1_555
Mg20 O141 2.062077 1_555
Mg20 O69 2.063684 1_555
Mg20 O139 2.091175 1_555
Mg20 O71 2.100849 1_555
Mg20 O143 2.147116 1_555
O0 S0 1.472929 1_555
O1 S1 1.474046 1_555
O2 S2 1.462383 1_555
O3 S3 1.462808 1_555
O4 S5 1.461782 1_555
O5 S4 1.461584 1_555
O6 S6 1.458921 1_555
O7 S7 1.486970 1_555
O8 S9 1.481090 1_555
O9 S8 1.474874 1_555
O10 S10 1.471039 1_555
O11 S11 1.461436 1_555
O12 S10 1.482307 1_565
O13 S11 1.529451 1_565
O14 S6 1.517518 1_555
O15 S7 1.487338 1_555
O16 S8 1.526972 1_455
O17 S9 1.471620 1_555
O18 S2 1.529630 1_555
O19 S3 1.528456 1_555
O20 S4 1.529419 1_455
O21 S5 1.528611 1_555
O22 S0 1.527589 1_565
O23 S1 1.524068 1_565
O24 S12 1.465321 1_555
O25 S13 1.463689 1_555
O26 S14 1.463581 1_555
O27 S15 1.471466 1_555
O28 S16 1.492723 1_555
O29 S17 1.467862 1_555
O30 S18 1.464312 1_555
O31 S19 1.464138 1_555
O32 S20 1.465535 1_555
O33 S21 1.462945 1_555
O34 S22 1.464788 1_555
O35 S23 1.463481 1_555
O36 S22 1.463106 1_555
O37 S23 1.476316 1_555
O38 S18 1.463039 1_555
O39 S19 1.477703 1_555
O40 S20 1.463177 1_555
O41 S21 1.464086 1_555
O42 S14 1.472532 1_555
O43 S15 1.499891 1_555
O44 S16 1.474083 1_555
O45 S17 1.462815 1_555
O46 S12 1.467565 1_555
O47 S13 1.464252 1_555
O48 S24 1.473170 1_555
O49 S25 1.467257 1_555
O50 S26 1.471020 1_555
O51 S27 1.485809 1_555
O52 S28 1.483243 1_555
O53 S29 1.466652 1_555
O54 S30 1.472341 1_555
O55 S31 1.473525 1_555
O56 S32 1.465591 1_555
O57 S33 1.479846 1_555
O58 S34 1.482341 1_555
O59 S35 1.482021 1_555
O60 S34 1.476157 1_555
O61 S35 1.473922 1_555
O62 S30 1.486580 1_555
O63 S31 1.484276 1_555
O64 S32 1.469540 1_555
O65 S33 1.469497 1_555
O66 S26 1.484707 1_555
O67 S27 1.473285 1_555
O68 S28 1.473243 1_555
O69 S29 1.469526 1_555
O70 S24 1.493140 1_555
O71 S25 1.474051 1_555
O72 S34 1.508843 1_555
O73 S35 1.504017 1_555
O74 S30 1.476605 1_555
O75 S31 1.476317 1_555
O76 S32 1.507283 1_555
O77 S33 1.499875 1_555
O78 S26 1.476696 1_555
O79 S27 1.505873 1_555
O80 S28 1.510360 1_555
O81 S29 1.500854 1_555
O82 S24 1.487148 1_555
O83 S25 1.493446 1_555
O84 S12 1.501486 1_555
O85 S13 1.543087 1_555
O86 S14 1.541957 1_555
O87 S15 1.499392 1_555
O88 S16 1.487003 1_555
O89 S17 1.521242 1_555
O90 S18 1.539335 1_555
O91 S19 1.534947 1_555
O92 S20 1.542512 1_555
O93 S21 1.535131 1_555
O94 S22 1.543346 1_555
O95 S23 1.532378 1_555
O96 S10 1.475739 1_555
O97 S11 1.470938 1_555
O98 S6 1.477173 1_555
O99 S7 1.492512 1_555
O100 S9 1.506844 1_555
O101 S8 1.468728 1_555
O102 S2 1.470661 1_555
O103 S3 1.471220 1_555
O104 S5 1.470495 1_555
O105 S4 1.470997 1_555
O106 S0 1.469853 1_555
O107 S1 1.470906 1_555
O108 S24 1.485142 1_555
O109 S25 1.518540 1_555
O110 S27 1.474427 1_555
O111 S26 1.507746 1_655
O112 S28 1.471126 1_545
O113 S29 1.509913 1_545
O114 S30 1.504337 1_545
O115 S31 1.504700 1_545
O116 S32 1.502337 1_555
O117 S33 1.502214 1_555
O118 S35 1.473896 1_555
O119 S34 1.477533 1_655
O120 S22 1.472152 1_555
O121 S23 1.469979 1_555
O122 S19 1.468708 1_455
O123 S18 1.472612 1_555
O124 S20 1.472978 1_565
O125 S21 1.468942 1_565
O126 S14 1.469339 1_565
O127 S15 1.475749 1_565
O128 S16 1.487542 1_555
O129 S17 1.483416 1_555
O130 S13 1.469020 1_455
O131 S12 1.504387 1_555
O132 S0 1.471058 1_565
O133 S1 1.472207 1_565
O134 S2 1.471548 1_555
O135 S3 1.471721 1_555
O136 S4 1.470927 1_455
O137 S5 1.471989 1_555
O138 S6 1.481165 1_555
O139 S7 1.487366 1_555
O140 S8 1.471200 1_455
O141 S9 1.475437 1_555
O142 S10 1.509078 1_565
O143 S11 1.468360 1_565
