# generated using pymatgen
data_Np(SiRh)2
_symmetry_space_group_name_H-M   'P 1'
_cell_length_a   4.04114863
_cell_length_b   4.04114890
_cell_length_c   5.85520250
_cell_angle_alpha   110.18731209
_cell_angle_beta   110.18732064
_cell_angle_gamma   90.00000145
_symmetry_Int_Tables_number   1
_chemical_formula_structural   Np(SiRh)2
_chemical_formula_sum   'Np1 Si2 Rh2'
_cell_volume   83.46016856
_cell_formula_units_Z   1
loop_
 _symmetry_equiv_pos_site_id
 _symmetry_equiv_pos_as_xyz
  1  'x, y, z'
loop_
 _atom_site_type_symbol
 _atom_site_label
 _atom_site_symmetry_multiplicity
 _atom_site_fract_x
 _atom_site_fract_y
 _atom_site_fract_z
 _atom_site_occupancy
  Np  Np0  1  -0.00000000  0.00000000  0.00000000  1
  Si  Si0  1  0.62388916  0.62388916  0.24777831  1
  Si  Si1  1  0.37611084  0.37611084  0.75222169  1
  Rh  Rh0  1  0.25000000  0.75000000  0.50000000  1
  Rh  Rh1  1  0.75000000  0.25000000  0.50000000  1
loop_
_geom_bond_atom_site_label_1
_geom_bond_atom_site_label_2
_geom_bond_distance
_geom_bond_site_symmetry_2
Np0 Si0 3.125529 1_545
Np0 Si1 3.125529 1_454
Np0 Si0 3.125529 1_445
Np0 Si1 3.125529 1_554
Np0 Si0 3.125529 1_555
Np0 Si1 3.125529 1_444
Np0 Si0 3.125529 1_455
Np0 Si1 3.125529 1_544
Np0 Rh1 3.257638 1_555
Np0 Rh0 3.257638 1_444
Np0 Rh1 3.257639 1_454
Np0 Rh0 3.257639 1_545
Np0 Rh1 3.257639 1_455
Np0 Rh0 3.257639 1_544
Np0 Rh1 3.257639 1_444
Np0 Rh0 3.257639 1_555
Si0 Si1 2.532578 1_554
Rh0 Si0 2.396713 1_455
Rh0 Si1 2.396713 1_555
Rh0 Si0 2.396713 1_555
Rh0 Si1 2.396713 1_565
Rh1 Si1 2.396713 1_655
Rh1 Si0 2.396713 1_555
Rh1 Si1 2.396713 1_555
Rh1 Si0 2.396713 1_545
