# generated using pymatgen
data_Na2Ca5Zr3(SO4)12
_symmetry_space_group_name_H-M   'P 1'
_cell_length_a   18.26112277
_cell_length_b   9.13161862
_cell_length_c   23.89315882
_cell_angle_alpha   90.06576233
_cell_angle_beta   89.99904853
_cell_angle_gamma   120.04357696
_symmetry_Int_Tables_number   1
_chemical_formula_structural   Na2Ca5Zr3(SO4)12
_chemical_formula_sum   'Na6 Ca15 Zr9 S36 O144'
_cell_volume   3448.96030330
_cell_formula_units_Z   3
loop_
 _symmetry_equiv_pos_site_id
 _symmetry_equiv_pos_as_xyz
  1  'x, y, z'
loop_
 _atom_site_type_symbol
 _atom_site_label
 _atom_site_symmetry_multiplicity
 _atom_site_fract_x
 _atom_site_fract_y
 _atom_site_fract_z
 _atom_site_occupancy
  Na  Na0  1  0.00077208  0.00076905  0.50128100  1
  Na  Na1  1  0.50357787  0.00579667  0.99718895  1
  Na  Na2  1  0.33471291  0.33572540  0.82888378  1
  Na  Na3  1  0.83179386  0.33076590  0.82999059  1
  Na  Na4  1  0.33165417  0.33366175  0.33994124  1
  Na  Na5  1  0.83481322  0.33212730  0.33320978  1
  Ca  Ca0  1  0.00139528  0.00152643  0.35495804  1
  Ca  Ca1  1  0.50064140  0.00031508  0.85333047  1
  Ca  Ca2  1  0.00025992  0.99991213  0.64835980  1
  Ca  Ca3  1  0.50267905  0.00315574  0.14809984  1
  Ca  Ca4  1  0.33013184  0.33013471  0.68249273  1
  Ca  Ca5  1  0.83644351  0.33667407  0.68360428  1
  Ca  Ca6  1  0.82978559  0.32986413  0.18284188  1
  Ca  Ca7  1  0.33110920  0.33150899  0.98080638  1
  Ca  Ca8  1  0.83550809  0.33537751  0.98316277  1
  Ca  Ca9  1  0.33543860  0.33658011  0.48501541  1
  Ca  Ca10  1  0.83155164  0.33020352  0.48367305  1
  Ca  Ca11  1  0.16286350  0.66148721  0.31050870  1
  Ca  Ca12  1  0.67085441  0.66990869  0.31050469  1
  Ca  Ca13  1  0.17062000  0.67206144  0.80892126  1
  Ca  Ca14  1  0.66280370  0.66173066  0.80836459  1
  Zr  Zr0  1  0.50097962  0.99852479  0.35610113  1
  Zr  Zr1  1  0.99904969  0.99915450  0.85200593  1
  Zr  Zr2  1  0.49983047  0.00008903  0.64944538  1
  Zr  Zr3  1  0.99625479  0.99794894  0.14841529  1
  Zr  Zr4  1  0.33599642  0.33586636  0.18459922  1
  Zr  Zr5  1  0.16465931  0.66683651  0.01795252  1
  Zr  Zr6  1  0.66843361  0.66655618  0.01802268  1
  Zr  Zr7  1  0.16633919  0.66522576  0.52065048  1
  Zr  Zr8  1  0.66704194  0.66833496  0.52141127  1
  S  S0  1  0.14774591  0.00804958  0.24664650  1
  S  S1  1  0.64483905  0.00390844  0.25281234  1
  S  S2  1  0.35651430  0.70560950  0.25017699  1
  S  S3  1  0.85683357  0.70888660  0.24977987  1
  S  S4  1  0.99775049  0.28637996  0.24932554  1
  S  S5  1  0.49607037  0.28679227  0.25065008  1
  S  S6  1  0.14559442  0.28645721  0.75239096  1
  S  S7  1  0.64588004  0.28701546  0.74936187  1
  S  S8  1  0.99796929  0.70858243  0.75222912  1
  S  S9  1  0.49730434  0.70831197  0.74934801  1
  S  S10  1  0.35688003  0.00512756  0.74955961  1
  S  S11  1  0.85615591  0.00421691  0.75206883  1
  S  S12  1  0.48361101  0.33233547  0.58327960  1
  S  S13  1  0.98352184  0.33468572  0.58077682  1
  S  S14  1  0.18401940  0.03275517  0.58027781  1
  S  S15  1  0.68247210  0.03298789  0.58370490  1
  S  S16  1  0.33390552  0.63558816  0.58349718  1
  S  S17  1  0.83255234  0.63150274  0.58061679  1
  S  S18  1  0.48067539  0.62331942  0.08198312  1
  S  S19  1  0.98375919  0.63470865  0.08353163  1
  S  S20  1  0.33106747  0.03877139  0.08210645  1
  S  S21  1  0.83276391  0.03226218  0.08321152  1
  S  S22  1  0.18617553  0.33394594  0.08489508  1
  S  S23  1  0.68423413  0.33597495  0.08017058  1
  S  S24  1  0.31117724  0.66824568  0.91847467  1
  S  S25  1  0.81267566  0.66947530  0.91495834  1
  S  S26  1  0.02296323  0.37529388  0.91539592  1
  S  S27  1  0.52185077  0.37674681  0.91803445  1
  S  S28  1  0.16431977  0.95441719  0.91535527  1
  S  S29  1  0.66672490  0.95563336  0.91821056  1
  S  S30  1  0.31287652  0.95697926  0.41451071  1
  S  S31  1  0.81107050  0.95539584  0.41835129  1
  S  S32  1  0.16775645  0.37800965  0.41795120  1
  S  S33  1  0.66518090  0.37495032  0.41524183  1
  S  S34  1  0.02166453  0.66623774  0.41805115  1
  S  S35  1  0.52200048  0.66811076  0.41508931  1
  O  O0  1  0.11622816  0.04473297  0.29763498  1
  O  O1  1  0.59521258  0.02100919  0.30287148  1
  O  O2  1  0.41164839  0.78635523  0.30093558  1
  O  O3  1  0.90801428  0.78927272  0.29958192  1
  O  O4  1  0.48063122  0.17466067  0.30087609  1
  O  O5  1  0.98715129  0.18559844  0.29940684  1
  O  O6  1  0.09714149  0.17325961  0.80325315  1
  O  O7  1  0.60687195  0.18646458  0.79987662  1
  O  O8  1  0.48614747  0.78620932  0.80001110  1
  O  O9  1  0.98954135  0.80550444  0.80316645  1
  O  O10  1  0.40687392  0.02678473  0.80018484  1
  O  O11  1  0.91311690  0.02131203  0.80310574  1
  O  O12  1  0.40459072  0.99201513  0.69862287  1
  O  O13  1  0.89547605  0.98640380  0.70154095  1
  O  O14  1  0.09787823  0.20834084  0.70159100  1
  O  O15  1  0.59125908  0.19103056  0.69849766  1
  O  O16  1  0.00668574  0.80421214  0.70157535  1
  O  O17  1  0.50397216  0.81739788  0.69856576  1
  O  O18  1  0.39512711  0.80413415  0.19994512  1
  O  O19  1  0.90476419  0.81784773  0.19833558  1
  O  O20  1  0.00447324  0.19001424  0.19811331  1
  O  O21  1  0.50628783  0.21054975  0.19997564  1
  O  O22  1  0.09313939  0.99027546  0.19730588  1
  O  O23  1  0.59708221  0.98585724  0.20172042  1
  O  O24  1  0.44932796  0.37162587  0.63219788  1
  O  O25  1  0.94966598  0.36723961  0.63172738  1
  O  O26  1  0.23392926  0.10038103  0.63125366  1
  O  O27  1  0.73651668  0.10158608  0.63266451  1
  O  O28  1  0.31433074  0.52809244  0.63253192  1
  O  O29  1  0.81610806  0.53097105  0.63133682  1
  O  O30  1  0.43699374  0.51289784  0.13360776  1
  O  O31  1  0.94957400  0.52764024  0.13268599  1
  O  O32  1  0.31936276  0.12564314  0.13333638  1
  O  O33  1  0.81448955  0.10067904  0.13287670  1
  O  O34  1  0.24444293  0.36431905  0.13436430  1
  O  O35  1  0.73330688  0.36701102  0.13157401  1
  O  O36  1  0.21982286  0.29727979  0.03531650  1
  O  O37  1  0.72503636  0.31032183  0.03139322  1
  O  O38  1  0.42780205  0.54428200  0.03332436  1
  O  O39  1  0.93136927  0.56746773  0.03367024  1
  O  O40  1  0.34438510  0.14253450  0.03300584  1
  O  O41  1  0.85233808  0.13894528  0.03388223  1
  O  O42  1  0.22474870  0.13896386  0.53109050  1
  O  O43  1  0.71654912  0.13641343  0.53360632  1
  O  O44  1  0.35274451  0.56704110  0.53373631  1
  O  O45  1  0.84385409  0.55084917  0.53098937  1
  O  O46  1  0.43138646  0.29573971  0.53314960  1
  O  O47  1  0.93082439  0.31080932  0.53157238  1
  O  O48  1  0.26215282  0.68023385  0.96987121  1
  O  O49  1  0.77090988  0.69246362  0.96701221  1
  O  O50  1  0.07650019  0.46111672  0.96804490  1
  O  O51  1  0.57649368  0.47404968  0.96894901  1
  O  O52  1  0.15354701  0.84584620  0.96729002  1
  O  O53  1  0.66070258  0.84780062  0.96964619  1
  O  O54  1  0.27413740  0.85295188  0.46567071  1
  O  O55  1  0.76227032  0.84588255  0.46884340  1
  O  O56  1  0.16201895  0.47308464  0.46859391  1
  O  O57  1  0.65168299  0.45483971  0.46609823  1
  O  O58  1  0.07652295  0.67939869  0.46813971  1
  O  O59  1  0.57381009  0.69382130  0.46657096  1
  O  O60  1  0.06095392  0.65007887  0.36671975  1
  O  O61  1  0.56124699  0.64486619  0.36567110  1
  O  O62  1  0.26163606  0.87889446  0.36481675  1
  O  O63  1  0.76328064  0.87608118  0.36750842  1
  O  O64  1  0.17588567  0.47380127  0.36704051  1
  O  O65  1  0.67700375  0.47552396  0.36542949  1
  O  O66  1  0.06284403  0.48017707  0.86703999  1
  O  O67  1  0.56131224  0.47211949  0.86751821  1
  O  O68  1  0.17761998  0.87688237  0.86653947  1
  O  O69  1  0.67450251  0.87486856  0.86797022  1
  O  O70  1  0.26317367  0.65134166  0.86822832  1
  O  O71  1  0.76046957  0.64411699  0.86620904  1
  O  O72  1  0.01640344  0.82267276  0.41823440  1
  O  O73  1  0.51494545  0.82733721  0.40726206  1
  O  O74  1  0.39892196  0.96937413  0.40570458  1
  O  O75  1  0.89463344  0.96693673  0.41884353  1
  O  O76  1  0.08978660  0.21056844  0.41818119  1
  O  O77  1  0.58511222  0.20236675  0.40691027  1
  O  O78  1  0.01723361  0.20620272  0.90961708  1
  O  O79  1  0.51648535  0.20988780  0.91927155  1
  O  O80  1  0.08564132  0.96561026  0.90963469  1
  O  O81  1  0.58856481  0.96644641  0.91947650  1
  O  O82  1  0.39455433  0.82394265  0.91993298  1
  O  O83  1  0.89754583  0.82791976  0.90866625  1
  O  O84  1  0.49692242  0.18582177  0.59510887  1
  O  O85  1  0.99715530  0.18966455  0.58585767  1
  O  O86  1  0.09768494  0.00479819  0.58541870  1
  O  O87  1  0.59604782  0.00700768  0.59540573  1
  O  O88  1  0.40778776  0.80850334  0.59551989  1
  O  O89  1  0.90462189  0.80421887  0.58575840  1
  O  O90  1  0.49185680  0.79209859  0.09062019  1
  O  O91  1  0.99739991  0.80874633  0.09575226  1
  O  O92  1  0.40315007  0.01311631  0.09090337  1
  O  O93  1  0.90759750  0.00753061  0.09506080  1
  O  O94  1  0.10139542  0.18781219  0.09874145  1
  O  O95  1  0.59745474  0.19013255  0.08509848  1
  O  O96  1  0.34804699  0.15603075  0.74275706  1
  O  O97  1  0.85139084  0.16116755  0.75205465  1
  O  O98  1  0.22912961  0.29717371  0.75246586  1
  O  O99  1  0.73014743  0.30454685  0.74214730  1
  O  O100  1  0.42185806  0.53942156  0.74232847  1
  O  O101  1  0.91958061  0.54178997  0.75225262  1
  O  O102  1  0.34974554  0.53042779  0.24260395  1
  O  O103  1  0.84817144  0.54086602  0.24247095  1
  O  O104  1  0.41532410  0.30077452  0.24305945  1
  O  O105  1  0.92237139  0.30385474  0.24199689  1
  O  O106  1  0.23521516  0.16443430  0.23469971  1
  O  O107  1  0.72817006  0.16035167  0.25270376  1
  O  O108  1  0.31941142  0.51707706  0.92506983  1
  O  O109  1  0.82572362  0.52452021  0.92326979  1
  O  O110  1  0.43748629  0.35871614  0.92442979  1
  O  O111  1  0.93789493  0.35083393  0.92401073  1
  O  O112  1  0.23715567  0.12419612  0.92399032  1
  O  O113  1  0.74228180  0.12459558  0.92462696  1
  O  O114  1  0.32774855  0.13003152  0.42158206  1
  O  O115  1  0.81952236  0.12368652  0.42422604  1
  O  O116  1  0.24338875  0.35916945  0.42335555  1
  O  O117  1  0.73672006  0.34660738  0.42262575  1
  O  O118  1  0.43575985  0.52432085  0.42203257  1
  O  O119  1  0.93697851  0.51554111  0.42369304  1
  O  O120  1  0.17772437  0.48713439  0.07620986  1
  O  O121  1  0.67650216  0.49242590  0.06916900  1
  O  O122  1  0.07048099  0.65705751  0.07056276  1
  O  O123  1  0.56490475  0.63513166  0.07554358  1
  O  O124  1  0.25187551  0.86954770  0.07454543  1
  O  O125  1  0.75853335  0.85929791  0.07128443  1
  O  O126  1  0.17662848  0.86079432  0.56898846  1
  O  O127  1  0.67036230  0.85792620  0.57122805  1
  O  O128  1  0.25917633  0.65885140  0.57091496  1
  O  O129  1  0.75338061  0.64770758  0.56941351  1
  O  O130  1  0.07049468  0.49189078  0.57013616  1
  O  O131  1  0.57021452  0.48335967  0.57016670  1
  O  O132  1  0.15822846  0.86118209  0.25045344  1
  O  O133  1  0.65191595  0.85447305  0.26127757  1
  O  O134  1  0.27245540  0.67871875  0.25931109  1
  O  O135  1  0.77514787  0.70050104  0.25065991  1
  O  O136  1  0.07550716  0.45013982  0.25029089  1
  O  O137  1  0.56653067  0.45463934  0.25992522  1
  O  O138  1  0.15301406  0.45062396  0.76090187  1
  O  O139  1  0.65004186  0.45031272  0.75084161  1
  O  O140  1  0.07247891  0.69351404  0.76098502  1
  O  O141  1  0.57492216  0.70032914  0.75067623  1
  O  O142  1  0.27511558  0.85006556  0.75065693  1
  O  O143  1  0.77411602  0.85514219  0.76097609  1
loop_
_geom_bond_atom_site_label_1
_geom_bond_atom_site_label_2
_geom_bond_distance
_geom_bond_site_symmetry_2
Na0 O86 2.666354 1_555
Na0 O72 2.668519 1_545
Na0 O75 2.670381 1_445
Na0 O76 2.673057 1_555
Na0 O85 2.677580 1_455
Na0 O89 2.689052 1_445
Na1 O81 2.557764 1_545
Na1 O79 2.561808 1_555
Na1 O82 2.609834 1_545
Na1 O95 2.699379 1_556
Na1 O90 2.903279 1_546
Na1 O92 2.916115 1_556
Na2 O98 2.548364 1_555
Na2 O100 2.704449 1_555
Na2 O96 2.716407 1_555
Na2 O110 2.895241 1_555
Na2 O108 2.925198 1_555
Na2 O112 2.938177 1_555
Na3 O97 2.557816 1_555
Na3 O101 2.578381 1_555
Na3 O99 2.731645 1_555
Na3 O113 2.873567 1_555
Na3 O109 2.880496 1_555
Na3 O111 2.911656 1_555
Na4 O116 2.645594 1_555
Na4 O114 2.672699 1_555
Na4 O118 2.677790 1_555
Na4 O102 2.856860 1_555
Na4 O104 2.870677 1_555
Na4 O106 3.013073 1_555
Na5 O107 2.624389 1_555
Na5 O105 2.790113 1_555
Na5 O119 2.796921 1_555
Na5 O115 2.812006 1_555
Na5 O103 2.817282 1_555
Na5 O117 2.833184 1_555
Ca0 O5 2.257794 1_455
Ca0 O3 2.258289 1_445
Ca0 O76 2.332251 1_555
Ca0 O72 2.341404 1_545
Ca0 O0 2.366763 1_555
Ca0 O75 2.369609 1_445
Ca1 O7 2.233133 1_555
Ca1 O8 2.234217 1_545
Ca1 O10 2.240096 1_555
Ca1 O79 2.380567 1_555
Ca1 O81 2.381124 1_545
Ca1 O82 2.400184 1_545
Ca2 O14 2.239439 1_565
Ca2 O16 2.244821 1_555
Ca2 O13 2.248358 1_455
Ca2 O85 2.310865 1_465
Ca2 O86 2.312863 1_565
Ca2 O89 2.312931 1_455
Ca3 O23 2.216169 1_545
Ca3 O21 2.235382 1_555
Ca3 O18 2.264016 1_545
Ca3 O95 2.285479 1_555
Ca3 O90 2.291770 1_545
Ca3 O92 2.311953 1_555
Ca4 O96 2.287806 1_555
Ca4 O26 2.300073 1_555
Ca4 O100 2.300101 1_555
Ca4 O28 2.302860 1_555
Ca4 O24 2.345346 1_555
Ca4 O98 2.394329 1_555
Ca5 O99 2.289345 1_555
Ca5 O25 2.304773 1_555
Ca5 O27 2.343340 1_555
Ca5 O29 2.347396 1_555
Ca5 O101 2.376796 1_555
Ca5 O97 2.400401 1_555
Ca6 O103 2.280578 1_555
Ca6 O33 2.300459 1_555
Ca6 O105 2.305555 1_555
Ca6 O35 2.306292 1_555
Ca6 O31 2.352002 1_555
Ca6 O107 2.399034 1_555
Ca7 O40 2.239644 1_556
Ca7 O38 2.242025 1_556
Ca7 O108 2.249048 1_555
Ca7 O112 2.261020 1_555
Ca7 O110 2.273138 1_555
Ca7 O36 2.299715 1_556
Ca8 O37 2.233457 1_556
Ca8 O111 2.291140 1_555
Ca8 O113 2.296063 1_555
Ca8 O39 2.300365 1_556
Ca8 O41 2.310315 1_556
Ca8 O109 2.318969 1_555
Ca9 O42 2.214993 1_555
Ca9 O46 2.277502 1_555
Ca9 O44 2.283042 1_555
Ca9 O116 2.320889 1_555
Ca9 O118 2.328267 1_555
Ca9 O114 2.366965 1_555
Ca10 O45 2.220303 1_555
Ca10 O47 2.224756 1_555
Ca10 O115 2.280604 1_555
Ca10 O43 2.291026 1_555
Ca10 O119 2.316781 1_555
Ca10 O117 2.325771 1_555
Ca11 O60 2.254780 1_555
Ca11 O134 2.282824 1_555
Ca11 O64 2.287312 1_555
Ca11 O136 2.291398 1_555
Ca11 O62 2.299349 1_555
Ca11 O132 2.356264 1_555
Ca12 O133 2.220744 1_555
Ca12 O63 2.249587 1_555
Ca12 O65 2.256224 1_555
Ca12 O137 2.280078 1_555
Ca12 O135 2.284265 1_555
Ca12 O61 2.310452 1_555
Ca13 O138 2.202790 1_555
Ca13 O140 2.216796 1_555
Ca13 O142 2.262893 1_555
Ca13 O68 2.272550 1_555
Ca13 O70 2.285002 1_555
Ca13 O66 2.329042 1_555
Ca14 O143 2.223261 1_555
Ca14 O141 2.273128 1_555
Ca14 O139 2.283393 1_555
Ca14 O67 2.285336 1_555
Ca14 O71 2.324800 1_555
Ca14 O69 2.332221 1_555
O0 S0 1.455938 1_555
O1 S1 1.554822 1_555
O1 Zr0 2.065815 1_545
O2 S2 1.510903 1_555
O2 Zr0 2.231963 1_555
O3 S3 1.462649 1_555
O4 S5 1.510572 1_555
O4 Zr0 2.251546 1_545
O5 S4 1.463019 1_555
O6 S6 1.554111 1_555
O6 Zr1 2.060523 1_445
O7 S7 1.467936 1_555
O8 S9 1.468312 1_555
O9 S8 1.556323 1_555
O9 Zr1 2.051028 1_555
O10 S10 1.467789 1_555
O11 S11 1.558960 1_555
O11 Zr1 2.046231 1_545
O12 S10 1.535803 1_565
O12 Zr2 2.069438 1_565
O13 S11 1.454647 1_565
O14 S6 1.454992 1_555
O15 S7 1.536976 1_555
O15 Zr2 2.069236 1_555
O16 S8 1.454621 1_455
O17 S9 1.536436 1_555
O17 Zr2 2.072945 1_565
O18 S2 1.454075 1_555
O19 S3 1.548448 1_555
O19 Zr3 2.042512 1_555
O20 S4 1.546730 1_455
O20 Zr3 2.059188 1_445
O21 S5 1.453834 1_555
O22 S0 1.499352 1_565
O22 Zr3 2.150354 1_455
O23 S1 1.460676 1_565
O24 S12 1.452828 1_555
O25 S13 1.461424 1_555
O26 S14 1.459527 1_555
O27 S15 1.454012 1_555
O28 S16 1.454389 1_555
O29 S17 1.458782 1_555
O30 S18 1.540103 1_555
O30 Zr4 2.125620 1_555
O31 S19 1.454791 1_555
O32 S20 1.529969 1_555
O32 Zr4 2.165268 1_555
O33 S21 1.454953 1_555
O34 S22 1.519847 1_555
O34 Zr4 2.176934 1_555
O35 S23 1.461760 1_555
O36 S22 1.448431 1_555
O37 S23 1.463701 1_555
O38 S18 1.450913 1_555
O39 S19 1.456623 1_555
O40 S20 1.450889 1_555
O41 S21 1.455998 1_555
O42 S14 1.468090 1_555
O43 S15 1.458127 1_555
O44 S16 1.462070 1_555
O45 S17 1.463293 1_555
O46 S12 1.461444 1_555
O47 S13 1.464615 1_555
O48 S24 1.555402 1_555
O48 Zr5 2.070391 1_556
O49 S25 1.527192 1_555
O49 Zr6 2.144905 1_556
O50 S26 1.543698 1_555
O50 Zr5 2.123515 1_556
O51 S27 1.541055 1_555
O51 Zr6 2.079393 1_556
O52 S28 1.539139 1_555
O52 Zr5 2.124906 1_556
O53 S29 1.544793 1_555
O53 Zr6 2.081713 1_556
O54 S30 1.492237 1_555
O54 Zr7 2.272765 1_555
O55 S31 1.536240 1_555
O55 Zr8 2.100405 1_555
O56 S32 1.522344 1_555
O56 Zr7 2.118519 1_555
O57 S33 1.499160 1_555
O57 Zr8 2.252255 1_555
O58 S34 1.526245 1_555
O58 Zr7 2.119896 1_555
O59 S35 1.496741 1_555
O59 Zr8 2.251037 1_555
O60 S34 1.465033 1_555
O61 S35 1.450724 1_555
O62 S30 1.457321 1_555
O63 S31 1.458428 1_555
O64 S32 1.462627 1_555
O65 S33 1.452771 1_555
O66 S26 1.444525 1_555
O67 S27 1.452089 1_555
O68 S28 1.446017 1_555
O69 S29 1.451863 1_555
O70 S24 1.448336 1_555
O71 S25 1.448292 1_555
O72 S34 1.478947 1_555
O73 S35 1.534233 1_555
O73 Zr0 2.099177 1_555
O74 S30 1.532314 1_555
O74 Zr0 2.110153 1_555
O75 S31 1.476058 1_555
O76 S32 1.478268 1_555
O77 S33 1.533991 1_555
O77 Zr0 2.104833 1_545
O78 S26 1.500642 1_555
O78 Zr1 2.223766 1_445
O79 S27 1.477407 1_555
O80 S28 1.496824 1_555
O80 Zr1 2.230739 1_455
O81 S29 1.479504 1_555
O82 S24 1.474155 1_555
O83 S25 1.507685 1_555
O83 Zr1 2.194565 1_555
O84 S12 1.501828 1_555
O84 Zr2 2.158732 1_555
O85 S13 1.470011 1_555
O86 S14 1.470669 1_555
O87 S15 1.500134 1_555
O87 Zr2 2.155753 1_555
O88 S16 1.503942 1_555
O88 Zr2 2.143919 1_565
O89 S17 1.468255 1_555
O90 S18 1.464179 1_555
O91 S19 1.508493 1_555
O91 Zr3 2.144748 1_555
O92 S20 1.463091 1_555
O93 S21 1.519141 1_555
O93 Zr3 2.096678 1_545
O94 S22 1.489752 1_555
O94 Zr3 2.184579 1_445
O95 S23 1.478464 1_555
O96 S10 1.474575 1_555
O97 S11 1.478699 1_555
O98 S6 1.478882 1_555
O99 S7 1.475358 1_555
O100 S9 1.475333 1_555
O101 S8 1.478434 1_555
O102 S2 1.551896 1_555
O102 Zr4 2.165184 1_555
O103 S3 1.471721 1_555
O104 S5 1.553053 1_555
O104 Zr4 2.148981 1_555
O105 S4 1.473401 1_555
O106 S0 1.545651 1_555
O106 Zr4 2.095231 1_555
O107 S1 1.476388 1_555
O108 S24 1.470144 1_555
O109 S25 1.471304 1_555
O110 S27 1.473070 1_555
O111 S26 1.469049 1_655
O112 S28 1.466196 1_545
O113 S29 1.474992 1_545
O114 S30 1.472801 1_545
O115 S31 1.472135 1_545
O116 S32 1.480465 1_555
O117 S33 1.464045 1_555
O118 S35 1.470262 1_555
O119 S34 1.474077 1_655
O120 S22 1.496837 1_555
O120 Zr5 2.254887 1_555
O121 S23 1.527390 1_555
O121 Zr6 2.069435 1_555
O122 S19 1.523840 1_455
O122 Zr5 2.095761 1_555
O123 S18 1.495002 1_555
O123 Zr6 2.236736 1_555
O124 S20 1.507841 1_565
O124 Zr5 2.198585 1_555
O125 S21 1.506153 1_565
O125 Zr6 2.125936 1_555
O126 S14 1.530873 1_565
O126 Zr7 2.053722 1_555
O127 S15 1.529122 1_565
O127 Zr8 2.075552 1_555
O128 S16 1.512672 1_555
O128 Zr7 2.102106 1_555
O129 S17 1.548583 1_555
O129 Zr8 2.033381 1_555
O130 S13 1.538090 1_455
O130 Zr7 2.048636 1_555
O131 S12 1.522574 1_555
O131 Zr8 2.085780 1_555
O132 S0 1.449452 1_565
O133 S1 1.448076 1_565
O134 S2 1.444599 1_555
O135 S3 1.454999 1_555
O136 S4 1.458320 1_455
O137 S5 1.441664 1_555
O138 S6 1.450156 1_555
O139 S7 1.454995 1_555
O140 S8 1.449674 1_455
O141 S9 1.455602 1_555
O142 S10 1.455381 1_565
O143 S11 1.449620 1_565
