# generated using pymatgen
data_Ga2NiP3H8NO14
_symmetry_space_group_name_H-M   'P 1'
_cell_length_a   8.32123986
_cell_length_b   8.32123986
_cell_length_c   8.90586766
_cell_angle_alpha   76.03648679
_cell_angle_beta   76.03648679
_cell_angle_gamma   74.63444777
_symmetry_Int_Tables_number   1
_chemical_formula_structural   Ga2NiP3H8NO14
_chemical_formula_sum   'Ga4 Ni2 P6 H16 N2 O28'
_cell_volume   566.59464691
_cell_formula_units_Z   2
loop_
 _symmetry_equiv_pos_site_id
 _symmetry_equiv_pos_as_xyz
  1  'x, y, z'
loop_
 _atom_site_type_symbol
 _atom_site_label
 _atom_site_symmetry_multiplicity
 _atom_site_fract_x
 _atom_site_fract_y
 _atom_site_fract_z
 _atom_site_occupancy
  Ga  Ga0  1  0.90293216  0.75523466  0.56896896  1
  Ga  Ga1  1  0.24476534  0.09706784  0.93103104  1
  Ga  Ga2  1  0.09706784  0.24476534  0.43103104  1
  Ga  Ga3  1  0.75523466  0.90293216  0.06896896  1
  Ni  Ni0  1  0.72341812  0.27658188  0.25000000  1
  Ni  Ni1  1  0.27658188  0.72341812  0.75000000  1
  P  P0  1  0.58436199  0.83616918  0.82204054  1
  P  P1  1  0.16383082  0.41563801  0.67795946  1
  P  P2  1  0.41563801  0.16383082  0.17795946  1
  P  P3  1  0.99814290  0.00185710  0.25000000  1
  P  P4  1  0.00185710  0.99814290  0.75000000  1
  P  P5  1  0.83616918  0.58436199  0.32204054  1
  H  H0  1  0.73147882  0.35749030  0.66264295  1
  H  H1  1  0.64250970  0.26852118  0.83735705  1
  H  H2  1  0.26852118  0.64250970  0.33735705  1
  H  H3  1  0.35749030  0.73147882  0.16264295  1
  H  H4  1  0.61274834  0.48220861  0.79262000  1
  H  H5  1  0.51779139  0.38725166  0.70738000  1
  H  H6  1  0.38725166  0.51779139  0.20738000  1
  H  H7  1  0.48220861  0.61274834  0.29262000  1
  H  H8  1  0.22549903  0.47811604  0.99260424  1
  H  H9  1  0.52188396  0.77450097  0.50739576  1
  H  H10  1  0.77450097  0.52188396  0.00739576  1
  H  H11  1  0.47811604  0.22549903  0.49260424  1
  H  H12  1  0.91833714  0.36693250  0.95688370  1
  H  H13  1  0.63306750  0.08166286  0.54311630  1
  H  H14  1  0.08166286  0.63306750  0.04311630  1
  H  H15  1  0.36693250  0.91833714  0.45688370  1
  N  N0  1  0.37297369  0.62702631  0.25000000  1
  N  N1  1  0.62702631  0.37297369  0.75000000  1
  O  O0  1  0.11442686  0.29751602  0.83764861  1
  O  O1  1  0.49807435  0.69913533  0.81619613  1
  O  O2  1  0.82677300  0.02650193  0.19994892  1
  O  O3  1  0.97349807  0.17322700  0.30005108  1
  O  O4  1  0.03335058  0.85250248  0.38505557  1
  O  O5  1  0.02650193  0.82677300  0.69994892  1
  O  O6  1  0.60203702  0.19491458  0.47895452  1
  O  O7  1  0.80508542  0.39796298  0.02104548  1
  O  O8  1  0.39796298  0.80508542  0.52104548  1
  O  O9  1  0.19491458  0.60203702  0.97895452  1
  O  O10  1  0.88557314  0.70248398  0.16235139  1
  O  O11  1  0.14749752  0.96664942  0.11494443  1
  O  O12  1  0.30086467  0.50192565  0.68380387  1
  O  O13  1  0.70248398  0.88557314  0.66235139  1
  O  O14  1  0.68747966  0.76647419  0.95469581  1
  O  O15  1  0.23352581  0.31252034  0.54530419  1
  O  O16  1  0.31252034  0.23352581  0.04530419  1
  O  O17  1  0.76647419  0.68747966  0.45469581  1
  O  O18  1  0.53438254  0.99255334  0.15451285  1
  O  O19  1  0.00744666  0.46561746  0.34548715  1
  O  O20  1  0.46561746  0.00744666  0.84548715  1
  O  O21  1  0.99255334  0.53438254  0.65451285  1
  O  O22  1  0.69913533  0.49807435  0.31619613  1
  O  O23  1  0.50192565  0.30086467  0.18380387  1
  O  O24  1  0.96664942  0.14749752  0.61494443  1
  O  O25  1  0.85250248  0.03335058  0.88505557  1
  O  O26  1  0.17322700  0.97349807  0.80005108  1
  O  O27  1  0.29751602  0.11442686  0.33764861  1
loop_
_geom_bond_atom_site_label_1
_geom_bond_atom_site_label_2
_geom_bond_distance
_geom_bond_site_symmetry_2
Ga0 O21 1.840142 1_555
Ga0 O13 1.859364 1_555
Ga0 O4 1.866404 1_655
Ga0 O17 1.953674 1_555
Ga0 O5 2.002684 1_655
Ga1 O20 1.840142 1_555
Ga1 O0 1.859364 1_555
Ga1 O11 1.866404 1_546
Ga1 O16 1.953674 1_556
Ga1 O26 2.002684 1_545
Ga2 O19 1.840142 1_555
Ga2 O27 1.859364 1_555
Ga2 O24 1.866404 1_455
Ga2 O15 1.953674 1_555
Ga2 O3 2.002684 1_455
Ga3 O18 1.840142 1_555
Ga3 O10 1.859364 1_555
Ga3 O25 1.866404 1_564
Ga3 O14 1.953674 1_554
Ga3 O2 2.002684 1_565
Ni0 O23 2.013678 1_555
Ni0 O22 2.013678 1_555
Ni0 O7 2.083450 1_555
Ni0 O6 2.083450 1_555
Ni0 O2 2.140794 1_555
Ni0 O3 2.140794 1_555
Ni1 O1 2.013678 1_555
Ni1 O12 2.013678 1_555
Ni1 O9 2.083450 1_555
Ni1 O8 2.083450 1_555
Ni1 O26 2.140794 1_555
Ni1 O5 2.140794 1_555
H0 N1 1.019812 1_555
H1 N1 1.019812 1_555
H2 N0 1.019812 1_555
H3 N0 1.019812 1_555
H4 N1 1.035338 1_555
H5 N1 1.035338 1_555
H6 N0 1.035338 1_555
H7 N0 1.035338 1_555
H8 O9 0.978892 1_555
H9 O8 0.978892 1_555
H10 O7 0.978892 1_555
H11 O6 0.978892 1_555
H12 O7 0.981664 1_556
H13 O6 0.981664 1_555
H14 O9 0.981664 1_554
H15 O8 0.981664 1_555
O0 P1 1.554047 1_555
O1 P0 1.516281 1_555
O2 P3 1.543348 1_555
O3 P3 1.543348 1_555
O4 P3 1.527350 1_465
O5 P4 1.543348 1_555
O10 P5 1.554047 1_555
O11 P3 1.527350 1_465
O12 P1 1.516281 1_555
O13 P0 1.554047 1_555
O14 P0 1.537270 1_555
O15 P1 1.537270 1_555
O16 P2 1.537270 1_555
O17 P5 1.537270 1_555
O18 P2 1.532641 1_565
O19 P5 1.532641 1_455
O20 P0 1.532641 1_545
O21 P1 1.532641 1_655
O22 P5 1.516281 1_555
O23 P2 1.516281 1_555
O24 P4 1.527350 1_645
O25 P4 1.527350 1_645
O26 P4 1.543348 1_555
O27 P2 1.554047 1_555
