# generated using pymatgen
data_PrMg(ReO4)2
_symmetry_space_group_name_H-M   'P 1'
_cell_length_a   6.48660125
_cell_length_b   6.50122704
_cell_length_c   6.00566404
_cell_angle_alpha   90.37867242
_cell_angle_beta   89.68908722
_cell_angle_gamma   121.50016832
_symmetry_Int_Tables_number   1
_chemical_formula_structural   PrMg(ReO4)2
_chemical_formula_sum   'Pr1 Mg1 Re2 O8'
_cell_volume   215.93742848
_cell_formula_units_Z   1
loop_
 _symmetry_equiv_pos_site_id
 _symmetry_equiv_pos_as_xyz
  1  'x, y, z'
loop_
 _atom_site_type_symbol
 _atom_site_label
 _atom_site_symmetry_multiplicity
 _atom_site_fract_x
 _atom_site_fract_y
 _atom_site_fract_z
 _atom_site_occupancy
  Pr  Pr0  1  0.99498800  0.00482500  0.97936700  1
  Mg  Mg0  1  0.55697900  0.44347300  0.11076600  1
  Re  Re0  1  0.31882200  0.68043700  0.32041100  1
  Re  Re1  1  0.68255100  0.31824600  0.67415400  1
  O  O0  1  0.17546800  0.82770400  0.21502800  1
  O  O1  1  0.21753700  0.37501500  0.19455600  1
  O  O2  1  0.32596400  0.66962900  0.60764100  1
  O  O3  1  0.40300900  0.19413400  0.85501900  1
  O  O4  1  0.62519900  0.78201200  0.19569000  1
  O  O5  1  0.66087500  0.34334200  0.37859100  1
  O  O6  1  0.80619900  0.59748700  0.85492200  1
  O  O7  1  0.83637600  0.15952800  0.73385600  1
loop_
_geom_bond_atom_site_label_1
_geom_bond_atom_site_label_2
_geom_bond_distance
_geom_bond_site_symmetry_2
Mg0 O5 1.987254 1_555
Mg0 O1 2.065485 1_555
Mg0 O4 2.066357 1_555
Mg0 O3 2.067886 1_554
Mg0 O6 2.068496 1_554
O0 Re0 1.768226 1_555
O0 Pr0 2.479483 1_464
O1 Re0 1.888894 1_555
O1 Pr0 2.427919 1_454
O2 Re0 1.728758 1_555
O3 Re1 1.892131 1_555
O3 Pr0 2.379922 1_455
O4 Re0 1.888286 1_555
O4 Pr0 2.428961 1_564
O5 Re1 1.796582 1_555
O6 Re1 1.891934 1_555
O6 Pr0 2.380338 1_565
O7 Re1 1.809311 1_555
O7 Pr0 2.315496 1_555
