# generated using pymatgen
data_MgMn6(O5F)2
_symmetry_space_group_name_H-M   'P 1'
_cell_length_a   8.32363836
_cell_length_b   5.78085609
_cell_length_c   5.89177396
_cell_angle_alpha   65.93033299
_cell_angle_beta   62.23808099
_cell_angle_gamma   63.49984792
_symmetry_Int_Tables_number   1
_chemical_formula_structural   MgMn6(O5F)2
_chemical_formula_sum   'Mg1 Mn6 O10 F2'
_cell_volume   217.22960575
_cell_formula_units_Z   1
loop_
 _symmetry_equiv_pos_site_id
 _symmetry_equiv_pos_as_xyz
  1  'x, y, z'
loop_
 _atom_site_type_symbol
 _atom_site_label
 _atom_site_symmetry_multiplicity
 _atom_site_fract_x
 _atom_site_fract_y
 _atom_site_fract_z
 _atom_site_occupancy
  Mg  Mg0  1  0.33914212  0.65657236  0.15389023  1
  Mn  Mn0  1  0.88161183  0.65306668  0.68794083  1
  Mn  Mn1  1  0.67467418  0.34708568  0.32330621  1
  Mn  Mn2  1  0.33443979  0.64614165  0.65271161  1
  Mn  Mn3  1  0.11474012  0.31037166  0.29315543  1
  Mn  Mn4  1  0.54285318  0.01533726  0.07305399  1
  Mn  Mn5  1  0.98623980  0.00002139  0.99061350  1
  O  O0  1  0.35629490  0.38246759  0.99673065  1
  O  O1  1  0.59955466  0.59594712  0.50891829  1
  O  O2  1  0.94699291  0.24871016  0.16968472  1
  O  O3  1  0.72218017  0.08470737  0.14845370  1
  O  O4  1  0.05398282  0.74017400  0.80614306  1
  O  O5  1  0.40257623  0.39744445  0.47274529  1
  O  O6  1  0.30058763  0.93530312  0.32544482  1
  O  O7  1  0.64494261  0.63894599  0.01936008  1
  O  O8  1  0.97508361  0.28672200  0.67542355  1
  O  O9  1  0.04115048  0.69136525  0.30121751  1
  F  F0  1  0.70854766  0.04634326  0.64713421  1
  F  F1  1  0.28181428  0.91850800  0.83740834  1
loop_
_geom_bond_atom_site_label_1
_geom_bond_atom_site_label_2
_geom_bond_distance
_geom_bond_site_symmetry_2
Mg0 O5 1.993668 1_555
Mg0 O0 2.064062 1_554
Mg0 O6 2.070208 1_555
Mg0 O9 2.153517 1_555
Mg0 O7 2.252213 1_555
Mn0 O8 1.923363 1_555
Mn0 O9 2.009006 1_655
Mn0 O7 2.032286 1_556
Mn0 O4 2.158408 1_655
Mn1 O1 1.870856 1_555
Mn1 O2 1.907548 1_555
Mn1 O7 1.921066 1_555
Mn1 O5 1.937128 1_555
Mn1 O3 1.969288 1_555
Mn2 O5 1.862379 1_555
Mn2 O1 1.886534 1_555
Mn2 O4 1.965878 1_555
Mn2 O0 2.010144 1_555
Mn2 O6 2.012024 1_555
Mn3 O8 1.973369 1_455
Mn3 O6 2.018629 1_545
Mn3 O9 2.020552 1_555
Mn3 O0 2.036964 1_554
Mn3 O2 2.051279 1_455
Mn4 O3 1.970635 1_555
Mn4 O6 1.992381 1_545
Mn4 O0 2.012169 1_554
Mn4 O7 2.053675 1_545
Mn5 O3 1.855360 1_556
Mn5 O8 1.927909 1_555
Mn5 O4 1.939214 1_645
Mn5 O2 1.945164 1_556
Mn5 O9 2.032119 1_646
F0 Mn1 2.024906 1_555
F0 Mn0 2.062955 1_545
F0 Mn4 2.204762 1_556
F1 Mg0 1.969375 1_556
F1 Mn2 2.047721 1_555
F1 Mn5 2.081637 1_465
