# generated using pymatgen
data_Cs3Sb5O14
_symmetry_space_group_name_H-M   'P 1'
_cell_length_a   7.46196700
_cell_length_b   7.47213000
_cell_length_c   25.90694400
_cell_angle_alpha   90.00000000
_cell_angle_beta   90.00000000
_cell_angle_gamma   90.00000000
_symmetry_Int_Tables_number   1
_chemical_formula_structural   Cs3Sb5O14
_chemical_formula_sum   'Cs12 Sb20 O56'
_cell_volume   1444.48797086
_cell_formula_units_Z   4
loop_
 _symmetry_equiv_pos_site_id
 _symmetry_equiv_pos_as_xyz
  1  'x, y, z'
loop_
 _atom_site_type_symbol
 _atom_site_label
 _atom_site_symmetry_multiplicity
 _atom_site_fract_x
 _atom_site_fract_y
 _atom_site_fract_z
 _atom_site_occupancy
  Cs  Cs0  1  0.50000000  0.13344000  0.88112600  1
  Cs  Cs1  1  0.50000000  0.86656000  0.11887400  1
  Cs  Cs2  1  0.50000000  0.63344000  0.61887400  1
  Cs  Cs3  1  0.50000000  0.36656000  0.38112600  1
  Cs  Cs4  1  0.00000000  0.14072500  0.78882000  1
  Cs  Cs5  1  0.00000000  0.85927500  0.21118000  1
  Cs  Cs6  1  0.00000000  0.64072500  0.71118000  1
  Cs  Cs7  1  0.00000000  0.35927500  0.28882000  1
  Cs  Cs8  1  0.50000000  0.23724300  0.51693700  1
  Cs  Cs9  1  0.50000000  0.76275700  0.48306300  1
  Cs  Cs10  1  0.50000000  0.73724300  0.98306300  1
  Cs  Cs11  1  0.50000000  0.26275700  0.01693600  1
  Sb  Sb0  1  0.25719000  0.85953200  0.35012900  1
  Sb  Sb1  1  0.25719000  0.14046800  0.64987100  1
  Sb  Sb2  1  0.74281000  0.35953200  0.14987100  1
  Sb  Sb3  1  0.74281000  0.64046800  0.85012900  1
  Sb  Sb4  1  0.74281000  0.14046800  0.64987100  1
  Sb  Sb5  1  0.74281000  0.85953200  0.35012900  1
  Sb  Sb6  1  0.25719000  0.64046800  0.85012900  1
  Sb  Sb7  1  0.25719000  0.35953200  0.14987100  1
  Sb  Sb8  1  0.50000000  0.38035600  0.75222100  1
  Sb  Sb9  1  0.50000000  0.61964400  0.24777900  1
  Sb  Sb10  1  0.50000000  0.88035600  0.74777900  1
  Sb  Sb11  1  0.50000000  0.11964400  0.25222100  1
  Sb  Sb12  1  0.00000000  0.40351700  0.94051100  1
  Sb  Sb13  1  0.00000000  0.59648300  0.05948900  1
  Sb  Sb14  1  0.00000000  0.90351700  0.55948900  1
  Sb  Sb15  1  0.00000000  0.09648300  0.44051100  1
  Sb  Sb16  1  0.00000000  0.42015200  0.55528600  1
  Sb  Sb17  1  0.00000000  0.57984800  0.44471400  1
  Sb  Sb18  1  0.00000000  0.92015200  0.94471400  1
  Sb  Sb19  1  0.00000000  0.07984800  0.05528600  1
  O  O0  1  0.00000000  0.08867900  0.66385600  1
  O  O1  1  0.00000000  0.91132100  0.33614400  1
  O  O2  1  0.00000000  0.58867900  0.83614400  1
  O  O3  1  0.00000000  0.41132100  0.16385600  1
  O  O4  1  0.23352700  0.53457300  0.08469100  1
  O  O5  1  0.23352700  0.46542700  0.91530900  1
  O  O6  1  0.76647300  0.03457300  0.41530900  1
  O  O7  1  0.76647300  0.96542700  0.58469100  1
  O  O8  1  0.76647300  0.46542700  0.91530900  1
  O  O9  1  0.76647300  0.53457300  0.08469100  1
  O  O10  1  0.23352700  0.96542700  0.58469100  1
  O  O11  1  0.23352700  0.03457300  0.41530900  1
  O  O12  1  0.00000000  0.16213600  0.91157700  1
  O  O13  1  0.00000000  0.83786400  0.08842300  1
  O  O14  1  0.00000000  0.66213600  0.58842300  1
  O  O15  1  0.00000000  0.33786400  0.41157700  1
  O  O16  1  0.50000000  0.16133600  0.62061500  1
  O  O17  1  0.50000000  0.83866400  0.37938500  1
  O  O18  1  0.50000000  0.66133600  0.87938500  1
  O  O19  1  0.50000000  0.33866400  0.12061500  1
  O  O20  1  0.30890900  0.57151900  0.19375400  1
  O  O21  1  0.29404800  0.67123500  0.29743400  1
  O  O22  1  0.30890900  0.42848100  0.80624600  1
  O  O23  1  0.69109100  0.92848100  0.69375400  1
  O  O24  1  0.69109100  0.42848100  0.80624600  1
  O  O25  1  0.69109100  0.57151900  0.19375400  1
  O  O26  1  0.30890900  0.92848100  0.69375400  1
  O  O27  1  0.30890900  0.07151900  0.30624600  1
  O  O28  1  0.17584700  0.50000000  0.50000000  1
  O  O29  1  0.82415300  0.00000000  0.00000000  1
  O  O30  1  0.82415300  0.50000000  0.50000000  1
  O  O31  1  0.17584700  0.00000000  0.00000000  1
  O  O32  1  0.50000000  0.37265500  0.27558500  1
  O  O33  1  0.50000000  0.62734500  0.72441500  1
  O  O34  1  0.50000000  0.87265500  0.22441500  1
  O  O35  1  0.50000000  0.12734500  0.77558500  1
  O  O36  1  0.00000000  0.34164200  0.01573100  1
  O  O37  1  0.00000000  0.65835800  0.98426900  1
  O  O38  1  0.00000000  0.84164200  0.48426900  1
  O  O39  1  0.00000000  0.15835800  0.51573100  1
  O  O40  1  0.20076400  0.16074200  0.09787500  1
  O  O41  1  0.20076400  0.83925800  0.90212500  1
  O  O42  1  0.79923600  0.66074200  0.40212500  1
  O  O43  1  0.79923600  0.33925800  0.59787500  1
  O  O44  1  0.79923600  0.83925800  0.90212500  1
  O  O45  1  0.79923600  0.16074200  0.09787500  1
  O  O46  1  0.20076400  0.33925800  0.59787500  1
  O  O47  1  0.20076400  0.66074200  0.40212500  1
  O  O48  1  0.29404800  0.17123500  0.20256600  1
  O  O49  1  0.29404800  0.82876500  0.79743400  1
  O  O50  1  0.70595200  0.67123500  0.29743400  1
  O  O51  1  0.70595200  0.32876500  0.70256600  1
  O  O52  1  0.70595200  0.82876500  0.79743400  1
  O  O53  1  0.70595200  0.17123500  0.20256600  1
  O  O54  1  0.29404800  0.32876500  0.70256600  1
  O  O55  1  0.69109100  0.07151900  0.30624600  1
loop_
_geom_bond_atom_site_label_1
_geom_bond_atom_site_label_2
_geom_bond_distance
_geom_bond_site_symmetry_2
Cs0 O35 2.734624 1_555
Cs1 O34 2.734624 1_555
Cs2 O33 2.734624 1_555
Cs3 O32 2.734624 1_555
Cs4 O12 3.184280 1_555
Cs4 O24 3.184384 1_455
Cs4 O22 3.184384 1_555
Cs4 O52 3.209018 1_445
Cs4 O49 3.209018 1_545
Cs4 O0 3.260710 1_555
Cs4 O51 3.432483 1_455
Cs4 O54 3.432483 1_555
Cs4 O2 3.564642 1_555
Cs5 O13 3.184280 1_555
Cs5 O20 3.184384 1_555
Cs5 O25 3.184384 1_455
Cs5 O53 3.209018 1_465
Cs5 O48 3.209018 1_565
Cs5 O1 3.260710 1_555
Cs5 O21 3.432483 1_555
Cs5 O50 3.432483 1_455
Cs5 O3 3.564642 1_555
Cs6 O14 3.184280 1_555
Cs6 O26 3.184384 1_555
Cs6 O23 3.184384 1_455
Cs6 O54 3.209018 1_555
Cs6 O51 3.209018 1_455
Cs6 O2 3.260710 1_555
Cs6 O52 3.432483 1_455
Cs6 O49 3.432483 1_555
Cs6 O0 3.564642 1_565
Cs7 O15 3.184280 1_555
Cs7 O55 3.184384 1_455
Cs7 O27 3.184384 1_555
Cs7 O21 3.209018 1_555
Cs7 O50 3.209018 1_455
Cs7 O3 3.260710 1_555
Cs7 O48 3.432483 1_555
Cs7 O53 3.432483 1_455
Cs7 O1 3.564642 1_545
Cs8 O16 2.745212 1_555
Cs8 O30 3.146105 1_555
Cs8 O28 3.146105 1_555
Cs8 O43 3.156526 1_555
Cs8 O46 3.156526 1_555
Cs8 O10 3.340659 1_545
Cs8 O7 3.340659 1_545
Cs8 O6 3.630307 1_555
Cs8 O11 3.630307 1_555
Cs9 O17 2.745212 1_555
Cs9 O30 3.146105 1_555
Cs9 O28 3.146105 1_555
Cs9 O42 3.156526 1_555
Cs9 O47 3.156526 1_555
Cs9 O11 3.340659 1_565
Cs9 O6 3.340659 1_565
Cs9 O10 3.630307 1_555
Cs9 O7 3.630307 1_555
Cs10 O18 2.745212 1_555
Cs10 O29 3.146105 1_566
Cs10 O31 3.146105 1_566
Cs10 O44 3.156526 1_555
Cs10 O41 3.156526 1_555
Cs10 O8 3.340659 1_555
Cs10 O5 3.340659 1_555
Cs10 O9 3.630307 1_556
Cs10 O4 3.630307 1_556
Cs11 O19 2.745238 1_555
Cs11 O29 3.146102 1_555
Cs11 O31 3.146102 1_555
Cs11 O45 3.156543 1_555
Cs11 O40 3.156543 1_555
Cs11 O9 3.340672 1_555
Cs11 O4 3.340672 1_555
Cs11 O5 3.630288 1_554
Cs11 O8 3.630288 1_554
O0 Sb1 1.991012 1_555
O0 Sb4 1.991012 1_455
O1 Sb0 1.991012 1_555
O1 Sb5 1.991012 1_455
O2 Sb6 1.991012 1_555
O2 Sb3 1.991012 1_455
O3 Sb7 1.991012 1_555
O3 Sb2 1.991012 1_455
O4 Sb13 1.917508 1_555
O4 Sb7 2.143193 1_555
O5 Sb12 1.917508 1_555
O5 Sb6 2.143193 1_555
O6 Sb15 1.917508 1_655
O6 Sb5 2.143193 1_545
O7 Sb14 1.917508 1_655
O7 Sb4 2.143193 1_565
O8 Sb12 1.917508 1_655
O8 Sb3 2.143193 1_555
O9 Sb13 1.917508 1_655
O9 Sb2 2.143193 1_555
O10 Sb14 1.917508 1_555
O10 Sb1 2.143193 1_565
O11 Sb15 1.917508 1_555
O11 Sb0 2.143193 1_545
O12 Sb12 1.953195 1_555
O12 Sb18 2.001585 1_545
O13 Sb13 1.953195 1_555
O13 Sb19 2.001585 1_565
O14 Sb14 1.953195 1_555
O14 Sb16 2.001585 1_555
O15 Sb15 1.953195 1_555
O15 Sb17 2.001585 1_555
O16 Sb4 1.970163 1_555
O16 Sb1 1.970163 1_555
O17 Sb5 1.970163 1_555
O17 Sb0 1.970163 1_555
O18 Sb3 1.970163 1_555
O18 Sb6 1.970163 1_555
O19 Sb2 1.970163 1_555
O19 Sb7 1.970163 1_555
O20 Sb7 1.987576 1_555
O20 Sb9 2.030144 1_555
O21 Sb0 1.979625 1_555
O21 Sb9 2.040890 1_555
O22 Sb6 1.987576 1_555
O22 Sb8 2.030144 1_555
O23 Sb4 1.987576 1_565
O23 Sb10 2.030144 1_555
O24 Sb3 1.987576 1_555
O24 Sb8 2.030144 1_555
O25 Sb2 1.987576 1_555
O25 Sb9 2.030144 1_555
O26 Sb1 1.987576 1_565
O26 Sb10 2.030144 1_555
O27 Sb0 1.987576 1_545
O27 Sb11 2.030144 1_555
O28 Sb16 2.032045 1_555
O28 Sb17 2.032045 1_555
O29 Sb18 2.032045 1_644
O29 Sb19 2.032045 1_655
O30 Sb16 2.032045 1_655
O30 Sb17 2.032045 1_655
O31 Sb18 2.032045 1_544
O31 Sb19 2.032045 1_555
O32 Sb9 1.981143 1_555
O32 Sb11 1.985065 1_555
O33 Sb8 1.981143 1_555
O33 Sb10 1.985065 1_555
O34 Sb11 1.981143 1_565
O34 Sb9 1.985065 1_555
O35 Sb10 1.981143 1_545
O35 Sb8 1.985065 1_555
O36 Sb12 2.002815 1_554
O36 Sb19 2.208318 1_555
O36 Sb13 2.216106 1_555
O37 Sb13 2.002815 1_556
O37 Sb18 2.208318 1_555
O37 Sb12 2.216106 1_555
O38 Sb14 2.002815 1_555
O38 Sb17 2.208318 1_555
O38 Sb15 2.216106 1_565
O39 Sb15 2.002815 1_555
O39 Sb16 2.208318 1_555
O39 Sb14 2.216106 1_545
O40 Sb19 1.956280 1_555
O40 Sb7 2.048954 1_555
O41 Sb18 1.956280 1_555
O41 Sb6 2.048954 1_555
O42 Sb17 1.956280 1_655
O42 Sb5 2.048954 1_555
O43 Sb16 1.956280 1_655
O43 Sb4 2.048954 1_555
O44 Sb18 1.956280 1_655
O44 Sb3 2.048954 1_555
O45 Sb19 1.956280 1_655
O45 Sb2 2.048954 1_555
O46 Sb16 1.956280 1_555
O46 Sb1 2.048954 1_555
O47 Sb17 1.956280 1_555
O47 Sb0 2.048954 1_555
O48 Sb7 1.979625 1_555
O48 Sb11 2.040890 1_555
O49 Sb6 1.979625 1_555
O49 Sb10 2.040890 1_555
O50 Sb5 1.979625 1_555
O50 Sb9 2.040890 1_555
O51 Sb4 1.979625 1_555
O51 Sb8 2.040890 1_555
O52 Sb3 1.979625 1_555
O52 Sb10 2.040890 1_555
O53 Sb2 1.979625 1_555
O53 Sb11 2.040890 1_555
O54 Sb1 1.979625 1_555
O54 Sb8 2.040890 1_555
O55 Sb5 1.987576 1_545
O55 Sb11 2.030144 1_555
