# generated using pymatgen
data_Na2InNiF7
_symmetry_space_group_name_H-M   'P 1'
_cell_length_a   7.42913300
_cell_length_b   7.59947600
_cell_length_c   10.42856300
_cell_angle_alpha   90.00000000
_cell_angle_beta   90.00000000
_cell_angle_gamma   90.00000000
_symmetry_Int_Tables_number   1
_chemical_formula_structural   Na2InNiF7
_chemical_formula_sum   'Na8 In4 Ni4 F28'
_cell_volume   588.77078260
_cell_formula_units_Z   4
loop_
 _symmetry_equiv_pos_site_id
 _symmetry_equiv_pos_as_xyz
  1  'x, y, z'
loop_
 _atom_site_type_symbol
 _atom_site_label
 _atom_site_symmetry_multiplicity
 _atom_site_fract_x
 _atom_site_fract_y
 _atom_site_fract_z
 _atom_site_occupancy
  Na  Na0  1  0.00000000  0.50000000  0.00000000  1
  Na  Na1  1  0.50000000  0.50000000  0.00000000  1
  Na  Na2  1  0.00000000  0.00000000  0.50000000  1
  Na  Na3  1  0.50000000  0.00000000  0.50000000  1
  Na  Na4  1  0.25000000  0.24722300  0.76876300  1
  Na  Na5  1  0.25000000  0.25277700  0.26876300  1
  Na  Na6  1  0.75000000  0.74722300  0.73123700  1
  Na  Na7  1  0.75000000  0.75277700  0.23123700  1
  In  In0  1  0.25000000  0.77244200  0.76801800  1
  In  In1  1  0.75000000  0.22755800  0.23198200  1
  In  In2  1  0.75000000  0.27244200  0.73198200  1
  In  In3  1  0.25000000  0.72755800  0.26801800  1
  Ni  Ni0  1  0.50000000  0.50000000  0.50000000  1
  Ni  Ni1  1  0.50000000  0.00000000  0.00000000  1
  Ni  Ni2  1  0.00000000  0.50000000  0.50000000  1
  Ni  Ni3  1  0.00000000  0.00000000  0.00000000  1
  F  F0  1  0.49479100  0.30323000  0.63125700  1
  F  F1  1  0.99479100  0.69677000  0.36874300  1
  F  F2  1  0.50520900  0.80323000  0.86874300  1
  F  F3  1  0.00520900  0.19677000  0.13125700  1
  F  F4  1  0.50520900  0.69677000  0.36874300  1
  F  F5  1  0.00520900  0.30323000  0.63125700  1
  F  F6  1  0.49479100  0.19677000  0.13125700  1
  F  F7  1  0.99479100  0.80323000  0.86874300  1
  F  F8  1  0.44840600  0.69229900  0.62875900  1
  F  F9  1  0.94840600  0.30770100  0.37124100  1
  F  F10  1  0.55159400  0.19229900  0.87124100  1
  F  F11  1  0.05159400  0.80770100  0.12875900  1
  F  F12  1  0.55159400  0.30770100  0.37124100  1
  F  F13  1  0.05159400  0.69229900  0.62875900  1
  F  F14  1  0.44840600  0.80770100  0.12875900  1
  F  F15  1  0.94840600  0.19229900  0.87124100  1
  F  F16  1  0.25000000  0.01718500  0.93058900  1
  F  F17  1  0.75000000  0.98281500  0.06941100  1
  F  F18  1  0.75000000  0.51718500  0.56941100  1
  F  F19  1  0.25000000  0.48281500  0.43058900  1
  F  F20  1  0.25000000  0.99715900  0.65321500  1
  F  F21  1  0.75000000  0.00284100  0.34678500  1
  F  F22  1  0.75000000  0.49715900  0.84678500  1
  F  F23  1  0.25000000  0.50284100  0.15321500  1
  F  F24  1  0.25000000  0.52453400  0.85988800  1
  F  F25  1  0.75000000  0.47546600  0.14011200  1
  F  F26  1  0.75000000  0.02453400  0.64011200  1
  F  F27  1  0.25000000  0.97546600  0.35988800  1
loop_
_geom_bond_atom_site_label_1
_geom_bond_atom_site_label_2
_geom_bond_distance
_geom_bond_site_symmetry_2
F0 Ni0 2.027619 1_555
F0 In2 2.180107 1_555
F0 Na4 2.354726 1_555
F0 Na3 2.680556 1_555
F1 Ni2 2.027619 1_655
F1 In3 2.180107 1_655
F1 Na7 2.354726 1_555
F1 Na2 2.680556 1_665
F2 Ni1 2.027619 1_566
F2 In0 2.180107 1_555
F2 Na6 2.354726 1_555
F2 Na1 2.680556 1_556
F3 Ni3 2.027619 1_555
F3 In1 2.180107 1_455
F3 Na5 2.354726 1_555
F3 Na0 2.680556 1_555
F4 Ni0 2.027619 1_555
F4 In3 2.180107 1_555
F4 Na7 2.354726 1_555
F4 Na3 2.680556 1_565
F5 Ni2 2.027619 1_555
F5 In2 2.180107 1_455
F5 Na4 2.354726 1_555
F5 Na2 2.680556 1_555
F6 Ni1 2.027619 1_555
F6 In1 2.180107 1_555
F6 Na5 2.354726 1_555
F6 Na1 2.680556 1_555
F7 Ni3 2.027619 1_666
F7 In0 2.180107 1_655
F7 Na6 2.354726 1_555
F7 Na0 2.680556 1_656
F8 Ni0 2.021277 1_555
F8 In0 2.157002 1_555
F8 Na6 2.517249 1_555
F8 Na3 2.723584 1_565
F9 Ni2 2.021277 1_655
F9 In1 2.157002 1_555
F9 Na5 2.517249 1_655
F9 Na2 2.723584 1_655
F10 Ni1 2.021277 1_556
F10 In2 2.157002 1_555
F10 Na4 2.517249 1_555
F10 Na1 2.723584 1_556
F11 Ni3 2.021277 1_565
F11 In3 2.157002 1_555
F11 Na7 2.517249 1_455
F11 Na0 2.723584 1_555
F12 Ni0 2.021277 1_555
F12 In1 2.157002 1_555
F12 Na5 2.517249 1_555
F12 Na3 2.723584 1_555
F13 Ni2 2.021277 1_555
F13 In0 2.157002 1_555
F13 Na6 2.517249 1_455
F13 Na2 2.723584 1_565
F14 Ni1 2.021277 1_565
F14 In3 2.157002 1_555
F14 Na7 2.517249 1_555
F14 Na1 2.723584 1_555
F15 Ni3 2.021277 1_656
F15 In2 2.157002 1_555
F15 Na4 2.517249 1_655
F15 Na0 2.723584 1_656
F16 Ni1 1.997630 1_556
F16 Ni3 1.997630 1_556
F16 Na4 2.429841 1_555
F16 In0 2.516668 1_545
F17 Ni3 1.997630 1_665
F17 Ni1 1.997630 1_565
F17 Na7 2.429841 1_555
F17 In1 2.516668 1_565
F18 Ni2 1.997630 1_655
F18 Ni0 1.997630 1_555
F18 Na6 2.429841 1_555
F18 In2 2.516668 1_555
F19 Ni2 1.997630 1_555
F19 Ni0 1.997630 1_555
F19 Na5 2.429841 1_555
F19 In3 2.516668 1_555
F20 In0 2.085595 1_555
F20 Na4 2.250194 1_565
F20 Na3 2.450096 1_565
F20 Na2 2.450096 1_565
F21 In1 2.085595 1_555
F21 Na7 2.250194 1_545
F21 Na2 2.450096 1_655
F21 Na3 2.450096 1_555
F22 In2 2.085595 1_555
F22 Na6 2.250194 1_555
F22 Na1 2.450096 1_556
F22 Na0 2.450096 1_656
F23 In3 2.085595 1_555
F23 Na5 2.250194 1_555
F23 Na0 2.450096 1_555
F23 Na1 2.450096 1_555
F24 In0 2.113587 1_555
F24 Na4 2.311771 1_555
F24 Na0 2.370500 1_556
F24 Na1 2.370500 1_556
F25 In1 2.113587 1_555
F25 Na7 2.311771 1_555
F25 Na0 2.370500 1_655
F25 Na1 2.370500 1_555
F26 In2 2.113587 1_555
F26 Na6 2.311771 1_545
F26 Na2 2.370500 1_655
F26 Na3 2.370500 1_555
F27 In3 2.113587 1_555
F27 Na5 2.311771 1_565
F27 Na3 2.370500 1_565
F27 Na2 2.370500 1_565
