# generated using pymatgen
data_MgTiZn(BiO3)2
_symmetry_space_group_name_H-M   'P 1'
_cell_length_a   3.59345231
_cell_length_b   3.94703976
_cell_length_c   11.58787889
_cell_angle_alpha   90.00000000
_cell_angle_beta   90.00000000
_cell_angle_gamma   90.00000000
_symmetry_Int_Tables_number   1
_chemical_formula_structural   MgTiZn(BiO3)2
_chemical_formula_sum   'Mg1 Ti1 Zn1 Bi2 O6'
_cell_volume   164.35667031
_cell_formula_units_Z   1
loop_
 _symmetry_equiv_pos_site_id
 _symmetry_equiv_pos_as_xyz
  1  'x, y, z'
loop_
 _atom_site_type_symbol
 _atom_site_label
 _atom_site_symmetry_multiplicity
 _atom_site_fract_x
 _atom_site_fract_y
 _atom_site_fract_z
 _atom_site_occupancy
  Mg  Mg0  1  0.50000000  0.00000000  0.66858578  1
  Ti  Ti0  1  0.50000000  0.50000000  0.85087075  1
  Zn  Zn0  1  0.50000000  0.50000000  0.23100992  1
  Bi  Bi0  1  0.00000000  0.00000000  0.43019990  1
  Bi  Bi1  1  0.00000000  0.00000000  0.04622218  1
  O  O0  1  0.50000000  0.50000000  0.68527121  1
  O  O1  1  0.00000000  0.50000000  0.33541802  1
  O  O2  1  0.50000000  0.00000000  0.84472207  1
  O  O3  1  0.50000000  0.00000000  0.19552594  1
  O  O4  1  0.50000000  0.50000000  0.04645842  1
  O  O5  1  0.00000000  0.50000000  0.89391580  1
loop_
_geom_bond_atom_site_label_1
_geom_bond_atom_site_label_2
_geom_bond_distance
_geom_bond_site_symmetry_2
Mg0 O0 1.982969 1_545
Mg0 O0 1.982969 1_555
Mg0 O2 2.041046 1_555
Bi0 O1 2.258559 1_545
Bi0 O1 2.258559 1_555
Bi1 O3 2.494297 1_455
Bi1 O3 2.494297 1_555
Bi1 O5 2.647580 1_544
Bi1 O5 2.647580 1_554
Bi1 O4 2.668897 1_555
Bi1 O4 2.668897 1_445
Bi1 O4 2.668897 1_545
Bi1 O4 2.668897 1_455
O0 Ti0 1.918947 1_555
O1 Zn0 2.166104 1_555
O1 Zn0 2.166104 1_455
O2 Ti0 1.974806 1_555
O2 Ti0 1.974806 1_545
O3 Zn0 2.015900 1_545
O3 Zn0 2.015900 1_555
O4 Zn0 2.138560 1_555
O4 Ti0 2.266446 1_554
O5 Ti0 1.864679 1_455
O5 Ti0 1.864679 1_555
