# generated using pymatgen
data_Na2Hf4Ga4Si3(S3O16)3
_symmetry_space_group_name_H-M   'P 1'
_cell_length_a   17.50790073
_cell_length_b   8.74341820
_cell_length_c   22.75884020
_cell_angle_alpha   89.74651470
_cell_angle_beta   90.69617787
_cell_angle_gamma   119.98717483
_symmetry_Int_Tables_number   1
_chemical_formula_structural   Na2Hf4Ga4Si3(S3O16)3
_chemical_formula_sum   'Na6 Hf12 Ga12 Si9 S27 O144'
_cell_volume   3017.30595579
_cell_formula_units_Z   3
loop_
 _symmetry_equiv_pos_site_id
 _symmetry_equiv_pos_as_xyz
  1  'x, y, z'
loop_
 _atom_site_type_symbol
 _atom_site_label
 _atom_site_symmetry_multiplicity
 _atom_site_fract_x
 _atom_site_fract_y
 _atom_site_fract_z
 _atom_site_occupancy
  Na  Na0  1  0.99616701  0.00546344  0.49988243  1
  Na  Na1  1  0.49675787  0.98910333  0.00378022  1
  Na  Na2  1  0.33027624  0.32648081  0.84144474  1
  Na  Na3  1  0.82668419  0.33003455  0.83452957  1
  Na  Na4  1  0.32923236  0.32485769  0.33304403  1
  Na  Na5  1  0.82314014  0.32296155  0.33746199  1
  Hf  Hf0  1  0.50994446  0.01351698  0.35669116  1
  Hf  Hf1  1  0.00345783  0.99821108  0.85905480  1
  Hf  Hf2  1  0.50528476  0.01941165  0.64475168  1
  Hf  Hf3  1  0.00474562  0.98973427  0.14529260  1
  Hf  Hf4  1  0.33744215  0.33498568  0.68645358  1
  Hf  Hf5  1  0.83312924  0.33572497  0.68714970  1
  Hf  Hf6  1  0.33451749  0.33193227  0.18846085  1
  Hf  Hf7  1  0.83371134  0.33307493  0.18984472  1
  Hf  Hf8  1  0.16389485  0.67521535  0.02388402  1
  Hf  Hf9  1  0.66059343  0.66371680  0.02440035  1
  Hf  Hf10  1  0.16124076  0.65964284  0.52282398  1
  Hf  Hf11  1  0.66414118  0.65554898  0.52127137  1
  Ga  Ga0  1  0.00313179  0.00009393  0.34823132  1
  Ga  Ga1  1  0.50450463  0.00747503  0.84978278  1
  Ga  Ga2  1  0.99605616  0.01186728  0.64665464  1
  Ga  Ga3  1  0.50112923  0.96664818  0.15050891  1
  Ga  Ga4  1  0.33158960  0.33169220  0.98322618  1
  Ga  Ga5  1  0.83336776  0.33987306  0.98588690  1
  Ga  Ga6  1  0.33628267  0.32964682  0.48028467  1
  Ga  Ga7  1  0.83249531  0.32683989  0.47888227  1
  Ga  Ga8  1  0.16747362  0.67636280  0.31005399  1
  Ga  Ga9  1  0.66827698  0.66248014  0.31279861  1
  Ga  Ga10  1  0.17106794  0.68549782  0.81889198  1
  Ga  Ga11  1  0.66473231  0.65424553  0.81131484  1
  Si  Si0  1  0.14579091  0.99677082  0.25594188  1
  Si  Si1  1  0.64506760  0.98466159  0.25160081  1
  Si  Si2  1  0.64612713  0.29577529  0.75554859  1
  Si  Si3  1  0.47576891  0.33448085  0.57975789  1
  Si  Si4  1  0.97143492  0.32112730  0.58173253  1
  Si  Si5  1  0.46993783  0.62273445  0.08070759  1
  Si  Si6  1  0.97380458  0.61552581  0.08119768  1
  Si  Si7  1  0.17785748  0.97047158  0.91648700  1
  Si  Si8  1  0.67639955  0.38876714  0.41487162  1
  S  S0  1  0.35215555  0.71232590  0.25136883  1
  S  S1  1  0.85477952  0.71547925  0.25199284  1
  S  S2  1  0.00333061  0.29150726  0.25372455  1
  S  S3  1  0.50284202  0.28691322  0.24830436  1
  S  S4  1  0.14330539  0.29767476  0.75100389  1
  S  S5  1  0.00493845  0.71835108  0.74889209  1
  S  S6  1  0.50149886  0.71280592  0.75393705  1
  S  S7  1  0.35173550  0.98923375  0.75242227  1
  S  S8  1  0.85302110  0.99255604  0.75085468  1
  S  S9  1  0.18611253  0.04764491  0.58217824  1
  S  S10  1  0.68972552  0.04652477  0.58127005  1
  S  S11  1  0.33417068  0.61939746  0.58135292  1
  S  S12  1  0.83843815  0.63089944  0.58307329  1
  S  S13  1  0.33929335  0.04774202  0.08344834  1
  S  S14  1  0.83456467  0.04949788  0.08135776  1
  S  S15  1  0.18958873  0.33169414  0.08128071  1
  S  S16  1  0.68620177  0.32481331  0.08133600  1
  S  S17  1  0.31566503  0.67217109  0.91306849  1
  S  S18  1  0.80803799  0.65750857  0.91591089  1
  S  S19  1  0.01940581  0.38199633  0.91478455  1
  S  S20  1  0.52126087  0.37358776  0.91437415  1
  S  S21  1  0.66785363  0.95955731  0.91467447  1
  S  S22  1  0.30870085  0.95814309  0.41610477  1
  S  S23  1  0.81748396  0.96155379  0.41454730  1
  S  S24  1  0.16792775  0.37567323  0.41544282  1
  S  S25  1  0.02100164  0.66854747  0.41417847  1
  S  S26  1  0.51650165  0.65631809  0.41622686  1
  O  O0  1  0.10201513  0.03907462  0.31180758  1
  O  O1  1  0.60057041  0.02714361  0.30767509  1
  O  O2  1  0.40823834  0.79242084  0.30382934  1
  O  O3  1  0.90977456  0.79133434  0.30552714  1
  O  O4  1  0.48383658  0.17435267  0.30167664  1
  O  O5  1  0.98235621  0.17585059  0.30627550  1
  O  O6  1  0.10224837  0.18087657  0.80288201  1
  O  O7  1  0.60173188  0.16469469  0.81143546  1
  O  O8  1  0.48118842  0.78723062  0.80607838  1
  O  O9  1  0.98860301  0.79965482  0.80149847  1
  O  O10  1  0.40776045  0.02634754  0.80561213  1
  O  O11  1  0.91104830  0.02626526  0.80307978  1
  O  O12  1  0.39363395  0.96771759  0.69937323  1
  O  O13  1  0.89266171  0.96268961  0.69775310  1
  O  O14  1  0.08971434  0.21392431  0.69710741  1
  O  O15  1  0.58655352  0.20133947  0.69620412  1
  O  O16  1  0.01573759  0.82635200  0.69590027  1
  O  O17  1  0.51064649  0.81300903  0.69976181  1
  O  O18  1  0.38936285  0.81972353  0.19755504  1
  O  O19  1  0.89669889  0.82401432  0.19912338  1
  O  O20  1  0.01256793  0.20891509  0.19985283  1
  O  O21  1  0.51060325  0.20049371  0.19523636  1
  O  O22  1  0.08673697  0.97185562  0.19623860  1
  O  O23  1  0.58741855  0.96256682  0.19231662  1
  O  O24  1  0.43047022  0.36139224  0.63933876  1
  O  O25  1  0.93123888  0.35684741  0.64074794  1
  O  O26  1  0.24145642  0.12848453  0.63589742  1
  O  O27  1  0.74328789  0.12883164  0.63558479  1
  O  O28  1  0.31548172  0.50576520  0.63485446  1
  O  O29  1  0.82039863  0.51850746  0.63643630  1
  O  O30  1  0.42972558  0.50516538  0.13920368  1
  O  O31  1  0.92867926  0.49593612  0.13871753  1
  O  O32  1  0.31970755  0.12391079  0.13553265  1
  O  O33  1  0.81545058  0.12438285  0.13354443  1
  O  O34  1  0.24332501  0.35768088  0.13499964  1
  O  O35  1  0.74187456  0.35553449  0.13410069  1
  O  O36  1  0.22526650  0.29226791  0.02925743  1
  O  O37  1  0.72434249  0.29052725  0.02788904  1
  O  O38  1  0.41180490  0.52852980  0.02184498  1
  O  O39  1  0.91554451  0.53365186  0.02177827  1
  O  O40  1  0.35091294  0.15253578  0.02997281  1
  O  O41  1  0.84650421  0.15394346  0.02716907  1
  O  O42  1  0.22391852  0.15908223  0.52969853  1
  O  O43  1  0.72610254  0.15918525  0.52962470  1
  O  O44  1  0.34613048  0.53737104  0.52869553  1
  O  O45  1  0.85154474  0.55028309  0.53069705  1
  O  O46  1  0.41221295  0.29701498  0.52385490  1
  O  O47  1  0.91102016  0.29523786  0.52404399  1
  O  O48  1  0.27566401  0.69844280  0.96598083  1
  O  O49  1  0.76999041  0.68758466  0.96900069  1
  O  O50  1  0.07493769  0.45683920  0.96771668  1
  O  O51  1  0.57825676  0.45678479  0.96775936  1
  O  O52  1  0.15731754  0.84251322  0.97250581  1
  O  O53  1  0.65740292  0.85046085  0.96790054  1
  O  O54  1  0.26846276  0.85263708  0.46981361  1
  O  O55  1  0.77778780  0.85742796  0.46860370  1
  O  O56  1  0.15763559  0.46391742  0.46879112  1
  O  O57  1  0.65975037  0.47550456  0.47315155  1
  O  O58  1  0.07757568  0.69865078  0.46835124  1
  O  O59  1  0.57213053  0.68971594  0.46967046  1
  O  O60  1  0.06308299  0.63982450  0.36307325  1
  O  O61  1  0.55611894  0.62603856  0.36425125  1
  O  O62  1  0.25251952  0.87291429  0.36372275  1
  O  O63  1  0.76218915  0.88043881  0.36186738  1
  O  O64  1  0.18187995  0.48516755  0.36280529  1
  O  O65  1  0.68784636  0.50862421  0.35716239  1
  O  O66  1  0.06061829  0.49049764  0.86172032  1
  O  O67  1  0.56276572  0.48629640  0.86257690  1
  O  O68  1  0.19105003  0.88415824  0.85695756  1
  O  O69  1  0.68152160  0.87815472  0.86202938  1
  O  O70  1  0.25876027  0.63976916  0.85945182  1
  O  O71  1  0.75408906  0.63503517  0.86300698  1
  O  O72  1  0.01233371  0.82938742  0.41021880  1
  O  O73  1  0.50492090  0.81185515  0.41001554  1
  O  O74  1  0.39615429  0.97724819  0.40915285  1
  O  O75  1  0.90746129  0.97799039  0.40875527  1
  O  O76  1  0.08664687  0.20048699  0.41216871  1
  O  O77  1  0.58675178  0.19725964  0.40912160  1
  O  O78  1  0.00948345  0.20325553  0.90672092  1
  O  O79  1  0.51272575  0.19506317  0.91009673  1
  O  O80  1  0.08908226  0.98672537  0.90646675  1
  O  O81  1  0.58571410  0.97058459  0.91127024  1
  O  O82  1  0.40488553  0.83656885  0.90603789  1
  O  O83  1  0.89726397  0.81581577  0.90797748  1
  O  O84  1  0.48301138  0.15861972  0.59026740  1
  O  O85  1  0.98623151  0.15020820  0.58963817  1
  O  O86  1  0.09689302  0.01998834  0.59115690  1
  O  O87  1  0.59982188  0.01755301  0.59096429  1
  O  O88  1  0.41251147  0.79006166  0.59228813  1
  O  O89  1  0.91985806  0.80448310  0.59265469  1
  O  O90  1  0.48164369  0.81958308  0.08635786  1
  O  O91  1  0.98336162  0.80854830  0.08969862  1
  O  O92  1  0.41939169  0.03555412  0.09273878  1
  O  O93  1  0.91282820  0.03534515  0.09101303  1
  O  O94  1  0.09968781  0.18203630  0.09039361  1
  O  O95  1  0.59697080  0.17635592  0.08791374  1
  O  O96  1  0.34093057  0.14967283  0.74488983  1
  O  O97  1  0.84660158  0.15606058  0.74426393  1
  O  O98  1  0.23211545  0.31325555  0.74475782  1
  O  O99  1  0.74371579  0.31411844  0.74666285  1
  O  O100  1  0.42065546  0.53008092  0.74717800  1
  O  O101  1  0.92346842  0.54120780  0.74413339  1
  O  O102  1  0.34506719  0.53490064  0.24441122  1
  O  O103  1  0.84699095  0.53746753  0.24492712  1
  O  O104  1  0.42204902  0.30716802  0.24406957  1
  O  O105  1  0.92433127  0.31482092  0.24685004  1
  O  O106  1  0.24296698  0.17331308  0.24641137  1
  O  O107  1  0.74282746  0.16397761  0.24401805  1
  O  O108  1  0.32574706  0.51494981  0.91813548  1
  O  O109  1  0.81681542  0.49712411  0.92087072  1
  O  O110  1  0.43450222  0.35763453  0.92104764  1
  O  O111  1  0.92977035  0.35786379  0.92070596  1
  O  O112  1  0.26214205  0.16740293  0.92641869  1
  O  O113  1  0.74756060  0.13921919  0.92280676  1
  O  O114  1  0.31549147  0.13590624  0.42092343  1
  O  O115  1  0.82749862  0.14038055  0.42007118  1
  O  O116  1  0.24805859  0.35655655  0.42382109  1
  O  O117  1  0.76209230  0.36140043  0.42486413  1
  O  O118  1  0.42618598  0.49788928  0.42267834  1
  O  O119  1  0.93422447  0.51011209  0.42160230  1
  O  O120  1  0.18462405  0.49306651  0.07316788  1
  O  O121  1  0.68338119  0.49144915  0.07263930  1
  O  O122  1  0.07068662  0.63451155  0.07510432  1
  O  O123  1  0.56851873  0.64549740  0.07071324  1
  O  O124  1  0.26159425  0.86750547  0.07637359  1
  O  O125  1  0.75652023  0.86992896  0.07280561  1
  O  O126  1  0.18179078  0.87470879  0.57482087  1
  O  O127  1  0.68462169  0.87587683  0.57452504  1
  O  O128  1  0.25625390  0.64243336  0.57399733  1
  O  O129  1  0.76230089  0.65838058  0.57676097  1
  O  O130  1  0.06969966  0.49427720  0.57134785  1
  O  O131  1  0.57173548  0.50854032  0.57520438  1
  O  O132  1  0.15350046  0.82163093  0.26134228  1
  O  O133  1  0.65483300  0.81402291  0.26483571  1
  O  O134  1  0.26316955  0.68490980  0.25955421  1
  O  O135  1  0.76712813  0.69497262  0.25625302  1
  O  O136  1  0.08288435  0.46301817  0.26224688  1
  O  O137  1  0.58021120  0.46147452  0.25646165  1
  O  O138  1  0.15265983  0.47175672  0.76054001  1
  O  O139  1  0.65436641  0.48673570  0.76133243  1
  O  O140  1  0.08168692  0.69562043  0.75760768  1
  O  O141  1  0.58010201  0.69745384  0.76217744  1
  O  O142  1  0.26455825  0.83090151  0.75748652  1
  O  O143  1  0.76539789  0.84150948  0.75957606  1
loop_
_geom_bond_atom_site_label_1
_geom_bond_atom_site_label_2
_geom_bond_distance
_geom_bond_site_symmetry_2
Na0 O85 2.460945 1_555
Na0 O75 2.514787 1_545
Na0 O76 2.597822 1_655
Na0 O89 2.649481 1_545
Na0 O72 2.663047 1_645
Na0 O86 2.670334 1_655
Na1 O90 2.322566 1_555
Na1 O95 2.549491 1_565
Na1 O92 2.592774 1_565
Na1 O82 2.666321 1_554
Na1 O81 2.686894 1_554
Na1 O79 2.710028 1_564
Na2 O112 2.339076 1_555
Na2 O108 2.434660 1_555
Na2 O110 2.472515 1_555
Na2 O100 2.740166 1_555
Na2 O98 2.742398 1_555
Na2 O96 2.753507 1_555
Na3 O99 2.420373 1_555
Na3 O109 2.512266 1_555
Na3 O113 2.542956 1_555
Na3 O111 2.577287 1_555
Na3 O97 2.689058 1_555
Na3 O101 2.727010 1_555
Na4 O106 2.423740 1_555
Na4 O114 2.524390 1_555
Na4 O118 2.589936 1_555
Na4 O116 2.614384 1_555
Na4 O102 2.643946 1_555
Na4 O104 2.664404 1_555
Na5 O117 2.372507 1_555
Na5 O115 2.486106 1_555
Na5 O107 2.536106 1_555
Na5 O119 2.623557 1_555
Na5 O103 2.707519 1_555
Na5 O105 2.759110 1_555
Hf0 O1 1.905003 1_555
Hf0 O77 1.905670 1_555
Hf0 O4 2.089787 1_555
Hf0 O73 2.101934 1_545
Hf0 O2 2.209694 1_545
Hf0 O74 2.217662 1_545
Hf1 O80 1.879348 1_555
Hf1 O78 2.056074 1_565
Hf1 O83 2.076157 1_455
Hf1 O9 2.087566 1_455
Hf1 O6 2.109757 1_565
Hf1 O11 2.155109 1_465
Hf2 O84 1.902757 1_555
Hf2 O15 1.907761 1_555
Hf2 O87 2.077159 1_555
Hf2 O12 2.177538 1_545
Hf2 O88 2.191646 1_545
Hf2 O17 2.231489 1_545
Hf3 O22 1.900453 1_555
Hf3 O91 1.914166 1_455
Hf3 O94 2.095059 1_565
Hf3 O19 2.116496 1_455
Hf3 O93 2.205390 1_465
Hf3 O20 2.233330 1_565
Hf4 O24 1.876216 1_555
Hf4 O28 2.074590 1_555
Hf4 O26 2.084774 1_555
Hf4 O100 2.104753 1_555
Hf4 O96 2.115566 1_555
Hf4 O98 2.214584 1_555
Hf5 O25 1.955779 1_555
Hf5 O99 2.018532 1_555
Hf5 O27 2.062363 1_555
Hf5 O29 2.066244 1_555
Hf5 O101 2.131107 1_555
Hf5 O97 2.134898 1_555
Hf6 O30 1.958577 1_555
Hf6 O106 2.011248 1_555
Hf6 O104 2.068641 1_555
Hf6 O32 2.089673 1_555
Hf6 O34 2.095196 1_555
Hf6 O102 2.119325 1_555
Hf7 O31 1.952389 1_555
Hf7 O107 1.979344 1_555
Hf7 O103 2.101593 1_555
Hf7 O105 2.104070 1_555
Hf7 O35 2.120654 1_555
Hf7 O33 2.121574 1_555
Hf8 O122 1.900156 1_555
Hf8 O52 1.915768 1_554
Hf8 O124 2.067123 1_555
Hf8 O120 2.116189 1_555
Hf8 O50 2.169330 1_554
Hf8 O48 2.295679 1_554
Hf9 O123 1.875663 1_555
Hf9 O121 2.051477 1_555
Hf9 O125 2.056883 1_555
Hf9 O51 2.093237 1_554
Hf9 O53 2.096045 1_554
Hf9 O49 2.226763 1_554
Hf10 O130 1.895054 1_555
Hf10 O58 2.061658 1_555
Hf10 O128 2.085135 1_555
Hf10 O56 2.086516 1_555
Hf10 O126 2.097346 1_555
Hf10 O54 2.167373 1_555
Hf11 O57 1.890932 1_555
Hf11 O131 1.931779 1_555
Hf11 O129 2.110442 1_555
Hf11 O59 2.120241 1_555
Hf11 O127 2.151324 1_555
Hf11 O55 2.244969 1_555
Ga0 O0 1.800857 1_555
Ga0 O3 1.985604 1_445
Ga0 O5 1.985669 1_455
Ga0 O72 2.111907 1_545
Ga0 O75 2.114344 1_445
Ga0 O76 2.176065 1_555
Ga1 O7 1.798712 1_555
Ga1 O8 2.021276 1_545
Ga1 O10 2.035499 1_555
Ga1 O82 2.084748 1_545
Ga1 O79 2.091464 1_555
Ga1 O81 2.118945 1_545
Ga2 O85 1.834437 1_555
Ga2 O13 2.020615 1_545
Ga2 O89 2.034651 1_545
Ga2 O14 2.050562 1_655
Ga2 O16 2.130519 1_645
Ga2 O86 2.155283 1_655
Ga3 O23 1.790984 1_555
Ga3 O90 1.862100 1_555
Ga3 O18 2.037574 1_555
Ga3 O21 2.217985 1_565
Ga3 O92 2.224554 1_565
Ga3 O95 2.273000 1_565
Ga4 O38 1.809448 1_556
Ga4 O112 1.856241 1_555
Ga4 O36 2.020956 1_556
Ga4 O40 2.050930 1_556
Ga4 O108 2.216187 1_555
Ga4 O110 2.225085 1_555
Ga5 O39 1.776181 1_556
Ga5 O41 1.983273 1_556
Ga5 O37 1.990206 1_556
Ga5 O109 2.129254 1_555
Ga5 O113 2.175116 1_555
Ga5 O111 2.206224 1_555
Ga6 O46 1.782287 1_555
Ga6 O118 2.019617 1_555
Ga6 O114 2.054042 1_555
Ga6 O44 2.059698 1_555
Ga6 O116 2.098790 1_555
Ga6 O42 2.113083 1_555
Ga7 O47 1.834596 1_555
Ga7 O117 1.858560 1_555
Ga7 O43 2.063975 1_555
Ga7 O115 2.081084 1_555
Ga7 O119 2.150446 1_555
Ga7 O45 2.162899 1_555
Ga8 O132 1.787094 1_555
Ga8 O134 2.013572 1_555
Ga8 O136 2.018416 1_555
Ga8 O62 2.019611 1_555
Ga8 O60 2.089246 1_555
Ga8 O64 2.167003 1_555
Ga9 O133 1.815293 1_555
Ga9 O65 1.840312 1_555
Ga9 O135 2.071592 1_555
Ga9 O137 2.091207 1_555
Ga9 O63 2.103402 1_555
Ga9 O61 2.180791 1_555
Ga10 O68 1.813422 1_555
Ga10 O70 1.986214 1_555
Ga10 O142 2.051400 1_555
Ga10 O66 2.081290 1_555
Ga10 O140 2.118097 1_555
Ga10 O138 2.183924 1_555
Ga11 O139 1.793332 1_555
Ga11 O71 2.018898 1_555
Ga11 O141 2.025912 1_555
Ga11 O67 2.029637 1_555
Ga11 O143 2.079034 1_555
Ga11 O69 2.165135 1_555
O0 Si0 1.628492 1_545
O1 Si1 1.640473 1_545
O2 S0 1.473630 1_555
O3 S1 1.480438 1_555
O4 S3 1.492202 1_555
O5 S2 1.488835 1_655
O6 S4 1.493242 1_555
O7 Si2 1.629756 1_555
O8 S6 1.485423 1_555
O9 S5 1.496546 1_655
O10 S7 1.479621 1_545
O11 S8 1.485315 1_545
O12 S7 1.480752 1_555
O13 S8 1.488202 1_555
O14 S4 1.488067 1_555
O15 Si2 1.645768 1_555
O16 S5 1.482887 1_555
O17 S6 1.472554 1_555
O18 S0 1.484537 1_555
O19 S1 1.483962 1_555
O20 S2 1.476568 1_555
O21 S3 1.470644 1_555
O22 Si0 1.645004 1_555
O23 Si1 1.628124 1_555
O24 Si3 1.654858 1_555
O25 Si4 1.625782 1_555
O26 S9 1.492458 1_555
O27 S10 1.493466 1_555
O28 S11 1.500273 1_555
O29 S12 1.492953 1_555
O30 Si5 1.616155 1_555
O31 Si6 1.618165 1_555
O32 S13 1.487068 1_555
O33 S14 1.478818 1_555
O34 S15 1.480634 1_555
O35 S16 1.475461 1_555
O36 S15 1.465493 1_555
O37 S16 1.496145 1_555
O38 Si5 1.627146 1_555
O39 Si6 1.620735 1_555
O40 S13 1.473744 1_555
O41 S14 1.484618 1_555
O42 S9 1.475887 1_555
O43 S10 1.462290 1_555
O44 S11 1.469095 1_555
O45 S12 1.464980 1_555
O46 Si3 1.602845 1_555
O47 Si4 1.619679 1_555
O48 S17 1.475512 1_555
O49 S18 1.473179 1_555
O50 S19 1.472161 1_555
O51 S20 1.501285 1_555
O52 Si7 1.613318 1_555
O53 S21 1.493807 1_555
O54 S22 1.484163 1_555
O55 S23 1.484519 1_555
O56 S24 1.501499 1_555
O57 Si8 1.630545 1_555
O58 S25 1.510964 1_555
O59 S26 1.484359 1_555
O60 S25 1.472085 1_555
O61 S26 1.468580 1_555
O62 S22 1.480105 1_555
O63 S23 1.473309 1_555
O64 S24 1.474627 1_555
O65 Si8 1.627166 1_555
O66 S19 1.485224 1_555
O67 S20 1.477688 1_555
O68 Si7 1.627672 1_555
O69 S21 1.477883 1_555
O70 S17 1.501077 1_555
O71 S18 1.472881 1_555
O72 S25 1.490196 1_555
O73 S26 1.477741 1_555
O74 S22 1.465357 1_555
O75 S23 1.515988 1_555
O76 S24 1.482017 1_555
O77 Si8 1.629167 1_555
O78 S19 1.495526 1_555
O79 S20 1.495357 1_555
O80 Si7 1.643121 1_555
O81 S21 1.489708 1_555
O82 S17 1.513724 1_555
O83 S18 1.493997 1_555
O84 Si3 1.621262 1_555
O85 Si4 1.648103 1_555
O86 S9 1.473079 1_555
O87 S10 1.483164 1_555
O88 S11 1.455654 1_555
O89 S12 1.488543 1_555
O90 Si5 1.633874 1_555
O91 Si6 1.622807 1_555
O92 S13 1.471270 1_555
O93 S14 1.450194 1_555
O94 S15 1.476276 1_555
O95 S16 1.457673 1_555
O96 S7 1.515035 1_545
O97 S8 1.495714 1_545
O98 S4 1.499958 1_555
O99 Si2 1.649252 1_555
O100 S6 1.521819 1_555
O101 S5 1.494834 1_655
O102 S0 1.502088 1_555
O103 S1 1.502151 1_555
O104 S3 1.512763 1_555
O105 S2 1.501771 1_655
O106 Si0 1.644729 1_545
O107 Si1 1.655212 1_545
O108 S17 1.474713 1_555
O109 S18 1.488764 1_555
O110 S20 1.464034 1_555
O111 S19 1.483025 1_655
O112 Si7 1.627537 1_545
O113 S21 1.501429 1_545
O114 S22 1.502783 1_545
O115 S23 1.489436 1_545
O116 S24 1.503365 1_555
O117 Si8 1.646193 1_555
O118 S26 1.501673 1_555
O119 S25 1.468369 1_655
O120 S15 1.467077 1_555
O121 S16 1.494489 1_555
O122 Si6 1.627249 1_455
O123 Si5 1.654086 1_555
O124 S13 1.487913 1_565
O125 S14 1.490548 1_565
O126 S9 1.485811 1_565
O127 S10 1.458140 1_565
O128 S11 1.482675 1_555
O129 S12 1.473255 1_555
O130 Si4 1.646446 1_455
O131 Si3 1.611409 1_555
O132 Si0 1.607114 1_555
O133 Si1 1.611110 1_555
O134 S0 1.467223 1_555
O135 S1 1.457717 1_555
O136 S2 1.460992 1_555
O137 S3 1.458963 1_555
O138 S4 1.464071 1_555
O139 Si2 1.608286 1_555
O140 S5 1.464414 1_555
O141 S6 1.457809 1_555
O142 S7 1.466306 1_555
O143 S8 1.454938 1_555
