# generated using pymatgen
data_NaZrAlSi(SO6)2
_symmetry_space_group_name_H-M   'P 1'
_cell_length_a   8.74795214
_cell_length_b   8.75309032
_cell_length_c   22.72776173
_cell_angle_alpha   89.28734347
_cell_angle_beta   90.00000000
_cell_angle_gamma   119.98058365
_symmetry_Int_Tables_number   1
_chemical_formula_structural   NaZrAlSi(SO6)2
_chemical_formula_sum   'Na6 Zr6 Al6 Si6 S12 O72'
_cell_volume   1507.28461948
_cell_formula_units_Z   6
loop_
 _symmetry_equiv_pos_site_id
 _symmetry_equiv_pos_as_xyz
  1  'x, y, z'
loop_
 _atom_site_type_symbol
 _atom_site_label
 _atom_site_symmetry_multiplicity
 _atom_site_fract_x
 _atom_site_fract_y
 _atom_site_fract_z
 _atom_site_occupancy
  Na  Na0  1  0.02246927  0.01712565  0.50567302  1
  Na  Na1  1  0.99465638  0.01712565  0.00567302  1
  Na  Na2  1  0.68196321  0.32800444  0.83741092  1
  Na  Na3  1  0.64604223  0.32800444  0.33741092  1
  Na  Na4  1  0.34534101  0.68960398  0.17093193  1
  Na  Na5  1  0.34426198  0.68960398  0.67093193  1
  Zr  Zr0  1  0.01740300  0.01066529  0.35601201  1
  Zr  Zr1  1  0.99326230  0.01066529  0.85601201  1
  Zr  Zr2  1  0.65674298  0.31130842  0.68850213  1
  Zr  Zr3  1  0.65456643  0.31130842  0.18850213  1
  Zr  Zr4  1  0.33471949  0.66543258  0.02188336  1
  Zr  Zr5  1  0.33071209  0.66543258  0.52188336  1
  Al  Al0  1  0.99400254  0.99259080  0.64849609  1
  Al  Al1  1  0.99858827  0.99259080  0.14849609  1
  Al  Al2  1  0.69619782  0.32442766  0.98044762  1
  Al  Al3  1  0.62823084  0.32442766  0.48044762  1
  Al  Al4  1  0.33967933  0.67027892  0.31283954  1
  Al  Al5  1  0.33059859  0.67027892  0.81283954  1
  Si  Si0  1  0.27617971  0.97521921  0.24720517  1
  Si  Si1  1  0.69903951  0.97521921  0.74720517  1
  Si  Si2  1  0.35619395  0.04396420  0.58303248  1
  Si  Si3  1  0.68777125  0.04396420  0.08303248  1
  Si  Si4  1  0.04530359  0.39416085  0.91341367  1
  Si  Si5  1  0.34885626  0.39416085  0.41341367  1
  S  S0  1  0.70745238  0.71710476  0.24924628  1
  S  S1  1  0.01376298  0.29675238  0.24826175  1
  S  S2  1  0.28298940  0.29675238  0.74826175  1
  S  S3  1  0.00965238  0.71710476  0.74924628  1
  S  S4  1  0.94502284  0.32003194  0.58105584  1
  S  S5  1  0.67931689  0.62645276  0.58177082  1
  S  S6  1  0.94713687  0.62645276  0.08177082  1
  S  S7  1  0.37501010  0.32003194  0.08105584  1
  S  S8  1  0.61710875  0.64946656  0.91606958  1
  S  S9  1  0.34724457  0.96465560  0.91488003  1
  S  S10  1  0.61741003  0.96465560  0.41488003  1
  S  S11  1  0.03235681  0.64946656  0.41606958  1
  O  O0  1  0.19446409  0.01394081  0.30632185  1
  O  O1  1  0.81037773  0.79607868  0.30286674  1
  O  O2  1  0.97316737  0.18603595  0.30256788  1
  O  O3  1  0.21286858  0.18603595  0.80256788  1
  O  O4  1  0.98570096  0.79607868  0.80286674  1
  O  O5  1  0.81947673  0.01394081  0.80632185  1
  O  O6  1  0.80519684  0.96158333  0.69061394  1
  O  O7  1  0.17784225  0.20715001  0.69638644  1
  O  O8  1  0.03419042  0.82632895  0.69600236  1
  O  O9  1  0.79213852  0.82632895  0.19600236  1
  O  O10  1  0.02930776  0.20715001  0.19638644  1
  O  O11  1  0.15638648  0.96158333  0.19061394  1
  O  O12  1  0.87234267  0.35411490  0.63529569  1
  O  O13  1  0.48302485  0.12789870  0.64087481  1
  O  O14  1  0.65312969  0.52178758  0.63578522  1
  O  O15  1  0.86865890  0.52178758  0.13578522  1
  O  O16  1  0.64487485  0.12789870  0.14087481  1
  O  O17  1  0.48177323  0.35411490  0.13529569  1
  O  O18  1  0.46587147  0.30725111  0.02870504  1
  O  O19  1  0.84071878  0.54004424  0.02889813  1
  O  O20  1  0.70791330  0.16617230  0.02573315  1
  O  O21  1  0.45826000  0.16617230  0.52573315  1
  O  O22  1  0.69932646  0.54004424  0.52889813  1
  O  O23  1  0.84138064  0.30725111  0.52870504  1
  O  O24  1  0.54594451  0.69124469  0.96924467  1
  O  O25  1  0.15922459  0.47491194  0.97314009  1
  O  O26  1  0.32010334  0.85787442  0.96915548  1
  O  O27  1  0.53777008  0.85787442  0.46915548  1
  O  O28  1  0.31568635  0.47491194  0.47314009  1
  O  O29  1  0.14529919  0.69124469  0.46924467  1
  O  O30  1  0.12169908  0.63643171  0.36331943  1
  O  O31  1  0.50856275  0.88324111  0.36244702  1
  O  O32  1  0.36323172  0.51412147  0.35658102  1
  O  O33  1  0.15088875  0.51412147  0.85658102  1
  O  O34  1  0.37467737  0.88324111  0.86244702  1
  O  O35  1  0.51473163  0.63643171  0.86331943  1
  O  O36  1  0.00038743  0.80256739  0.41122656  1
  O  O37  1  0.79191931  0.97659163  0.40958233  1
  O  O38  1  0.17162722  0.19331150  0.41150075  1
  O  O39  1  0.02168428  0.19331150  0.91150075  1
  O  O40  1  0.18467233  0.97659163  0.90958233  1
  O  O41  1  0.80217996  0.80256739  0.91122656  1
  O  O42  1  0.95948002  0.16017184  0.58864226  1
  O  O43  1  0.16560298  0.02766674  0.59619199  1
  O  O44  1  0.83670150  0.80310293  0.58668418  1
  O  O45  1  0.96640143  0.80310293  0.08668418  1
  O  O46  1  0.86206375  0.02766674  0.09619199  1
  O  O47  1  0.20069182  0.16017184  0.08864226  1
  O  O48  1  0.68309927  0.15664988  0.74552924  1
  O  O49  1  0.46728609  0.32784121  0.74353071  1
  O  O50  1  0.85002974  0.53978440  0.74366826  1
  O  O51  1  0.68975566  0.53978440  0.24366826  1
  O  O52  1  0.86055612  0.32784121  0.24353071  1
  O  O53  1  0.47355161  0.15664988  0.24552924  1
  O  O54  1  0.62452047  0.48672309  0.92558182  1
  O  O55  1  0.85006604  0.37304407  0.92156519  1
  O  O56  1  0.50162578  0.14361131  0.92243169  1
  O  O57  1  0.64198653  0.14361131  0.42243169  1
  O  O58  1  0.52297903  0.37304407  0.42156519  1
  O  O59  1  0.86220361  0.48672309  0.42558182  1
  O  O60  1  0.35017270  0.47718259  0.07741245  1
  O  O61  1  0.12739422  0.64678287  0.07740992  1
  O  O62  1  0.51010013  0.84799698  0.07805733  1
  O  O63  1  0.33789586  0.84799698  0.57805733  1
  O  O64  1  0.51938764  0.64678287  0.57740992  1
  O  O65  1  0.12700889  0.47718259  0.57741245  1
  O  O66  1  0.30233027  0.80610903  0.26015040  1
  O  O67  1  0.52979051  0.69879867  0.25486061  1
  O  O68  1  0.17539858  0.46860595  0.25490312  1
  O  O69  1  0.29320638  0.46860595  0.75490312  1
  O  O70  1  0.16900716  0.69879867  0.75486061  1
  O  O71  1  0.50377776  0.80610903  0.76015040  1
loop_
_geom_bond_atom_site_label_1
_geom_bond_atom_site_label_2
_geom_bond_distance
_geom_bond_site_symmetry_2
Na0 O43 2.387059 1_555
Na0 O42 2.485061 1_455
Na0 O44 2.532198 1_445
Na0 O38 2.562940 1_555
Na0 O36 2.812436 1_545
Na0 O37 2.875271 1_445
Na1 O46 2.387059 1_555
Na1 O47 2.485061 1_655
Na1 O45 2.532198 1_545
Na1 O39 2.562940 1_654
Na1 O41 2.812436 1_544
Na1 O40 2.875271 1_644
Na2 O55 2.327121 1_555
Na2 O56 2.491060 1_555
Na2 O48 2.589094 1_555
Na2 O54 2.639185 1_555
Na2 O50 2.704650 1_555
Na2 O49 2.841979 1_555
Na3 O58 2.327121 1_555
Na3 O57 2.491060 1_555
Na3 O53 2.589094 1_555
Na3 O59 2.639185 1_555
Na3 O51 2.704650 1_555
Na3 O52 2.841979 1_555
Na4 O66 2.393354 1_555
Na4 O67 2.474403 1_555
Na4 O62 2.526908 1_555
Na4 O68 2.574574 1_555
Na4 O61 2.756652 1_555
Na4 O60 2.855433 1_555
Na5 O71 2.393354 1_555
Na5 O70 2.474403 1_555
Na5 O63 2.526908 1_555
Na5 O69 2.574574 1_555
Na5 O64 2.756651 1_555
Na5 O65 2.855433 1_555
Al0 O6 1.806514 1_555
Al0 O43 1.814156 1_665
Al0 O8 1.969651 1_655
Al0 O7 2.080977 1_665
Al0 O44 2.096442 1_555
Al0 O42 2.118133 1_565
Al1 O11 1.806514 1_655
Al1 O46 1.814157 1_565
Al1 O9 1.969651 1_555
Al1 O10 2.080977 1_665
Al1 O45 2.096442 1_555
Al1 O47 2.118133 1_665
Al2 O20 1.759289 1_556
Al2 O55 1.788077 1_555
Al2 O19 2.009956 1_556
Al2 O56 2.121394 1_555
Al2 O54 2.193706 1_555
Al2 O18 2.231241 1_556
Al3 O21 1.759289 1_555
Al3 O58 1.788077 1_555
Al3 O22 2.009956 1_555
Al3 O57 2.121394 1_555
Al3 O59 2.193706 1_555
Al3 O23 2.231241 1_555
Al4 O32 1.773904 1_555
Al4 O66 1.818556 1_555
Al4 O67 2.035062 1_555
Al4 O31 2.056349 1_555
Al4 O68 2.106597 1_555
Al4 O30 2.113571 1_555
Al5 O33 1.773904 1_555
Al5 O71 1.818556 1_555
Al5 O70 2.035062 1_555
Al5 O34 2.056348 1_555
Al5 O69 2.106597 1_555
Al5 O35 2.113571 1_555
O0 Si0 1.638470 1_545
O0 Zr0 1.905312 1_555
O1 S0 1.473982 1_555
O1 Zr0 2.218918 1_665
O2 S1 1.488278 1_655
O2 Zr0 2.128092 1_655
O3 S2 1.488278 1_555
O3 Zr1 2.128092 1_455
O4 S3 1.473982 1_655
O4 Zr1 2.218918 1_565
O5 Si1 1.638470 1_545
O5 Zr1 1.905312 1_555
O6 Si1 1.626511 1_555
O7 S2 1.467403 1_555
O8 S3 1.480069 1_555
O9 S0 1.480069 1_555
O10 S1 1.467403 1_555
O11 Si0 1.626511 1_555
O12 S4 1.487157 1_555
O12 Zr2 2.107694 1_555
O13 Si2 1.645717 1_555
O13 Zr2 1.914008 1_555
O14 S5 1.470081 1_555
O14 Zr2 2.198647 1_555
O15 S6 1.470081 1_555
O15 Zr3 2.198647 1_555
O16 Si3 1.645717 1_555
O16 Zr3 1.914008 1_555
O17 S7 1.487157 1_555
O17 Zr3 2.107694 1_555
O18 S7 1.467020 1_555
O19 S6 1.483794 1_555
O20 Si3 1.627337 1_555
O21 Si2 1.627337 1_555
O22 S5 1.483794 1_555
O23 S4 1.467020 1_555
O24 S8 1.490099 1_555
O24 Zr4 2.114871 1_556
O25 Si4 1.629510 1_555
O25 Zr4 1.962772 1_556
O26 S9 1.483635 1_555
O26 Zr4 2.110669 1_556
O27 S10 1.483635 1_555
O27 Zr5 2.110669 1_555
O28 Si5 1.629510 1_555
O28 Zr5 1.962772 1_555
O29 S11 1.490099 1_555
O29 Zr5 2.114871 1_555
O30 S11 1.467557 1_555
O31 S10 1.475664 1_555
O32 Si5 1.618980 1_555
O33 Si4 1.618980 1_555
O34 S9 1.475664 1_555
O35 S8 1.467557 1_555
O36 S11 1.502366 1_555
O36 Zr0 2.141720 1_565
O37 S10 1.481959 1_555
O37 Zr0 2.205717 1_665
O38 Si5 1.665588 1_555
O38 Zr0 1.964961 1_555
O39 Si4 1.665592 1_555
O39 Zr1 1.964961 1_455
O40 S9 1.481950 1_555
O40 Zr1 2.205717 1_465
O41 S8 1.502372 1_555
O41 Zr1 2.141720 1_565
O42 S4 1.474633 1_555
O43 Si2 1.628147 1_555
O44 S5 1.474982 1_555
O45 S6 1.474985 1_555
O46 Si3 1.628138 1_555
O47 S7 1.474638 1_555
O48 Si1 1.662139 1_545
O48 Zr2 1.958044 1_555
O49 S2 1.498556 1_555
O49 Zr2 2.139200 1_555
O50 S3 1.487885 1_655
O50 Zr2 2.261277 1_555
O51 S0 1.487888 1_555
O51 Zr3 2.261277 1_555
O52 S1 1.498547 1_655
O52 Zr3 2.139200 1_555
O53 Si0 1.662143 1_545
O53 Zr3 1.958044 1_555
O54 S8 1.471330 1_555
O55 Si4 1.633754 1_655
O56 S9 1.483062 1_545
O57 S10 1.483055 1_545
O58 Si5 1.633772 1_555
O59 S11 1.471321 1_655
O60 S7 1.497358 1_555
O60 Zr4 2.120633 1_555
O61 S6 1.499055 1_455
O61 Zr4 2.146547 1_555
O62 Si3 1.646561 1_565
O62 Zr4 2.034191 1_555
O63 Si2 1.646554 1_565
O63 Zr5 2.034191 1_555
O64 S5 1.499073 1_555
O64 Zr5 2.146547 1_555
O65 S4 1.497347 1_455
O65 Zr5 2.120633 1_555
O66 Si0 1.630211 1_555
O67 S0 1.485944 1_555
O68 S1 1.471329 1_555
O69 S2 1.471333 1_555
O70 S3 1.485935 1_555
O71 Si1 1.630217 1_555
