# generated using pymatgen
data_Ce2CoSi3
_symmetry_space_group_name_H-M   'P 1'
_cell_length_a   8.03036972
_cell_length_b   8.03040135
_cell_length_c   4.22044102
_cell_angle_alpha   90.00000733
_cell_angle_beta   89.99990233
_cell_angle_gamma   120.00020665
_symmetry_Int_Tables_number   1
_chemical_formula_structural   Ce2CoSi3
_chemical_formula_sum   'Ce4 Co2 Si6'
_cell_volume   235.70041908
_cell_formula_units_Z   2
loop_
 _symmetry_equiv_pos_site_id
 _symmetry_equiv_pos_as_xyz
  1  'x, y, z'
loop_
 _atom_site_type_symbol
 _atom_site_label
 _atom_site_symmetry_multiplicity
 _atom_site_fract_x
 _atom_site_fract_y
 _atom_site_fract_z
 _atom_site_occupancy
  Ce  Ce0  1  0.50000813  0.49999232  0.00000005  1
  Ce  Ce1  1  -0.00001489  0.49999244  -0.00000005  1
  Ce  Ce2  1  0.50000753  0.00001487  0.00000024  1
  Ce  Ce3  1  0.00000073  0.00000061  -0.00000056  1
  Co  Co0  1  0.33332683  0.66666414  0.50032981  1
  Co  Co1  1  0.66667437  0.33333670  0.49966930  1
  Si  Si0  1  0.82916059  0.65831817  0.49975286  1
  Si  Si1  1  0.17083423  0.82915768  0.50024834  1
  Si  Si2  1  0.65832208  0.82915992  0.50024631  1
  Si  Si3  1  0.17083676  0.34167934  0.50024778  1
  Si  Si4  1  0.82916271  0.17084227  0.49975241  1
  Si  Si5  1  0.34168093  0.17084154  0.49975351  1
loop_
_geom_bond_atom_site_label_1
_geom_bond_atom_site_label_2
_geom_bond_distance
_geom_bond_site_symmetry_2
Ce0 Si5 3.113047 1_555
Ce0 Si0 3.113051 1_555
Ce0 Si2 3.113136 1_554
Ce0 Si3 3.113149 1_554
Ce0 Si0 3.114459 1_554
Ce0 Si5 3.114460 1_554
Ce0 Si2 3.114548 1_555
Ce0 Si3 3.114560 1_555
Ce0 Co1 3.133802 1_555
Ce0 Co0 3.133966 1_554
Ce0 Co1 3.135678 1_554
Ce0 Co0 3.135836 1_555
Ce1 Si4 3.113040 1_455
Ce1 Si0 3.113044 1_455
Ce1 Si1 3.113117 1_554
Ce1 Si3 3.113118 1_554
Ce1 Si4 3.114459 1_454
Ce1 Si0 3.114461 1_454
Ce1 Si3 3.114539 1_555
Ce1 Si1 3.114541 1_555
Ce1 Co1 3.133732 1_455
Ce1 Co0 3.133894 1_554
Ce1 Co1 3.135617 1_454
Ce1 Co0 3.135774 1_555
Ce2 Si5 3.113061 1_555
Ce2 Si4 3.113063 1_555
Ce2 Si2 3.113148 1_544
Ce2 Si1 3.113158 1_544
Ce2 Si4 3.114475 1_554
Ce2 Si5 3.114475 1_554
Ce2 Si2 3.114559 1_545
Ce2 Si1 3.114571 1_545
Ce2 Co1 3.133799 1_555
Ce2 Co0 3.133952 1_544
Ce2 Co1 3.135677 1_554
Ce2 Co0 3.135822 1_545
Ce3 Si1 3.177247 1_544
Ce3 Si3 3.177259 1_554
Ce3 Si2 3.177260 1_444
Ce3 Si4 3.177270 1_455
Ce3 Si5 3.177271 1_555
Ce3 Si0 3.177284 1_445
Ce3 Si2 3.178638 1_445
Ce3 Si5 3.178643 1_554
Ce3 Si1 3.178646 1_545
Ce3 Si3 3.178654 1_555
Ce3 Si4 3.178658 1_454
Ce3 Si0 3.178668 1_444
Co0 Si3 2.260112 1_555
Co0 Si1 2.260124 1_555
Co0 Si2 2.260176 1_555
Co1 Si0 2.260089 1_555
Co1 Si4 2.260101 1_555
Co1 Si5 2.260164 1_555
Si0 Si1 2.376167 1_655
Si0 Si2 2.376225 1_555
Si1 Si5 2.376247 1_565
Si2 Si4 2.376237 1_565
Si3 Si4 2.376170 1_455
Si3 Si5 2.376237 1_555
