# generated using pymatgen
data_MgTi2(Fe2O5)2
_symmetry_space_group_name_H-M   'P 1'
_cell_length_a   3.69204553
_cell_length_b   5.51156424
_cell_length_c   11.01287768
_cell_angle_alpha   99.29172102
_cell_angle_beta   89.99941535
_cell_angle_gamma   70.43263455
_symmetry_Int_Tables_number   1
_chemical_formula_structural   MgTi2(Fe2O5)2
_chemical_formula_sum   'Mg1 Ti2 Fe4 O10'
_cell_volume   208.03489796
_cell_formula_units_Z   1
loop_
 _symmetry_equiv_pos_site_id
 _symmetry_equiv_pos_as_xyz
  1  'x, y, z'
loop_
 _atom_site_type_symbol
 _atom_site_label
 _atom_site_symmetry_multiplicity
 _atom_site_fract_x
 _atom_site_fract_y
 _atom_site_fract_z
 _atom_site_occupancy
  Mg  Mg0  1  0.50388489  0.99189852  0.99018335  1
  Ti  Ti0  1  0.17467004  0.65063666  0.10502512  1
  Ti  Ti1  1  0.85959346  0.28080924  0.55401565  1
  Fe  Fe0  1  0.14187123  0.71640625  0.43996710  1
  Fe  Fe1  1  0.14511067  0.70954529  0.72716746  1
  Fe  Fe2  1  0.84780672  0.30440451  0.26917510  1
  Fe  Fe3  1  0.82602742  0.34786937  0.88230905  1
  O  O0  1  0.01941648  0.96119383  0.61529436  1
  O  O1  1  0.03526791  0.92932904  0.88002403  1
  O  O2  1  0.67249247  0.65503350  0.05732027  1
  O  O3  1  0.70680609  0.58649943  0.44320352  1
  O  O4  1  0.24138966  0.51730751  0.25239819  1
  O  O5  1  0.73078445  0.53821809  0.73463836  1
  O  O6  1  0.32209735  0.35573989  0.96498931  1
  O  O7  1  0.30078312  0.39838447  0.57067464  1
  O  O8  1  0.96800753  0.06405779  0.39937975  1
  O  O9  1  0.99283052  0.01454163  0.12516973  1
loop_
_geom_bond_atom_site_label_1
_geom_bond_atom_site_label_2
_geom_bond_distance
_geom_bond_site_symmetry_2
Mg0 O6 1.956262 1_565
Mg0 O2 2.012578 1_556
Mg0 O1 2.201987 1_555
Mg0 O1 2.202587 1_655
Mg0 O9 2.359656 1_466
Mg0 O9 2.361218 1_566
Fe0 O8 1.932875 1_465
Fe0 O3 1.967805 1_555
Fe0 O3 1.967904 1_455
Fe0 O0 2.122035 1_555
Fe0 O4 2.145717 1_555
Fe0 O7 2.369500 1_555
Fe1 O1 1.864960 1_555
Fe1 O0 1.943628 1_555
Fe1 O5 2.056962 1_455
Fe1 O5 2.057067 1_555
Fe1 O7 2.151052 1_555
Fe2 O9 1.990719 1_555
Fe2 O8 2.056093 1_555
Fe2 O4 2.175791 1_555
Fe2 O4 2.175961 1_655
Fe2 O3 2.203885 1_555
Fe3 O5 2.042779 1_555
Fe3 O6 2.055653 1_555
Fe3 O6 2.055703 1_655
Fe3 O1 2.169419 1_645
Fe3 O2 2.281598 1_556
O0 Ti1 1.895896 1_465
O2 Ti0 1.920464 1_655
O2 Ti0 1.920601 1_555
O3 Ti1 2.161829 1_555
O4 Ti0 1.870486 1_555
O5 Ti1 2.198294 1_555
O6 Ti0 1.978469 1_556
O7 Ti1 1.943076 1_455
O7 Ti1 1.943258 1_555
O8 Ti1 1.873568 1_555
O9 Ti0 1.864692 1_645
