# generated using pymatgen
data_Ca2Nb10Si9(SO8)9
_symmetry_space_group_name_H-M   'P 1'
_cell_length_a   8.94423902
_cell_length_b   8.97510114
_cell_length_c   23.04796893
_cell_angle_alpha   90.22104484
_cell_angle_beta   89.88257103
_cell_angle_gamma   119.81153384
_symmetry_Int_Tables_number   1
_chemical_formula_structural   Ca2Nb10Si9(SO8)9
_chemical_formula_sum   'Ca2 Nb10 Si9 S9 O72'
_cell_volume   1605.33046235
_cell_formula_units_Z   1
loop_
 _symmetry_equiv_pos_site_id
 _symmetry_equiv_pos_as_xyz
  1  'x, y, z'
loop_
 _atom_site_type_symbol
 _atom_site_label
 _atom_site_symmetry_multiplicity
 _atom_site_fract_x
 _atom_site_fract_y
 _atom_site_fract_z
 _atom_site_occupancy
  Ca  Ca0  1  0.67724781  0.34184585  0.69233384  1
  Ca  Ca1  1  0.66252885  0.33622993  0.19042371  1
  Nb  Nb0  1  0.00056176  0.00122008  0.36232388  1
  Nb  Nb1  1  0.99964660  0.99032298  0.86157205  1
  Nb  Nb2  1  0.00080073  0.99918774  0.64496951  1
  Nb  Nb3  1  0.00572965  0.00492480  0.13998121  1
  Nb  Nb4  1  0.65156614  0.33070255  0.97138576  1
  Nb  Nb5  1  0.67859160  0.32940004  0.47502832  1
  Nb  Nb6  1  0.33261925  0.65628954  0.01525106  1
  Nb  Nb7  1  0.32611041  0.65983250  0.51987411  1
  Nb  Nb8  1  0.33460815  0.66406737  0.31540343  1
  Nb  Nb9  1  0.32242070  0.66520419  0.81150055  1
  Si  Si0  1  0.00445791  0.71923904  0.75102987  1
  Si  Si1  1  0.95732979  0.33124146  0.58464051  1
  Si  Si2  1  0.38482189  0.34297395  0.08407508  1
  Si  Si3  1  0.61494889  0.66579068  0.91291374  1
  Si  Si4  1  0.04172378  0.37934419  0.91428499  1
  Si  Si5  1  0.33333202  0.94683784  0.91672562  1
  Si  Si6  1  0.61378387  0.94868833  0.41738796  1
  Si  Si7  1  0.34144327  0.38346443  0.41711262  1
  Si  Si8  1  0.04879894  0.66532894  0.41649941  1
  S  S0  1  0.27299681  0.98769314  0.25132457  1
  S  S1  1  0.71712485  0.72715578  0.25181854  1
  S  S2  1  0.00987778  0.28310222  0.25118050  1
  S  S3  1  0.27314471  0.28319867  0.75171986  1
  S  S4  1  0.71400270  0.98833484  0.75232037  1
  S  S5  1  0.37399569  0.04087925  0.58211249  1
  S  S6  1  0.66637897  0.62693617  0.58223143  1
  S  S7  1  0.96220575  0.62643787  0.08327984  1
  S  S8  1  0.66396856  0.03765544  0.08295218  1
  O  O0  1  0.18289261  0.00782973  0.30231888  1
  O  O1  1  0.82399509  0.81960527  0.30333094  1
  O  O2  1  0.99235579  0.17588491  0.30223258  1
  O  O3  1  0.18412456  0.18028170  0.80294937  1
  O  O4  1  -0.00032055  0.83501611  0.80653491  1
  O  O5  1  0.82293493  0.01224451  0.80343636  1
  O  O6  1  0.80327596  0.97034676  0.69787962  1
  O  O7  1  0.16516016  0.20119563  0.69696983  1
  O  O8  1  0.03159369  0.84449136  0.69311607  1
  O  O9  1  0.79832188  0.83100038  0.19870864  1
  O  O10  1  0.03035264  0.19677968  0.19758089  1
  O  O11  1  0.16623284  0.96699811  0.19786941  1
  O  O12  1  0.88930090  0.37751775  0.63980494  1
  O  O13  1  0.47233380  0.10777067  0.63459243  1
  O  O14  1  0.62578971  0.52515570  0.63406196  1
  O  O15  1  0.89606108  0.52749395  0.13622662  1
  O  O16  1  0.63772517  0.10848101  0.13626527  1
  O  O17  1  0.48146684  0.37150773  0.14292137  1
  O  O18  1  0.47662531  0.30577714  0.02769869  1
  O  O19  1  0.84987502  0.55283360  0.03283388  1
  O  O20  1  0.70513672  0.15060306  0.03255813  1
  O  O21  1  0.45555844  0.15296495  0.53050837  1
  O  O22  1  0.69801437  0.54582421  0.53073183  1
  O  O23  1  0.83142497  0.30427021  0.52619983  1
  O  O24  1  0.52708774  0.69480334  0.97150017  1
  O  O25  1  0.16847773  0.47224763  0.97060967  1
  O  O26  1  0.30394983  0.83162999  0.97405236  1
  O  O27  1  0.52974940  0.82830493  0.47207126  1
  O  O28  1  0.30146702  0.47371599  0.47072951  1
  O  O29  1  0.17248597  0.70293379  0.47151362  1
  O  O30  1  0.13951392  0.63330061  0.35851352  1
  O  O31  1  0.49381504  0.85749081  0.35868629  1
  O  O32  1  0.36747256  0.50445883  0.35881264  1
  O  O33  1  0.13322402  0.50655466  0.85877940  1
  O  O34  1  0.36701787  0.85874933  0.86012696  1
  O  O35  1  0.49305078  0.63059262  0.85770536  1
  O  O36  1  0.02666702  0.83256319  0.40247363  1
  O  O37  1  0.80662772  0.97748125  0.40241415  1
  O  O38  1  0.17078426  0.19622374  0.40177913  1
  O  O39  1  0.02351904  0.19481974  0.90188172  1
  O  O40  1  0.17175625  0.97934944  0.90757557  1
  O  O41  1  0.80461121  0.83391980  0.90620008  1
  O  O42  1  0.97988068  0.15940844  0.59405357  1
  O  O43  1  0.19670255  0.02208540  0.58873188  1
  O  O44  1  0.82415592  0.80235176  0.59044032  1
  O  O45  1  0.97733150  0.80532704  0.09446271  1
  O  O46  1  0.82561480  0.01698784  0.09378349  1
  O  O47  1  0.18369964  0.16226841  0.09521142  1
  O  O48  1  0.68978234  0.13454576  0.74671423  1
  O  O49  1  0.43909140  0.29548133  0.74520930  1
  O  O50  1  0.83750834  0.54098491  0.75158207  1
  O  O51  1  0.70224557  0.55947962  0.24952873  1
  O  O52  1  0.85896304  0.30130486  0.24642828  1
  O  O53  1  0.44247392  0.13692434  0.24752012  1
  O  O54  1  0.64030375  0.49992269  0.92748803  1
  O  O55  1  0.85819948  0.36146459  0.93397526  1
  O  O56  1  0.50526165  0.13682084  0.92739687  1
  O  O57  1  0.63389495  0.13789113  0.42695008  1
  O  O58  1  0.50356453  0.35977800  0.43146144  1
  O  O59  1  0.85914521  0.50069535  0.42766244  1
  O  O60  1  0.34084566  0.49403771  0.06829709  1
  O  O61  1  0.13944379  0.66351953  0.07270167  1
  O  O62  1  0.52060452  0.86362401  0.07267629  1
  O  O63  1  0.34724832  0.86546181  0.56999390  1
  O  O64  1  0.52026211  0.65873644  0.56951791  1
  O  O65  1  0.15031208  0.49263614  0.56616279  1
  O  O66  1  0.28118574  0.82652424  0.25715778  1
  O  O67  1  0.54363828  0.71336318  0.25847685  1
  O  O68  1  0.17065241  0.45241190  0.25691804  1
  O  O69  1  0.28532304  0.45395445  0.75670354  1
  O  O70  1  0.18611985  0.71276289  0.75959835  1
  O  O71  1  0.54826782  0.82470178  0.75678267  1
loop_
_geom_bond_atom_site_label_1
_geom_bond_atom_site_label_2
_geom_bond_distance
_geom_bond_site_symmetry_2
Ca0 O12 2.134330 1_555
Ca0 O50 2.134406 1_555
Ca0 O48 2.295876 1_555
Ca0 O49 2.303843 1_555
Ca0 O14 2.344112 1_555
Ca0 O13 2.388254 1_555
Ca1 O17 2.107449 1_555
Ca1 O51 2.295623 1_555
Ca1 O15 2.304504 1_555
Ca1 O53 2.304842 1_555
Ca1 O16 2.305668 1_555
Ca1 O52 2.326218 1_555
Nb0 O37 1.880284 1_445
Nb0 O38 1.884683 1_555
Nb0 O36 1.888193 1_545
Nb0 O1 2.105197 1_445
Nb0 O0 2.114457 1_555
Nb0 O2 2.124291 1_455
Nb1 O4 1.881165 1_655
Nb1 O41 1.908024 1_555
Nb1 O40 1.913603 1_655
Nb1 O39 1.968591 1_665
Nb1 O5 2.156878 1_565
Nb1 O3 2.160176 1_665
Nb2 O8 1.904810 1_555
Nb2 O42 1.939440 1_465
Nb2 O6 2.052869 1_455
Nb2 O7 2.055478 1_565
Nb2 O44 2.100587 1_455
Nb2 O43 2.104082 1_565
Nb3 O47 1.833637 1_555
Nb3 O45 1.976983 1_445
Nb3 O46 1.980423 1_455
Nb3 O10 2.093419 1_555
Nb3 O11 2.110472 1_545
Nb3 O9 2.199300 1_445
Nb4 O56 1.869760 1_555
Nb4 O54 1.872122 1_555
Nb4 O55 1.929608 1_555
Nb4 O18 1.956728 1_556
Nb4 O19 2.366221 1_556
Nb4 O20 2.370785 1_556
Nb5 O23 1.904126 1_555
Nb5 O57 1.909432 1_555
Nb5 O59 1.923650 1_555
Nb5 O58 1.991555 1_555
Nb5 O21 2.233018 1_555
Nb5 O22 2.257796 1_555
Nb6 O25 1.877312 1_554
Nb6 O24 1.886637 1_554
Nb6 O60 1.934273 1_555
Nb6 O26 1.964099 1_554
Nb6 O61 2.200968 1_555
Nb6 O62 2.218268 1_555
Nb7 O65 1.876645 1_555
Nb7 O28 1.934471 1_555
Nb7 O29 1.954005 1_555
Nb7 O27 2.020879 1_555
Nb7 O64 2.085677 1_555
Nb7 O63 2.100877 1_555
Nb8 O32 1.889550 1_555
Nb8 O31 1.889738 1_555
Nb8 O30 1.903765 1_555
Nb8 O67 2.141173 1_555
Nb8 O68 2.189662 1_555
Nb8 O66 2.206102 1_555
Nb9 O70 1.904397 1_555
Nb9 O33 1.920183 1_555
Nb9 O34 1.931451 1_555
Nb9 O35 2.010055 1_555
Nb9 O69 2.158160 1_555
Nb9 O71 2.201929 1_555
O0 S0 1.484191 1_545
O1 S1 1.490030 1_555
O2 S2 1.480906 1_655
O3 S3 1.467856 1_555
O4 Si0 1.658858 1_555
O5 S4 1.475864 1_545
O6 S4 1.536404 1_555
O7 S3 1.535544 1_555
O8 Si0 1.686200 1_555
O9 S1 1.492177 1_555
O10 S2 1.514154 1_555
O11 S0 1.513599 1_555
O12 Si1 1.550256 1_555
O13 S5 1.439027 1_555
O14 S6 1.438820 1_555
O15 S7 1.452861 1_555
O16 S8 1.452641 1_555
O17 Si2 1.560234 1_555
O18 Si2 1.654949 1_555
O19 S7 1.461709 1_555
O20 S8 1.465754 1_555
O21 S5 1.494916 1_555
O22 S6 1.488515 1_555
O23 Si1 1.695185 1_555
O24 Si3 1.644710 1_555
O25 Si4 1.650324 1_555
O26 Si5 1.619536 1_555
O27 Si6 1.587430 1_555
O28 Si7 1.609198 1_555
O29 Si8 1.605215 1_555
O30 Si8 1.658788 1_555
O31 Si6 1.666123 1_555
O32 Si7 1.672596 1_555
O33 Si4 1.639458 1_555
O34 Si5 1.626280 1_555
O35 Si3 1.602419 1_555
O36 Si8 1.641934 1_555
O37 Si6 1.648036 1_555
O38 Si7 1.651073 1_555
O39 Si4 1.606051 1_555
O40 Si5 1.624548 1_555
O41 Si3 1.623020 1_555
O42 Si1 1.666806 1_555
O43 S5 1.516440 1_555
O44 S6 1.515135 1_555
O45 S7 1.563169 1_555
O46 S8 1.567025 1_555
O47 Si2 1.741465 1_555
O48 S4 1.438654 1_545
O49 S3 1.440223 1_555
O50 Si0 1.553764 1_655
O51 S1 1.444137 1_555
O52 S2 1.442463 1_655
O53 S0 1.442581 1_545
O54 Si3 1.649329 1_555
O55 Si4 1.631495 1_655
O56 Si5 1.650410 1_545
O57 Si6 1.630362 1_545
O58 Si7 1.601945 1_555
O59 Si8 1.623557 1_655
O60 Si2 1.630895 1_555
O61 S7 1.468914 1_455
O62 S8 1.465257 1_565
O63 S5 1.495436 1_565
O64 S6 1.499470 1_555
O65 Si1 1.665740 1_455
O66 S0 1.490875 1_555
O67 S1 1.501614 1_555
O68 S2 1.490297 1_555
O69 S3 1.485422 1_555
O70 Si0 1.666659 1_555
O71 S4 1.483499 1_555
