# generated using pymatgen
data_Na8Y3TaSi5SO24
_symmetry_space_group_name_H-M   'P 1'
_cell_length_a   9.45862459
_cell_length_b   9.44174850
_cell_length_c   23.16196173
_cell_angle_alpha   89.96707018
_cell_angle_beta   90.23555535
_cell_angle_gamma   120.01880327
_symmetry_Int_Tables_number   1
_chemical_formula_structural   Na8Y3TaSi5SO24
_chemical_formula_sum   'Na24 Y9 Ta3 Si15 S3 O72'
_cell_volume   1791.01722480
_cell_formula_units_Z   3
loop_
 _symmetry_equiv_pos_site_id
 _symmetry_equiv_pos_as_xyz
  1  'x, y, z'
loop_
 _atom_site_type_symbol
 _atom_site_label
 _atom_site_symmetry_multiplicity
 _atom_site_fract_x
 _atom_site_fract_y
 _atom_site_fract_z
 _atom_site_occupancy
  Na  Na0  1  0.61277429  0.99778659  0.25227429  1
  Na  Na1  1  0.36553496  0.34865956  0.25668200  1
  Na  Na2  1  0.01813588  0.65081342  0.24808220  1
  Na  Na3  1  0.64009519  0.62244533  0.74719099  1
  Na  Na4  1  0.00486457  0.36810301  0.73768463  1
  Na  Na5  1  0.35059986  0.00581446  0.74253630  1
  Na  Na6  1  0.29885581  0.34339833  0.58047316  1
  Na  Na7  1  0.04195470  0.70101001  0.58092553  1
  Na  Na8  1  0.66140708  0.95858271  0.57591827  1
  Na  Na9  1  0.30063392  0.95613938  0.08167933  1
  Na  Na10  1  0.65672693  0.70065568  0.07620857  1
  Na  Na11  1  0.04238318  0.34161917  0.07679020  1
  Na  Na12  1  0.96901151  0.67732674  0.91521862  1
  Na  Na13  1  0.70169836  0.02336027  0.92059078  1
  Na  Na14  1  0.32346480  0.29471726  0.91420961  1
  Na  Na15  1  0.97672282  0.30527710  0.42463341  1
  Na  Na16  1  0.33169988  0.02642645  0.41933180  1
  Na  Na17  1  0.69359534  0.67170242  0.42447372  1
  Na  Na18  1  0.99908360  0.00100512  0.50212643  1
  Na  Na19  1  0.99846286  0.99848353  0.99919998  1
  Na  Na20  1  0.66522076  0.34743326  0.83158622  1
  Na  Na21  1  0.64933320  0.31818438  0.34274933  1
  Na  Na22  1  0.33115149  0.68094735  0.15844496  1
  Na  Na23  1  0.32615489  0.66109975  0.65431804  1
  Y  Y0  1  0.00956173  0.00139416  0.35369883  1
  Y  Y1  1  0.00645058  0.99793107  0.84967781  1
  Y  Y2  1  0.01635702  0.00506269  0.64563626  1
  Y  Y3  1  0.00929488  0.99679420  0.14102313  1
  Y  Y4  1  0.66728816  0.33988593  0.68149727  1
  Y  Y5  1  0.65969652  0.32748391  0.17997730  1
  Y  Y6  1  0.33205096  0.66610143  0.01551490  1
  Y  Y7  1  0.33311770  0.66828702  0.51440648  1
  Y  Y8  1  0.33066402  0.67350830  0.32632500  1
  Ta  Ta0  1  0.66457619  0.33263792  0.98072381  1
  Ta  Ta1  1  0.66666889  0.33413155  0.48459009  1
  Ta  Ta2  1  0.32041181  0.65552354  0.82172220  1
  Si  Si0  1  0.30499281  0.99699552  0.24933439  1
  Si  Si1  1  0.30303815  0.31142250  0.75351213  1
  Si  Si2  1  0.00716603  0.69566144  0.75301628  1
  Si  Si3  1  0.95952611  0.33107321  0.58391273  1
  Si  Si4  1  0.37610821  0.04048307  0.58390208  1
  Si  Si5  1  0.66749041  0.63094377  0.58313140  1
  Si  Si6  1  0.95564869  0.62188821  0.08306181  1
  Si  Si7  1  0.66866472  0.04126556  0.08159722  1
  Si  Si8  1  0.37456225  0.33541791  0.08155741  1
  Si  Si9  1  0.62630439  0.66100552  0.91811224  1
  Si  Si10  1  0.02563169  0.36679633  0.91944667  1
  Si  Si11  1  0.34199322  0.96713694  0.91754889  1
  Si  Si12  1  0.63896943  0.97958627  0.41782046  1
  Si  Si13  1  0.34268204  0.36702997  0.41679181  1
  Si  Si14  1  0.01875501  0.65569846  0.41742291  1
  S  S0  1  0.69984896  0.70296340  0.24916270  1
  S  S1  1  0.00202161  0.29925764  0.24899868  1
  S  S2  1  0.69175302  0.98922514  0.75230844  1
  O  O0  1  0.21378527  0.01998232  0.30541914  1
  O  O1  1  0.79700986  0.78692798  0.30133137  1
  O  O2  1  0.98052026  0.19863734  0.30099655  1
  O  O3  1  0.21703890  0.20158384  0.81019896  1
  O  O4  1  0.97142447  0.77577900  0.80908704  1
  O  O5  1  0.79345814  0.01357676  0.80398104  1
  O  O6  1  0.77002790  0.96668541  0.70011568  1
  O  O7  1  0.18469688  0.23694457  0.69616055  1
  O  O8  1  0.04722151  0.81424391  0.69600486  1
  O  O9  1  0.77972440  0.80232828  0.19694825  1
  O  O10  1  0.01376348  0.21477183  0.19672001  1
  O  O11  1  0.19235583  0.97469004  0.19151784  1
  O  O12  1  0.88264065  0.35358504  0.64344546  1
  O  O13  1  0.47459162  0.11520937  0.64407037  1
  O  O14  1  0.64222290  0.52991292  0.64279568  1
  O  O15  1  0.88141940  0.52444912  0.14313137  1
  O  O16  1  0.64448899  0.11795841  0.14101372  1
  O  O17  1  0.47650748  0.36176302  0.14097375  1
  O  O18  1  0.48422474  0.31952137  0.02563374  1
  O  O19  1  0.83173793  0.51090131  0.02676715  1
  O  O20  1  0.68092885  0.16485785  0.02516672  1
  O  O21  1  0.48623159  0.16303825  0.52868222  1
  O  O22  1  0.67940648  0.51924040  0.52781728  1
  O  O23  1  0.83734602  0.32189620  0.52837300  1
  O  O24  1  0.55387529  0.69438013  0.97586072  1
  O  O25  1  0.13933181  0.44034275  0.97546853  1
  O  O26  1  0.30642205  0.85903858  0.97480855  1
  O  O27  1  0.55811050  0.85821331  0.47240925  1
  O  O28  1  0.30740818  0.45160437  0.47127648  1
  O  O29  1  0.14209191  0.69784588  0.47156127  1
  O  O30  1  0.09153402  0.61462686  0.35885143  1
  O  O31  1  0.52395885  0.90566837  0.35928561  1
  O  O32  1  0.38017836  0.47767402  0.35738856  1
  O  O33  1  0.13530616  0.49889689  0.86400354  1
  O  O34  1  0.36523950  0.86091613  0.86239768  1
  O  O35  1  0.49621819  0.63789021  0.86320782  1
  O  O36  1  0.98448368  0.80870700  0.41116278  1
  O  O37  1  0.82408142  0.01160347  0.40998364  1
  O  O38  1  0.18423549  0.18206171  0.41291454  1
  O  O39  1  0.99068419  0.18307222  0.90822603  1
  O  O40  1  0.18768211  0.99717440  0.90997078  1
  O  O41  1  0.80785597  0.81700274  0.90893688  1
  O  O42  1  0.96065619  0.15763075  0.58146183  1
  O  O43  1  0.20179280  0.04027112  0.58065062  1
  O  O44  1  0.83954067  0.80645404  0.58221099  1
  O  O45  1  0.95535661  0.79623241  0.07949534  1
  O  O46  1  0.84074904  0.03848851  0.08021006  1
  O  O47  1  0.19877125  0.16296572  0.07925114  1
  O  O48  1  0.67032635  0.13490952  0.74788604  1
  O  O49  1  0.48606374  0.33178572  0.75043879  1
  O  O50  1  0.85491920  0.50642408  0.74993321  1
  O  O51  1  0.68960010  0.53977218  0.24702029  1
  O  O52  1  0.85805854  0.32377275  0.24668041  1
  O  O53  1  0.48944740  0.16398941  0.25041441  1
  O  O54  1  0.63288788  0.48631662  0.92216914  1
  O  O55  1  0.85066054  0.36916068  0.92261339  1
  O  O56  1  0.51590083  0.14806498  0.92184838  1
  O  O57  1  0.65000828  0.16039971  0.42776937  1
  O  O58  1  0.50868122  0.34935580  0.42677046  1
  O  O59  1  0.83783612  0.48788713  0.42745583  1
  O  O60  1  0.35188136  0.49460418  0.07809448  1
  O  O61  1  0.13784941  0.64535780  0.07838630  1
  O  O62  1  0.50731382  0.85994084  0.07800469  1
  O  O63  1  0.35294802  0.85827318  0.57852171  1
  O  O64  1  0.50565751  0.64953702  0.57811535  1
  O  O65  1  0.14044148  0.49303785  0.57832261  1
  O  O66  1  0.31973450  0.82795394  0.25174167  1
  O  O67  1  0.53243980  0.68097094  0.25252564  1
  O  O68  1  0.15554124  0.46161581  0.25283181  1
  O  O69  1  0.32337087  0.49990522  0.76389555  1
  O  O70  1  0.18216207  0.68828400  0.76415813  1
  O  O71  1  0.52707083  0.83785063  0.75829685  1
loop_
_geom_bond_atom_site_label_1
_geom_bond_atom_site_label_2
_geom_bond_distance
_geom_bond_site_symmetry_2
Na0 O53 2.378275 1_565
Na0 O66 2.409709 1_555
Na0 O31 2.624726 1_555
Na0 O67 2.692773 1_555
Na0 O16 2.771428 1_565
Na0 O52 2.780267 1_565
Na1 O53 2.545852 1_555
Na1 O32 2.603007 1_555
Na1 O51 2.678179 1_555
Na1 O68 2.684877 1_555
Na1 O67 2.718613 1_555
Na1 O17 2.862244 1_555
Na1 O0 2.918456 1_555
Na2 O66 2.483284 1_555
Na2 O52 2.673957 1_455
Na2 O68 2.685868 1_555
Na2 O30 2.720820 1_555
Na2 O15 2.727378 1_455
Na2 O51 2.737866 1_455
Na2 O11 2.958756 1_555
Na3 O49 2.379026 1_555
Na3 O14 2.575043 1_555
Na3 O69 2.646500 1_555
Na3 O71 2.742945 1_555
Na3 O50 2.749329 1_555
Na4 O50 2.377953 1_455
Na4 O12 2.437372 1_455
Na4 O69 2.688458 1_555
Na4 O70 2.692279 1_555
Na4 O7 2.733914 1_555
Na4 O48 2.819718 1_455
Na5 O13 2.539873 1_555
Na5 O48 2.637335 1_555
Na5 O70 2.646316 1_545
Na5 O49 2.683408 1_555
Na5 O8 2.729652 1_545
Na5 O71 2.842061 1_545
Na6 O65 2.522164 1_555
Na6 O43 2.530840 1_555
Na6 O64 2.554912 1_555
Na6 O28 2.713529 1_555
Na6 O42 2.774257 1_455
Na6 O7 2.879397 1_555
Na7 O63 2.547879 1_555
Na7 O65 2.560874 1_555
Na7 O44 2.562278 1_455
Na7 O29 2.713426 1_555
Na7 O43 2.775041 1_565
Na7 O8 2.863407 1_555
Na8 O42 2.496977 1_565
Na8 O64 2.527160 1_555
Na8 O63 2.578676 1_555
Na8 O27 2.580207 1_555
Na8 O44 2.709704 1_555
Na9 O62 2.536131 1_555
Na9 O61 2.542732 1_555
Na9 O47 2.574273 1_565
Na9 O26 2.650426 1_554
Na9 O11 2.784479 1_555
Na9 O45 2.830719 1_455
Na10 O45 2.499308 1_555
Na10 O24 2.505187 1_554
Na10 O62 2.527444 1_555
Na10 O60 2.547358 1_555
Na10 O46 2.767035 1_565
Na10 O9 2.992438 1_555
Na11 O46 2.524778 1_455
Na11 O25 2.525310 1_554
Na11 O60 2.534872 1_555
Na11 O61 2.539674 1_555
Na11 O47 2.744519 1_555
Na11 O10 2.983599 1_555
Na12 O41 2.468445 1_555
Na12 O55 2.547628 1_555
Na12 O4 2.623745 1_555
Na12 O40 2.676674 1_655
Na12 O54 2.766417 1_555
Na12 O19 2.968490 1_556
Na13 O39 2.389396 1_555
Na13 O56 2.558603 1_555
Na13 O41 2.614876 1_545
Na13 O20 2.821464 1_556
Na13 O55 2.836220 1_555
Na13 O5 2.855962 1_555
Na13 O24 2.984391 1_545
Na13 O34 3.062729 1_545
Na14 O40 2.437331 1_545
Na14 O54 2.563332 1_555
Na14 O3 2.585943 1_555
Na14 O39 2.777544 1_455
Na14 O56 2.789346 1_555
Na14 O18 2.939324 1_556
Na15 O37 2.424766 1_555
Na15 O59 2.640048 1_555
Na15 O57 2.682973 1_555
Na15 O38 2.751201 1_655
Na15 O23 2.787389 1_555
Na15 O28 2.917079 1_655
Na15 O30 2.977699 1_655
Na15 O2 3.042373 1_555
Na16 O38 2.485109 1_555
Na16 O57 2.624460 1_555
Na16 O58 2.649480 1_555
Na16 O0 2.849049 1_555
Na16 O36 2.878845 1_445
Na16 O21 2.881321 1_555
Na16 O31 2.939121 1_545
Na16 O29 2.958218 1_545
Na17 O36 2.404987 1_555
Na17 O58 2.645615 1_555
Na17 O59 2.691931 1_555
Na17 O22 2.761355 1_555
Na17 O37 2.823876 1_565
Na17 O27 2.871931 1_555
Na17 O32 3.014988 1_555
Na17 O1 3.038114 1_555
Na18 O42 2.498417 1_555
Na18 O44 2.517480 1_545
Na18 O43 2.526357 1_655
Na18 O38 2.699857 1_655
Na18 O37 2.727865 1_555
Na18 O36 2.739659 1_545
Na19 O47 2.543559 1_666
Na19 O46 2.544861 1_566
Na19 O45 2.548488 1_556
Na19 O41 2.727543 1_555
Na19 O40 2.743592 1_655
Na19 O39 2.757849 1_565
Na20 O49 2.479859 1_555
Na20 O50 2.525735 1_555
Na20 O54 2.573843 1_555
Na20 O55 2.678413 1_555
Na20 O56 2.696032 1_555
Na20 O48 2.808801 1_555
Na21 O58 2.461202 1_555
Na21 O57 2.470495 1_555
Na21 O59 2.590762 1_555
Na21 O53 2.598940 1_555
Na21 O51 2.939876 1_555
Na21 O52 2.963696 1_555
Na22 O61 2.500490 1_555
Na22 O62 2.511614 1_555
Na22 O66 2.600612 1_555
Na22 O60 2.636188 1_555
Na22 O67 2.887696 1_555
Na22 O68 2.899976 1_555
Na23 O65 2.427078 1_555
Na23 O63 2.477893 1_555
Na23 O64 2.494027 1_555
O0 Si0 1.635763 1_545
O0 Y0 2.165867 1_555
O1 S0 1.481929 1_555
O1 Y0 2.350086 1_665
O2 S1 1.483850 1_655
O2 Y0 2.353775 1_655
O3 Si1 1.619953 1_555
O3 Y1 2.163733 1_545
O4 Si2 1.622888 1_655
O4 Y1 2.167394 1_655
O5 S2 1.476568 1_545
O5 Y1 2.341116 1_645
O6 S2 1.490019 1_555
O6 Y2 2.516163 1_665
O7 Si1 1.647204 1_555
O7 Y2 2.279846 1_555
O8 Si2 1.648877 1_555
O8 Y2 2.283267 1_565
O9 S0 1.486808 1_555
O9 Y3 2.407365 1_655
O10 S1 1.485171 1_555
O10 Y3 2.411911 1_545
O11 Si0 1.654331 1_555
O11 Y3 2.180406 1_555
O12 Si3 1.624388 1_555
O12 Y4 2.166483 1_555
O13 Si4 1.624974 1_555
O13 Y4 2.166581 1_555
O14 Si5 1.627855 1_555
O14 Y4 2.121526 1_555
O15 Si6 1.623392 1_555
O15 Y5 2.166923 1_555
O16 Si7 1.624800 1_555
O16 Y5 2.113062 1_555
O17 Si8 1.623296 1_555
O17 Y5 2.114498 1_555
O18 Si8 1.715598 1_555
O18 Ta0 1.952033 1_554
O19 Si6 1.712317 1_555
O19 Ta0 1.948237 1_554
O20 Si7 1.716853 1_555
O20 Ta0 1.958323 1_554
O21 Si4 1.692053 1_555
O21 Ta1 1.954275 1_555
O22 Si5 1.699457 1_555
O22 Ta1 1.965181 1_555
O23 Si3 1.698708 1_555
O23 Ta1 1.954723 1_555
O24 Si9 1.606779 1_555
O24 Y6 2.184527 1_556
O25 Si10 1.601509 1_555
O25 Y6 2.197120 1_556
O26 Si11 1.603855 1_555
O26 Y6 2.168909 1_556
O27 Si12 1.620553 1_555
O27 Y7 2.210756 1_555
O28 Si13 1.616396 1_555
O28 Y7 2.178349 1_555
O29 Si14 1.617325 1_555
O29 Y7 2.194737 1_555
O30 Si14 1.655322 1_555
O30 Y8 2.178975 1_555
O31 Si12 1.654671 1_555
O31 Y8 2.170462 1_555
O32 Si13 1.655856 1_555
O32 Y8 2.240097 1_555
O33 Si10 1.730722 1_555
O33 Ta2 1.906101 1_555
O34 Si11 1.705983 1_555
O34 Ta2 2.001053 1_555
O35 Si9 1.702225 1_555
O35 Ta2 1.994970 1_555
O36 Si14 1.637410 1_655
O36 Y0 2.169252 1_665
O37 Si12 1.631856 1_545
O37 Y0 2.230443 1_655
O38 Si13 1.638404 1_555
O38 Y0 2.164439 1_555
O39 Si10 1.616166 1_655
O39 Y1 2.276432 1_645
O40 Si11 1.628988 1_555
O40 Y1 2.209370 1_555
O41 Si9 1.623377 1_555
O41 Y1 2.266811 1_655
O42 Si3 1.643988 1_555
O42 Y2 2.304889 1_655
O43 Si4 1.649194 1_555
O43 Y2 2.211392 1_555
O44 Si5 1.642190 1_555
O44 Y2 2.305775 1_665
O45 Si6 1.649520 1_555
O45 Y3 2.215310 1_655
O46 Si7 1.641401 1_555
O46 Y3 2.299857 1_645
O47 Si8 1.645975 1_555
O47 Y3 2.219384 1_545
O48 S2 1.490706 1_545
O48 Y4 2.482482 1_555
O49 Si1 1.645281 1_555
O49 Y4 2.320589 1_555
O50 Si2 1.641982 1_655
O50 Y4 2.307004 1_555
O51 S0 1.495511 1_555
O51 Y5 2.437531 1_555
O52 S1 1.491782 1_655
O52 Y5 2.439325 1_555
O53 Si0 1.666684 1_545
O53 Y5 2.273591 1_555
O54 Si9 1.683943 1_555
O54 Ta0 2.112856 1_555
O55 Si10 1.668180 1_655
O55 Ta0 2.107156 1_555
O56 Si11 1.679635 1_545
O56 Ta0 2.099770 1_555
O57 Si12 1.673445 1_545
O57 Ta1 2.046881 1_555
O58 Si13 1.675020 1_555
O58 Ta1 2.060456 1_555
O59 Si14 1.668154 1_655
O59 Ta1 2.035592 1_555
O60 Si8 1.622898 1_555
O60 Y6 2.248779 1_555
O61 Si6 1.627953 1_455
O61 Y6 2.279205 1_555
O62 Si7 1.628472 1_565
O62 Y6 2.267208 1_555
O63 Si4 1.626703 1_565
O63 Y7 2.263262 1_555
O64 Si5 1.629355 1_555
O64 Y7 2.267415 1_555
O65 Si3 1.633041 1_455
O65 Y7 2.291942 1_555
O66 Si0 1.671056 1_555
O66 Y8 2.295181 1_555
O67 S0 1.492829 1_555
O67 Y8 2.541926 1_555
O68 S1 1.496067 1_555
O68 Y8 2.511746 1_555
O69 Si1 1.708652 1_555
O69 Ta2 1.999326 1_555
O70 Si2 1.709690 1_555
O70 Ta2 1.993291 1_555
O71 S2 1.504093 1_555
O71 Ta2 2.365653 1_555
