# generated using pymatgen
data_NaLaTiSi(SO6)2
_symmetry_space_group_name_H-M   'P 1'
_cell_length_a   9.20945016
_cell_length_b   9.24478925
_cell_length_c   23.64456265
_cell_angle_alpha   91.11981601
_cell_angle_beta   90.00000000
_cell_angle_gamma   119.87362993
_symmetry_Int_Tables_number   1
_chemical_formula_structural   NaLaTiSi(SO6)2
_chemical_formula_sum   'Na6 La6 Ti6 Si6 S12 O72'
_cell_volume   1745.15466489
_cell_formula_units_Z   6
loop_
 _symmetry_equiv_pos_site_id
 _symmetry_equiv_pos_as_xyz
  1  'x, y, z'
loop_
 _atom_site_type_symbol
 _atom_site_label
 _atom_site_symmetry_multiplicity
 _atom_site_fract_x
 _atom_site_fract_y
 _atom_site_fract_z
 _atom_site_occupancy
  Na  Na0  1  0.01264827  0.99680313  0.49749871  1
  Na  Na1  1  0.98415486  0.99680313  0.99749871  1
  Na  Na2  1  0.69431932  0.34815330  0.82988467  1
  Na  Na3  1  0.65383498  0.34815330  0.32988467  1
  Na  Na4  1  0.33599929  0.68496040  0.16299216  1
  Na  Na5  1  0.34896011  0.68496040  0.66299216  1
  La  La0  1  0.00226851  0.99652278  0.64579106  1
  La  La1  1  0.99425426  0.99652278  0.14579106  1
  La  La2  1  0.67122645  0.32825041  0.97926992  1
  La  La3  1  0.65702497  0.32825041  0.47926992  1
  La  La4  1  0.33747814  0.66864917  0.31215437  1
  La  La5  1  0.33117003  0.66864917  0.81215437  1
  Ti  Ti0  1  0.03659364  0.01297974  0.35339160  1
  Ti  Ti1  1  0.97638611  0.01297974  0.85339160  1
  Ti  Ti2  1  0.65015200  0.29217218  0.68637827  1
  Ti  Ti3  1  0.64202118  0.29217218  0.18637827  1
  Ti  Ti4  1  0.32196137  0.66570485  0.01881138  1
  Ti  Ti5  1  0.34374248  0.66570485  0.51881138  1
  Si  Si0  1  0.30219321  0.01188530  0.24846769  1
  Si  Si1  1  0.70969209  0.01188530  0.74846769  1
  Si  Si2  1  0.37640915  0.01743664  0.58092542  1
  Si  Si3  1  0.64102849  0.01743664  0.08092542  1
  Si  Si4  1  0.05181249  0.37093577  0.91599091  1
  Si  Si5  1  0.31912228  0.37093577  0.41599091  1
  S  S0  1  0.71955278  0.69137810  0.25170627  1
  S  S1  1  0.97208068  0.28243781  0.25193572  1
  S  S2  1  0.31035713  0.28243781  0.75193572  1
  S  S3  1  0.97182533  0.69137810  0.75170627  1
  S  S4  1  0.97366079  0.35674990  0.58486026  1
  S  S5  1  0.64082240  0.61970605  0.58307534  1
  S  S6  1  0.97888465  0.61970605  0.08307534  1
  S  S7  1  0.38309010  0.35674990  0.08486026  1
  S  S8  1  0.64127184  0.69220072  0.91815448  1
  S  S9  1  0.30387871  0.94645404  0.92098689  1
  S  S10  1  0.64257434  0.94645404  0.42098689  1
  S  S11  1  0.05092788  0.69220072  0.41815448  1
  O  O0  1  0.20053645  0.03508326  0.30686661  1
  O  O1  1  0.82278833  0.78861330  0.30226725  1
  O  O2  1  0.96134519  0.18035987  0.30136920  1
  O  O3  1  0.21901469  0.18035987  0.80136920  1
  O  O4  1  0.96582497  0.78861330  0.80226725  1
  O  O5  1  0.83454682  0.03508326  0.80686661  1
  O  O6  1  0.79804067  0.99425093  0.69392408  1
  O  O7  1  0.21663859  0.21198338  0.69880682  1
  O  O8  1  0.99589521  0.78461156  0.69943840  1
  O  O9  1  0.78871635  0.78461156  0.19943840  1
  O  O10  1  0.99534480  0.21198338  0.19880682  1
  O  O11  1  0.19621027  0.99425093  0.19392408  1
  O  O12  1  0.87709676  0.36697931  0.63523265  1
  O  O13  1  0.50395815  0.12764618  0.64030880  1
  O  O14  1  0.62428585  0.52043076  0.63318848  1
  O  O15  1  0.89614591  0.52043076  0.13318848  1
  O  O16  1  0.62368903  0.12764618  0.14030880  1
  O  O17  1  0.48988354  0.36697931  0.13523265  1
  O  O18  1  0.45375796  0.33481699  0.03228857  1
  O  O19  1  0.88360011  0.55038592  0.03062200  1
  O  O20  1  0.66755423  0.13497093  0.02967599  1
  O  O21  1  0.46741770  0.13497093  0.52967599  1
  O  O22  1  0.66678680  0.55038592  0.53062200  1
  O  O23  1  0.88106004  0.33481699  0.53228857  1
  O  O24  1  0.55420334  0.71075874  0.96843926  1
  O  O25  1  0.17650124  0.48171500  0.97231354  1
  O  O26  1  0.30300432  0.84150972  0.97019971  1
  O  O27  1  0.53850440  0.84150972  0.47019971  1
  O  O28  1  0.30521276  0.48171500  0.47231354  1
  O  O29  1  0.15655440  0.71075874  0.46843926  1
  O  O30  1  0.12089031  0.66829865  0.36542155  1
  O  O31  1  0.54617962  0.87993021  0.36798928  1
  O  O32  1  0.33021903  0.46663225  0.35996384  1
  O  O33  1  0.13641222  0.46663225  0.85996384  1
  O  O34  1  0.33374958  0.87993021  0.86798928  1
  O  O35  1  0.54740735  0.66829865  0.86542155  1
  O  O36  1  0.04297573  0.85346684  0.41270334  1
  O  O37  1  0.80257790  0.94500576  0.41912258  1
  O  O38  1  0.13926954  0.17832706  0.40548877  1
  O  O39  1  0.03905753  0.17832706  0.90548877  1
  O  O40  1  0.14242787  0.94500576  0.91912258  1
  O  O41  1  0.81049111  0.85346684  0.91270334  1
  O  O42  1  0.00429363  0.21412520  0.58930655  1
  O  O43  1  0.18816270  0.98158437  0.58696028  1
  O  O44  1  0.77821573  0.79476961  0.58730013  1
  O  O45  1  0.01655387  0.79476961  0.08730013  1
  O  O46  1  0.79342168  0.98158437  0.08696028  1
  O  O47  1  0.20983157  0.21412520  0.08930655  1
  O  O48  1  0.70456329  0.19221731  0.73996852  1
  O  O49  1  0.47827380  0.28824564  0.74671793  1
  O  O50  1  0.81344525  0.52618253  0.74745374  1
  O  O51  1  0.71273828  0.52618253  0.24745374  1
  O  O52  1  0.80997284  0.28824564  0.24671793  1
  O  O53  1  0.48765503  0.19221731  0.23996852  1
  O  O54  1  0.67398483  0.55274241  0.92330423  1
  O  O55  1  0.86107943  0.33001482  0.91933452  1
  O  O56  1  0.44314085  0.11975007  0.92655855  1
  O  O57  1  0.67661022  0.11975007  0.42655855  1
  O  O58  1  0.46893640  0.33001482  0.41933452  1
  O  O59  1  0.87875857  0.55274241  0.42330423  1
  O  O60  1  0.37599620  0.51623815  0.08244851  1
  O  O61  1  0.14787962  0.62609419  0.07674914  1
  O  O62  1  0.46466759  0.83550274  0.07057612  1
  O  O63  1  0.37083416  0.83550274  0.57057612  1
  O  O64  1  0.47821357  0.62609419  0.57674914  1
  O  O65  1  0.14024095  0.51623815  0.58244851  1
  O  O66  1  0.34425464  0.86499939  0.25358954  1
  O  O67  1  0.54564655  0.66222491  0.25508869  1
  O  O68  1  0.11114803  0.45615172  0.25673770  1
  O  O69  1  0.34500269  0.45615172  0.75673770  1
  O  O70  1  0.11657735  0.66222491  0.75508869  1
  O  O71  1  0.52074375  0.86499939  0.75358954  1
loop_
_geom_bond_atom_site_label_1
_geom_bond_atom_site_label_2
_geom_bond_distance
_geom_bond_site_symmetry_2
Na0 O36 2.473581 1_555
Na0 O37 2.539447 1_455
Na0 O38 2.665000 1_565
Na0 O43 2.710185 1_555
Na0 O42 2.956027 1_565
Na0 O44 2.965837 1_455
Na1 O41 2.473581 1_555
Na1 O40 2.539447 1_655
Na1 O39 2.665000 1_665
Na1 O46 2.710185 1_556
Na1 O47 2.956027 1_666
Na1 O45 2.965837 1_656
Na2 O50 2.457197 1_555
Na2 O48 2.573476 1_555
Na2 O49 2.644253 1_555
Na2 O55 2.670271 1_555
Na2 O54 2.946359 1_555
Na3 O51 2.457197 1_555
Na3 O53 2.573476 1_555
Na3 O52 2.644253 1_555
Na3 O58 2.670271 1_555
Na3 O59 2.946359 1_555
Na4 O61 2.544267 1_555
Na4 O62 2.567470 1_555
Na4 O60 2.579094 1_555
Na4 O66 2.664472 1_555
Na4 O67 2.989303 1_555
Na4 O68 3.081466 1_555
Na5 O64 2.544267 1_555
Na5 O63 2.567470 1_555
Na5 O65 2.579094 1_555
Na5 O71 2.664472 1_555
Na5 O70 2.989303 1_555
Na5 O69 3.081466 1_555
La0 O6 2.189695 1_455
La0 O43 2.261180 1_555
La0 O7 2.328421 1_565
La0 O8 2.330882 1_455
La0 O44 2.390490 1_455
La0 O42 2.428698 1_565
La1 O11 2.189696 1_655
La1 O46 2.261180 1_555
La1 O10 2.328421 1_565
La1 O9 2.330882 1_555
La1 O45 2.390490 1_655
La1 O47 2.428698 1_665
La2 O20 2.153461 1_556
La2 O55 2.244574 1_555
La2 O19 2.327711 1_556
La2 O56 2.356639 1_555
La2 O18 2.388392 1_556
La2 O54 2.472601 1_555
La3 O21 2.153461 1_555
La3 O58 2.244574 1_555
La3 O22 2.327711 1_555
La3 O57 2.356639 1_555
La3 O23 2.388392 1_555
La3 O59 2.472601 1_555
La4 O32 2.174497 1_555
La4 O66 2.280747 1_555
La4 O31 2.326292 1_555
La4 O30 2.357682 1_555
La4 O67 2.368490 1_555
La4 O68 2.396049 1_555
La5 O33 2.174497 1_555
La5 O71 2.280747 1_555
La5 O34 2.326292 1_555
La5 O35 2.357683 1_555
La5 O70 2.368491 1_555
La5 O69 2.396049 1_555
O0 Si0 1.737113 1_555
O0 Ti0 1.798028 1_555
O1 S0 1.499263 1_555
O1 Ti0 2.339680 1_665
O2 S1 1.488846 1_555
O2 Ti0 2.351664 1_655
O3 S2 1.488846 1_555
O3 Ti1 2.351664 1_455
O4 S3 1.499263 1_555
O4 Ti1 2.339680 1_565
O5 Si1 1.737113 1_555
O5 Ti1 1.798028 1_555
O6 Si1 1.573446 1_565
O7 S2 1.468073 1_555
O8 S3 1.473323 1_555
O9 S0 1.473323 1_555
O10 S1 1.468073 1_555
O11 Si0 1.573446 1_565
O12 S4 1.515829 1_555
O12 Ti2 2.213994 1_555
O13 Si2 1.772350 1_555
O13 Ti2 1.791078 1_555
O14 S5 1.474034 1_555
O14 Ti2 2.587638 1_555
O15 S6 1.474034 1_555
O15 Ti3 2.587638 1_555
O16 Si3 1.772350 1_555
O16 Ti3 1.791078 1_555
O17 S7 1.515829 1_555
O17 Ti3 2.213994 1_555
O18 S7 1.459935 1_555
O19 S6 1.458643 1_555
O20 Si3 1.579798 1_555
O21 Si2 1.579798 1_555
O22 S5 1.458643 1_555
O23 S4 1.459935 1_555
O24 S8 1.488322 1_555
O24 Ti4 2.301854 1_556
O25 Si4 1.707666 1_555
O25 Ti4 1.885076 1_556
O26 S9 1.526982 1_555
O26 Ti4 2.085381 1_556
O27 S10 1.526982 1_555
O27 Ti5 2.085381 1_555
O28 Si5 1.707666 1_555
O28 Ti5 1.885076 1_555
O29 S11 1.488322 1_555
O29 Ti5 2.301854 1_555
O30 S11 1.466171 1_555
O31 S10 1.470574 1_555
O32 Si5 1.582338 1_555
O33 Si4 1.582338 1_555
O34 S9 1.470574 1_555
O35 S8 1.466171 1_555
O36 S11 1.536538 1_555
O36 Ti0 2.076533 1_565
O37 S10 1.480908 1_555
O37 Ti0 2.478731 1_665
O38 Si5 1.737939 1_555
O38 Ti0 1.798507 1_555
O39 Si4 1.737943 1_555
O39 Ti1 1.798507 1_455
O40 S9 1.480898 1_555
O40 Ti1 2.478731 1_465
O41 S8 1.536543 1_555
O41 Ti1 2.076533 1_565
O42 S4 1.484973 1_455
O43 Si2 1.601618 1_565
O44 S5 1.477835 1_555
O45 S6 1.477837 1_455
O46 Si3 1.601609 1_565
O47 S7 1.484979 1_555
O48 Si1 1.706892 1_555
O48 Ti2 1.793772 1_555
O49 S2 1.525472 1_555
O49 Ti2 2.118295 1_555
O50 S3 1.498296 1_555
O50 Ti2 2.379941 1_555
O51 S0 1.498300 1_555
O51 Ti3 2.379941 1_555
O52 S1 1.525463 1_555
O52 Ti3 2.118295 1_555
O53 Si0 1.706897 1_555
O53 Ti3 1.793772 1_555
O54 S8 1.469984 1_555
O55 Si4 1.604375 1_655
O56 S9 1.474380 1_545
O57 S10 1.474374 1_545
O58 Si5 1.604393 1_555
O59 S11 1.469972 1_655
O60 S7 1.510206 1_555
O60 Ti4 2.277558 1_555
O61 S6 1.535211 1_455
O61 Ti4 2.003939 1_555
O62 Si3 1.670137 1_565
O62 Ti4 1.886575 1_555
O63 Si2 1.670128 1_565
O63 Ti5 1.886575 1_555
O64 S5 1.535229 1_555
O64 Ti5 2.003939 1_555
O65 S4 1.510197 1_455
O65 Ti5 2.277558 1_555
O66 Si0 1.593460 1_565
O67 S0 1.488267 1_555
O68 S1 1.475189 1_455
O69 S2 1.475192 1_555
O70 S3 1.488257 1_455
O71 Si1 1.593467 1_565
