# generated using pymatgen
data_CaSi2
_symmetry_space_group_name_H-M   'P 1'
_cell_length_a   5.72481075
_cell_length_b   5.72480993
_cell_length_c   5.72481036
_cell_angle_alpha   39.17310430
_cell_angle_beta   39.17310943
_cell_angle_gamma   39.17310497
_symmetry_Int_Tables_number   1
_chemical_formula_structural   CaSi2
_chemical_formula_sum   'Ca1 Si2'
_cell_volume   67.34593911
_cell_formula_units_Z   1
loop_
 _symmetry_equiv_pos_site_id
 _symmetry_equiv_pos_as_xyz
  1  'x, y, z'
loop_
 _atom_site_type_symbol
 _atom_site_label
 _atom_site_symmetry_multiplicity
 _atom_site_fract_x
 _atom_site_fract_y
 _atom_site_fract_z
 _atom_site_occupancy
  Ca  Ca0  1  0.00000000  -0.00000000  -0.00000000  1
  Si  Si0  1  0.80316045  0.80316045  0.80316045  1
  Si  Si1  1  0.19683955  0.19683955  0.19683955  1
loop_
_geom_bond_atom_site_label_1
_geom_bond_atom_site_label_2
_geom_bond_distance
_geom_bond_site_symmetry_2
Ca0 Si0 3.095582 1_454
Ca0 Si1 3.095582 1_545
Ca0 Si0 3.095582 1_445
Ca0 Si1 3.095582 1_554
Ca0 Si1 3.095583 1_455
Ca0 Si0 3.095583 1_544
Ca0 Si0 3.117061 1_444
Ca0 Si1 3.117061 1_555
Si0 Si1 2.413283 1_656
Si0 Si1 2.413284 1_566
Si0 Si1 2.413284 1_665
