# generated using pymatgen
data_Li8GeO6
_symmetry_space_group_name_H-M   'P 1'
_cell_length_a   5.45853643
_cell_length_b   5.45853858
_cell_length_c   10.64602565
_cell_angle_alpha   89.99995823
_cell_angle_beta   90.00000144
_cell_angle_gamma   119.99901416
_symmetry_Int_Tables_number   1
_chemical_formula_structural   Li8GeO6
_chemical_formula_sum   'Li16 Ge2 O12'
_cell_volume   274.71036823
_cell_formula_units_Z   2
loop_
 _symmetry_equiv_pos_site_id
 _symmetry_equiv_pos_as_xyz
  1  'x, y, z'
loop_
 _atom_site_type_symbol
 _atom_site_label
 _atom_site_symmetry_multiplicity
 _atom_site_fract_x
 _atom_site_fract_y
 _atom_site_fract_z
 _atom_site_occupancy
  Li  Li0  1  -0.00002231  0.31174693  0.27014560  1
  Li  Li1  1  0.68824546  0.00002101  0.77014133  1
  Li  Li2  1  0.33334765  0.66668177  0.41047833  1
  Li  Li3  1  0.66665344  0.33331747  0.91047450  1
  Li  Li4  1  0.33331752  0.66665180  0.91047449  1
  Li  Li5  1  0.66668349  0.33334846  0.41047843  1
  Li  Li6  1  0.39810714  0.00000497  0.63035417  1
  Li  Li7  1  0.39808434  0.39808522  0.13034796  1
  Li  Li8  1  -0.00000411  0.60188882  0.13033820  1
  Li  Li9  1  0.00000500  0.39810789  0.63035416  1
  Li  Li10  1  0.60191716  0.60191756  0.63036361  1
  Li  Li11  1  0.60188872  -0.00000289  0.13033787  1
  Li  Li12  1  0.31174625  -0.00002224  0.27014557  1
  Li  Li13  1  0.68824260  0.68824230  0.27014073  1
  Li  Li14  1  0.00002230  0.68824479  0.77014082  1
  Li  Li15  1  0.31176213  0.31176223  0.77013708  1
  Ge  Ge0  1  -0.00000464  -0.00000436  0.49942841  1
  Ge  Ge1  1  0.00000493  0.00000559  0.99940912  1
  O  O0  1  -0.00000326  0.30771387  0.45221953  1
  O  O1  1  0.69228745  0.69228708  0.45221934  1
  O  O2  1  0.00000095  0.00000121  0.16827674  1
  O  O3  1  -0.00000120  -0.00000101  0.66831114  1
  O  O4  1  0.33333535  0.66666890  0.21906783  1
  O  O5  1  0.66666469  0.33333140  0.71906975  1
  O  O6  1  0.33333125  0.66666466  0.71906991  1
  O  O7  1  0.69228044  0.00000400  0.95219717  1
  O  O8  1  0.30771380  -0.00000383  0.45221948  1
  O  O9  1  0.30772033  0.30772066  0.95219721  1
  O  O10  1  0.00000447  0.69228003  0.95219682  1
  O  O11  1  0.66666866  0.33333572  0.21906770  1
loop_
_geom_bond_atom_site_label_1
_geom_bond_atom_site_label_2
_geom_bond_distance
_geom_bond_site_symmetry_2
Li0 O0 1.938489 1_555
Li0 O11 1.958090 1_455
Li0 O4 1.958303 1_555
Li0 O2 2.017934 1_555
Li1 O7 1.938297 1_555
Li1 O5 1.958056 1_555
Li1 O6 1.958259 1_545
Li1 O3 2.017744 1_655
Li2 O8 1.944704 1_565
Li2 O1 1.944729 1_555
Li2 O0 1.944876 1_555
Li2 O4 2.037761 1_555
Li3 O7 1.944633 1_555
Li3 O9 1.944669 1_555
Li3 O10 1.944815 1_655
Li3 O5 2.037700 1_555
Li4 O10 1.944633 1_555
Li4 O9 1.944658 1_555
Li4 O7 1.944820 1_565
Li4 O6 2.037698 1_555
Li5 O0 1.944699 1_655
Li5 O1 1.944727 1_555
Li5 O8 1.944884 1_555
Li5 O11 2.037764 1_555
Li6 O5 1.919459 1_555
Li6 O6 1.919496 1_545
Li6 O8 1.959558 1_555
Li6 O3 2.210324 1_555
Li7 O4 1.919517 1_555
Li7 O11 1.919520 1_555
Li7 O9 1.959692 1_554
Li7 O2 2.210185 1_555
Li8 O11 1.919526 1_455
Li8 O4 1.919559 1_555
Li8 O10 1.959624 1_554
Li8 O2 2.210314 1_565
Li9 O6 1.919457 1_555
Li9 O5 1.919495 1_455
Li9 O0 1.959559 1_555
Li9 O3 2.210327 1_555
Li10 O6 1.919450 1_555
Li10 O5 1.919451 1_555
Li10 O1 1.959632 1_555
Li10 O3 2.210211 1_665
Li11 O4 1.919531 1_545
Li11 O11 1.919557 1_555
Li11 O7 1.959619 1_554
Li11 O2 2.210315 1_655
Li12 O8 1.938489 1_555
Li12 O4 1.958091 1_545
Li12 O11 1.958305 1_555
Li12 O2 2.017931 1_555
Li13 O1 1.938539 1_555
Li13 O11 1.958161 1_555
Li13 O4 1.958165 1_555
Li13 O2 2.017932 1_665
Li14 O10 1.938299 1_555
Li14 O6 1.958044 1_555
Li14 O5 1.958259 1_455
Li14 O3 2.017748 1_565
Li15 O9 1.938342 1_555
Li15 O6 1.958133 1_555
Li15 O5 1.958134 1_555
Li15 O3 2.017737 1_555
Ge0 O1 1.753243 1_445
Ge0 O0 1.753267 1_555
Ge0 O8 1.753270 1_555
Ge0 O3 1.797930 1_555
Ge1 O9 1.753288 1_555
Ge1 O7 1.753308 1_455
Ge1 O10 1.753319 1_545
Ge1 O2 1.797769 1_556
