# generated using pymatgen
data_Na6Y5Nb3(PO4)12
_symmetry_space_group_name_H-M   'P 1'
_cell_length_a   18.18695406
_cell_length_b   9.09155247
_cell_length_c   23.38308063
_cell_angle_alpha   90.05215949
_cell_angle_beta   89.95025690
_cell_angle_gamma   119.95465876
_symmetry_Int_Tables_number   1
_chemical_formula_structural   Na6Y5Nb3(PO4)12
_chemical_formula_sum   'Na18 Y15 Nb9 P36 O144'
_cell_volume   3349.87338113
_cell_formula_units_Z   3
loop_
 _symmetry_equiv_pos_site_id
 _symmetry_equiv_pos_as_xyz
  1  'x, y, z'
loop_
 _atom_site_type_symbol
 _atom_site_label
 _atom_site_symmetry_multiplicity
 _atom_site_fract_x
 _atom_site_fract_y
 _atom_site_fract_z
 _atom_site_occupancy
  Na  Na0  1  0.68056785  0.36991230  0.25042919  1
  Na  Na1  1  0.00288166  0.63634576  0.25115087  1
  Na  Na2  1  0.00114419  0.36922859  0.74759945  1
  Na  Na3  1  0.50121823  0.36923084  0.74790889  1
  Na  Na4  1  0.18193272  0.99348772  0.74733262  1
  Na  Na5  1  0.68187456  0.99359510  0.74773127  1
  Na  Na6  1  0.00036250  0.99954403  0.50386510  1
  Na  Na7  1  0.49990515  0.00026750  0.50421561  1
  Na  Na8  1  0.99847436  0.99662844  0.00486678  1
  Na  Na9  1  0.50207271  0.00459514  0.00405493  1
  Na  Na10  1  0.33334157  0.34561035  0.83568652  1
  Na  Na11  1  0.83275087  0.34488883  0.83664205  1
  Na  Na12  1  0.33299594  0.33294359  0.33799577  1
  Na  Na13  1  0.83308204  0.31957833  0.33685562  1
  Na  Na14  1  0.17303317  0.66428208  0.16891057  1
  Na  Na15  1  0.66781211  0.68492359  0.16855835  1
  Na  Na16  1  0.17455530  0.66638449  0.66156099  1
  Na  Na17  1  0.67438486  0.66607891  0.66208892  1
  Y  Y0  1  0.99791616  0.99581114  0.64389357  1
  Y  Y1  1  0.49801100  0.99570284  0.64388616  1
  Y  Y2  1  0.99807236  0.00151060  0.14605666  1
  Y  Y3  1  0.50013581  0.99968309  0.14523413  1
  Y  Y4  1  0.33290318  0.34285959  0.67959564  1
  Y  Y5  1  0.83294766  0.34279363  0.67967178  1
  Y  Y6  1  0.83267747  0.32130072  0.18239884  1
  Y  Y7  1  0.33322527  0.33138397  0.97980422  1
  Y  Y8  1  0.83353987  0.33261578  0.98171037  1
  Y  Y9  1  0.33313627  0.33218516  0.48173140  1
  Y  Y10  1  0.83350512  0.33390811  0.48068599  1
  Y  Y11  1  0.17209715  0.66859917  0.31488702  1
  Y  Y12  1  0.66559081  0.67315030  0.31572032  1
  Y  Y13  1  0.17054502  0.66602216  0.81776928  1
  Y  Y14  1  0.67074393  0.66678816  0.81792587  1
  Nb  Nb0  1  0.00190532  0.00540846  0.35474721  1
  Nb  Nb1  1  0.49697949  0.99557724  0.35434262  1
  Nb  Nb2  1  0.99841633  0.99733628  0.85679095  1
  Nb  Nb3  1  0.49889328  0.99737373  0.85612433  1
  Nb  Nb4  1  0.33370565  0.33529116  0.18494549  1
  Nb  Nb5  1  0.16792940  0.66926685  0.01869461  1
  Nb  Nb6  1  0.66482622  0.66272001  0.01748936  1
  Nb  Nb7  1  0.16569135  0.66653413  0.51555886  1
  Nb  Nb8  1  0.66606051  0.66755201  0.51534792  1
  P  P0  1  0.14705144  0.00976592  0.24988951  1
  P  P1  1  0.64430838  0.00523418  0.25198666  1
  P  P2  1  0.35795974  0.70372724  0.24919682  1
  P  P3  1  0.85634408  0.70818835  0.25237193  1
  P  P4  1  0.99832681  0.29019341  0.25247403  1
  P  P5  1  0.49442230  0.28309567  0.25028694  1
  P  P6  1  0.14283645  0.28265351  0.75298638  1
  P  P7  1  0.64295549  0.28308088  0.75287392  1
  P  P8  1  0.99860701  0.70944878  0.75365502  1
  P  P9  1  0.49863379  0.70923325  0.75357662  1
  P  P10  1  0.35648600  0.00469401  0.75268233  1
  P  P11  1  0.85640214  0.00446463  0.75267803  1
  P  P12  1  0.48727811  0.34348737  0.58205371  1
  P  P13  1  0.98691762  0.34358559  0.58191503  1
  P  P14  1  0.18459869  0.02595320  0.58237083  1
  P  P15  1  0.68502883  0.02704652  0.58204870  1
  P  P16  1  0.32785954  0.63175383  0.57900978  1
  P  P17  1  0.82798244  0.63142040  0.57895963  1
  P  P18  1  0.48135386  0.61811912  0.08263190  1
  P  P19  1  0.98645228  0.63164105  0.08217440  1
  P  P20  1  0.32770992  0.03739135  0.08310715  1
  P  P21  1  0.82866041  0.02426361  0.07912627  1
  P  P22  1  0.19113144  0.34623051  0.08305955  1
  P  P23  1  0.68391795  0.33972758  0.08199703  1
  P  P24  1  0.31707546  0.67699986  0.91809204  1
  P  P25  1  0.81638965  0.67550934  0.91785109  1
  P  P26  1  0.02302569  0.36954024  0.91609985  1
  P  P27  1  0.52167001  0.36745962  0.91457612  1
  P  P28  1  0.16166510  0.95480301  0.91555488  1
  P  P29  1  0.66170246  0.95586855  0.91558975  1
  P  P30  1  0.31553089  0.95631381  0.41617964  1
  P  P31  1  0.81665578  0.95615224  0.41593906  1
  P  P32  1  0.16235426  0.36822552  0.41628202  1
  P  P33  1  0.66150837  0.36785945  0.41347345  1
  P  P34  1  0.02265410  0.67619217  0.41323997  1
  P  P35  1  0.52091573  0.67544166  0.41616076  1
  O  O0  1  0.10217624  0.03237270  0.30462760  1
  O  O1  1  0.59064906  0.01545421  0.30520057  1
  O  O2  1  0.41288356  0.79448443  0.30435953  1
  O  O3  1  0.91522966  0.81522349  0.30555949  1
  O  O4  1  0.48157687  0.16589943  0.30430981  1
  O  O5  1  0.99512887  0.17795561  0.30664521  1
  O  O6  1  0.09225243  0.16927268  0.80714588  1
  O  O7  1  0.59234065  0.16942495  0.80694763  1
  O  O8  1  0.49250590  0.80979782  0.80793512  1
  O  O9  1  0.99249091  0.81031041  0.80811487  1
  O  O10  1  0.41200455  0.01172605  0.80695056  1
  O  O11  1  0.91205889  0.01180141  0.80710720  1
  O  O12  1  0.39776549  0.98576409  0.69936126  1
  O  O13  1  0.89774392  0.98544769  0.69945399  1
  O  O14  1  0.09051542  0.20050607  0.69984272  1
  O  O15  1  0.59052390  0.20068478  0.69977408  1
  O  O16  1  0.01161496  0.81638774  0.70097370  1
  O  O17  1  0.51154576  0.81617854  0.70087857  1
  O  O18  1  0.39787309  0.80792221  0.19675739  1
  O  O19  1  0.89673289  0.80819956  0.19880101  1
  O  O20  1  0.00686778  0.20744675  0.19905468  1
  O  O21  1  0.51036551  0.20652330  0.19801227  1
  O  O22  1  0.09191005  0.97831691  0.19802502  1
  O  O23  1  0.59597343  0.99126197  0.19802355  1
  O  O24  1  0.45414844  0.37559050  0.63952778  1
  O  O25  1  0.95384023  0.37526439  0.63960394  1
  O  O26  1  0.23329334  0.09275495  0.63994837  1
  O  O27  1  0.73344365  0.09311062  0.63973680  1
  O  O28  1  0.31162406  0.52928221  0.63512520  1
  O  O29  1  0.81162808  0.52915543  0.63508380  1
  O  O30  1  0.43262877  0.50011879  0.13684679  1
  O  O31  1  0.95374145  0.53189874  0.13889959  1
  O  O32  1  0.31686742  0.13433734  0.13687342  1
  O  O33  1  0.81173815  0.09404339  0.13461500  1
  O  O34  1  0.25061506  0.36772359  0.13711919  1
  O  O35  1  0.73275790  0.37212947  0.13899229  1
  O  O36  1  0.23047638  0.32046445  0.03025961  1
  O  O37  1  0.73051640  0.31938709  0.03193023  1
  O  O38  1  0.42942197  0.53768132  0.02990830  1
  O  O39  1  0.93009311  0.53980532  0.03192397  1
  O  O40  1  0.34014433  0.14002259  0.02997849  1
  O  O41  1  0.84054709  0.13479248  0.02787180  1
  O  O42  1  0.23096336  0.14124034  0.53311774  1
  O  O43  1  0.73145576  0.14209260  0.53282158  1
  O  O44  1  0.34015617  0.54422825  0.52859994  1
  O  O45  1  0.84026688  0.54421051  0.52849438  1
  O  O46  1  0.42980334  0.32140600  0.53277036  1
  O  O47  1  0.92946270  0.32178179  0.53273165  1
  O  O48  1  0.26874195  0.69882081  0.97054624  1
  O  O49  1  0.76610063  0.69526933  0.96948391  1
  O  O50  1  0.08496195  0.47095834  0.96771444  1
  O  O51  1  0.58166523  0.46816858  0.96617507  1
  O  O52  1  0.15365797  0.83448325  0.96731967  1
  O  O53  1  0.65044195  0.83335597  0.96698459  1
  O  O54  1  0.26766853  0.83779900  0.46845623  1
  O  O55  1  0.76813811  0.83813721  0.46839806  1
  O  O56  1  0.15127898  0.46479695  0.46879668  1
  O  O57  1  0.65057629  0.46791851  0.46506858  1
  O  O58  1  0.08302095  0.69718097  0.46528707  1
  O  O59  1  0.58064180  0.69962491  0.46846083  1
  O  O60  1  0.06010421  0.65414369  0.35788499  1
  O  O61  1  0.55973318  0.65122941  0.36267887  1
  O  O62  1  0.26540492  0.88097677  0.36227273  1
  O  O63  1  0.76581942  0.87742712  0.36239109  1
  O  O64  1  0.17341650  0.46917498  0.36275083  1
  O  O65  1  0.67272532  0.46332701  0.35788224  1
  O  O66  1  0.05920342  0.46471896  0.86030954  1
  O  O67  1  0.55811327  0.46278849  0.85888334  1
  O  O68  1  0.17236436  0.88159614  0.85978945  1
  O  O69  1  0.67255994  0.88279107  0.85966846  1
  O  O70  1  0.26711934  0.65220707  0.86393533  1
  O  O71  1  0.76724300  0.65112810  0.86331187  1
  O  O72  1  0.01909754  0.84672086  0.40820069  1
  O  O73  1  0.51645107  0.84551326  0.40951679  1
  O  O74  1  0.40395296  0.96158066  0.40934875  1
  O  O75  1  0.90615471  0.96597451  0.40948644  1
  O  O76  1  0.07757306  0.18992304  0.41067252  1
  O  O77  1  0.57575354  0.18875465  0.40750045  1
  O  O78  1  0.01823394  0.19108630  0.91118720  1
  O  O79  1  0.51766736  0.18982206  0.91056236  1
  O  O80  1  0.07678847  0.96257438  0.91173971  1
  O  O81  1  0.57703229  0.96505426  0.91104816  1
  O  O82  1  0.40525974  0.84652538  0.91228697  1
  O  O83  1  0.90450232  0.84529131  0.91214201  1
  O  O84  1  0.50370864  0.19408840  0.58534531  1
  O  O85  1  0.00366535  0.19456173  0.58529582  1
  O  O86  1  0.09344676  0.99316435  0.58552038  1
  O  O87  1  0.59376881  0.99356337  0.58529047  1
  O  O88  1  0.40282589  0.81330480  0.58382569  1
  O  O89  1  0.90267237  0.81316211  0.58385870  1
  O  O90  1  0.49644532  0.79648059  0.09046344  1
  O  O91  1  0.00504613  0.81457717  0.08498780  1
  O  O92  1  0.40066149  0.00438791  0.09146090  1
  O  O93  1  0.90310000  0.99137415  0.08312684  1
  O  O94  1  0.10184816  0.20010229  0.09202928  1
  O  O95  1  0.59283150  0.19153690  0.08373376  1
  O  O96  1  0.35462779  0.17385475  0.75295843  1
  O  O97  1  0.85465723  0.17363492  0.75298076  1
  O  O98  1  0.22886378  0.28679896  0.75215802  1
  O  O99  1  0.72891628  0.28684681  0.75206487  1
  O  O100  1  0.41888200  0.53109357  0.75229792  1
  O  O101  1  0.91895283  0.53139221  0.75231401  1
  O  O102  1  0.35260767  0.52368260  0.24135272  1
  O  O103  1  0.85525476  0.53625193  0.25261758  1
  O  O104  1  0.41214720  0.29899080  0.24174856  1
  O  O105  1  0.91622726  0.30181286  0.25348243  1
  O  O106  1  0.23715095  0.17536825  0.24116249  1
  O  O107  1  0.72929317  0.17672642  0.25343780  1
  O  O108  1  0.33295635  0.52906284  0.92440146  1
  O  O109  1  0.83294132  0.52817753  0.92453727  1
  O  O110  1  0.43230326  0.33701535  0.92230750  1
  O  O111  1  0.93391655  0.34043906  0.92389068  1
  O  O112  1  0.23568124  0.13358622  0.92306843  1
  O  O113  1  0.73601860  0.13492939  0.92314339  1
  O  O114  1  0.33316425  0.13685067  0.42362685  1
  O  O115  1  0.83231995  0.13559383  0.42319896  1
  O  O116  1  0.23585132  0.33499603  0.42329802  1
  O  O117  1  0.73482111  0.33544069  0.42231081  1
  O  O118  1  0.43137245  0.52818181  0.42357396  1
  O  O119  1  0.93357310  0.52825504  0.42200545  1
  O  O120  1  0.18689451  0.51619492  0.07590570  1
  O  O121  1  0.67664484  0.50560946  0.06877937  1
  O  O122  1  0.07643632  0.64206999  0.06861724  1
  O  O123  1  0.57065882  0.62832033  0.07607707  1
  O  O124  1  0.24299688  0.85894955  0.07558434  1
  O  O125  1  0.74462924  0.84510206  0.06829287  1
  O  O126  1  0.17722968  0.84652652  0.57009028  1
  O  O127  1  0.67781485  0.84708716  0.56999938  1
  O  O128  1  0.24561861  0.64643856  0.56905360  1
  O  O129  1  0.74532305  0.64531712  0.56875019  1
  O  O130  1  0.07651215  0.50942761  0.56993742  1
  O  O131  1  0.57714030  0.50854894  0.56975543  1
  O  O132  1  0.15811324  0.85350692  0.25691187  1
  O  O133  1  0.65726590  0.85299204  0.25627813  1
  O  O134  1  0.26725270  0.67017694  0.25538051  1
  O  O135  1  0.76476075  0.67287330  0.25709149  1
  O  O136  1  0.07420261  0.47195881  0.25648235  1
  O  O137  1  0.57278864  0.45955262  0.25832698  1
  O  O138  1  0.15076425  0.45794223  0.75788804  1
  O  O139  1  0.65095254  0.45831882  0.75778209  1
  O  O140  1  0.07797790  0.69058221  0.75882725  1
  O  O141  1  0.57808891  0.69044106  0.75866340  1
  O  O142  1  0.26478253  0.85602183  0.75664124  1
  O  O143  1  0.76483124  0.85596112  0.75660600  1
loop_
_geom_bond_atom_site_label_1
_geom_bond_atom_site_label_2
_geom_bond_distance
_geom_bond_site_symmetry_2
Na0 O107 2.330163 1_555
Na0 O135 2.396536 1_555
Na0 O137 2.476885 1_555
Na0 O65 2.677903 1_555
Na0 O103 2.754136 1_555
Na0 O35 2.769099 1_555
Na0 O21 2.949938 1_555
Na1 O103 2.365982 1_455
Na1 O136 2.422437 1_555
Na1 O132 2.514048 1_555
Na1 O105 2.636369 1_455
Na1 O60 2.678383 1_555
Na1 O31 2.782436 1_455
Na2 O97 2.354677 1_455
Na2 O138 2.433523 1_555
Na2 O140 2.545508 1_555
Na2 O101 2.573024 1_455
Na2 O25 2.677928 1_455
Na2 O66 2.810657 1_555
Na2 O14 2.953894 1_555
Na3 O96 2.355323 1_555
Na3 O139 2.433785 1_555
Na3 O141 2.543242 1_555
Na3 O100 2.572642 1_555
Na3 O24 2.685560 1_555
Na3 O67 2.765780 1_555
Na3 O15 2.955004 1_555
Na4 O98 2.361982 1_565
Na4 O142 2.400283 1_555
Na4 O140 2.455934 1_555
Na4 O26 2.673988 1_565
Na4 O96 2.725429 1_565
Na4 O68 2.794126 1_555
Na4 O16 2.895601 1_555
Na5 O99 2.360549 1_565
Na5 O143 2.402375 1_555
Na5 O141 2.455549 1_555
Na5 O27 2.688441 1_565
Na5 O97 2.726297 1_565
Na5 O69 2.779945 1_555
Na5 O17 2.900170 1_555
Na6 O89 2.553475 1_455
Na6 O86 2.572710 1_555
Na6 O85 2.580791 1_565
Na6 O76 2.700122 1_565
Na6 O75 2.717005 1_455
Na6 O72 2.741562 1_555
Na7 O88 2.544579 1_545
Na7 O84 2.565377 1_555
Na7 O87 2.573248 1_545
Na7 O73 2.718344 1_545
Na7 O74 2.735348 1_545
Na7 O77 2.755870 1_555
Na8 O93 2.504331 1_555
Na8 O91 2.543076 1_655
Na8 O83 2.677269 1_554
Na8 O80 2.701880 1_654
Na8 O78 2.724754 1_664
Na8 O94 2.763572 1_665
Na9 O95 2.506488 1_555
Na9 O81 2.683340 1_544
Na9 O79 2.687785 1_554
Na9 O82 2.691475 1_544
Na9 O90 2.736072 1_545
Na9 O92 2.751157 1_555
Na10 O100 2.539070 1_555
Na10 O98 2.588661 1_555
Na10 O96 2.631951 1_555
Na10 O108 2.662786 1_555
Na10 O110 2.737701 1_555
Na10 O112 2.761732 1_555
Na11 O101 2.562652 1_555
Na11 O99 2.601016 1_555
Na11 O109 2.643661 1_555
Na11 O97 2.649977 1_555
Na11 O113 2.734448 1_555
Na11 O111 2.762251 1_555
Na12 O116 2.669661 1_555
Na12 O118 2.680381 1_555
Na12 O114 2.683204 1_555
Na12 O102 2.762098 1_555
Na12 O104 2.769362 1_555
Na12 O106 2.779368 1_555
Na13 O105 2.520229 1_555
Na13 O107 2.570626 1_555
Na13 O115 2.618651 1_555
Na13 O103 2.671220 1_555
Na13 O119 2.727772 1_555
Na13 O117 2.730911 1_555
Na14 O120 2.634074 1_555
Na14 O134 2.634674 1_555
Na14 O124 2.695723 1_555
Na14 O136 2.709747 1_555
Na14 O132 2.779619 1_555
Na14 O122 2.877316 1_555
Na15 O133 2.620137 1_555
Na15 O123 2.675782 1_555
Na15 O125 2.745558 1_555
Na15 O135 2.757928 1_555
Na15 O137 2.838376 1_555
Na15 O121 2.894994 1_555
Na16 O128 2.571140 1_555
Na16 O126 2.680682 1_555
Na16 O130 2.695532 1_555
Na16 O142 2.789668 1_555
Na16 O138 2.835336 1_555
Na16 O140 2.946925 1_555
Na17 O129 2.588663 1_555
Na17 O127 2.693066 1_555
Na17 O131 2.704079 1_555
Na17 O143 2.781031 1_555
Na17 O139 2.821073 1_555
Na17 O141 2.931777 1_555
Nb0 O5 1.984367 1_455
Nb0 O3 2.018691 1_445
Nb0 O76 2.027747 1_555
Nb0 O75 2.042761 1_445
Nb0 O72 2.048391 1_545
Nb0 O0 2.075942 1_555
Nb1 O1 1.986139 1_565
Nb1 O74 2.021641 1_555
Nb1 O73 2.034135 1_555
Nb1 O77 2.041688 1_565
Nb1 O2 2.062652 1_555
Nb1 O4 2.069315 1_565
Nb2 O9 2.003002 1_555
Nb2 O6 2.009818 1_665
Nb2 O11 2.010823 1_565
Nb2 O83 2.035905 1_555
Nb2 O78 2.052636 1_665
Nb2 O80 2.058195 1_655
Nb3 O8 1.997582 1_555
Nb3 O7 2.000632 1_565
Nb3 O10 2.011380 1_565
Nb3 O82 2.042683 1_555
Nb3 O81 2.043562 1_555
Nb3 O79 2.048983 1_565
Nb4 O30 2.013597 1_555
Nb4 O34 2.017355 1_555
Nb4 O32 2.033057 1_555
Nb4 O102 2.049424 1_555
Nb4 O106 2.091744 1_555
Nb4 O104 2.093466 1_555
Nb5 O122 1.943950 1_555
Nb5 O52 2.039580 1_554
Nb5 O48 2.050945 1_554
Nb5 O50 2.056917 1_554
Nb5 O124 2.062824 1_555
Nb5 O120 2.080592 1_555
Nb6 O121 1.958316 1_555
Nb6 O125 1.965513 1_555
Nb6 O51 2.045375 1_554
Nb6 O49 2.047637 1_554
Nb6 O53 2.068557 1_554
Nb6 O123 2.090333 1_555
Nb7 O130 1.993439 1_555
Nb7 O128 1.994968 1_555
Nb7 O126 2.000382 1_555
Nb7 O58 2.035203 1_555
Nb7 O56 2.035932 1_555
Nb7 O54 2.047682 1_555
Nb8 O129 1.993184 1_555
Nb8 O131 1.997184 1_555
Nb8 O127 1.997811 1_555
Nb8 O59 2.038708 1_555
Nb8 O55 2.044828 1_555
Nb8 O57 2.059602 1_555
O0 P0 1.584870 1_555
O1 P1 1.611689 1_555
O2 P2 1.587330 1_555
O3 P3 1.612461 1_555
O4 P5 1.593407 1_555
O5 P4 1.609997 1_555
O6 P6 1.601893 1_555
O7 P7 1.601345 1_555
O8 P9 1.601048 1_555
O9 P8 1.604486 1_555
O10 P10 1.603582 1_555
O11 P11 1.607336 1_555
O12 P10 1.508241 1_565
O12 Y1 2.201442 1_555
O13 P11 1.507283 1_565
O13 Y0 2.200110 1_555
O14 P6 1.515957 1_555
O14 Y0 2.209216 1_445
O15 P7 1.516291 1_555
O15 Y1 2.209037 1_545
O16 P8 1.513493 1_455
O16 Y0 2.216945 1_455
O17 P9 1.514133 1_555
O17 Y1 2.215004 1_555
O18 P2 1.497239 1_555
O18 Y3 2.170687 1_555
O19 P3 1.506303 1_555
O19 Y2 2.184495 1_565
O20 P4 1.504992 1_455
O20 Y2 2.182616 1_455
O21 P5 1.504080 1_555
O21 Y3 2.177320 1_545
O22 P0 1.507770 1_565
O22 Y2 2.190235 1_465
O23 P1 1.507054 1_565
O23 Y3 2.169044 1_555
O24 P12 1.558155 1_555
O24 Y4 2.273847 1_555
O25 P13 1.560577 1_555
O25 Y5 2.268884 1_555
O26 P14 1.558604 1_555
O26 Y4 2.279725 1_555
O27 P15 1.558241 1_555
O27 Y5 2.279599 1_555
O28 P16 1.550387 1_555
O28 Y4 2.182335 1_555
O29 P17 1.549374 1_555
O29 Y5 2.183586 1_555
O30 P18 1.610725 1_555
O31 P19 1.548443 1_555
O31 Y6 2.310441 1_555
O32 P20 1.602328 1_555
O33 P21 1.540610 1_555
O33 Y6 2.207512 1_555
O34 P22 1.611599 1_555
O35 P23 1.546596 1_555
O35 Y6 2.321365 1_555
O36 P22 1.502178 1_555
O36 Y7 2.169081 1_554
O37 P23 1.509103 1_555
O37 Y8 2.162295 1_554
O38 P18 1.502455 1_555
O38 Y7 2.161922 1_554
O39 P19 1.507998 1_555
O39 Y8 2.169507 1_554
O40 P20 1.502004 1_555
O40 Y7 2.154462 1_554
O41 P21 1.509203 1_555
O41 Y8 2.156079 1_554
O42 P14 1.501307 1_555
O42 Y9 2.165384 1_555
O43 P15 1.500167 1_555
O43 Y10 2.177095 1_555
O44 P16 1.499397 1_555
O44 Y9 2.164345 1_555
O45 P17 1.498592 1_555
O45 Y10 2.163800 1_555
O46 P12 1.501021 1_555
O46 Y9 2.168104 1_555
O47 P13 1.499543 1_555
O47 Y10 2.175988 1_555
O48 P24 1.577436 1_555
O49 P25 1.577403 1_555
O50 P26 1.593356 1_555
O51 P27 1.577098 1_555
O52 P28 1.589324 1_555
O53 P29 1.581463 1_555
O54 P30 1.573798 1_555
O55 P31 1.577831 1_555
O56 P32 1.579087 1_555
O57 P33 1.581393 1_555
O58 P34 1.586064 1_555
O59 P35 1.577068 1_555
O60 P34 1.521124 1_555
O60 Y11 2.214976 1_555
O61 P35 1.504638 1_555
O61 Y12 2.136696 1_555
O62 P30 1.505314 1_555
O62 Y11 2.136089 1_555
O63 P31 1.508120 1_555
O63 Y12 2.140543 1_555
O64 P32 1.505617 1_555
O64 Y11 2.141873 1_555
O65 P33 1.519687 1_555
O65 Y12 2.208762 1_555
O66 P26 1.521691 1_555
O66 Y13 2.176770 1_555
O67 P27 1.520939 1_555
O67 Y14 2.181493 1_555
O68 P28 1.519369 1_555
O68 Y13 2.177045 1_555
O69 P29 1.522904 1_555
O69 Y14 2.177640 1_555
O70 P24 1.508934 1_555
O70 Y13 2.118929 1_555
O71 P25 1.509320 1_555
O71 Y14 2.116530 1_555
O72 P34 1.588146 1_555
O73 P35 1.596041 1_555
O74 P30 1.592656 1_555
O75 P31 1.592053 1_555
O76 P32 1.589455 1_555
O77 P33 1.602269 1_555
O78 P26 1.584781 1_555
O79 P27 1.582614 1_555
O80 P28 1.582708 1_555
O81 P29 1.586898 1_555
O82 P24 1.580377 1_555
O83 P25 1.580594 1_555
O84 P12 1.531556 1_555
O84 Y1 2.226034 1_545
O85 P13 1.531996 1_455
O85 Y0 2.229131 1_445
O86 P14 1.532589 1_565
O86 Y0 2.218067 1_455
O87 P15 1.532457 1_565
O87 Y1 2.222677 1_555
O88 P16 1.532507 1_555
O88 Y1 2.202784 1_555
O89 P17 1.531991 1_555
O89 Y0 2.203662 1_555
O90 P18 1.514425 1_555
O90 Y3 2.220296 1_555
O91 P19 1.524143 1_455
O91 Y2 2.270261 1_465
O92 P20 1.512154 1_555
O92 Y3 2.221967 1_545
O93 P21 1.528250 1_565
O93 Y2 2.236607 1_565
O94 P22 1.513704 1_555
O94 Y2 2.239427 1_455
O95 P23 1.527170 1_555
O95 Y3 2.239729 1_545
O96 P10 1.555091 1_555
O96 Y4 2.464139 1_555
O97 P11 1.554119 1_555
O97 Y5 2.464119 1_555
O98 P6 1.546206 1_555
O98 Y4 2.398306 1_555
O99 P7 1.546653 1_555
O99 Y5 2.395596 1_555
O100 P9 1.543305 1_555
O100 Y4 2.364489 1_555
O101 P8 1.542158 1_555
O101 Y5 2.364928 1_555
O102 P2 1.600901 1_555
O103 P3 1.553388 1_555
O103 Y6 2.424373 1_555
O104 P5 1.586276 1_555
O105 P4 1.548753 1_555
O105 Y6 2.318803 1_555
O106 P0 1.590537 1_555
O107 P1 1.553849 1_555
O107 Y6 2.356439 1_555
O108 P24 1.517404 1_555
O108 Y7 2.218399 1_555
O109 P25 1.520650 1_555
O109 Y8 2.229843 1_555
O110 P27 1.516990 1_555
O110 Y7 2.227308 1_555
O111 P26 1.516903 1_655
O111 Y8 2.243170 1_555
O112 P28 1.516502 1_545
O112 Y7 2.225970 1_555
O113 P29 1.520124 1_545
O113 Y8 2.251179 1_555
O114 P30 1.516955 1_545
O114 Y9 2.235235 1_555
O115 P31 1.518851 1_545
O115 Y10 2.239416 1_555
O116 P32 1.519427 1_555
O116 Y9 2.246657 1_555
O117 P33 1.516703 1_555
O117 Y10 2.261377 1_555
O118 P35 1.515649 1_555
O118 Y9 2.244439 1_555
O119 P34 1.516455 1_655
O119 Y10 2.259581 1_555
O120 P22 1.594079 1_555
O121 P23 1.608600 1_555
O122 P19 1.622323 1_455
O123 P18 1.587210 1_555
O124 P20 1.593875 1_565
O125 P21 1.602172 1_565
O126 P14 1.594473 1_565
O127 P15 1.599473 1_565
O128 P16 1.584062 1_555
O129 P17 1.588485 1_555
O130 P13 1.597942 1_455
O131 P12 1.598894 1_555
O132 P0 1.539981 1_565
O132 Y11 2.271615 1_555
O133 P1 1.519016 1_565
O133 Y12 2.209058 1_555
O134 P2 1.527275 1_555
O134 Y11 2.214121 1_555
O135 P3 1.534685 1_555
O135 Y12 2.265533 1_555
O136 P4 1.538363 1_455
O136 Y11 2.247715 1_555
O137 P5 1.535226 1_555
O137 Y12 2.268678 1_555
O138 P6 1.530970 1_555
O138 Y13 2.232759 1_555
O139 P7 1.529987 1_555
O139 Y14 2.239269 1_555
O140 P8 1.541229 1_455
O140 Y13 2.272361 1_555
O141 P9 1.542200 1_555
O141 Y14 2.274333 1_555
O142 P10 1.538141 1_565
O142 Y13 2.237884 1_555
O143 P11 1.536024 1_565
O143 Y14 2.236793 1_555
