# generated using pymatgen
data_MgFe8(O7F)2
_symmetry_space_group_name_H-M   'P 1'
_cell_length_a   5.15373603
_cell_length_b   5.15303658
_cell_length_c   12.08770187
_cell_angle_alpha   93.48432031
_cell_angle_beta   93.03870090
_cell_angle_gamma   75.94780068
_symmetry_Int_Tables_number   1
_chemical_formula_structural   MgFe8(O7F)2
_chemical_formula_sum   'Mg1 Fe8 O14 F2'
_cell_volume   310.59300762
_cell_formula_units_Z   1
loop_
 _symmetry_equiv_pos_site_id
 _symmetry_equiv_pos_as_xyz
  1  'x, y, z'
loop_
 _atom_site_type_symbol
 _atom_site_label
 _atom_site_symmetry_multiplicity
 _atom_site_fract_x
 _atom_site_fract_y
 _atom_site_fract_z
 _atom_site_occupancy
  Mg  Mg0  1  0.24284700  0.23435100  0.36589200  1
  Fe  Fe0  1  0.08189500  0.06020800  0.00769000  1
  Fe  Fe1  1  0.93991600  0.94379900  0.23764700  1
  Fe  Fe2  1  0.00375500  0.00287000  0.50810900  1
  Fe  Fe3  1  0.04824800  0.03280800  0.74892700  1
  Fe  Fe4  1  0.50288900  0.49482200  0.11975400  1
  Fe  Fe5  1  0.42590500  0.42318600  0.64296100  1
  Fe  Fe6  1  0.42867300  0.47349300  0.88221200  1
  Fe  Fe7  1  0.58648900  0.58429900  0.35385500  1
  O  O0  1  0.20730300  0.81517600  0.12548500  1
  O  O1  1  0.19584300  0.78287900  0.62559400  1
  O  O2  1  0.16768900  0.81369800  0.87646800  1
  O  O3  1  0.23064300  0.84079200  0.37291500  1
  O  O4  1  0.29941000  0.31144000  0.99824600  1
  O  O5  1  0.39145600  0.37920400  0.25037900  1
  O  O6  1  0.27262600  0.26539600  0.52644300  1
  O  O7  1  0.26881400  0.28571700  0.76572000  1
  O  O8  1  0.61559900  0.62020700  0.99414300  1
  O  O9  1  0.71512700  0.71019000  0.23125400  1
  O  O10  1  0.58532700  0.58657500  0.76157700  1
  O  O11  1  0.81979400  0.19899200  0.12051600  1
  O  O12  1  0.84639600  0.22997500  0.37344800  1
  O  O13  1  0.78757400  0.19360800  0.62980600  1
  F  F0  1  0.75456600  0.75647300  0.47636900  1
  F  F1  1  0.78954700  0.16818300  0.87681500  1
loop_
_geom_bond_atom_site_label_1
_geom_bond_atom_site_label_2
_geom_bond_distance
_geom_bond_site_symmetry_2
Mg0 O5 1.900276 1_555
Mg0 O6 1.938567 1_555
Mg0 O3 2.051214 1_545
Mg0 O12 2.055710 1_455
Fe0 O4 1.918854 1_554
Fe0 O0 1.940131 1_545
Fe0 O11 1.950314 1_455
Fe0 O2 1.970214 1_544
Fe1 O9 1.858403 1_555
Fe1 O0 1.954932 1_655
Fe1 O11 1.963465 1_565
Fe1 O12 2.132147 1_565
Fe1 O3 2.158649 1_655
Fe2 O1 1.945133 1_545
Fe2 O13 1.958967 1_455
Fe2 O3 2.073128 1_545
Fe2 O12 2.075452 1_455
Fe2 O6 2.154216 1_555
Fe3 O7 1.922142 1_555
Fe3 O2 1.950378 1_545
Fe3 O1 1.967466 1_545
Fe3 O13 1.991005 1_455
Fe4 O8 1.858836 1_554
Fe4 O5 1.885342 1_555
Fe4 O11 1.944864 1_555
Fe4 O0 1.956188 1_555
Fe4 O4 2.073441 1_554
Fe4 O9 2.120374 1_555
Fe5 O6 1.823077 1_555
Fe5 O10 1.871898 1_555
Fe5 O13 1.958792 1_555
Fe5 O1 1.959362 1_555
Fe5 O7 1.973015 1_555
Fe6 O8 1.849699 1_555
Fe6 O10 1.890578 1_555
Fe6 O4 1.902620 1_555
Fe6 O7 1.922593 1_555
Fe6 O2 1.935746 1_555
Fe7 O9 1.867205 1_555
Fe7 O5 1.978293 1_555
Fe7 O3 1.998506 1_555
Fe7 O12 2.003822 1_555
F0 Fe7 1.951436 1_555
F0 Fe2 2.022132 1_665
F1 Fe3 2.071174 1_655
F1 Fe6 2.125547 1_555
F1 Fe0 2.128267 1_656
