# generated using pymatgen
data_Na12TaZn5(PO4)9
_symmetry_space_group_name_H-M   'P 1'
_cell_length_a   9.10087385
_cell_length_b   9.10087354
_cell_length_c   21.88999467
_cell_angle_alpha   90.00000000
_cell_angle_beta   90.00000000
_cell_angle_gamma   120.00000111
_symmetry_Int_Tables_number   1
_chemical_formula_structural   Na12TaZn5(PO4)9
_chemical_formula_sum   'Na24 Ta2 Zn10 P18 O72'
_cell_volume   1570.15474757
_cell_formula_units_Z   2
loop_
 _symmetry_equiv_pos_site_id
 _symmetry_equiv_pos_as_xyz
  1  'x, y, z'
loop_
 _atom_site_type_symbol
 _atom_site_label
 _atom_site_symmetry_multiplicity
 _atom_site_fract_x
 _atom_site_fract_y
 _atom_site_fract_z
 _atom_site_occupancy
  Na  Na0  1  0.63217035  0.99939944  0.24980410  1
  Na  Na1  1  0.36722909  0.36782965  0.24980410  1
  Na  Na2  1  0.00060056  0.63277091  0.24980410  1
  Na  Na3  1  0.63217035  0.63277091  0.74980410  1
  Na  Na4  1  0.00060056  0.36782965  0.74980410  1
  Na  Na5  1  0.36722909  0.99939944  0.74980410  1
  Na  Na6  1  0.29082966  0.33393123  0.58863268  1
  Na  Na7  1  0.04310257  0.70917034  0.58863268  1
  Na  Na8  1  0.66606877  0.95689743  0.58863268  1
  Na  Na9  1  0.29082966  0.95689743  0.08863268  1
  Na  Na10  1  0.66606877  0.70917034  0.08863268  1
  Na  Na11  1  0.04310257  0.33393123  0.08863268  1
  Na  Na12  1  0.98353702  0.68540676  0.90574064  1
  Na  Na13  1  0.70186874  0.01646298  0.90574064  1
  Na  Na14  1  0.31459324  0.29813126  0.90574064  1
  Na  Na15  1  0.98353702  0.29813126  0.40574064  1
  Na  Na16  1  0.31459324  0.01646298  0.40574064  1
  Na  Na17  1  0.70186874  0.68540676  0.40574064  1
  Na  Na18  1  0.00000000  0.00000000  0.50008530  1
  Na  Na19  1  0.00000000  0.00000000  0.00008530  1
  Na  Na20  1  0.66666700  0.33333300  0.82162159  1
  Na  Na21  1  0.66666700  0.33333300  0.32162159  1
  Na  Na22  1  0.33333300  0.66666700  0.17010516  1
  Na  Na23  1  0.33333300  0.66666700  0.67010516  1
  Ta  Ta0  1  0.66666700  0.33333300  0.98200678  1
  Ta  Ta1  1  0.66666700  0.33333300  0.48200678  1
  Zn  Zn0  1  0.00000000  0.00000000  0.34103668  1
  Zn  Zn1  1  0.00000000  0.00000000  0.84103668  1
  Zn  Zn2  1  0.00000000  0.00000000  0.65687548  1
  Zn  Zn3  1  0.00000000  0.00000000  0.15687548  1
  Zn  Zn4  1  0.66666700  0.33333300  0.68197342  1
  Zn  Zn5  1  0.66666700  0.33333300  0.18197342  1
  Zn  Zn6  1  0.33333300  0.66666700  0.01334615  1
  Zn  Zn7  1  0.33333300  0.66666700  0.51334615  1
  Zn  Zn8  1  0.33333300  0.66666700  0.31878377  1
  Zn  Zn9  1  0.33333300  0.66666700  0.81878377  1
  P  P0  1  0.29899482  0.99842984  0.24973632  1
  P  P1  1  0.69943502  0.70100518  0.24973632  1
  P  P2  1  0.00157016  0.30056498  0.24973632  1
  P  P3  1  0.29899482  0.30056498  0.74973632  1
  P  P4  1  0.00157016  0.70100518  0.74973632  1
  P  P5  1  0.69943502  0.99842984  0.74973632  1
  P  P6  1  0.96354558  0.33600562  0.58550340  1
  P  P7  1  0.37246104  0.03645442  0.58550340  1
  P  P8  1  0.66399438  0.62753896  0.58550340  1
  P  P9  1  0.96354558  0.62753896  0.08550340  1
  P  P10  1  0.66399438  0.03645442  0.08550340  1
  P  P11  1  0.37246104  0.33600562  0.08550340  1
  P  P12  1  0.63044617  0.66513315  0.91834183  1
  P  P13  1  0.03468598  0.36955383  0.91834183  1
  P  P14  1  0.33486685  0.96531402  0.91834183  1
  P  P15  1  0.63044617  0.96531402  0.41834183  1
  P  P16  1  0.33486685  0.36955383  0.41834183  1
  P  P17  1  0.03468598  0.66513315  0.41834183  1
  O  O0  1  0.21476566  0.02169624  0.30778884  1
  O  O1  1  0.80693058  0.78523434  0.30778884  1
  O  O2  1  0.97830376  0.19306942  0.30778884  1
  O  O3  1  0.21476566  0.19306942  0.80778884  1
  O  O4  1  0.97830376  0.78523434  0.80778884  1
  O  O5  1  0.80693058  0.02169624  0.80778884  1
  O  O6  1  0.78314526  0.97425640  0.69160133  1
  O  O7  1  0.19111115  0.21685474  0.69160133  1
  O  O8  1  0.02574360  0.80888885  0.69160133  1
  O  O9  1  0.78314526  0.80888885  0.19160133  1
  O  O10  1  0.02574360  0.21685474  0.19160133  1
  O  O11  1  0.19111115  0.97425640  0.19160133  1
  O  O12  1  0.88156803  0.35880546  0.64236395  1
  O  O13  1  0.47723843  0.11843197  0.64236395  1
  O  O14  1  0.64119454  0.52276157  0.64236395  1
  O  O15  1  0.88156803  0.52276157  0.14236395  1
  O  O16  1  0.64119454  0.11843197  0.14236395  1
  O  O17  1  0.47723843  0.35880546  0.14236395  1
  O  O18  1  0.47938114  0.32427563  0.02837378  1
  O  O19  1  0.84489549  0.52061886  0.02837378  1
  O  O20  1  0.67572437  0.15510451  0.02837378  1
  O  O21  1  0.47938114  0.15510451  0.52837378  1
  O  O22  1  0.67572437  0.52061886  0.52837378  1
  O  O23  1  0.84489549  0.32427563  0.52837378  1
  O  O24  1  0.55057892  0.68957194  0.97623072  1
  O  O25  1  0.13899201  0.44942108  0.97623072  1
  O  O26  1  0.31042806  0.86100799  0.97623072  1
  O  O27  1  0.55057892  0.86100799  0.47623072  1
  O  O28  1  0.31042806  0.44942108  0.47623072  1
  O  O29  1  0.13899201  0.68957194  0.47623072  1
  O  O30  1  0.10692333  0.62496630  0.36152290  1
  O  O31  1  0.51804196  0.89307667  0.36152290  1
  O  O32  1  0.37503370  0.48195804  0.36152290  1
  O  O33  1  0.10692333  0.48195804  0.86152290  1
  O  O34  1  0.37503370  0.89307667  0.86152290  1
  O  O35  1  0.51804196  0.62496630  0.86152290  1
  O  O36  1  0.00458379  0.81684465  0.41281824  1
  O  O37  1  0.81226086  0.99541621  0.41281824  1
  O  O38  1  0.18315535  0.18773914  0.41281824  1
  O  O39  1  0.00458379  0.18773914  0.91281824  1
  O  O40  1  0.18315535  0.99541621  0.91281824  1
  O  O41  1  0.81226086  0.81684465  0.91281824  1
  O  O42  1  0.96866503  0.16933045  0.58191941  1
  O  O43  1  0.20066542  0.03133497  0.58191941  1
  O  O44  1  0.83066955  0.79933458  0.58191941  1
  O  O45  1  0.96866503  0.79933458  0.08191941  1
  O  O46  1  0.83066955  0.03133497  0.08191941  1
  O  O47  1  0.20066542  0.16933045  0.08191941  1
  O  O48  1  0.68130971  0.15910533  0.74696011  1
  O  O49  1  0.47779662  0.31869029  0.74696011  1
  O  O50  1  0.84089467  0.52220338  0.74696011  1
  O  O51  1  0.68130971  0.52220338  0.24696011  1
  O  O52  1  0.84089467  0.31869029  0.24696011  1
  O  O53  1  0.47779662  0.15910533  0.24696011  1
  O  O54  1  0.65093012  0.49918298  0.92512373  1
  O  O55  1  0.84825385  0.34906988  0.92512373  1
  O  O56  1  0.50081702  0.15174615  0.92512373  1
  O  O57  1  0.65093012  0.15174615  0.42512373  1
  O  O58  1  0.50081702  0.34906988  0.42512373  1
  O  O59  1  0.84825385  0.49918298  0.42512373  1
  O  O60  1  0.35324868  0.49383317  0.07841925  1
  O  O61  1  0.14058349  0.64675132  0.07841925  1
  O  O62  1  0.50616683  0.85941651  0.07841925  1
  O  O63  1  0.35324868  0.85941651  0.57841925  1
  O  O64  1  0.50616683  0.64675132  0.57841925  1
  O  O65  1  0.14058349  0.49383317  0.57841925  1
  O  O66  1  0.31663028  0.83725708  0.25384067  1
  O  O67  1  0.52062580  0.68336972  0.25384067  1
  O  O68  1  0.16274292  0.47937420  0.25384067  1
  O  O69  1  0.31663028  0.47937420  0.75384067  1
  O  O70  1  0.16274292  0.68336972  0.75384067  1
  O  O71  1  0.52062580  0.83725708  0.75384067  1
loop_
_geom_bond_atom_site_label_1
_geom_bond_atom_site_label_2
_geom_bond_distance
_geom_bond_site_symmetry_2
Na0 O53 2.476348 1_565
Na0 O66 2.488844 1_555
Na0 O67 2.528010 1_555
Na0 O52 2.556609 1_565
Na0 O16 2.573437 1_565
Na0 O31 2.643989 1_555
Na1 O51 2.476356 1_555
Na1 O67 2.488844 1_555
Na1 O68 2.528018 1_555
Na1 O53 2.556616 1_555
Na1 O17 2.573441 1_555
Na1 O32 2.643991 1_555
Na2 O52 2.476355 1_455
Na2 O68 2.488836 1_555
Na2 O66 2.528011 1_555
Na2 O51 2.556607 1_455
Na2 O15 2.573439 1_455
Na2 O30 2.643988 1_555
Na3 O49 2.476356 1_555
Na3 O69 2.488844 1_555
Na3 O71 2.528018 1_555
Na3 O50 2.556616 1_555
Na3 O14 2.573441 1_555
Na3 O35 2.643991 1_555
Na4 O50 2.476348 1_455
Na4 O70 2.488844 1_555
Na4 O69 2.528010 1_555
Na4 O48 2.556609 1_455
Na4 O12 2.573437 1_455
Na4 O33 2.643989 1_555
Na5 O48 2.476356 1_565
Na5 O71 2.488836 1_555
Na5 O70 2.528011 1_555
Na5 O49 2.556607 1_565
Na5 O13 2.573439 1_565
Na5 O34 2.643988 1_555
Na6 O43 2.453381 1_555
Na6 O65 2.455056 1_555
Na6 O7 2.464216 1_555
Na6 O64 2.533056 1_555
Na6 O42 2.543619 1_455
Na6 O28 2.646322 1_555
Na7 O44 2.453390 1_455
Na7 O63 2.455040 1_555
Na7 O8 2.464219 1_555
Na7 O65 2.533043 1_555
Na7 O43 2.543619 1_565
Na7 O29 2.646316 1_555
Na8 O42 2.453383 1_565
Na8 O64 2.455040 1_555
Na8 O6 2.464215 1_555
Na8 O63 2.533060 1_555
Na8 O44 2.543611 1_555
Na8 O27 2.646320 1_555
Na9 O47 2.453390 1_565
Na9 O61 2.455040 1_555
Na9 O11 2.464219 1_555
Na9 O62 2.533043 1_555
Na9 O45 2.543619 1_455
Na9 O26 2.646316 1_554
Na10 O45 2.453381 1_555
Na10 O62 2.455056 1_555
Na10 O9 2.464216 1_555
Na10 O60 2.533056 1_555
Na10 O46 2.543619 1_565
Na10 O24 2.646322 1_554
Na11 O46 2.453383 1_455
Na11 O60 2.455040 1_555
Na11 O10 2.464215 1_555
Na11 O61 2.533060 1_555
Na11 O47 2.543611 1_555
Na11 O25 2.646320 1_554
Na12 O4 2.338458 1_555
Na12 O41 2.397755 1_555
Na12 O40 2.481713 1_655
Na12 O54 2.661767 1_555
Na12 O55 2.701241 1_555
Na12 O33 2.775838 1_655
Na13 O5 2.338461 1_555
Na13 O39 2.397762 1_655
Na13 O41 2.481720 1_545
Na13 O55 2.661765 1_555
Na13 O56 2.701225 1_555
Na13 O34 2.775838 1_545
Na14 O3 2.338460 1_555
Na14 O40 2.397763 1_545
Na14 O39 2.481711 1_555
Na14 O56 2.661781 1_555
Na14 O54 2.701239 1_555
Na14 O35 2.775838 1_555
Na15 O2 2.338461 1_555
Na15 O37 2.397762 1_545
Na15 O38 2.481720 1_655
Na15 O57 2.661765 1_555
Na15 O59 2.701225 1_555
Na15 O30 2.775838 1_655
Na16 O0 2.338458 1_555
Na16 O38 2.397755 1_555
Na16 O36 2.481713 1_545
Na16 O58 2.661767 1_555
Na16 O57 2.701241 1_555
Na16 O31 2.775838 1_545
Na17 O1 2.338460 1_555
Na17 O36 2.397763 1_655
Na17 O37 2.481711 1_555
Na17 O59 2.661781 1_555
Na17 O58 2.701239 1_555
Na17 O32 2.775838 1_555
Na18 O44 2.470744 1_445
Na18 O42 2.470744 1_455
Na18 O43 2.470744 1_555
Na18 O38 2.549293 1_555
Na18 O36 2.549293 1_545
Na18 O37 2.549293 1_445
Na19 O45 2.470744 1_445
Na19 O47 2.470744 1_555
Na19 O46 2.470744 1_455
Na19 O39 2.549293 1_554
Na19 O41 2.549293 1_444
Na19 O40 2.549293 1_544
Na20 O50 2.326871 1_555
Na20 O48 2.326871 1_555
Na20 O49 2.326871 1_555
Na20 O56 2.765526 1_555
Na20 O55 2.765526 1_555
Na20 O54 2.765526 1_555
Na21 O51 2.326871 1_555
Na21 O53 2.326871 1_555
Na21 O52 2.326871 1_555
Na21 O57 2.765526 1_555
Na21 O59 2.765526 1_555
Na21 O58 2.765526 1_555
Na22 O68 2.455442 1_555
Na22 O66 2.455442 1_555
Na22 O67 2.455442 1_555
Na22 O62 2.611541 1_555
Na22 O60 2.611541 1_555
Na22 O61 2.611542 1_555
Na23 O69 2.455442 1_555
Na23 O71 2.455442 1_555
Na23 O70 2.455442 1_555
Na23 O63 2.611541 1_555
Na23 O65 2.611541 1_555
Na23 O64 2.611542 1_555
O0 P0 1.552294 1_545
O0 Zn0 2.000756 1_555
O1 P1 1.552294 1_555
O1 Zn0 2.000756 1_665
O2 P2 1.552294 1_655
O2 Zn0 2.000756 1_655
O3 P3 1.552294 1_555
O3 Zn1 2.000756 1_555
O4 P4 1.552294 1_655
O4 Zn1 2.000756 1_665
O5 P5 1.552294 1_545
O5 Zn1 2.000756 1_655
O6 P5 1.554299 1_555
O6 Zn2 2.016259 1_665
O7 P3 1.554299 1_555
O7 Zn2 2.016259 1_555
O8 P4 1.554299 1_555
O8 Zn2 2.016259 1_565
O9 P1 1.554299 1_555
O9 Zn3 2.016259 1_665
O10 P2 1.554299 1_555
O10 Zn3 2.016259 1_555
O11 P0 1.554299 1_555
O11 Zn3 2.016259 1_565
O12 P6 1.517795 1_555
O12 Zn4 2.043827 1_555
O13 P7 1.517795 1_555
O13 Zn4 2.043827 1_555
O14 P8 1.517795 1_555
O14 Zn4 2.043827 1_555
O15 P9 1.517795 1_555
O15 Zn5 2.043827 1_555
O16 P10 1.517795 1_555
O16 Zn5 2.043827 1_555
O17 P11 1.517795 1_555
O17 Zn5 2.043827 1_555
O18 P11 1.620509 1_555
O18 Ta0 1.949787 1_554
O19 P9 1.620509 1_555
O19 Ta0 1.949786 1_554
O20 P10 1.620509 1_555
O20 Ta0 1.949786 1_554
O21 P7 1.620509 1_555
O21 Ta1 1.949786 1_555
O22 P8 1.620509 1_555
O22 Ta1 1.949786 1_555
O23 P6 1.620509 1_555
O23 Ta1 1.949787 1_555
O24 P12 1.531413 1_555
O24 Zn6 2.049495 1_556
O25 P13 1.531413 1_555
O25 Zn6 2.049495 1_556
O26 P14 1.531413 1_555
O26 Zn6 2.049495 1_556
O27 P15 1.531413 1_555
O27 Zn7 2.049495 1_555
O28 P16 1.531413 1_555
O28 Zn7 2.049495 1_555
O29 P17 1.531413 1_555
O29 Zn7 2.049495 1_555
O30 P17 1.533986 1_555
O30 Zn8 2.117327 1_555
O31 P15 1.533986 1_555
O31 Zn8 2.117327 1_555
O32 P16 1.533986 1_555
O32 Zn8 2.117326 1_555
O33 P13 1.533986 1_555
O33 Zn9 2.117327 1_555
O34 P14 1.533986 1_555
O34 Zn9 2.117327 1_555
O35 P12 1.533986 1_555
O35 Zn9 2.117327 1_555
O36 P17 1.540869 1_555
O36 Zn0 2.306235 1_565
O37 P15 1.540878 1_555
O37 Zn0 2.306235 1_665
O38 P16 1.540875 1_555
O38 Zn0 2.306235 1_555
O39 P13 1.540878 1_555
O39 Zn1 2.306235 1_555
O40 P14 1.540869 1_555
O40 Zn1 2.306235 1_565
O41 P12 1.540875 1_555
O41 Zn1 2.306235 1_665
O42 P6 1.542710 1_555
O42 Zn2 2.363860 1_655
O43 P7 1.542719 1_555
O43 Zn2 2.363860 1_555
O44 P8 1.542715 1_555
O44 Zn2 2.363860 1_665
O45 P9 1.542719 1_555
O45 Zn3 2.363860 1_665
O46 P10 1.542710 1_555
O46 Zn3 2.363860 1_655
O47 P11 1.542715 1_555
O47 Zn3 2.363860 1_555
O48 P5 1.552547 1_545
O48 Zn4 2.183332 1_555
O49 P3 1.552556 1_555
O49 Zn4 2.183332 1_555
O50 P4 1.552552 1_655
O50 Zn4 2.183332 1_555
O51 P1 1.552556 1_555
O51 Zn5 2.183332 1_555
O52 P2 1.552547 1_655
O52 Zn5 2.183332 1_555
O53 P0 1.552552 1_545
O53 Zn5 2.183332 1_555
O54 P12 1.618433 1_555
O54 Ta0 2.016273 1_555
O55 P13 1.618415 1_655
O55 Ta0 2.016273 1_555
O56 P14 1.618422 1_545
O56 Ta0 2.016273 1_555
O57 P15 1.618415 1_545
O57 Ta1 2.016273 1_555
O58 P16 1.618433 1_555
O58 Ta1 2.016274 1_555
O59 P17 1.618422 1_655
O59 Ta1 2.016273 1_555
O60 P11 1.539130 1_555
O60 Zn6 2.195710 1_555
O61 P9 1.539112 1_455
O61 Zn6 2.195710 1_555
O62 P10 1.539120 1_565
O62 Zn6 2.195710 1_555
O63 P7 1.539112 1_565
O63 Zn7 2.195710 1_555
O64 P8 1.539130 1_555
O64 Zn7 2.195710 1_555
O65 P6 1.539120 1_455
O65 Zn7 2.195710 1_555
O66 P0 1.555890 1_555
O66 Zn8 2.165728 1_555
O67 P1 1.555899 1_555
O67 Zn8 2.165728 1_555
O68 P2 1.555895 1_555
O68 Zn8 2.165728 1_555
O69 P3 1.555899 1_555
O69 Zn9 2.165728 1_555
O70 P4 1.555890 1_555
O70 Zn9 2.165728 1_555
O71 P5 1.555895 1_555
O71 Zn9 2.165728 1_555
