# generated using pymatgen
data_Sn4Pt
_symmetry_space_group_name_H-M   'P 1'
_cell_length_a   6.46246995
_cell_length_b   6.45735722
_cell_length_c   6.58265763
_cell_angle_alpha   119.37229101
_cell_angle_beta   90.00000000
_cell_angle_gamma   90.00000000
_symmetry_Int_Tables_number   1
_chemical_formula_structural   Sn4Pt
_chemical_formula_sum   'Sn8 Pt2'
_cell_volume   239.38539343
_cell_formula_units_Z   2
loop_
 _symmetry_equiv_pos_site_id
 _symmetry_equiv_pos_as_xyz
  1  'x, y, z'
loop_
 _atom_site_type_symbol
 _atom_site_label
 _atom_site_symmetry_multiplicity
 _atom_site_fract_x
 _atom_site_fract_y
 _atom_site_fract_z
 _atom_site_occupancy
  Sn  Sn0  1  0.41507037  0.54197285  0.75152940  1
  Sn  Sn1  1  0.41507037  0.95802715  0.24847060  1
  Sn  Sn2  1  0.91507037  0.79044245  0.24847060  1
  Sn  Sn3  1  0.91507037  0.70955755  0.75152940  1
  Sn  Sn4  1  0.58492963  0.04197285  0.75152940  1
  Sn  Sn5  1  0.58492963  0.45802715  0.24847060  1
  Sn  Sn6  1  0.08492963  0.20955755  0.75152940  1
  Sn  Sn7  1  0.08492963  0.29044245  0.24847060  1
  Pt  Pt0  1  0.25000000  0.75000000  0.50000000  1
  Pt  Pt1  1  0.75000000  0.25000000  0.50000000  1
loop_
_geom_bond_atom_site_label_1
_geom_bond_atom_site_label_2
_geom_bond_distance
_geom_bond_site_symmetry_2
Pt0 Sn0 2.804588 1_555
Pt0 Sn1 2.804588 1_555
Pt0 Sn7 2.804594 1_555
Pt0 Sn6 2.804594 1_565
Pt0 Sn2 2.814028 1_455
Pt0 Sn3 2.814028 1_455
Pt0 Sn5 2.814031 1_555
Pt0 Sn4 2.814031 1_565
Pt1 Sn4 2.804588 1_555
Pt1 Sn5 2.804588 1_555
Pt1 Sn2 2.804594 1_545
Pt1 Sn3 2.804594 1_555
Pt1 Sn6 2.814028 1_655
Pt1 Sn7 2.814028 1_655
Pt1 Sn1 2.814031 1_545
Pt1 Sn0 2.814031 1_555
