# generated using pymatgen
data_LiCr(PO3)4
_symmetry_space_group_name_H-M   'P 1'
_cell_length_a   10.48125291
_cell_length_b   10.48125291
_cell_length_c   5.16811749
_cell_angle_alpha   81.82361480
_cell_angle_beta   81.82361480
_cell_angle_gamma   71.28487961
_symmetry_Int_Tables_number   1
_chemical_formula_structural   LiCr(PO3)4
_chemical_formula_sum   'Li2 Cr2 P8 O24'
_cell_volume   529.43409684
_cell_formula_units_Z   2
loop_
 _symmetry_equiv_pos_site_id
 _symmetry_equiv_pos_as_xyz
  1  'x, y, z'
loop_
 _atom_site_type_symbol
 _atom_site_label
 _atom_site_symmetry_multiplicity
 _atom_site_fract_x
 _atom_site_fract_y
 _atom_site_fract_z
 _atom_site_occupancy
  Li  Li0  1  0.41738200  0.41738200  0.56415500  1
  Li  Li1  1  0.58261800  0.58261800  0.43584500  1
  Cr  Cr0  1  0.00000000  0.50000000  0.00000000  1
  Cr  Cr1  1  0.50000000  0.00000000  0.00000000  1
  P  P0  1  0.06066100  0.30401800  0.53306000  1
  P  P1  1  0.63312900  0.21178700  0.17456800  1
  P  P2  1  0.78821300  0.36687100  0.82543200  1
  P  P3  1  0.36687100  0.78821300  0.82543200  1
  P  P4  1  0.93933900  0.69598200  0.46694000  1
  P  P5  1  0.21178700  0.63312900  0.17456800  1
  P  P6  1  0.30401800  0.06066100  0.53306000  1
  P  P7  1  0.69598200  0.93933900  0.46694000  1
  O  O0  1  0.60262700  0.90682000  0.30609900  1
  O  O1  1  0.16334300  0.55551700  0.00383900  1
  O  O2  1  0.44448400  0.83665700  0.99616100  1
  O  O3  1  0.83665700  0.44448300  0.99616100  1
  O  O4  1  0.76573800  0.23426200  0.00000000  1
  O  O5  1  0.23426200  0.76573800  0.00000000  1
  O  O6  1  0.92244400  0.66575400  0.76072100  1
  O  O7  1  0.66575400  0.92244400  0.76072100  1
  O  O8  1  0.66992800  0.44060300  0.67892300  1
  O  O9  1  0.44060300  0.66992800  0.67892300  1
  O  O10  1  0.28896900  0.91419900  0.62618100  1
  O  O11  1  0.91419900  0.28896900  0.62618100  1
  O  O12  1  0.84937500  0.84937500  0.39332900  1
  O  O13  1  0.39737300  0.09318000  0.69390100  1
  O  O14  1  0.07755600  0.33424600  0.23927900  1
  O  O15  1  0.90682000  0.60262700  0.30609900  1
  O  O16  1  0.09318000  0.39737300  0.69390100  1
  O  O17  1  0.15062500  0.15062500  0.60667100  1
  O  O18  1  0.71103100  0.08580100  0.37381900  1
  O  O19  1  0.08580100  0.71103100  0.37381900  1
  O  O20  1  0.55939700  0.33007200  0.32107700  1
  O  O21  1  0.33007200  0.55939700  0.32107700  1
  O  O22  1  0.33424600  0.07755600  0.23927900  1
  O  O23  1  0.55551700  0.16334300  0.00383900  1
loop_
_geom_bond_atom_site_label_1
_geom_bond_atom_site_label_2
_geom_bond_distance
_geom_bond_site_symmetry_2
Li0 O20 1.884735 1_555
Li0 O21 1.884735 1_555
Li1 O8 1.884735 1_555
Li1 O9 1.884735 1_555
Cr0 O1 1.980482 1_555
Cr0 O3 1.980482 1_454
Cr0 O14 1.994199 1_555
Cr0 O6 1.994199 1_454
Cr0 O15 1.995960 1_455
Cr0 O16 1.995960 1_554
Cr1 O2 1.980476 1_544
Cr1 O23 1.980482 1_555
Cr1 O22 1.994199 1_555
Cr1 O7 1.994199 1_544
Cr1 O0 1.995960 1_545
Cr1 O13 1.995960 1_554
O0 P7 1.513445 1_555
O1 P5 1.514841 1_555
O2 P3 1.514849 1_555
O3 P2 1.514841 1_555
O4 P1 1.610671 1_555
O4 P2 1.610671 1_554
O5 P5 1.610671 1_555
O5 P3 1.610671 1_554
O6 P4 1.503216 1_555
O7 P7 1.503216 1_555
O8 P2 1.480985 1_555
O9 P3 1.480985 1_555
O10 P6 1.592699 1_565
O10 P3 1.622114 1_555
O11 P0 1.592699 1_655
O11 P2 1.622114 1_555
O12 P7 1.604343 1_555
O12 P4 1.604343 1_555
O13 P6 1.513445 1_555
O14 P0 1.503216 1_555
O15 P4 1.513445 1_555
O16 P0 1.513445 1_555
O17 P6 1.604343 1_555
O17 P0 1.604343 1_555
O18 P7 1.592699 1_545
O18 P1 1.622114 1_555
O19 P4 1.592699 1_455
O19 P5 1.622114 1_555
O20 P1 1.480985 1_555
O21 P5 1.480985 1_555
O22 P6 1.503216 1_555
O23 P1 1.514841 1_555
