# generated using pymatgen
data_Na7Mg2Zr2SiP5O24
_symmetry_space_group_name_H-M   'P 1'
_cell_length_a   9.10909004
_cell_length_b   9.10393481
_cell_length_c   22.40811486
_cell_angle_alpha   90.10449981
_cell_angle_beta   89.87551634
_cell_angle_gamma   120.04630907
_symmetry_Int_Tables_number   1
_chemical_formula_structural   Na7Mg2Zr2SiP5O24
_chemical_formula_sum   'Na21 Mg6 Zr6 Si3 P15 O72'
_cell_volume   1608.55552486
_cell_formula_units_Z   3
loop_
 _symmetry_equiv_pos_site_id
 _symmetry_equiv_pos_as_xyz
  1  'x, y, z'
loop_
 _atom_site_type_symbol
 _atom_site_label
 _atom_site_symmetry_multiplicity
 _atom_site_fract_x
 _atom_site_fract_y
 _atom_site_fract_z
 _atom_site_occupancy
  Na  Na0  1  0.35884670  0.36943020  0.25590457  1
  Na  Na1  1  0.01032457  0.63856136  0.25324853  1
  Na  Na2  1  0.62956184  0.64638948  0.75253027  1
  Na  Na3  1  0.00598544  0.36730266  0.75684056  1
  Na  Na4  1  0.36212656  0.98490779  0.75441499  1
  Na  Na5  1  0.29370602  0.31287893  0.58441751  1
  Na  Na6  1  0.02838153  0.70810547  0.58789577  1
  Na  Na7  1  0.67697317  0.97268809  0.59300273  1
  Na  Na8  1  0.29110035  0.97252954  0.08851837  1
  Na  Na9  1  0.68676790  0.70552031  0.08586790  1
  Na  Na10  1  0.02635142  0.32681301  0.08991636  1
  Na  Na11  1  0.95806786  0.65363677  0.92618302  1
  Na  Na12  1  0.69384416  0.03734442  0.91960001  1
  Na  Na13  1  0.96323248  0.30653045  0.42073507  1
  Na  Na14  1  0.34692733  0.04071578  0.42499922  1
  Na  Na15  1  0.99357425  0.98682118  0.50709636  1
  Na  Na16  1  0.01458977  0.00598515  0.00666342  1
  Na  Na17  1  0.64957831  0.33010504  0.84186233  1
  Na  Na18  1  0.66512525  0.33646224  0.34132786  1
  Na  Na19  1  0.34797160  0.68525689  0.17592608  1
  Na  Na20  1  0.33992391  0.67591301  0.67388992  1
  Mg  Mg0  1  0.99970004  0.99905497  0.64948072  1
  Mg  Mg1  1  0.99710433  0.99611916  0.14995989  1
  Mg  Mg2  1  0.66162661  0.33605238  0.98245438  1
  Mg  Mg3  1  0.66232483  0.33650417  0.48195056  1
  Mg  Mg4  1  0.34066580  0.67328979  0.31588248  1
  Mg  Mg5  1  0.33692500  0.66845882  0.81656205  1
  Zr  Zr0  1  0.99275949  0.99403924  0.35154201  1
  Zr  Zr1  1  0.00211021  0.00518751  0.85179439  1
  Zr  Zr2  1  0.66404005  0.32598765  0.68408947  1
  Zr  Zr3  1  0.67089578  0.33082398  0.18534240  1
  Zr  Zr4  1  0.33062610  0.66282251  0.01767747  1
  Zr  Zr5  1  0.33939520  0.67118666  0.51691022  1
  Si  Si0  1  0.70092112  0.99713950  0.74738883  1
  Si  Si1  1  0.36427482  0.03486114  0.57940761  1
  Si  Si2  1  0.96354508  0.63332465  0.08014813  1
  P  P0  1  0.29445401  0.99740347  0.24851698  1
  P  P1  1  0.69886880  0.70326573  0.24560716  1
  P  P2  1  0.00237431  0.29688473  0.24829241  1
  P  P3  1  0.29436123  0.29741155  0.74625157  1
  P  P4  1  0.00097340  0.70461353  0.74862890  1
  P  P5  1  0.96166241  0.33212870  0.57939626  1
  P  P6  1  0.66876802  0.62622812  0.58239209  1
  P  P7  1  0.66989140  0.04039647  0.07866025  1
  P  P8  1  0.37324874  0.33090883  0.08360514  1
  P  P9  1  0.62903619  0.66231477  0.91332441  1
  P  P10  1  0.03485682  0.37043351  0.91399971  1
  P  P11  1  0.33595780  0.96489563  0.91470322  1
  P  P12  1  0.62827951  0.96576226  0.41532034  1
  P  P13  1  0.33578866  0.37116637  0.41231655  1
  P  P14  1  0.03614986  0.66263836  0.41341389  1
  O  O0  1  0.20363412  0.02101399  0.30485229  1
  O  O1  1  0.81898678  0.79944490  0.29970743  1
  O  O2  1  0.98555980  0.18988001  0.30533212  1
  O  O3  1  0.20524647  0.17721949  0.80067085  1
  O  O4  1  0.97939569  0.79425818  0.80509826  1
  O  O5  1  0.82302769  0.02570066  0.80696876  1
  O  O6  1  0.79152464  0.97655542  0.68887544  1
  O  O7  1  0.19414901  0.21598902  0.68922852  1
  O  O8  1  0.02686102  0.81260261  0.69288950  1
  O  O9  1  0.78086487  0.79833646  0.18794237  1
  O  O10  1  0.01725768  0.20768011  0.19258216  1
  O  O11  1  0.18903263  0.97926523  0.19279408  1
  O  O12  1  0.87875796  0.36241169  0.63663902  1
  O  O13  1  0.48673067  0.12655424  0.63943556  1
  O  O14  1  0.64244110  0.52401300  0.64174522  1
  O  O15  1  0.87081254  0.50982383  0.13984613  1
  O  O16  1  0.63670511  0.12782677  0.13347344  1
  O  O17  1  0.47925274  0.35853204  0.14215321  1
  O  O18  1  0.45945935  0.29955883  0.03124493  1
  O  O19  1  0.85117040  0.54296449  0.02204847  1
  O  O20  1  0.68943009  0.14098298  0.02204206  1
  O  O21  1  0.45436693  0.14786974  0.52150640  1
  O  O22  1  0.69404531  0.53557224  0.53038708  1
  O  O23  1  0.85640018  0.31435904  0.52438273  1
  O  O24  1  0.54137482  0.68599829  0.97023173  1
  O  O25  1  0.14065660  0.46015395  0.97167816  1
  O  O26  1  0.31348738  0.85037391  0.97110742  1
  O  O27  1  0.55004908  0.86464879  0.47513152  1
  O  O28  1  0.31264573  0.45843305  0.46962193  1
  O  O29  1  0.15280287  0.69046430  0.46971051  1
  O  O30  1  0.12204018  0.64361694  0.35777276  1
  O  O31  1  0.51247357  0.87002493  0.36393283  1
  O  O32  1  0.34328650  0.46981180  0.35669925  1
  O  O33  1  0.12587665  0.47564078  0.85890273  1
  O  O34  1  0.35289634  0.87709546  0.85895055  1
  O  O35  1  0.53130956  0.65487335  0.85724982  1
  O  O36  1  0.02720608  0.83089146  0.41171661  1
  O  O37  1  0.81002408  0.98567387  0.41158469  1
  O  O38  1  0.16679629  0.18958463  0.41209886  1
  O  O39  1  0.01722213  0.18997003  0.91402950  1
  O  O40  1  0.16790390  0.97190335  0.91390176  1
  O  O41  1  0.81053386  0.83032995  0.91322311  1
  O  O42  1  0.98161198  0.17491162  0.58591911  1
  O  O43  1  0.17503191  0.00830453  0.58678232  1
  O  O44  1  0.82088582  0.80800494  0.58688465  1
  O  O45  1  0.99128070  0.82356788  0.08694852  1
  O  O46  1  0.82794735  0.02306360  0.08756633  1
  O  O47  1  0.19022041  0.18207170  0.08983549  1
  O  O48  1  0.69065907  0.17590166  0.74742704  1
  O  O49  1  0.47572544  0.31708709  0.74541276  1
  O  O50  1  0.83341224  0.52902092  0.74608819  1
  O  O51  1  0.68963228  0.52420350  0.24662787  1
  O  O52  1  0.84031416  0.31627957  0.24760584  1
  O  O53  1  0.47026773  0.16514117  0.24685740  1
  O  O54  1  0.65606168  0.50992031  0.91801734  1
  O  O55  1  0.85573019  0.34789223  0.91787369  1
  O  O56  1  0.49508970  0.13963538  0.92119785  1
  O  O57  1  0.65364071  0.14635867  0.41927930  1
  O  O58  1  0.48733996  0.34249551  0.41690614  1
  O  O59  1  0.86127836  0.50460025  0.42115757  1
  O  O60  1  0.36617871  0.50000662  0.07788083  1
  O  O61  1  0.15424309  0.64637150  0.07958237  1
  O  O62  1  0.50838327  0.85798355  0.07737953  1
  O  O63  1  0.35166807  0.84467162  0.57933360  1
  O  O64  1  0.50064107  0.63580648  0.57758002  1
  O  O65  1  0.14302284  0.49473742  0.57704717  1
  O  O66  1  0.31012222  0.83814101  0.25481914  1
  O  O67  1  0.51907501  0.67271391  0.25352454  1
  O  O68  1  0.15965785  0.47643979  0.25244596  1
  O  O69  1  0.31192411  0.47312318  0.75465238  1
  O  O70  1  0.15308171  0.67602584  0.75507063  1
  O  O71  1  0.51096193  0.83437883  0.75371235  1
loop_
_geom_bond_atom_site_label_1
_geom_bond_atom_site_label_2
_geom_bond_distance
_geom_bond_site_symmetry_2
Na0 O67 2.391923 1_555
Na0 O68 2.453209 1_555
Na0 O32 2.465237 1_555
Na0 O53 2.533415 1_555
Na0 O51 2.618102 1_555
Na0 O17 2.793896 1_555
Na1 O66 2.406583 1_555
Na1 O68 2.457528 1_555
Na1 O52 2.544051 1_455
Na1 O30 2.546881 1_555
Na1 O51 2.568108 1_455
Na1 O15 2.820929 1_455
Na2 O71 2.438873 1_555
Na2 O69 2.508270 1_555
Na2 O35 2.524438 1_555
Na2 O50 2.568225 1_555
Na2 O49 2.601747 1_555
Na2 O14 2.745407 1_555
Na3 O70 2.434202 1_555
Na3 O69 2.451109 1_555
Na3 O33 2.513944 1_555
Na3 O48 2.514033 1_455
Na3 O50 2.649027 1_455
Na3 O5 2.919808 1_455
Na3 O12 2.925993 1_455
Na4 O71 2.361503 1_555
Na4 O70 2.484275 1_555
Na4 O34 2.526338 1_555
Na4 O48 2.606123 1_565
Na4 O49 2.669175 1_565
Na4 O13 2.850108 1_565
Na4 O3 2.945192 1_565
Na4 O8 2.983487 1_555
Na5 O43 2.420452 1_555
Na5 O42 2.466731 1_455
Na5 O7 2.512715 1_555
Na5 O64 2.582764 1_555
Na5 O65 2.632495 1_555
Na5 O28 2.860815 1_555
Na5 O21 2.927565 1_555
Na6 O43 2.366113 1_565
Na6 O44 2.474227 1_455
Na6 O8 2.538774 1_555
Na6 O63 2.566455 1_555
Na6 O65 2.636548 1_555
Na6 O29 2.914024 1_555
Na6 O22 2.936362 1_455
Na6 O12 2.943801 1_455
Na7 O6 2.382862 1_555
Na7 O44 2.439613 1_555
Na7 O42 2.449141 1_565
Na7 O63 2.603296 1_555
Na7 O64 2.677874 1_555
Na7 O27 2.854029 1_555
Na7 O13 2.909566 1_565
Na8 O45 2.364424 1_455
Na8 O47 2.497915 1_565
Na8 O11 2.524899 1_555
Na8 O61 2.589041 1_555
Na8 O62 2.670392 1_555
Na8 O18 2.880301 1_565
Na8 O26 2.900756 1_554
Na8 O16 2.911343 1_565
Na9 O45 2.421716 1_555
Na9 O9 2.440615 1_555
Na9 O46 2.507872 1_565
Na9 O60 2.567146 1_555
Na9 O62 2.619927 1_555
Na9 O24 2.877047 1_554
Na10 O46 2.431294 1_455
Na10 O47 2.436023 1_555
Na10 O10 2.528635 1_555
Na10 O61 2.545941 1_555
Na10 O60 2.692831 1_555
Na10 O25 2.882983 1_554
Na10 O15 2.895740 1_455
Na11 O19 2.365223 1_556
Na11 O54 2.389617 1_555
Na11 O55 2.460059 1_555
Na11 O40 2.564997 1_655
Na11 O41 2.578030 1_555
Na12 O56 2.415425 1_555
Na12 O55 2.448339 1_555
Na12 O20 2.488173 1_556
Na12 O39 2.554134 1_655
Na12 O41 2.589704 1_545
Na12 O5 2.806570 1_555
Na13 O59 2.406466 1_555
Na13 O57 2.441838 1_555
Na13 O23 2.530880 1_555
Na13 O37 2.537527 1_545
Na13 O38 2.565925 1_655
Na13 O2 2.839076 1_555
Na14 O21 2.373077 1_555
Na14 O58 2.387221 1_555
Na14 O57 2.460744 1_555
Na14 O36 2.578773 1_545
Na14 O38 2.615934 1_555
Na14 O29 2.942077 1_545
Na14 O0 2.960281 1_555
Na14 O31 2.981801 1_545
Na15 O43 2.376259 1_665
Na15 O44 2.399005 1_555
Na15 O42 2.497749 1_565
Na15 O36 2.664320 1_655
Na15 O37 2.715548 1_555
Na15 O38 2.740739 1_665
Na16 O45 2.386572 1_445
Na16 O47 2.456956 1_555
Na16 O46 2.539978 1_455
Na16 O40 2.605039 1_544
Na16 O39 2.662169 1_554
Na16 O41 2.724788 1_444
Na17 O54 2.342837 1_555
Na17 O56 2.388383 1_555
Na17 O55 2.482353 1_555
Na17 O49 2.649334 1_555
Na17 O48 2.664693 1_555
Na17 O50 2.766084 1_555
Na18 O58 2.360225 1_555
Na18 O57 2.426165 1_555
Na18 O59 2.449615 1_555
Na18 O51 2.665205 1_555
Na18 O52 2.696033 1_555
Na18 O53 2.701196 1_555
Na19 O66 2.377036 1_555
Na19 O67 2.378347 1_555
Na19 O68 2.496020 1_555
Na19 O62 2.679903 1_555
Na19 O61 2.699703 1_555
Na19 O60 2.821996 1_555
Na20 O71 2.336635 1_555
Na20 O70 2.488798 1_555
Na20 O69 2.507437 1_555
Na20 O63 2.589905 1_555
Na20 O64 2.729974 1_555
Na20 O65 2.772732 1_555
Mg0 O6 2.005381 1_555
Mg0 O8 2.077580 1_655
Mg0 O7 2.080499 1_665
Mg0 O43 2.094698 1_665
Mg0 O44 2.193118 1_555
Mg0 O42 2.211882 1_565
Mg1 O11 2.068286 1_655
Mg1 O9 2.071973 1_555
Mg1 O10 2.072555 1_665
Mg1 O45 2.091162 1_555
Mg1 O46 2.185933 1_565
Mg1 O47 2.188923 1_665
Mg2 O19 2.015005 1_556
Mg2 O18 2.019140 1_556
Mg2 O20 2.112346 1_556
Mg2 O56 2.160238 1_555
Mg2 O54 2.163787 1_555
Mg2 O55 2.242902 1_555
Mg3 O22 2.003936 1_555
Mg3 O21 2.015889 1_555
Mg3 O23 2.105925 1_555
Mg3 O59 2.168326 1_555
Mg3 O58 2.182999 1_555
Mg3 O57 2.197622 1_555
Mg4 O31 2.002454 1_555
Mg4 O32 2.078279 1_555
Mg4 O30 2.091451 1_555
Mg4 O67 2.142960 1_555
Mg4 O66 2.151596 1_555
Mg4 O68 2.234456 1_555
Mg5 O35 2.051475 1_555
Mg5 O34 2.061176 1_555
Mg5 O33 2.072727 1_555
Mg5 O71 2.092461 1_555
Mg5 O69 2.173858 1_555
Mg5 O70 2.198570 1_555
O0 P0 1.580103 1_545
O0 Zr0 2.089136 1_445
O1 P1 1.573535 1_555
O1 Zr0 2.045853 1_555
O2 P2 1.568567 1_655
O2 Zr0 2.092712 1_545
O3 P3 1.566642 1_555
O3 Zr1 2.069887 1_555
O4 P4 1.568961 1_655
O4 Zr1 2.102603 1_665
O5 Si0 1.674146 1_545
O5 Zr1 2.004434 1_655
O6 Si0 1.607707 1_555
O7 P3 1.529537 1_555
O8 P4 1.534022 1_555
O9 P1 1.526168 1_555
O10 P2 1.530404 1_555
O11 P0 1.534343 1_555
O12 P5 1.579439 1_555
O12 Zr2 2.099706 1_555
O13 Si1 1.679402 1_555
O13 Zr2 1.992532 1_555
O14 P6 1.572255 1_555
O14 Zr2 2.133402 1_555
O15 Si2 1.678297 1_555
O15 Zr3 2.009341 1_555
O16 P7 1.571411 1_555
O16 Zr3 2.068970 1_555
O17 P8 1.574159 1_555
O17 Zr3 2.120588 1_555
O18 P8 1.514593 1_555
O19 Si2 1.605656 1_555
O20 P7 1.523124 1_555
O21 Si1 1.603153 1_555
O22 P6 1.509241 1_555
O23 P5 1.521282 1_555
O24 P9 1.573912 1_555
O24 Zr4 2.108683 1_556
O25 P10 1.574708 1_555
O25 Zr4 2.065131 1_556
O26 P11 1.586304 1_555
O26 Zr4 2.074347 1_556
O27 P12 1.579534 1_555
O27 Zr5 2.067459 1_555
O28 P13 1.577140 1_555
O28 Zr5 2.110639 1_555
O29 P14 1.587382 1_555
O29 Zr5 2.084605 1_555
O30 P14 1.525549 1_555
O31 P12 1.509735 1_555
O32 P13 1.518776 1_555
O33 P10 1.527652 1_555
O34 P11 1.530535 1_555
O35 P9 1.523175 1_555
O36 P14 1.574669 1_555
O36 Zr0 2.144425 1_455
O37 P12 1.574664 1_555
O37 Zr0 2.109609 1_555
O38 P13 1.598168 1_555
O38 Zr0 2.167525 1_445
O39 P10 1.568674 1_555
O39 Zr1 2.134038 1_555
O40 P11 1.563880 1_555
O40 Zr1 2.185956 1_565
O41 P9 1.593930 1_555
O41 Zr1 2.165613 1_665
O42 P5 1.537638 1_555
O43 Si1 1.624472 1_555
O44 P6 1.540294 1_555
O45 Si2 1.627194 1_555
O46 P7 1.538332 1_555
O47 P8 1.540318 1_555
O48 Si0 1.676196 1_545
O48 Zr2 2.068927 1_555
O49 P3 1.570124 1_555
O49 Zr2 2.165250 1_555
O50 P4 1.563668 1_655
O50 Zr2 2.207075 1_555
O51 P1 1.589918 1_555
O51 Zr3 2.169281 1_555
O52 P2 1.572186 1_655
O52 Zr3 2.135510 1_555
O53 P0 1.564947 1_545
O53 Zr3 2.179755 1_555
O54 P9 1.529437 1_555
O55 P10 1.541482 1_655
O56 P11 1.530996 1_545
O57 P12 1.543901 1_545
O58 P13 1.531674 1_555
O59 P14 1.530431 1_655
O60 P8 1.578151 1_555
O60 Zr4 2.147512 1_555
O61 Si2 1.680782 1_455
O61 Zr4 2.068388 1_555
O62 P7 1.573687 1_565
O62 Zr4 2.165217 1_555
O63 Si1 1.676921 1_565
O63 Zr5 2.068673 1_555
O64 P6 1.580873 1_555
O64 Zr5 2.143221 1_555
O65 P5 1.573006 1_455
O65 Zr5 2.171642 1_555
O66 P0 1.533175 1_555
O67 P1 1.527691 1_555
O68 P2 1.545374 1_555
O69 P3 1.537115 1_555
O70 P4 1.539640 1_555
O71 Si0 1.625412 1_555
