# generated using pymatgen
data_MgV4O10
_symmetry_space_group_name_H-M   'P 1'
_cell_length_a   3.66758400
_cell_length_b   6.61813390
_cell_length_c   7.90231995
_cell_angle_alpha   88.46614084
_cell_angle_beta   90.00000000
_cell_angle_gamma   90.00000000
_symmetry_Int_Tables_number   1
_chemical_formula_structural   MgV4O10
_chemical_formula_sum   'Mg1 V4 O10'
_cell_volume   191.74082196
_cell_formula_units_Z   1
loop_
 _symmetry_equiv_pos_site_id
 _symmetry_equiv_pos_as_xyz
  1  'x, y, z'
loop_
 _atom_site_type_symbol
 _atom_site_label
 _atom_site_symmetry_multiplicity
 _atom_site_fract_x
 _atom_site_fract_y
 _atom_site_fract_z
 _atom_site_occupancy
  Mg  Mg0  1  0.25000000  0.47600200  0.65586100  1
  V  V0  1  0.75000100  0.78730300  0.75933100  1
  V  V1  1  0.25000100  0.26184400  0.25008100  1
  V  V2  1  0.75000100  0.18977200  0.93502400  1
  V  V3  1  0.25000100  0.80693800  0.10100500  1
  O  O0  1  0.25000100  0.72834000  0.81959400  1
  O  O1  1  0.75000100  0.25787500  0.16922200  1
  O  O2  1  0.75000100  0.03628400  0.71410200  1
  O  O3  1  0.25000100  0.94714800  0.27728100  1
  O  O4  1  0.75000100  0.40951400  0.80944000  1
  O  O5  1  0.25000100  0.56238600  0.16832600  1
  O  O6  1  0.25000100  0.12679200  0.98480200  1
  O  O7  1  0.75000100  0.66657300  0.57308000  1
  O  O8  1  0.25000100  0.30663100  0.45775300  1
  O  O9  1  0.75000100  0.84285000  0.02093300  1
loop_
_geom_bond_atom_site_label_1
_geom_bond_atom_site_label_2
_geom_bond_distance
_geom_bond_site_symmetry_2
Mg0 O8 1.949676 1_555
Mg0 O0 2.139790 1_555
Mg0 O4 2.236227 1_455
Mg0 O4 2.236233 1_555
Mg0 O7 2.310244 1_455
Mg0 O7 2.310249 1_555
O0 V0 1.931813 1_455
O0 V0 1.931813 1_555
O0 V3 2.297345 1_556
O1 V2 1.916486 1_554
O1 V1 1.942336 1_655
O1 V1 1.942336 1_555
O2 V0 1.676731 1_545
O2 V2 2.043184 1_555
O3 V3 1.694305 1_555
O3 V1 2.088031 1_565
O4 V2 1.738545 1_555
O4 V0 2.520930 1_555
O5 V3 1.690086 1_555
O5 V1 2.074806 1_555
O6 V2 1.918979 1_455
O6 V2 1.918979 1_555
O6 V3 2.284767 1_546
O6 V1 2.300810 1_556
O7 V0 1.693402 1_555
O8 V1 1.675433 1_555
O9 V3 1.952334 1_655
O9 V3 1.952334 1_555
O9 V0 2.109361 1_554
O9 V2 2.376750 1_564
