# generated using pymatgen
data_Na15Mg7Ta5(PO4)18
_symmetry_space_group_name_H-M   'P 1'
_cell_length_a   8.89063636
_cell_length_b   8.85423901
_cell_length_c   22.27585505
_cell_angle_alpha   89.95590628
_cell_angle_beta   90.20378849
_cell_angle_gamma   119.84020932
_symmetry_Int_Tables_number   1
_chemical_formula_structural   Na15Mg7Ta5(PO4)18
_chemical_formula_sum   'Na15 Mg7 Ta5 P18 O72'
_cell_volume   1521.04863437
_cell_formula_units_Z   1
loop_
 _symmetry_equiv_pos_site_id
 _symmetry_equiv_pos_as_xyz
  1  'x, y, z'
loop_
 _atom_site_type_symbol
 _atom_site_label
 _atom_site_symmetry_multiplicity
 _atom_site_fract_x
 _atom_site_fract_y
 _atom_site_fract_z
 _atom_site_occupancy
  Na  Na0  1  0.98710747  0.63131306  0.24508442  1
  Na  Na1  1  0.64845146  0.63641664  0.74826067  1
  Na  Na2  1  0.98773524  0.35068307  0.74840645  1
  Na  Na3  1  0.36372642  0.01204888  0.74831267  1
  Na  Na4  1  0.29586349  0.33371288  0.58517184  1
  Na  Na5  1  0.03863939  0.70516083  0.58578194  1
  Na  Na6  1  0.66560747  0.96228211  0.58522135  1
  Na  Na7  1  0.65454397  0.68939691  0.07916287  1
  Na  Na8  1  0.32028188  0.02394790  0.41180320  1
  Na  Na9  1  0.98921080  0.99941704  0.49521933  1
  Na  Na10  1  0.00997309  0.00854362  0.98867968  1
  Na  Na11  1  0.66697061  0.33329487  0.83265731  1
  Na  Na12  1  0.66438608  0.33042520  0.32329257  1
  Na  Na13  1  0.33084615  0.66742734  0.15616174  1
  Na  Na14  1  0.33361250  0.66694506  0.66304146  1
  Mg  Mg0  1  0.99411963  0.00026439  0.35219056  1
  Mg  Mg1  1  0.99977011  0.99991091  0.85281393  1
  Mg  Mg2  1  0.99996291  0.00035858  0.65086495  1
  Mg  Mg3  1  0.66670817  0.33290741  0.68429051  1
  Mg  Mg4  1  0.66103836  0.32715442  0.18501423  1
  Mg  Mg5  1  0.32692786  0.66590290  0.01883032  1
  Mg  Mg6  1  0.33417872  0.66650811  0.51627110  1
  Ta  Ta0  1  0.00439611  0.00671410  0.14494590  1
  Ta  Ta1  1  0.66611998  0.33042380  0.97920473  1
  Ta  Ta2  1  0.67157670  0.33762659  0.47798822  1
  Ta  Ta3  1  0.33848398  0.66514510  0.31173071  1
  Ta  Ta4  1  0.33254630  0.66637127  0.81945495  1
  P  P0  1  0.29394480  0.00571054  0.25353543  1
  P  P1  1  0.71279595  0.71055294  0.25076989  1
  P  P2  1  0.99676714  0.28841117  0.25253527  1
  P  P3  1  0.29327038  0.29392667  0.74979441  1
  P  P4  1  0.00077992  0.70697082  0.74979619  1
  P  P5  1  0.70545706  0.99856082  0.74983636  1
  P  P6  1  0.96111745  0.33479940  0.58487969  1
  P  P7  1  0.37440060  0.03995215  0.58365653  1
  P  P8  1  0.66526248  0.62626615  0.58489503  1
  P  P9  1  0.96035155  0.62184788  0.08663982  1
  P  P10  1  0.66344997  0.04171087  0.08560930  1
  P  P11  1  0.37902789  0.33532495  0.08473922  1
  P  P12  1  0.63046874  0.67038847  0.92113691  1
  P  P13  1  0.04107267  0.37072522  0.92030366  1
  P  P14  1  0.32949170  0.95926197  0.92017067  1
  P  P15  1  0.62822359  0.95575903  0.41942631  1
  P  P16  1  0.33002716  0.37328806  0.41954100  1
  P  P17  1  0.04348977  0.66799805  0.41765046  1
  O  O0  1  0.21080245  0.02011238  0.31058545  1
  O  O1  1  0.82595487  0.79566260  0.30452115  1
  O  O2  1  0.97760936  0.18313109  0.30709339  1
  O  O3  1  0.20604846  0.17618758  0.80253876  1
  O  O4  1  0.97063055  0.79438036  0.80266977  1
  O  O5  1  0.82339804  0.02913819  0.80269563  1
  O  O6  1  0.76903252  0.95437633  0.69133141  1
  O  O7  1  0.18543374  0.23078361  0.69115355  1
  O  O8  1  0.04472170  0.81477284  0.69123969  1
  O  O9  1  0.79568519  0.82656850  0.19253864  1
  O  O10  1  0.02751963  0.20009683  0.19518582  1
  O  O11  1  0.16614802  0.96897787  0.19786097  1
  O  O12  1  0.87971180  0.36420969  0.64045409  1
  O  O13  1  0.48590019  0.12284457  0.63922245  1
  O  O14  1  0.63676598  0.51579185  0.64063888  1
  O  O15  1  0.87722350  0.52407259  0.14378366  1
  O  O16  1  0.64375842  0.12747654  0.14025104  1
  O  O17  1  0.49091941  0.36397541  0.13896374  1
  O  O18  1  0.46694062  0.30283897  0.02782997  1
  O  O19  1  0.83232264  0.53113958  0.03116939  1
  O  O20  1  0.69400392  0.16042268  0.02833438  1
  O  O21  1  0.47244492  0.16019722  0.52665310  1
  O  O22  1  0.68752740  0.52412012  0.52900824  1
  O  O23  1  0.83705027  0.31258278  0.52883827  1
  O  O24  1  0.54311117  0.68686461  0.97623610  1
  O  O25  1  0.15177813  0.46278968  0.97298413  1
  O  O26  1  0.31365679  0.84991013  0.97297964  1
  O  O27  1  0.54460020  0.85763543  0.47641368  1
  O  O28  1  0.31112544  0.45439970  0.47625481  1
  O  O29  1  0.14995935  0.69281232  0.47385668  1
  O  O30  1  0.13254829  0.63793638  0.36082135  1
  O  O31  1  0.49992182  0.86349535  0.36396590  1
  O  O32  1  0.35939384  0.49606190  0.36366221  1
  O  O33  1  0.12879989  0.49107877  0.86100042  1
  O  O34  1  0.36107980  0.87142935  0.86081283  1
  O  O35  1  0.50708615  0.63916673  0.86307600  1
  O  O36  1  0.02217543  0.82648383  0.40978317  1
  O  O37  1  0.80741838  0.98382023  0.41069069  1
  O  O38  1  0.18218231  0.18867764  0.41101253  1
  O  O39  1  0.01335447  0.19103859  0.90937203  1
  O  O40  1  0.17776243  0.98691726  0.90957810  1
  O  O41  1  0.80803683  0.82312642  0.91003777  1
  O  O42  1  0.96959350  0.16554838  0.58449165  1
  O  O43  1  0.19660212  0.03037922  0.58387350  1
  O  O44  1  0.83338133  0.80365575  0.58445181  1
  O  O45  1  0.96572307  0.80700435  0.09032657  1
  O  O46  1  0.83800245  0.02820815  0.09013005  1
  O  O47  1  0.19496290  0.16323555  0.09067656  1
  O  O48  1  0.67492642  0.15551804  0.74469605  1
  O  O49  1  0.47983233  0.32431411  0.74479600  1
  O  O50  1  0.84490205  0.51991431  0.74470253  1
  O  O51  1  0.68753917  0.52890645  0.24287748  1
  O  O52  1  0.85073083  0.32866500  0.24416969  1
  O  O53  1  0.47391521  0.15584311  0.24439883  1
  O  O54  1  0.63787871  0.49462521  0.92336885  1
  O  O55  1  0.85852448  0.36389353  0.92387440  1
  O  O56  1  0.50507891  0.14226868  0.92306994  1
  O  O57  1  0.63141634  0.13889591  0.42210370  1
  O  O58  1  0.50330093  0.35998742  0.42252797  1
  O  O59  1  0.85987365  0.49686952  0.42249932  1
  O  O60  1  0.35490083  0.49190043  0.07586113  1
  O  O61  1  0.14046740  0.65175903  0.07776819  1
  O  O62  1  0.51753463  0.85541706  0.07734322  1
  O  O63  1  0.35464102  0.85799152  0.57702808  1
  O  O64  1  0.50382331  0.64527586  0.57716672  1
  O  O65  1  0.14085387  0.49645092  0.57703907  1
  O  O66  1  0.29862008  0.82540196  0.25703107  1
  O  O67  1  0.52780309  0.69744716  0.25766668  1
  O  O68  1  0.17104951  0.47664762  0.25707385  1
  O  O69  1  0.31425873  0.48384521  0.75906191  1
  O  O70  1  0.16943722  0.68623112  0.75894464  1
  O  O71  1  0.51669895  0.82993577  0.75910637  1
loop_
_geom_bond_atom_site_label_1
_geom_bond_atom_site_label_2
_geom_bond_distance
_geom_bond_site_symmetry_2
Na0 O52 2.327644 1_555
Na0 O51 2.348168 1_555
Na0 O66 2.439971 1_655
Na0 O15 2.452051 1_555
Na0 O68 2.616516 1_655
Na0 O11 2.801798 1_655
Na0 O1 2.831014 1_555
Na0 O30 2.867630 1_655
Na1 O49 2.401393 1_555
Na1 O50 2.432061 1_555
Na1 O71 2.523185 1_555
Na1 O69 2.592486 1_555
Na1 O14 2.605882 1_555
Na1 O4 2.760591 1_555
Na1 O6 2.772002 1_555
Na1 O35 2.859195 1_555
Na2 O50 2.399440 1_555
Na2 O48 2.437892 1_555
Na2 O69 2.542284 1_655
Na2 O70 2.591100 1_655
Na2 O12 2.610945 1_555
Na2 O5 2.751453 1_555
Na2 O7 2.778118 1_655
Na2 O33 2.799968 1_655
Na3 O48 2.403943 1_555
Na3 O49 2.424085 1_555
Na3 O70 2.530824 1_545
Na3 O71 2.585927 1_545
Na3 O13 2.646163 1_555
Na3 O3 2.752945 1_555
Na3 O8 2.785478 1_545
Na3 O34 2.792393 1_545
Na4 O43 2.373667 1_555
Na4 O65 2.445881 1_555
Na4 O64 2.446664 1_555
Na4 O42 2.516560 1_455
Na4 O7 2.547697 1_555
Na4 O28 2.626956 1_555
Na5 O44 2.382216 1_455
Na5 O65 2.439627 1_555
Na5 O63 2.445880 1_555
Na5 O43 2.498350 1_565
Na5 O8 2.532546 1_555
Na5 O29 2.708013 1_555
Na5 O12 2.890478 1_455
Na5 O22 2.984755 1_455
Na6 O42 2.388161 1_565
Na6 O64 2.441449 1_555
Na6 O63 2.446543 1_555
Na6 O44 2.506585 1_555
Na6 O6 2.546721 1_555
Na6 O27 2.623655 1_555
Na6 O13 2.880545 1_565
Na6 O23 2.970493 1_565
Na7 O62 2.329752 1_555
Na7 O60 2.350127 1_555
Na7 O45 2.434890 1_555
Na7 O24 2.490114 1_554
Na7 O46 2.616953 1_565
Na7 O19 2.796969 1_555
Na7 O9 2.809554 1_555
Na7 O17 2.833645 1_555
Na8 O38 2.327472 1_555
Na8 O36 2.339039 1_545
Na8 O57 2.436059 1_555
Na8 O0 2.446198 1_555
Na8 O58 2.595746 1_555
Na8 O31 2.824380 1_545
Na8 O21 2.861258 1_555
Na8 O29 2.896627 1_545
Na9 O37 2.435869 1_555
Na9 O42 2.532003 1_565
Na9 O38 2.535170 1_665
Na9 O44 2.549387 1_555
Na9 O36 2.550983 1_655
Na9 O43 2.616643 1_665
Na10 O40 2.381244 1_545
Na10 O39 2.383394 1_555
Na10 O41 2.456872 1_445
Na10 O47 2.734903 1_556
Na10 O46 2.786604 1_456
Na10 O45 2.787030 1_446
Na11 O48 2.537431 1_555
Na11 O49 2.539778 1_555
Na11 O50 2.547023 1_555
Na11 O54 2.562491 1_555
Na11 O56 2.565426 1_555
Na11 O55 2.572852 1_555
Na12 O53 2.392416 1_555
Na12 O52 2.428579 1_555
Na12 O51 2.444874 1_555
Na12 O57 2.703854 1_555
Na12 O58 2.720768 1_555
Na12 O59 2.739527 1_555
Na13 O61 2.383123 1_555
Na13 O62 2.423836 1_555
Na13 O60 2.449202 1_555
Na13 O66 2.737809 1_555
Na13 O68 2.748362 1_555
Na13 O67 2.785515 1_555
Na14 O63 2.500068 1_555
Na14 O65 2.508495 1_555
Na14 O64 2.509232 1_555
Na14 O69 2.636789 1_555
Na14 O71 2.637007 1_555
Na14 O70 2.644680 1_555
Mg0 O2 1.971122 1_555
Mg0 O1 1.985199 1_545
Mg0 O37 2.061359 1_545
Mg0 O0 2.067985 1_655
Mg0 O36 2.110054 1_645
Mg0 O38 2.123089 1_655
Mg1 O4 2.039225 1_555
Mg1 O5 2.040374 1_565
Mg1 O3 2.053536 1_665
Mg1 O39 2.065075 1_665
Mg1 O40 2.069551 1_655
Mg1 O41 2.082746 1_555
Mg2 O8 2.076855 1_645
Mg2 O7 2.081191 1_655
Mg2 O6 2.091497 1_545
Mg2 O42 2.187476 1_555
Mg2 O44 2.199284 1_545
Mg2 O43 2.215729 1_655
Mg3 O14 2.015748 1_555
Mg3 O13 2.016758 1_555
Mg3 O12 2.026576 1_555
Mg3 O48 2.095978 1_555
Mg3 O50 2.107195 1_555
Mg3 O49 2.114888 1_555
Mg4 O16 1.968506 1_555
Mg4 O17 1.981237 1_555
Mg4 O15 2.062244 1_555
Mg4 O53 2.078389 1_555
Mg4 O51 2.119088 1_555
Mg4 O52 2.131343 1_555
Mg5 O26 1.974696 1_554
Mg5 O25 1.976536 1_554
Mg5 O24 2.070392 1_554
Mg5 O61 2.072712 1_555
Mg5 O60 2.103680 1_555
Mg5 O62 2.131705 1_555
Mg6 O28 1.995474 1_555
Mg6 O29 1.999417 1_555
Mg6 O27 2.002713 1_555
Mg6 O64 2.101780 1_555
Mg6 O63 2.105748 1_555
Mg6 O65 2.119369 1_555
O0 P0 1.509445 1_555
O1 P1 1.500677 1_555
O2 P2 1.488862 1_555
O3 P3 1.506210 1_555
O4 P4 1.506042 1_655
O5 P5 1.506142 1_545
O6 P5 1.548248 1_555
O7 P3 1.548192 1_555
O8 P4 1.547826 1_555
O9 P1 1.591315 1_555
O9 Ta0 2.043836 1_665
O10 P2 1.592174 1_455
O10 Ta0 1.969152 1_555
O11 P0 1.599267 1_565
O11 Ta0 2.008636 1_565
O12 P6 1.522699 1_555
O13 P7 1.523837 1_555
O14 P8 1.522059 1_555
O15 P9 1.511391 1_555
O16 P10 1.491348 1_555
O17 P11 1.501252 1_555
O18 P11 1.591240 1_555
O18 Ta1 1.987855 1_554
O19 P9 1.596643 1_555
O19 Ta1 2.014798 1_554
O20 P10 1.588286 1_555
O20 Ta1 1.972761 1_554
O21 P7 1.608719 1_555
O21 Ta2 2.005174 1_555
O22 P8 1.608932 1_555
O22 Ta2 1.951188 1_555
O23 P6 1.608871 1_555
O23 Ta2 1.951660 1_555
O24 P12 1.500256 1_555
O25 P13 1.484974 1_555
O26 P14 1.484888 1_555
O27 P15 1.510385 1_555
O28 P16 1.504356 1_555
O29 P17 1.515560 1_555
O30 P17 1.586727 1_555
O30 Ta3 2.044733 1_555
O31 P15 1.599684 1_555
O31 Ta3 1.995268 1_555
O32 P16 1.586526 1_555
O32 Ta3 1.971517 1_555
O33 P13 1.633115 1_555
O33 Ta4 1.938696 1_555
O34 P14 1.628982 1_555
O34 Ta4 1.937056 1_555
O35 P12 1.625167 1_555
O35 Ta4 1.941931 1_555
O36 P17 1.516512 1_555
O37 P15 1.498650 1_555
O38 P16 1.515332 1_555
O39 P13 1.503750 1_555
O40 P14 1.503903 1_555
O41 P12 1.503303 1_555
O42 P6 1.537508 1_555
O43 P7 1.540347 1_555
O44 P8 1.537831 1_555
O45 P9 1.618329 1_555
O45 Ta0 2.029940 1_665
O46 P10 1.617493 1_555
O46 Ta0 1.995662 1_655
O47 P11 1.592792 1_555
O47 Ta0 1.981895 1_555
O48 P5 1.546963 1_545
O49 P3 1.546957 1_555
O50 P4 1.546468 1_655
O51 P1 1.519488 1_555
O52 P2 1.518612 1_555
O53 P0 1.501290 1_555
O54 P12 1.590790 1_555
O54 Ta1 2.020420 1_555
O55 P13 1.596004 1_655
O55 Ta1 2.010735 1_555
O56 P14 1.596532 1_545
O56 Ta1 2.001437 1_555
O57 P15 1.608751 1_545
O57 Ta2 2.036762 1_555
O58 P16 1.603522 1_555
O58 Ta2 2.021132 1_555
O59 P17 1.584899 1_655
O59 Ta2 1.995360 1_555
O60 P11 1.517342 1_555
O61 P9 1.501206 1_455
O62 P10 1.518855 1_565
O63 P7 1.538472 1_565
O64 P8 1.535141 1_555
O65 P6 1.535617 1_455
O66 P0 1.619387 1_565
O66 Ta3 2.029401 1_555
O67 P1 1.598111 1_555
O67 Ta3 1.974857 1_555
O68 P2 1.618053 1_455
O68 Ta3 2.000410 1_555
O69 P3 1.610328 1_555
O69 Ta4 2.046572 1_555
O70 P4 1.611042 1_555
O70 Ta4 2.047002 1_555
O71 P5 1.611403 1_555
O71 Ta4 2.058673 1_555
