# generated using pymatgen
data_Na6Y4Si5Sn4S7O48
_symmetry_space_group_name_H-M   'P 1'
_cell_length_a   18.20997925
_cell_length_b   9.06990015
_cell_length_c   23.60236195
_cell_angle_alpha   89.99869162
_cell_angle_beta   89.78129393
_cell_angle_gamma   119.90750707
_symmetry_Int_Tables_number   1
_chemical_formula_structural   Na6Y4Si5Sn4S7O48
_chemical_formula_sum   'Na18 Y12 Si15 Sn12 S21 O144'
_cell_volume   3379.07503710
_cell_formula_units_Z   3
loop_
 _symmetry_equiv_pos_site_id
 _symmetry_equiv_pos_as_xyz
  1  'x, y, z'
loop_
 _atom_site_type_symbol
 _atom_site_label
 _atom_site_symmetry_multiplicity
 _atom_site_fract_x
 _atom_site_fract_y
 _atom_site_fract_z
 _atom_site_occupancy
  Na  Na0  1  0.99891121  0.62998340  0.25463904  1
  Na  Na1  1  0.49791593  0.62574151  0.25118651  1
  Na  Na2  1  0.99775300  0.37274944  0.75064848  1
  Na  Na3  1  0.50163329  0.36117723  0.75252628  1
  Na  Na4  1  0.66282724  0.30570551  0.91859497  1
  Na  Na5  1  0.16494168  0.01863687  0.42819784  1
  Na  Na6  1  0.00082687  0.99386335  0.50776176  1
  Na  Na7  1  0.50501901  0.99714977  0.50334320  1
  Na  Na8  1  0.00379594  0.01054651  0.99798859  1
  Na  Na9  1  0.50231841  0.01200221  0.00243170  1
  Na  Na10  1  0.32978591  0.32182142  0.84038608  1
  Na  Na11  1  0.83282173  0.33407038  0.82119631  1
  Na  Na12  1  0.34406719  0.34815524  0.32745811  1
  Na  Na13  1  0.82570998  0.33282127  0.34320168  1
  Na  Na14  1  0.18346230  0.66161441  0.16320431  1
  Na  Na15  1  0.66860952  0.65154529  0.16091942  1
  Na  Na16  1  0.17007399  0.68818907  0.66369067  1
  Na  Na17  1  0.68040731  0.68812385  0.66992070  1
  Y  Y0  1  0.99521176  0.98957751  0.35811453  1
  Y  Y1  1  0.49960314  0.00757780  0.85479345  1
  Y  Y2  1  0.32416839  0.33322479  0.67844558  1
  Y  Y3  1  0.82546398  0.31500579  0.68797447  1
  Y  Y4  1  0.33168164  0.34497380  0.18473763  1
  Y  Y5  1  0.82188635  0.31326833  0.17715001  1
  Y  Y6  1  0.83101294  0.32164023  0.98815434  1
  Y  Y7  1  0.33272977  0.34523072  0.49122317  1
  Y  Y8  1  0.17118100  0.66629887  0.31466475  1
  Y  Y9  1  0.66729575  0.64883759  0.31481462  1
  Y  Y10  1  0.16888125  0.68707659  0.81426758  1
  Y  Y11  1  0.66905575  0.66315882  0.81083148  1
  Si  Si0  1  0.36073092  0.72486330  0.25039728  1
  Si  Si1  1  0.49866219  0.29285521  0.24966799  1
  Si  Si2  1  0.64258046  0.28652529  0.74896065  1
  Si  Si3  1  0.00062039  0.70490374  0.74934406  1
  Si  Si4  1  0.86177742  0.99838868  0.75059884  1
  Si  Si5  1  0.17649327  0.03018098  0.58188414  1
  Si  Si6  1  0.68724085  0.03161158  0.57966228  1
  Si  Si7  1  0.33413328  0.64677808  0.58372397  1
  Si  Si8  1  0.83053880  0.02181929  0.08254725  1
  Si  Si9  1  0.18793277  0.34354087  0.08066881  1
  Si  Si10  1  0.67651512  0.32630893  0.08179414  1
  Si  Si11  1  0.51745936  0.37997760  0.91938308  1
  Si  Si12  1  0.16321846  0.96322718  0.91930288  1
  Si  Si13  1  0.66448560  0.36415948  0.41913493  1
  Si  Si14  1  0.01838944  0.65300019  0.41829785  1
  Sn  Sn0  1  0.50132596  0.01640450  0.35098954  1
  Sn  Sn1  1  0.00122457  0.98459138  0.85017482  1
  Sn  Sn2  1  0.00108386  0.98556961  0.65067122  1
  Sn  Sn3  1  0.50929350  0.99885546  0.64361136  1
  Sn  Sn4  1  0.00336281  0.01750704  0.14070537  1
  Sn  Sn5  1  0.50046029  0.01559792  0.14950377  1
  Sn  Sn6  1  0.32738084  0.32104604  0.98129654  1
  Sn  Sn7  1  0.82815247  0.33601330  0.48295600  1
  Sn  Sn8  1  0.16421730  0.66505809  0.01434298  1
  Sn  Sn9  1  0.66696948  0.65773506  0.02063826  1
  Sn  Sn10  1  0.16589773  0.67627386  0.52328595  1
  Sn  Sn11  1  0.66326906  0.65920363  0.51666297  1
  S  S0  1  0.14137447  0.99874971  0.24851741  1
  S  S1  1  0.64450145  0.00200126  0.25147531  1
  S  S2  1  0.85829143  0.71353375  0.24616311  1
  S  S3  1  0.99928124  0.29161194  0.24855377  1
  S  S4  1  0.14468721  0.28699854  0.75156757  1
  S  S5  1  0.49796829  0.70507943  0.74884058  1
  S  S6  1  0.35650904  0.00140361  0.74610847  1
  S  S7  1  0.48592710  0.33425780  0.58442760  1
  S  S8  1  0.97993566  0.32949609  0.58117128  1
  S  S9  1  0.83271747  0.63131919  0.58114547  1
  S  S10  1  0.48080837  0.63250644  0.08145779  1
  S  S11  1  0.98677193  0.63722895  0.08590556  1
  S  S12  1  0.33175454  0.03317346  0.08160370  1
  S  S13  1  0.31174195  0.66003693  0.91951979  1
  S  S14  1  0.81642670  0.67261002  0.91831890  1
  S  S15  1  0.01984269  0.36708739  0.91580422  1
  S  S16  1  0.66681593  0.95621121  0.91887266  1
  S  S17  1  0.31620286  0.96158131  0.41778902  1
  S  S18  1  0.81089000  0.96307352  0.41913876  1
  S  S19  1  0.16806874  0.37433979  0.41860881  1
  S  S20  1  0.51909075  0.67207873  0.41532044  1
  O  O0  1  0.10309107  0.01973212  0.30143730  1
  O  O1  1  0.60535432  0.02477066  0.30365090  1
  O  O2  1  0.42209276  0.80814092  0.30742008  1
  O  O3  1  0.90852390  0.79344425  0.29837830  1
  O  O4  1  0.48613747  0.18307275  0.30762089  1
  O  O5  1  0.99025667  0.19123968  0.29994002  1
  O  O6  1  0.10574115  0.18586426  0.80370420  1
  O  O7  1  0.60187930  0.18510541  0.80848303  1
  O  O8  1  0.48555075  0.78264686  0.80024859  1
  O  O9  1  0.98774826  0.78887795  0.80751747  1
  O  O10  1  0.40469360  0.02009319  0.79900033  1
  O  O11  1  0.92383625  0.03805934  0.80770686  1
  O  O12  1  0.39759792  0.98124182  0.69562632  1
  O  O13  1  0.90649761  0.98011426  0.69125330  1
  O  O14  1  0.09321305  0.21072731  0.69963772  1
  O  O15  1  0.57608137  0.18922857  0.69494819  1
  O  O16  1  0.02039123  0.82487408  0.69320036  1
  O  O17  1  0.50647747  0.80485653  0.69699862  1
  O  O18  1  0.40608209  0.83043803  0.19142764  1
  O  O19  1  0.90226880  0.81805517  0.19565176  1
  O  O20  1  0.01012111  0.20870960  0.19715894  1
  O  O21  1  0.51766232  0.21260476  0.19344032  1
  O  O22  1  0.08536398  0.97262154  0.19855695  1
  O  O23  1  0.59300146  0.97549479  0.19975821  1
  O  O24  1  0.44772997  0.36081459  0.63609602  1
  O  O25  1  0.94620004  0.36247455  0.63324102  1
  O  O26  1  0.23685405  0.11733798  0.63569396  1
  O  O27  1  0.74153981  0.10283839  0.63587146  1
  O  O28  1  0.31587579  0.52888308  0.63905996  1
  O  O29  1  0.82082572  0.53066443  0.63182605  1
  O  O30  1  0.44652653  0.53142422  0.13431038  1
  O  O31  1  0.94865893  0.53599323  0.13811479  1
  O  O32  1  0.31923761  0.10936409  0.13319436  1
  O  O33  1  0.81618808  0.10120382  0.14008331  1
  O  O34  1  0.23953866  0.37603566  0.13852234  1
  O  O35  1  0.73569185  0.35968847  0.13694258  1
  O  O36  1  0.23288854  0.30953232  0.02614384  1
  O  O37  1  0.71746317  0.30031755  0.02367331  1
  O  O38  1  0.42556765  0.54597064  0.03212080  1
  O  O39  1  0.93364938  0.55892380  0.03567172  1
  O  O40  1  0.34652907  0.14135212  0.03073133  1
  O  O41  1  0.85343575  0.14514380  0.02831003  1
  O  O42  1  0.21556045  0.13296645  0.52207263  1
  O  O43  1  0.73154107  0.15421566  0.52381147  1
  O  O44  1  0.35500371  0.56940786  0.52784151  1
  O  O45  1  0.84820361  0.55498803  0.52915334  1
  O  O46  1  0.43384787  0.31246130  0.53374311  1
  O  O47  1  0.92610521  0.30729443  0.53050915  1
  O  O48  1  0.27081652  0.68719037  0.97065051  1
  O  O49  1  0.77690173  0.69796849  0.96996376  1
  O  O50  1  0.07322265  0.44960802  0.96780317  1
  O  O51  1  0.58593041  0.47560226  0.97151421  1
  O  O52  1  0.14783375  0.83930538  0.97601064  1
  O  O53  1  0.65913595  0.85663348  0.97059149  1
  O  O54  1  0.27552846  0.85578774  0.46867518  1
  O  O55  1  0.77052368  0.85366038  0.46928642  1
  O  O56  1  0.15745417  0.45635378  0.46908971  1
  O  O57  1  0.64881741  0.45885875  0.47467273  1
  O  O58  1  0.08861240  0.69687356  0.46903595  1
  O  O59  1  0.57222654  0.69489504  0.46647238  1
  O  O60  1  0.05392978  0.63050345  0.35680275  1
  O  O61  1  0.56015388  0.65430888  0.36328655  1
  O  O62  1  0.26268299  0.88283806  0.36685464  1
  O  O63  1  0.76266192  0.88894126  0.36671525  1
  O  O64  1  0.17809256  0.47187720  0.36626467  1
  O  O65  1  0.68280089  0.47848239  0.36294502  1
  O  O66  1  0.06166226  0.46822718  0.86442106  1
  O  O67  1  0.55301473  0.47826648  0.85948620  1
  O  O68  1  0.18167156  0.88412286  0.86399941  1
  O  O69  1  0.67690628  0.87844009  0.86734301  1
  O  O70  1  0.26183073  0.63527299  0.86791495  1
  O  O71  1  0.76320605  0.64415767  0.86794243  1
  O  O72  1  0.01515829  0.83336012  0.41586707  1
  O  O73  1  0.51083920  0.82716639  0.41174427  1
  O  O74  1  0.40040120  0.97510360  0.41228179  1
  O  O75  1  0.89674993  0.98066095  0.41484887  1
  O  O76  1  0.09107062  0.20109841  0.41364878  1
  O  O77  1  0.57797004  0.17260209  0.41266049  1
  O  O78  1  0.01153977  0.19606020  0.91270992  1
  O  O79  1  0.51191644  0.19220604  0.91926168  1
  O  O80  1  0.07719984  0.98293781  0.91321784  1
  O  O81  1  0.58940321  0.97367463  0.91671876  1
  O  O82  1  0.39660780  0.81218030  0.91585471  1
  O  O83  1  0.90120946  0.82728490  0.91339965  1
  O  O84  1  0.49412174  0.18102814  0.58848559  1
  O  O85  1  0.98821952  0.17497021  0.58560387  1
  O  O86  1  0.08257039  0.02063169  0.58827197  1
  O  O87  1  0.59235807  0.01440489  0.58383626  1
  O  O88  1  0.41731781  0.83890905  0.59245806  1
  O  O89  1  0.90851497  0.80551204  0.58479954  1
  O  O90  1  0.48816300  0.80273803  0.08726059  1
  O  O91  1  0.99645496  0.81021893  0.09192917  1
  O  O92  1  0.40773139  0.01183197  0.08594276  1
  O  O93  1  0.91511712  0.99673861  0.08915993  1
  O  O94  1  0.09314264  0.16659681  0.08632745  1
  O  O95  1  0.58288055  0.14621887  0.08853163  1
  O  O96  1  0.35125907  0.16090357  0.74329100  1
  O  O97  1  0.85873026  0.17398908  0.74787737  1
  O  O98  1  0.22992036  0.30514694  0.74754238  1
  O  O99  1  0.73556913  0.31049287  0.74559948  1
  O  O100  1  0.42431421  0.52853906  0.74426878  1
  O  O101  1  0.91908492  0.51734944  0.74542778  1
  O  O102  1  0.35437845  0.53829253  0.24800153  1
  O  O103  1  0.85299997  0.54424127  0.24320057  1
  O  O104  1  0.41515873  0.31446622  0.24630264  1
  O  O105  1  0.92477326  0.31632792  0.24416715  1
  O  O106  1  0.22640316  0.14575513  0.24319756  1
  O  O107  1  0.72996566  0.15495772  0.24768768  1
  O  O108  1  0.32059399  0.50687409  0.92598986  1
  O  O109  1  0.82395749  0.51729455  0.92399265  1
  O  O110  1  0.42332843  0.36294530  0.93039181  1
  O  O111  1  0.93673919  0.35669210  0.92204669  1
  O  O112  1  0.24824630  0.15141815  0.92573031  1
  O  O113  1  0.74115489  0.13309050  0.92205663  1
  O  O114  1  0.32334386  0.13170312  0.42268811  1
  O  O115  1  0.82214148  0.13557967  0.42505968  1
  O  O116  1  0.24224751  0.34784758  0.42121389  1
  O  O117  1  0.75001102  0.34733655  0.42530911  1
  O  O118  1  0.43510909  0.51625782  0.42057214  1
  O  O119  1  0.92411895  0.48609138  0.42940141  1
  O  O120  1  0.17312075  0.51035754  0.07072029  1
  O  O121  1  0.66632551  0.49632264  0.07867582  1
  O  O122  1  0.07219056  0.65376148  0.07916738  1
  O  O123  1  0.56682908  0.65377743  0.07409413  1
  O  O124  1  0.25431506  0.86142739  0.07456881  1
  O  O125  1  0.74312362  0.83813785  0.07393526  1
  O  O126  1  0.16565747  0.83868691  0.57910056  1
  O  O127  1  0.67417924  0.83578409  0.56964679  1
  O  O128  1  0.24471955  0.65088859  0.57370009  1
  O  O129  1  0.75513358  0.64700441  0.57333040  1
  O  O130  1  0.06694482  0.48085866  0.57305979  1
  O  O131  1  0.57178041  0.49043565  0.57813143  1
  O  O132  1  0.14523606  0.83863196  0.25192569  1
  O  O133  1  0.65168341  0.84687147  0.25668999  1
  O  O134  1  0.26653132  0.70431610  0.25339180  1
  O  O135  1  0.77408302  0.69727085  0.25031388  1
  O  O136  1  0.07603090  0.46411601  0.25101211  1
  O  O137  1  0.58038701  0.48823414  0.25229994  1
  O  O138  1  0.15144434  0.45606751  0.75674290  1
  O  O139  1  0.64296561  0.46778812  0.74869261  1
  O  O140  1  0.08352391  0.67692115  0.75186574  1
  O  O141  1  0.57546374  0.69140871  0.75185515  1
  O  O142  1  0.27105727  0.84977741  0.75047006  1
  O  O143  1  0.76838039  0.83313168  0.75387522  1
loop_
_geom_bond_atom_site_label_1
_geom_bond_atom_site_label_2
_geom_bond_distance
_geom_bond_site_symmetry_2
Na0 O132 2.378153 1_655
Na0 O103 2.383796 1_555
Na0 O105 2.479801 1_555
Na0 O136 2.519647 1_655
Na0 O60 2.613795 1_655
Na0 O31 2.892989 1_555
Na0 O3 2.897144 1_555
Na0 O22 2.998905 1_655
Na1 O102 2.323987 1_555
Na1 O137 2.383192 1_555
Na1 O104 2.452269 1_555
Na1 O133 2.506496 1_555
Na1 O61 2.842904 1_555
Na1 O30 2.904936 1_555
Na1 O2 2.944284 1_555
Na1 O23 3.006815 1_555
Na2 O97 2.261276 1_555
Na2 O101 2.379558 1_555
Na2 O140 2.398914 1_655
Na2 O138 2.513684 1_655
Na2 O66 2.886889 1_655
Na2 O25 2.915747 1_555
Na3 O139 2.254657 1_555
Na3 O96 2.426901 1_555
Na3 O100 2.541245 1_555
Na3 O141 2.600590 1_555
Na3 O67 2.720971 1_555
Na3 O15 2.865548 1_555
Na3 O10 2.903277 1_555
Na3 O24 2.921052 1_555
Na4 O79 2.406357 1_555
Na4 O109 2.587703 1_555
Na4 O113 2.592290 1_555
Na4 O81 2.616091 1_545
Na4 O37 2.685228 1_556
Na4 O7 2.827383 1_555
Na4 O51 2.834404 1_555
Na4 O71 2.929403 1_555
Na5 O72 2.404899 1_545
Na5 O42 2.428302 1_555
Na5 O114 2.536977 1_555
Na5 O116 2.594443 1_555
Na5 O76 2.624808 1_555
Na5 O58 2.706005 1_545
Na6 O86 2.355170 1_565
Na6 O89 2.482563 1_455
Na6 O85 2.549392 1_465
Na6 O72 2.695598 1_555
Na6 O76 2.838898 1_565
Na6 O75 2.867192 1_455
Na7 O87 2.436844 1_565
Na7 O88 2.592852 1_555
Na7 O77 2.597720 1_565
Na7 O84 2.680721 1_565
Na7 O73 2.687666 1_555
Na7 O74 2.817817 1_555
Na8 O80 2.483138 1_545
Na8 O78 2.581345 1_555
Na8 O94 2.593706 1_556
Na8 O93 2.650599 1_446
Na8 O83 2.677837 1_445
Na8 O91 2.826763 1_446
Na9 O95 2.450667 1_555
Na9 O79 2.503534 1_554
Na9 O92 2.612137 1_555
Na9 O90 2.680584 1_545
Na9 O81 2.693243 1_544
Na9 O82 2.777948 1_544
Na10 O112 2.517838 1_555
Na10 O110 2.635841 1_555
Na10 O108 2.684218 1_555
Na10 O98 2.808577 1_555
Na10 O96 2.845567 1_555
Na10 O100 2.894221 1_555
Na11 O101 2.409030 1_555
Na11 O97 2.449953 1_555
Na11 O99 2.451967 1_555
Na11 O113 2.951504 1_555
Na11 O111 2.989335 1_555
Na11 O109 2.989822 1_555
Na12 O104 2.411190 1_555
Na12 O102 2.490079 1_555
Na12 O118 2.722210 1_555
Na12 O106 2.833090 1_555
Na12 O116 2.880639 1_555
Na12 O114 2.881500 1_555
Na13 O117 2.415303 1_555
Na13 O115 2.611580 1_555
Na13 O119 2.612829 1_555
Na13 O107 2.819533 1_555
Na13 O103 2.921541 1_555
Na13 O105 2.996193 1_555
Na14 O134 2.531741 1_555
Na14 O120 2.535345 1_555
Na14 O124 2.640655 1_555
Na14 O136 2.793814 1_555
Na14 O122 2.816330 1_555
Na14 O132 2.924170 1_555
Na15 O121 2.386246 1_555
Na15 O125 2.570771 1_555
Na15 O137 2.650877 1_555
Na15 O135 2.747615 1_555
Na15 O123 2.775165 1_555
Na15 O133 2.980331 1_555
Na16 O126 2.442619 1_555
Na16 O140 2.576806 1_555
Na16 O128 2.628696 1_555
Na16 O142 2.658193 1_555
Na16 O130 2.854466 1_555
Na16 O138 2.941574 1_555
Na17 O143 2.479088 1_555
Na17 O139 2.558635 1_555
Na17 O141 2.724191 1_555
Na17 O127 2.749751 1_555
Na17 O129 2.769567 1_555
Na17 O131 2.883972 1_555
O0 S0 1.485925 1_545
O0 Y0 2.273238 1_445
O1 S1 1.485752 1_555
O1 Sn0 2.164070 1_555
O2 Si0 1.673426 1_555
O2 Sn0 2.000236 1_565
O3 S2 1.492775 1_555
O3 Y0 2.204793 1_555
O4 Si1 1.638752 1_555
O4 Sn0 1.956632 1_555
O5 S3 1.475122 1_555
O5 Y0 2.324710 1_545
O6 S4 1.484313 1_555
O6 Sn1 2.162674 1_545
O7 Si2 1.637457 1_555
O7 Y1 2.061547 1_555
O8 S5 1.474750 1_555
O8 Y1 2.316659 1_565
O9 Si3 1.641910 1_655
O9 Sn1 1.947422 1_655
O10 S6 1.489000 1_555
O10 Y1 2.224187 1_555
O11 Si4 1.682121 1_545
O11 Sn1 1.979415 1_645
O12 S6 1.463762 1_565
O12 Sn3 2.307956 1_555
O13 Si4 1.666881 1_555
O13 Sn2 1.946540 1_655
O14 S4 1.490509 1_555
O14 Sn2 2.217907 1_545
O15 Si2 1.678249 1_555
O15 Sn3 1.961100 1_545
O16 Si3 1.635607 1_555
O16 Sn2 1.941421 1_555
O17 S5 1.482843 1_555
O17 Sn3 2.143792 1_555
O18 Si0 1.654897 1_555
O18 Sn5 1.965171 1_565
O19 S2 1.482207 1_555
O19 Sn4 2.236984 1_665
O20 S3 1.490647 1_455
O20 Sn4 2.141606 1_555
O21 Si1 1.630452 1_555
O21 Sn5 1.952097 1_555
O22 S0 1.501698 1_555
O22 Sn4 2.209448 1_565
O23 S1 1.487007 1_565
O23 Sn5 2.237291 1_565
O24 S7 1.479735 1_555
O24 Y2 2.354954 1_555
O25 S8 1.467896 1_555
O25 Y3 2.392157 1_555
O26 Si5 1.609442 1_555
O26 Y2 2.070751 1_555
O27 Si6 1.590016 1_555
O27 Y3 2.152380 1_555
O28 Si7 1.613019 1_555
O28 Y2 2.074701 1_555
O29 S9 1.453277 1_555
O29 Y3 2.398919 1_555
O30 S10 1.486485 1_555
O30 Y4 2.259243 1_555
O31 S11 1.483638 1_555
O31 Y5 2.364781 1_555
O32 S12 1.472135 1_555
O32 Y4 2.370072 1_555
O33 Si8 1.617344 1_555
O33 Y5 2.068182 1_555
O34 Si9 1.602541 1_555
O34 Y4 2.137749 1_555
O35 Si10 1.622510 1_555
O35 Y5 2.052276 1_555
O36 Si9 1.632563 1_555
O36 Sn6 1.974602 1_554
O37 Si10 1.631223 1_555
O37 Y6 2.145631 1_554
O38 S10 1.485119 1_555
O38 Sn6 2.275249 1_554
O39 S11 1.472960 1_555
O39 Y6 2.321143 1_554
O40 S12 1.486950 1_555
O40 Sn6 2.170011 1_554
O41 Si8 1.610743 1_555
O41 Y6 2.069363 1_554
O42 Si5 1.642861 1_555
O42 Y7 2.163541 1_555
O43 Si6 1.649932 1_555
O43 Sn7 1.959081 1_555
O44 Si7 1.624406 1_555
O44 Y7 2.055727 1_555
O45 S9 1.502258 1_555
O45 Sn7 2.132303 1_555
O46 S7 1.480289 1_555
O46 Y7 2.246316 1_555
O47 S8 1.497789 1_555
O47 Sn7 2.233336 1_555
O48 S13 1.499535 1_555
O48 Sn8 2.113773 1_556
O49 S14 1.488337 1_555
O49 Sn9 2.196444 1_556
O50 S15 1.514917 1_555
O50 Sn8 2.134454 1_556
O51 Si11 1.659572 1_555
O51 Sn9 1.957832 1_556
O52 Si12 1.678169 1_555
O52 Sn8 1.969115 1_556
O53 S16 1.482573 1_555
O53 Sn9 2.219868 1_556
O54 S17 1.481970 1_555
O54 Sn10 2.244268 1_555
O55 S18 1.480514 1_555
O55 Sn11 2.173433 1_555
O56 S19 1.466951 1_555
O56 Sn10 2.309614 1_555
O57 Si13 1.667024 1_555
O57 Sn11 1.969408 1_555
O58 Si14 1.652862 1_555
O58 Sn10 1.982684 1_555
O59 S20 1.498639 1_555
O59 Sn11 2.192451 1_555
O60 Si14 1.640629 1_555
O60 Y8 2.223937 1_555
O61 S20 1.485457 1_555
O61 Y9 2.279787 1_555
O62 S17 1.489969 1_555
O62 Y8 2.214367 1_555
O63 S18 1.474388 1_555
O63 Y9 2.346047 1_555
O64 S19 1.476299 1_555
O64 Y8 2.197951 1_555
O65 Si13 1.611502 1_555
O65 Y9 2.048158 1_555
O66 S15 1.479357 1_555
O66 Y10 2.295844 1_555
O67 Si11 1.621688 1_555
O67 Y11 2.245852 1_555
O68 Si12 1.602678 1_555
O68 Y10 2.052600 1_555
O69 S16 1.462222 1_555
O69 Y11 2.309818 1_555
O70 S13 1.471368 1_555
O70 Y10 2.344855 1_555
O71 S14 1.476138 1_555
O71 Y11 2.257959 1_555
O72 Si14 1.666959 1_555
O72 Y0 2.124712 1_455
O73 S20 1.489688 1_555
O73 Sn0 2.308778 1_565
O74 S17 1.481131 1_555
O74 Sn0 2.214475 1_565
O75 S18 1.493431 1_555
O75 Y0 2.202614 1_555
O76 S19 1.500963 1_555
O76 Y0 2.263568 1_445
O77 Si13 1.672208 1_555
O77 Sn0 2.029176 1_555
O78 S15 1.483450 1_555
O78 Sn1 2.352763 1_545
O79 Si11 1.655060 1_555
O79 Y1 2.190432 1_555
O80 Si12 1.669476 1_555
O80 Sn1 2.040775 1_555
O81 S16 1.496023 1_555
O81 Y1 2.329057 1_565
O82 S13 1.473889 1_555
O82 Y1 2.323823 1_565
O83 S14 1.484571 1_555
O83 Sn1 2.228767 1_655
O84 S7 1.473036 1_555
O84 Sn3 2.226455 1_545
O85 S8 1.486251 1_555
O85 Sn2 2.401728 1_645
O86 Si5 1.675048 1_555
O86 Sn2 1.996190 1_545
O87 Si6 1.658073 1_555
O87 Sn3 2.017246 1_545
O88 Si7 1.656462 1_555
O88 Sn3 1.989969 1_555
O89 S9 1.494997 1_555
O89 Sn2 2.280494 1_655
O90 S10 1.488128 1_555
O90 Sn5 2.346735 1_565
O91 S11 1.495790 1_555
O91 Sn4 2.154354 1_665
O92 S12 1.493408 1_555
O92 Sn5 2.250534 1_555
O93 Si8 1.673152 1_565
O93 Sn4 1.952169 1_665
O94 Si9 1.675924 1_555
O94 Sn4 1.981909 1_555
O95 Si10 1.679648 1_555
O95 Sn5 1.984298 1_555
O96 S6 1.498103 1_555
O96 Y2 2.408964 1_555
O97 Si4 1.622338 1_545
O97 Y3 2.186523 1_555
O98 S4 1.479602 1_555
O98 Y2 2.283159 1_555
O99 Si2 1.597746 1_555
O99 Y3 2.108888 1_555
O100 S5 1.494638 1_555
O100 Y2 2.382793 1_555
O101 Si3 1.609096 1_655
O101 Y3 2.238554 1_555
O102 Si0 1.638566 1_555
O102 Y4 2.181037 1_555
O103 S2 1.491424 1_555
O103 Y5 2.441973 1_555
O104 Si1 1.629442 1_555
O104 Y4 2.221495 1_555
O105 S3 1.485336 1_555
O105 Y5 2.446177 1_555
O106 S0 1.459717 1_545
O106 Y4 2.317194 1_555
O107 S1 1.483436 1_555
O107 Y5 2.284116 1_555
O108 S13 1.484110 1_555
O108 Sn6 2.183764 1_555
O109 S14 1.487930 1_555
O109 Y6 2.384873 1_555
O110 Si11 1.661966 1_555
O110 Sn6 1.990605 1_555
O111 S15 1.475374 1_655
O111 Y6 2.368323 1_555
O112 Si12 1.643224 1_545
O112 Sn6 1.991805 1_555
O113 S16 1.499005 1_545
O113 Y6 2.294555 1_555
O114 S17 1.486987 1_545
O114 Y7 2.463470 1_555
O115 S18 1.479891 1_545
O115 Sn7 2.233138 1_555
O116 S19 1.486760 1_555
O116 Y7 2.346395 1_555
O117 Si13 1.645832 1_555
O117 Sn7 2.011738 1_555
O118 S20 1.481470 1_555
O118 Y7 2.398934 1_555
O119 Si14 1.646936 1_655
O119 Sn7 2.028661 1_555
O120 Si9 1.680629 1_555
O120 Sn8 1.998509 1_555
O121 Si10 1.644097 1_555
O121 Sn9 2.000625 1_555
O122 S11 1.494253 1_455
O122 Sn8 2.229113 1_555
O123 S10 1.489196 1_555
O123 Sn9 2.199011 1_555
O124 S12 1.501311 1_565
O124 Sn8 2.233497 1_555
O125 Si8 1.645801 1_565
O125 Sn9 1.983298 1_555
O126 Si5 1.648693 1_565
O126 Sn10 1.977841 1_555
O127 Si6 1.687094 1_565
O127 Sn11 1.962915 1_555
O128 Si7 1.664916 1_555
O128 Sn10 1.967650 1_555
O129 S9 1.500895 1_555
O129 Sn11 2.191162 1_555
O130 S8 1.503450 1_455
O130 Sn10 2.137146 1_555
O131 S7 1.504204 1_555
O131 Sn11 2.159139 1_555
O132 S0 1.490747 1_555
O132 Y8 2.366580 1_555
O133 S1 1.481738 1_565
O133 Y9 2.387699 1_555
O134 Si0 1.631723 1_555
O134 Y8 2.146848 1_555
O135 S2 1.468357 1_555
O135 Y9 2.327564 1_555
O136 S3 1.491537 1_455
O136 Y8 2.339556 1_555
O137 Si1 1.652189 1_555
O137 Y9 2.126649 1_555
O138 S4 1.481034 1_555
O138 Y10 2.382058 1_555
O139 Si2 1.640562 1_555
O139 Y11 2.163928 1_555
O140 Si3 1.652220 1_555
O140 Y10 2.113871 1_555
O141 S5 1.478901 1_555
O141 Y11 2.315488 1_555
O142 S6 1.479198 1_565
O142 Y10 2.268790 1_555
O143 Si4 1.613093 1_555
O143 Y11 2.157770 1_555
