# generated using pymatgen
data_Na2LaMgP(SO6)2
_symmetry_space_group_name_H-M   'P 1'
_cell_length_a   9.38036955
_cell_length_b   9.28053306
_cell_length_c   23.66281838
_cell_angle_alpha   89.60947470
_cell_angle_beta   90.00000000
_cell_angle_gamma   120.35650203
_symmetry_Int_Tables_number   1
_chemical_formula_structural   Na2LaMgP(SO6)2
_chemical_formula_sum   'Na12 La6 Mg6 P6 S12 O72'
_cell_volume   1777.48133745
_cell_formula_units_Z   6
loop_
 _symmetry_equiv_pos_site_id
 _symmetry_equiv_pos_as_xyz
  1  'x, y, z'
loop_
 _atom_site_type_symbol
 _atom_site_label
 _atom_site_symmetry_multiplicity
 _atom_site_fract_x
 _atom_site_fract_y
 _atom_site_fract_z
 _atom_site_occupancy
  Na  Na0  1  0.00702921  0.64372426  0.24033464  1
  Na  Na1  1  0.63669505  0.64372426  0.74033464  1
  Na  Na2  1  0.65859082  0.95733996  0.57800043  1
  Na  Na3  1  0.29875014  0.95733996  0.07800043  1
  Na  Na4  1  0.68758276  0.02698965  0.90830791  1
  Na  Na5  1  0.33940590  0.02698965  0.40830791  1
  Na  Na6  1  0.97256854  0.98307512  0.48850346  1
  Na  Na7  1  0.01050658  0.98307512  0.98850346  1
  Na  Na8  1  0.65319044  0.30616499  0.82185190  1
  Na  Na9  1  0.65297555  0.30616499  0.32185190  1
  Na  Na10  1  0.33309299  0.65570305  0.15556680  1
  Na  Na11  1  0.32260905  0.65570305  0.65556680  1
  La  La0  1  0.00539936  0.00124532  0.64909961  1
  La  La1  1  0.99584596  0.00124532  0.14909961  1
  La  La2  1  0.67580803  0.35289306  0.98261634  1
  La  La3  1  0.67708603  0.35289306  0.48261634  1
  La  La4  1  0.35022527  0.67747093  0.31528821  1
  La  La5  1  0.32724466  0.67747093  0.81528821  1
  Mg  Mg0  1  0.99317255  0.00774333  0.34960711  1
  Mg  Mg1  1  0.01457078  0.00774333  0.84960711  1
  Mg  Mg2  1  0.66768068  0.32743823  0.68280470  1
  Mg  Mg3  1  0.65975855  0.32743823  0.18280470  1
  Mg  Mg4  1  0.30200415  0.66009110  0.01531130  1
  Mg  Mg5  1  0.35808595  0.66009110  0.51531130  1
  P  P0  1  0.30393230  0.01676064  0.25203327  1
  P  P1  1  0.71282833  0.01676064  0.75203327  1
  P  P2  1  0.64807029  0.62750698  0.58939753  1
  P  P3  1  0.97943769  0.62750698  0.08939753  1
  P  P4  1  0.32013630  0.96378368  0.92182525  1
  P  P5  1  0.64364638  0.96378368  0.42182525  1
  S  S0  1  0.71183036  0.68956795  0.25249714  1
  S  S1  1  0.98121185  0.29418829  0.25240434  1
  S  S2  1  0.31297644  0.29418829  0.75240434  1
  S  S3  1  0.97773759  0.68956795  0.75249714  1
  S  S4  1  0.97221178  0.35141696  0.58547872  1
  S  S5  1  0.37986772  0.02807430  0.58285843  1
  S  S6  1  0.64820758  0.02807430  0.08285843  1
  S  S7  1  0.37920618  0.35141696  0.08547872  1
  S  S8  1  0.63746526  0.68693637  0.91553693  1
  S  S9  1  0.04063150  0.35318437  0.91868720  1
  S  S10  1  0.31255187  0.35318437  0.41868720  1
  S  S11  1  0.04947011  0.68693637  0.41553693  1
  O  O0  1  0.21488257  0.02881678  0.30559762  1
  O  O1  1  0.81240147  0.78586036  0.30129047  1
  O  O2  1  0.97256022  0.19257655  0.30171604  1
  O  O3  1  0.22001633  0.19257655  0.80171604  1
  O  O4  1  0.97345889  0.78586036  0.80129047  1
  O  O5  1  0.81393421  0.02881678  0.80559762  1
  O  O6  1  0.79324094  0.99054500  0.69826115  1
  O  O7  1  0.22149449  0.22275478  0.69955682  1
  O  O8  1  0.00442190  0.78534864  0.69948472  1
  O  O9  1  0.78092674  0.78534864  0.19948472  1
  O  O10  1  0.00126030  0.22275478  0.19955682  1
  O  O11  1  0.19730406  0.99054500  0.19826115  1
  O  O12  1  0.88315613  0.36247094  0.63514926  1
  O  O13  1  0.48900957  0.12539554  0.63022335  1
  O  O14  1  0.64283402  0.53156350  0.64375151  1
  O  O15  1  0.88873048  0.53156350  0.14375151  1
  O  O16  1  0.63638697  0.12539554  0.13022335  1
  O  O17  1  0.47931581  0.36247094  0.13514926  1
  O  O18  1  0.44999394  0.32245541  0.03350201  1
  O  O19  1  0.87582185  0.54354743  0.03643205  1
  O  O20  1  0.66881811  0.11661258  0.02829280  1
  O  O21  1  0.44779548  0.11661258  0.52829280  1
  O  O22  1  0.66772658  0.54354743  0.53643205  1
  O  O23  1  0.87246247  0.32245541  0.53350201  1
  O  O24  1  0.54056719  0.69267362  0.96374990  1
  O  O25  1  0.13759854  0.44537948  0.96845845  1
  O  O26  1  0.30163450  0.86069758  0.97632279  1
  O  O27  1  0.55906208  0.86069758  0.47632279  1
  O  O28  1  0.30777993  0.44537948  0.46845845  1
  O  O29  1  0.15210542  0.69267362  0.46374990  1
  O  O30  1  0.11769529  0.66685982  0.36147431  1
  O  O31  1  0.52725757  0.87930679  0.37058671  1
  O  O32  1  0.33357390  0.44827616  0.36629121  1
  O  O33  1  0.11470126  0.44827616  0.86629121  1
  O  O34  1  0.35204822  0.87930679  0.87058671  1
  O  O35  1  0.54916354  0.66685982  0.86147431  1
  O  O36  1  0.04583832  0.84652684  0.41327555  1
  O  O37  1  0.81381096  0.98095738  0.41154431  1
  O  O38  1  0.16154292  0.18523144  0.41552618  1
  O  O39  1  0.02368852  0.18523144  0.91552618  1
  O  O40  1  0.16714642  0.98095738  0.91154431  1
  O  O41  1  0.80068852  0.84652684  0.91327555  1
  O  O42  1  0.98750055  0.19818541  0.58939474  1
  O  O43  1  0.21174834  0.00303543  0.58861715  1
  O  O44  1  0.80019423  0.81145031  0.58826797  1
  O  O45  1  0.01125608  0.81145031  0.08826797  1
  O  O46  1  0.79128709  0.00303543  0.08861715  1
  O  O47  1  0.21068486  0.19818541  0.08939474  1
  O  O48  1  0.68932478  0.16884488  0.74411190  1
  O  O49  1  0.47933231  0.31088532  0.74884570  1
  O  O50  1  0.81726377  0.52933921  0.74889047  1
  O  O51  1  0.71207644  0.52933921  0.24889047  1
  O  O52  1  0.83155401  0.31088532  0.24884570  1
  O  O53  1  0.47952110  0.16884488  0.24411190  1
  O  O54  1  0.66739437  0.54473153  0.91890872  1
  O  O55  1  0.86747564  0.32417476  0.92156846  1
  O  O56  1  0.48457817  0.13687152  0.92393891  1
  O  O57  1  0.65229435  0.13687152  0.42393891  1
  O  O58  1  0.45670012  0.32417476  0.42156846  1
  O  O59  1  0.87733816  0.54473153  0.41890872  1
  O  O60  1  0.36395271  0.50124495  0.07917914  1
  O  O61  1  0.15371780  0.64597408  0.08320577  1
  O  O62  1  0.49220795  0.86281430  0.08085764  1
  O  O63  1  0.37060534  0.86281430  0.58085764  1
  O  O64  1  0.49225528  0.64597408  0.58320577  1
  O  O65  1  0.13729124  0.50124495  0.57917914  1
  O  O66  1  0.30996555  0.84960990  0.25423475  1
  O  O67  1  0.53920349  0.65421028  0.25550917  1
  O  O68  1  0.12744891  0.46817295  0.25597105  1
  O  O69  1  0.34072305  0.46817295  0.75597105  1
  O  O70  1  0.11500580  0.65421028  0.75550917  1
  O  O71  1  0.53964334  0.84960990  0.75423475  1
loop_
_geom_bond_atom_site_label_1
_geom_bond_atom_site_label_2
_geom_bond_distance
_geom_bond_site_symmetry_2
Na0 O51 2.418942 1_455
Na0 O68 2.432917 1_555
Na0 O66 2.520833 1_555
Na0 O15 2.530416 1_455
Na0 O52 2.672785 1_455
Na0 O11 2.947274 1_555
Na0 O30 3.020545 1_555
Na1 O50 2.418951 1_555
Na1 O69 2.432924 1_555
Na1 O71 2.520840 1_555
Na1 O14 2.530418 1_555
Na1 O49 2.672786 1_555
Na1 O6 2.947274 1_555
Na1 O35 3.020547 1_555
Na2 O44 2.338762 1_555
Na2 O63 2.382361 1_555
Na2 O64 2.497533 1_555
Na2 O27 2.578342 1_555
Na2 O42 2.761449 1_565
Na3 O45 2.338770 1_555
Na3 O62 2.382343 1_555
Na3 O61 2.497532 1_555
Na3 O26 2.578339 1_554
Na3 O47 2.761456 1_565
Na4 O41 2.395360 1_545
Na4 O55 2.420826 1_555
Na4 O56 2.602084 1_555
Na4 O5 2.700201 1_555
Na4 O39 2.729378 1_655
Na4 O34 2.870197 1_545
Na4 O24 2.978089 1_545
Na4 O20 2.993978 1_556
Na5 O36 2.395353 1_545
Na5 O58 2.420824 1_555
Na5 O57 2.602102 1_555
Na5 O0 2.700197 1_555
Na5 O38 2.729370 1_555
Na5 O31 2.870197 1_545
Na5 O29 2.978089 1_545
Na5 O21 2.993982 1_555
Na6 O37 2.346342 1_555
Na6 O36 2.481560 1_655
Na6 O38 2.497693 1_665
Na6 O44 2.840770 1_555
Na7 O40 2.346342 1_555
Na7 O41 2.481560 1_455
Na7 O39 2.497693 1_565
Na7 O45 2.840770 1_556
Na8 O48 2.364635 1_555
Na8 O49 2.391056 1_555
Na8 O50 2.523587 1_555
Na8 O56 2.870899 1_555
Na9 O53 2.364635 1_555
Na9 O52 2.391056 1_555
Na9 O51 2.523587 1_555
Na9 O57 2.870899 1_555
Na10 O61 2.370595 1_555
Na10 O60 2.420857 1_555
Na10 O62 2.470100 1_555
Na11 O64 2.370595 1_555
Na11 O65 2.420857 1_555
Na11 O63 2.470100 1_555
La0 O6 2.263271 1_445
La0 O8 2.320556 1_545
La0 O44 2.342509 1_445
La0 O7 2.362638 1_555
La0 O42 2.374793 1_455
La0 O43 2.400501 1_555
La1 O11 2.263271 1_645
La1 O9 2.320556 1_545
La1 O45 2.342509 1_645
La1 O10 2.362638 1_655
La1 O47 2.374793 1_655
La1 O46 2.400501 1_555
La2 O19 2.224354 1_556
La2 O18 2.325312 1_556
La2 O54 2.356676 1_555
La2 O56 2.359629 1_555
La2 O20 2.408999 1_556
La2 O55 2.424846 1_555
La3 O22 2.224354 1_555
La3 O23 2.325312 1_555
La3 O59 2.356676 1_555
La3 O57 2.359629 1_555
La3 O21 2.408999 1_555
La3 O58 2.424846 1_555
La4 O31 2.206339 1_555
La4 O66 2.315221 1_555
La4 O67 2.362391 1_555
La4 O32 2.373706 1_555
La4 O30 2.396507 1_555
La4 O68 2.458537 1_555
La5 O34 2.206339 1_555
La5 O71 2.315221 1_555
La5 O70 2.362391 1_555
La5 O33 2.373706 1_555
La5 O35 2.396507 1_555
La5 O69 2.458537 1_555
Mg0 O2 2.138405 1_555
Mg0 O37 2.147749 1_545
Mg0 O1 2.219365 1_545
Mg0 O0 2.243678 1_655
Mg0 O38 2.246382 1_655
Mg0 O36 2.338533 1_645
Mg1 O3 2.138405 1_555
Mg1 O40 2.147749 1_545
Mg1 O4 2.219365 1_445
Mg1 O5 2.243678 1_455
Mg1 O39 2.246382 1_555
Mg1 O41 2.338533 1_445
Mg2 O48 2.141255 1_555
Mg2 O13 2.174470 1_555
Mg2 O12 2.189410 1_555
Mg2 O14 2.217979 1_555
Mg2 O50 2.303836 1_555
Mg2 O49 2.304252 1_555
Mg3 O53 2.141255 1_555
Mg3 O16 2.174470 1_555
Mg3 O17 2.189410 1_555
Mg3 O15 2.217979 1_555
Mg3 O51 2.303836 1_555
Mg3 O52 2.304252 1_555
Mg4 O26 2.073724 1_554
Mg4 O61 2.084708 1_555
Mg4 O25 2.121823 1_554
Mg4 O60 2.372840 1_555
Mg4 O62 2.403222 1_555
Mg4 O24 2.428756 1_554
Mg5 O27 2.073724 1_555
Mg5 O64 2.084708 1_555
Mg5 O28 2.121823 1_555
Mg5 O65 2.372840 1_555
Mg5 O63 2.403222 1_555
Mg5 O29 2.428756 1_555
O0 P0 1.553445 1_555
O1 S0 1.477702 1_555
O2 S1 1.471411 1_555
O3 S2 1.471411 1_555
O4 S3 1.477702 1_555
O5 P1 1.553445 1_555
O6 P1 1.561049 1_565
O7 S2 1.475120 1_555
O8 S3 1.478606 1_455
O9 S0 1.478606 1_555
O10 S1 1.475120 1_455
O11 P0 1.561049 1_565
O12 S4 1.475830 1_555
O13 S5 1.482984 1_555
O14 P2 1.545849 1_555
O15 P3 1.545849 1_555
O16 S6 1.482984 1_555
O17 S7 1.475830 1_555
O18 S7 1.486859 1_555
O19 P3 1.539628 1_555
O20 S6 1.484805 1_555
O21 S5 1.484805 1_555
O22 P2 1.539628 1_555
O23 S4 1.486859 1_555
O24 S8 1.476584 1_555
O25 S9 1.474307 1_555
O26 P4 1.556831 1_555
O27 P5 1.556831 1_555
O28 S10 1.474307 1_555
O29 S11 1.476584 1_555
O30 S11 1.484790 1_555
O31 P5 1.557063 1_555
O32 S10 1.471081 1_555
O33 S9 1.471081 1_555
O34 P4 1.557063 1_555
O35 S8 1.484790 1_555
O36 S11 1.499185 1_555
O37 P5 1.541036 1_555
O38 S10 1.487133 1_555
O39 S9 1.487137 1_555
O40 P4 1.541026 1_555
O41 S8 1.499190 1_555
O42 S4 1.501926 1_555
O43 S5 1.479436 1_555
O44 P2 1.577446 1_555
O45 P3 1.577449 1_455
O46 S6 1.479427 1_555
O47 S7 1.501931 1_555
O48 P1 1.544920 1_555
O49 S2 1.490507 1_555
O50 S3 1.491197 1_555
O51 S0 1.491201 1_555
O52 S1 1.490498 1_555
O53 P0 1.544925 1_555
O54 S8 1.483223 1_555
O55 S9 1.507688 1_655
O56 P4 1.568071 1_545
O57 P5 1.568062 1_545
O58 S10 1.507707 1_555
O59 S11 1.483211 1_655
O60 S7 1.474587 1_555
O61 P3 1.562021 1_455
O62 S6 1.492768 1_565
O63 S5 1.492759 1_565
O64 P2 1.562040 1_555
O65 S4 1.474577 1_455
O66 P0 1.581114 1_565
O67 S0 1.482400 1_555
O68 S1 1.503029 1_455
O69 S2 1.503033 1_555
O70 S3 1.482391 1_455
O71 P1 1.581119 1_565
