# generated using pymatgen
data_Na4Y2Si3Ge2(SO8)3
_symmetry_space_group_name_H-M   'P 1'
_cell_length_a   9.10120292
_cell_length_b   9.09334297
_cell_length_c   22.90976852
_cell_angle_alpha   91.03759300
_cell_angle_beta   88.35132902
_cell_angle_gamma   119.36621571
_symmetry_Int_Tables_number   1
_chemical_formula_structural   Na4Y2Si3Ge2(SO8)3
_chemical_formula_sum   'Na12 Y6 Si9 Ge6 S9 O72'
_cell_volume   1651.68649887
_cell_formula_units_Z   3
loop_
 _symmetry_equiv_pos_site_id
 _symmetry_equiv_pos_as_xyz
  1  'x, y, z'
loop_
 _atom_site_type_symbol
 _atom_site_label
 _atom_site_symmetry_multiplicity
 _atom_site_fract_x
 _atom_site_fract_y
 _atom_site_fract_z
 _atom_site_occupancy
  Na  Na0  1  0.97539207  0.63260303  0.25637634  1
  Na  Na1  1  0.00012366  0.36993925  0.74662841  1
  Na  Na2  1  0.65945668  0.98165367  0.59186273  1
  Na  Na3  1  0.66469975  0.69908815  0.07881502  1
  Na  Na4  1  0.34108259  0.30459642  0.90794434  1
  Na  Na5  1  0.31739396  0.02211591  0.41854006  1
  Na  Na6  1  0.00653716  0.98629371  0.50761718  1
  Na  Na7  1  0.99242307  0.99098865  0.00270848  1
  Na  Na8  1  0.64900273  0.30638892  0.82748309  1
  Na  Na9  1  0.64685257  0.32974394  0.33561060  1
  Na  Na10  1  0.31725711  0.67136054  0.17061749  1
  Na  Na11  1  0.29817418  0.66820592  0.66234419  1
  Y  Y0  1  0.99127754  0.98992183  0.35553298  1
  Y  Y1  1  0.99489923  0.98764173  0.85290004  1
  Y  Y2  1  0.66558353  0.33914486  0.68776551  1
  Y  Y3  1  0.65424996  0.32406944  0.18906060  1
  Y  Y4  1  0.32601790  0.67702079  0.01758675  1
  Y  Y5  1  0.32045187  0.66216906  0.52075756  1
  Si  Si0  1  0.28803219  0.97868726  0.25788751  1
  Si  Si1  1  0.67433447  0.69740689  0.25523601  1
  Si  Si2  1  0.29718936  0.30325908  0.75837938  1
  Si  Si3  1  0.72775983  0.00160850  0.74492384  1
  Si  Si4  1  0.96567479  0.33037415  0.58913275  1
  Si  Si5  1  0.37496868  0.06232823  0.58178158  1
  Si  Si6  1  0.96079271  0.63830711  0.09068543  1
  Si  Si7  1  0.63854121  0.66026709  0.92315335  1
  Si  Si8  1  0.01740470  0.63773757  0.41762436  1
  Ge  Ge0  1  0.03768071  0.06809646  0.64767687  1
  Ge  Ge1  1  0.97195334  0.92596796  0.16640226  1
  Ge  Ge2  1  0.69467264  0.38179828  0.98417989  1
  Ge  Ge3  1  0.69316179  0.33962427  0.49435390  1
  Ge  Ge4  1  0.30983546  0.65728937  0.31302578  1
  Ge  Ge5  1  0.43140414  0.67294504  0.80200260  1
  S  S0  1  0.01277612  0.29139325  0.24760800  1
  S  S1  1  0.02126219  0.71485749  0.74656303  1
  S  S2  1  0.68636756  0.63622508  0.57802489  1
  S  S3  1  0.68259056  0.05254504  0.07692762  1
  S  S4  1  0.37079678  0.32306368  0.07750936  1
  S  S5  1  0.01569204  0.36786793  0.91969845  1
  S  S6  1  0.35380861  0.97217490  0.91197000  1
  S  S7  1  0.60948035  0.96530239  0.41529429  1
  S  S8  1  0.34095874  0.38210626  0.41033531  1
  O  O0  1  0.22189895  0.01730577  0.31805318  1
  O  O1  1  0.82186436  0.80443023  0.29919474  1
  O  O2  1  0.99683032  0.20534072  0.30228707  1
  O  O3  1  0.21505243  0.20960705  0.81880792  1
  O  O4  1  0.01130099  0.79342632  0.80288281  1
  O  O5  1  0.81822549  0.00743855  0.80390093  1
  O  O6  1  0.82539069  0.97978154  0.68440003  1
  O  O7  1  0.16928060  0.22100021  0.70107396  1
  O  O8  1  0.02687368  0.81418033  0.69563192  1
  O  O9  1  0.75706602  0.80553899  0.18878614  1
  O  O10  1  0.02498532  0.19568899  0.19454588  1
  O  O11  1  0.14397339  0.93698973  0.20206886  1
  O  O12  1  0.89509205  0.35477727  0.65064899  1
  O  O13  1  0.49800530  0.14431179  0.63456369  1
  O  O14  1  0.66332502  0.53957788  0.63048688  1
  O  O15  1  0.87142021  0.54227554  0.14944035  1
  O  O16  1  0.66682819  0.13106607  0.13124235  1
  O  O17  1  0.47742299  0.34134430  0.12708944  1
  O  O18  1  0.46260475  0.31239150  0.01998312  1
  O  O19  1  0.83210151  0.55112102  0.03173238  1
  O  O20  1  0.68911921  0.15387421  0.02410337  1
  O  O21  1  0.47397685  0.18375096  0.51881680  1
  O  O22  1  0.69325631  0.53775353  0.52313032  1
  O  O23  1  0.82755999  0.29134512  0.53485649  1
  O  O24  1  0.53588283  0.65914601  0.98094118  1
  O  O25  1  0.12309663  0.46665818  0.96864055  1
  O  O26  1  0.34123151  0.88045070  0.96640062  1
  O  O27  1  0.54671144  0.87493136  0.47066758  1
  O  O28  1  0.34608312  0.47366606  0.46392958  1
  O  O29  1  0.15041215  0.68015392  0.46719758  1
  O  O30  1  0.10894715  0.61220391  0.35289122  1
  O  O31  1  0.49748614  0.86808884  0.36497070  1
  O  O32  1  0.34428566  0.48046445  0.35633690  1
  O  O33  1  0.07640344  0.45006335  0.86337436  1
  O  O34  1  0.35629883  0.87697190  0.85936573  1
  O  O35  1  0.51137384  0.62560682  0.86342752  1
  O  O36  1  0.99432601  0.80466963  0.41358300  1
  O  O37  1  0.78462446  0.00100403  0.40693402  1
  O  O38  1  0.18309906  0.21332902  0.41346562  1
  O  O39  1  0.00054120  0.19796840  0.92237234  1
  O  O40  1  0.20356457  -0.00025647  0.91498097  1
  O  O41  1  0.82274720  0.81851970  0.92059766  1
  O  O42  1  0.96410105  0.14390533  0.58766996  1
  O  O43  1  0.18319047  0.04533980  0.59484207  1
  O  O44  1  0.84315839  0.79814978  0.57648782  1
  O  O45  1  0.96627122  0.83144676  0.09516010  1
  O  O46  1  0.83390592  0.03188111  0.07660908  1
  O  O47  1  0.20574931  0.17249491  0.07897983  1
  O  O48  1  0.69382402  0.15945822  0.74540773  1
  O  O49  1  0.48932408  0.34878751  0.75275401  1
  O  O50  1  0.86710281  0.54278945  0.74789563  1
  O  O51  1  0.65893911  0.51227345  0.25001226  1
  O  O52  1  0.86737300  0.32403186  0.24386614  1
  O  O53  1  0.47346079  0.12330316  0.24175984  1
  O  O54  1  0.64143623  0.47460591  0.92359750  1
  O  O55  1  0.83895031  0.35221203  0.92922286  1
  O  O56  1  0.50798913  0.14333124  0.91329462  1
  O  O57  1  0.60912847  0.13056931  0.41754951  1
  O  O58  1  0.48690426  0.35493916  0.40561272  1
  O  O59  1  0.82893526  0.45846838  0.43063206  1
  O  O60  1  0.35701783  0.48076973  0.07742641  1
  O  O61  1  0.14848701  0.66833672  0.08332572  1
  O  O62  1  0.53099702  0.87736542  0.07562075  1
  O  O63  1  0.35571578  0.87613090  0.57350369  1
  O  O64  1  0.54103655  0.66696134  0.57326286  1
  O  O65  1  0.15647537  0.47794101  0.58125140  1
  O  O66  1  0.27441711  0.78841749  0.25876503  1
  O  O67  1  0.48996864  0.68915097  0.26462075  1
  O  O68  1  0.17109059  0.46348851  0.24725834  1
  O  O69  1  0.29699593  0.49293612  0.76204064  1
  O  O70  1  0.17195880  0.69128329  0.74635629  1
  O  O71  1  0.53751112  0.81709462  0.74688179  1
loop_
_geom_bond_atom_site_label_1
_geom_bond_atom_site_label_2
_geom_bond_distance
_geom_bond_site_symmetry_2
Na0 O66 2.375056 1_655
Na0 O52 2.490688 1_555
Na0 O51 2.537926 1_555
Na0 O30 2.606077 1_655
Na0 O15 2.621108 1_555
Na0 O1 2.713474 1_555
Na0 O11 2.722681 1_655
Na0 O68 2.869514 1_655
Na1 O12 2.397603 1_455
Na1 O69 2.398453 1_555
Na1 O50 2.408249 1_455
Na1 O48 2.490953 1_455
Na1 O70 2.550003 1_555
Na1 O7 2.682344 1_555
Na1 O33 2.776076 1_555
Na2 O42 2.418927 1_565
Na2 O63 2.488025 1_555
Na2 O64 2.547419 1_555
Na2 O6 2.643137 1_555
Na2 O13 2.701928 1_565
Na2 O23 2.787377 1_565
Na2 O44 2.895658 1_555
Na2 O27 2.965408 1_555
Na3 O45 2.434109 1_555
Na3 O62 2.461376 1_555
Na3 O24 2.497661 1_554
Na3 O60 2.516785 1_555
Na3 O46 2.638622 1_565
Na3 O19 2.675551 1_555
Na3 O9 2.688230 1_555
Na4 O3 2.308916 1_555
Na4 O40 2.424638 1_555
Na4 O54 2.425406 1_555
Na4 O56 2.583600 1_555
Na4 O35 2.746414 1_555
Na4 O39 2.767772 1_555
Na4 O18 2.810071 1_556
Na5 O57 2.334956 1_555
Na5 O0 2.476144 1_555
Na5 O38 2.574987 1_555
Na5 O36 2.622401 1_445
Na5 O58 2.655967 1_555
Na5 O21 2.735073 1_555
Na5 O31 2.868446 1_545
Na5 O29 2.935107 1_545
Na6 O44 2.257262 1_455
Na6 O42 2.444124 1_465
Na6 O43 2.483091 1_565
Na6 O36 2.661944 1_455
Na6 O38 2.864455 1_565
Na7 O46 2.334278 1_565
Na7 O41 2.463333 1_554
Na7 O45 2.528065 1_555
Na7 O47 2.548489 1_665
Na7 O39 2.629928 1_664
Na7 O40 2.715129 1_664
Na8 O56 2.409251 1_555
Na8 O48 2.426233 1_555
Na8 O49 2.430693 1_555
Na8 O54 2.676903 1_555
Na8 O50 2.763043 1_555
Na8 O55 2.843446 1_555
Na9 O58 2.218793 1_555
Na9 O57 2.529474 1_555
Na9 O51 2.557170 1_555
Na9 O59 2.658599 1_555
Na9 O53 2.789416 1_555
Na9 O52 2.881676 1_555
Na10 O66 2.376357 1_555
Na10 O68 2.438276 1_555
Na10 O61 2.548090 1_555
Na10 O67 2.658518 1_555
Na10 O60 2.851214 1_555
Na10 O62 2.891339 1_555
Na11 O70 2.272139 1_555
Na11 O65 2.437441 1_555
Na11 O63 2.664308 1_555
Na11 O71 2.753927 1_555
Na11 O69 2.805477 1_555
Na11 O64 2.968983 1_555
Ge0 O7 1.803790 1_555
Ge0 O42 1.831295 1_455
Ge0 O43 1.851822 1_555
Ge0 O6 1.869459 1_445
Ge1 O11 1.745147 1_655
Ge1 O9 1.774593 1_555
Ge1 O45 1.820928 1_555
Ge1 O10 2.337486 1_665
Ge2 O19 1.802999 1_556
Ge2 O54 1.831796 1_555
Ge2 O55 1.902870 1_555
Ge2 O18 2.035619 1_556
Ge2 O20 2.257877 1_556
Ge3 O23 1.776702 1_555
Ge3 O59 1.862689 1_555
Ge3 O21 1.869177 1_555
Ge3 O22 1.906854 1_555
Ge3 O57 2.413542 1_555
Ge4 O67 1.855424 1_555
Ge4 O66 1.877427 1_555
Ge4 O30 1.878110 1_555
Ge4 O32 2.058748 1_555
Ge4 O68 2.191156 1_555
Ge4 O31 2.197926 1_555
Ge5 O71 1.730237 1_555
Ge5 O69 1.749360 1_555
Ge5 O35 1.755981 1_555
O0 Si0 1.589832 1_545
O0 Y0 2.143883 1_445
O1 Si1 1.588991 1_555
O1 Y0 2.091234 1_555
O2 S0 1.454736 1_655
O2 Y0 2.305145 1_545
O3 Si2 1.599814 1_555
O3 Y1 2.167768 1_445
O4 S1 1.485556 1_555
O4 Y1 2.151686 1_455
O5 Si3 1.589002 1_555
O5 Y1 2.067149 1_545
O6 Si3 1.686316 1_565
O7 Si2 1.684228 1_555
O8 S1 1.472855 1_555
O9 Si1 1.764499 1_555
O10 S0 1.515341 1_555
O11 Si0 1.757675 1_555
O12 Si4 1.588863 1_555
O12 Y2 2.171941 1_555
O13 Si5 1.580640 1_555
O13 Y2 2.080660 1_555
O14 S2 1.450477 1_555
O14 Y2 2.273589 1_555
O15 Si6 1.587130 1_555
O15 Y3 2.187047 1_555
O16 S3 1.461777 1_555
O16 Y3 2.225308 1_555
O17 S4 1.468990 1_555
O17 Y3 2.240049 1_555
O18 S4 1.567166 1_555
O19 Si6 1.722209 1_555
O20 S3 1.516463 1_555
O21 Si5 1.766070 1_555
O22 S2 1.548253 1_555
O23 Si4 1.699597 1_555
O24 Si7 1.595539 1_555
O24 Y4 2.141662 1_556
O25 S5 1.478199 1_555
O25 Y4 2.214488 1_556
O26 S6 1.483104 1_555
O26 Y4 2.152740 1_556
O27 S7 1.465130 1_555
O27 Y5 2.310287 1_555
O28 S8 1.459840 1_555
O28 Y5 2.231927 1_555
O29 Si8 1.584076 1_555
O29 Y5 2.071742 1_555
O30 Si8 1.747442 1_555
O31 S7 1.515438 1_555
O32 S8 1.530564 1_555
O33 S5 1.455291 1_555
O34 S6 1.477244 1_555
O35 Si7 1.740360 1_555
O36 Si8 1.635801 1_655
O36 Y0 2.176301 1_555
O37 S7 1.469735 1_545
O37 Y0 2.233471 1_545
O38 S8 1.503392 1_555
O38 Y0 2.343850 1_445
O39 S5 1.484470 1_555
O39 Y1 2.447832 1_445
O40 S6 1.505837 1_545
O40 Y1 2.363539 1_445
O41 Si7 1.586234 1_555
O41 Y1 2.192864 1_555
O42 Si4 1.688379 1_555
O43 Si5 1.693230 1_555
O44 S2 1.464180 1_555
O45 Si6 1.733614 1_555
O46 S3 1.478201 1_555
O47 S4 1.453884 1_555
O48 Si3 1.609307 1_555
O48 Y2 2.233682 1_555
O49 Si2 1.588942 1_555
O49 Y2 2.189428 1_555
O50 S1 1.504597 1_655
O50 Y2 2.326504 1_555
O51 Si1 1.621846 1_555
O51 Y3 2.173906 1_555
O52 S0 1.496440 1_655
O52 Y3 2.340862 1_555
O53 Si0 1.587136 1_545
O53 Y3 2.125389 1_555
O54 Si7 1.701574 1_555
O55 S5 1.552959 1_655
O56 S6 1.500351 1_545
O57 S7 1.504351 1_545
O58 S8 1.466170 1_555
O59 Si8 1.712946 1_655
O60 S4 1.499599 1_555
O60 Y4 2.397582 1_555
O61 Si6 1.596460 1_455
O61 Y4 2.150405 1_555
O62 S3 1.512306 1_565
O62 Y4 2.299696 1_555
O63 Si5 1.622575 1_565
O63 Y5 2.161814 1_555
O64 S2 1.487114 1_555
O64 Y5 2.351698 1_555
O65 Si4 1.598139 1_455
O65 Y5 2.113622 1_555
O66 Si0 1.673366 1_555
O67 Si1 1.650351 1_555
O68 S0 1.520988 1_555
O69 Si2 1.726180 1_555
O70 S1 1.488285 1_555
O71 Si3 1.721675 1_565
