# generated using pymatgen
data_MgMn12(O7F5)2
_symmetry_space_group_name_H-M   'P 1'
_cell_length_a   4.83102304
_cell_length_b   5.58882395
_cell_length_c   16.28284753
_cell_angle_alpha   81.80160718
_cell_angle_beta   87.45587518
_cell_angle_gamma   90.53777315
_symmetry_Int_Tables_number   1
_chemical_formula_structural   MgMn12(O7F5)2
_chemical_formula_sum   'Mg1 Mn12 O14 F10'
_cell_volume   434.65585032
_cell_formula_units_Z   1
loop_
 _symmetry_equiv_pos_site_id
 _symmetry_equiv_pos_as_xyz
  1  'x, y, z'
loop_
 _atom_site_type_symbol
 _atom_site_label
 _atom_site_symmetry_multiplicity
 _atom_site_fract_x
 _atom_site_fract_y
 _atom_site_fract_z
 _atom_site_occupancy
  Mg  Mg0  1  0.49184000  0.38280300  0.07337800  1
  Mn  Mn0  1  0.00356600  0.22308500  0.42048900  1
  Mn  Mn1  1  0.04545300  0.97152400  0.25537900  1
  Mn  Mn2  1  0.99791700  0.07408700  0.03621500  1
  Mn  Mn3  1  0.01240700  0.11161700  0.73296400  1
  Mn  Mn4  1  0.00597100  0.83684700  0.57895600  1
  Mn  Mn5  1  0.02277700  0.70368000  0.89408400  1
  Mn  Mn6  1  0.49068800  0.35853800  0.59165500  1
  Mn  Mn7  1  0.46552100  0.21439400  0.89387900  1
  Mn  Mn8  1  0.53162400  0.45144600  0.28136200  1
  Mn  Mn9  1  0.55134200  0.82654000  0.14937300  1
  Mn  Mn10  1  0.51344000  0.72347700  0.43300100  1
  Mn  Mn11  1  0.45395300  0.59080700  0.73875100  1
  O  O0  1  0.21957400  0.22971900  0.31491500  1
  O  O1  1  0.21070300  0.09935400  0.62993800  1
  O  O2  1  0.20795700  0.97050200  0.94835700  1
  O  O3  1  0.25233300  0.03890900  0.12409700  1
  O  O4  1  0.20399200  0.92697000  0.47356800  1
  O  O5  1  0.22474200  0.82565300  0.78222400  1
  O  O6  1  0.37303300  0.52799600  0.17289400  1
  O  O7  1  0.26165500  0.57924800  0.64168100  1
  O  O8  1  0.23264300  0.34205300  0.80322900  1
  O  O9  1  0.68835800  0.21617600  0.98560100  1
  O  O10  1  0.80456300  0.69764400  0.22664700  1
  O  O11  1  0.71744000  0.46424100  0.38352900  1
  O  O12  1  0.71091400  0.63930800  0.53432500  1
  O  O13  1  0.68829100  0.34427000  0.68967400  1
  F  F0  1  0.29069900  0.72844200  0.32962000  1
  F  F1  1  0.25883900  0.42075000  0.49222800  1
  F  F2  1  0.20885700  0.44731000  0.98715700  1
  F  F3  1  0.67183500  0.53854500  0.84516700  1
  F  F4  1  0.76102500  0.15186500  0.14427100  1
  F  F5  1  0.74421600  0.14777200  0.52977400  1
  F  F6  1  0.74958000  0.99479400  0.35452500  1
  F  F7  1  0.73718800  0.70110700  0.04094800  1
  F  F8  1  0.76777400  0.02354900  0.83566600  1
  F  F9  1  0.74673300  0.83211900  0.68380900  1
loop_
_geom_bond_atom_site_label_1
_geom_bond_atom_site_label_2
_geom_bond_distance
_geom_bond_site_symmetry_2
Mg0 O6 1.978582 1_555
Mg0 O9 2.021651 1_554
Mg0 O3 2.266164 1_555
Mn0 O0 1.966547 1_555
Mn0 O11 1.991703 1_455
Mn0 O4 2.029719 1_545
Mn1 O10 2.033531 1_455
Mn1 O0 2.044063 1_565
Mn1 O3 2.298675 1_565
Mn2 O9 1.868517 1_554
Mn2 O2 1.878747 1_644
Mn2 O3 1.917662 1_655
Mn3 O1 1.904720 1_555
Mn3 O5 1.997017 1_545
Mn3 O13 2.124642 1_455
Mn3 O8 2.145274 1_555
Mn4 O4 1.926729 1_555
Mn4 O12 2.017436 1_455
Mn4 O1 2.052502 1_565
Mn4 O7 2.089876 1_555
Mn5 O5 2.051782 1_555
Mn5 O2 2.055727 1_555
Mn6 O13 1.888218 1_555
Mn6 O7 1.908270 1_555
Mn6 O12 1.982010 1_555
Mn6 O1 1.986764 1_555
Mn7 O9 1.880511 1_555
Mn7 O2 1.928324 1_545
Mn7 O8 1.953352 1_555
Mn8 O11 1.934867 1_555
Mn8 O6 1.949400 1_555
Mn8 O0 1.950751 1_555
Mn8 O10 1.984354 1_555
Mn9 O6 1.853138 1_555
Mn9 O10 1.869037 1_555
Mn9 O3 1.900101 1_565
Mn10 O12 1.944272 1_555
Mn10 O11 2.002110 1_555
Mn10 O4 2.030547 1_555
Mn11 O7 1.877173 1_555
Mn11 O8 1.906381 1_555
Mn11 O5 1.916403 1_555
Mn11 O13 2.020317 1_555
F0 Mn10 2.034788 1_555
F0 Mn1 2.097540 1_555
F0 Mn8 2.160616 1_555
F1 Mn6 2.001052 1_555
F1 Mn0 2.139181 1_555
F1 Mn10 2.166949 1_555
F2 Mg0 2.001305 1_556
F2 Mn5 2.164166 1_555
F2 Mn2 2.332397 1_456
F2 Mn7 2.442498 1_555
F3 Mn11 2.054034 1_555
F3 Mn7 2.095383 1_555
F3 Mn5 2.158881 1_655
F4 Mn9 2.062452 1_545
F4 Mg0 2.104599 1_555
F4 Mn2 2.154780 1_555
F4 Mn1 2.429738 1_645
F5 Mn6 2.039348 1_555
F5 Mn0 2.119447 1_655
F5 Mn4 2.234787 1_645
F6 Mn10 2.125800 1_555
F6 Mn1 2.127144 1_655
F6 Mn0 2.183009 1_665
F7 Mg0 2.117857 1_555
F7 Mn9 2.153711 1_555
F7 Mn2 2.415368 1_565
F7 Mn5 2.705417 1_654
F8 Mn3 2.003591 1_655
F8 Mn7 2.088769 1_555
F8 Mn5 2.297537 1_645
F9 Mn11 2.031636 1_555
F9 Mn4 2.068996 1_655
F9 Mn3 2.266741 1_665
