# generated using pymatgen
data_Ba6MgNb2Ir(ClO6)2
_symmetry_space_group_name_H-M   'P 1'
_cell_length_a   6.26046386
_cell_length_b   6.27573770
_cell_length_c   15.30683815
_cell_angle_alpha   82.75473439
_cell_angle_beta   96.97284945
_cell_angle_gamma   123.20270857
_symmetry_Int_Tables_number   1
_chemical_formula_structural   Ba6MgNb2Ir(ClO6)2
_chemical_formula_sum   'Ba6 Mg1 Nb2 Ir1 Cl2 O12'
_cell_volume   498.19560935
_cell_formula_units_Z   1
loop_
 _symmetry_equiv_pos_site_id
 _symmetry_equiv_pos_as_xyz
  1  'x, y, z'
loop_
 _atom_site_type_symbol
 _atom_site_label
 _atom_site_symmetry_multiplicity
 _atom_site_fract_x
 _atom_site_fract_y
 _atom_site_fract_z
 _atom_site_occupancy
  Ba  Ba0  1  0.28167400  0.72839600  0.36142700  1
  Ba  Ba1  1  0.40211100  0.58497300  0.77762900  1
  Ba  Ba2  1  0.71832600  0.27160400  0.63857300  1
  Ba  Ba3  1  0.73889200  0.25042100  0.89534900  1
  Ba  Ba4  1  0.26110800  0.74957900  0.10465100  1
  Ba  Ba5  1  0.59788900  0.41502700  0.22237100  1
  Mg  Mg0  1  0.50000000  0.50000000  0.00000000  1
  Nb  Nb0  1  0.08109300  0.90595300  0.81962300  1
  Nb  Nb1  1  0.91890700  0.09404700  0.18037700  1
  Ir  Ir0  1  0.00000000  0.00000000  0.00000000  1
  Cl  Cl0  1  0.66896000  0.32601500  0.42677600  1
  Cl  Cl1  1  0.33104000  0.67398500  0.57322400  1
  O  O0  1  0.28225700  0.22024400  0.91912000  1
  O  O1  1  0.37684000  0.12089100  0.75130500  1
  O  O2  1  0.11145900  0.37769900  0.25154900  1
  O  O3  1  0.88854100  0.62230100  0.74845100  1
  O  O4  1  0.90628900  0.09426700  0.77186200  1
  O  O5  1  0.71774300  0.77975600  0.08088000  1
  O  O6  1  0.09371100  0.90573300  0.22813800  1
  O  O7  1  0.22879900  0.29470200  0.08552300  1
  O  O8  1  0.74860000  0.24778600  0.10115400  1
  O  O9  1  0.77120100  0.70529800  0.91447700  1
  O  O10  1  0.62316000  0.87910900  0.24869500  1
  O  O11  1  0.25140000  0.75221400  0.89884600  1
loop_
_geom_bond_atom_site_label_1
_geom_bond_atom_site_label_2
_geom_bond_distance
_geom_bond_site_symmetry_2
Ba0 O10 2.590770 1_555
Ba0 O2 2.595784 1_555
Ba0 O6 2.657914 1_555
Ba0 Cl1 3.211758 1_555
Ba0 Cl0 3.368043 1_565
Ba0 Cl0 3.431778 1_455
Ba1 O11 2.726778 1_555
Ba1 O9 2.758634 1_555
Ba1 O0 2.784964 1_555
Ba1 O1 2.906145 1_555
Ba1 O4 2.942700 1_455
Ba1 O3 3.008421 1_555
Ba1 O4 3.022221 1_565
Ba1 Cl1 3.129334 1_555
Ba1 O3 3.322895 1_455
Ba1 O1 3.424106 1_565
Ba2 O1 2.590770 1_555
Ba2 O3 2.595784 1_555
Ba2 O4 2.657914 1_555
Ba2 Cl0 3.211758 1_555
Ba2 Cl1 3.368043 1_545
Ba2 Cl1 3.431778 1_655
Ba3 O4 2.775686 1_555
Ba3 O9 2.799989 1_555
Ba3 O1 2.807220 1_555
Ba3 O0 2.825407 1_555
Ba3 O3 2.858946 1_555
Ba3 O11 2.939324 1_545
Ba3 O11 3.024785 1_655
Ba3 Ir0 3.041508 1_656
Ba3 O8 3.141553 1_556
Ba4 O6 2.775686 1_555
Ba4 O7 2.799989 1_555
Ba4 O10 2.807220 1_555
Ba4 O5 2.825407 1_555
Ba4 O2 2.858946 1_555
Ba4 O8 2.939324 1_565
Ba4 O8 3.024785 1_455
Ba4 Ir0 3.041508 1_565
Ba4 O11 3.141553 1_554
Ba5 O8 2.726778 1_555
Ba5 O7 2.758634 1_555
Ba5 O5 2.784964 1_555
Ba5 O10 2.906145 1_555
Ba5 O6 2.942700 1_655
Ba5 O2 3.008421 1_555
Ba5 O6 3.022221 1_545
Ba5 Cl0 3.129334 1_555
Ba5 O2 3.322895 1_655
Ba5 O10 3.424106 1_545
Mg0 O9 1.993694 1_554
Mg0 O7 1.993694 1_555
Mg0 O0 1.997666 1_554
Mg0 O5 1.997666 1_555
Nb0 O3 1.904980 1_455
Nb0 O1 1.928784 1_565
Nb0 O11 2.013902 1_555
Nb0 O4 2.032983 1_465
Nb0 O9 2.237132 1_455
Nb0 O0 2.316769 1_565
Nb1 O2 1.904980 1_655
Nb1 O10 1.928784 1_545
Nb1 O8 2.013902 1_555
Nb1 O6 2.032983 1_645
Nb1 O7 2.237132 1_655
Nb1 O5 2.316769 1_545
Ir0 O0 1.997557 1_554
Ir0 O5 1.997557 1_445
Ir0 O7 2.107137 1_555
Ir0 O9 2.107137 1_444
