# generated using pymatgen
data_SrIn4
_symmetry_space_group_name_H-M   'P 1'
_cell_length_a   6.97132211
_cell_length_b   6.97132211
_cell_length_c   6.97132211
_cell_angle_alpha   138.61255778
_cell_angle_beta   138.61255778
_cell_angle_gamma   59.96612131
_symmetry_Int_Tables_number   1
_chemical_formula_structural   SrIn4
_chemical_formula_sum   'Sr1 In4'
_cell_volume   146.58018162
_cell_formula_units_Z   1
loop_
 _symmetry_equiv_pos_site_id
 _symmetry_equiv_pos_as_xyz
  1  'x, y, z'
loop_
 _atom_site_type_symbol
 _atom_site_label
 _atom_site_symmetry_multiplicity
 _atom_site_fract_x
 _atom_site_fract_y
 _atom_site_fract_z
 _atom_site_occupancy
  Sr  Sr0  1  0.00000000  -0.00000000  -0.00000000  1
  In  In0  1  0.25000000  0.75000000  0.50000000  1
  In  In1  1  0.75000000  0.25000000  0.50000000  1
  In  In2  1  0.38488806  0.38488806  0.00000000  1
  In  In3  1  0.61511194  0.61511194  -0.00000000  1
loop_
_geom_bond_atom_site_label_1
_geom_bond_atom_site_label_2
_geom_bond_distance
_geom_bond_site_symmetry_2
In0 In2 2.953365 1_566
In0 In3 2.953365 1_455
In0 In3 2.953365 1_556
In0 In2 2.953365 1_555
In0 Sr0 3.896688 1_555
In0 Sr0 3.896688 1_566
In0 Sr0 3.896688 1_565
In0 Sr0 3.896688 1_666
In1 In2 2.953365 1_656
In1 In3 2.953365 1_545
In1 In3 2.953365 1_556
In1 In2 2.953365 1_555
In1 Sr0 3.896688 1_555
In1 Sr0 3.896688 1_656
In1 Sr0 3.896688 1_666
In1 Sr0 3.896688 1_655
In2 In3 2.780355 1_555
In2 Sr0 3.750998 1_565
In2 Sr0 3.750998 1_666
In2 Sr0 3.750998 1_655
In2 Sr0 3.750998 1_554
In3 Sr0 3.750998 1_565
In3 Sr0 3.750998 1_666
In3 Sr0 3.750998 1_655
In3 Sr0 3.750998 1_554
