# generated using pymatgen
data_Mg3BiSb
_symmetry_space_group_name_H-M   'P 1'
_cell_length_a   4.66434000
_cell_length_b   4.66434093
_cell_length_c   7.36034500
_cell_angle_alpha   90.00000000
_cell_angle_beta   90.00000000
_cell_angle_gamma   119.99999344
_symmetry_Int_Tables_number   1
_chemical_formula_structural   Mg3BiSb
_chemical_formula_sum   'Mg3 Bi1 Sb1'
_cell_volume   138.67855835
_cell_formula_units_Z   1
loop_
 _symmetry_equiv_pos_site_id
 _symmetry_equiv_pos_as_xyz
  1  'x, y, z'
loop_
 _atom_site_type_symbol
 _atom_site_label
 _atom_site_symmetry_multiplicity
 _atom_site_fract_x
 _atom_site_fract_y
 _atom_site_fract_z
 _atom_site_occupancy
  Mg  Mg0  1  0.00000000  0.00000000  0.00449300  1
  Mg  Mg1  1  0.33333300  0.66666700  0.36493600  1
  Mg  Mg2  1  0.66666700  0.33333300  0.62585600  1
  Bi  Bi0  1  0.33333300  0.66666700  0.77964500  1
  Sb  Sb0  1  0.66666700  0.33333300  0.22507000  1
loop_
_geom_bond_atom_site_label_1
_geom_bond_atom_site_label_2
_geom_bond_distance
_geom_bond_site_symmetry_2
Mg0 Sb0 3.144493 1_455
Mg0 Sb0 3.144496 1_555
Mg0 Sb0 3.144497 1_445
Mg1 Sb0 2.883019 1_455
Mg1 Sb0 2.883020 1_565
Mg1 Sb0 2.883027 1_555
Mg2 Sb0 2.949923 1_555
Bi0 Mg2 2.921181 1_455
Bi0 Mg2 2.921181 1_565
Bi0 Mg2 2.921188 1_555
Bi0 Mg1 3.052401 1_555
Bi0 Mg0 3.160838 1_566
Bi0 Mg0 3.160842 1_666
Bi0 Mg0 3.160842 1_556
