# generated using pymatgen
data_K3(NiO2)2
_symmetry_space_group_name_H-M   'P 1'
_cell_length_a   5.45410706
_cell_length_b   5.38022647
_cell_length_c   10.54325706
_cell_angle_alpha   90.01221270
_cell_angle_beta   89.98702997
_cell_angle_gamma   112.21541571
_symmetry_Int_Tables_number   1
_chemical_formula_structural   K3(NiO2)2
_chemical_formula_sum   'K6 Ni4 O8'
_cell_volume   286.41883825
_cell_formula_units_Z   2
loop_
 _symmetry_equiv_pos_site_id
 _symmetry_equiv_pos_as_xyz
  1  'x, y, z'
loop_
 _atom_site_type_symbol
 _atom_site_label
 _atom_site_symmetry_multiplicity
 _atom_site_fract_x
 _atom_site_fract_y
 _atom_site_fract_z
 _atom_site_occupancy
  K  K0  1  0.29034049  0.70966815  0.25006397  1
  K  K1  1  0.70961528  0.29038314  0.75000378  1
  K  K2  1  0.35133758  0.65398064  0.57023587  1
  K  K3  1  0.64865792  0.34614544  0.07028512  1
  K  K4  1  0.64846915  0.34602301  0.42979225  1
  K  K5  1  0.35159410  0.65407428  0.92988530  1
  Ni  Ni0  1  0.07002128  0.93809196  0.74996686  1
  Ni  Ni1  1  -0.00079099  -0.00059134  0.50009823  1
  Ni  Ni2  1  0.00074930  0.00048147  0.00000487  1
  Ni  Ni3  1  0.92995602  0.06186004  0.24997846  1
  O  O0  1  0.86399300  0.74055856  0.61840287  1
  O  O1  1  0.86449866  0.74338213  0.88117228  1
  O  O2  1  0.27215238  0.13857941  0.61796784  1
  O  O3  1  0.72791462  0.86158203  0.11793918  1
  O  O4  1  0.13561125  0.25656709  0.38122489  1
  O  O5  1  0.27369381  0.13899154  0.88227731  1
  O  O6  1  0.72631735  0.86095173  0.38232725  1
  O  O7  1  0.13587082  0.25927373  0.11837667  1
loop_
_geom_bond_atom_site_label_1
_geom_bond_atom_site_label_2
_geom_bond_distance
_geom_bond_site_symmetry_2
K0 O6 2.607452 1_555
K0 O3 2.613093 1_555
K0 O7 2.639094 1_555
K0 O4 2.648120 1_555
K1 O5 2.606861 1_555
K1 O2 2.612521 1_555
K1 O0 2.638032 1_555
K1 O1 2.647355 1_555
K2 O2 2.687763 1_555
K2 O0 2.703441 1_555
K2 O6 2.761297 1_555
K2 O4 2.832712 1_555
K2 O2 2.844006 1_565
K2 O0 2.911278 1_455
K3 O3 2.687520 1_555
K3 O7 2.703442 1_555
K3 O5 2.762442 1_554
K3 O1 2.833247 1_554
K3 O3 2.844101 1_545
K3 O7 2.911483 1_655
K4 O6 2.686450 1_555
K4 O4 2.701962 1_555
K4 O2 2.767919 1_555
K4 O0 2.820362 1_555
K4 O6 2.842359 1_545
K4 O4 2.918792 1_655
K5 O5 2.687285 1_555
K5 O1 2.702468 1_555
K5 O3 2.767379 1_556
K5 O7 2.820731 1_556
K5 O5 2.842188 1_565
K5 O1 2.918657 1_455
Ni0 O1 1.838342 1_455
Ni0 O0 1.847510 1_455
Ni0 O2 1.848365 1_565
Ni0 O5 1.854830 1_565
Ni1 O4 1.805685 1_555
Ni1 O0 1.806346 1_445
Ni1 O6 1.863874 1_445
Ni1 O2 1.865128 1_555
Ni2 O1 1.804916 1_444
Ni2 O7 1.806404 1_555
Ni2 O5 1.863546 1_554
Ni2 O3 1.864818 1_445
Ni3 O4 1.838993 1_655
Ni3 O7 1.847303 1_655
Ni3 O3 1.848128 1_545
Ni3 O6 1.855049 1_545
