# generated using pymatgen
data_Na8Mg(NiO4)2
_symmetry_space_group_name_H-M   'P 1'
_cell_length_a   8.62965135
_cell_length_b   5.90604975
_cell_length_c   5.84758202
_cell_angle_alpha   69.04453890
_cell_angle_beta   106.85847266
_cell_angle_gamma   96.08922358
_symmetry_Int_Tables_number   1
_chemical_formula_structural   Na8Mg(NiO4)2
_chemical_formula_sum   'Na8 Mg1 Ni2 O8'
_cell_volume   266.36010908
_cell_formula_units_Z   1
loop_
 _symmetry_equiv_pos_site_id
 _symmetry_equiv_pos_as_xyz
  1  'x, y, z'
loop_
 _atom_site_type_symbol
 _atom_site_label
 _atom_site_symmetry_multiplicity
 _atom_site_fract_x
 _atom_site_fract_y
 _atom_site_fract_z
 _atom_site_occupancy
  Na  Na0  1  0.19881270  0.99036959  0.67119808  1
  Na  Na1  1  0.12644595  0.50311977  0.11471977  1
  Na  Na2  1  0.31290168  0.53534085  0.67359991  1
  Na  Na3  1  0.32544130  0.01529945  0.20041319  1
  Na  Na4  1  0.57195231  0.03142179  0.66961272  1
  Na  Na5  1  0.71842375  0.51177275  0.88831037  1
  Na  Na6  1  0.85941963  0.13726136  0.45084974  1
  Na  Na7  1  0.94806183  0.56589644  0.57622142  1
  Mg  Mg0  1  0.65739920  0.83275535  0.19286162  1
  Ni  Ni0  1  0.48126881  0.51485599  0.31038423  1
  Ni  Ni1  1  0.98374583  0.98299534  0.01799641  1
  O  O0  1  0.10755269  0.24254116  0.85516085  1
  O  O1  1  0.11018624  0.80036727  0.33778881  1
  O  O2  1  0.42729661  0.75894602  0.97901256  1
  O  O3  1  0.34996663  0.28390078  0.44140428  1
  O  O4  1  0.54939452  0.75792478  0.47397428  1
  O  O5  1  0.69840677  0.46737644  0.31521656  1
  O  O6  1  0.93440563  0.79343129  0.81015421  1
  O  O7  1  0.78690193  0.09331659  0.03941099  1
loop_
_geom_bond_atom_site_label_1
_geom_bond_atom_site_label_2
_geom_bond_distance
_geom_bond_site_symmetry_2
Na0 O3 2.320158 1_565
Na0 O2 2.397763 1_555
Na0 O0 2.425235 1_565
Na0 O1 2.482587 1_555
Na0 O6 2.656269 1_455
Na1 O6 2.358990 1_454
Na1 O3 2.381118 1_555
Na1 O0 2.484514 1_554
Na1 O1 2.568964 1_555
Na2 O1 2.399221 1_555
Na2 O3 2.438459 1_555
Na2 O2 2.509175 1_555
Na2 O0 2.527016 1_555
Na2 O4 2.640236 1_555
Na3 O1 2.311523 1_545
Na3 O4 2.386511 1_545
Na3 O0 2.410012 1_554
Na3 O3 2.429421 1_555
Na3 O2 2.661859 1_544
Na4 O4 2.254265 1_545
Na4 O3 2.318195 1_555
Na4 O2 2.494514 1_545
Na4 O7 2.519034 1_556
Na5 O7 2.383880 1_556
Na5 O6 2.396349 1_555
Na5 O4 2.447862 1_555
Na5 O5 2.470376 1_556
Na6 O5 2.278249 1_555
Na6 O6 2.322763 1_545
Na6 O7 2.405482 1_555
Na7 O6 2.265620 1_555
Na7 O1 2.271204 1_655
Na7 O0 2.286793 1_655
Na7 O5 2.402425 1_555
Mg0 O7 1.910855 1_565
Mg0 O4 2.011918 1_555
Mg0 O5 2.050525 1_555
Mg0 O2 2.112539 1_554
Ni0 O3 1.777522 1_555
Ni0 O5 1.914615 1_555
Ni0 O2 1.915936 1_554
Ni0 O4 1.949010 1_555
Ni1 O1 1.863970 1_655
Ni1 O6 1.866515 1_554
Ni1 O0 1.896446 1_664
Ni1 O7 1.934510 1_565
