# generated using pymatgen
data_MgMn6O7F5
_symmetry_space_group_name_H-M   'P 1'
_cell_length_a   5.18111465
_cell_length_b   7.80481127
_cell_length_c   5.72344108
_cell_angle_alpha   96.95871995
_cell_angle_beta   95.34553053
_cell_angle_gamma   86.56403908
_symmetry_Int_Tables_number   1
_chemical_formula_structural   MgMn6O7F5
_chemical_formula_sum   'Mg1 Mn6 O7 F5'
_cell_volume   228.46108879
_cell_formula_units_Z   1
loop_
 _symmetry_equiv_pos_site_id
 _symmetry_equiv_pos_as_xyz
  1  'x, y, z'
loop_
 _atom_site_type_symbol
 _atom_site_label
 _atom_site_symmetry_multiplicity
 _atom_site_fract_x
 _atom_site_fract_y
 _atom_site_fract_z
 _atom_site_occupancy
  Mg  Mg0  1  0.49666400  0.16226600  0.16144400  1
  Mn  Mn0  1  0.41713100  0.98978900  0.54988000  1
  Mn  Mn1  1  0.53746800  0.67744200  0.14443900  1
  Mn  Mn2  1  0.58050100  0.33624800  0.77330100  1
  Mn  Mn3  1  0.99678700  0.66442400  0.67108400  1
  Mn  Mn4  1  0.00037600  0.34554100  0.32774200  1
  Mn  Mn5  1  0.99289000  0.96760300  0.00061100  1
  O  O0  1  0.85671600  0.43735300  0.61237600  1
  O  O1  1  0.84490900  0.74923900  0.96722500  1
  O  O2  1  0.62885600  0.09420900  0.83396700  1
  O  O3  1  0.67384300  0.39876900  0.12181400  1
  O  O4  1  0.35239200  0.23929800  0.48776000  1
  O  O5  1  0.33634400  0.92977200  0.21362200  1
  O  O6  1  0.14192200  0.88949000  0.71766800  1
  F  F0  1  0.83941700  0.08000000  0.29920100  1
  F  F1  1  0.64751100  0.77091400  0.50020700  1
  F  F2  1  0.35354100  0.55680300  0.82723700  1
  F  F3  1  0.16232200  0.59305300  0.36480200  1
  F  F4  1  0.14041200  0.22611700  0.02681000  1
loop_
_geom_bond_atom_site_label_1
_geom_bond_atom_site_label_2
_geom_bond_distance
_geom_bond_site_symmetry_2
Mg0 O2 2.053913 1_554
Mg0 O4 2.083865 1_555
Mg0 O5 2.104758 1_545
Mg0 O3 2.155157 1_555
Mn0 O5 1.937392 1_555
Mn0 O2 1.991233 1_565
Mn0 O4 2.024455 1_565
Mn0 O6 2.034520 1_555
Mn1 O1 2.103755 1_554
Mn1 O5 2.182447 1_555
Mn1 O3 2.238569 1_555
Mn2 O2 1.959057 1_555
Mn2 O3 2.015811 1_556
Mn2 O0 2.018943 1_555
Mn2 O4 2.021851 1_555
Mn3 O6 1.931232 1_655
Mn3 O0 1.935168 1_555
Mn3 O1 1.960726 1_555
Mn4 O0 1.897511 1_455
Mn4 O3 2.021583 1_455
Mn4 O4 2.131726 1_555
Mn5 O6 1.878220 1_654
Mn5 O1 1.891924 1_554
Mn5 O5 2.088079 1_655
Mn5 O2 2.261254 1_564
F0 Mg0 1.978036 1_555
F0 Mn5 2.031921 1_545
F0 Mn4 2.262112 1_655
F1 Mn0 2.030989 1_555
F1 Mn1 2.115907 1_555
F1 Mn3 2.146855 1_555
F2 Mn2 2.034079 1_555
F2 Mn1 2.112260 1_556
F2 Mn3 2.146815 1_455
F3 Mn3 2.026100 1_455
F3 Mn4 2.131349 1_555
F3 Mn1 2.571747 1_555
F4 Mg0 1.991688 1_555
F4 Mn4 2.030890 1_555
F4 Mn5 2.183528 1_445
