# generated using pymatgen
data_GdNi5
_symmetry_space_group_name_H-M   'P 1'
_cell_length_a   4.86186570
_cell_length_b   4.86182687
_cell_length_c   3.91576835
_cell_angle_alpha   90.00000000
_cell_angle_beta   90.00000000
_cell_angle_gamma   119.99655146
_symmetry_Int_Tables_number   1
_chemical_formula_structural   GdNi5
_chemical_formula_sum   'Gd1 Ni5'
_cell_volume   80.16137573
_cell_formula_units_Z   1
loop_
 _symmetry_equiv_pos_site_id
 _symmetry_equiv_pos_as_xyz
  1  'x, y, z'
loop_
 _atom_site_type_symbol
 _atom_site_label
 _atom_site_symmetry_multiplicity
 _atom_site_fract_x
 _atom_site_fract_y
 _atom_site_fract_z
 _atom_site_occupancy
  Gd  Gd0  1  -0.00000000  -0.00000000  0.00000000  1
  Ni  Ni0  1  -0.00000000  0.50000000  0.50000000  1
  Ni  Ni1  1  0.33332241  0.66669485  0.00000000  1
  Ni  Ni2  1  0.66667759  0.33330515  -0.00000000  1
  Ni  Ni3  1  0.50000000  -0.00000000  0.50000000  1
  Ni  Ni4  1  0.50000000  0.50000000  0.50000000  1
loop_
_geom_bond_atom_site_label_1
_geom_bond_atom_site_label_2
_geom_bond_distance
_geom_bond_site_symmetry_2
Gd0 Ni1 2.806775 1_545
Gd0 Ni2 2.806775 1_455
Gd0 Ni1 2.807143 1_445
Gd0 Ni2 2.807143 1_555
Gd0 Ni2 2.807193 1_445
Gd0 Ni1 2.807193 1_555
Gd0 Ni0 3.121322 1_545
Gd0 Ni0 3.121322 1_544
Gd0 Ni0 3.121322 1_555
Gd0 Ni0 3.121322 1_554
Gd0 Ni3 3.121337 1_554
Gd0 Ni3 3.121337 1_455
Gd0 Ni3 3.121337 1_454
Gd0 Ni3 3.121337 1_555
Gd0 Ni4 3.121428 1_554
Gd0 Ni4 3.121428 1_444
Gd0 Ni4 3.121428 1_445
Gd0 Ni4 3.121428 1_555
Ni0 Ni2 2.408969 1_455
Ni0 Ni2 2.408969 1_456
Ni0 Ni1 2.408969 1_556
Ni0 Ni1 2.408969 1_555
Ni0 Ni4 2.430933 1_555
Ni0 Ni4 2.430933 1_455
Ni0 Ni3 2.431050 1_455
Ni0 Ni3 2.431050 1_565
Ni1 Ni3 2.408920 1_565
Ni1 Ni3 2.408920 1_564
Ni1 Ni4 2.409045 1_554
Ni1 Ni4 2.409045 1_555
Ni1 Ni2 2.806837 1_565
Ni1 Ni2 2.807005 1_455
Ni1 Ni2 2.807269 1_555
Ni2 Ni3 2.408920 1_555
Ni2 Ni3 2.408920 1_554
Ni2 Ni4 2.409045 1_554
Ni2 Ni4 2.409045 1_555
Ni3 Ni4 2.430913 1_555
Ni3 Ni4 2.430913 1_545
