# generated using pymatgen
data_Au
_symmetry_space_group_name_H-M   'P 1'
_cell_length_a   5.74094822
_cell_length_b   5.74094822
_cell_length_c   5.74094822
_cell_angle_alpha   109.47122063
_cell_angle_beta   109.47122063
_cell_angle_gamma   109.47122063
_symmetry_Int_Tables_number   1
_chemical_formula_structural   Au
_chemical_formula_sum   Au8
_cell_volume   145.65620773
_cell_formula_units_Z   8
loop_
 _symmetry_equiv_pos_site_id
 _symmetry_equiv_pos_as_xyz
  1  'x, y, z'
loop_
 _atom_site_type_symbol
 _atom_site_label
 _atom_site_symmetry_multiplicity
 _atom_site_fract_x
 _atom_site_fract_y
 _atom_site_fract_z
 _atom_site_occupancy
  Au  Au0_0  1  0.00000000  0.00000000  0.00000000  1
  Au  Au0_1  1  0.00000000  0.00000000  0.50000000  1
  Au  Au0_2  1  0.00000000  0.50000000  0.00000000  1
  Au  Au0_3  1  0.00000000  0.50000000  0.50000000  1
  Au  Au0_4  1  0.50000000  0.00000000  0.00000000  1
  Au  Au0_5  1  0.50000000  0.00000000  0.50000000  1
  Au  Au0_6  1  0.50000000  0.50000000  0.00000000  1
  Au  Au0_7  1  0.50000000  0.50000000  0.50000000  1
loop_
_geom_bond_atom_site_label_1
_geom_bond_atom_site_label_2
_geom_bond_distance
_geom_bond_site_symmetry_2
Au0_0 Au0_1 2.870474 1_554
Au0_0 Au0_2 2.870474 1_555
Au0_0 Au0_7 2.870474 1_444
Au0_0 Au0_2 2.870474 1_545
Au0_0 Au0_4 2.870474 1_455
Au0_0 Au0_1 2.870474 1_555
Au0_0 Au0_4 2.870474 1_555
Au0_0 Au0_7 2.870474 1_555
Au0_1 Au0_3 2.870474 1_555
Au0_1 Au0_6 2.870474 1_556
Au0_1 Au0_5 2.870474 1_555
Au0_1 Au0_3 2.870474 1_545
Au0_1 Au0_5 2.870474 1_455
Au0_1 Au0_6 2.870474 1_445
Au0_2 Au0_3 2.870474 1_555
Au0_2 Au0_3 2.870474 1_554
Au0_2 Au0_5 2.870474 1_565
Au0_2 Au0_6 2.870474 1_455
Au0_2 Au0_6 2.870474 1_555
Au0_2 Au0_5 2.870474 1_454
Au0_3 Au0_4 2.870474 1_566
Au0_3 Au0_7 2.870474 1_455
Au0_3 Au0_4 2.870474 1_455
Au0_3 Au0_7 2.870474 1_555
Au0_4 Au0_5 2.870474 1_555
Au0_4 Au0_5 2.870474 1_554
Au0_4 Au0_6 2.870474 1_545
Au0_4 Au0_6 2.870474 1_555
Au0_5 Au0_7 2.870474 1_555
Au0_5 Au0_7 2.870474 1_545
Au0_6 Au0_7 2.870474 1_555
Au0_6 Au0_7 2.870474 1_554
