# generated using pymatgen
data_NaIn4PS5O24
_symmetry_space_group_name_H-M   'P 1'
_cell_length_a   8.88252067
_cell_length_b   8.87806268
_cell_length_c   23.28484221
_cell_angle_alpha   89.89464793
_cell_angle_beta   90.24573523
_cell_angle_gamma   119.83652558
_symmetry_Int_Tables_number   1
_chemical_formula_structural   NaIn4PS5O24
_chemical_formula_sum   'Na3 In12 P3 S15 O72'
_cell_volume   1592.82254425
_cell_formula_units_Z   3
loop_
 _symmetry_equiv_pos_site_id
 _symmetry_equiv_pos_as_xyz
  1  'x, y, z'
loop_
 _atom_site_type_symbol
 _atom_site_label
 _atom_site_symmetry_multiplicity
 _atom_site_fract_x
 _atom_site_fract_y
 _atom_site_fract_z
 _atom_site_occupancy
  Na  Na0  1  0.99909375  0.99363278  0.99720960  1
  Na  Na1  1  0.66004726  0.33218272  0.83779533  1
  Na  Na2  1  0.67203972  0.33219052  0.33036232  1
  In  In0  1  0.99887402  0.00456963  0.35104616  1
  In  In1  1  0.99900671  0.99294528  0.85417454  1
  In  In2  1  0.00068753  0.00030252  0.64827365  1
  In  In3  1  0.00068715  0.00567686  0.14978530  1
  In  In4  1  0.66594930  0.33287822  0.68482629  1
  In  In5  1  0.67311742  0.33356256  0.18392418  1
  In  In6  1  0.66006680  0.33317206  0.98002802  1
  In  In7  1  0.66669883  0.33291229  0.48292331  1
  In  In8  1  0.33866342  0.67283491  0.01690710  1
  In  In9  1  0.33282706  0.66677946  0.51943515  1
  In  In10  1  0.32814461  0.66080367  0.31115473  1
  In  In11  1  0.33974685  0.67206281  0.81736420  1
  P  P0  1  0.99742912  0.29198053  0.25060072  1
  P  P1  1  0.62643918  0.66642900  0.91671215  1
  P  P2  1  0.33392123  0.96019353  0.91670192  1
  S  S0  1  0.29402837  0.00154412  0.25051766  1
  S  S1  1  0.70741093  0.70606176  0.25048313  1
  S  S2  1  0.29196006  0.29358005  0.75026952  1
  S  S3  1  0.00074453  0.70524169  0.74956265  1
  S  S4  1  0.70829930  0.00050971  0.74976282  1
  S  S5  1  0.96015741  0.33333502  0.58340936  1
  S  S6  1  0.37302374  0.04010029  0.58331984  1
  S  S7  1  0.66719647  0.62706846  0.58334774  1
  S  S8  1  0.96150567  0.62820399  0.08285308  1
  S  S9  1  0.66693158  0.04039897  0.08274505  1
  S  S10  1  0.37287908  0.33372101  0.08375444  1
  S  S11  1  0.04013969  0.37384451  0.91661864  1
  S  S12  1  0.62401813  0.95750262  0.41627536  1
  S  S13  1  0.33448291  0.37424031  0.41689424  1
  S  S14  1  0.03998196  0.66781888  0.41638771  1
  O  O0  1  0.21704743  0.03084283  0.30285323  1
  O  O1  1  0.81643063  0.78043361  0.30272302  1
  O  O2  1  0.96282859  0.18009814  0.30512832  1
  O  O3  1  0.21382091  0.18292443  0.80115986  1
  O  O4  1  0.96696916  0.78206645  0.80042312  1
  O  O5  1  0.81860282  0.03318463  0.80102906  1
  O  O6  1  0.78663888  0.97491631  0.69711079  1
  O  O7  1  0.18877760  0.21569784  0.69716486  1
  O  O8  1  0.02707092  0.81015029  0.69696631  1
  O  O9  1  0.78521216  0.81000822  0.19839420  1
  O  O10  1  0.02781855  0.21230593  0.19668099  1
  O  O11  1  0.18733575  0.97082003  0.19853980  1
  O  O12  1  0.88227875  0.36520985  0.63472600  1
  O  O13  1  0.48293840  0.11757231  0.63489767  1
  O  O14  1  0.63551064  0.51739600  0.63486176  1
  O  O15  1  0.88393759  0.52454638  0.13541698  1
  O  O16  1  0.64006140  0.11766448  0.13522600  1
  O  O17  1  0.47869461  0.35991784  0.13622961  1
  O  O18  1  0.44984941  0.30125542  0.03250381  1
  O  O19  1  0.85095834  0.54963386  0.03156119  1
  O  O20  1  0.69885742  0.15096541  0.03157436  1
  O  O21  1  0.44964906  0.14873700  0.53138102  1
  O  O22  1  0.69852821  0.54991337  0.53141311  1
  O  O23  1  0.85142439  0.30139172  0.53121640  1
  O  O24  1  0.54749328  0.69427471  0.97124919  1
  O  O25  1  0.14468230  0.44944915  0.96897800  1
  O  O26  1  0.30009130  0.84994156  0.97097018  1
  O  O27  1  0.54619231  0.85398694  0.46886544  1
  O  O28  1  0.30748442  0.45233935  0.46914886  1
  O  O29  1  0.14438441  0.69466207  0.46906523  1
  O  O30  1  0.11766771  0.63561757  0.36535226  1
  O  O31  1  0.51446448  0.87952991  0.36471799  1
  O  O32  1  0.36719150  0.48382562  0.36555565  1
  O  O33  1  0.11513058  0.47747512  0.86399871  1
  O  O34  1  0.36133634  0.88239745  0.86146308  1
  O  O35  1  0.51745276  0.63220276  0.86168579  1
  O  O36  1  0.02131129  0.82271222  0.40891028  1
  O  O37  1  0.79661368  0.97448226  0.41024431  1
  O  O38  1  0.18090782  0.20090507  0.41021797  1
  O  O39  1  0.02246275  0.19892089  0.91077399  1
  O  O40  1  0.17201014  0.98289852  0.91177735  1
  O  O41  1  0.80670087  0.83273451  0.91156184  1
  O  O42  1  0.97732685  0.17746663  0.59082575  1
  O  O43  1  0.20039459  0.02326586  0.59075880  1
  O  O44  1  0.82255986  0.79957449  0.59094421  1
  O  O45  1  0.97818673  0.80438993  0.08946768  1
  O  O46  1  0.82513998  0.02185119  0.08835054  1
  O  O47  1  0.19812037  0.17384399  0.08913447  1
  O  O48  1  0.69112129  0.16008047  0.74368217  1
  O  O49  1  0.46836707  0.31024316  0.74405738  1
  O  O50  1  0.84114358  0.52977528  0.74320962  1
  O  O51  1  0.68620218  0.52917985  0.24469853  1
  O  O52  1  0.83272078  0.31098219  0.24534631  1
  O  O53  1  0.46760388  0.16019744  0.24448886  1
  O  O54  1  0.64962164  0.50491101  0.92141659  1
  O  O55  1  0.86540309  0.35577010  0.92229482  1
  O  O56  1  0.49974190  0.14063566  0.92175805  1
  O  O57  1  0.64219103  0.13461779  0.42223435  1
  O  O58  1  0.49352500  0.35654947  0.42304934  1
  O  O59  1  0.86397073  0.50903240  0.42264597  1
  O  O60  1  0.35342690  0.48772710  0.07662403  1
  O  O61  1  0.13334237  0.64416649  0.07606325  1
  O  O62  1  0.51218623  0.86814715  0.07701542  1
  O  O63  1  0.35662675  0.86734741  0.57578226  1
  O  O64  1  0.51098648  0.64385204  0.57567196  1
  O  O65  1  0.13250835  0.48913230  0.57570688  1
  O  O66  1  0.31433707  0.84780785  0.25770977  1
  O  O67  1  0.53679849  0.69283792  0.25781401  1
  O  O68  1  0.15944215  0.47095112  0.25775713  1
  O  O69  1  0.30924753  0.46607527  0.75677746  1
  O  O70  1  0.15428008  0.68543114  0.75672594  1
  O  O71  1  0.53579174  0.84653453  0.75551098  1
loop_
_geom_bond_atom_site_label_1
_geom_bond_atom_site_label_2
_geom_bond_distance
_geom_bond_site_symmetry_2
Na0 O41 2.547615 1_555
Na0 O40 2.549108 1_655
Na0 O39 2.651260 1_665
Na0 O45 2.674279 1_556
Na0 O46 2.714637 1_566
Na0 O47 2.726228 1_666
Na1 O54 2.511024 1_555
Na1 O56 2.518707 1_555
Na1 O55 2.614007 1_555
Na1 O49 2.709345 1_555
Na1 O48 2.765899 1_555
Na1 O50 2.779178 1_555
Na2 O52 2.506845 1_555
Na2 O51 2.612188 1_555
Na2 O53 2.616927 1_555
Na2 O57 2.692885 1_555
Na2 O59 2.703034 1_555
Na2 O58 2.755216 1_555
In0 O2 2.039989 1_555
In0 O1 2.153080 1_545
In0 O0 2.153399 1_655
In0 O38 2.176314 1_655
In0 O37 2.177490 1_545
In0 O36 2.184426 1_645
In1 O40 2.070436 1_655
In1 O41 2.078818 1_555
In1 O4 2.151279 1_555
In1 O39 2.179839 1_665
In1 O5 2.185821 1_565
In1 O3 2.195363 1_665
In2 O6 2.133087 1_445
In2 O7 2.134656 1_555
In2 O8 2.138864 1_545
In2 O42 2.149646 1_455
In2 O43 2.154375 1_555
In2 O44 2.155490 1_445
In3 O10 2.044729 1_555
In3 O11 2.150881 1_545
In3 O9 2.159860 1_445
In3 O46 2.168244 1_455
In3 O47 2.169590 1_555
In3 O45 2.203965 1_445
In4 O14 2.131015 1_555
In4 O13 2.132602 1_555
In4 O12 2.145883 1_555
In4 O50 2.146916 1_555
In4 O48 2.147690 1_555
In4 O49 2.165980 1_555
In5 O52 2.088023 1_555
In5 O16 2.119218 1_555
In5 O15 2.123446 1_555
In5 O17 2.157586 1_555
In5 O51 2.199770 1_555
In5 O53 2.215499 1_555
In6 O54 2.080369 1_555
In6 O56 2.088196 1_555
In6 O18 2.133490 1_556
In6 O20 2.172559 1_556
In6 O19 2.180984 1_556
In6 O55 2.197719 1_555
In7 O23 2.115429 1_555
In7 O22 2.128289 1_555
In7 O21 2.130439 1_555
In7 O58 2.157675 1_555
In7 O57 2.183749 1_555
In7 O59 2.184486 1_555
In8 O26 2.064112 1_554
In8 O24 2.066911 1_554
In8 O62 2.161555 1_555
In8 O25 2.176911 1_554
In8 O61 2.201506 1_555
In8 O60 2.203615 1_555
In9 O64 2.135937 1_555
In9 O63 2.137404 1_555
In9 O65 2.142494 1_555
In9 O27 2.149036 1_555
In9 O28 2.150744 1_555
In9 O29 2.152445 1_555
In10 O68 2.027532 1_555
In10 O66 2.124571 1_555
In10 O67 2.133650 1_555
In10 O32 2.173655 1_555
In10 O30 2.177406 1_555
In10 O31 2.204246 1_555
In11 O35 2.054848 1_555
In11 O34 2.056027 1_555
In11 O33 2.173989 1_555
In11 O71 2.198932 1_555
In11 O70 2.212612 1_555
In11 O69 2.218387 1_555
O0 S0 1.485115 1_555
O1 S1 1.486590 1_555
O2 P0 1.545345 1_555
O3 S2 1.474892 1_555
O4 S3 1.472192 1_655
O5 S4 1.475640 1_555
O6 S4 1.484781 1_565
O7 S2 1.486591 1_555
O8 S3 1.484448 1_555
O9 S1 1.472678 1_555
O10 P0 1.531567 1_455
O11 S0 1.473603 1_565
O12 S5 1.479703 1_555
O13 S6 1.481018 1_555
O14 S7 1.480530 1_555
O15 S8 1.480481 1_555
O16 S9 1.479637 1_555
O17 S10 1.484647 1_555
O18 S10 1.476135 1_555
O19 S8 1.479402 1_555
O20 S9 1.478266 1_555
O21 S6 1.485147 1_555
O22 S7 1.484813 1_555
O23 S5 1.486223 1_555
O24 P1 1.531912 1_555
O25 S11 1.473880 1_555
O26 P2 1.533356 1_555
O27 S12 1.480865 1_555
O28 S13 1.479794 1_555
O29 S14 1.480780 1_555
O30 S14 1.474671 1_555
O31 S12 1.479898 1_555
O32 S13 1.475602 1_555
O33 S11 1.477986 1_555
O34 P2 1.537540 1_555
O35 P1 1.539241 1_555
O36 S14 1.474675 1_555
O37 S12 1.471257 1_555
O38 S13 1.470845 1_555
O39 S11 1.487578 1_555
O40 P2 1.552130 1_555
O41 P1 1.551359 1_555
O42 S5 1.475433 1_555
O43 S6 1.475718 1_555
O44 S7 1.475507 1_555
O45 S8 1.504140 1_555
O46 S9 1.499200 1_555
O47 S10 1.499532 1_555
O48 S4 1.504819 1_555
O49 S2 1.506423 1_555
O50 S3 1.503305 1_655
O51 S1 1.491937 1_555
O52 P0 1.558155 1_555
O53 S0 1.490300 1_555
O54 P1 1.550391 1_555
O55 S11 1.485292 1_655
O56 P2 1.549502 1_545
O57 S12 1.505296 1_545
O58 S13 1.503289 1_555
O59 S14 1.503644 1_655
O60 S10 1.469986 1_555
O61 S8 1.470222 1_455
O62 S9 1.467423 1_565
O63 S6 1.477424 1_565
O64 S7 1.477469 1_555
O65 S5 1.477643 1_455
O66 S0 1.472203 1_565
O67 S1 1.471282 1_555
O68 P0 1.531999 1_455
O69 S2 1.469169 1_555
O70 S3 1.468085 1_555
O71 S4 1.466746 1_565
