# generated using pymatgen
data_K2CrF6
_symmetry_space_group_name_H-M   'P 1'
_cell_length_a   5.79976908
_cell_length_b   5.79977284
_cell_length_c   5.61655752
_cell_angle_alpha   61.03955973
_cell_angle_beta   61.03962672
_cell_angle_gamma   57.92081356
_symmetry_Int_Tables_number   1
_chemical_formula_structural   K2CrF6
_chemical_formula_sum   'K2 Cr1 F6'
_cell_volume   133.33238885
_cell_formula_units_Z   1
loop_
 _symmetry_equiv_pos_site_id
 _symmetry_equiv_pos_as_xyz
  1  'x, y, z'
loop_
 _atom_site_type_symbol
 _atom_site_label
 _atom_site_symmetry_multiplicity
 _atom_site_fract_x
 _atom_site_fract_y
 _atom_site_fract_z
 _atom_site_occupancy
  K  K0  1  0.25000000  0.25000000  0.25000000  1
  K  K1  1  0.75000000  0.75000000  0.75000000  1
  Cr  Cr0  1  -0.00000000  0.00000000  -0.00000000  1
  F  F0  1  0.77195462  0.22804538  0.22804538  1
  F  F1  1  0.22804538  0.77195462  0.77195462  1
  F  F2  1  0.22804438  0.77195562  0.22804438  1
  F  F3  1  0.77195562  0.22804438  0.77195562  1
  F  F4  1  0.22058935  0.22058935  0.77941065  1
  F  F5  1  0.77941065  0.77941065  0.22058935  1
loop_
_geom_bond_atom_site_label_1
_geom_bond_atom_site_label_2
_geom_bond_distance
_geom_bond_site_symmetry_2
Cr0 F3 1.811358 1_454
Cr0 F2 1.811358 1_545
Cr0 F1 1.811368 1_544
Cr0 F0 1.811368 1_455
Cr0 F5 1.864703 1_445
Cr0 F4 1.864703 1_554
F0 K0 2.905123 1_655
F0 K1 2.905123 1_545
F0 K0 2.905123 1_555
F0 K1 2.905123 1_554
F1 K0 2.905123 1_556
F1 K0 2.905123 1_565
F1 K1 2.905123 1_455
F1 K1 2.905123 1_555
F2 K0 2.905126 1_565
F2 K1 2.905126 1_554
F2 K1 2.905126 1_455
F2 K0 2.905126 1_555
F3 K1 2.905126 1_555
F3 K0 2.905126 1_655
F3 K0 2.905126 1_556
F3 K1 2.905126 1_545
F4 K0 2.819262 1_556
F4 K1 2.819262 1_455
F4 K0 2.819262 1_555
F4 K1 2.819262 1_545
F5 K1 2.819262 1_555
F5 K1 2.819262 1_554
F5 K0 2.819262 1_655
F5 K0 2.819262 1_565
