# generated using pymatgen
data_NaMgF3
_symmetry_space_group_name_H-M   'P 1'
_cell_length_a   5.29698319
_cell_length_b   5.47126659
_cell_length_c   7.59868745
_cell_angle_alpha   90.00000000
_cell_angle_beta   90.00000000
_cell_angle_gamma   90.00000000
_symmetry_Int_Tables_number   1
_chemical_formula_structural   NaMgF3
_chemical_formula_sum   'Na4 Mg4 F12'
_cell_volume   220.21913510
_cell_formula_units_Z   4
loop_
 _symmetry_equiv_pos_site_id
 _symmetry_equiv_pos_as_xyz
  1  'x, y, z'
loop_
 _atom_site_type_symbol
 _atom_site_label
 _atom_site_symmetry_multiplicity
 _atom_site_fract_x
 _atom_site_fract_y
 _atom_site_fract_z
 _atom_site_occupancy
  Na  Na0  1  0.01342425  0.94744147  0.75000000  1
  Na  Na1  1  0.51342425  0.55255853  0.25000000  1
  Na  Na2  1  0.48657575  0.44744147  0.75000000  1
  Na  Na3  1  0.98657575  0.05255853  0.25000000  1
  Mg  Mg0  1  -0.00000000  0.50000000  0.50000000  1
  Mg  Mg1  1  0.50000000  -0.00000000  0.50000000  1
  Mg  Mg2  1  0.50000000  -0.00000000  -0.00000000  1
  Mg  Mg3  1  -0.00000000  0.50000000  -0.00000000  1
  F  F0  1  0.70004490  0.29693771  0.44951534  1
  F  F1  1  0.20004490  0.20306229  0.55048466  1
  F  F2  1  0.79995510  0.79693771  0.05048466  1
  F  F3  1  0.29995510  0.70306229  0.94951534  1
  F  F4  1  0.29995510  0.70306229  0.55048466  1
  F  F5  1  0.79995510  0.79693771  0.44951534  1
  F  F6  1  0.20004490  0.20306229  0.94951534  1
  F  F7  1  0.70004490  0.29693771  0.05048466  1
  F  F8  1  0.09627836  0.46836655  0.25000000  1
  F  F9  1  0.59627836  0.03163345  0.75000000  1
  F  F10  1  0.40372164  0.96836655  0.25000000  1
  F  F11  1  0.90372164  0.53163345  0.75000000  1
loop_
_geom_bond_atom_site_label_1
_geom_bond_atom_site_label_2
_geom_bond_distance
_geom_bond_site_symmetry_2
F0 Mg0 1.976352 1_655
F0 Mg1 1.977219 1_555
F0 Na1 2.287270 1_555
F0 Na3 2.527790 1_555
F0 Na2 2.677695 1_555
F1 Mg1 1.976352 1_555
F1 Mg0 1.977219 1_555
F1 Na0 2.287270 1_545
F1 Na2 2.527790 1_555
F1 Na3 2.677695 1_455
F2 Mg2 1.976352 1_565
F2 Mg3 1.977219 1_655
F2 Na3 2.287270 1_565
F2 Na1 2.527790 1_555
F2 Na0 2.677695 1_654
F3 Mg3 1.976352 1_556
F3 Mg2 1.977219 1_566
F3 Na2 2.287270 1_555
F3 Na0 2.527790 1_555
F3 Na1 2.677695 1_556
F4 Mg0 1.976352 1_555
F4 Mg1 1.977219 1_565
F4 Na2 2.287270 1_555
F4 Na0 2.527790 1_555
F4 Na1 2.677695 1_555
F5 Mg1 1.976352 1_565
F5 Mg0 1.977219 1_655
F5 Na3 2.287270 1_565
F5 Na1 2.527790 1_555
F5 Na0 2.677695 1_655
F6 Mg2 1.976352 1_556
F6 Mg3 1.977219 1_556
F6 Na0 2.287270 1_545
F6 Na2 2.527790 1_555
F6 Na3 2.677695 1_456
F7 Mg3 1.976352 1_655
F7 Mg2 1.977219 1_555
F7 Na1 2.287270 1_555
F7 Na3 2.527790 1_555
F7 Na2 2.677695 1_554
F8 Mg0 1.974536 1_555
F8 Mg3 1.974536 1_555
F8 Na1 2.257118 1_555
F8 Na3 2.348037 1_455
F9 Mg2 1.974536 1_556
F9 Mg1 1.974536 1_555
F9 Na0 2.257118 1_645
F9 Na2 2.348037 1_555
F10 Mg2 1.974536 1_565
F10 Mg1 1.974536 1_565
F10 Na3 2.257118 1_465
F10 Na1 2.348037 1_555
F11 Mg0 1.974536 1_655
F11 Mg3 1.974536 1_656
F11 Na2 2.257118 1_555
F11 Na0 2.348037 1_655
