# generated using pymatgen
data_LiV3(P3O10)2
_symmetry_space_group_name_H-M   'P 1'
_cell_length_a   8.61196398
_cell_length_b   8.61196398
_cell_length_c   12.57783100
_cell_angle_alpha   90.00000000
_cell_angle_beta   90.00000000
_cell_angle_gamma   106.71750693
_symmetry_Int_Tables_number   1
_chemical_formula_structural   LiV3(P3O10)2
_chemical_formula_sum   'Li2 V6 P12 O40'
_cell_volume   893.41936665
_cell_formula_units_Z   2
loop_
 _symmetry_equiv_pos_site_id
 _symmetry_equiv_pos_as_xyz
  1  'x, y, z'
loop_
 _atom_site_type_symbol
 _atom_site_label
 _atom_site_symmetry_multiplicity
 _atom_site_fract_x
 _atom_site_fract_y
 _atom_site_fract_z
 _atom_site_occupancy
  Li  Li0  1  0.10552200  0.10552200  0.00000000  1
  Li  Li1  1  0.60552200  0.60552200  0.50000000  1
  V  V0  1  0.38155200  0.38155200  0.00000000  1
  V  V1  1  0.82491000  0.27263800  0.28888100  1
  V  V2  1  0.77263800  0.32491000  0.78888100  1
  V  V3  1  0.32491000  0.77263800  0.21111900  1
  V  V4  1  0.27263800  0.82491000  0.71111900  1
  V  V5  1  0.88155200  0.88155200  0.50000000  1
  P  P0  1  0.40520000  0.13647100  0.29988600  1
  P  P1  1  0.13647100  0.40520000  0.70011400  1
  P  P2  1  0.36198800  0.22433200  0.78742100  1
  P  P3  1  0.22433200  0.36198800  0.21257900  1
  P  P4  1  0.37563000  0.75321400  0.94616300  1
  P  P5  1  0.25321400  0.87563000  0.44616300  1
  P  P6  1  0.75321400  0.37563000  0.05383700  1
  P  P7  1  0.87563000  0.25321400  0.55383700  1
  P  P8  1  0.63647100  0.90520000  0.79988600  1
  P  P9  1  0.90520000  0.63647100  0.20011400  1
  P  P10  1  0.86198800  0.72433200  0.71257900  1
  P  P11  1  0.72433200  0.86198800  0.28742100  1
  O  O0  1  0.01321600  0.32975700  0.78389900  1
  O  O1  1  0.32975700  0.01321600  0.21610100  1
  O  O2  1  0.33837900  0.06166700  0.73666500  1
  O  O3  1  0.06166700  0.33837900  0.26333500  1
  O  O4  1  0.06251500  0.35061200  0.58350900  1
  O  O5  1  0.35061200  0.06251500  0.41649100  1
  O  O6  1  0.27022600  0.21280800  0.89724500  1
  O  O7  1  0.21280800  0.27022600  0.10275500  1
  O  O8  1  0.28233500  0.32516000  0.70523000  1
  O  O9  1  0.32516000  0.28233500  0.29477000  1
  O  O10  1  0.21004100  0.58519700  0.69510300  1
  O  O11  1  0.08519700  0.71004100  0.19510300  1
  O  O12  1  0.71004100  0.08519700  0.80489700  1
  O  O13  1  0.58519700  0.21004100  0.30489700  1
  O  O14  1  0.82908700  0.03408400  0.30627500  1
  O  O15  1  0.53408400  0.32908700  0.80627500  1
  O  O16  1  0.32908700  0.53408400  0.19372500  1
  O  O17  1  0.03408400  0.82908700  0.69372500  1
  O  O18  1  0.86767800  0.07188200  0.56519400  1
  O  O19  1  0.57188200  0.36767800  0.06519400  1
  O  O20  1  0.36767800  0.57188200  0.93480600  1
  O  O21  1  0.07188200  0.86767800  0.43480600  1
  O  O22  1  0.75987500  0.29736500  0.63184900  1
  O  O23  1  0.79736500  0.25987500  0.13184900  1
  O  O24  1  0.25987500  0.79736500  0.86815100  1
  O  O25  1  0.29736500  0.75987500  0.36815100  1
  O  O26  1  0.30648100  0.85283500  0.55757700  1
  O  O27  1  0.85283500  0.30648100  0.44242300  1
  O  O28  1  0.35283500  0.80648100  0.05757700  1
  O  O29  1  0.80648100  0.35283500  0.94242300  1
  O  O30  1  0.82975700  0.51321600  0.28389900  1
  O  O31  1  0.51321600  0.82975700  0.71610100  1
  O  O32  1  0.56166700  0.83837900  0.23666500  1
  O  O33  1  0.83837900  0.56166700  0.76333500  1
  O  O34  1  0.85061200  0.56251500  0.08350900  1
  O  O35  1  0.56251500  0.85061200  0.91649100  1
  O  O36  1  0.77022600  0.71280800  0.60275500  1
  O  O37  1  0.71280800  0.77022600  0.39724500  1
  O  O38  1  0.82516000  0.78233500  0.20523000  1
  O  O39  1  0.78233500  0.82516000  0.79477000  1
loop_
_geom_bond_atom_site_label_1
_geom_bond_atom_site_label_2
_geom_bond_distance
_geom_bond_site_symmetry_2
Li0 O7 1.944743 1_555
Li0 O6 1.944743 1_554
Li1 O37 1.944743 1_555
Li1 O36 1.944743 1_555
O0 P1 1.504209 1_555
O0 V2 2.061182 1_455
O1 P0 1.504209 1_555
O1 V3 2.061182 1_545
O2 P2 1.499152 1_555
O2 V4 1.979129 1_545
O3 P3 1.499152 1_555
O3 V1 1.979129 1_455
O4 P1 1.614133 1_555
O4 P7 1.629882 1_455
O5 P0 1.614133 1_555
O5 P5 1.629882 1_545
O6 P2 1.580300 1_555
O6 V0 1.974805 1_556
O7 P3 1.580300 1_555
O7 V0 1.974805 1_555
O8 P1 1.598563 1_555
O8 P2 1.623556 1_555
O9 P0 1.598563 1_555
O9 P3 1.623556 1_555
O10 P1 1.497754 1_555
O10 V4 1.988137 1_555
O11 P9 1.497754 1_455
O11 V3 1.988137 1_555
O12 P8 1.497754 1_545
O12 V2 1.988137 1_555
O13 P0 1.497754 1_555
O13 V1 1.988137 1_555
O14 P11 1.515738 1_545
O14 V1 2.076610 1_555
O15 P2 1.515738 1_555
O15 V2 2.076610 1_555
O16 P3 1.515738 1_555
O16 V3 2.076610 1_555
O17 P10 1.515738 1_455
O17 V4 2.076610 1_555
O18 P7 1.549916 1_555
O18 V5 1.867095 1_545
O19 P6 1.549916 1_555
O19 V0 1.867095 1_555
O20 P4 1.549916 1_555
O20 V0 1.867095 1_556
O21 P5 1.549916 1_555
O21 V5 1.867095 1_455
O22 P7 1.522891 1_555
O22 V2 1.988582 1_555
O23 P6 1.522891 1_555
O23 V1 1.988582 1_555
O24 P4 1.522891 1_555
O24 V4 1.988582 1_555
O25 P5 1.522891 1_555
O25 V3 1.988582 1_555
O26 P5 1.504844 1_555
O26 V4 1.957572 1_555
O27 P7 1.504844 1_555
O27 V1 1.957572 1_555
O28 P4 1.504844 1_554
O28 V3 1.957572 1_555
O29 P6 1.504844 1_556
O29 V2 1.957572 1_555
O30 P9 1.504209 1_555
O30 V1 2.061182 1_555
O31 P8 1.504209 1_555
O31 V4 2.061182 1_555
O32 P11 1.499152 1_555
O32 V3 1.979129 1_555
O33 P10 1.499152 1_555
O33 V2 1.979129 1_555
O34 P9 1.614133 1_555
O34 P6 1.629882 1_555
O35 P8 1.614133 1_555
O35 P4 1.629882 1_555
O36 P10 1.580300 1_555
O36 V5 1.974805 1_555
O37 P11 1.580300 1_555
O37 V5 1.974805 1_555
O38 P9 1.598563 1_555
O38 P11 1.623556 1_555
O39 P8 1.598563 1_555
O39 P10 1.623556 1_555
