# generated using pymatgen
data_Na3Zr4SiP5O24
_symmetry_space_group_name_H-M   'P 1'
_cell_length_a   9.02448642
_cell_length_b   8.99122798
_cell_length_c   23.37840288
_cell_angle_alpha   90.01050630
_cell_angle_beta   90.02232729
_cell_angle_gamma   119.86428067
_symmetry_Int_Tables_number   1
_chemical_formula_structural   Na3Zr4SiP5O24
_chemical_formula_sum   'Na9 Zr12 Si3 P15 O72'
_cell_volume   1645.05044083
_cell_formula_units_Z   3
loop_
 _symmetry_equiv_pos_site_id
 _symmetry_equiv_pos_as_xyz
  1  'x, y, z'
loop_
 _atom_site_type_symbol
 _atom_site_label
 _atom_site_symmetry_multiplicity
 _atom_site_fract_x
 _atom_site_fract_y
 _atom_site_fract_z
 _atom_site_occupancy
  Na  Na0  1  0.36648776  0.00052678  0.74974807  1
  Na  Na1  1  0.66535270  0.96904393  0.58422875  1
  Na  Na2  1  0.66827410  0.69709463  0.08289479  1
  Na  Na3  1  0.00709992  0.00048561  0.49974628  1
  Na  Na4  1  0.00504915  0.00309343  0.99937772  1
  Na  Na5  1  0.67183821  0.33681750  0.83383164  1
  Na  Na6  1  0.66667056  0.33330744  0.33332067  1
  Na  Na7  1  0.32660512  0.66601324  0.16712301  1
  Na  Na8  1  0.33037907  0.66032297  0.66663610  1
  Zr  Zr0  1  0.00012255  0.00031714  0.35292280  1
  Zr  Zr1  1  0.99427842  0.00045505  0.85327640  1
  Zr  Zr2  1  0.00367116  0.99944425  0.64804675  1
  Zr  Zr3  1  0.00691167  0.00265654  0.14800612  1
  Zr  Zr4  1  0.67010943  0.33259694  0.68536476  1
  Zr  Zr5  1  0.67256285  0.33582310  0.18650372  1
  Zr  Zr6  1  0.66968763  0.33649530  0.98051965  1
  Zr  Zr7  1  0.66057877  0.33115177  0.47998582  1
  Zr  Zr8  1  0.32333236  0.66588564  0.01862977  1
  Zr  Zr9  1  0.32709221  0.66487983  0.51856050  1
  Zr  Zr10  1  0.33319561  0.66636045  0.31376522  1
  Zr  Zr11  1  0.33752634  0.66436131  0.81464544  1
  Si  Si0  1  0.70928330  0.99952473  0.74936711  1
  Si  Si1  1  0.37232796  0.04211501  0.58321390  1
  Si  Si2  1  0.95952473  0.62419583  0.08360273  1
  P  P0  1  0.29154510  0.00051145  0.25067661  1
  P  P1  1  0.70924498  0.71013579  0.24993423  1
  P  P2  1  0.00040938  0.29043432  0.25043565  1
  P  P3  1  0.28946136  0.29111082  0.75038808  1
  P  P4  1  0.99841833  0.70831974  0.75101423  1
  P  P5  1  0.95806454  0.33510961  0.58271778  1
  P  P6  1  0.66625179  0.62299408  0.58296137  1
  P  P7  1  0.66674251  0.04359476  0.08337596  1
  P  P8  1  0.37677530  0.33208862  0.08316111  1
  P  P9  1  0.62427835  0.66638890  0.91779126  1
  P  P10  1  0.04223391  0.37568394  0.91633294  1
  P  P11  1  0.33323158  0.95902234  0.91590363  1
  P  P12  1  0.62414978  0.95665406  0.41669940  1
  P  P13  1  0.33280552  0.37623191  0.41623132  1
  P  P14  1  0.04191713  0.66624866  0.41598636  1
  O  O0  1  0.20393333  0.02663409  0.30343583  1
  O  O1  1  0.82294287  0.79621508  0.30284423  1
  O  O2  1  0.97338766  0.17748631  0.30357153  1
  O  O3  1  0.20882846  0.17445019  0.80317927  1
  O  O4  1  0.97390604  0.79551504  0.80394129  1
  O  O5  1  0.82904384  0.02964762  0.80533404  1
  O  O6  1  0.79235170  0.96917684  0.69157067  1
  O  O7  1  0.17927497  0.20729418  0.69669940  1
  O  O8  1  0.03454314  0.82403299  0.69743554  1
  O  O9  1  0.79043650  0.81893911  0.19524962  1
  O  O10  1  0.02798386  0.20699298  0.19679281  1
  O  O11  1  0.17875782  0.97195000  0.19703129  1
  O  O12  1  0.87604426  0.36398530  0.63664224  1
  O  O13  1  0.49400099  0.12523619  0.64032863  1
  O  O14  1  0.63878986  0.51316310  0.63670314  1
  O  O15  1  0.86668687  0.50473444  0.13934563  1
  O  O16  1  0.63634281  0.12522199  0.13679339  1
  O  O17  1  0.49089407  0.36492178  0.13645884  1
  O  O18  1  0.45929373  0.30354688  0.02950930  1
  O  O19  1  0.83387871  0.53705053  0.02818763  1
  O  O20  1  0.69417957  0.15469385  0.02986884  1
  O  O21  1  0.46809743  0.16214309  0.52776605  1
  O  O22  1  0.69611202  0.54037434  0.52971812  1
  O  O23  1  0.84234409  0.30207277  0.53005658  1
  O  O24  1  0.54330648  0.69426752  0.97196722  1
  O  O25  1  0.15462494  0.46030137  0.96974976  1
  O  O26  1  0.30661633  0.84513139  0.96905456  1
  O  O27  1  0.54293735  0.84778023  0.47136752  1
  O  O28  1  0.30530002  0.45961949  0.46988571  1
  O  O29  1  0.15457879  0.69465599  0.46964233  1
  O  O30  1  0.12943597  0.64006149  0.36323052  1
  O  O31  1  0.51040387  0.87044869  0.36382865  1
  O  O32  1  0.35995247  0.48916813  0.36310012  1
  O  O33  1  0.12679589  0.48796231  0.86325454  1
  O  O34  1  0.35992959  0.87471752  0.86172911  1
  O  O35  1  0.51175127  0.63945291  0.86429363  1
  O  O36  1  0.02448052  0.82842347  0.40903247  1
  O  O37  1  0.80363275  0.97558260  0.40910827  1
  O  O38  1  0.17282836  0.19631965  0.40895235  1
  O  O39  1  0.02594290  0.19663876  0.91034987  1
  O  O40  1  0.17227664  0.97614010  0.90961068  1
  O  O41  1  0.80363338  0.82584517  0.90997135  1
  O  O42  1  0.96934686  0.16918350  0.58995488  1
  O  O43  1  0.18397671  0.02100664  0.58956502  1
  O  O44  1  0.82331031  0.80662667  0.58946614  1
  O  O45  1  0.96878759  0.81092861  0.09076424  1
  O  O46  1  0.82468462  0.01876761  0.09074345  1
  O  O47  1  0.19657719  0.17504216  0.09048462  1
  O  O48  1  0.68117806  0.16674500  0.74422546  1
  O  O49  1  0.46753822  0.30590429  0.74304131  1
  O  O50  1  0.83958286  0.53091875  0.74339093  1
  O  O51  1  0.68879019  0.52928576  0.24326605  1
  O  O52  1  0.83889742  0.30795538  0.24387314  1
  O  O53  1  0.46946794  0.16019793  0.24300215  1
  O  O54  1  0.64115499  0.50364730  0.92294255  1
  O  O55  1  0.86282727  0.35595598  0.92369887  1
  O  O56  1  0.49441706  0.13671083  0.92352690  1
  O  O57  1  0.64458762  0.13742187  0.42339407  1
  O  O58  1  0.49434282  0.35866225  0.42275528  1
  O  O59  1  0.86402788  0.50655238  0.42363403  1
  O  O60  1  0.36567752  0.49870270  0.07580114  1
  O  O61  1  0.14850239  0.64518734  0.07685383  1
  O  O62  1  0.51110601  0.85903387  0.07595905  1
  O  O63  1  0.36506820  0.85586392  0.57596173  1
  O  O64  1  0.50844788  0.64810602  0.57573542  1
  O  O65  1  0.13767078  0.49285587  0.57620211  1
  O  O66  1  0.30885032  0.83824187  0.25761518  1
  O  O67  1  0.52968366  0.69105469  0.25754819  1
  O  O68  1  0.16047216  0.47029777  0.25769575  1
  O  O69  1  0.30821835  0.47011231  0.75715911  1
  O  O70  1  0.16344072  0.69552779  0.75762080  1
  O  O71  1  0.51402715  0.83467604  0.75726437  1
loop_
_geom_bond_atom_site_label_1
_geom_bond_atom_site_label_2
_geom_bond_distance
_geom_bond_site_symmetry_2
Na0 O49 2.429366 1_555
Na0 O70 2.430620 1_545
Na0 O71 2.450431 1_545
Na0 O48 2.467562 1_555
Na0 O13 2.800617 1_555
Na0 O34 2.840986 1_545
Na0 O3 2.871687 1_555
Na0 O8 2.872268 1_545
Na1 O63 2.381115 1_555
Na1 O42 2.421875 1_565
Na1 O44 2.500527 1_555
Na1 O64 2.510303 1_555
Na1 O6 2.758160 1_555
Na1 O27 2.857988 1_555
Na1 O13 2.871793 1_565
Na1 O23 2.891554 1_565
Na2 O45 2.381482 1_555
Na2 O60 2.411423 1_555
Na2 O62 2.492926 1_555
Na2 O46 2.514955 1_565
Na2 O24 2.822571 1_554
Na2 O19 2.842979 1_555
Na2 O9 2.847612 1_555
Na2 O17 2.879625 1_555
Na3 O43 2.587498 1_555
Na3 O36 2.675114 1_545
Na3 O38 2.687738 1_555
Na3 O44 2.704364 1_445
Na3 O42 2.716322 1_455
Na3 O37 2.738449 1_445
Na4 O39 2.659073 1_555
Na4 O45 2.663774 1_446
Na4 O40 2.665880 1_545
Na4 O47 2.692399 1_556
Na4 O41 2.706200 1_445
Na4 O46 2.731802 1_456
Na5 O48 2.619380 1_555
Na5 O54 2.660762 1_555
Na5 O55 2.667584 1_555
Na5 O50 2.679677 1_555
Na5 O56 2.707942 1_555
Na5 O49 2.732769 1_555
Na6 O52 2.682488 1_555
Na6 O58 2.682828 1_555
Na6 O57 2.688519 1_555
Na6 O51 2.688607 1_555
Na6 O53 2.699160 1_555
Na6 O59 2.699887 1_555
Na7 O61 2.601824 1_555
Na7 O66 2.673095 1_555
Na7 O68 2.684097 1_555
Na7 O62 2.729999 1_555
Na7 O67 2.732079 1_555
Na7 O60 2.733689 1_555
Na8 O71 2.664947 1_555
Na8 O69 2.665439 1_555
Na8 O63 2.671423 1_555
Na8 O65 2.673881 1_555
Na8 O64 2.699801 1_555
Na8 O70 2.715042 1_555
O0 P0 1.545067 1_555
O0 Zr0 2.084653 1_555
O1 P1 1.545852 1_555
O1 Zr0 2.090583 1_665
O2 P2 1.545315 1_655
O2 Zr0 2.076083 1_655
O3 P3 1.547245 1_555
O3 Zr1 2.133972 1_455
O4 P4 1.538567 1_555
O4 Zr1 2.102654 1_565
O5 Si0 1.631147 1_545
O5 Zr1 1.984254 1_555
O6 Si0 1.632944 1_555
O6 Zr2 2.056940 1_655
O7 P3 1.544187 1_555
O7 Zr2 2.084707 1_545
O8 P4 1.555859 1_455
O8 Zr2 2.082367 1_555
O9 P1 1.554231 1_555
O9 Zr3 2.133898 1_665
O10 P2 1.543806 1_555
O10 Zr3 2.088919 1_555
O11 P0 1.553514 1_565
O11 Zr3 2.054272 1_565
O12 P5 1.548084 1_555
O12 Zr4 2.076146 1_555
O13 Si1 1.651775 1_555
O13 Zr4 2.038994 1_555
O14 P6 1.540164 1_555
O14 Zr4 2.113598 1_555
O15 Si2 1.630666 1_555
O15 Zr5 1.985816 1_555
O16 P7 1.540748 1_555
O16 Zr5 2.103688 1_555
O17 P8 1.548034 1_555
O17 Zr5 2.133291 1_555
O18 P8 1.544214 1_555
O18 Zr6 2.108594 1_554
O19 Si2 1.640637 1_555
O19 Zr6 2.006521 1_554
O20 P7 1.542174 1_555
O20 Zr6 2.100517 1_554
O21 Si1 1.632323 1_555
O21 Zr7 1.986859 1_555
O22 P6 1.540490 1_555
O22 Zr7 2.095604 1_555
O23 P5 1.544169 1_555
O23 Zr7 2.134255 1_555
O24 P9 1.544008 1_555
O24 Zr8 2.166401 1_556
O25 P10 1.548304 1_555
O25 Zr8 2.058103 1_556
O26 P11 1.551152 1_555
O26 Zr8 2.050870 1_556
O27 P12 1.554194 1_555
O27 Zr9 2.127935 1_555
O28 P13 1.543501 1_555
O28 Zr9 2.092177 1_555
O29 P14 1.553290 1_555
O29 Zr9 2.053570 1_555
O30 P14 1.544747 1_555
O30 Zr10 2.084043 1_555
O31 P12 1.545491 1_555
O31 Zr10 2.090408 1_555
O32 P13 1.544975 1_555
O32 Zr10 2.076141 1_555
O33 P10 1.541190 1_555
O33 Zr11 2.102863 1_555
O34 P11 1.555134 1_555
O34 Zr11 2.109027 1_555
O35 P9 1.551800 1_555
O35 Zr11 2.053977 1_555
O36 P14 1.551118 1_555
O36 Zr0 2.120509 1_565
O37 P12 1.552329 1_555
O37 Zr0 2.127982 1_665
O38 P13 1.550450 1_555
O38 Zr0 2.124341 1_555
O39 P10 1.548208 1_555
O39 Zr1 2.114306 1_455
O40 P11 1.541971 1_555
O40 Zr1 2.170445 1_465
O41 P9 1.548560 1_555
O41 Zr1 2.119939 1_565
O42 P5 1.554365 1_555
O42 Zr2 2.177334 1_645
O43 Si1 1.620564 1_555
O43 Zr2 2.059655 1_545
O44 P6 1.557977 1_555
O44 Zr2 2.172010 1_655
O45 Si2 1.647431 1_555
O45 Zr3 2.071007 1_665
O46 P7 1.558140 1_555
O46 Zr3 2.180166 1_655
O47 P8 1.543102 1_555
O47 Zr3 2.121540 1_555
O48 Si0 1.648988 1_545
O48 Zr4 2.067909 1_555
O49 P3 1.554720 1_555
O49 Zr4 2.186960 1_555
O50 P4 1.534059 1_555
O50 Zr4 2.154185 1_555
O51 P1 1.550295 1_555
O51 Zr5 2.133886 1_555
O52 P2 1.549630 1_655
O52 Zr5 2.118489 1_555
O53 P0 1.541496 1_555
O53 Zr5 2.172035 1_555
O54 P9 1.549446 1_555
O54 Zr6 2.126679 1_555
O55 P10 1.548119 1_655
O55 Zr6 2.128701 1_555
O56 P11 1.544475 1_545
O56 Zr6 2.161422 1_555
O57 P12 1.549688 1_545
O57 Zr7 2.134009 1_555
O58 P13 1.550017 1_555
O58 Zr7 2.114240 1_555
O59 P14 1.541284 1_655
O59 Zr7 2.170877 1_555
O60 P8 1.559915 1_555
O60 Zr8 2.182757 1_555
O61 Si2 1.627469 1_455
O61 Zr8 2.021412 1_555
O62 P7 1.560462 1_565
O62 Zr8 2.179538 1_555
O63 Si1 1.651676 1_565
O63 Zr9 2.068744 1_555
O64 P6 1.558084 1_555
O64 Zr9 2.175359 1_555
O65 P5 1.540402 1_455
O65 Zr9 2.121279 1_555
O66 P0 1.551250 1_565
O66 Zr10 2.120954 1_555
O67 P1 1.552527 1_555
O67 Zr10 2.128538 1_555
O68 P2 1.550466 1_555
O68 Zr10 2.125218 1_555
O69 P3 1.540321 1_555
O69 Zr11 2.113134 1_555
O70 P4 1.557349 1_455
O70 Zr11 2.181946 1_555
O71 Si0 1.653861 1_555
O71 Zr11 2.062750 1_555
