# generated using pymatgen
data_CBrN
_symmetry_space_group_name_H-M   'P 1'
_cell_length_a   4.41945000
_cell_length_b   5.75100400
_cell_length_c   6.38990000
_cell_angle_alpha   90.00000000
_cell_angle_beta   90.00000000
_cell_angle_gamma   90.00000000
_symmetry_Int_Tables_number   1
_chemical_formula_structural   CBrN
_chemical_formula_sum   'C2 Br2 N2'
_cell_volume   162.40745324
_cell_formula_units_Z   2
loop_
 _symmetry_equiv_pos_site_id
 _symmetry_equiv_pos_as_xyz
  1  'x, y, z'
loop_
 _atom_site_type_symbol
 _atom_site_label
 _atom_site_symmetry_multiplicity
 _atom_site_fract_x
 _atom_site_fract_y
 _atom_site_fract_z
 _atom_site_occupancy
  C  C0  1  0.50000000  0.45058600  0.50000000  1
  C  C1  1  0.00000000  0.54941400  0.00000000  1
  Br  Br0  1  0.50000000  0.13861000  0.50000000  1
  Br  Br1  1  0.00000000  0.86139000  0.00000000  1
  N  N0  1  0.00000000  0.34590600  0.00000000  1
  N  N1  1  0.50000000  0.65409400  0.50000000  1
loop_
_geom_bond_atom_site_label_1
_geom_bond_atom_site_label_2
_geom_bond_distance
_geom_bond_site_symmetry_2
C0 N1 1.170375 1_555
C1 N0 1.170375 1_555
Br0 C0 1.794175 1_555
Br1 C1 1.794175 1_555
