# generated using pymatgen
data_Na4ScGaSi(PO6)2
_symmetry_space_group_name_H-M   'P 1'
_cell_length_a   9.02279081
_cell_length_b   9.01316128
_cell_length_c   22.17776769
_cell_angle_alpha   90.00271183
_cell_angle_beta   89.82173228
_cell_angle_gamma   120.01605493
_symmetry_Int_Tables_number   1
_chemical_formula_structural   Na4ScGaSi(PO6)2
_chemical_formula_sum   'Na24 Sc6 Ga6 Si6 P12 O72'
_cell_volume   1561.68503184
_cell_formula_units_Z   6
loop_
 _symmetry_equiv_pos_site_id
 _symmetry_equiv_pos_as_xyz
  1  'x, y, z'
loop_
 _atom_site_type_symbol
 _atom_site_label
 _atom_site_symmetry_multiplicity
 _atom_site_fract_x
 _atom_site_fract_y
 _atom_site_fract_z
 _atom_site_occupancy
  Na  Na0  1  0.63527326  0.00135637  0.25183216  1
  Na  Na1  1  0.36407716  0.36688125  0.24975802  1
  Na  Na2  1  0.00180839  0.62838590  0.25063285  1
  Na  Na3  1  0.63506910  0.63671499  0.74796401  1
  Na  Na4  1  0.99630732  0.36241629  0.75024209  1
  Na  Na5  1  0.37265101  0.00218680  0.74894628  1
  Na  Na6  1  0.29927425  0.32980497  0.58272051  1
  Na  Na7  1  0.03747522  0.70566263  0.58254621  1
  Na  Na8  1  0.66529437  0.96618107  0.58609245  1
  Na  Na9  1  0.29725691  0.96524259  0.08280698  1
  Na  Na10  1  0.67113707  0.69855480  0.08325928  1
  Na  Na11  1  0.03178905  0.33508562  0.08662134  1
  Na  Na12  1  0.97230541  0.67086893  0.91902783  1
  Na  Na13  1  0.69444819  0.03193118  0.91418503  1
  Na  Na14  1  0.33331333  0.29727921  0.91673842  1
  Na  Na15  1  0.96620477  0.30192898  0.41422895  1
  Na  Na16  1  0.33062096  0.03098463  0.41864282  1
  Na  Na17  1  0.70200293  0.66666946  0.41664571  1
  Na  Na18  1  0.00296063  0.99813664  0.49977163  1
  Na  Na19  1  0.00272434  0.99680647  0.00112638  1
  Na  Na20  1  0.66420662  0.32685591  0.83226800  1
  Na  Na21  1  0.67169609  0.33434190  0.33479589  1
  Na  Na22  1  0.32745073  0.66285076  0.16794121  1
  Na  Na23  1  0.33767655  0.67292279  0.66628383  1
  Sc  Sc0  1  0.99888129  0.00051749  0.84914567  1
  Sc  Sc1  1  0.67524372  0.33576927  0.18587311  1
  Sc  Sc2  1  0.66840506  0.33614294  0.98430014  1
  Sc  Sc3  1  0.32778042  0.66956395  0.01780893  1
  Sc  Sc4  1  0.32946925  0.67335188  0.51709233  1
  Sc  Sc5  1  0.33989487  0.67640682  0.81444291  1
  Ga  Ga0  1  0.99892692  0.99731921  0.34949873  1
  Ga  Ga1  1  0.00236143  0.99935852  0.64974715  1
  Ga  Ga2  1  0.00172229  0.99990225  0.15179229  1
  Ga  Ga3  1  0.66491778  0.32385822  0.68252896  1
  Ga  Ga4  1  0.66676537  0.33520304  0.48434884  1
  Ga  Ga5  1  0.31999413  0.65595604  0.31753312  1
  Si  Si0  1  0.00449366  0.28830936  0.25162288  1
  Si  Si1  1  0.71071796  0.00534575  0.74642675  1
  Si  Si2  1  0.37466252  0.04648342  0.58399428  1
  Si  Si3  1  0.96440016  0.63738326  0.08516321  1
  Si  Si4  1  0.33350946  0.96671075  0.91652585  1
  Si  Si5  1  0.03327217  0.66671447  0.41551441  1
  P  P0  1  0.28828806  0.99663082  0.25117272  1
  P  P1  1  0.70677326  0.71240984  0.25136486  1
  P  P2  1  0.29547151  0.29254946  0.74744604  1
  P  P3  1  0.99453276  0.70299337  0.74723803  1
  P  P4  1  0.95442034  0.33033929  0.58376766  1
  P  P5  1  0.66960604  0.62201730  0.58454205  1
  P  P6  1  0.67064858  0.03723623  0.08462153  1
  P  P7  1  0.36855406  0.33001075  0.08503830  1
  P  P8  1  0.62730856  0.66591351  0.91678175  1
  P  P9  1  0.03958691  0.37201513  0.91630460  1
  P  P10  1  0.62660931  0.95903039  0.41475256  1
  P  P11  1  0.33392594  0.37290539  0.41575551  1
  O  O0  1  0.20661600  0.02956077  0.30748873  1
  O  O1  1  0.82330533  0.79056877  0.30730209  1
  O  O2  1  0.96757389  0.16566790  0.31069974  1
  O  O3  1  0.21741412  0.18096344  0.80433424  1
  O  O4  1  0.96462627  0.78245977  0.80440277  1
  O  O5  1  0.82468973  0.03929077  0.80728696  1
  O  O6  1  0.80115164  0.96768905  0.68850583  1
  O  O7  1  0.17913039  0.20863290  0.69170779  1
  O  O8  1  0.03288948  0.82212469  0.69167893  1
  O  O9  1  0.78771122  0.82400594  0.19414583  1
  O  O10  1  0.03849283  0.20399396  0.19099675  1
  O  O11  1  0.17573578  0.96222420  0.19427286  1
  O  O12  1  0.87671521  0.36869462  0.64012302  1
  O  O13  1  0.49575077  0.12925397  0.64312091  1
  O  O14  1  0.63919944  0.50841423  0.64107547  1
  O  O15  1  0.87609451  0.51188884  0.14316280  1
  O  O16  1  0.63437811  0.11782742  0.14013728  1
  O  O17  1  0.48192806  0.35956835  0.14072520  1
  O  O18  1  0.44970897  0.29893295  0.02809981  1
  O  O19  1  0.84533904  0.55441750  0.02522713  1
  O  O20  1  0.70048377  0.14963319  0.02802010  1
  O  O21  1  0.46000616  0.16729367  0.52366449  1
  O  O22  1  0.70243617  0.54304748  0.52714742  1
  O  O23  1  0.84166684  0.29887573  0.52700027  1
  O  O24  1  0.54556176  0.69444196  0.97307283  1
  O  O25  1  0.15112668  0.45227712  0.97254216  1
  O  O26  1  0.29948368  0.84576382  0.97560482  1
  O  O27  1  0.54755300  0.84644109  0.47173899  1
  O  O28  1  0.30220995  0.45373934  0.47229779  1
  O  O29  1  0.15483654  0.70669338  0.47480919  1
  O  O30  1  0.11956137  0.62637782  0.35694817  1
  O  O31  1  0.50982095  0.87396482  0.35892209  1
  O  O32  1  0.36969221  0.49045860  0.35948937  1
  O  O33  1  0.12220003  0.48322774  0.85969902  1
  O  O34  1  0.36724158  0.87889922  0.85722127  1
  O  O35  1  0.51483637  0.63452689  0.86028198  1
  O  O36  1  0.01568142  0.84056865  0.40825978  1
  O  O37  1  0.80776528  0.97817981  0.40996035  1
  O  O38  1  0.17106294  0.19240649  0.40984002  1
  O  O39  1  0.01943550  0.19126690  0.91198820  1
  O  O40  1  0.16115751  0.98295289  0.91202162  1
  O  O41  1  0.80654206  0.82826744  0.91119898  1
  O  O42  1  0.97183685  0.16737027  0.58895587  1
  O  O43  1  0.18065971  0.02523443  0.59002771  1
  O  O44  1  0.83178536  0.80392696  0.58870253  1
  O  O45  1  0.98137212  0.82790150  0.09223177  1
  O  O46  1  0.83461735  0.02309140  0.09025262  1
  O  O47  1  0.18822401  0.16730945  0.08950954  1
  O  O48  1  0.69249418  0.17921247  0.74264501  1
  O  O49  1  0.47785230  0.31553423  0.74229751  1
  O  O50  1  0.83074939  0.52445136  0.74117464  1
  O  O51  1  0.68356350  0.52941429  0.24606103  1
  O  O52  1  0.83245748  0.30837753  0.24783111  1
  O  O53  1  0.46756028  0.15996737  0.24569606  1
  O  O54  1  0.64699194  0.50479963  0.92082075  1
  O  O55  1  0.86029774  0.35545841  0.92177488  1
  O  O56  1  0.50614427  0.15558950  0.92097356  1
  O  O57  1  0.64324521  0.13942719  0.42088725  1
  O  O58  1  0.49678131  0.35509223  0.42061448  1
  O  O59  1  0.84240744  0.49165285  0.42375753  1
  O  O60  1  0.35275023  0.49257359  0.07900376  1
  O  O61  1  0.15252853  0.65119274  0.08112103  1
  O  O62  1  0.51165148  0.85603420  0.07904758  1
  O  O63  1  0.35561388  0.85474903  0.57979034  1
  O  O64  1  0.50691897  0.63916735  0.57915982  1
  O  O65  1  0.13699511  0.48998113  0.57843820  1
  O  O66  1  0.31109682  0.83644743  0.25655669  1
  O  O67  1  0.52755466  0.69684804  0.25754065  1
  O  O68  1  0.17847376  0.48185456  0.25574168  1
  O  O69  1  0.30993781  0.47101766  0.75294829  1
  O  O70  1  0.15440734  0.68092504  0.75263611  1
  O  O71  1  0.52005096  0.83151581  0.75035589  1
loop_
_geom_bond_atom_site_label_1
_geom_bond_atom_site_label_2
_geom_bond_distance
_geom_bond_site_symmetry_2
Na0 O67 2.413265 1_545
Na0 O52 2.429846 1_555
Na0 O66 2.534593 1_545
Na0 O53 2.552995 1_555
Na0 O31 2.631263 1_545
Na0 O16 2.692058 1_555
Na0 O9 2.876141 1_545
Na0 O2 2.910167 1_555
Na1 O68 2.372933 1_555
Na1 O53 2.469732 1_555
Na1 O51 2.497211 1_555
Na1 O67 2.581287 1_555
Na1 O17 2.652618 1_555
Na1 O32 2.666386 1_555
Na1 O10 2.862225 1_555
Na1 O0 2.927248 1_555
Na2 O66 2.467412 1_555
Na2 O52 2.499801 1_455
Na2 O68 2.530887 1_555
Na2 O51 2.547622 1_455
Na2 O30 2.592947 1_555
Na2 O15 2.625821 1_455
Na2 O11 2.888372 1_555
Na2 O1 2.941610 1_455
Na3 O50 2.439159 1_555
Na3 O71 2.446465 1_555
Na3 O49 2.510148 1_555
Na3 O69 2.542296 1_555
Na3 O14 2.645836 1_555
Na3 O35 2.709969 1_555
Na3 O4 2.872141 1_555
Na3 O6 2.898113 1_555
Na4 O48 2.396580 1_555
Na4 O70 2.486435 1_655
Na4 O69 2.489857 1_655
Na4 O50 2.566970 1_555
Na4 O33 2.673612 1_655
Na4 O12 2.685029 1_555
Na4 O5 2.820729 1_555
Na4 O7 2.932842 1_655
Na5 O71 2.486604 1_545
Na5 O49 2.493230 1_555
Na5 O48 2.506854 1_555
Na5 O70 2.561852 1_545
Na5 O13 2.600951 1_555
Na5 O34 2.636032 1_545
Na5 O3 2.883467 1_555
Na5 O8 2.948087 1_545
Na6 O43 2.401472 1_555
Na6 O64 2.462457 1_555
Na6 O65 2.520508 1_555
Na6 O42 2.561451 1_455
Na6 O7 2.647584 1_555
Na6 O28 2.686259 1_555
Na6 O21 2.842069 1_555
Na6 O14 2.959399 1_555
Na7 O44 2.427001 1_455
Na7 O63 2.487765 1_555
Na7 O43 2.504259 1_565
Na7 O65 2.517845 1_555
Na7 O29 2.608620 1_555
Na7 O8 2.646527 1_555
Na7 O22 2.895901 1_455
Na7 O12 2.922340 1_455
Na8 O42 2.434227 1_565
Na8 O63 2.455692 1_555
Na8 O64 2.557424 1_555
Na8 O44 2.568494 1_555
Na8 O6 2.581135 1_555
Na8 O27 2.755829 1_555
Na8 O13 2.887459 1_565
Na8 O23 2.907729 1_565
Na9 O61 2.453777 1_555
Na9 O47 2.469528 1_565
Na9 O45 2.483125 1_455
Na9 O62 2.573300 1_555
Na9 O26 2.614137 1_554
Na9 O11 2.695805 1_555
Na9 O18 2.874148 1_565
Na9 O16 2.932400 1_565
Na10 O45 2.443908 1_555
Na10 O62 2.477593 1_555
Na10 O60 2.524679 1_555
Na10 O46 2.537845 1_565
Na10 O24 2.689232 1_554
Na10 O9 2.694166 1_555
Na10 O19 2.800875 1_555
Na10 O17 2.939747 1_555
Na11 O46 2.464358 1_455
Na11 O61 2.492597 1_555
Na11 O60 2.512827 1_555
Na11 O47 2.533604 1_555
Na11 O10 2.613564 1_555
Na11 O25 2.742539 1_554
Na11 O15 2.883378 1_455
Na11 O20 2.905827 1_455
Na12 O40 2.458229 1_655
Na12 O55 2.496405 1_555
Na12 O41 2.530649 1_555
Na12 O54 2.541906 1_555
Na12 O19 2.596488 1_556
Na12 O4 2.747705 1_555
Na12 O26 2.853256 1_655
Na12 O33 2.949223 1_655
Na13 O56 2.458567 1_555
Na13 O41 2.500799 1_545
Na13 O55 2.531110 1_555
Na13 O39 2.539509 1_655
Na13 O5 2.628793 1_555
Na13 O20 2.728525 1_556
Na13 O34 2.857198 1_545
Na13 O24 2.943510 1_545
Na14 O40 2.459315 1_545
Na14 O56 2.462701 1_555
Na14 O54 2.494445 1_555
Na14 O39 2.497821 1_555
Na14 O18 2.683896 1_556
Na14 O3 2.706693 1_555
Na14 O25 2.910373 1_555
Na14 O35 2.914875 1_555
Na15 O59 2.475072 1_555
Na15 O38 2.494969 1_655
Na15 O57 2.526988 1_555
Na15 O37 2.528770 1_545
Na15 O2 2.606733 1_555
Na15 O23 2.733144 1_555
Na15 O30 2.832156 1_655
Na15 O28 2.931866 1_655
Na16 O57 2.481312 1_555
Na16 O36 2.489605 1_545
Na16 O38 2.514937 1_555
Na16 O58 2.530194 1_555
Na16 O21 2.622761 1_555
Na16 O0 2.707728 1_555
Na16 O29 2.821422 1_545
Na16 O31 2.940638 1_545
Na17 O36 2.461733 1_655
Na17 O59 2.473608 1_555
Na17 O58 2.473743 1_555
Na17 O37 2.476755 1_555
Na17 O1 2.662047 1_555
Na17 O22 2.692959 1_555
Na17 O27 2.882478 1_555
Na17 O32 2.894573 1_555
Na18 O43 2.503041 1_565
Na18 O36 2.512061 1_555
Na18 O44 2.572144 1_455
Na18 O38 2.582412 1_565
Na18 O42 2.596618 1_465
Na18 O37 2.608902 1_455
Na19 O40 2.474917 1_554
Na19 O45 2.478231 1_455
Na19 O47 2.540064 1_565
Na19 O46 2.569949 1_465
Na19 O39 2.595544 1_564
Na19 O41 2.598059 1_454
Na20 O56 2.463189 1_555
Na20 O48 2.474491 1_555
Na20 O49 2.582293 1_555
Na20 O54 2.588506 1_555
Na20 O55 2.588973 1_555
Na20 O50 2.610594 1_555
Na21 O59 2.471663 1_555
Na21 O52 2.490131 1_555
Na21 O57 2.518687 1_555
Na21 O58 2.534711 1_555
Na21 O51 2.605043 1_555
Na21 O53 2.625546 1_555
Na22 O68 2.459656 1_555
Na22 O61 2.462207 1_555
Na22 O66 2.561482 1_555
Na22 O60 2.577874 1_555
Na22 O62 2.601026 1_555
Na22 O67 2.602132 1_555
Na23 O71 2.427556 1_555
Na23 O63 2.474787 1_555
Na23 O70 2.550845 1_555
Na23 O64 2.569878 1_555
Na23 O69 2.571023 1_555
Na23 O65 2.612966 1_555
Ga0 O2 1.885179 1_565
Ga0 O0 1.976982 1_665
Ga0 O1 1.978391 1_555
Ga0 O36 1.983001 1_655
Ga0 O37 2.119127 1_555
Ga0 O38 2.139007 1_665
Ga1 O6 1.894241 1_455
Ga1 O8 1.983545 1_555
Ga1 O7 1.991704 1_565
Ga1 O43 2.002000 1_565
Ga1 O44 2.145869 1_455
Ga1 O42 2.146269 1_465
Ga2 O10 1.908113 1_565
Ga2 O45 1.974438 1_455
Ga2 O11 2.002696 1_555
Ga2 O9 2.012570 1_455
Ga2 O47 2.112293 1_565
Ga2 O46 2.123166 1_465
Ga3 O13 1.870763 1_555
Ga3 O48 1.966185 1_555
Ga3 O12 1.978872 1_555
Ga3 O14 2.013384 1_555
Ga3 O49 2.114452 1_555
Ga3 O50 2.122402 1_555
Ga4 O21 1.922555 1_555
Ga4 O22 1.977983 1_555
Ga4 O23 2.004653 1_555
Ga4 O59 2.014153 1_555
Ga4 O58 2.161249 1_555
Ga4 O57 2.183244 1_555
Ga5 O30 1.900935 1_555
Ga5 O32 1.990946 1_555
Ga5 O68 1.994208 1_555
Ga5 O31 2.068730 1_555
Ga5 O66 2.147844 1_555
Ga5 O67 2.169636 1_555
O0 P0 1.550516 1_545
O1 P1 1.551699 1_555
O2 Si0 1.636604 1_655
O3 P2 1.544418 1_555
O3 Sc0 2.073703 1_455
O4 P3 1.544102 1_555
O4 Sc0 2.082526 1_565
O5 Si1 1.633011 1_555
O5 Sc0 2.003195 1_555
O6 Si1 1.643653 1_565
O7 P2 1.554250 1_555
O8 P3 1.554560 1_455
O9 P1 1.553965 1_555
O10 Si0 1.646216 1_555
O11 P0 1.553306 1_555
O12 P4 1.552472 1_555
O13 Si2 1.631895 1_555
O14 P5 1.553252 1_555
O15 Si3 1.631225 1_555
O15 Sc1 1.952581 1_555
O16 P6 1.544623 1_555
O16 Sc1 2.073871 1_555
O17 P7 1.542021 1_555
O17 Sc1 2.115701 1_555
O18 P7 1.551982 1_555
O18 Sc2 2.067792 1_554
O19 Si3 1.638661 1_555
O19 Sc2 2.027190 1_554
O20 P6 1.549089 1_555
O20 Sc2 2.082912 1_554
O21 Si2 1.650349 1_555
O22 P5 1.556632 1_555
O23 P4 1.555548 1_555
O24 P8 1.533840 1_555
O24 Sc3 2.107820 1_556
O25 P9 1.539826 1_555
O25 Sc3 2.066535 1_556
O26 Si4 1.631603 1_555
O26 Sc3 1.967405 1_556
O27 P10 1.551185 1_555
O27 Sc4 2.057676 1_555
O28 P11 1.546431 1_555
O28 Sc4 2.116533 1_555
O29 Si5 1.635762 1_555
O29 Sc4 1.983780 1_555
O30 Si5 1.643856 1_555
O31 P10 1.559194 1_555
O32 P11 1.561864 1_555
O33 P9 1.543741 1_555
O33 Sc5 2.112668 1_555
O34 Si4 1.639305 1_555
O34 Sc5 1.960278 1_555
O35 P8 1.549399 1_555
O35 Sc5 2.067280 1_555
O36 Si5 1.659970 1_555
O37 P10 1.558669 1_555
O38 P11 1.559694 1_555
O39 P9 1.549185 1_555
O39 Sc0 2.148263 1_455
O40 Si4 1.636602 1_555
O40 Sc0 2.087588 1_465
O41 P8 1.550191 1_555
O41 Sc0 2.146095 1_565
O42 P4 1.557745 1_555
O43 Si2 1.667868 1_555
O44 P5 1.561558 1_555
O45 Si3 1.653403 1_555
O46 P6 1.552578 1_555
O47 P7 1.555482 1_555
O48 Si1 1.657630 1_555
O49 P2 1.556169 1_555
O50 P3 1.553548 1_555
O51 P1 1.559702 1_555
O51 Sc1 2.168639 1_555
O52 Si0 1.652566 1_655
O52 Sc1 2.079370 1_555
O53 P0 1.553970 1_545
O53 Sc1 2.190086 1_555
O54 P8 1.551266 1_555
O54 Sc2 2.150779 1_555
O55 P9 1.552792 1_655
O55 Sc2 2.152776 1_555
O56 Si4 1.637701 1_545
O56 Sc2 2.095966 1_555
O57 P10 1.562264 1_545
O58 P11 1.559992 1_555
O59 Si5 1.663811 1_655
O60 P7 1.547333 1_555
O60 Sc3 2.190694 1_555
O61 Si3 1.640889 1_455
O61 Sc3 2.055142 1_555
O62 P6 1.548439 1_565
O62 Sc3 2.155404 1_555
O63 Si2 1.651544 1_565
O63 Sc4 2.068381 1_555
O64 P5 1.555940 1_555
O64 Sc4 2.249564 1_555
O65 P4 1.557366 1_455
O65 Sc4 2.170809 1_555
O66 P0 1.561566 1_555
O67 P1 1.557239 1_555
O68 Si0 1.666380 1_555
O69 P2 1.552231 1_555
O69 Sc5 2.204869 1_555
O70 P3 1.556562 1_455
O70 Sc5 2.182667 1_555
O71 Si1 1.650553 1_565
O71 Sc5 2.080643 1_555
