# generated using pymatgen
data_Na3Mg2Ga2PS5O24
_symmetry_space_group_name_H-M   'P 1'
_cell_length_a   8.64173529
_cell_length_b   8.62223394
_cell_length_c   22.26587115
_cell_angle_alpha   89.92067593
_cell_angle_beta   90.07621460
_cell_angle_gamma   119.94269832
_symmetry_Int_Tables_number   1
_chemical_formula_structural   Na3Mg2Ga2PS5O24
_chemical_formula_sum   'Na9 Mg6 Ga6 P3 S15 O72'
_cell_volume   1437.60980540
_cell_formula_units_Z   3
loop_
 _symmetry_equiv_pos_site_id
 _symmetry_equiv_pos_as_xyz
  1  'x, y, z'
loop_
 _atom_site_type_symbol
 _atom_site_label
 _atom_site_symmetry_multiplicity
 _atom_site_fract_x
 _atom_site_fract_y
 _atom_site_fract_z
 _atom_site_occupancy
  Na  Na0  1  0.36675231  0.99776221  0.74956625  1
  Na  Na1  1  0.66395687  0.96615535  0.58614265  1
  Na  Na2  1  0.67039902  0.69914558  0.08235116  1
  Na  Na3  1  0.01624925  0.00162804  0.50039661  1
  Na  Na4  1  0.00947933  0.00236198  0.00002294  1
  Na  Na5  1  0.67603608  0.33787990  0.83401203  1
  Na  Na6  1  0.66669458  0.33337179  0.33349307  1
  Na  Na7  1  0.31613986  0.66447487  0.16705793  1
  Na  Na8  1  0.33047131  0.65998830  0.66684170  1
  Mg  Mg0  1  0.00404003  0.00023277  0.64773738  1
  Mg  Mg1  1  0.00572531  0.99972797  0.14779414  1
  Mg  Mg2  1  0.32069084  0.66517900  0.01770989  1
  Mg  Mg3  1  0.32823569  0.66751996  0.51722858  1
  Mg  Mg4  1  0.33174673  0.66624895  0.31590653  1
  Mg  Mg5  1  0.33817494  0.66653913  0.81627398  1
  Ga  Ga0  1  0.00226224  0.00084538  0.34957514  1
  Ga  Ga1  1  0.99061708  0.00232765  0.84921066  1
  Ga  Ga2  1  0.66867034  0.32539072  0.68403398  1
  Ga  Ga3  1  0.67585110  0.33765923  0.18461333  1
  Ga  Ga4  1  0.67446931  0.34022052  0.98271602  1
  Ga  Ga5  1  0.65724804  0.32901080  0.48229033  1
  P  P0  1  0.70934805  0.00082487  0.74800096  1
  P  P1  1  0.37324504  0.04328920  0.58301973  1
  P  P2  1  0.95820658  0.62185249  0.08393765  1
  S  S0  1  0.29559304  0.00345903  0.24956751  1
  S  S1  1  0.70711341  0.70654278  0.24940385  1
  S  S2  1  0.99820582  0.28982323  0.24956786  1
  S  S3  1  0.29148810  0.29383561  0.74990418  1
  S  S4  1  0.99448451  0.70463522  0.75024944  1
  S  S5  1  0.95857781  0.33757713  0.58267115  1
  S  S6  1  0.66673437  0.61887627  0.58328846  1
  S  S7  1  0.66608303  0.04558573  0.08337189  1
  S  S8  1  0.37700140  0.33042741  0.08290839  1
  S  S9  1  0.62973650  0.66642536  0.91784680  1
  S  S10  1  0.03831107  0.37037232  0.91635819  1
  S  S11  1  0.33293889  0.96624433  0.91592615  1
  S  S12  1  0.63173355  0.96321835  0.41672137  1
  S  S13  1  0.33264380  0.37157010  0.41628764  1
  S  S14  1  0.03509295  0.66558108  0.41628825  1
  O  O0  1  0.21690443  0.03639088  0.30492724  1
  O  O1  1  0.82200498  0.78899388  0.30365316  1
  O  O2  1  0.96679291  0.17878927  0.30510326  1
  O  O3  1  0.21542913  0.17507939  0.80431959  1
  O  O4  1  0.96591150  0.78482009  0.80560709  1
  O  O5  1  0.82593790  0.03481071  0.80492553  1
  O  O6  1  0.78979632  0.97460264  0.69070770  1
  O  O7  1  0.18470398  0.21111294  0.69621246  1
  O  O8  1  0.03087801  0.81939712  0.69730931  1
  O  O9  1  0.78636885  0.81209869  0.19461528  1
  O  O10  1  0.02322874  0.20698523  0.19619937  1
  O  O11  1  0.18616527  0.97614130  0.19638670  1
  O  O12  1  0.88030923  0.36995425  0.63756907  1
  O  O13  1  0.49288770  0.12420829  0.64106985  1
  O  O14  1  0.63986128  0.50993104  0.63815855  1
  O  O15  1  0.87041240  0.50496810  0.14059310  1
  O  O16  1  0.63206740  0.12291448  0.13797759  1
  O  O17  1  0.49153728  0.36504039  0.13749977  1
  O  O18  1  0.45677381  0.29869783  0.02849869  1
  O  O19  1  0.83274913  0.53875606  0.02810726  1
  O  O20  1  0.69379918  0.15406989  0.02861714  1
  O  O21  1  0.46466851  0.16200204  0.52743956  1
  O  O22  1  0.69897388  0.54101834  0.52861645  1
  O  O23  1  0.84250932  0.30327254  0.52890312  1
  O  O24  1  0.55267055  0.69411331  0.97304456  1
  O  O25  1  0.14513845  0.44823785  0.97045831  1
  O  O26  1  0.30466605  0.85537766  0.96918031  1
  O  O27  1  0.55656907  0.85861627  0.47217849  1
  O  O28  1  0.30431068  0.44971899  0.47055674  1
  O  O29  1  0.14332078  0.69648829  0.47039344  1
  O  O30  1  0.11372033  0.63602339  0.36241874  1
  O  O31  1  0.51972107  0.88051851  0.36376333  1
  O  O32  1  0.36050865  0.47909735  0.36225699  1
  O  O33  1  0.11706694  0.47872604  0.86236855  1
  O  O34  1  0.36181641  0.88943445  0.86070696  1
  O  O35  1  0.51984228  0.63936221  0.86440335  1
  O  O36  1  0.01572516  0.82951704  0.40924254  1
  O  O37  1  0.81343837  0.98192029  0.40953556  1
  O  O38  1  0.17039254  0.18769324  0.40981619  1
  O  O39  1  0.01967089  0.18765891  0.91043166  1
  O  O40  1  0.16994822  0.98504584  0.90920849  1
  O  O41  1  0.81222591  0.82818702  0.91122728  1
  O  O42  1  0.96930606  0.17245736  0.58858882  1
  O  O43  1  0.19019573  0.02619736  0.58890279  1
  O  O44  1  0.82414076  0.80060753  0.58841259  1
  O  O45  1  0.96871386  0.80550060  0.08922645  1
  O  O46  1  0.82705388  0.02760340  0.08953001  1
  O  O47  1  0.19880515  0.17418901  0.08950288  1
  O  O48  1  0.68783636  0.17326746  0.74458511  1
  O  O49  1  0.47321802  0.31068570  0.74470470  1
  O  O50  1  0.83135207  0.52643318  0.74333222  1
  O  O51  1  0.68951291  0.52452434  0.24498374  1
  O  O52  1  0.83205057  0.30470449  0.24524296  1
  O  O53  1  0.47681999  0.16824640  0.24363444  1
  O  O54  1  0.64704933  0.50189949  0.92262689  1
  O  O55  1  0.85473295  0.34841552  0.92244156  1
  O  O56  1  0.49622757  0.14771664  0.92328155  1
  O  O57  1  0.65273730  0.14648014  0.42242539  1
  O  O58  1  0.49620668  0.35244021  0.42190954  1
  O  O59  1  0.85259792  0.50359255  0.42350896  1
  O  O60  1  0.36708799  0.49655367  0.07650939  1
  O  O61  1  0.14126714  0.63893842  0.07796535  1
  O  O62  1  0.50937980  0.86321530  0.07723388  1
  O  O63  1  0.36486967  0.86068775  0.57742761  1
  O  O64  1  0.50572064  0.63731627  0.57741521  1
  O  O65  1  0.13652719  0.49483952  0.57633644  1
  O  O66  1  0.31514290  0.84446876  0.25721914  1
  O  O67  1  0.52948559  0.68781173  0.25701345  1
  O  O68  1  0.15591347  0.46895497  0.25671527  1
  O  O69  1  0.30935622  0.47003090  0.75784690  1
  O  O70  1  0.15454581  0.68527117  0.75773837  1
  O  O71  1  0.51890880  0.84001348  0.75590232  1
loop_
_geom_bond_atom_site_label_1
_geom_bond_atom_site_label_2
_geom_bond_distance
_geom_bond_site_symmetry_2
Na0 O71 2.320168 1_555
Na0 O49 2.378933 1_565
Na0 O70 2.392227 1_555
Na0 O48 2.410414 1_565
Na0 O34 2.636703 1_555
Na0 O13 2.650680 1_565
Na0 O3 2.745728 1_565
Na0 O8 2.771929 1_555
Na1 O63 2.279863 1_555
Na1 O42 2.333299 1_565
Na1 O44 2.434806 1_555
Na1 O64 2.465184 1_555
Na1 O6 2.554061 1_555
Na1 O27 2.702071 1_555
Na1 O13 2.749347 1_565
Na1 O23 2.823437 1_565
Na2 O45 2.269279 1_555
Na2 O60 2.316814 1_555
Na2 O62 2.432000 1_555
Na2 O46 2.460098 1_565
Na2 O24 2.628687 1_554
Na2 O9 2.688288 1_555
Na2 O19 2.699178 1_555
Na2 O17 2.783136 1_555
Na3 O43 2.421446 1_555
Na3 O38 2.506137 1_555
Na3 O36 2.514598 1_545
Na3 O44 2.593773 1_445
Na3 O42 2.607055 1_455
Na3 O37 2.624456 1_445
Na4 O40 2.499806 1_544
Na4 O45 2.519084 1_445
Na4 O39 2.528009 1_554
Na4 O47 2.533967 1_555
Na4 O41 2.552206 1_444
Na4 O46 2.618503 1_455
Na5 O55 2.474295 1_555
Na5 O48 2.478405 1_555
Na5 O54 2.513664 1_555
Na5 O50 2.518136 1_555
Na5 O56 2.551377 1_555
Na5 O49 2.581251 1_555
Na6 O51 2.511320 1_555
Na6 O58 2.514709 1_555
Na6 O52 2.515060 1_555
Na6 O57 2.515954 1_555
Na6 O53 2.527768 1_555
Na6 O59 2.529419 1_555
Na7 O61 2.434841 1_555
Na7 O68 2.532241 1_555
Na7 O66 2.541804 1_555
Na7 O62 2.620662 1_555
Na7 O60 2.646085 1_555
Na7 O67 2.659389 1_555
Na8 O71 2.543646 1_555
Na8 O65 2.552281 1_555
Na8 O69 2.552500 1_555
Na8 O63 2.554418 1_555
Na8 O64 2.569270 1_555
Na8 O70 2.606767 1_555
Mg0 O6 1.996937 1_445
Mg0 O43 1.999861 1_555
Mg0 O8 2.014636 1_545
Mg0 O7 2.018825 1_555
Mg0 O44 2.110430 1_445
Mg0 O42 2.113804 1_455
Mg1 O11 1.988698 1_555
Mg1 O45 2.019316 1_455
Mg1 O10 2.028054 1_565
Mg1 O47 2.055762 1_565
Mg1 O9 2.058308 1_455
Mg1 O46 2.118741 1_465
Mg2 O61 1.977329 1_555
Mg2 O25 2.018828 1_554
Mg2 O26 2.024246 1_554
Mg2 O62 2.133564 1_555
Mg2 O60 2.136353 1_555
Mg2 O24 2.139041 1_554
Mg3 O29 2.024034 1_555
Mg3 O63 2.037046 1_555
Mg3 O65 2.057069 1_555
Mg3 O28 2.065556 1_555
Mg3 O27 2.090370 1_555
Mg3 O64 2.146739 1_555
Mg4 O32 2.031226 1_555
Mg4 O31 2.047521 1_555
Mg4 O30 2.050527 1_555
Mg4 O66 2.074481 1_555
Mg4 O68 2.088102 1_555
Mg4 O67 2.088599 1_555
Mg5 O35 2.007497 1_555
Mg5 O71 2.037525 1_555
Mg5 O69 2.051642 1_555
Mg5 O33 2.058754 1_555
Mg5 O34 2.080102 1_555
Mg5 O70 2.119608 1_555
Ga0 O2 1.973045 1_455
Ga0 O0 1.989814 1_555
Ga0 O1 1.992253 1_445
Ga0 O36 2.031382 1_545
Ga0 O38 2.041994 1_555
Ga0 O37 2.052094 1_445
Ga1 O5 1.862626 1_555
Ga1 O39 2.019727 1_655
Ga1 O3 2.025918 1_655
Ga1 O4 2.027336 1_545
Ga1 O41 2.055967 1_545
Ga1 O40 2.105463 1_645
Ga2 O13 1.897881 1_555
Ga2 O48 1.943431 1_555
Ga2 O12 1.966057 1_555
Ga2 O14 2.006834 1_555
Ga2 O50 2.071992 1_555
Ga2 O49 2.117938 1_555
Ga3 O15 1.856838 1_555
Ga3 O16 1.988635 1_555
Ga3 O17 2.015795 1_555
Ga3 O52 2.025385 1_555
Ga3 O51 2.057290 1_555
Ga3 O53 2.076456 1_555
Ga4 O19 1.867197 1_556
Ga4 O20 1.977683 1_556
Ga4 O18 2.009535 1_556
Ga4 O54 2.028127 1_555
Ga4 O55 2.031811 1_555
Ga4 O56 2.080214 1_555
Ga5 O21 1.860628 1_555
Ga5 O22 1.970212 1_555
Ga5 O23 2.009772 1_555
Ga5 O58 2.014942 1_555
Ga5 O57 2.049294 1_555
Ga5 O59 2.071820 1_555
O0 S0 1.502786 1_555
O1 S1 1.498261 1_555
O2 S2 1.502482 1_555
O3 S3 1.508410 1_555
O4 S4 1.493929 1_555
O5 P0 1.552545 1_555
O6 P0 1.523771 1_565
O7 S3 1.460093 1_555
O8 S4 1.467854 1_455
O9 S1 1.470543 1_555
O10 S2 1.458141 1_455
O11 S0 1.458527 1_565
O12 S5 1.490367 1_555
O13 P1 1.582799 1_555
O14 S6 1.486185 1_555
O15 P2 1.555108 1_555
O16 S7 1.485962 1_555
O17 S8 1.499724 1_555
O18 S8 1.486329 1_555
O19 P2 1.567653 1_555
O20 S7 1.480751 1_555
O21 P1 1.547646 1_555
O22 S6 1.483245 1_555
O23 S5 1.492800 1_555
O24 S9 1.474021 1_555
O25 S10 1.461021 1_555
O26 S11 1.464227 1_555
O27 S12 1.474555 1_555
O28 S13 1.463498 1_555
O29 S14 1.464971 1_555
O30 S14 1.463286 1_555
O31 S12 1.464961 1_555
O32 S13 1.462760 1_555
O33 S10 1.464739 1_555
O34 S11 1.476691 1_555
O35 S9 1.465912 1_555
O36 S14 1.511977 1_555
O37 S12 1.505025 1_555
O38 S13 1.510394 1_555
O39 S10 1.507457 1_555
O40 S11 1.503297 1_555
O41 S9 1.502784 1_555
O42 S5 1.477868 1_555
O43 P1 1.519524 1_555
O44 S6 1.480183 1_555
O45 P2 1.544799 1_555
O46 S7 1.480760 1_555
O47 S8 1.461797 1_555
O48 P0 1.589531 1_555
O49 S3 1.507822 1_555
O50 S4 1.486504 1_555
O51 S1 1.502648 1_555
O52 S2 1.506975 1_555
O53 S0 1.505867 1_555
O54 S9 1.502495 1_555
O55 S10 1.507197 1_655
O56 S11 1.504086 1_545
O57 S12 1.503349 1_545
O58 S13 1.507638 1_555
O59 S14 1.504977 1_655
O60 S8 1.483661 1_555
O61 P2 1.519817 1_455
O62 S7 1.483066 1_565
O63 P1 1.544779 1_565
O64 S6 1.482830 1_555
O65 S5 1.463487 1_455
O66 S0 1.472167 1_565
O67 S1 1.471119 1_555
O68 S2 1.472088 1_455
O69 S3 1.459306 1_555
O70 S4 1.482833 1_455
O71 P0 1.544039 1_565
