# generated using pymatgen
data_Al3Ir
_symmetry_space_group_name_H-M   'P 1'
_cell_length_a   4.27012569
_cell_length_b   4.27012564
_cell_length_c   7.74077817
_cell_angle_alpha   90.00000000
_cell_angle_beta   90.00000000
_cell_angle_gamma   120.00000043
_symmetry_Int_Tables_number   1
_chemical_formula_structural   Al3Ir
_chemical_formula_sum   'Al6 Ir2'
_cell_volume   122.23527791
_cell_formula_units_Z   2
loop_
 _symmetry_equiv_pos_site_id
 _symmetry_equiv_pos_as_xyz
  1  'x, y, z'
loop_
 _atom_site_type_symbol
 _atom_site_label
 _atom_site_symmetry_multiplicity
 _atom_site_fract_x
 _atom_site_fract_y
 _atom_site_fract_z
 _atom_site_occupancy
  Al  Al0  1  0.00000000  -0.00000000  0.25000000  1
  Al  Al1  1  -0.00000000  -0.00000000  0.75000000  1
  Al  Al2  1  0.33333300  0.66666700  0.57989058  1
  Al  Al3  1  0.66666700  0.33333300  0.07989058  1
  Al  Al4  1  0.66666700  0.33333300  0.42010942  1
  Al  Al5  1  0.33333300  0.66666700  0.92010942  1
  Ir  Ir0  1  0.33333300  0.66666700  0.25000000  1
  Ir  Ir1  1  0.66666700  0.33333300  0.75000000  1
loop_
_geom_bond_atom_site_label_1
_geom_bond_atom_site_label_2
_geom_bond_distance
_geom_bond_site_symmetry_2
Al0 Ir0 2.465356 1_545
Al0 Ir0 2.465359 1_555
Al0 Ir0 2.465359 1_445
Al0 Al4 2.794975 1_455
Al0 Al3 2.794975 1_455
Al0 Al3 2.794978 1_445
Al0 Al4 2.794978 1_445
Al0 Al3 2.794979 1_555
Al0 Al4 2.794979 1_555
Al1 Ir1 2.465356 1_455
Al1 Ir1 2.465359 1_445
Al1 Ir1 2.465359 1_555
Al1 Al2 2.794975 1_545
Al1 Al5 2.794975 1_545
Al1 Al2 2.794978 1_555
Al1 Al5 2.794978 1_555
Al1 Al2 2.794979 1_445
Al1 Al5 2.794979 1_445
Al2 Ir0 2.553610 1_555
Al2 Al5 2.633559 1_555
Al2 Al4 2.758211 1_565
Al2 Al4 2.758211 1_455
Al2 Al4 2.758218 1_555
Al2 Ir1 2.794975 1_565
Al2 Ir1 2.794975 1_455
Al2 Ir1 2.794982 1_555
Al3 Ir1 2.553610 1_554
Al3 Al4 2.633559 1_555
Al3 Al5 2.758211 1_544
Al3 Al5 2.758211 1_654
Al3 Al5 2.758218 1_554
Al3 Ir0 2.794975 1_545
Al3 Ir0 2.794975 1_655
Al3 Ir0 2.794982 1_555
Al4 Ir1 2.553610 1_555
Al4 Ir0 2.794975 1_545
Al4 Ir0 2.794975 1_655
Al4 Ir0 2.794982 1_555
Al5 Ir0 2.553610 1_556
Al5 Ir1 2.794975 1_565
Al5 Ir1 2.794975 1_455
Al5 Ir1 2.794982 1_555
