# generated using pymatgen
data_Nb2BS
_symmetry_space_group_name_H-M   'P 1'
_cell_length_a   3.37300900
_cell_length_b   3.37300883
_cell_length_c   11.69779600
_cell_angle_alpha   90.00000000
_cell_angle_beta   90.00000000
_cell_angle_gamma   120.00001144
_symmetry_Int_Tables_number   1
_chemical_formula_structural   Nb2BS
_chemical_formula_sum   'Nb4 B2 S2'
_cell_volume   115.25760834
_cell_formula_units_Z   2
loop_
 _symmetry_equiv_pos_site_id
 _symmetry_equiv_pos_as_xyz
  1  'x, y, z'
loop_
 _atom_site_type_symbol
 _atom_site_label
 _atom_site_symmetry_multiplicity
 _atom_site_fract_x
 _atom_site_fract_y
 _atom_site_fract_z
 _atom_site_occupancy
  Nb  Nb0  1  0.33333300  0.66666700  0.10021600  1
  Nb  Nb1  1  0.66666700  0.33333300  0.60021600  1
  Nb  Nb2  1  0.66666700  0.33333300  0.89978400  1
  Nb  Nb3  1  0.33333300  0.66666700  0.39978400  1
  B  B0  1  0.00000000  0.00000000  0.00000000  1
  B  B1  1  0.00000000  0.00000000  0.50000000  1
  S  S0  1  0.33333300  0.66666700  0.75000000  1
  S  S1  1  0.66666700  0.33333300  0.25000000  1
loop_
_geom_bond_atom_site_label_1
_geom_bond_atom_site_label_2
_geom_bond_distance
_geom_bond_site_symmetry_2
Nb0 S1 2.619617 1_565
Nb0 S1 2.619617 1_455
Nb0 S1 2.619621 1_555
Nb1 S0 2.619617 1_545
Nb1 S0 2.619617 1_655
Nb1 S0 2.619621 1_555
Nb2 S0 2.619617 1_545
Nb2 S0 2.619617 1_655
Nb2 S0 2.619621 1_555
Nb3 S1 2.619617 1_565
Nb3 S1 2.619617 1_455
Nb3 S1 2.619621 1_555
B0 Nb0 2.273036 1_545
B0 Nb2 2.273036 1_454
B0 Nb0 2.273038 1_555
B0 Nb2 2.273038 1_444
B0 Nb0 2.273038 1_445
B0 Nb2 2.273038 1_554
B1 Nb1 2.273036 1_455
B1 Nb3 2.273036 1_545
B1 Nb3 2.273038 1_555
B1 Nb1 2.273038 1_445
B1 Nb1 2.273038 1_555
B1 Nb3 2.273038 1_445
