# generated using pymatgen
data_CaCuH4(CO2)4
_symmetry_space_group_name_H-M   'P 1'
_cell_length_a   8.58112900
_cell_length_b   6.67058000
_cell_length_c   7.49747554
_cell_angle_alpha   80.51964431
_cell_angle_beta   90.00000000
_cell_angle_gamma   90.00000000
_symmetry_Int_Tables_number   1
_chemical_formula_structural   CaCuH4(CO2)4
_chemical_formula_sum   'Ca2 Cu2 H8 C8 O16'
_cell_volume   423.30234017
_cell_formula_units_Z   2
loop_
 _symmetry_equiv_pos_site_id
 _symmetry_equiv_pos_as_xyz
  1  'x, y, z'
loop_
 _atom_site_type_symbol
 _atom_site_label
 _atom_site_symmetry_multiplicity
 _atom_site_fract_x
 _atom_site_fract_y
 _atom_site_fract_z
 _atom_site_occupancy
  Ca  Ca0  1  0.13638600  0.75000000  0.00000000  1
  Ca  Ca1  1  0.86361400  0.25000000  0.00000000  1
  Cu  Cu0  1  0.40099100  0.75000000  0.50000000  1
  Cu  Cu1  1  0.59900900  0.25000000  0.50000000  1
  H  H0  1  0.15090300  0.08916100  0.41425600  1
  H  H1  1  0.15090300  0.41083900  0.58574400  1
  H  H2  1  0.84909700  0.91083900  0.58574400  1
  H  H3  1  0.84909700  0.58916100  0.41425600  1
  H  H4  1  0.56213800  0.76559500  0.83625200  1
  H  H5  1  0.56213800  0.73440500  0.16374800  1
  H  H6  1  0.43786200  0.23440500  0.16374800  1
  H  H7  1  0.43786200  0.26559500  0.83625200  1
  C  C0  1  0.60284500  0.87976900  0.20006900  1
  C  C1  1  0.14267600  0.99110800  0.30878400  1
  C  C2  1  0.14267600  0.50889200  0.69121600  1
  C  C3  1  0.85732400  0.00889200  0.69121600  1
  C  C4  1  0.85732400  0.49110800  0.30878400  1
  C  C5  1  0.39715500  0.37976900  0.20006900  1
  C  C6  1  0.39715500  0.12023100  0.79993200  1
  C  C7  1  0.60284500  0.62023100  0.79993200  1
  O  O0  1  0.31500000  0.49521600  0.08995300  1
  O  O1  1  0.68500000  0.50478400  0.91004700  1
  O  O2  1  0.31500000  0.00478400  0.91004700  1
  O  O3  1  0.68500000  0.99521600  0.08995300  1
  O  O4  1  0.95804800  0.52796400  0.18525900  1
  O  O5  1  0.43880100  0.41794400  0.35611800  1
  O  O6  1  0.23687500  0.65846100  0.68398200  1
  O  O7  1  0.76312500  0.15846100  0.68398200  1
  O  O8  1  0.76312500  0.34153900  0.31601800  1
  O  O9  1  0.04195200  0.02796400  0.18525900  1
  O  O10  1  0.04195200  0.47203600  0.81474100  1
  O  O11  1  0.95804800  0.97203600  0.81474100  1
  O  O12  1  0.56119900  0.58205600  0.64388200  1
  O  O13  1  0.56119900  0.91794400  0.35611800  1
  O  O14  1  0.23687500  0.84153900  0.31601800  1
  O  O15  1  0.43880100  0.08205600  0.64388200  1
loop_
_geom_bond_atom_site_label_1
_geom_bond_atom_site_label_2
_geom_bond_distance
_geom_bond_site_symmetry_2
Ca0 O0 2.305418 1_555
Ca0 O2 2.305418 1_564
Ca0 O4 2.405658 1_455
Ca0 O11 2.405658 1_454
Ca0 O9 2.621506 1_565
Ca0 O10 2.621506 1_554
Ca0 O14 2.684545 1_555
Ca0 O6 2.684545 1_554
Ca1 O3 2.305418 1_545
Ca1 O1 2.305418 1_554
Ca1 O9 2.405658 1_655
Ca1 O10 2.405658 1_654
Ca1 O4 2.621506 1_555
Ca1 O11 2.621506 1_544
Ca1 O8 2.684545 1_555
Ca1 O7 2.684545 1_554
Cu0 O12 1.977528 1_555
Cu0 O13 1.977528 1_555
Cu0 O6 1.995356 1_555
Cu0 O14 1.995356 1_555
Cu1 O5 1.977528 1_555
Cu1 O15 1.977528 1_555
Cu1 O7 1.995356 1_555
Cu1 O8 1.995356 1_555
C0 H5 1.106076 1_555
C0 O3 1.249886 1_555
C0 O13 1.288232 1_555
C1 H0 1.108376 1_565
C1 O9 1.261033 1_565
C1 O14 1.278260 1_555
C2 H1 1.108376 1_555
C2 O10 1.261033 1_555
C2 O6 1.278260 1_555
C3 H2 1.108376 1_545
C3 O11 1.261033 1_545
C3 O7 1.278260 1_555
C4 H3 1.108376 1_555
C4 O4 1.261033 1_555
C4 O8 1.278260 1_555
C5 H6 1.106076 1_555
C5 O0 1.249886 1_555
C5 O5 1.288232 1_555
C6 H7 1.106073 1_555
C6 O2 1.249881 1_555
C6 O15 1.288239 1_555
C7 H4 1.106073 1_555
C7 O1 1.249881 1_555
C7 O12 1.288239 1_555
