# generated using pymatgen
data_LiTe3
_symmetry_space_group_name_H-M   'P 1'
_cell_length_a   8.77807480
_cell_length_b   8.77807480
_cell_length_c   21.51237700
_cell_angle_alpha   90.00000000
_cell_angle_beta   90.00000000
_cell_angle_gamma   120.00000600
_symmetry_Int_Tables_number   1
_chemical_formula_structural   LiTe3
_chemical_formula_sum   'Li12 Te36'
_cell_volume   1435.54747550
_cell_formula_units_Z   12
loop_
 _symmetry_equiv_pos_site_id
 _symmetry_equiv_pos_as_xyz
  1  'x, y, z'
loop_
 _atom_site_type_symbol
 _atom_site_label
 _atom_site_symmetry_multiplicity
 _atom_site_fract_x
 _atom_site_fract_y
 _atom_site_fract_z
 _atom_site_occupancy
  Li  Li0  1  0.33333300  0.66666700  0.41794900  1
  Li  Li1  1  0.66666700  0.33333300  0.08205100  1
  Li  Li2  1  0.66666700  0.33333300  0.58205100  1
  Li  Li3  1  0.33333300  0.66666700  0.91794900  1
  Li  Li4  1  0.33333300  0.66666700  0.66544600  1
  Li  Li5  1  0.66666700  0.33333300  0.83455400  1
  Li  Li6  1  0.66666700  0.33333300  0.33455400  1
  Li  Li7  1  0.33333300  0.66666700  0.16544600  1
  Li  Li8  1  0.00000000  0.00000000  0.75000000  1
  Li  Li9  1  0.00000000  0.00000000  0.25000000  1
  Li  Li10  1  0.00000000  0.00000000  0.50000000  1
  Li  Li11  1  0.00000000  0.00000000  0.00000000  1
  Te  Te0  1  0.17730100  0.33675700  0.08268000  1
  Te  Te1  1  0.66324300  0.84054400  0.08268000  1
  Te  Te2  1  0.15945600  0.82269900  0.08268000  1
  Te  Te3  1  0.84054400  0.66324300  0.41732000  1
  Te  Te4  1  0.82269900  0.15945600  0.41732000  1
  Te  Te5  1  0.33675700  0.17730100  0.41732000  1
  Te  Te6  1  0.82269900  0.66324300  0.91732000  1
  Te  Te7  1  0.33675700  0.15945600  0.91732000  1
  Te  Te8  1  0.84054400  0.17730100  0.91732000  1
  Te  Te9  1  0.15945600  0.33675700  0.58268000  1
  Te  Te10  1  0.17730100  0.84054400  0.58268000  1
  Te  Te11  1  0.66324300  0.82269900  0.58268000  1
  Te  Te12  1  0.85272300  0.66967000  0.16577500  1
  Te  Te13  1  0.33033000  0.18305300  0.16577500  1
  Te  Te14  1  0.81694700  0.14727700  0.16577500  1
  Te  Te15  1  0.18305300  0.33033000  0.33422500  1
  Te  Te16  1  0.14727700  0.81694700  0.33422500  1
  Te  Te17  1  0.66967000  0.85272300  0.33422500  1
  Te  Te18  1  0.14727700  0.33033000  0.83422500  1
  Te  Te19  1  0.66967000  0.81694700  0.83422500  1
  Te  Te20  1  0.18305300  0.85272300  0.83422500  1
  Te  Te21  1  0.81694700  0.66967000  0.66577500  1
  Te  Te22  1  0.85272300  0.18305300  0.66577500  1
  Te  Te23  1  0.33033000  0.14727700  0.66577500  1
  Te  Te24  1  0.52182200  0.52182200  0.75000000  1
  Te  Te25  1  0.00000000  0.47817800  0.75000000  1
  Te  Te26  1  0.47817800  0.00000000  0.75000000  1
  Te  Te27  1  0.47817800  0.47817800  0.25000000  1
  Te  Te28  1  0.00000000  0.52182200  0.25000000  1
  Te  Te29  1  0.52182200  0.00000000  0.25000000  1
  Te  Te30  1  0.00000000  0.50000000  0.50000000  1
  Te  Te31  1  0.50000000  0.50000000  0.50000000  1
  Te  Te32  1  0.50000000  0.00000000  0.50000000  1
  Te  Te33  1  0.50000000  0.50000000  0.00000000  1
  Te  Te34  1  0.00000000  0.50000000  0.00000000  1
  Te  Te35  1  0.50000000  0.00000000  0.00000000  1
loop_
_geom_bond_atom_site_label_1
_geom_bond_atom_site_label_2
_geom_bond_distance
_geom_bond_site_symmetry_2
Li0 Te30 3.088175 1_555
Li0 Te32 3.088175 1_565
Li0 Te31 3.088181 1_555
Li0 Te16 3.131461 1_555
Li0 Te17 3.131467 1_555
Li0 Te15 3.131467 1_555
Li1 Te34 3.088175 1_655
Li1 Te35 3.088175 1_555
Li1 Te33 3.088181 1_555
Li1 Te14 3.131461 1_555
Li1 Te12 3.131467 1_555
Li1 Te13 3.131467 1_555
Li2 Te30 3.088175 1_655
Li2 Te32 3.088175 1_555
Li2 Te31 3.088181 1_555
Li2 Te22 3.131461 1_555
Li2 Te23 3.131467 1_555
Li2 Te21 3.131467 1_555
Li3 Te35 3.088175 1_566
Li3 Te34 3.088175 1_556
Li3 Te33 3.088181 1_556
Li3 Te20 3.131461 1_555
Li3 Te18 3.131467 1_555
Li3 Te19 3.131467 1_555
Li4 Te10 3.076728 1_555
Li4 Te9 3.076734 1_555
Li4 Te11 3.076734 1_555
Li4 Te26 3.125140 1_565
Li4 Te25 3.125141 1_555
Li4 Te24 3.125147 1_555
Li5 Te8 3.076728 1_555
Li5 Te7 3.076734 1_555
Li5 Te6 3.076734 1_555
Li5 Te25 3.125140 1_655
Li5 Te26 3.125141 1_555
Li5 Te24 3.125147 1_555
Li6 Te4 3.076728 1_555
Li6 Te3 3.076734 1_555
Li6 Te5 3.076734 1_555
Li6 Te29 3.125140 1_555
Li6 Te28 3.125141 1_655
Li6 Te27 3.125147 1_555
Li7 Te2 3.076728 1_555
Li7 Te1 3.076734 1_555
Li7 Te0 3.076734 1_555
Li7 Te28 3.125140 1_555
Li7 Te29 3.125141 1_565
Li7 Te27 3.125147 1_555
Li8 Te19 3.100579 1_445
Li8 Te21 3.100579 1_445
Li8 Te18 3.100579 1_555
Li8 Te23 3.100579 1_555
Li8 Te22 3.100579 1_455
Li8 Te20 3.100579 1_545
Li9 Te13 3.100579 1_555
Li9 Te15 3.100579 1_555
Li9 Te12 3.100579 1_445
Li9 Te17 3.100579 1_445
Li9 Te14 3.100579 1_455
Li9 Te16 3.100579 1_545
Li10 Te5 3.118253 1_555
Li10 Te11 3.118253 1_445
Li10 Te9 3.118253 1_555
Li10 Te3 3.118253 1_445
Li10 Te10 3.118254 1_545
Li10 Te4 3.118254 1_455
Li11 Te6 3.118253 1_444
Li11 Te0 3.118253 1_555
Li11 Te1 3.118253 1_445
Li11 Te7 3.118253 1_554
Li11 Te8 3.118254 1_454
Li11 Te2 3.118254 1_545
