# generated using pymatgen
data_Ba2GdMgSbO6
_symmetry_space_group_name_H-M   'P 1'
_cell_length_a   7.25984504
_cell_length_b   6.38229288
_cell_length_c   6.39073128
_cell_angle_alpha   119.95621409
_cell_angle_beta   90.39912018
_cell_angle_gamma   63.91946510
_symmetry_Int_Tables_number   1
_chemical_formula_structural   Ba2GdMgSbO6
_chemical_formula_sum   'Ba2 Gd1 Mg1 Sb1 O6'
_cell_volume   221.66703070
_cell_formula_units_Z   1
loop_
 _symmetry_equiv_pos_site_id
 _symmetry_equiv_pos_as_xyz
  1  'x, y, z'
loop_
 _atom_site_type_symbol
 _atom_site_label
 _atom_site_symmetry_multiplicity
 _atom_site_fract_x
 _atom_site_fract_y
 _atom_site_fract_z
 _atom_site_occupancy
  Ba  Ba0  1  0.34095673  0.43952530  0.22008453  1
  Ba  Ba1  1  0.53767072  0.63992675  0.81749272  1
  Gd  Gd0  1  0.58685860  0.94213056  0.47116737  1
  Mg  Mg0  1  0.15312436  0.22717955  0.60739392  1
  Sb  Sb0  1  0.91207225  0.05928264  0.03070098  1
  O  O0  1  0.73425110  0.03273548  0.24520625  1
  O  O1  1  0.71825054  0.04312101  0.80442433  1
  O  O2  1  0.30452426  0.97402202  0.70750015  1
  O  O3  1  0.30898076  0.97445513  0.25791266  1
  O  O4  1  0.73419222  0.47816439  0.24539349  1
  O  O5  1  0.30453546  0.42904017  0.70730661  1
loop_
_geom_bond_atom_site_label_1
_geom_bond_atom_site_label_2
_geom_bond_distance
_geom_bond_site_symmetry_2
Ba0 O1 2.873369 1_554
Ba0 O4 2.968127 1_555
Ba0 O0 2.968280 1_555
Ba0 O5 3.163016 1_555
Ba0 O2 3.164814 1_555
Ba0 O3 3.200918 1_545
Ba0 O3 3.201239 1_555
Ba0 O2 3.253754 1_544
Ba0 O5 3.255422 1_554
Ba1 O3 2.486736 1_556
Ba1 O5 2.492376 1_555
Ba1 O2 2.492511 1_555
Gd0 O4 2.228032 1_555
Gd0 O0 2.228056 1_565
Gd0 O1 2.236644 1_565
Gd0 O3 2.417887 1_555
Gd0 O2 2.427577 1_555
Gd0 O5 2.427904 1_565
Mg0 O2 1.920666 1_545
Mg0 O5 1.920851 1_555
Mg0 O3 1.924315 1_545
O0 Sb0 2.005847 1_555
O1 Sb0 2.007996 1_556
O4 Sb0 2.005808 1_555
