# generated using pymatgen
data_La3(TaN3)2
_symmetry_space_group_name_H-M   'P 1'
_cell_length_a   4.07463522
_cell_length_b   4.07463536
_cell_length_c   10.47807865
_cell_angle_alpha   101.21179591
_cell_angle_beta   101.21180284
_cell_angle_gamma   90.00000913
_symmetry_Int_Tables_number   1
_chemical_formula_structural   La3(TaN3)2
_chemical_formula_sum   'La3 Ta2 N6'
_cell_volume   167.25785404
_cell_formula_units_Z   1
loop_
 _symmetry_equiv_pos_site_id
 _symmetry_equiv_pos_as_xyz
  1  'x, y, z'
loop_
 _atom_site_type_symbol
 _atom_site_label
 _atom_site_symmetry_multiplicity
 _atom_site_fract_x
 _atom_site_fract_y
 _atom_site_fract_z
 _atom_site_occupancy
  La  La0  1  0.18029917  0.18029917  0.36059834  1
  La  La1  1  0.81970083  0.81970083  0.63940166  1
  La  La2  1  -0.00000000  -0.00000000  -0.00000000  1
  Ta  Ta0  1  0.60095012  0.60095012  0.20190025  1
  Ta  Ta1  1  0.39904988  0.39904988  0.79809975  1
  N  N0  1  0.58576119  0.08576119  0.17152139  1
  N  N1  1  0.08576119  0.58576119  0.17152139  1
  N  N2  1  0.41423881  0.91423881  0.82847861  1
  N  N3  1  0.91423881  0.41423881  0.82847861  1
  N  N4  1  0.69770763  0.69770763  0.39541526  1
  N  N5  1  0.30229237  0.30229237  0.60458474  1
loop_
_geom_bond_atom_site_label_1
_geom_bond_atom_site_label_2
_geom_bond_distance
_geom_bond_site_symmetry_2
La0 N5 2.457959 1_555
La0 N0 2.789065 1_455
La0 N1 2.789066 1_545
La0 N1 2.789069 1_555
La0 N0 2.789069 1_555
La0 N4 2.902473 1_555
La0 N4 2.902473 1_445
La0 N4 2.902474 1_545
La0 N4 2.902474 1_455
La1 N4 2.457959 1_555
La1 N2 2.789065 1_655
La1 N3 2.789066 1_565
La1 N3 2.789069 1_555
La1 N2 2.789069 1_555
La1 N5 2.902473 1_555
La1 N5 2.902473 1_665
La1 N5 2.902474 1_565
La1 N5 2.902474 1_655
La2 N1 2.671407 1_545
La2 N3 2.671407 1_454
La2 N0 2.671407 1_455
La2 N2 2.671407 1_544
La2 N2 2.671409 1_444
La2 N0 2.671409 1_555
La2 N3 2.671410 1_444
La2 N1 2.671410 1_555
N0 Ta0 2.060174 1_555
N0 Ta0 2.060178 1_545
N1 Ta0 2.060174 1_555
N1 Ta0 2.060178 1_455
N2 Ta1 2.060174 1_555
N2 Ta1 2.060178 1_565
N3 Ta1 2.060174 1_555
N3 Ta1 2.060178 1_655
N4 Ta0 1.949502 1_555
N5 Ta1 1.949502 1_555
