# generated using pymatgen
data_TaNbSi2SO12
_symmetry_space_group_name_H-M   'P 1'
_cell_length_a   8.89486631
_cell_length_b   8.90722324
_cell_length_c   22.93288352
_cell_angle_alpha   90.82242272
_cell_angle_beta   89.94378548
_cell_angle_gamma   119.88188511
_symmetry_Int_Tables_number   1
_chemical_formula_structural   TaNbSi2SO12
_chemical_formula_sum   'Ta6 Nb6 Si12 S6 O72'
_cell_volume   1575.18290040
_cell_formula_units_Z   6
loop_
 _symmetry_equiv_pos_site_id
 _symmetry_equiv_pos_as_xyz
  1  'x, y, z'
loop_
 _atom_site_type_symbol
 _atom_site_label
 _atom_site_symmetry_multiplicity
 _atom_site_fract_x
 _atom_site_fract_y
 _atom_site_fract_z
 _atom_site_occupancy
  Ta  Ta0  1  0.00520548  0.00737420  0.85805798  1
  Ta  Ta1  1  0.67207586  0.34223396  0.19092961  1
  Ta  Ta2  1  0.65523762  0.34145659  0.97491043  1
  Ta  Ta3  1  0.33677278  0.67574091  0.02448881  1
  Ta  Ta4  1  0.33883705  0.67469064  0.52453933  1
  Ta  Ta5  1  0.35307920  0.67515747  0.80873048  1
  Nb  Nb0  1  0.00312470  0.00926953  0.35832608  1
  Nb  Nb1  1  0.98759422  0.00928985  0.64152439  1
  Nb  Nb2  1  0.02230327  0.00882381  0.14122753  1
  Nb  Nb3  1  0.66915200  0.34161831  0.69177982  1
  Nb  Nb4  1  0.68820432  0.34229045  0.47484072  1
  Nb  Nb5  1  0.32091517  0.67531537  0.30791363  1
  Si  Si0  1  0.28964991  0.00918941  0.25031201  1
  Si  Si1  1  0.99910592  0.28177799  0.24989742  1
  Si  Si2  1  0.28042362  0.28214462  0.75056112  1
  Si  Si3  1  0.71874333  0.00660738  0.75093444  1
  Si  Si4  1  0.95580983  0.34233464  0.58372762  1
  Si  Si5  1  0.66639801  0.61552542  0.58356934  1
  Si  Si6  1  0.94837062  0.61429370  0.08316573  1
  Si  Si7  1  0.38764828  0.34258312  0.08339556  1
  Si  Si8  1  0.62127281  0.67395730  0.91700045  1
  Si  Si9  1  0.33382015  0.94914749  0.91694241  1
  Si  Si10  1  0.61395740  0.94787404  0.41691260  1
  Si  Si11  1  0.05358606  0.67500246  0.41725827  1
  S  S0  1  0.71372688  0.71611243  0.25014979  1
  S  S1  1  0.00403792  0.71737449  0.75095523  1
  S  S2  1  0.38021478  0.04919921  0.58353186  1
  S  S3  1  0.66892386  0.05092583  0.08335658  1
  S  S4  1  0.04778796  0.38383352  0.91709393  1
  S  S5  1  0.33666725  0.38455075  0.41727722  1
  O  O0  1  0.19185733  0.03064709  0.30681404  1
  O  O1  1  0.82321105  0.79217402  0.30291525  1
  O  O2  1  0.96985775  0.16230373  0.30707290  1
  O  O3  1  0.19072521  0.16171312  0.80725883  1
  O  O4  1  0.97281715  0.79728400  0.80358759  1
  O  O5  1  0.83926185  0.02946086  0.80701796  1
  O  O6  1  0.80458997  0.96907163  0.69269267  1
  O  O7  1  0.16225225  0.18373808  0.69288868  1
  O  O8  1  0.03299764  0.81940666  0.69856123  1
  O  O9  1  0.78859979  0.81868834  0.19786899  1
  O  O10  1  0.02044806  0.18268013  0.19266903  1
  O  O11  1  0.16536941  0.96964110  0.19230609  1
  O  O12  1  0.85825379  0.36380915  0.64024901  1
  O  O13  1  0.48982263  0.12532835  0.63629916  1
  O  O14  1  0.63679116  0.49554036  0.64059645  1
  O  O15  1  0.85804750  0.49484247  0.14013646  1
  O  O16  1  0.63637996  0.12891518  0.13613314  1
  O  O17  1  0.50560953  0.36344328  0.14009549  1
  O  O18  1  0.47352552  0.30363858  0.02575191  1
  O  O19  1  0.82917295  0.51501142  0.02597491  1
  O  O20  1  0.69583228  0.15401324  0.03106274  1
  O  O21  1  0.45518427  0.15191668  0.53130258  1
  O  O22  1  0.68764141  0.51675786  0.52625749  1
  O  O23  1  0.83176770  0.30294937  0.52576407  1
  O  O24  1  0.52389824  0.69662115  0.97349122  1
  O  O25  1  0.15820327  0.46197096  0.96970205  1
  O  O26  1  0.30359615  0.82848561  0.97369790  1
  O  O27  1  0.52464146  0.82842556  0.47378382  1
  O  O28  1  0.30548293  0.46430519  0.47004331  1
  O  O29  1  0.17235104  0.69630231  0.47361694  1
  O  O30  1  0.13836692  0.63630537  0.35912341  1
  O  O31  1  0.49563206  0.84982025  0.35936616  1
  O  O32  1  0.36389090  0.48640500  0.36490876  1
  O  O33  1  0.12236531  0.48705392  0.86477022  1
  O  O34  1  0.35347776  0.84957440  0.85960150  1
  O  O35  1  0.49663927  0.63628213  0.85937774  1
  O  O36  1  0.02805507  0.83964493  0.40465782  1
  O  O37  1  0.80752476  0.97505736  0.40493044  1
  O  O38  1  0.17663743  0.20973724  0.41091881  1
  O  O39  1  0.03157793  0.20834735  0.90952725  1
  O  O40  1  0.16779748  0.97647633  0.90474285  1
  O  O41  1  0.81107680  0.83878360  0.90404037  1
  O  O42  1  0.97514441  0.16890181  0.59183101  1
  O  O43  1  0.20389133  0.02064702  0.59248529  1
  O  O44  1  0.84155988  0.80240564  0.59532375  1
  O  O45  1  0.96074568  0.80207996  0.09488865  1
  O  O46  1  0.81678856  0.02307093  0.09206711  1
  O  O47  1  0.19493635  0.16909316  0.09178974  1
  O  O48  1  0.69407401  0.17188847  0.73796958  1
  O  O49  1  0.47397358  0.30894144  0.73828107  1
  O  O50  1  0.84487657  0.54251022  0.74442580  1
  O  O51  1  0.69756746  0.53987091  0.24242964  1
  O  O52  1  0.83369602  0.30930969  0.23775357  1
  O  O53  1  0.47896878  0.17301040  0.23733460  1
  O  O54  1  0.64152737  0.50151580  0.92593747  1
  O  O55  1  0.87157775  0.35615762  0.92642284  1
  O  O56  1  0.50890102  0.13599136  0.92868095  1
  O  O57  1  0.62733906  0.13578609  0.42833432  1
  O  O58  1  0.48470117  0.35679033  0.42635879  1
  O  O59  1  0.86100611  0.50199284  0.42527488  1
  O  O60  1  0.36134577  0.50652946  0.07067236  1
  O  O61  1  0.14169285  0.64218088  0.07103653  1
  O  O62  1  0.50873213  0.87568140  0.07599066  1
  O  O63  1  0.36411565  0.87309779  0.57577996  1
  O  O64  1  0.50080228  0.64293392  0.57147127  1
  O  O65  1  0.14534623  0.50616073  0.57085101  1
  O  O66  1  0.30861673  0.83563595  0.25844727  1
  O  O67  1  0.53732306  0.68733400  0.25903853  1
  O  O68  1  0.17427778  0.46867775  0.26172400  1
  O  O69  1  0.29351065  0.46950616  0.76227422  1
  O  O70  1  0.15262403  0.68957729  0.76070606  1
  O  O71  1  0.52646057  0.83445271  0.75953141  1
loop_
_geom_bond_atom_site_label_1
_geom_bond_atom_site_label_2
_geom_bond_distance
_geom_bond_site_symmetry_2
Nb0 O37 1.933797 1_445
Nb0 O2 1.943126 1_455
Nb0 O36 1.959920 1_545
Nb0 O0 1.983439 1_555
Nb0 O38 2.054483 1_555
Nb0 O1 2.182881 1_445
Nb1 O42 1.880384 1_555
Nb1 O6 1.892692 1_545
Nb1 O7 1.939379 1_655
Nb1 O44 1.940920 1_545
Nb1 O43 2.186684 1_655
Nb1 O8 2.340893 1_645
Nb2 O47 1.881492 1_555
Nb2 O11 1.889586 1_545
Nb2 O45 1.939208 1_445
Nb2 O10 1.939856 1_555
Nb2 O46 2.206376 1_455
Nb2 O9 2.329511 1_445
Nb3 O49 1.933317 1_555
Nb3 O14 1.944326 1_555
Nb3 O48 1.958867 1_555
Nb3 O12 1.984028 1_555
Nb3 O50 2.063356 1_555
Nb3 O13 2.178605 1_555
Nb4 O59 1.882137 1_555
Nb4 O23 1.891512 1_555
Nb4 O22 1.939201 1_555
Nb4 O57 1.940736 1_555
Nb4 O58 2.184136 1_555
Nb4 O21 2.324582 1_555
Nb5 O66 1.881612 1_555
Nb5 O30 1.892683 1_555
Nb5 O68 1.940517 1_555
Nb5 O31 1.940996 1_555
Nb5 O67 2.183335 1_555
Nb5 O32 2.321841 1_555
O0 Si0 1.621262 1_555
O1 S0 1.480876 1_555
O2 Si1 1.637966 1_555
O3 Si2 1.631902 1_555
O3 Ta0 1.936976 1_555
O4 S1 1.487364 1_655
O4 Ta0 2.131118 1_665
O5 Si3 1.619433 1_555
O5 Ta0 1.971502 1_655
O6 Si3 1.648755 1_565
O7 Si2 1.635181 1_555
O8 S1 1.460649 1_555
O9 S0 1.462658 1_555
O10 Si1 1.634265 1_455
O11 Si0 1.648358 1_565
O12 Si4 1.620422 1_555
O13 S2 1.481455 1_555
O14 Si5 1.637339 1_555
O15 Si6 1.634184 1_555
O15 Ta1 1.934443 1_555
O16 S3 1.485522 1_555
O16 Ta1 2.149734 1_555
O17 Si7 1.621015 1_555
O17 Ta1 1.968658 1_555
O18 Si7 1.643234 1_555
O18 Ta2 1.884249 1_554
O19 Si6 1.631411 1_555
O19 Ta2 1.929560 1_554
O20 S3 1.466518 1_555
O20 Ta2 2.289006 1_554
O21 S2 1.462320 1_555
O22 Si5 1.633728 1_555
O23 Si4 1.646571 1_555
O24 Si8 1.622888 1_555
O24 Ta3 1.966406 1_556
O25 S4 1.483788 1_555
O25 Ta3 2.156085 1_556
O26 Si9 1.634941 1_555
O26 Ta3 1.934186 1_556
O27 Si10 1.630861 1_555
O27 Ta4 1.936057 1_555
O28 S5 1.488924 1_555
O28 Ta4 2.130987 1_555
O29 Si11 1.618140 1_555
O29 Ta4 1.971720 1_555
O30 Si11 1.645830 1_555
O31 Si10 1.632744 1_555
O32 S5 1.461447 1_555
O33 S4 1.465464 1_555
O33 Ta5 2.302347 1_555
O34 Si9 1.633095 1_555
O34 Ta5 1.927974 1_555
O35 Si8 1.645387 1_555
O35 Ta5 1.885365 1_555
O36 Si11 1.621683 1_555
O37 Si10 1.638341 1_555
O38 S5 1.502459 1_555
O39 S4 1.503947 1_555
O39 Ta0 2.043085 1_555
O40 Si9 1.636849 1_555
O40 Ta0 1.929160 1_565
O41 Si8 1.623525 1_555
O41 Ta0 1.951105 1_665
O42 Si4 1.650322 1_555
O43 S2 1.473111 1_555
O44 Si5 1.635455 1_555
O45 Si6 1.638857 1_555
O46 S3 1.469151 1_555
O47 Si7 1.652820 1_555
O48 Si3 1.624344 1_555
O49 Si2 1.640645 1_555
O50 S1 1.499733 1_655
O51 S0 1.511154 1_555
O51 Ta1 2.021974 1_555
O52 Si1 1.632391 1_555
O52 Ta1 1.933362 1_555
O53 Si0 1.617586 1_555
O53 Ta1 1.953851 1_555
O54 Si8 1.648796 1_555
O54 Ta2 1.878365 1_555
O55 S4 1.476155 1_655
O55 Ta2 2.169216 1_555
O56 Si9 1.634904 1_545
O56 Ta2 1.934155 1_555
O57 Si10 1.635010 1_545
O58 S5 1.471315 1_555
O59 Si11 1.649260 1_655
O60 Si7 1.620235 1_555
O60 Ta3 1.953386 1_555
O61 Si6 1.634456 1_455
O61 Ta3 1.930929 1_555
O62 S3 1.507334 1_565
O62 Ta3 2.033482 1_555
O63 S2 1.510220 1_565
O63 Ta4 2.024737 1_555
O64 Si5 1.633163 1_555
O64 Ta4 1.931770 1_555
O65 Si4 1.618298 1_455
O65 Ta4 1.952260 1_555
O66 Si0 1.649613 1_565
O67 S0 1.472887 1_555
O68 Si1 1.635840 1_455
O69 Si2 1.632315 1_555
O69 Ta5 1.936278 1_555
O70 S1 1.478618 1_555
O70 Ta5 2.155161 1_555
O71 Si3 1.646271 1_565
O71 Ta5 1.877972 1_555
