# generated using pymatgen
data_Na14Zr4Si11Ge4SO48
_symmetry_space_group_name_H-M   'P 1'
_cell_length_a   18.04208310
_cell_length_b   9.02975049
_cell_length_c   22.21558977
_cell_angle_alpha   90.30212218
_cell_angle_beta   89.95587716
_cell_angle_gamma   119.97826479
_symmetry_Int_Tables_number   1
_chemical_formula_structural   Na14Zr4Si11Ge4SO48
_chemical_formula_sum   'Na42 Zr12 Si33 Ge12 S3 O144'
_cell_volume   3135.01007141
_cell_formula_units_Z   3
loop_
 _symmetry_equiv_pos_site_id
 _symmetry_equiv_pos_as_xyz
  1  'x, y, z'
loop_
 _atom_site_type_symbol
 _atom_site_label
 _atom_site_symmetry_multiplicity
 _atom_site_fract_x
 _atom_site_fract_y
 _atom_site_fract_z
 _atom_site_occupancy
  Na  Na0  1  0.31858772  0.99982516  0.24963629  1
  Na  Na1  1  0.81854084  0.00034850  0.25004129  1
  Na  Na2  1  0.31929408  0.64013205  0.75212285  1
  Na  Na3  1  0.81906269  0.63645581  0.74936269  1
  Na  Na4  1  0.50373029  0.36447839  0.75351069  1
  Na  Na5  1  0.68383246  0.00340836  0.74942816  1
  Na  Na6  1  0.14741514  0.33349058  0.58104577  1
  Na  Na7  1  0.65170037  0.33356843  0.58228332  1
  Na  Na8  1  0.01347205  0.69129592  0.58366990  1
  Na  Na9  1  0.52244879  0.70749689  0.58066753  1
  Na  Na10  1  0.33353483  0.96868079  0.58369130  1
  Na  Na11  1  0.83078478  0.95966126  0.58143262  1
  Na  Na12  1  0.14826366  0.96266927  0.08077835  1
  Na  Na13  1  0.64992125  0.96639544  0.07998251  1
  Na  Na14  1  0.33191319  0.69960156  0.08232481  1
  Na  Na15  1  0.83153090  0.70154569  0.08190304  1
  Na  Na16  1  0.01892104  0.33868877  0.08207836  1
  Na  Na17  1  0.52068461  0.33860371  0.08226637  1
  Na  Na18  1  0.48272233  0.67008759  0.91637085  1
  Na  Na19  1  0.97927332  0.66009365  0.91844969  1
  Na  Na20  1  0.35173526  0.03798475  0.91651747  1
  Na  Na21  1  0.85162842  0.04169573  0.91826047  1
  Na  Na22  1  0.16514110  0.29953037  0.91984106  1
  Na  Na23  1  0.66949909  0.29313728  0.91881881  1
  Na  Na24  1  0.48538738  0.30186322  0.41543789  1
  Na  Na25  1  0.97887796  0.29691638  0.41818716  1
  Na  Na26  1  0.16410856  0.02786011  0.41696435  1
  Na  Na27  1  0.66854674  0.04267105  0.42061351  1
  Na  Na28  1  0.35114082  0.66420429  0.41523189  1
  Na  Na29  1  0.84944720  0.66068536  0.41810676  1
  Na  Na30  1  0.99991890  0.00025755  0.49936747  1
  Na  Na31  1  0.50205862  0.00045006  0.50073211  1
  Na  Na32  1  0.00124627  0.00193544  0.00087704  1
  Na  Na33  1  0.50104330  0.00062540  0.00032755  1
  Na  Na34  1  0.33247621  0.32413499  0.83356452  1
  Na  Na35  1  0.83942296  0.33500043  0.83058361  1
  Na  Na36  1  0.33730142  0.34867802  0.32738566  1
  Na  Na37  1  0.83630838  0.34754607  0.33003799  1
  Na  Na38  1  0.16262447  0.65207620  0.16946699  1
  Na  Na39  1  0.66297124  0.65127611  0.16991248  1
  Na  Na40  1  0.16195472  0.67369229  0.67093761  1
  Na  Na41  1  0.66820268  0.66876608  0.66711179  1
  Zr  Zr0  1  0.98971005  0.99241225  0.35015172  1
  Zr  Zr1  1  0.49617955  0.99647660  0.35070250  1
  Zr  Zr2  1  0.99277995  0.98849875  0.85438384  1
  Zr  Zr3  1  0.50235713  0.00526444  0.85426342  1
  Zr  Zr4  1  0.99269480  0.98214653  0.64760152  1
  Zr  Zr5  1  0.50189872  0.00145479  0.65042850  1
  Zr  Zr6  1  0.99393203  0.00317589  0.14819265  1
  Zr  Zr7  1  0.49758097  0.00721287  0.14927242  1
  Zr  Zr8  1  0.33803943  0.32972790  0.68415508  1
  Zr  Zr9  1  0.33415484  0.33813634  0.97913751  1
  Zr  Zr10  1  0.33448690  0.33322695  0.47736503  1
  Zr  Zr11  1  0.16305543  0.66126152  0.51928966  1
  Si  Si0  1  0.34413953  0.68727591  0.24959637  1
  Si  Si1  1  0.84262825  0.68360868  0.24906128  1
  Si  Si2  1  0.99946862  0.31342135  0.24958201  1
  Si  Si3  1  0.50112615  0.31474040  0.25026727  1
  Si  Si4  1  0.65360808  0.30781116  0.75072600  1
  Si  Si5  1  0.00164872  0.69036323  0.75001165  1
  Si  Si6  1  0.50401844  0.70175493  0.75349165  1
  Si  Si7  1  0.34412315  0.98844098  0.75328671  1
  Si  Si8  1  0.84778127  0.00425908  0.75105390  1
  Si  Si9  1  0.48796978  0.34240250  0.57985058  1
  Si  Si10  1  0.96987371  0.32965622  0.58355684  1
  Si  Si11  1  0.18414297  0.03808071  0.58157153  1
  Si  Si12  1  0.69476954  0.04869856  0.58152910  1
  Si  Si13  1  0.33339516  0.62910369  0.58460635  1
  Si  Si14  1  0.82855343  0.60663404  0.58096632  1
  Si  Si15  1  0.48475536  0.62730931  0.08241117  1
  Si  Si16  1  0.97847393  0.61744459  0.07893752  1
  Si  Si17  1  0.32868740  0.04219850  0.08468075  1
  Si  Si18  1  0.82916308  0.05228627  0.08184608  1
  Si  Si19  1  0.19081405  0.33975190  0.08468395  1
  Si  Si20  1  0.69585022  0.34049093  0.08122294  1
  Si  Si21  1  0.30310082  0.66739587  0.91614103  1
  Si  Si22  1  0.80459508  0.65745736  0.91968139  1
  Si  Si23  1  0.02477063  0.38955908  0.91894325  1
  Si  Si24  1  0.53037929  0.39419084  0.91707086  1
  Si  Si25  1  0.16633802  0.94828416  0.91902015  1
  Si  Si26  1  0.67090586  0.95177687  0.91991567  1
  Si  Si27  1  0.30697528  0.94826353  0.41208413  1
  Si  Si28  1  0.80311498  0.94861653  0.41773799  1
  Si  Si29  1  0.16577732  0.37196078  0.41435475  1
  Si  Si30  1  0.67074101  0.38309312  0.42061300  1
  Si  Si31  1  0.01912390  0.65861276  0.41462864  1
  Si  Si32  1  0.53152910  0.66970400  0.41608709  1
  Ge  Ge0  1  0.83378099  0.33344272  0.68634313  1
  Ge  Ge1  1  0.34448953  0.35639084  0.18120761  1
  Ge  Ge2  1  0.84426995  0.35585261  0.18034027  1
  Ge  Ge3  1  0.83352367  0.33389668  0.97949392  1
  Ge  Ge4  1  0.83290424  0.33058231  0.47953617  1
  Ge  Ge5  1  0.16522697  0.66607757  0.02083222  1
  Ge  Ge6  1  0.66814059  0.66873924  0.02122649  1
  Ge  Ge7  1  0.66818940  0.66753190  0.51978178  1
  Ge  Ge8  1  0.16394185  0.64425810  0.31631494  1
  Ge  Ge9  1  0.66841369  0.64459458  0.31845228  1
  Ge  Ge10  1  0.16316449  0.68096478  0.81827304  1
  Ge  Ge11  1  0.67035279  0.67178205  0.81525660  1
  S  S0  1  0.14899653  -0.00012037  0.24980166  1
  S  S1  1  0.65142146  0.00093980  0.24972117  1
  S  S2  1  0.14637521  0.29639240  0.75086032  1
  O  O0  1  0.10508243  0.01830073  0.30410101  1
  O  O1  1  0.60782495  0.02059029  0.30421147  1
  O  O2  1  0.40555431  0.77919320  0.30906803  1
  O  O3  1  0.90291884  0.77461588  0.30839139  1
  O  O4  1  0.48179026  0.18232297  0.30727062  1
  O  O5  1  0.97945171  0.18293136  0.30710108  1
  O  O6  1  0.10482792  0.19215460  0.80509121  1
  O  O7  1  0.60989949  0.18082491  0.80847728  1
  O  O8  1  0.48547222  0.79135106  0.81084396  1
  O  O9  1  0.98356273  0.78538576  0.80773549  1
  O  O10  1  0.40933167  0.02860982  0.81039973  1
  O  O11  1  0.90759919  0.03172398  0.81013133  1
  O  O12  1  0.39037757  0.95980370  0.69350124  1
  O  O13  1  0.89007248  0.96015566  0.69303986  1
  O  O14  1  0.09616533  0.21028794  0.69604776  1
  O  O15  1  0.58938532  0.22226246  0.69295203  1
  O  O16  1  0.01692356  0.81275677  0.69098714  1
  O  O17  1  0.52042161  0.82090515  0.69372652  1
  O  O18  1  0.39183307  0.81973136  0.19289243  1
  O  O19  1  0.88839114  0.81604288  0.19200141  1
  O  O20  1  0.01435631  0.21861894  0.19105177  1
  O  O21  1  0.51638341  0.22378940  0.19066711  1
  O  O22  1  0.09572107  0.98075288  0.19542575  1
  O  O23  1  0.59749231  0.98212622  0.19581108  1
  O  O24  1  0.44504458  0.37515731  0.64008334  1
  O  O25  1  0.92625915  0.36927749  0.64080581  1
  O  O26  1  0.24793030  0.13238414  0.63794337  1
  O  O27  1  0.75282037  0.13363989  0.64224359  1
  O  O28  1  0.31917972  0.51292074  0.64412201  1
  O  O29  1  0.81154804  0.49238097  0.64182308  1
  O  O30  1  0.43972595  0.49494097  0.13842008  1
  O  O31  1  0.93956466  0.49360698  0.13769486  1
  O  O32  1  0.31378543  0.13736616  0.14344607  1
  O  O33  1  0.81337530  0.13934568  0.14243983  1
  O  O34  1  0.25928143  0.37555159  0.13915895  1
  O  O35  1  0.76048077  0.37784180  0.13824905  1
  O  O36  1  0.22641973  0.29937166  0.02264362  1
  O  O37  1  0.73456209  0.29806709  0.02016952  1
  O  O38  1  0.42479019  0.55451877  0.02246141  1
  O  O39  1  0.91529019  0.53492417  0.02011269  1
  O  O40  1  0.35001971  0.15919987  0.02451106  1
  O  O41  1  0.85148592  0.17457594  0.02216352  1
  O  O42  1  0.22687771  0.15184156  0.52128409  1
  O  O43  1  0.73500790  0.17063571  0.52171827  1
  O  O44  1  0.34794958  0.54024501  0.52482606  1
  O  O45  1  0.85150640  0.52803766  0.52154457  1
  O  O46  1  0.42476657  0.30124966  0.52233998  1
  O  O47  1  0.91417393  0.29551320  0.52063026  1
  O  O48  1  0.26209835  0.69981042  0.97807436  1
  O  O49  1  0.76549942  0.70143427  0.97936479  1
  O  O50  1  0.08508447  0.46723834  0.97960425  1
  O  O51  1  0.58745274  0.47596381  0.97842209  1
  O  O52  1  0.14809086  0.83001785  0.97925597  1
  O  O53  1  0.65078859  0.82910542  0.97907560  1
  O  O54  1  0.26934809  0.83890983  0.47376746  1
  O  O55  1  0.76509106  0.82712305  0.47770519  1
  O  O56  1  0.14689681  0.44486641  0.47649523  1
  O  O57  1  0.64860477  0.46640181  0.47891315  1
  O  O58  1  0.07521985  0.70215298  0.47657051  1
  O  O59  1  0.58687671  0.70252492  0.47877218  1
  O  O60  1  0.06962522  0.62484248  0.35978008  1
  O  O61  1  0.57677316  0.63194940  0.35925945  1
  O  O62  1  0.24360596  0.85384430  0.35425231  1
  O  O63  1  0.74541640  0.86214866  0.35676477  1
  O  O64  1  0.18634865  0.50367906  0.35907809  1
  O  O65  1  0.69360711  0.50624107  0.36162262  1
  O  O66  1  0.06872130  0.51550026  0.86110436  1
  O  O67  1  0.57268005  0.50942512  0.85660457  1
  O  O68  1  0.18716534  0.86894131  0.85986312  1
  O  O69  1  0.68788294  0.86820972  0.85899978  1
  O  O70  1  0.24225842  0.63079335  0.85606401  1
  O  O71  1  0.74864482  0.62872939  0.85831024  1
  O  O72  1  0.00909464  0.82874825  0.40795691  1
  O  O73  1  0.52048116  0.83976845  0.41095608  1
  O  O74  1  0.40370433  0.97121619  0.41017891  1
  O  O75  1  0.90015009  0.97227225  0.41332962  1
  O  O76  1  0.08217683  0.18123622  0.40805414  1
  O  O77  1  0.58575829  0.19301014  0.41210014  1
  O  O78  1  0.01506299  0.19830473  0.91260310  1
  O  O79  1  0.51897557  0.20184758  0.91508808  1
  O  O80  1  0.08214837  0.97248554  0.91371274  1
  O  O81  1  0.58552639  0.97321984  0.91610874  1
  O  O82  1  0.39978170  0.83655457  0.91429083  1
  O  O83  1  0.90102155  0.82958837  0.91533117  1
  O  O84  1  0.49555492  0.17112233  0.58614267  1
  O  O85  1  0.98246234  0.16196744  0.58945959  1
  O  O86  1  0.09124682  0.02698446  0.58636396  1
  O  O87  1  0.59858741  0.02499023  0.58713234  1
  O  O88  1  0.41932791  0.81768290  0.58658988  1
  O  O89  1  0.91397477  0.79975916  0.58584333  1
  O  O90  1  0.49635667  0.81735667  0.09147727  1
  O  O91  1  0.98923453  0.80842584  0.08725211  1
  O  O92  1  0.41394277  0.01912564  0.08893639  1
  O  O93  1  0.91427741  0.02784620  0.08640091  1
  O  O94  1  0.09592806  0.16798282  0.09121002  1
  O  O95  1  0.59983686  0.17069016  0.08820839  1
  O  O96  1  0.34020782  0.16406235  0.74831021  1
  O  O97  1  0.83611824  0.17045796  0.74333697  1
  O  O98  1  0.23336666  0.31738440  0.74820842  1
  O  O99  1  0.74614198  0.31898365  0.74206849  1
  O  O100  1  0.41720945  0.51463461  0.74956064  1
  O  O101  1  0.91021332  0.51150027  0.74221464  1
  O  O102  1  0.33879373  0.50171138  0.24034509  1
  O  O103  1  0.83763451  0.49922837  0.23980310  1
  O  O104  1  0.40806738  0.30928517  0.24125131  1
  O  O105  1  0.90729623  0.30928992  0.24038285  1
  O  O106  1  0.23411094  0.15322480  0.24697283  1
  O  O107  1  0.73587597  0.15505242  0.24674640  1
  O  O108  1  0.31484012  0.49813163  0.91736838  1
  O  O109  1  0.81706825  0.48764069  0.92289197  1
  O  O110  1  0.43364714  0.36938487  0.91807294  1
  O  O111  1  0.92704476  0.36478887  0.92330286  1
  O  O112  1  0.25124473  0.13908065  0.92010426  1
  O  O113  1  0.75717477  0.14592779  0.92357203  1
  O  O114  1  0.31866670  0.13930548  0.41423431  1
  O  O115  1  0.81563038  0.14308246  0.42252609  1
  O  O116  1  0.25253252  0.35853623  0.41597247  1
  O  O117  1  0.75625333  0.36150820  0.42530716  1
  O  O118  1  0.43475213  0.50213083  0.41847999  1
  O  O119  1  0.92375881  0.48424795  0.42017386  1
  O  O120  1  0.18103131  0.51210417  0.07965219  1
  O  O121  1  0.68411606  0.51175692  0.07693792  1
  O  O122  1  0.07477472  0.63791040  0.07502342  1
  O  O123  1  0.57893126  0.63978217  0.07782478  1
  O  O124  1  0.24276404  0.85026637  0.07941912  1
  O  O125  1  0.74498225  0.85740599  0.07739477  1
  O  O126  1  0.17441463  0.84972405  0.58112396  1
  O  O127  1  0.68446652  0.85533227  0.57641650  1
  O  O128  1  0.24780559  0.64616332  0.58219014  1
  O  O129  1  0.74530266  0.63564139  0.57577901  1
  O  O130  1  0.06615842  0.49704093  0.58068942  1
  O  O131  1  0.58090598  0.51967725  0.57642415  1
  O  O132  1  0.15691181  0.84517048  0.25246431  1
  O  O133  1  0.65875629  0.84672134  0.25237919  1
  O  O134  1  0.25318274  0.68988418  0.25713102  1
  O  O135  1  0.75293599  0.69026950  0.25841556  1
  O  O136  1  0.08653322  0.49963409  0.25757153  1
  O  O137  1  0.58827033  0.49924267  0.25962064  1
  O  O138  1  0.15464048  0.46759223  0.75391818  1
  O  O139  1  0.66074040  0.49539958  0.75804821  1
  O  O140  1  0.08809999  0.67615671  0.75885864  1
  O  O141  1  0.59059061  0.68741574  0.75874876  1
  O  O142  1  0.25290738  0.80774137  0.75921835  1
  O  O143  1  0.75502016  0.82573186  0.75839582  1
loop_
_geom_bond_atom_site_label_1
_geom_bond_atom_site_label_2
_geom_bond_distance
_geom_bond_site_symmetry_2
Na0 O104 2.438474 1_565
Na0 O134 2.440716 1_555
Na0 O106 2.521102 1_565
Na0 O132 2.528368 1_555
Na0 O62 2.685995 1_555
Na0 O32 2.693320 1_565
Na0 O18 2.846652 1_555
Na0 O4 2.856500 1_565
Na1 O105 2.435995 1_555
Na1 O135 2.443045 1_545
Na1 O133 2.498378 1_545
Na1 O107 2.502907 1_555
Na1 O63 2.701896 1_545
Na1 O33 2.728923 1_555
Na1 O5 2.820241 1_555
Na1 O19 2.844512 1_545
Na2 O142 2.357716 1_555
Na2 O98 2.527199 1_555
Na2 O100 2.531412 1_555
Na2 O138 2.574713 1_555
Na2 O28 2.654187 1_555
Na2 O70 2.674113 1_555
Na2 O12 2.830288 1_555
Na2 O8 2.907141 1_555
Na3 O101 2.419693 1_555
Na3 O139 2.486923 1_555
Na3 O99 2.490276 1_555
Na3 O143 2.503194 1_555
Na3 O29 2.685129 1_555
Na3 O71 2.717624 1_555
Na3 O13 2.836251 1_555
Na3 O9 2.880557 1_555
Na4 O139 2.466763 1_555
Na4 O100 2.529719 1_555
Na4 O141 2.530343 1_555
Na4 O96 2.579777 1_555
Na4 O67 2.617569 1_555
Na4 O24 2.754770 1_555
Na4 O15 2.794483 1_555
Na4 O10 2.927640 1_555
Na5 O97 2.387996 1_555
Na5 O99 2.492758 1_555
Na5 O141 2.494634 1_545
Na5 O143 2.515224 1_545
Na5 O27 2.676623 1_555
Na5 O69 2.746235 1_545
Na5 O17 2.840426 1_545
Na5 O7 2.859603 1_555
Na6 O86 2.429261 1_555
Na6 O128 2.478203 1_555
Na6 O56 2.537773 1_555
Na6 O130 2.548358 1_555
Na6 O85 2.585865 1_455
Na6 O14 2.760100 1_555
Na7 O129 2.390254 1_555
Na7 O84 2.442710 1_555
Na7 O87 2.455296 1_555
Na7 O131 2.572967 1_555
Na7 O57 2.609901 1_555
Na7 O15 2.685390 1_555
Na7 O29 2.824224 1_555
Na7 O43 2.901709 1_555
Na8 O130 2.376910 1_555
Na8 O89 2.437300 1_455
Na8 O126 2.516100 1_555
Na8 O16 2.606755 1_555
Na8 O58 2.607858 1_555
Na8 O86 2.628360 1_565
Na8 O25 2.829408 1_455
Na8 O45 2.880452 1_455
Na9 O131 2.404840 1_555
Na9 O87 2.487372 1_565
Na9 O88 2.513346 1_555
Na9 O127 2.537120 1_555
Na9 O59 2.554297 1_555
Na9 O17 2.714530 1_555
Na9 O24 2.923872 1_555
Na9 O44 2.994398 1_555
Na10 O126 2.513322 1_555
Na10 O88 2.523757 1_555
Na10 O128 2.524331 1_555
Na10 O84 2.559035 1_565
Na10 O12 2.664093 1_555
Na10 O54 2.701065 1_555
Na10 O26 2.878023 1_565
Na10 O46 2.947042 1_565
Na11 O127 2.320116 1_555
Na11 O85 2.420590 1_565
Na11 O129 2.538065 1_555
Na11 O89 2.552368 1_555
Na11 O55 2.589360 1_555
Na11 O13 2.700175 1_555
Na11 O27 2.907704 1_565
Na11 O47 2.960663 1_565
Na12 O124 2.380549 1_555
Na12 O94 2.475258 1_565
Na12 O91 2.490149 1_455
Na12 O122 2.546475 1_555
Na12 O52 2.547407 1_554
Na12 O22 2.749349 1_555
Na12 O32 2.936054 1_565
Na12 O36 2.941810 1_565
Na13 O125 2.366319 1_555
Na13 O90 2.414338 1_555
Na13 O95 2.432079 1_565
Na13 O53 2.559758 1_554
Na13 O123 2.562117 1_555
Na13 O23 2.768210 1_555
Na13 O33 2.905509 1_565
Na13 O37 2.921560 1_565
Na14 O120 2.381975 1_555
Na14 O92 2.503003 1_565
Na14 O124 2.574873 1_555
Na14 O90 2.611604 1_555
Na14 O48 2.637671 1_554
Na14 O18 2.680112 1_555
Na14 O34 2.842164 1_555
Na14 O38 2.909444 1_555
Na15 O121 2.338032 1_555
Na15 O91 2.509262 1_555
Na15 O93 2.553703 1_565
Na15 O49 2.571246 1_554
Na15 O125 2.574300 1_555
Na15 O19 2.649721 1_555
Na15 O35 2.836464 1_555
Na15 O39 2.945997 1_555
Na16 O122 2.371406 1_555
Na16 O93 2.481694 1_455
Na16 O120 2.536364 1_555
Na16 O94 2.547832 1_555
Na16 O50 2.567855 1_554
Na16 O20 2.642198 1_555
Na16 O31 2.741155 1_455
Na16 O41 2.933446 1_455
Na17 O123 2.378388 1_555
Na17 O92 2.550486 1_555
Na17 O95 2.553816 1_555
Na17 O121 2.558767 1_555
Na17 O21 2.612635 1_555
Na17 O51 2.616174 1_554
Na17 O30 2.778828 1_555
Na17 O40 2.958217 1_555
Na18 O110 2.399281 1_555
Na18 O81 2.420566 1_555
Na18 O38 2.582328 1_556
Na18 O8 2.582631 1_555
Na18 O82 2.598000 1_555
Na18 O108 2.624154 1_555
Na19 O111 2.345586 1_555
Na19 O80 2.486712 1_655
Na19 O39 2.535731 1_556
Na19 O109 2.538920 1_555
Na19 O83 2.549726 1_555
Na19 O9 2.697601 1_555
Na19 O66 2.831449 1_655
Na19 O52 2.961458 1_655
Na20 O82 2.374195 1_545
Na20 O112 2.404137 1_555
Na20 O110 2.592208 1_555
Na20 O10 2.593590 1_555
Na20 O79 2.614096 1_555
Na20 O40 2.638353 1_556
Na20 O68 2.861182 1_545
Na20 O48 2.985911 1_545
Na21 O113 2.324917 1_555
Na21 O83 2.484142 1_545
Na21 O111 2.530849 1_555
Na21 O78 2.558239 1_655
Na21 O41 2.596473 1_556
Na21 O11 2.623557 1_555
Na22 O108 2.382063 1_555
Na22 O78 2.391414 1_555
Na22 O36 2.538440 1_556
Na22 O80 2.560995 1_545
Na22 O112 2.600345 1_555
Na22 O6 2.747114 1_555
Na22 O50 2.881666 1_555
Na22 O70 2.961970 1_555
Na23 O109 2.346733 1_555
Na23 O79 2.413328 1_555
Na23 O81 2.503710 1_545
Na23 O113 2.526541 1_555
Na23 O37 2.529881 1_556
Na23 O7 2.661146 1_555
Na24 O118 2.399781 1_555
Na24 O77 2.455362 1_555
Na24 O74 2.588265 1_545
Na24 O114 2.605883 1_555
Na24 O46 2.612751 1_555
Na24 O4 2.616609 1_555
Na24 O61 2.878362 1_555
Na24 O57 2.911985 1_555
Na25 O119 2.352128 1_555
Na25 O75 2.541340 1_545
Na25 O47 2.554178 1_555
Na25 O115 2.554633 1_555
Na25 O76 2.560789 1_655
Na25 O5 2.670870 1_555
Na25 O60 2.885250 1_655
Na25 O56 2.931345 1_655
Na26 O114 2.447126 1_555
Na26 O72 2.463028 1_545
Na26 O76 2.488302 1_555
Na26 O42 2.572245 1_555
Na26 O116 2.588733 1_555
Na26 O0 2.708916 1_555
Na26 O58 2.880879 1_545
Na26 O62 2.948443 1_545
Na27 O115 2.336934 1_555
Na27 O73 2.375874 1_545
Na27 O77 2.477746 1_555
Na27 O117 2.499588 1_555
Na27 O43 2.531819 1_555
Na27 O1 2.776274 1_555
Na28 O116 2.424213 1_555
Na28 O74 2.443987 1_555
Na28 O2 2.570598 1_555
Na28 O118 2.574909 1_555
Na28 O73 2.649075 1_555
Na28 O44 2.673588 1_555
Na28 O64 2.859544 1_555
Na28 O54 2.942671 1_555
Na29 O117 2.369728 1_555
Na29 O75 2.488988 1_555
Na29 O72 2.506935 1_655
Na29 O119 2.544293 1_555
Na29 O45 2.605795 1_555
Na29 O3 2.638360 1_555
Na29 O65 2.737414 1_555
Na29 O55 2.930837 1_555
Na30 O86 2.472072 1_655
Na30 O75 2.550099 1_545
Na30 O76 2.568052 1_655
Na30 O89 2.568936 1_545
Na30 O85 2.581662 1_555
Na30 O72 2.602358 1_645
Na31 O84 2.477636 1_555
Na31 O88 2.481282 1_545
Na31 O87 2.526148 1_555
Na31 O77 2.566765 1_555
Na31 O73 2.577552 1_545
Na31 O74 2.607159 1_545
Na32 O80 2.515762 1_544
Na32 O91 2.537428 1_445
Na32 O83 2.542693 1_444
Na32 O93 2.546423 1_455
Na32 O94 2.570490 1_555
Na32 O78 2.578022 1_554
Na33 O81 2.500557 1_544
Na33 O79 2.537691 1_554
Na33 O82 2.540985 1_544
Na33 O95 2.566167 1_555
Na33 O92 2.574206 1_555
Na33 O90 2.596418 1_545
Na34 O96 2.422405 1_555
Na34 O100 2.486008 1_555
Na34 O112 2.493683 1_555
Na34 O110 2.505055 1_555
Na34 O108 2.550236 1_555
Na34 O98 2.586882 1_555
Na35 O97 2.418496 1_555
Na35 O101 2.453620 1_555
Na35 O111 2.527565 1_555
Na35 O99 2.545386 1_555
Na35 O109 2.606177 1_555
Na35 O113 2.623929 1_555
Na36 O102 2.374909 1_555
Na36 O104 2.420982 1_555
Na36 O116 2.519849 1_555
Na36 O106 2.541759 1_555
Na36 O118 2.578370 1_555
Na36 O114 2.610010 1_555
Na37 O103 2.427172 1_555
Na37 O119 2.460750 1_555
Na37 O105 2.481470 1_555
Na37 O107 2.559731 1_555
Na37 O117 2.599218 1_555
Na37 O115 2.668339 1_555
Na38 O136 2.397138 1_555
Na38 O134 2.453426 1_555
Na38 O120 2.465926 1_555
Na38 O132 2.568241 1_555
Na38 O122 2.594292 1_555
Na38 O124 2.596648 1_555
Na39 O137 2.418373 1_555
Na39 O135 2.459840 1_555
Na39 O123 2.517996 1_555
Na39 O121 2.539797 1_555
Na39 O133 2.564485 1_555
Na39 O125 2.676118 1_555
Na40 O140 2.369864 1_555
Na40 O142 2.449331 1_555
Na40 O126 2.496769 1_555
Na40 O138 2.582554 1_555
Na40 O128 2.592874 1_555
Na40 O130 2.601502 1_555
Na41 O131 2.491845 1_555
Na41 O143 2.516117 1_555
Na41 O141 2.522134 1_555
Na41 O139 2.524345 1_555
Na41 O127 2.554336 1_555
Na41 O129 2.558595 1_555
Ge0 O25 1.836660 1_555
Ge0 O27 1.923128 1_555
Ge0 O29 1.946719 1_555
Ge0 O101 1.947615 1_555
Ge0 O99 1.960144 1_555
Ge0 O97 1.962806 1_555
Ge1 O30 1.811884 1_555
Ge1 O34 1.880335 1_555
Ge1 O102 1.890720 1_555
Ge1 O104 1.942150 1_555
Ge1 O32 1.952027 1_555
Ge1 O106 2.416357 1_555
Ge2 O31 1.809294 1_555
Ge2 O35 1.871693 1_555
Ge2 O103 1.890000 1_555
Ge2 O105 1.932644 1_555
Ge2 O33 1.932879 1_555
Ge2 O107 2.401813 1_555
Ge3 O37 1.879484 1_556
Ge3 O41 1.885210 1_556
Ge3 O39 1.895862 1_556
Ge3 O113 1.991396 1_555
Ge3 O111 2.003299 1_555
Ge3 O109 2.006859 1_555
Ge4 O43 1.883132 1_555
Ge4 O45 1.883480 1_555
Ge4 O47 1.884888 1_555
Ge4 O117 1.958044 1_555
Ge4 O115 2.004589 1_555
Ge4 O119 2.023472 1_555
Ge5 O48 1.875692 1_554
Ge5 O50 1.882443 1_554
Ge5 O52 1.900616 1_554
Ge5 O122 1.939766 1_555
Ge5 O124 2.017924 1_555
Ge5 O120 2.034157 1_555
Ge6 O51 1.872399 1_554
Ge6 O49 1.876074 1_554
Ge6 O53 1.881372 1_554
Ge6 O123 1.954398 1_555
Ge6 O125 2.000332 1_555
Ge6 O121 2.012853 1_555
Ge7 O55 1.871080 1_555
Ge7 O59 1.884261 1_555
Ge7 O57 1.894567 1_555
Ge7 O131 1.938915 1_555
Ge7 O129 1.993233 1_555
Ge7 O127 2.006324 1_555
Ge8 O64 1.789819 1_555
Ge8 O136 1.876485 1_555
Ge8 O60 1.886775 1_555
Ge8 O62 1.903806 1_555
Ge8 O134 1.957138 1_555
Ge8 O132 2.361530 1_555
Ge9 O65 1.807742 1_555
Ge9 O61 1.838120 1_555
Ge9 O137 1.899967 1_555
Ge9 O135 1.910139 1_555
Ge9 O63 1.941760 1_555
Ge9 O133 2.421279 1_555
Ge10 O68 1.780967 1_555
Ge10 O66 1.873361 1_555
Ge10 O140 1.876609 1_555
Ge10 O70 1.896942 1_555
Ge10 O142 1.952829 1_555
Ge10 O138 2.335592 1_555
Ge11 O67 1.878400 1_555
Ge11 O69 1.900541 1_555
Ge11 O71 1.901586 1_555
Ge11 O143 1.937788 1_555
Ge11 O141 1.968363 1_555
Ge11 O139 1.971022 1_555
O0 S0 1.496217 1_555
O0 Zr0 2.224211 1_445
O1 S1 1.500439 1_555
O1 Zr1 2.175423 1_545
O2 Si0 1.653435 1_555
O2 Zr1 2.038559 1_555
O3 Si1 1.641124 1_555
O3 Zr0 2.021353 1_555
O4 Si3 1.659367 1_555
O4 Zr1 2.065764 1_545
O5 Si2 1.655758 1_555
O5 Zr0 2.060179 1_545
O6 S2 1.484852 1_555
O6 Zr2 2.229438 1_445
O7 Si4 1.641047 1_555
O7 Zr3 2.062166 1_555
O8 Si6 1.627536 1_555
O8 Zr3 2.036421 1_565
O9 Si5 1.659733 1_655
O9 Zr2 2.034898 1_555
O10 Si7 1.642119 1_545
O10 Zr3 2.041862 1_555
O11 Si8 1.637081 1_555
O11 Zr2 2.021515 1_545
O12 Si7 1.654588 1_555
O12 Zr5 2.085692 1_565
O13 Si8 1.642738 1_565
O13 Zr4 2.029370 1_555
O14 S2 1.481813 1_555
O14 Zr4 2.241359 1_445
O15 Si4 1.638295 1_555
O15 Zr5 2.048571 1_555
O16 Si5 1.651406 1_555
O16 Zr4 2.035673 1_455
O17 Si6 1.644455 1_555
O17 Zr5 2.063097 1_565
O18 Si0 1.656364 1_555
O18 Zr7 2.057128 1_565
O19 Si1 1.657191 1_555
O19 Zr6 2.056059 1_565
O20 Si2 1.647181 1_455
O20 Zr6 2.022755 1_455
O21 Si3 1.648412 1_555
O21 Zr7 2.025780 1_555
O22 S0 1.498890 1_565
O22 Zr6 2.211682 1_465
O23 S1 1.498130 1_565
O23 Zr7 2.187016 1_565
O24 Si9 1.643452 1_555
O24 Zr8 2.015926 1_555
O25 Si10 1.624726 1_555
O26 Si11 1.621587 1_555
O26 Zr8 1.990119 1_555
O27 Si12 1.641036 1_555
O28 Si13 1.630877 1_555
O28 Zr8 2.054641 1_555
O29 Si14 1.638309 1_555
O30 Si15 1.637250 1_555
O31 Si16 1.636037 1_555
O32 Si17 1.653366 1_555
O33 Si18 1.650215 1_555
O34 Si19 1.641382 1_555
O35 Si20 1.638040 1_555
O36 Si19 1.634825 1_555
O36 Zr9 2.038537 1_554
O37 Si20 1.653682 1_555
O38 Si15 1.630523 1_555
O38 Zr9 2.051253 1_554
O39 Si16 1.644903 1_555
O40 Si17 1.630594 1_555
O40 Zr9 2.046570 1_554
O41 Si18 1.646119 1_555
O42 Si11 1.632447 1_555
O42 Zr10 2.059147 1_555
O43 Si12 1.649253 1_555
O44 Si13 1.635624 1_555
O44 Zr10 2.047175 1_555
O45 Si14 1.643411 1_555
O46 Si9 1.626200 1_555
O46 Zr10 2.051907 1_555
O47 Si10 1.657474 1_555
O48 Si21 1.654255 1_555
O49 Si22 1.638955 1_555
O50 Si23 1.649769 1_555
O51 Si24 1.641616 1_555
O52 Si25 1.643954 1_555
O53 Si26 1.642824 1_555
O54 Si27 1.629921 1_555
O54 Zr11 2.052686 1_555
O55 Si28 1.646460 1_555
O56 Si29 1.633697 1_555
O56 Zr11 2.053892 1_555
O57 Si30 1.640743 1_555
O58 Si31 1.634402 1_555
O58 Zr11 2.034494 1_555
O59 Si32 1.651164 1_555
O60 Si31 1.637051 1_555
O61 Si32 1.627374 1_555
O62 Si27 1.643556 1_555
O63 Si28 1.645262 1_555
O64 Si29 1.622939 1_555
O65 Si30 1.637144 1_555
O66 Si23 1.638825 1_555
O67 Si24 1.639870 1_555
O68 Si25 1.624805 1_555
O69 Si26 1.647475 1_555
O70 Si21 1.652437 1_555
O71 Si22 1.637636 1_555
O72 Si31 1.641681 1_555
O72 Zr0 2.119594 1_455
O73 Si32 1.648845 1_555
O73 Zr1 2.151099 1_555
O74 Si27 1.651957 1_555
O74 Zr1 2.049646 1_555
O75 Si28 1.657246 1_555
O75 Zr0 2.078336 1_555
O76 Si29 1.631703 1_555
O76 Zr0 2.117204 1_445
O77 Si30 1.643094 1_555
O77 Zr1 2.175657 1_545
O78 Si23 1.651717 1_555
O78 Zr2 2.153457 1_445
O79 Si24 1.644045 1_555
O79 Zr3 2.123725 1_555
O80 Si25 1.643520 1_555
O80 Zr2 2.143872 1_455
O81 Si26 1.648026 1_555
O81 Zr3 2.159705 1_565
O82 Si21 1.647850 1_555
O82 Zr3 2.173534 1_565
O83 Si22 1.658583 1_555
O83 Zr2 2.067862 1_555
O84 Si9 1.626075 1_555
O84 Zr5 2.144403 1_555
O85 Si10 1.645409 1_555
O85 Zr4 2.158944 1_545
O86 Si11 1.631717 1_555
O86 Zr4 2.111617 1_445
O87 Si12 1.643586 1_555
O87 Zr5 2.166679 1_555
O88 Si13 1.632877 1_555
O88 Zr5 2.119501 1_565
O89 Si14 1.655437 1_555
O89 Zr4 2.062404 1_555
O90 Si15 1.633024 1_555
O90 Zr7 2.127680 1_565
O91 Si16 1.645560 1_555
O91 Zr6 2.181431 1_565
O92 Si17 1.655006 1_555
O92 Zr7 2.062086 1_555
O93 Si18 1.660205 1_555
O93 Zr6 2.079807 1_555
O94 Si19 1.644968 1_555
O94 Zr6 2.117330 1_455
O95 Si20 1.650324 1_555
O95 Zr7 2.172257 1_555
O96 Si7 1.626604 1_545
O96 Zr8 2.086068 1_555
O97 Si8 1.626108 1_555
O98 S2 1.485066 1_555
O98 Zr8 2.321847 1_555
O99 Si4 1.632730 1_555
O100 Si6 1.633894 1_555
O100 Zr8 2.129224 1_555
O101 Si5 1.641593 1_655
O102 Si0 1.641364 1_555
O103 Si1 1.633662 1_555
O104 Si3 1.667112 1_555
O105 Si2 1.657441 1_555
O106 S0 1.468081 1_555
O107 S1 1.464399 1_555
O108 Si21 1.644873 1_555
O108 Zr9 2.148592 1_555
O109 Si22 1.659242 1_555
O110 Si24 1.644960 1_555
O110 Zr9 2.153197 1_555
O111 Si23 1.665552 1_655
O112 Si25 1.636341 1_545
O112 Zr9 2.116483 1_555
O113 Si26 1.665672 1_545
O114 Si27 1.630374 1_545
O114 Zr10 2.142405 1_555
O115 Si28 1.657584 1_545
O116 Si29 1.629639 1_555
O116 Zr10 2.107797 1_555
O117 Si30 1.652310 1_555
O118 Si32 1.643640 1_555
O118 Zr10 2.137773 1_555
O119 Si31 1.658021 1_655
O120 Si19 1.655924 1_555
O121 Si20 1.665618 1_555
O122 Si16 1.655163 1_455
O123 Si15 1.648854 1_555
O124 Si17 1.653398 1_565
O125 Si18 1.655486 1_565
O126 Si11 1.620237 1_565
O126 Zr11 2.110042 1_555
O127 Si12 1.664250 1_565
O128 Si13 1.627619 1_555
O128 Zr11 2.126714 1_555
O129 Si14 1.652783 1_555
O130 Si10 1.638056 1_455
O130 Zr11 2.131372 1_555
O131 Si9 1.642710 1_555
O132 S0 1.475030 1_565
O133 S1 1.464667 1_565
O134 Si0 1.661258 1_555
O135 Si1 1.661958 1_555
O136 Si2 1.638302 1_455
O137 Si3 1.633996 1_555
O138 S2 1.478231 1_555
O139 Si4 1.640590 1_555
O140 Si5 1.639705 1_555
O141 Si6 1.634814 1_555
O142 Si7 1.645157 1_555
O143 Si8 1.653015 1_565
