# generated using pymatgen
data_CsLiBr2
_symmetry_space_group_name_H-M   'P 1'
_cell_length_a   5.18123738
_cell_length_b   5.18123738
_cell_length_c   9.93005738
_cell_angle_alpha   90.00000000
_cell_angle_beta   90.00000000
_cell_angle_gamma   90.00000000
_symmetry_Int_Tables_number   1
_chemical_formula_structural   CsLiBr2
_chemical_formula_sum   'Cs2 Li2 Br4'
_cell_volume   266.57458280
_cell_formula_units_Z   2
loop_
 _symmetry_equiv_pos_site_id
 _symmetry_equiv_pos_as_xyz
  1  'x, y, z'
loop_
 _atom_site_type_symbol
 _atom_site_label
 _atom_site_symmetry_multiplicity
 _atom_site_fract_x
 _atom_site_fract_y
 _atom_site_fract_z
 _atom_site_occupancy
  Cs  Cs0  1  0.75000000  0.75000000  0.30002588  1
  Cs  Cs1  1  0.25000000  0.25000000  0.69997412  1
  Li  Li0  1  0.25000000  0.25000000  0.08248448  1
  Li  Li1  1  0.75000000  0.75000000  0.91751552  1
  Br  Br0  1  0.75000000  0.75000000  0.66592057  1
  Br  Br1  1  0.25000000  0.25000000  0.33407943  1
  Br  Br2  1  0.75000000  0.25000000  -0.00000000  1
  Br  Br3  1  0.25000000  0.75000000  -0.00000000  1
loop_
_geom_bond_atom_site_label_1
_geom_bond_atom_site_label_2
_geom_bond_distance
_geom_bond_site_symmetry_2
Br0 Li1 2.498352 1_555
Br0 Cs0 3.633355 1_555
Br0 Cs1 3.679261 1_565
Br0 Cs1 3.679261 1_555
Br0 Cs1 3.679261 1_665
Br0 Cs1 3.679261 1_655
Br1 Li0 2.498352 1_555
Br1 Cs1 3.633355 1_555
Br1 Cs0 3.679261 1_555
Br1 Cs0 3.679261 1_445
Br1 Cs0 3.679261 1_545
Br1 Cs0 3.679261 1_455
Br2 Li1 2.717019 1_544
Br2 Li0 2.717019 1_655
Br2 Li0 2.717019 1_555
Br2 Li1 2.717019 1_554
Br3 Li0 2.717019 1_555
Br3 Li1 2.717019 1_454
Br3 Li1 2.717019 1_554
Br3 Li0 2.717019 1_565
