# generated using pymatgen
data_Ba2MgNbVO6
_symmetry_space_group_name_H-M   'P 1'
_cell_length_a   6.34203491
_cell_length_b   6.34201508
_cell_length_c   5.88358804
_cell_angle_alpha   62.36518866
_cell_angle_beta   62.36511552
_cell_angle_gamma   56.00805272
_symmetry_Int_Tables_number   1
_chemical_formula_structural   Ba2MgNbVO6
_chemical_formula_sum   'Ba2 Mg1 Nb1 V1 O6'
_cell_volume   166.95004542
_cell_formula_units_Z   1
loop_
 _symmetry_equiv_pos_site_id
 _symmetry_equiv_pos_as_xyz
  1  'x, y, z'
loop_
 _atom_site_type_symbol
 _atom_site_label
 _atom_site_symmetry_multiplicity
 _atom_site_fract_x
 _atom_site_fract_y
 _atom_site_fract_z
 _atom_site_occupancy
  Ba  Ba0  1  0.31068900  0.31068400  0.18931400  1
  Ba  Ba1  1  0.68931100  0.68931600  0.81068600  1
  Mg  Mg0  1  0.00000000  0.00000000  0.50000000  1
  Nb  Nb0  1  0.50000000  0.50000000  0.50000000  1
  V  V0  1  0.00000000  0.00000000  0.00000000  1
  O  O0  1  0.76135000  0.23867000  0.25961400  1
  O  O1  1  0.76132700  0.23864900  0.74038900  1
  O  O2  1  0.71725200  0.71724800  0.28277900  1
  O  O3  1  0.23865000  0.76133000  0.74038600  1
  O  O4  1  0.23867300  0.76135100  0.25961100  1
  O  O5  1  0.28274800  0.28275200  0.71722100  1
loop_
_geom_bond_atom_site_label_1
_geom_bond_atom_site_label_2
_geom_bond_distance
_geom_bond_site_symmetry_2
Ba0 O1 2.830163 1_554
Ba0 O3 2.830197 1_554
Ba0 O0 2.830246 1_555
Ba0 O4 2.830258 1_555
Ba0 O5 2.953649 1_555
Ba0 O5 2.953979 1_554
Ba0 Mg0 2.960548 1_555
Ba0 O2 3.108049 1_545
Ba0 O2 3.108059 1_455
Ba1 O4 2.830163 1_556
Ba1 O0 2.830197 1_556
Ba1 O3 2.830246 1_555
Ba1 O1 2.830258 1_555
Ba1 O2 2.953649 1_555
Ba1 O2 2.953979 1_556
Ba1 Mg0 2.960548 1_665
Ba1 O5 3.108049 1_565
Ba1 O5 3.108059 1_655
Mg0 O0 2.005105 1_455
Mg0 O3 2.005105 1_545
Mg0 O1 2.005108 1_455
Mg0 O4 2.005108 1_545
Nb0 O2 2.070186 1_555
Nb0 O5 2.070186 1_555
Nb0 O3 2.103008 1_555
Nb0 O0 2.103008 1_555
Nb0 O1 2.103013 1_555
Nb0 O4 2.103013 1_555
O0 V0 2.086522 1_655
O1 V0 2.086527 1_656
O2 V0 2.694339 1_665
O3 V0 2.086522 1_566
O4 V0 2.086527 1_565
O5 V0 2.694339 1_556
