# generated using pymatgen
data_Ba2LuMgBiO6
_symmetry_space_group_name_H-M   'P 1'
_cell_length_a   6.78034680
_cell_length_b   6.26391216
_cell_length_c   6.95104584
_cell_angle_alpha   56.42168415
_cell_angle_beta   54.72566575
_cell_angle_gamma   57.98910844
_symmetry_Int_Tables_number   1
_chemical_formula_structural   Ba2LuMgBiO6
_chemical_formula_sum   'Ba2 Lu1 Mg1 Bi1 O6'
_cell_volume   190.92323410
_cell_formula_units_Z   1
loop_
 _symmetry_equiv_pos_site_id
 _symmetry_equiv_pos_as_xyz
  1  'x, y, z'
loop_
 _atom_site_type_symbol
 _atom_site_label
 _atom_site_symmetry_multiplicity
 _atom_site_fract_x
 _atom_site_fract_y
 _atom_site_fract_z
 _atom_site_occupancy
  Ba  Ba0  1  0.69122762  0.73927654  0.70129851  1
  Ba  Ba1  1  0.30877238  0.26072346  0.29870149  1
  Lu  Lu0  1  -0.00000000  -0.00000000  0.00000000  1
  Mg  Mg0  1  -0.00000000  0.50000000  0.00000000  1
  Bi  Bi0  1  0.50000000  0.50000000  0.50000000  1
  O  O0  1  0.78492166  0.22589006  0.25342725  1
  O  O1  1  0.31714442  0.74313322  0.15416202  1
  O  O2  1  0.15140038  0.34136153  0.74294189  1
  O  O3  1  0.21507834  0.77410994  0.74657275  1
  O  O4  1  0.68285558  0.25686678  0.84583798  1
  O  O5  1  0.84859962  0.65863847  0.25705811  1
loop_
_geom_bond_atom_site_label_1
_geom_bond_atom_site_label_2
_geom_bond_distance
_geom_bond_site_symmetry_2
Ba0 O4 2.627067 1_555
Ba0 O1 2.672171 1_556
Ba0 O2 2.834050 1_655
Ba0 O5 2.877041 1_555
Ba0 O0 2.942519 1_565
Ba0 O3 2.953855 1_555
Ba1 O1 2.627067 1_555
Ba1 O4 2.672171 1_554
Ba1 O5 2.834050 1_455
Ba1 O2 2.877041 1_555
Ba1 O3 2.942519 1_545
Ba1 O0 2.953855 1_555
Lu0 O2 2.191109 1_554
Lu0 O5 2.191109 1_445
Lu0 O0 2.198737 1_455
Lu0 O3 2.198737 1_544
Lu0 O4 2.333950 1_454
Lu0 O1 2.333950 1_545
Mg0 O2 1.999507 1_554
Mg0 O5 1.999507 1_455
Mg0 O0 2.125956 1_455
Mg0 O3 2.125956 1_554
Bi0 O2 2.334448 1_555
Bi0 O5 2.334448 1_555
Bi0 O3 2.352056 1_555
Bi0 O0 2.352056 1_555
Bi0 O1 2.650721 1_555
Bi0 O4 2.650721 1_555
