# generated using pymatgen
data_K3(PtO2)2
_symmetry_space_group_name_H-M   'P 1'
_cell_length_a   5.50978062
_cell_length_b   5.50977876
_cell_length_c   11.68387189
_cell_angle_alpha   90.00000000
_cell_angle_beta   90.00000000
_cell_angle_gamma   113.31442706
_symmetry_Int_Tables_number   1
_chemical_formula_structural   K3(PtO2)2
_chemical_formula_sum   'K6 Pt4 O8'
_cell_volume   325.73314252
_cell_formula_units_Z   2
loop_
 _symmetry_equiv_pos_site_id
 _symmetry_equiv_pos_as_xyz
  1  'x, y, z'
loop_
 _atom_site_type_symbol
 _atom_site_label
 _atom_site_symmetry_multiplicity
 _atom_site_fract_x
 _atom_site_fract_y
 _atom_site_fract_z
 _atom_site_occupancy
  K  K0  1  0.28793483  0.71206517  0.25000000  1
  K  K1  1  0.35208424  0.64791576  0.93334152  1
  K  K2  1  0.35208424  0.64791576  0.56665848  1
  K  K3  1  0.64791576  0.35208424  0.06665848  1
  K  K4  1  0.64791576  0.35208424  0.43334152  1
  K  K5  1  0.71206517  0.28793483  0.75000000  1
  Pt  Pt0  1  0.07783744  0.92216256  0.75000000  1
  Pt  Pt1  1  -0.00000000  -0.00000000  0.50000000  1
  Pt  Pt2  1  -0.00000000  -0.00000000  -0.00000000  1
  Pt  Pt3  1  0.92216256  0.07783744  0.25000000  1
  O  O0  1  0.87173604  0.70854303  0.61584492  1
  O  O1  1  0.87173604  0.70854303  0.88415508  1
  O  O2  1  0.29145697  0.12826396  0.61584492  1
  O  O3  1  0.70854303  0.87173604  0.11584492  1
  O  O4  1  0.12826396  0.29145697  0.38415508  1
  O  O5  1  0.29145697  0.12826396  0.88415508  1
  O  O6  1  0.12826396  0.29145697  0.11584492  1
  O  O7  1  0.70854303  0.87173604  0.38415508  1
loop_
_geom_bond_atom_site_label_1
_geom_bond_atom_site_label_2
_geom_bond_distance
_geom_bond_site_symmetry_2
K0 O4 2.643420 1_555
K0 O6 2.643420 1_555
K0 O7 2.643420 1_555
K0 O3 2.643420 1_555
K1 O5 2.807582 1_555
K1 O1 2.807583 1_555
K1 O6 2.829816 1_556
K1 O3 2.829817 1_556
K1 O5 2.854156 1_565
K1 O1 2.854157 1_455
K2 O2 2.807582 1_555
K2 O0 2.807583 1_555
K2 O4 2.829816 1_555
K2 O7 2.829817 1_555
K2 O2 2.854156 1_565
K2 O0 2.854157 1_455
K3 O3 2.807582 1_555
K3 O6 2.807583 1_555
K3 O1 2.829816 1_554
K3 O5 2.829817 1_554
K3 O3 2.854156 1_545
K3 O6 2.854157 1_655
K4 O7 2.807582 1_555
K4 O4 2.807583 1_555
K4 O0 2.829816 1_555
K4 O2 2.829817 1_555
K4 O7 2.854156 1_545
K4 O4 2.854157 1_655
K5 O1 2.643420 1_555
K5 O0 2.643420 1_555
K5 O5 2.643420 1_555
K5 O2 2.643420 1_555
O0 Pt1 2.002979 1_665
O0 Pt0 2.018362 1_655
O1 Pt2 2.002979 1_666
O1 Pt0 2.018362 1_655
O2 Pt1 2.002980 1_555
O2 Pt0 2.018362 1_545
O3 Pt2 2.002980 1_665
O3 Pt3 2.018362 1_565
O4 Pt1 2.002979 1_555
O4 Pt3 2.018362 1_455
O5 Pt2 2.002980 1_556
O5 Pt0 2.018362 1_545
O6 Pt2 2.002979 1_555
O6 Pt3 2.018362 1_455
O7 Pt1 2.002980 1_665
O7 Pt3 2.018362 1_565
