# generated using pymatgen
data_NaBH4
_symmetry_space_group_name_H-M   'P 1'
_cell_length_a   4.27299600
_cell_length_b   7.02144500
_cell_length_c   7.54004000
_cell_angle_alpha   90.00000000
_cell_angle_beta   90.00000000
_cell_angle_gamma   90.00000000
_symmetry_Int_Tables_number   1
_chemical_formula_structural   NaBH4
_chemical_formula_sum   'Na4 B4 H16'
_cell_volume   226.22085235
_cell_formula_units_Z   4
loop_
 _symmetry_equiv_pos_site_id
 _symmetry_equiv_pos_as_xyz
  1  'x, y, z'
loop_
 _atom_site_type_symbol
 _atom_site_label
 _atom_site_symmetry_multiplicity
 _atom_site_fract_x
 _atom_site_fract_y
 _atom_site_fract_z
 _atom_site_occupancy
  Na  Na0  1  0.25000000  0.25156800  0.51077200  1
  Na  Na1  1  0.75000000  0.74843200  0.48922800  1
  Na  Na2  1  0.75000000  0.75156800  0.98922800  1
  Na  Na3  1  0.25000000  0.24843200  0.01077200  1
  B  B0  1  0.25000000  0.92327300  0.77338500  1
  B  B1  1  0.75000000  0.07672700  0.22661500  1
  B  B2  1  0.75000000  0.42327300  0.72661500  1
  B  B3  1  0.25000000  0.57672700  0.27338500  1
  H  H0  1  0.51509000  0.50949500  0.68053500  1
  H  H1  1  0.01509000  0.49050500  0.31946500  1
  H  H2  1  0.48491000  0.00949500  0.81946500  1
  H  H3  1  0.98491000  0.99050500  0.18053500  1
  H  H4  1  0.48491000  0.49050500  0.31946500  1
  H  H5  1  0.98491000  0.50949500  0.68053500  1
  H  H6  1  0.51509000  0.99050500  0.18053500  1
  H  H7  1  0.01509000  0.00949500  0.81946500  1
  H  H8  1  0.25000000  0.73740500  0.33602800  1
  H  H9  1  0.75000000  0.26259500  0.66397200  1
  H  H10  1  0.75000000  0.23740500  0.16397200  1
  H  H11  1  0.25000000  0.76259500  0.83602800  1
  H  H12  1  0.75000000  0.09009600  0.38999500  1
  H  H13  1  0.25000000  0.90990400  0.61000500  1
  H  H14  1  0.25000000  0.59009600  0.11000500  1
  H  H15  1  0.75000000  0.40990400  0.88999500  1
loop_
_geom_bond_atom_site_label_1
_geom_bond_atom_site_label_2
_geom_bond_distance
_geom_bond_site_symmetry_2
B0 H7 1.222614 1_565
B0 H2 1.222614 1_565
B0 H11 1.223075 1_555
B0 H13 1.235463 1_555
B1 H6 1.222614 1_545
B1 H3 1.222614 1_545
B1 H10 1.223075 1_555
B1 H12 1.235463 1_555
B2 H0 1.222614 1_555
B2 H5 1.222614 1_555
B2 H9 1.223075 1_555
B2 H15 1.235463 1_555
B3 H4 1.222614 1_555
B3 H1 1.222614 1_555
B3 H8 1.223075 1_555
B3 H14 1.235463 1_555
H0 Na1 2.429583 1_555
H0 Na0 2.490245 1_555
H1 Na0 2.429583 1_555
H1 Na1 2.490245 1_455
H2 Na3 2.429583 1_556
H2 Na2 2.490245 1_545
H3 Na2 2.429583 1_554
H3 Na3 2.490245 1_665
H4 Na0 2.429583 1_555
H4 Na1 2.490245 1_555
H5 Na1 2.429583 1_555
H5 Na0 2.490245 1_655
H6 Na2 2.429583 1_554
H6 Na3 2.490245 1_565
H7 Na3 2.429583 1_556
H7 Na2 2.490245 1_445
H8 Na1 2.430011 1_455
H8 Na1 2.430011 1_555
H9 Na0 2.430011 1_555
H9 Na0 2.430011 1_655
H10 Na3 2.430011 1_655
H10 Na3 2.430011 1_555
H11 Na2 2.430011 1_455
H11 Na2 2.430011 1_555
H12 Na1 2.512950 1_545
H12 Na0 2.584446 1_555
H12 Na0 2.584446 1_655
H13 Na0 2.512950 1_565
H13 Na1 2.584446 1_455
H13 Na1 2.584446 1_555
H14 Na3 2.512950 1_555
H14 Na2 2.584446 1_554
H14 Na2 2.584446 1_454
H15 Na2 2.512950 1_555
H15 Na3 2.584446 1_656
H15 Na3 2.584446 1_556
