# generated using pymatgen
data_YbMgTiO3
_symmetry_space_group_name_H-M   'P 1'
_cell_length_a   4.26553871
_cell_length_b   4.28086572
_cell_length_c   4.26553871
_cell_angle_alpha   81.06027196
_cell_angle_beta   81.06876470
_cell_angle_gamma   81.06027196
_symmetry_Int_Tables_number   1
_chemical_formula_structural   YbMgTiO3
_chemical_formula_sum   'Yb1 Mg1 Ti1 O3'
_cell_volume   75.31967519
_cell_formula_units_Z   1
loop_
 _symmetry_equiv_pos_site_id
 _symmetry_equiv_pos_as_xyz
  1  'x, y, z'
loop_
 _atom_site_type_symbol
 _atom_site_label
 _atom_site_symmetry_multiplicity
 _atom_site_fract_x
 _atom_site_fract_y
 _atom_site_fract_z
 _atom_site_occupancy
  Yb  Yb0  1  0.87854135  0.88244288  0.87854135  1
  Mg  Mg0  1  0.22589342  0.23076450  0.22589342  1
  Ti  Ti0  1  0.53830941  0.54089121  0.53830941  1
  O  O0  1  0.53120340  0.53255772  0.03002930  1
  O  O1  1  0.52935912  0.03078897  0.52935912  1
  O  O2  1  0.03002930  0.53255772  0.53120340  1
loop_
_geom_bond_atom_site_label_1
_geom_bond_atom_site_label_2
_geom_bond_distance
_geom_bond_site_symmetry_2
Mg0 O2 1.978063 1_555
Mg0 O0 1.978063 1_555
Mg0 O1 1.978762 1_555
O0 Ti0 2.087781 1_554
O0 Ti0 2.178894 1_555
O0 Yb0 2.224343 1_554
O1 Ti0 2.086095 1_545
O1 Ti0 2.196279 1_555
O1 Yb0 2.222859 1_545
O2 Ti0 2.087781 1_455
O2 Ti0 2.178894 1_555
O2 Yb0 2.224343 1_455
