# generated using pymatgen
data_Na2Hf4Ta4Si7S5O48
_symmetry_space_group_name_H-M   'P 1'
_cell_length_a   17.84665461
_cell_length_b   8.92687508
_cell_length_c   23.14512734
_cell_angle_alpha   90.04356328
_cell_angle_beta   89.20281190
_cell_angle_gamma   120.02979034
_symmetry_Int_Tables_number   1
_chemical_formula_structural   Na2Hf4Ta4Si7S5O48
_chemical_formula_sum   'Na6 Hf12 Ta12 Si21 S15 O144'
_cell_volume   3191.99974838
_cell_formula_units_Z   3
loop_
 _symmetry_equiv_pos_site_id
 _symmetry_equiv_pos_as_xyz
  1  'x, y, z'
loop_
 _atom_site_type_symbol
 _atom_site_label
 _atom_site_symmetry_multiplicity
 _atom_site_fract_x
 _atom_site_fract_y
 _atom_site_fract_z
 _atom_site_occupancy
  Na  Na0  1  0.99258545  0.00455090  0.49808621  1
  Na  Na1  1  0.49217045  0.97872680  0.00378562  1
  Na  Na2  1  0.32454222  0.33106931  0.83961722  1
  Na  Na3  1  0.82309357  0.32838416  0.83850983  1
  Na  Na4  1  0.32746869  0.32037382  0.33508481  1
  Na  Na5  1  0.82217114  0.31491737  0.33788034  1
  Hf  Hf0  1  0.00429234  0.01240185  0.35789713  1
  Hf  Hf1  1  0.50583147  0.99780504  0.85898766  1
  Hf  Hf2  1  0.00081816  0.01451166  0.64373259  1
  Hf  Hf3  1  0.50117317  0.99693932  0.14712275  1
  Hf  Hf4  1  0.33360928  0.33692850  0.98027940  1
  Hf  Hf5  1  0.83479997  0.33550686  0.97919095  1
  Hf  Hf6  1  0.33707102  0.33717631  0.47709920  1
  Hf  Hf7  1  0.83460105  0.33165572  0.47785866  1
  Hf  Hf8  1  0.17312848  0.68154033  0.31122282  1
  Hf  Hf9  1  0.66962899  0.67305591  0.30916052  1
  Hf  Hf10  1  0.17452135  0.66690916  0.81186377  1
  Hf  Hf11  1  0.67196850  0.66390435  0.81198942  1
  Ta  Ta0  1  0.50497681  0.02277009  0.35785978  1
  Ta  Ta1  1  0.00648204  0.00179690  0.86080415  1
  Ta  Ta2  1  0.50249082  0.01690732  0.64186068  1
  Ta  Ta3  1  0.00271380  0.98850261  0.14174010  1
  Ta  Ta4  1  0.33199424  0.34315049  0.68521724  1
  Ta  Ta5  1  0.83469830  0.34800069  0.68504552  1
  Ta  Ta6  1  0.34010619  0.32209513  0.18891628  1
  Ta  Ta7  1  0.83157907  0.32154726  0.18597667  1
  Ta  Ta8  1  0.17313845  0.69133346  0.02471636  1
  Ta  Ta9  1  0.67223556  0.69016062  0.02435291  1
  Ta  Ta10  1  0.17271578  0.65445046  0.52297937  1
  Ta  Ta11  1  0.67100030  0.65243103  0.52181224  1
  Si  Si0  1  0.14392604  0.00270910  0.24959927  1
  Si  Si1  1  0.64344347  0.00254353  0.25047548  1
  Si  Si2  1  0.50293442  0.28944033  0.24973746  1
  Si  Si3  1  0.14412197  0.28547720  0.75026338  1
  Si  Si4  1  0.64422983  0.28650046  0.74981574  1
  Si  Si5  1  0.47678681  0.34284966  0.58227928  1
  Si  Si6  1  0.97827111  0.34030576  0.58164968  1
  Si  Si7  1  0.33748097  0.62718178  0.58253063  1
  Si  Si8  1  0.83668297  0.62730330  0.58096481  1
  Si  Si9  1  0.47747181  0.62171580  0.08229078  1
  Si  Si10  1  0.97642543  0.61123451  0.08252311  1
  Si  Si11  1  0.33927841  0.05110982  0.08200359  1
  Si  Si12  1  0.83780653  0.04915369  0.08298091  1
  Si  Si13  1  0.31077661  0.66523046  0.91767708  1
  Si  Si14  1  0.80986812  0.66384257  0.91662464  1
  Si  Si15  1  0.17132880  0.95541289  0.91517384  1
  Si  Si16  1  0.66967850  0.95662399  0.91533864  1
  Si  Si17  1  0.31117135  0.95429671  0.41667713  1
  Si  Si18  1  0.80958537  0.95247320  0.41611741  1
  Si  Si19  1  0.16890660  0.38038610  0.41468959  1
  Si  Si20  1  0.67086902  0.38392175  0.41430401  1
  S  S0  1  0.35691036  0.70741058  0.25076011  1
  S  S1  1  0.85919578  0.71219100  0.24868520  1
  S  S2  1  0.99864128  0.28686842  0.24878833  1
  S  S3  1  0.99886635  0.71228442  0.75068632  1
  S  S4  1  0.49859010  0.71068687  0.74880914  1
  S  S5  1  0.35851987  0.00604462  0.74890195  1
  S  S6  1  0.85751305  0.00609902  0.75079189  1
  S  S7  1  0.19058371  0.04532356  0.58357069  1
  S  S8  1  0.68963208  0.04449190  0.58503938  1
  S  S9  1  0.18871398  0.33647257  0.08479282  1
  S  S10  1  0.69030768  0.33623328  0.08335287  1
  S  S11  1  0.02415535  0.37910124  0.91590327  1
  S  S12  1  0.52388618  0.38059594  0.91697075  1
  S  S13  1  0.02479576  0.66840632  0.41704169  1
  S  S14  1  0.52542897  0.67258425  0.41662981  1
  O  O0  1  0.09705098  0.03185603  0.30562213  1
  O  O1  1  0.59394619  0.02772349  0.30732046  1
  O  O2  1  0.40979303  0.78563348  0.30211013  1
  O  O3  1  0.91158573  0.78911752  0.30009429  1
  O  O4  1  0.48264593  0.16176568  0.30745693  1
  O  O5  1  0.97975235  0.17699339  0.30132852  1
  O  O6  1  0.09327939  0.15902949  0.80683291  1
  O  O7  1  0.59833586  0.16278776  0.80553577  1
  O  O8  1  0.47984209  0.78300939  0.80129697  1
  O  O9  1  0.98175717  0.79025982  0.80297072  1
  O  O10  1  0.41021460  0.03196157  0.80032025  1
  O  O11  1  0.91102642  0.03133204  0.80183186  1
  O  O12  1  0.40078484  0.98003937  0.69646457  1
  O  O13  1  0.89696676  0.97777722  0.69806830  1
  O  O14  1  0.08752059  0.18895683  0.69457783  1
  O  O15  1  0.58439055  0.18027343  0.69375747  1
  O  O16  1  0.00933170  0.81333034  0.69851210  1
  O  O17  1  0.50926402  0.81650732  0.69720904  1
  O  O18  1  0.39561086  0.81253236  0.19789818  1
  O  O19  1  0.90246020  0.82257229  0.19619910  1
  O  O20  1  0.00922173  0.20197957  0.19713661  1
  O  O21  1  0.50976617  0.19430690  0.19293832  1
  O  O22  1  0.08294129  0.98596348  0.19358570  1
  O  O23  1  0.58898878  0.98083429  0.19327328  1
  O  O24  1  0.42615481  0.35600054  0.64111923  1
  O  O25  1  0.92719635  0.35554180  0.64066938  1
  O  O26  1  0.24457753  0.13088697  0.63615752  1
  O  O27  1  0.74459095  0.13026490  0.63680466  1
  O  O28  1  0.31800581  0.49838977  0.64057772  1
  O  O29  1  0.81942542  0.50052845  0.63978098  1
  O  O30  1  0.42637986  0.49935295  0.13978667  1
  O  O31  1  0.92646991  0.49680364  0.14072841  1
  O  O32  1  0.32025878  0.13835194  0.13990352  1
  O  O33  1  0.81816905  0.13942173  0.14030425  1
  O  O34  1  0.24218618  0.36471129  0.13580965  1
  O  O35  1  0.74456926  0.36013588  0.13544777  1
  O  O36  1  0.22374587  0.29696065  0.03253089  1
  O  O37  1  0.73032803  0.30638773  0.03136624  1
  O  O38  1  0.41695902  0.53271233  0.02677462  1
  O  O39  1  0.91640802  0.53532522  0.02722403  1
  O  O40  1  0.34618467  0.16203536  0.02571874  1
  O  O41  1  0.85208308  0.16696554  0.02751501  1
  O  O42  1  0.22843079  0.15529168  0.53215724  1
  O  O43  1  0.72481920  0.15410783  0.53343323  1
  O  O44  1  0.35190068  0.53610092  0.52809604  1
  O  O45  1  0.84816315  0.53142876  0.52648917  1
  O  O46  1  0.41497752  0.29517812  0.52822479  1
  O  O47  1  0.91582428  0.30002122  0.52781641  1
  O  O48  1  0.25755500  0.68099116  0.97437271  1
  O  O49  1  0.76062878  0.68654428  0.97349300  1
  O  O50  1  0.07507380  0.44992315  0.96774086  1
  O  O51  1  0.57614317  0.45798550  0.96852559  1
  O  O52  1  0.15268070  0.83220662  0.97318765  1
  O  O53  1  0.65544473  0.83509588  0.97387761  1
  O  O54  1  0.25872053  0.83323986  0.47390419  1
  O  O55  1  0.75757961  0.83372315  0.47465619  1
  O  O56  1  0.15457068  0.47333675  0.47416037  1
  O  O57  1  0.65296629  0.46984794  0.47386749  1
  O  O58  1  0.07623434  0.69328079  0.46902866  1
  O  O59  1  0.57613757  0.69600062  0.46911563  1
  O  O60  1  0.06401742  0.64307184  0.36409591  1
  O  O61  1  0.56398374  0.64094918  0.36469782  1
  O  O62  1  0.25105578  0.86767321  0.36027080  1
  O  O63  1  0.75240212  0.86587241  0.36006126  1
  O  O64  1  0.17580455  0.49371474  0.35859155  1
  O  O65  1  0.68309705  0.50023139  0.35904836  1
  O  O66  1  0.06362360  0.48450699  0.86328990  1
  O  O67  1  0.56368029  0.48457565  0.86378298  1
  O  O68  1  0.17747396  0.85956062  0.85791616  1
  O  O69  1  0.67672191  0.85906680  0.85835002  1
  O  O70  1  0.25271712  0.63854175  0.86038938  1
  O  O71  1  0.75133748  0.63408636  0.85959710  1
  O  O72  1  0.01384023  0.82257476  0.41054212  1
  O  O73  1  0.51387520  0.82402682  0.40820715  1
  O  O74  1  0.40254620  0.95641719  0.40556726  1
  O  O75  1  0.90365330  0.96205427  0.41114784  1
  O  O76  1  0.08082282  0.18864369  0.41316368  1
  O  O77  1  0.58169919  0.19244385  0.40841661  1
  O  O78  1  0.01274951  0.20071789  0.90622884  1
  O  O79  1  0.51324335  0.20461955  0.90959134  1
  O  O80  1  0.08122917  0.96941834  0.90648284  1
  O  O81  1  0.58175788  0.97290497  0.91305788  1
  O  O82  1  0.40340323  0.84400219  0.90997359  1
  O  O83  1  0.90359840  0.84206436  0.90152669  1
  O  O84  1  0.49100205  0.17516013  0.59715687  1
  O  O85  1  0.99312019  0.17522791  0.59045940  1
  O  O86  1  0.10313774  0.02316186  0.59269423  1
  O  O87  1  0.60132921  0.02333507  0.59618306  1
  O  O88  1  0.41923923  0.81248641  0.60186632  1
  O  O89  1  0.91993314  0.81323983  0.59365278  1
  O  O90  1  0.49377618  0.81568835  0.08932098  1
  O  O91  1  0.99108994  0.80752451  0.09614531  1
  O  O92  1  0.42015342  0.02194041  0.08910690  1
  O  O93  1  0.91929244  0.02673062  0.10131101  1
  O  O94  1  0.09966412  0.18021339  0.09486287  1
  O  O95  1  0.60422671  0.18191131  0.08999268  1
  O  O96  1  0.34775892  0.15960932  0.74005584  1
  O  O97  1  0.84797816  0.16207305  0.74303448  1
  O  O98  1  0.24113507  0.30009839  0.74256355  1
  O  O99  1  0.74078467  0.30244563  0.73892005  1
  O  O100  1  0.41829453  0.53185842  0.74132545  1
  O  O101  1  0.91768962  0.53346228  0.74432362  1
  O  O102  1  0.34527820  0.53110641  0.24292840  1
  O  O103  1  0.84943033  0.53743974  0.23972523  1
  O  O104  1  0.41282027  0.30525144  0.24374977  1
  O  O105  1  0.91828725  0.30470552  0.24136710  1
  O  O106  1  0.23790924  0.17972799  0.23800886  1
  O  O107  1  0.74105121  0.18629019  0.24187626  1
  O  O108  1  0.32278367  0.49777006  0.92226985  1
  O  O109  1  0.82682351  0.50266656  0.92250951  1
  O  O110  1  0.43646777  0.36086374  0.92185016  1
  O  O111  1  0.93603652  0.35498889  0.92117562  1
  O  O112  1  0.25176967  0.14707139  0.92224425  1
  O  O113  1  0.75387143  0.14649381  0.92286125  1
  O  O114  1  0.32543201  0.14747549  0.42372094  1
  O  O115  1  0.82386415  0.14655162  0.42353787  1
  O  O116  1  0.25322712  0.36038200  0.42348317  1
  O  O117  1  0.75215393  0.35533148  0.42379079  1
  O  O118  1  0.43737619  0.51546265  0.42292276  1
  O  O119  1  0.93709736  0.51255409  0.42207650  1
  O  O120  1  0.17574776  0.48463270  0.07484159  1
  O  O121  1  0.68273645  0.49152185  0.07582783  1
  O  O122  1  0.07038437  0.62740592  0.07199163  1
  O  O123  1  0.57060062  0.62612319  0.07081991  1
  O  O124  1  0.24918768  0.85919126  0.07489875  1
  O  O125  1  0.75154209  0.85757563  0.07516585  1
  O  O126  1  0.18241237  0.87447529  0.57696744  1
  O  O127  1  0.67869838  0.87261344  0.57804772  1
  O  O128  1  0.25153207  0.64684469  0.57522688  1
  O  O129  1  0.74887108  0.64192694  0.57435675  1
  O  O130  1  0.07102614  0.51791240  0.57218674  1
  O  O131  1  0.57049138  0.51428872  0.57286057  1
  O  O132  1  0.15207358  0.83165690  0.25629401  1
  O  O133  1  0.66069794  0.84559429  0.25988266  1
  O  O134  1  0.26979989  0.68881840  0.25723586  1
  O  O135  1  0.77339173  0.69492664  0.25296663  1
  O  O136  1  0.07330105  0.45837369  0.25616828  1
  O  O137  1  0.58223618  0.47755392  0.26120764  1
  O  O138  1  0.15481177  0.47326724  0.75964323  1
  O  O139  1  0.65353669  0.47454561  0.75596187  1
  O  O140  1  0.07278723  0.68716009  0.75908444  1
  O  O141  1  0.57332791  0.68816925  0.75612429  1
  O  O142  1  0.27161368  0.85063569  0.75368569  1
  O  O143  1  0.77049340  0.85244549  0.75701651  1
loop_
_geom_bond_atom_site_label_1
_geom_bond_atom_site_label_2
_geom_bond_distance
_geom_bond_site_symmetry_2
Na0 O75 2.489366 1_545
Na0 O76 2.524363 1_655
Na0 O85 2.621745 1_555
Na0 O89 2.683261 1_545
Na0 O72 2.734731 1_645
Na0 O86 2.916628 1_655
Na1 O90 2.467003 1_555
Na1 O92 2.474855 1_565
Na1 O82 2.618275 1_554
Na1 O81 2.637832 1_554
Na1 O95 2.783034 1_565
Na1 O79 2.861048 1_564
Na2 O112 2.417122 1_555
Na2 O108 2.432244 1_555
Na2 O98 2.649212 1_555
Na2 O110 2.693793 1_555
Na2 O100 2.843647 1_555
Na2 O96 2.902986 1_555
Na3 O113 2.429852 1_555
Na3 O109 2.469844 1_555
Na3 O99 2.697679 1_555
Na3 O111 2.721672 1_555
Na3 O101 2.786398 1_555
Na3 O97 2.812861 1_555
Na4 O116 2.542883 1_555
Na4 O114 2.557098 1_555
Na4 O104 2.631178 1_555
Na4 O106 2.695621 1_555
Na4 O102 2.752858 1_555
Na4 O118 2.774894 1_555
Na5 O117 2.454861 1_555
Na5 O115 2.498406 1_555
Na5 O107 2.602605 1_555
Na5 O119 2.757017 1_555
Na5 O105 2.826700 1_555
Na5 O103 2.890082 1_555
Hf0 O76 1.967667 1_555
Hf0 O0 1.972647 1_555
Hf0 O75 2.019454 1_445
Hf0 O72 2.164067 1_545
Hf0 O5 2.174349 1_455
Hf0 O3 2.292807 1_445
Hf1 O81 1.949553 1_555
Hf1 O7 1.984293 1_565
Hf1 O82 2.012364 1_555
Hf1 O79 2.134092 1_565
Hf1 O8 2.190401 1_555
Hf1 O10 2.331222 1_565
Hf2 O85 1.949931 1_455
Hf2 O14 1.959675 1_555
Hf2 O89 2.025575 1_445
Hf2 O13 2.109893 1_445
Hf2 O86 2.129528 1_555
Hf2 O16 2.266687 1_545
Hf3 O23 1.972341 1_555
Hf3 O21 1.995854 1_565
Hf3 O90 2.052557 1_555
Hf3 O92 2.078720 1_565
Hf3 O18 2.116002 1_555
Hf3 O95 2.180259 1_565
Hf4 O38 1.965939 1_556
Hf4 O40 1.988393 1_556
Hf4 O108 2.046793 1_555
Hf4 O112 2.093671 1_555
Hf4 O36 2.160713 1_556
Hf4 O110 2.187010 1_555
Hf5 O39 1.995170 1_556
Hf5 O41 2.021489 1_556
Hf5 O109 2.046664 1_555
Hf5 O113 2.059771 1_555
Hf5 O37 2.110657 1_556
Hf5 O111 2.171617 1_555
Hf6 O46 2.010497 1_555
Hf6 O114 2.022149 1_555
Hf6 O44 2.037573 1_555
Hf6 O116 2.045530 1_555
Hf6 O118 2.097329 1_555
Hf6 O42 2.191547 1_555
Hf7 O47 1.993695 1_555
Hf7 O115 2.008602 1_555
Hf7 O45 2.019480 1_555
Hf7 O117 2.034361 1_555
Hf7 O119 2.145127 1_555
Hf7 O43 2.197744 1_555
Hf8 O62 1.926630 1_555
Hf8 O132 2.018207 1_555
Hf8 O64 2.024842 1_555
Hf8 O134 2.090462 1_555
Hf8 O60 2.161569 1_555
Hf8 O136 2.296389 1_555
Hf9 O133 1.987962 1_555
Hf9 O137 2.007734 1_555
Hf9 O63 2.008283 1_555
Hf9 O65 2.037837 1_555
Hf9 O61 2.163674 1_555
Hf9 O135 2.174958 1_555
Hf10 O70 1.915939 1_555
Hf10 O138 1.993175 1_555
Hf10 O68 2.001148 1_555
Hf10 O142 2.144658 1_555
Hf10 O66 2.167246 1_555
Hf10 O140 2.282974 1_555
Hf11 O71 1.926824 1_555
Hf11 O69 2.011359 1_555
Hf11 O139 2.024645 1_555
Hf11 O143 2.126575 1_555
Hf11 O67 2.139282 1_555
Hf11 O141 2.294174 1_555
O0 Si0 1.623582 1_555
O1 Si1 1.651613 1_555
O1 Ta0 1.941519 1_555
O2 S0 1.470099 1_555
O2 Ta0 2.342950 1_565
O3 S1 1.465822 1_555
O4 Si2 1.670509 1_555
O4 Ta0 1.889284 1_555
O5 S2 1.487927 1_555
O6 Si3 1.660062 1_555
O6 Ta1 1.924234 1_555
O7 Si4 1.618978 1_555
O8 S4 1.486037 1_555
O9 S3 1.497778 1_555
O9 Ta1 2.175079 1_665
O10 S5 1.462009 1_555
O11 S6 1.474461 1_555
O11 Ta1 2.312891 1_655
O12 S5 1.498398 1_565
O12 Ta2 2.083039 1_565
O13 S6 1.484122 1_565
O14 Si3 1.608512 1_555
O15 Si4 1.657174 1_555
O15 Ta2 1.902271 1_555
O16 S3 1.460662 1_455
O17 S4 1.473176 1_555
O17 Ta2 2.253941 1_565
O18 S0 1.477870 1_555
O19 S1 1.502351 1_555
O19 Ta3 2.066764 1_655
O20 S2 1.474670 1_455
O20 Ta3 2.251209 1_545
O21 Si2 1.600561 1_555
O22 Si0 1.662465 1_565
O22 Ta3 1.889659 1_555
O23 Si1 1.606790 1_565
O24 Si5 1.660314 1_555
O24 Ta4 1.907438 1_555
O25 Si6 1.674670 1_555
O25 Ta5 1.904264 1_555
O26 S7 1.512580 1_555
O26 Ta4 2.097835 1_555
O27 S8 1.504461 1_555
O27 Ta5 2.128103 1_555
O28 Si7 1.684352 1_555
O28 Ta4 1.845501 1_555
O29 Si8 1.694278 1_555
O29 Ta5 1.845913 1_555
O30 Si9 1.663436 1_555
O30 Ta6 1.919119 1_555
O31 Si10 1.646306 1_555
O31 Ta7 1.927077 1_555
O32 Si11 1.663720 1_555
O32 Ta6 1.878725 1_555
O33 Si12 1.673480 1_555
O33 Ta7 1.852827 1_555
O34 S9 1.469226 1_555
O34 Ta6 2.331388 1_555
O35 S10 1.504129 1_555
O35 Ta7 2.117599 1_555
O36 S9 1.475625 1_555
O37 S10 1.481536 1_555
O38 Si9 1.620754 1_555
O39 Si10 1.598428 1_555
O40 Si11 1.602541 1_555
O41 Si12 1.594922 1_555
O42 S7 1.466862 1_555
O43 S8 1.464375 1_555
O44 Si7 1.585398 1_555
O45 Si8 1.590875 1_555
O46 Si5 1.590878 1_555
O47 Si6 1.600200 1_555
O48 Si13 1.656110 1_555
O48 Ta8 1.930323 1_556
O49 Si14 1.640545 1_555
O49 Ta9 1.968392 1_556
O50 S11 1.455722 1_555
O50 Ta8 2.393957 1_556
O51 S12 1.468232 1_555
O51 Ta9 2.325139 1_556
O52 Si15 1.657351 1_555
O52 Ta8 1.900285 1_556
O53 Si16 1.671533 1_555
O53 Ta9 1.878479 1_556
O54 Si17 1.659403 1_555
O54 Ta10 1.922414 1_555
O55 Si18 1.674310 1_555
O55 Ta11 1.910687 1_555
O56 Si19 1.688059 1_555
O56 Ta10 1.865191 1_555
O57 Si20 1.680010 1_555
O57 Ta11 1.863784 1_555
O58 S13 1.471782 1_555
O58 Ta10 2.302633 1_555
O59 S14 1.476232 1_555
O59 Ta11 2.285235 1_555
O60 S13 1.475454 1_555
O61 S14 1.472716 1_555
O62 Si17 1.631097 1_555
O63 Si18 1.602530 1_555
O64 Si19 1.611633 1_555
O65 Si20 1.590189 1_555
O66 S11 1.476116 1_555
O67 S12 1.482907 1_555
O68 Si15 1.608910 1_555
O69 Si16 1.617785 1_555
O70 Si13 1.636815 1_555
O71 Si14 1.632168 1_555
O72 S13 1.491764 1_555
O73 S14 1.479428 1_555
O73 Ta0 2.195691 1_565
O74 Si17 1.638054 1_555
O74 Ta0 1.942395 1_565
O75 Si18 1.640071 1_555
O76 Si19 1.646364 1_555
O77 Si20 1.660076 1_555
O77 Ta0 1.871986 1_555
O78 S11 1.517768 1_555
O78 Ta1 2.018109 1_555
O79 S12 1.494953 1_555
O80 Si15 1.688769 1_555
O80 Ta1 1.845657 1_565
O81 Si16 1.648187 1_555
O82 Si13 1.631875 1_555
O83 Si14 1.665024 1_555
O83 Ta1 1.904292 1_665
O84 Si5 1.675439 1_555
O84 Ta2 1.845634 1_555
O85 Si6 1.635916 1_555
O86 S7 1.483620 1_555
O87 S8 1.508824 1_555
O87 Ta2 2.019741 1_555
O88 Si7 1.633052 1_555
O88 Ta2 1.927793 1_565
O89 Si8 1.609907 1_555
O90 Si9 1.614330 1_555
O91 Si10 1.667560 1_555
O91 Ta3 1.853322 1_655
O92 Si11 1.600291 1_555
O93 Si12 1.625902 1_555
O93 Ta3 1.938125 1_645
O94 S9 1.515627 1_555
O94 Ta3 2.021521 1_545
O95 S10 1.468673 1_555
O96 S5 1.490995 1_555
O96 Ta4 2.202077 1_555
O97 S6 1.496074 1_555
O97 Ta5 2.240157 1_555
O98 Si3 1.676803 1_555
O98 Ta4 1.963644 1_555
O99 Si4 1.672026 1_555
O99 Ta5 1.946730 1_555
O100 S4 1.532561 1_555
O100 Ta4 2.086101 1_555
O101 S3 1.536103 1_555
O101 Ta5 2.101388 1_555
O102 S0 1.492159 1_555
O102 Ta6 2.209044 1_555
O103 S1 1.495099 1_555
O103 Ta7 2.180868 1_555
O104 Si2 1.690852 1_555
O104 Ta6 1.886464 1_555
O105 S2 1.531928 1_555
O105 Ta7 2.085458 1_555
O106 Si0 1.648518 1_555
O106 Ta6 1.963989 1_555
O107 Si1 1.701634 1_555
O107 Ta7 1.932289 1_555
O108 Si13 1.616613 1_555
O109 Si14 1.617860 1_555
O110 S12 1.482513 1_555
O111 S11 1.479955 1_655
O112 Si15 1.600831 1_545
O113 Si16 1.618216 1_545
O114 Si17 1.620690 1_545
O115 Si18 1.629390 1_545
O116 Si19 1.617219 1_555
O117 Si20 1.611614 1_555
O118 S14 1.498599 1_555
O119 S13 1.488129 1_655
O120 S9 1.471110 1_555
O120 Ta8 2.200823 1_555
O121 S10 1.469272 1_555
O121 Ta9 2.222813 1_555
O122 Si10 1.624340 1_455
O122 Ta8 1.945114 1_555
O123 Si9 1.660329 1_555
O123 Ta9 1.918935 1_555
O124 Si11 1.672474 1_565
O124 Ta8 1.855287 1_555
O125 Si12 1.643060 1_565
O125 Ta9 1.883186 1_555
O126 S7 1.465719 1_565
O126 Ta10 2.260808 1_555
O127 S8 1.455778 1_565
O127 Ta11 2.303722 1_555
O128 Si7 1.639812 1_555
O128 Ta10 1.894346 1_555
O129 Si8 1.645556 1_555
O129 Ta11 1.896524 1_555
O130 Si6 1.632627 1_455
O130 Ta10 1.951128 1_555
O131 Si5 1.617111 1_555
O131 Ta11 1.965576 1_555
O132 Si0 1.612446 1_565
O133 Si1 1.593541 1_565
O134 S0 1.483976 1_555
O135 S1 1.462219 1_555
O136 S2 1.453500 1_455
O137 Si2 1.588845 1_555
O138 Si3 1.604452 1_555
O139 Si4 1.608395 1_555
O140 S3 1.460078 1_455
O141 S4 1.456996 1_555
O142 S5 1.477928 1_565
O143 S6 1.475122 1_565
