# generated using pymatgen
data_Tl4O3
_symmetry_space_group_name_H-M   'P 1'
_cell_length_a   3.50291540
_cell_length_b   7.74671475
_cell_length_c   11.06496051
_cell_angle_alpha   109.24963427
_cell_angle_beta   90.00000000
_cell_angle_gamma   90.00000000
_symmetry_Int_Tables_number   1
_chemical_formula_structural   Tl4O3
_chemical_formula_sum   'Tl8 O6'
_cell_volume   283.47254106
_cell_formula_units_Z   2
loop_
 _symmetry_equiv_pos_site_id
 _symmetry_equiv_pos_as_xyz
  1  'x, y, z'
loop_
 _atom_site_type_symbol
 _atom_site_label
 _atom_site_symmetry_multiplicity
 _atom_site_fract_x
 _atom_site_fract_y
 _atom_site_fract_z
 _atom_site_occupancy
  Tl  Tl0  1  0.25000000  0.42843519  0.60824604  1
  Tl  Tl1  1  0.75000000  0.57156481  0.39175396  1
  Tl  Tl2  1  0.75000000  0.07773544  0.37211998  1
  Tl  Tl3  1  0.25000000  0.92226456  0.62788002  1
  Tl  Tl4  1  0.75000000  0.30370601  0.84599297  1
  Tl  Tl5  1  0.25000000  0.69629399  0.15400703  1
  Tl  Tl6  1  0.75000000  0.76885748  0.86512444  1
  Tl  Tl7  1  0.25000000  0.23114252  0.13487556  1
  O  O0  1  0.75000000  0.23174369  0.59986841  1
  O  O1  1  0.25000000  0.76825631  0.40013159  1
  O  O2  1  0.75000000  0.47672521  0.17833247  1
  O  O3  1  0.25000000  0.52327479  0.82166753  1
  O  O4  1  0.75000000  0.63714625  0.60889555  1
  O  O5  1  0.25000000  0.36285375  0.39110445  1
loop_
_geom_bond_atom_site_label_1
_geom_bond_atom_site_label_2
_geom_bond_distance
_geom_bond_site_symmetry_2
O0 Tl0 2.303208 1_555
O0 Tl0 2.303208 1_655
O0 Tl2 2.406555 1_555
O0 Tl4 2.593531 1_555
O1 Tl1 2.303208 1_555
O1 Tl1 2.303208 1_455
O1 Tl3 2.406555 1_555
O1 Tl5 2.593531 1_555
O2 Tl1 2.229903 1_555
O2 Tl7 2.512963 1_555
O2 Tl7 2.512963 1_655
O2 Tl5 2.516965 1_555
O2 Tl5 2.516965 1_655
O3 Tl0 2.229903 1_555
O3 Tl6 2.512963 1_455
O3 Tl6 2.512963 1_555
O3 Tl4 2.516965 1_455
O3 Tl4 2.516965 1_555
O4 Tl1 2.286052 1_555
O4 Tl0 2.382041 1_655
O4 Tl0 2.382041 1_555
O4 Tl6 2.678021 1_555
O4 Tl3 2.772055 1_555
O4 Tl3 2.772055 1_655
O5 Tl0 2.286052 1_555
O5 Tl1 2.382041 1_555
O5 Tl1 2.382041 1_455
O5 Tl7 2.678021 1_555
O5 Tl2 2.772055 1_455
O5 Tl2 2.772055 1_555
