# generated using pymatgen
data_NaAlSnP2SO12
_symmetry_space_group_name_H-M   'P 1'
_cell_length_a   8.56599003
_cell_length_b   8.57561685
_cell_length_c   22.34066062
_cell_angle_alpha   90.45248865
_cell_angle_beta   90.00000000
_cell_angle_gamma   119.96287230
_symmetry_Int_Tables_number   1
_chemical_formula_structural   NaAlSnP2SO12
_chemical_formula_sum   'Na6 Al6 Sn6 P12 S6 O72'
_cell_volume   1421.71940185
_cell_formula_units_Z   6
loop_
 _symmetry_equiv_pos_site_id
 _symmetry_equiv_pos_as_xyz
  1  'x, y, z'
loop_
 _atom_site_type_symbol
 _atom_site_label
 _atom_site_symmetry_multiplicity
 _atom_site_fract_x
 _atom_site_fract_y
 _atom_site_fract_z
 _atom_site_occupancy
  Na  Na0  1  0.98709242  0.99155324  0.50229454  1
  Na  Na1  1  0.00446083  0.99155324  0.00229454  1
  Na  Na2  1  0.65375942  0.32488624  0.83562754  1
  Na  Na3  1  0.67112783  0.32488624  0.33562754  1
  Na  Na4  1  0.32042542  0.65822024  0.16896154  1
  Na  Na5  1  0.33779383  0.65822024  0.66896154  1
  Al  Al0  1  0.98754691  0.00808362  0.64628611  1
  Al  Al1  1  0.02053670  0.00808362  0.14628611  1
  Al  Al2  1  0.65421391  0.34141662  0.97961911  1
  Al  Al3  1  0.68720370  0.34141662  0.47961911  1
  Al  Al4  1  0.32087991  0.67475062  0.31295311  1
  Al  Al5  1  0.35386970  0.67475062  0.81295311  1
  Sn  Sn0  1  0.99905600  0.00120033  0.35186465  1
  Sn  Sn1  1  0.00214432  0.00120033  0.85186465  1
  Sn  Sn2  1  0.66572300  0.33453333  0.68519765  1
  Sn  Sn3  1  0.66881132  0.33453333  0.18519765  1
  Sn  Sn4  1  0.33238900  0.66786733  0.01853165  1
  Sn  Sn5  1  0.33547732  0.66786733  0.51853165  1
  P  P0  1  0.28836023  0.99470834  0.24869939  1
  P  P1  1  0.00964450  0.29375514  0.24834066  1
  P  P2  1  0.28411064  0.29375514  0.74834066  1
  P  P3  1  0.70634811  0.99470834  0.74869939  1
  P  P4  1  0.95502723  0.32804134  0.58203239  1
  P  P5  1  0.67631150  0.62708814  0.58167366  1
  P  P6  1  0.95077764  0.62708814  0.08167366  1
  P  P7  1  0.37301511  0.32804134  0.08203239  1
  P  P8  1  0.62169323  0.66137534  0.91536639  1
  P  P9  1  0.34297750  0.96042214  0.91500766  1
  P  P10  1  0.61744364  0.96042214  0.41500766  1
  P  P11  1  0.03968111  0.66137534  0.41536639  1
  S  S0  1  0.70406730  0.71328416  0.24821738  1
  S  S1  1  0.00921686  0.71328416  0.74821738  1
  S  S2  1  0.37073430  0.04661716  0.58155038  1
  S  S3  1  0.67588386  0.04661716  0.08155038  1
  S  S4  1  0.03740030  0.37995116  0.91488438  1
  S  S5  1  0.34254986  0.37995116  0.41488438  1
  O  O0  1  0.21589208  0.03550786  0.30674708  1
  O  O1  1  0.81301805  0.78162814  0.30435590  1
  O  O2  1  0.96382076  0.18019995  0.30619828  1
  O  O3  1  0.21637920  0.18019995  0.80619828  1
  O  O4  1  0.96861009  0.78162814  0.80435590  1
  O  O5  1  0.81961578  0.03550786  0.80674708  1
  O  O6  1  0.79670921  0.96625303  0.69379849  1
  O  O7  1  0.16709197  0.19615718  0.69335564  1
  O  O8  1  0.03061527  0.82333792  0.69572301  1
  O  O9  1  0.79272264  0.82333792  0.19572301  1
  O  O10  1  0.02906521  0.19615718  0.19335564  1
  O  O11  1  0.16954382  0.96625303  0.19379849  1
  O  O12  1  0.88255908  0.36884086  0.64008008  1
  O  O13  1  0.47968505  0.11496114  0.63768890  1
  O  O14  1  0.63048776  0.51353295  0.63953128  1
  O  O15  1  0.88304620  0.51353295  0.13953128  1
  O  O16  1  0.63527709  0.11496114  0.13768890  1
  O  O17  1  0.48628278  0.36884086  0.14008008  1
  O  O18  1  0.46337621  0.29958603  0.02713149  1
  O  O19  1  0.83375897  0.52949018  0.02668864  1
  O  O20  1  0.69728227  0.15667092  0.02905601  1
  O  O21  1  0.45938964  0.15667092  0.52905601  1
  O  O22  1  0.69573221  0.52949018  0.52668864  1
  O  O23  1  0.83621082  0.29958603  0.52713149  1
  O  O24  1  0.54922508  0.70217486  0.97341408  1
  O  O25  1  0.14635105  0.44829514  0.97102290  1
  O  O26  1  0.29715376  0.84686695  0.97286528  1
  O  O27  1  0.54971220  0.84686695  0.47286528  1
  O  O28  1  0.30194309  0.44829514  0.47102290  1
  O  O29  1  0.15294878  0.70217486  0.47341408  1
  O  O30  1  0.13004221  0.63292003  0.36046549  1
  O  O31  1  0.50042497  0.86282418  0.36002264  1
  O  O32  1  0.36394827  0.49000492  0.36239001  1
  O  O33  1  0.12605564  0.49000492  0.86239001  1
  O  O34  1  0.36239821  0.86282418  0.86002264  1
  O  O35  1  0.50287682  0.63292003  0.86046549  1
  O  O36  1  0.01901797  0.83150782  0.41076608  1
  O  O37  1  0.81112878  0.98582926  0.41075043  1
  O  O38  1  0.17907801  0.19586697  0.41148944  1
  O  O39  1  0.01678897  0.19586697  0.91148944  1
  O  O40  1  0.17470048  0.98582926  0.91075043  1
  O  O41  1  0.81248985  0.83150782  0.91076608  1
  O  O42  1  0.97336043  0.15959690  0.58996625  1
  O  O43  1  0.19228464  0.02950845  0.58969230  1
  O  O44  1  0.84762232  0.81202169  0.59145437  1
  O  O45  1  0.96439937  0.81202169  0.09145437  1
  O  O46  1  0.83722381  0.02950845  0.08969230  1
  O  O47  1  0.18623647  0.15959690  0.08996625  1
  O  O48  1  0.68568497  0.16484082  0.74409908  1
  O  O49  1  0.47779578  0.31916226  0.74408343  1
  O  O50  1  0.84574501  0.52919997  0.74482244  1
  O  O51  1  0.68345597  0.52919997  0.24482244  1
  O  O52  1  0.84136748  0.31916226  0.24408343  1
  O  O53  1  0.47915685  0.16484082  0.24409908  1
  O  O54  1  0.64002743  0.49292990  0.92329925  1
  O  O55  1  0.85895164  0.36284145  0.92302530  1
  O  O56  1  0.51428932  0.14535469  0.92478737  1
  O  O57  1  0.63106637  0.14535469  0.42478737  1
  O  O58  1  0.50389081  0.36284145  0.42302530  1
  O  O59  1  0.85290347  0.49292990  0.42329925  1
  O  O60  1  0.35235097  0.49817482  0.07743308  1
  O  O61  1  0.14446178  0.65249626  0.07741743  1
  O  O62  1  0.51241101  0.86253397  0.07815644  1
  O  O63  1  0.35012197  0.86253397  0.57815644  1
  O  O64  1  0.50803348  0.65249626  0.57741743  1
  O  O65  1  0.14582285  0.49817482  0.57743308  1
  O  O66  1  0.30669343  0.82626390  0.25663325  1
  O  O67  1  0.52561764  0.69617545  0.25635930  1
  O  O68  1  0.18095532  0.47868869  0.25812137  1
  O  O69  1  0.29773237  0.47868869  0.75812137  1
  O  O70  1  0.17055681  0.69617545  0.75635930  1
  O  O71  1  0.51956947  0.82626390  0.75663325  1
loop_
_geom_bond_atom_site_label_1
_geom_bond_atom_site_label_2
_geom_bond_distance
_geom_bond_site_symmetry_2
Na0 O44 2.444674 1_555
Na0 O42 2.459993 1_565
Na0 O37 2.526172 1_555
Na0 O43 2.534997 1_665
Na0 O36 2.543685 1_655
Na0 O38 2.658531 1_665
Na1 O45 2.444674 1_455
Na1 O47 2.459993 1_565
Na1 O40 2.526172 1_554
Na1 O46 2.534997 1_465
Na1 O41 2.543685 1_454
Na1 O39 2.658531 1_564
Na2 O56 2.444674 1_555
Na2 O54 2.459993 1_555
Na2 O49 2.526172 1_555
Na2 O55 2.534997 1_555
Na2 O48 2.543685 1_555
Na2 O50 2.658531 1_555
Na3 O57 2.444674 1_555
Na3 O59 2.459993 1_555
Na3 O52 2.526172 1_555
Na3 O58 2.534997 1_555
Na3 O53 2.543685 1_555
Na3 O51 2.658531 1_555
Na4 O68 2.444674 1_555
Na4 O66 2.459993 1_555
Na4 O61 2.526172 1_555
Na4 O67 2.534997 1_555
Na4 O60 2.543685 1_555
Na4 O62 2.658531 1_555
Na5 O69 2.444674 1_555
Na5 O71 2.459993 1_555
Na5 O64 2.526172 1_555
Na5 O70 2.534997 1_555
Na5 O65 2.543685 1_555
Na5 O63 2.658531 1_555
Al0 O6 1.829734 1_545
Al0 O42 1.862703 1_555
Al0 O7 1.888893 1_655
Al0 O44 1.928371 1_545
Al0 O43 2.095203 1_655
Al0 O8 2.115992 1_645
Al1 O11 1.829734 1_545
Al1 O47 1.862703 1_555
Al1 O10 1.888893 1_555
Al1 O45 1.928371 1_445
Al1 O46 2.095203 1_455
Al1 O9 2.115992 1_445
Al2 O18 1.829734 1_556
Al2 O54 1.862703 1_555
Al2 O19 1.888893 1_556
Al2 O56 1.928371 1_555
Al2 O55 2.095203 1_555
Al2 O20 2.115992 1_556
Al3 O23 1.829734 1_555
Al3 O59 1.862703 1_555
Al3 O22 1.888893 1_555
Al3 O57 1.928371 1_555
Al3 O58 2.095203 1_555
Al3 O21 2.115992 1_555
Al4 O30 1.829734 1_555
Al4 O66 1.862703 1_555
Al4 O31 1.888893 1_555
Al4 O68 1.928371 1_555
Al4 O67 2.095203 1_555
Al4 O32 2.115992 1_555
Al5 O35 1.829734 1_555
Al5 O71 1.862703 1_555
Al5 O34 1.888893 1_555
Al5 O69 1.928371 1_555
Al5 O70 2.095203 1_555
Al5 O33 2.115992 1_555
O0 P0 1.548966 1_545
O0 Sn0 2.002837 1_455
O1 S0 1.493140 1_555
O1 Sn0 2.045178 1_565
O2 P1 1.552803 1_655
O2 Sn0 1.993938 1_555
O3 P2 1.552803 1_555
O3 Sn1 1.993939 1_555
O4 S1 1.493140 1_655
O4 Sn1 2.045178 1_665
O5 P3 1.548966 1_545
O5 Sn1 2.002837 1_655
O6 P3 1.531983 1_555
O7 P2 1.536227 1_555
O8 S1 1.464364 1_555
O9 S0 1.464364 1_555
O10 P1 1.536227 1_555
O11 P0 1.531983 1_555
O12 P4 1.548966 1_555
O12 Sn2 2.002837 1_555
O13 S2 1.493140 1_555
O13 Sn2 2.045178 1_555
O14 P5 1.552803 1_555
O14 Sn2 1.993938 1_555
O15 P6 1.552803 1_555
O15 Sn3 1.993939 1_555
O16 S3 1.493140 1_555
O16 Sn3 2.045178 1_555
O17 P7 1.548966 1_555
O17 Sn3 2.002837 1_555
O18 P7 1.531983 1_555
O19 P6 1.536227 1_555
O20 S3 1.464364 1_555
O21 S2 1.464364 1_555
O22 P5 1.536227 1_555
O23 P4 1.531983 1_555
O24 P8 1.548966 1_555
O24 Sn4 2.002837 1_556
O25 S4 1.493140 1_555
O25 Sn4 2.045178 1_556
O26 P9 1.552803 1_555
O26 Sn4 1.993938 1_556
O27 P10 1.552803 1_555
O27 Sn5 1.993939 1_555
O28 S5 1.493140 1_555
O28 Sn5 2.045178 1_555
O29 P11 1.548966 1_555
O29 Sn5 2.002837 1_555
O30 P11 1.531983 1_555
O31 P10 1.536227 1_555
O32 S5 1.464364 1_555
O33 S4 1.464364 1_555
O34 P9 1.536227 1_555
O35 P8 1.531983 1_555
O36 P11 1.559124 1_555
O36 Sn0 2.038942 1_465
O37 P10 1.564734 1_555
O37 Sn0 2.032295 1_565
O38 S5 1.499569 1_555
O38 Sn0 2.081504 1_455
O39 S4 1.499573 1_555
O39 Sn1 2.081504 1_555
O40 P9 1.564725 1_555
O40 Sn1 2.032295 1_565
O41 P8 1.559129 1_555
O41 Sn1 2.038941 1_665
O42 P4 1.540565 1_555
O43 S2 1.472286 1_555
O44 P5 1.544724 1_555
O45 P6 1.544728 1_555
O46 S3 1.472277 1_555
O47 P7 1.540570 1_555
O48 P3 1.559124 1_545
O48 Sn2 2.038942 1_555
O49 P2 1.564734 1_555
O49 Sn2 2.032295 1_555
O50 S1 1.499569 1_655
O50 Sn2 2.081504 1_555
O51 S0 1.499573 1_555
O51 Sn3 2.081504 1_555
O52 P1 1.564725 1_655
O52 Sn3 2.032295 1_555
O53 P0 1.559129 1_545
O53 Sn3 2.038941 1_555
O54 P8 1.540576 1_555
O55 S4 1.472271 1_655
O56 P9 1.544720 1_545
O57 P10 1.544713 1_545
O58 S5 1.472288 1_555
O59 P11 1.540566 1_655
O60 P7 1.559135 1_555
O60 Sn4 2.038942 1_555
O61 P6 1.564721 1_455
O61 Sn4 2.032295 1_555
O62 S3 1.499567 1_565
O62 Sn4 2.081504 1_555
O63 S2 1.499560 1_565
O63 Sn5 2.081504 1_555
O64 P5 1.564738 1_555
O64 Sn5 2.032295 1_555
O65 P4 1.559126 1_455
O65 Sn5 2.038941 1_555
O66 P0 1.540565 1_555
O67 S0 1.472286 1_555
O68 P1 1.544724 1_555
O69 P2 1.544728 1_555
O70 S1 1.472277 1_555
O71 P3 1.540570 1_555
