# generated using pymatgen
data_Na12Nb4Zn2(SiO4)9
_symmetry_space_group_name_H-M   'P 1'
_cell_length_a   9.17349849
_cell_length_b   9.17349816
_cell_length_c   22.42814234
_cell_angle_alpha   90.00000000
_cell_angle_beta   90.00000000
_cell_angle_gamma   120.00000114
_symmetry_Int_Tables_number   1
_chemical_formula_structural   Na12Nb4Zn2(SiO4)9
_chemical_formula_sum   'Na24 Nb8 Zn4 Si18 O72'
_cell_volume   1634.53378837
_cell_formula_units_Z   2
loop_
 _symmetry_equiv_pos_site_id
 _symmetry_equiv_pos_as_xyz
  1  'x, y, z'
loop_
 _atom_site_type_symbol
 _atom_site_label
 _atom_site_symmetry_multiplicity
 _atom_site_fract_x
 _atom_site_fract_y
 _atom_site_fract_z
 _atom_site_occupancy
  Na  Na0  1  0.64125299  0.02382399  0.24601069  1
  Na  Na1  1  0.38257100  0.35874701  0.24601069  1
  Na  Na2  1  0.97617601  0.61742900  0.24601069  1
  Na  Na3  1  0.64125299  0.61742900  0.74601069  1
  Na  Na4  1  0.97617601  0.35874701  0.74601069  1
  Na  Na5  1  0.38257100  0.02382399  0.74601069  1
  Na  Na6  1  0.30866258  0.33424009  0.58715390  1
  Na  Na7  1  0.02557851  0.69133742  0.58715390  1
  Na  Na8  1  0.66575991  0.97442149  0.58715390  1
  Na  Na9  1  0.30866258  0.97442149  0.08715390  1
  Na  Na10  1  0.66575991  0.69133742  0.08715390  1
  Na  Na11  1  0.02557851  0.33424009  0.08715390  1
  Na  Na12  1  0.96436177  0.68708540  0.90812205  1
  Na  Na13  1  0.72272262  0.03563823  0.90812205  1
  Na  Na14  1  0.31291460  0.27727738  0.90812205  1
  Na  Na15  1  0.96436177  0.27727738  0.40812205  1
  Na  Na16  1  0.31291460  0.03563823  0.40812205  1
  Na  Na17  1  0.72272262  0.68708540  0.40812205  1
  Na  Na18  1  0.00000000  0.00000000  0.49251646  1
  Na  Na19  1  0.00000000  0.00000000  0.99251646  1
  Na  Na20  1  0.66666700  0.33333300  0.82197343  1
  Na  Na21  1  0.66666700  0.33333300  0.32197343  1
  Na  Na22  1  0.33333300  0.66666700  0.16776303  1
  Na  Na23  1  0.33333300  0.66666700  0.66776303  1
  Nb  Nb0  1  0.00000000  0.00000000  0.64928326  1
  Nb  Nb1  1  -0.00000000  0.00000000  0.14928326  1
  Nb  Nb2  1  0.66666700  0.33333300  0.97982638  1
  Nb  Nb3  1  0.66666700  0.33333300  0.47982638  1
  Nb  Nb4  1  0.33333300  0.66666700  0.01901295  1
  Nb  Nb5  1  0.33333300  0.66666700  0.51901295  1
  Nb  Nb6  1  0.33333300  0.66666700  0.31124519  1
  Nb  Nb7  1  0.33333300  0.66666700  0.81124519  1
  Zn  Zn0  1  0.00000000  0.00000000  0.34804434  1
  Zn  Zn1  1  0.00000000  0.00000000  0.84804434  1
  Zn  Zn2  1  0.66666700  0.33333300  0.68237681  1
  Zn  Zn3  1  0.66666700  0.33333300  0.18237681  1
  Si  Si0  1  0.29341294  0.00141911  0.25386951  1
  Si  Si1  1  0.70800616  0.70658706  0.25386951  1
  Si  Si2  1  0.99858089  0.29199384  0.25386951  1
  Si  Si3  1  0.29341294  0.29199384  0.75386951  1
  Si  Si4  1  0.99858089  0.70658706  0.75386951  1
  Si  Si5  1  0.70800616  0.00141911  0.75386951  1
  Si  Si6  1  0.95880363  0.33325980  0.58519409  1
  Si  Si7  1  0.37445718  0.04119637  0.58519409  1
  Si  Si8  1  0.66674020  0.62554282  0.58519409  1
  Si  Si9  1  0.95880363  0.62554282  0.08519409  1
  Si  Si10  1  0.66674020  0.04119637  0.08519409  1
  Si  Si11  1  0.37445718  0.33325980  0.08519409  1
  Si  Si12  1  0.62330740  0.66322049  0.91659385  1
  Si  Si13  1  0.03991210  0.37669260  0.91659385  1
  Si  Si14  1  0.33677951  0.96008790  0.91659385  1
  Si  Si15  1  0.62330740  0.96008790  0.41659385  1
  Si  Si16  1  0.33677951  0.37669260  0.41659385  1
  Si  Si17  1  0.03991210  0.66322049  0.41659385  1
  O  O0  1  0.21203176  0.03074167  0.31248255  1
  O  O1  1  0.81870991  0.78796824  0.31248255  1
  O  O2  1  0.96925833  0.18129009  0.31248255  1
  O  O3  1  0.21203176  0.18129009  0.81248255  1
  O  O4  1  0.96925833  0.78796824  0.81248255  1
  O  O5  1  0.81870991  0.03074167  0.81248255  1
  O  O6  1  0.80376720  0.97001415  0.69350265  1
  O  O7  1  0.16624695  0.19623280  0.69350265  1
  O  O8  1  0.02998585  0.83375305  0.69350265  1
  O  O9  1  0.80376720  0.83375305  0.19350265  1
  O  O10  1  0.02998585  0.19623280  0.19350265  1
  O  O11  1  0.16624695  0.97001415  0.19350265  1
  O  O12  1  0.89002046  0.38096502  0.64295708  1
  O  O13  1  0.49094556  0.10997954  0.64295708  1
  O  O14  1  0.61903498  0.50905444  0.64295708  1
  O  O15  1  0.89002046  0.50905444  0.14295708  1
  O  O16  1  0.61903498  0.10997954  0.14295708  1
  O  O17  1  0.49094556  0.38096502  0.14295708  1
  O  O18  1  0.46956593  0.30363513  0.02642026  1
  O  O19  1  0.83407019  0.53043407  0.02642026  1
  O  O20  1  0.69636487  0.16592981  0.02642026  1
  O  O21  1  0.46956593  0.16592981  0.52642026  1
  O  O22  1  0.69636487  0.53043407  0.52642026  1
  O  O23  1  0.83407019  0.30363513  0.52642026  1
  O  O24  1  0.51919629  0.67751325  0.97454160  1
  O  O25  1  0.15831596  0.48080371  0.97454160  1
  O  O26  1  0.32248675  0.84168404  0.97454160  1
  O  O27  1  0.51919629  0.84168404  0.47454160  1
  O  O28  1  0.32248675  0.48080371  0.47454160  1
  O  O29  1  0.15831596  0.67751325  0.47454160  1
  O  O30  1  0.13487583  0.63260672  0.35861817  1
  O  O31  1  0.49772989  0.86512417  0.35861817  1
  O  O32  1  0.36739328  0.50227011  0.35861817  1
  O  O33  1  0.13487583  0.50227011  0.85861817  1
  O  O34  1  0.36739328  0.86512417  0.85861817  1
  O  O35  1  0.49772989  0.63260672  0.85861817  1
  O  O36  1  0.02321999  0.82845100  0.41788954  1
  O  O37  1  0.80523101  0.97678001  0.41788954  1
  O  O38  1  0.17154900  0.19476899  0.41788954  1
  O  O39  1  0.02321999  0.19476899  0.91788954  1
  O  O40  1  0.17154900  0.97678001  0.91788954  1
  O  O41  1  0.80523101  0.82845100  0.91788954  1
  O  O42  1  0.97494719  0.16125177  0.58817320  1
  O  O43  1  0.18630458  0.02505281  0.58817320  1
  O  O44  1  0.83874823  0.81369542  0.58817320  1
  O  O45  1  0.97494719  0.81369542  0.08817320  1
  O  O46  1  0.83874823  0.02505281  0.08817320  1
  O  O47  1  0.18630458  0.16125177  0.08817320  1
  O  O48  1  0.67912934  0.15888034  0.74563409  1
  O  O49  1  0.47975200  0.32087066  0.74563409  1
  O  O50  1  0.84111966  0.52024800  0.74563409  1
  O  O51  1  0.67912934  0.52024800  0.24563409  1
  O  O52  1  0.84111966  0.32087066  0.24563409  1
  O  O53  1  0.47975200  0.15888034  0.24563409  1
  O  O54  1  0.63014160  0.48660147  0.92253517  1
  O  O55  1  0.85646087  0.36985840  0.92253517  1
  O  O56  1  0.51339853  0.14353913  0.92253517  1
  O  O57  1  0.63014160  0.14353913  0.42253517  1
  O  O58  1  0.51339853  0.36985840  0.42253517  1
  O  O59  1  0.85646087  0.48660147  0.42253517  1
  O  O60  1  0.34266506  0.49502148  0.07494677  1
  O  O61  1  0.15235542  0.65733494  0.07494677  1
  O  O62  1  0.50497852  0.84764458  0.07494677  1
  O  O63  1  0.34266506  0.84764458  0.57494677  1
  O  O64  1  0.50497852  0.65733494  0.57494677  1
  O  O65  1  0.15235542  0.49502148  0.57494677  1
  O  O66  1  0.29697764  0.81950886  0.25467421  1
  O  O67  1  0.52253022  0.70302236  0.25467421  1
  O  O68  1  0.18049114  0.47746978  0.25467421  1
  O  O69  1  0.29697764  0.47746978  0.75467421  1
  O  O70  1  0.18049114  0.70302236  0.75467421  1
  O  O71  1  0.52253022  0.81950886  0.75467421  1
loop_
_geom_bond_atom_site_label_1
_geom_bond_atom_site_label_2
_geom_bond_distance
_geom_bond_site_symmetry_2
Na0 O53 2.359130 1_555
Na0 O52 2.406440 1_555
Na0 O16 2.483826 1_555
Na0 O67 2.584436 1_545
Na0 O66 2.757825 1_545
Na0 O31 2.883519 1_545
Na1 O51 2.359138 1_555
Na1 O53 2.406447 1_555
Na1 O17 2.483829 1_555
Na1 O68 2.584445 1_555
Na1 O67 2.757826 1_555
Na1 O32 2.883522 1_555
Na2 O52 2.359138 1_555
Na2 O51 2.406438 1_555
Na2 O15 2.483828 1_555
Na2 O66 2.584438 1_655
Na2 O68 2.757818 1_655
Na2 O30 2.883517 1_655
Na3 O49 2.359138 1_555
Na3 O50 2.406447 1_555
Na3 O14 2.483829 1_555
Na3 O71 2.584445 1_555
Na3 O69 2.757826 1_555
Na3 O35 2.883522 1_555
Na4 O50 2.359130 1_555
Na4 O48 2.406440 1_555
Na4 O12 2.483826 1_555
Na4 O69 2.584436 1_655
Na4 O70 2.757825 1_655
Na4 O33 2.883519 1_655
Na5 O48 2.359138 1_555
Na5 O49 2.406438 1_555
Na5 O13 2.483828 1_555
Na5 O70 2.584438 1_545
Na5 O71 2.757818 1_545
Na5 O34 2.883517 1_545
Na6 O43 2.474175 1_555
Na6 O65 2.534022 1_555
Na6 O64 2.601011 1_555
Na6 O42 2.651891 1_455
Na6 O7 2.710132 1_555
Na6 O14 2.771054 1_555
Na6 O28 2.834139 1_555
Na6 O21 2.949080 1_555
Na7 O44 2.474183 1_455
Na7 O63 2.534006 1_555
Na7 O65 2.600996 1_555
Na7 O43 2.651891 1_565
Na7 O8 2.710134 1_555
Na7 O12 2.771054 1_455
Na7 O29 2.834131 1_555
Na7 O22 2.949080 1_455
Na8 O42 2.474176 1_565
Na8 O64 2.534006 1_555
Na8 O63 2.601013 1_555
Na8 O44 2.651883 1_555
Na8 O6 2.710130 1_555
Na8 O13 2.771054 1_565
Na8 O27 2.834136 1_555
Na8 O23 2.949080 1_565
Na9 O47 2.474183 1_565
Na9 O61 2.534006 1_555
Na9 O62 2.600996 1_555
Na9 O45 2.651891 1_455
Na9 O11 2.710134 1_555
Na9 O16 2.771054 1_565
Na9 O26 2.834131 1_554
Na9 O18 2.949080 1_565
Na10 O45 2.474175 1_555
Na10 O62 2.534022 1_555
Na10 O60 2.601011 1_555
Na10 O46 2.651891 1_565
Na10 O9 2.710132 1_555
Na10 O17 2.771054 1_555
Na10 O24 2.834139 1_554
Na10 O19 2.949080 1_555
Na11 O46 2.474176 1_455
Na11 O60 2.534006 1_555
Na11 O61 2.601013 1_555
Na11 O47 2.651883 1_555
Na11 O10 2.710130 1_555
Na11 O15 2.771054 1_455
Na11 O25 2.834136 1_554
Na11 O20 2.949080 1_455
Na12 O4 2.327659 1_555
Na12 O40 2.381557 1_655
Na12 O41 2.398703 1_555
Na12 O55 2.583089 1_555
Na12 O54 2.692276 1_555
Na13 O5 2.327663 1_555
Na13 O41 2.381563 1_545
Na13 O39 2.398710 1_655
Na13 O56 2.583072 1_555
Na13 O55 2.692273 1_555
Na14 O3 2.327661 1_555
Na14 O39 2.381555 1_555
Na14 O40 2.398711 1_545
Na14 O54 2.583086 1_555
Na14 O56 2.692290 1_555
Na15 O2 2.327663 1_555
Na15 O38 2.381564 1_655
Na15 O37 2.398710 1_545
Na15 O59 2.583072 1_555
Na15 O57 2.692274 1_555
Na16 O0 2.327659 1_555
Na16 O36 2.381557 1_545
Na16 O38 2.398703 1_555
Na16 O57 2.583089 1_555
Na16 O58 2.692276 1_555
Na17 O1 2.327661 1_555
Na17 O37 2.381555 1_555
Na17 O36 2.398711 1_655
Na17 O58 2.583086 1_555
Na17 O59 2.692290 1_555
Na18 O38 2.378770 1_555
Na18 O36 2.378770 1_545
Na18 O37 2.378770 1_445
Na18 O44 2.680241 1_445
Na18 O42 2.680241 1_455
Na18 O43 2.680241 1_555
Na19 O39 2.378770 1_555
Na19 O41 2.378770 1_445
Na19 O40 2.378770 1_545
Na19 O45 2.680241 1_446
Na19 O47 2.680241 1_556
Na19 O46 2.680241 1_456
Na20 O50 2.385073 1_555
Na20 O48 2.385073 1_555
Na20 O49 2.385073 1_555
Na20 O56 2.765343 1_555
Na20 O54 2.765343 1_555
Na20 O55 2.765343 1_555
Na21 O51 2.385073 1_555
Na21 O53 2.385073 1_555
Na21 O52 2.385073 1_555
Na21 O57 2.765343 1_555
Na21 O59 2.765343 1_555
Na21 O58 2.765343 1_555
Na22 O68 2.518790 1_555
Na22 O66 2.518790 1_555
Na22 O67 2.518790 1_555
Na22 O62 2.637218 1_555
Na22 O60 2.637218 1_555
Na22 O61 2.637218 1_555
Na23 O69 2.518790 1_555
Na23 O71 2.518790 1_555
Na23 O70 2.518790 1_555
Na23 O63 2.637218 1_555
Na23 O65 2.637218 1_555
Na23 O64 2.637218 1_555
Nb0 O7 1.950535 1_555
Nb0 O8 1.950535 1_545
Nb0 O6 1.950535 1_445
Nb0 O44 2.111739 1_445
Nb0 O42 2.111739 1_455
Nb0 O43 2.111739 1_555
Nb1 O10 1.950535 1_555
Nb1 O9 1.950535 1_445
Nb1 O11 1.950535 1_545
Nb1 O45 2.111739 1_445
Nb1 O47 2.111739 1_555
Nb1 O46 2.111739 1_455
Nb2 O20 1.985682 1_556
Nb2 O19 1.985682 1_556
Nb2 O18 1.985682 1_556
Nb2 O56 2.052143 1_555
Nb2 O54 2.052143 1_555
Nb2 O55 2.052143 1_555
Nb3 O23 1.985682 1_555
Nb3 O21 1.985682 1_555
Nb3 O22 1.985682 1_555
Nb3 O57 2.052143 1_555
Nb3 O59 2.052143 1_555
Nb3 O58 2.052143 1_555
Nb4 O25 1.934467 1_554
Nb4 O26 1.934467 1_554
Nb4 O24 1.934467 1_554
Nb4 O62 2.048221 1_555
Nb4 O60 2.048221 1_555
Nb4 O61 2.048221 1_555
Nb5 O28 1.934467 1_555
Nb5 O27 1.934467 1_555
Nb5 O29 1.934467 1_555
Nb5 O63 2.048221 1_555
Nb5 O65 2.048221 1_555
Nb5 O64 2.048221 1_555
Nb6 O31 1.993004 1_555
Nb6 O32 1.993004 1_555
Nb6 O30 1.993004 1_555
Nb6 O68 2.038261 1_555
Nb6 O66 2.038261 1_555
Nb6 O67 2.038261 1_555
Nb7 O34 1.993004 1_555
Nb7 O33 1.993004 1_555
Nb7 O35 1.993004 1_555
Nb7 O69 2.038261 1_555
Nb7 O71 2.038261 1_555
Nb7 O70 2.038261 1_555
O0 Si0 1.599573 1_555
O0 Zn0 1.987574 1_555
O1 Si1 1.599573 1_555
O1 Zn0 1.987574 1_665
O2 Si2 1.599573 1_555
O2 Zn0 1.987574 1_655
O3 Si3 1.599573 1_555
O3 Zn1 1.987574 1_555
O4 Si4 1.599573 1_555
O4 Zn1 1.987574 1_665
O5 Si5 1.599573 1_555
O5 Zn1 1.987574 1_655
O6 Si5 1.714895 1_565
O7 Si3 1.714895 1_555
O8 Si4 1.714895 1_455
O9 Si1 1.714895 1_555
O10 Si2 1.714895 1_455
O11 Si0 1.714895 1_565
O12 Si6 1.595039 1_555
O12 Zn2 2.067709 1_555
O13 Si7 1.595039 1_555
O13 Zn2 2.067709 1_555
O14 Si8 1.595039 1_555
O14 Zn2 2.067709 1_555
O15 Si9 1.595039 1_555
O15 Zn3 2.067709 1_555
O16 Si10 1.595039 1_555
O16 Zn3 2.067709 1_555
O17 Si11 1.595039 1_555
O17 Zn3 2.067709 1_555
O18 Si11 1.676246 1_555
O19 Si9 1.676246 1_555
O20 Si10 1.676246 1_555
O21 Si7 1.676246 1_555
O22 Si8 1.676246 1_555
O23 Si6 1.676246 1_555
O24 Si12 1.656405 1_555
O25 Si13 1.656405 1_555
O26 Si14 1.656405 1_555
O27 Si15 1.656405 1_555
O28 Si16 1.656405 1_555
O29 Si17 1.656405 1_555
O30 Si17 1.665282 1_555
O31 Si15 1.665282 1_555
O32 Si16 1.665282 1_555
O33 Si13 1.665282 1_555
O34 Si14 1.665282 1_555
O35 Si12 1.665282 1_555
O36 Si17 1.598081 1_555
O36 Zn0 2.304571 1_565
O37 Si15 1.598090 1_555
O37 Zn0 2.304571 1_665
O38 Si16 1.598086 1_555
O38 Zn0 2.304571 1_555
O39 Si13 1.598090 1_555
O39 Zn1 2.304571 1_555
O40 Si14 1.598081 1_555
O40 Zn1 2.304571 1_565
O41 Si12 1.598086 1_555
O41 Zn1 2.304571 1_665
O42 Si6 1.658279 1_555
O43 Si7 1.658289 1_555
O44 Si8 1.658285 1_555
O45 Si9 1.658289 1_555
O46 Si10 1.658280 1_555
O47 Si11 1.658285 1_555
O48 Si5 1.604190 1_555
O48 Zn2 2.184022 1_555
O49 Si3 1.604199 1_555
O49 Zn2 2.184022 1_555
O50 Si4 1.604196 1_555
O50 Zn2 2.184022 1_555
O51 Si1 1.604199 1_555
O51 Zn3 2.184022 1_555
O52 Si2 1.604190 1_555
O52 Zn3 2.184022 1_555
O53 Si0 1.604196 1_555
O53 Zn3 2.184022 1_555
O54 Si12 1.657817 1_555
O55 Si13 1.657799 1_655
O56 Si14 1.657808 1_545
O57 Si15 1.657799 1_545
O58 Si16 1.657817 1_555
O59 Si17 1.657808 1_655
O60 Si11 1.665135 1_555
O61 Si9 1.665117 1_455
O62 Si10 1.665124 1_565
O63 Si7 1.665117 1_565
O64 Si8 1.665135 1_555
O65 Si6 1.665124 1_455
O66 Si0 1.685438 1_565
O67 Si1 1.685447 1_555
O68 Si2 1.685443 1_455
O69 Si3 1.685447 1_555
O70 Si4 1.685438 1_455
O71 Si5 1.685443 1_565
