# generated using pymatgen
data_RbMgCr3O8
_symmetry_space_group_name_H-M   'P 1'
_cell_length_a   5.33245534
_cell_length_b   5.33245619
_cell_length_c   7.09998830
_cell_angle_alpha   87.16541041
_cell_angle_beta   87.16541077
_cell_angle_gamma   65.07138274
_symmetry_Int_Tables_number   1
_chemical_formula_structural   RbMgCr3O8
_chemical_formula_sum   'Rb1 Mg1 Cr3 O8'
_cell_volume   182.76427196
_cell_formula_units_Z   1
loop_
 _symmetry_equiv_pos_site_id
 _symmetry_equiv_pos_as_xyz
  1  'x, y, z'
loop_
 _atom_site_type_symbol
 _atom_site_label
 _atom_site_symmetry_multiplicity
 _atom_site_fract_x
 _atom_site_fract_y
 _atom_site_fract_z
 _atom_site_occupancy
  Rb  Rb0  1  0.98861400  0.98861400  0.01738900  1
  Mg  Mg0  1  0.33177000  0.33177000  0.74375800  1
  Cr  Cr0  1  0.36560200  0.36560200  0.28645000  1
  Cr  Cr1  1  0.63899200  0.63899200  0.70422800  1
  Cr  Cr2  1  0.99744400  0.99744400  0.50899800  1
  O  O0  1  0.73178300  0.26752100  0.69793400  1
  O  O1  1  0.71424900  0.23563900  0.32269600  1
  O  O2  1  0.23563900  0.71424900  0.32269600  1
  O  O3  1  0.26752100  0.73178300  0.69793400  1
  O  O4  1  0.22640100  0.22640100  0.48907600  1
  O  O5  1  0.77226100  0.77226100  0.52808300  1
  O  O6  1  0.69825300  0.69825300  0.91707400  1
  O  O7  1  0.30647100  0.30647100  0.06055900  1
loop_
_geom_bond_atom_site_label_1
_geom_bond_atom_site_label_2
_geom_bond_distance
_geom_bond_site_symmetry_2
Mg0 O0 2.024718 1_555
Mg0 O3 2.024718 1_555
Mg0 O4 2.090035 1_555
Mg0 O7 2.247441 1_556
Cr0 O1 1.716534 1_555
Cr0 O2 1.716535 1_555
Cr0 O7 1.718994 1_555
Cr0 O4 1.850646 1_555
Cr1 O6 1.631595 1_555
Cr1 O5 1.680487 1_555
Cr1 O3 1.830558 1_555
Cr1 O0 1.830558 1_555
Cr2 O1 2.014426 1_565
Cr2 O2 2.014426 1_655
Cr2 O5 2.021231 1_555
Cr2 O3 2.040512 1_655
Cr2 O0 2.040512 1_565
Cr2 O4 2.055140 1_665
O0 Rb0 2.736520 1_546
O1 Rb0 2.630327 1_545
O2 Rb0 2.630327 1_455
O3 Rb0 2.736520 1_456
O6 Rb0 2.746093 1_556
O7 Rb0 2.892102 1_445
