# generated using pymatgen
data_Na5HfAl3(PO4)6
_symmetry_space_group_name_H-M   'P 1'
_cell_length_a   8.64789855
_cell_length_b   8.63821481
_cell_length_c   21.93083316
_cell_angle_alpha   89.94444195
_cell_angle_beta   90.02208200
_cell_angle_gamma   119.99926232
_symmetry_Int_Tables_number   1
_chemical_formula_structural   Na5HfAl3(PO4)6
_chemical_formula_sum   'Na15 Hf3 Al9 P18 O72'
_cell_volume   1418.80715500
_cell_formula_units_Z   3
loop_
 _symmetry_equiv_pos_site_id
 _symmetry_equiv_pos_as_xyz
  1  'x, y, z'
loop_
 _atom_site_type_symbol
 _atom_site_label
 _atom_site_symmetry_multiplicity
 _atom_site_fract_x
 _atom_site_fract_y
 _atom_site_fract_z
 _atom_site_occupancy
  Na  Na0  1  0.63388089  0.99937390  0.25202428  1
  Na  Na1  1  0.36494714  0.36559166  0.25233662  1
  Na  Na2  1  0.00086170  0.63546637  0.25202624  1
  Na  Na3  1  0.63779239  0.63319662  0.74882579  1
  Na  Na4  1  0.99827367  0.36243099  0.74888932  1
  Na  Na5  1  0.03120771  0.69917688  0.58233724  1
  Na  Na6  1  0.66573333  0.96835106  0.58220161  1
  Na  Na7  1  0.66613949  0.69812151  0.08266167  1
  Na  Na8  1  0.03111491  0.33191887  0.08279083  1
  Na  Na9  1  0.00619017  0.00670647  0.49691899  1
  Na  Na10  1  0.00577913  0.99927561  0.99677344  1
  Na  Na11  1  0.66020875  0.32650429  0.83269625  1
  Na  Na12  1  0.66633565  0.33326302  0.33557278  1
  Na  Na13  1  0.33266732  0.67228353  0.16602366  1
  Na  Na14  1  0.33322030  0.66596174  0.66359395  1
  Hf  Hf0  1  0.66554427  0.33278310  0.97876338  1
  Hf  Hf1  1  0.66439218  0.33239971  0.47709678  1
  Hf  Hf2  1  0.33399455  0.67282683  0.81377781  1
  Al  Al0  1  0.00088916  0.00035644  0.35601618  1
  Al  Al1  1  0.00254358  0.00121625  0.85375694  1
  Al  Al2  1  0.00583449  0.00535952  0.64800570  1
  Al  Al3  1  0.00479338  0.99917496  0.14953331  1
  Al  Al4  1  0.65987153  0.32739630  0.68428915  1
  Al  Al5  1  0.66575332  0.33214159  0.18400738  1
  Al  Al6  1  0.33268679  0.67227219  0.01650131  1
  Al  Al7  1  0.33258796  0.66075775  0.51542191  1
  Al  Al8  1  0.33313278  0.66666009  0.31922335  1
  P  P0  1  0.28674796  0.00017892  0.25045860  1
  P  P1  1  0.71339804  0.71303322  0.25014808  1
  P  P2  1  0.99964263  0.28675829  0.25015225  1
  P  P3  1  0.28747517  0.27565537  0.74893749  1
  P  P4  1  0.99534941  0.71605903  0.74820342  1
  P  P5  1  0.72016424  0.00782996  0.74820151  1
  P  P6  1  0.96399180  0.33348196  0.58599283  1
  P  P7  1  0.37124365  0.04162409  0.58593968  1
  P  P8  1  0.66301004  0.62549981  0.58619224  1
  P  P9  1  0.96492840  0.63183414  0.08613657  1
  P  P10  1  0.66327299  0.03670268  0.08641036  1
  P  P11  1  0.36975271  0.32903787  0.08631563  1
  P  P12  1  0.63017918  0.67774861  0.91778338  1
  P  P13  1  0.04740069  0.37005827  0.91799057  1
  P  P14  1  0.32226225  0.95312467  0.91837620  1
  P  P15  1  0.62263235  0.94550484  0.41521205  1
  P  P16  1  0.32292002  0.37788421  0.41483652  1
  P  P17  1  0.05427161  0.67648814  0.41534733  1
  O  O0  1  0.20339203  0.03820590  0.30570604  1
  O  O1  1  0.83547416  0.79790910  0.30496092  1
  O  O2  1  0.96246087  0.16438215  0.30496454  1
  O  O3  1  0.20081278  0.16760007  0.80689059  1
  O  O4  1  0.96292595  0.79913442  0.80534761  1
  O  O5  1  0.83515252  0.03751403  0.80540764  1
  O  O6  1  0.79934667  0.96799414  0.69140447  1
  O  O7  1  0.16553845  0.19861430  0.69341731  1
  O  O8  1  0.02740290  0.82855021  0.69084649  1
  O  O9  1  0.79363964  0.82943372  0.19195214  1
  O  O10  1  0.03543482  0.20645320  0.19197539  1
  O  O11  1  0.16756893  0.96324513  0.19369637  1
  O  O12  1  0.87564990  0.36997062  0.64204586  1
  O  O13  1  0.49905165  0.12866670  0.64025437  1
  O  O14  1  0.63493819  0.50771618  0.64276972  1
  O  O15  1  0.87531187  0.50552403  0.14184187  1
  O  O16  1  0.63458041  0.12706762  0.14257432  1
  O  O17  1  0.49575872  0.36914006  0.14191175  1
  O  O18  1  0.45348897  0.29757304  0.02958805  1
  O  O19  1  0.84198911  0.54864144  0.03018793  1
  O  O20  1  0.70686311  0.15918884  0.03030115  1
  O  O21  1  0.45352546  0.15611410  0.52853019  1
  O  O22  1  0.70620047  0.54615703  0.53003365  1
  O  O23  1  0.84082766  0.29387710  0.52993330  1
  O  O24  1  0.53817024  0.69915520  0.97496748  1
  O  O25  1  0.16135312  0.46182134  0.97508429  1
  O  O26  1  0.29903686  0.83665132  0.97399283  1
  O  O27  1  0.53668113  0.83754309  0.47398391  1
  O  O28  1  0.29996854  0.46547884  0.47202312  1
  O  O29  1  0.16277239  0.69938990  0.47400932  1
  O  O30  1  0.13422447  0.63973447  0.35772257  1
  O  O31  1  0.50563838  0.86548594  0.35765879  1
  O  O32  1  0.36028119  0.49372105  0.35672749  1
  O  O33  1  0.12250657  0.48521998  0.85981602  1
  O  O34  1  0.36395055  0.87773896  0.86109206  1
  O  O35  1  0.51473609  0.63728145  0.85974667  1
  O  O36  1  0.02999090  0.84017812  0.40785530  1
  O  O37  1  0.81035964  0.96976084  0.40777603  1
  O  O38  1  0.15957748  0.18965140  0.40757649  1
  O  O39  1  0.02715719  0.18505166  0.90960310  1
  O  O40  1  0.15723644  0.97234669  0.90939109  1
  O  O41  1  0.81487736  0.84272849  0.90923047  1
  O  O42  1  0.97544955  0.16189803  0.59365808  1
  O  O43  1  0.18276385  0.01672145  0.59340580  1
  O  O44  1  0.83340644  0.81399223  0.59312807  1
  O  O45  1  0.97568128  0.81421900  0.09390330  1
  O  O46  1  0.83388398  0.01958907  0.09358007  1
  O  O47  1  0.18178156  0.16539005  0.09374037  1
  O  O48  1  0.69797834  0.17405946  0.74123312  1
  O  O49  1  0.48002219  0.30944720  0.74161253  1
  O  O50  1  0.82952466  0.52317725  0.74220596  1
  O  O51  1  0.69063936  0.52191125  0.24143227  1
  O  O52  1  0.83160952  0.30973349  0.24161824  1
  O  O53  1  0.47763108  0.16844350  0.24145564  1
  O  O54  1  0.64541939  0.50719103  0.92264246  1
  O  O55  1  0.86199148  0.35526988  0.92294088  1
  O  O56  1  0.49292546  0.13874572  0.92296543  1
  O  O57  1  0.64096636  0.13403270  0.42042988  1
  O  O58  1  0.49333461  0.35995424  0.42034219  1
  O  O59  1  0.86608894  0.50635667  0.42082896  1
  O  O60  1  0.35460450  0.50056318  0.07763774  1
  O  O61  1  0.14592626  0.64072679  0.07668184  1
  O  O62  1  0.49888804  0.84975443  0.07689637  1
  O  O63  1  0.35444090  0.85403389  0.57735929  1
  O  O64  1  0.49895994  0.64897746  0.57680417  1
  O  O65  1  0.14595857  0.50513749  0.57652893  1
  O  O66  1  0.31078202  0.83293130  0.25703526  1
  O  O67  1  0.52266034  0.68954426  0.25665374  1
  O  O68  1  0.16684900  0.47773651  0.25669341  1
  O  O69  1  0.30980853  0.46888104  0.75414908  1
  O  O70  1  0.15815292  0.68613911  0.75297777  1
  O  O71  1  0.53296548  0.83699112  0.75329188  1
loop_
_geom_bond_atom_site_label_1
_geom_bond_atom_site_label_2
_geom_bond_distance
_geom_bond_site_symmetry_2
Na0 O67 2.350277 1_555
Na0 O52 2.361870 1_565
Na0 O66 2.422625 1_555
Na0 O53 2.446420 1_565
Na0 O31 2.578488 1_555
Na0 O16 2.639418 1_565
Na0 O2 2.721114 1_565
Na0 O9 2.798675 1_555
Na1 O68 2.354193 1_555
Na1 O53 2.359506 1_555
Na1 O67 2.425670 1_555
Na1 O51 2.451582 1_555
Na1 O32 2.552950 1_555
Na1 O17 2.666951 1_555
Na1 O0 2.713567 1_555
Na1 O10 2.801020 1_555
Na2 O66 2.352330 1_555
Na2 O51 2.362602 1_455
Na2 O68 2.425439 1_555
Na2 O52 2.448326 1_455
Na2 O30 2.580742 1_555
Na2 O15 2.657534 1_455
Na2 O1 2.715453 1_455
Na2 O11 2.764831 1_555
Na3 O50 2.291228 1_555
Na3 O71 2.350898 1_555
Na3 O49 2.427499 1_555
Na3 O69 2.459147 1_555
Na3 O14 2.561913 1_555
Na3 O35 2.662877 1_555
Na3 O4 2.732669 1_555
Na3 O6 2.802781 1_555
Na4 O48 2.279156 1_555
Na4 O69 2.374831 1_655
Na4 O70 2.423440 1_655
Na4 O50 2.470823 1_555
Na4 O12 2.585740 1_555
Na4 O33 2.657225 1_655
Na4 O5 2.727503 1_555
Na4 O7 2.761581 1_655
Na5 O65 2.339721 1_555
Na5 O44 2.379700 1_455
Na5 O43 2.388905 1_565
Na5 O63 2.424000 1_555
Na5 O29 2.634109 1_555
Na5 O8 2.637226 1_555
Na5 O22 2.692209 1_455
Na5 O12 2.789262 1_455
Na6 O42 2.356812 1_565
Na6 O63 2.361166 1_555
Na6 O64 2.393085 1_555
Na6 O44 2.422890 1_555
Na6 O27 2.626216 1_555
Na6 O6 2.659349 1_555
Na6 O23 2.692810 1_565
Na6 O13 2.759966 1_565
Na7 O45 2.355357 1_555
Na7 O60 2.363331 1_555
Na7 O62 2.391165 1_555
Na7 O46 2.417792 1_565
Na7 O24 2.609755 1_554
Na7 O9 2.645706 1_555
Na7 O19 2.696676 1_555
Na7 O17 2.782542 1_555
Na8 O61 2.338908 1_555
Na8 O46 2.375216 1_455
Na8 O47 2.387051 1_555
Na8 O60 2.426042 1_555
Na8 O25 2.615393 1_554
Na8 O10 2.635351 1_555
Na8 O20 2.689124 1_455
Na8 O15 2.786948 1_455
Na9 O38 2.448634 1_555
Na9 O36 2.495727 1_545
Na9 O37 2.500002 1_445
Na9 O43 2.585065 1_555
Na9 O42 2.594456 1_455
Na9 O44 2.638947 1_445
Na10 O40 2.397831 1_555
Na10 O39 2.441678 1_565
Na10 O41 2.451587 1_455
Na10 O47 2.591791 1_566
Na10 O45 2.595840 1_456
Na10 O46 2.648000 1_466
Na11 O49 2.491699 1_555
Na11 O56 2.508424 1_555
Na11 O48 2.509981 1_555
Na11 O50 2.544948 1_555
Na11 O54 2.559180 1_555
Na11 O55 2.566798 1_555
Na12 O57 2.467745 1_555
Na12 O58 2.468905 1_555
Na12 O59 2.477046 1_555
Na12 O51 2.571678 1_555
Na12 O52 2.573592 1_555
Na12 O53 2.574930 1_555
Na13 O62 2.455567 1_555
Na13 O61 2.465699 1_555
Na13 O66 2.492732 1_555
Na13 O60 2.506173 1_555
Na13 O68 2.533852 1_555
Na13 O67 2.534842 1_555
Na14 O64 2.431383 1_555
Na14 O63 2.438408 1_555
Na14 O65 2.439547 1_555
Na14 O70 2.536123 1_555
Na14 O71 2.547009 1_555
Na14 O69 2.555841 1_555
Hf0 O56 2.008928 1_555
Hf0 O54 2.018242 1_555
Hf0 O55 2.023300 1_555
Hf0 O18 2.034948 1_556
Hf0 O20 2.045977 1_556
Hf0 O19 2.057829 1_556
Hf1 O21 2.034208 1_555
Hf1 O58 2.035747 1_555
Hf1 O57 2.044136 1_555
Hf1 O59 2.049460 1_555
Hf1 O22 2.055302 1_555
Hf1 O23 2.070531 1_555
Hf2 O34 1.954940 1_555
Hf2 O33 2.006256 1_555
Hf2 O35 2.007933 1_555
Hf2 O70 2.067989 1_555
Hf2 O71 2.071092 1_555
Hf2 O69 2.119744 1_555
Al0 O38 1.895818 1_555
Al0 O36 1.901385 1_545
Al0 O37 1.907521 1_445
Al0 O0 1.954300 1_555
Al0 O2 1.959342 1_455
Al0 O1 1.964495 1_445
Al1 O3 1.896371 1_555
Al1 O40 1.916305 1_545
Al1 O4 1.922750 1_445
Al1 O39 1.932010 1_555
Al1 O41 1.940288 1_445
Al1 O5 1.941693 1_455
Al2 O7 1.839224 1_555
Al2 O8 1.879405 1_545
Al2 O6 1.903440 1_445
Al2 O43 1.906718 1_555
Al2 O42 1.915742 1_455
Al2 O44 1.985486 1_445
Al3 O11 1.857731 1_555
Al3 O9 1.915993 1_455
Al3 O10 1.916017 1_565
Al3 O47 1.924015 1_565
Al3 O45 1.925031 1_455
Al3 O46 1.995041 1_465
Al4 O13 1.851630 1_555
Al4 O14 1.906516 1_555
Al4 O49 1.945114 1_555
Al4 O12 1.946796 1_555
Al4 O48 1.963565 1_555
Al4 O50 2.036549 1_555
Al5 O16 1.887285 1_555
Al5 O17 1.893100 1_555
Al5 O15 1.914923 1_555
Al5 O53 1.982740 1_555
Al5 O52 1.991677 1_555
Al5 O51 1.992628 1_555
Al6 O26 1.838592 1_554
Al6 O24 1.905133 1_554
Al6 O25 1.906274 1_554
Al6 O62 1.992385 1_555
Al6 O61 1.996373 1_555
Al6 O60 2.076232 1_555
Al7 O28 1.832489 1_555
Al7 O27 1.891127 1_555
Al7 O29 1.892431 1_555
Al7 O65 2.009102 1_555
Al7 O64 2.009282 1_555
Al7 O63 2.087324 1_555
Al8 O32 1.819753 1_555
Al8 O31 1.823604 1_555
Al8 O30 1.823873 1_555
Al8 O66 2.057653 1_555
Al8 O68 2.065870 1_555
Al8 O67 2.070171 1_555
O0 P0 1.527675 1_555
O1 P1 1.524405 1_555
O2 P2 1.524402 1_555
O3 P3 1.532046 1_555
O4 P4 1.538633 1_555
O5 P5 1.540534 1_555
O6 P5 1.541416 1_565
O7 P3 1.528477 1_555
O8 P4 1.527058 1_455
O9 P1 1.556253 1_555
O10 P2 1.556145 1_455
O11 P0 1.544223 1_565
O12 P6 1.560906 1_555
O13 P7 1.541278 1_555
O14 P8 1.544174 1_555
O15 P9 1.560813 1_555
O16 P10 1.543961 1_555
O17 P11 1.554464 1_555
O18 P11 1.531068 1_555
O19 P9 1.545633 1_555
O20 P10 1.541029 1_555
O21 P7 1.537583 1_555
O22 P8 1.544047 1_555
O23 P6 1.548687 1_555
O24 P12 1.545448 1_555
O25 P13 1.545017 1_555
O26 P14 1.528421 1_555
O27 P15 1.545561 1_555
O28 P16 1.528737 1_555
O29 P17 1.545507 1_555
O30 P17 1.548198 1_555
O31 P15 1.547880 1_555
O32 P16 1.550560 1_555
O33 P13 1.546365 1_555
O34 P14 1.539152 1_555
O35 P12 1.545894 1_555
O36 P17 1.538465 1_555
O37 P15 1.538201 1_555
O38 P16 1.538867 1_555
O39 P13 1.529467 1_555
O40 P14 1.529631 1_555
O41 P12 1.529989 1_555
O42 P6 1.543144 1_555
O43 P7 1.542515 1_555
O44 P8 1.564207 1_555
O45 P9 1.540715 1_555
O46 P10 1.562481 1_555
O47 P11 1.539209 1_555
O48 P5 1.548255 1_555
O49 P3 1.548462 1_555
O50 P4 1.568705 1_555
O51 P1 1.573714 1_555
O52 P2 1.572934 1_555
O53 P0 1.573845 1_555
O54 P12 1.547008 1_555
O55 P13 1.547347 1_655
O56 P14 1.546973 1_545
O57 P15 1.559659 1_545
O58 P16 1.561576 1_555
O59 P17 1.559120 1_655
O60 P11 1.562774 1_555
O61 P9 1.542365 1_455
O62 P10 1.541784 1_565
O63 P7 1.564441 1_565
O64 P8 1.543892 1_555
O65 P6 1.544153 1_455
O66 P0 1.565587 1_565
O67 P1 1.564532 1_555
O68 P2 1.564574 1_455
O69 P3 1.585665 1_555
O70 P4 1.556815 1_455
O71 P5 1.556235 1_565
