# generated using pymatgen
data_MnInO3
_symmetry_space_group_name_H-M   'P 1'
_cell_length_a   5.96051327
_cell_length_b   5.96052317
_cell_length_c   11.56934856
_cell_angle_alpha   90.00900856
_cell_angle_beta   90.00863077
_cell_angle_gamma   58.26208348
_symmetry_Int_Tables_number   1
_chemical_formula_structural   MnInO3
_chemical_formula_sum   'Mn6 In6 O18'
_cell_volume   349.56863235
_cell_formula_units_Z   6
loop_
 _symmetry_equiv_pos_site_id
 _symmetry_equiv_pos_as_xyz
  1  'x, y, z'
loop_
 _atom_site_type_symbol
 _atom_site_label
 _atom_site_symmetry_multiplicity
 _atom_site_fract_x
 _atom_site_fract_y
 _atom_site_fract_z
 _atom_site_occupancy
  Mn  Mn0  1  0.33692152  0.66308080  0.75000587  1
  Mn  Mn1  1  0.32733046  0.00486918  0.25095335  1
  Mn  Mn2  1  0.99513125  0.67268760  0.24903606  1
  Mn  Mn3  1  0.00487993  0.32730264  0.75096123  1
  Mn  Mn4  1  0.67267902  0.99512498  0.74904900  1
  Mn  Mn5  1  0.66306216  0.33693339  0.24999205  1
  In  In0  1  -0.00000227  0.00000140  0.49998904  1
  In  In1  1  -0.00000132  0.00000307  0.00000624  1
  In  In2  1  0.66722560  0.66613281  0.01713508  1
  In  In3  1  0.66613222  0.66722175  0.51713708  1
  In  In4  1  0.33277944  0.33386725  0.98287010  1
  In  In5  1  0.33386828  0.33277370  0.48286612  1
  O  O0  1  -0.01852022  0.01851966  0.75000184  1
  O  O1  1  0.01854211  -0.01854227  0.25000350  1
  O  O2  1  0.68605315  0.64713723  0.23117250  1
  O  O3  1  0.64715147  0.68604540  0.73119167  1
  O  O4  1  0.31395750  0.35284767  0.76880603  1
  O  O5  1  0.35286255  0.31394976  0.26882328  1
  O  O6  1  0.02358480  0.32074231  0.58613057  1
  O  O7  1  0.65921363  0.02033249  0.58443086  1
  O  O8  1  0.32266707  0.65328139  0.58548476  1
  O  O9  1  0.32076995  0.02352467  0.08615629  1
  O  O10  1  0.65330223  0.32270289  0.08550488  1
  O  O11  1  0.02025773  0.65924748  0.08445466  1
  O  O12  1  0.97645793  0.67923294  0.41384462  1
  O  O13  1  0.34076319  0.97973416  0.41555104  1
  O  O14  1  0.67729331  0.34670742  0.41448870  1
  O  O15  1  0.67924174  0.97642536  0.91386609  1
  O  O16  1  0.34672068  0.67732860  0.91451729  1
  O  O17  1  0.97967291  0.34078429  0.91557122  1
loop_
_geom_bond_atom_site_label_1
_geom_bond_atom_site_label_2
_geom_bond_distance
_geom_bond_site_symmetry_2
Mn0 O16 1.907425 1_555
Mn0 O8 1.907540 1_555
Mn0 O3 1.936961 1_555
Mn0 O4 1.936964 1_555
Mn0 O0 2.062714 1_565
Mn1 O13 1.908558 1_545
Mn1 O9 1.909049 1_555
Mn1 O1 1.917648 1_555
Mn1 O5 1.937716 1_555
Mn1 O2 2.091451 1_545
Mn2 O11 1.908365 1_655
Mn2 O12 1.909186 1_555
Mn2 O1 1.917542 1_665
Mn2 O2 1.937754 1_555
Mn2 O5 2.091504 1_655
Mn3 O17 1.908723 1_455
Mn3 O6 1.909450 1_555
Mn3 O0 1.917581 1_555
Mn3 O4 1.937710 1_555
Mn3 O3 2.091488 1_455
Mn4 O7 1.908818 1_565
Mn4 O15 1.909292 1_555
Mn4 O0 1.917664 1_665
Mn4 O3 1.937678 1_555
Mn4 O4 2.091391 1_565
Mn5 O10 1.907126 1_555
Mn5 O14 1.907241 1_555
Mn5 O5 1.936869 1_555
Mn5 O2 1.936908 1_555
Mn5 O1 2.062932 1_655
In0 O8 2.183287 1_545
In0 O14 2.183351 1_455
In0 O7 2.199238 1_455
In0 O13 2.199283 1_545
In0 O6 2.224866 1_555
In0 O12 2.224883 1_445
In1 O16 2.183257 1_544
In1 O10 2.183292 1_455
In1 O17 2.199211 1_454
In1 O11 2.199315 1_545
In1 O9 2.224874 1_555
In1 O15 2.224918 1_444
In2 O17 2.193182 1_554
In2 O9 2.193598 1_565
In2 O16 2.220066 1_554
In2 O11 2.223696 1_655
In2 O15 2.234575 1_554
In2 O10 2.236541 1_555
In2 O2 2.478705 1_555
In3 O13 2.193535 1_555
In3 O6 2.193724 1_655
In3 O14 2.220386 1_555
In3 O7 2.223933 1_565
In3 O12 2.234865 1_555
In3 O8 2.236692 1_555
In3 O3 2.478900 1_555
In4 O11 2.193563 1_556
In4 O15 2.193684 1_545
In4 O10 2.220340 1_556
In4 O17 2.223936 1_455
In4 O9 2.234915 1_556
In4 O16 2.236702 1_555
In4 O4 2.479011 1_555
In5 O7 2.193178 1_555
In5 O12 2.193671 1_455
In5 O8 2.220068 1_555
In5 O13 2.223690 1_545
In5 O6 2.234535 1_555
In5 O14 2.236569 1_555
In5 O5 2.478766 1_555
