# generated using pymatgen
data_Na3CaNbSi2SO12
_symmetry_space_group_name_H-M   'P 1'
_cell_length_a   9.29020983
_cell_length_b   9.29020949
_cell_length_c   22.89488238
_cell_angle_alpha   90.70004226
_cell_angle_beta   89.29995775
_cell_angle_gamma   119.92441909
_symmetry_Int_Tables_number   1
_chemical_formula_structural   Na3CaNbSi2SO12
_chemical_formula_sum   'Na18 Ca6 Nb6 Si12 S6 O72'
_cell_volume   1712.40733410
_cell_formula_units_Z   6
loop_
 _symmetry_equiv_pos_site_id
 _symmetry_equiv_pos_as_xyz
  1  'x, y, z'
loop_
 _atom_site_type_symbol
 _atom_site_label
 _atom_site_symmetry_multiplicity
 _atom_site_fract_x
 _atom_site_fract_y
 _atom_site_fract_z
 _atom_site_occupancy
  Na  Na0  1  0.67572485  0.02080346  0.25572447  1
  Na  Na1  1  0.96686801  0.61559666  0.24240617  1
  Na  Na2  1  0.97919654  0.32427515  0.75572447  1
  Na  Na3  1  0.38440334  0.03313199  0.74240617  1
  Na  Na4  1  0.34239185  0.35413646  0.58905747  1
  Na  Na5  1  0.63353501  0.94892966  0.57573917  1
  Na  Na6  1  0.64586354  0.65760815  0.08905747  1
  Na  Na7  1  0.05107034  0.36646499  0.07573917  1
  Na  Na8  1  0.00905785  0.68747046  0.92239147  1
  Na  Na9  1  0.30020101  0.28226366  0.90907317  1
  Na  Na10  1  0.31252954  0.99094215  0.42239147  1
  Na  Na11  1  0.71773634  0.69979899  0.40907317  1
  Na  Na12  1  0.97917839  0.97481552  0.49352223  1
  Na  Na13  1  0.02518448  0.02082161  0.99352223  1
  Na  Na14  1  0.64584539  0.30814852  0.82685523  1
  Na  Na15  1  0.69185148  0.35415461  0.32685523  1
  Na  Na16  1  0.31251139  0.64148252  0.16018923  1
  Na  Na17  1  0.35851748  0.68748861  0.66018923  1
  Ca  Ca0  1  0.99850573  0.00755485  0.35127194  1
  Ca  Ca1  1  0.99244515  0.00149427  0.85127194  1
  Ca  Ca2  1  0.66517273  0.34088785  0.68460494  1
  Ca  Ca3  1  0.65911215  0.33482727  0.18460494  1
  Ca  Ca4  1  0.33183873  0.67422185  0.01793894  1
  Ca  Ca5  1  0.32577815  0.66816127  0.51793894  1
  Nb  Nb0  1  0.99523722  0.99945351  0.64753981  1
  Nb  Nb1  1  0.00054649  0.00476278  0.14753981  1
  Nb  Nb2  1  0.66190422  0.33278651  0.98087281  1
  Nb  Nb3  1  0.66721349  0.33809578  0.48087281  1
  Nb  Nb4  1  0.32857022  0.66612051  0.31420681  1
  Nb  Nb5  1  0.33387949  0.67142978  0.81420681  1
  Si  Si0  1  0.69648781  0.70540875  0.25376318  1
  Si  Si1  1  0.00877334  0.30413357  0.25064916  1
  Si  Si2  1  0.29459125  0.30351219  0.75376318  1
  Si  Si3  1  0.69586643  0.99122666  0.75064916  1
  Si  Si4  1  0.36315481  0.03874175  0.58709618  1
  Si  Si5  1  0.67544034  0.63746657  0.58398216  1
  Si  Si6  1  0.96125825  0.63684519  0.08709618  1
  Si  Si7  1  0.36253343  0.32455966  0.08398216  1
  Si  Si8  1  0.02982081  0.37207575  0.92043018  1
  Si  Si9  1  0.34210634  0.97080057  0.91731616  1
  Si  Si10  1  0.62792425  0.97017919  0.42043018  1
  Si  Si11  1  0.02919943  0.65789366  0.41731616  1
  S  S0  1  0.28777145  0.98484808  0.25008572  1
  S  S1  1  0.01515192  0.71222855  0.75008572  1
  S  S2  1  0.95443845  0.31818108  0.58341872  1
  S  S3  1  0.68181892  0.04556155  0.08341872  1
  S  S4  1  0.62110445  0.65151508  0.91675272  1
  S  S5  1  0.34848492  0.37889555  0.41675272  1
  O  O0  1  0.22615135  0.01062781  0.30560391  1
  O  O1  1  0.80137024  0.78653098  0.31122235  1
  O  O2  1  0.98362493  0.19150504  0.30453492  1
  O  O3  1  0.21346902  0.19862976  0.81122235  1
  O  O4  1  0.98937219  0.77384865  0.80560391  1
  O  O5  1  0.80849496  0.01637507  0.80453492  1
  O  O6  1  0.80138627  0.97219004  0.69028355  1
  O  O7  1  0.15825852  0.19135822  0.69584001  1
  O  O8  1  0.02683766  0.82233304  0.69990611  1
  O  O9  1  0.80864178  0.84174148  0.19584001  1
  O  O10  1  0.02780996  0.19861373  0.19028355  1
  O  O11  1  0.17766696  0.97316234  0.19990611  1
  O  O12  1  0.89281835  0.34396081  0.63893691  1
  O  O13  1  0.46803724  0.11986398  0.64455535  1
  O  O14  1  0.65029193  0.52483804  0.63786792  1
  O  O15  1  0.88013602  0.53196276  0.14455535  1
  O  O16  1  0.65603919  0.10718165  0.13893691  1
  O  O17  1  0.47516196  0.34970807  0.13786792  1
  O  O18  1  0.46805327  0.30552304  0.02361655  1
  O  O19  1  0.82492552  0.52469122  0.02917301  1
  O  O20  1  0.69350466  0.15566604  0.03323911  1
  O  O21  1  0.47530878  0.17507448  0.52917301  1
  O  O22  1  0.69447696  0.53194673  0.52361655  1
  O  O23  1  0.84433396  0.30649534  0.53323911  1
  O  O24  1  0.55948435  0.67729481  0.97227091  1
  O  O25  1  0.13470324  0.45319798  0.97788935  1
  O  O26  1  0.31695793  0.85817204  0.97120192  1
  O  O27  1  0.54680202  0.86529676  0.47788935  1
  O  O28  1  0.32270519  0.44051565  0.47227091  1
  O  O29  1  0.14182796  0.68304207  0.47120192  1
  O  O30  1  0.13471927  0.63885704  0.35695055  1
  O  O31  1  0.49159152  0.85802522  0.36250701  1
  O  O32  1  0.36017066  0.48900004  0.36657311  1
  O  O33  1  0.14197478  0.50840848  0.86250701  1
  O  O34  1  0.36114296  0.86528073  0.85695055  1
  O  O35  1  0.51099996  0.63982934  0.86657311  1
  O  O36  1  0.00770508  0.81894483  0.41198524  1
  O  O37  1  0.81062964  0.99666262  0.41408963  1
  O  O38  1  0.22167844  0.20443513  0.40809338  1
  O  O39  1  0.00333738  0.18937036  0.91408963  1
  O  O40  1  0.18105517  0.99229492  0.91198524  1
  O  O41  1  0.79556487  0.77832156  0.90809338  1
  O  O42  1  0.94562640  0.14889037  0.58327292  1
  O  O43  1  0.18416527  0.04583359  0.59075279  1
  O  O44  1  0.85011432  0.82416886  0.58945253  1
  O  O45  1  0.95416641  0.81583473  0.09075279  1
  O  O46  1  0.85110963  0.05437360  0.08327292  1
  O  O47  1  0.17583114  0.14988568  0.08945253  1
  O  O48  1  0.67437208  0.15227783  0.74531824  1
  O  O49  1  0.47729664  0.32999562  0.74742263  1
  O  O50  1  0.88834544  0.53776813  0.74142638  1
  O  O51  1  0.67000438  0.52270336  0.24742263  1
  O  O52  1  0.84772217  0.32562792  0.24531824  1
  O  O53  1  0.46223187  0.11165456  0.24142638  1
  O  O54  1  0.61229340  0.48222337  0.91660592  1
  O  O55  1  0.85083227  0.37916659  0.92408579  1
  O  O56  1  0.51678132  0.15750186  0.92278553  1
  O  O57  1  0.62083341  0.14916773  0.42408579  1
  O  O58  1  0.51777663  0.38770660  0.41660592  1
  O  O59  1  0.84249814  0.48321868  0.42278553  1
  O  O60  1  0.34103808  0.48561183  0.07865224  1
  O  O61  1  0.14396264  0.66332962  0.08075663  1
  O  O62  1  0.55501144  0.87110213  0.07476038  1
  O  O63  1  0.33667038  0.85603736  0.58075663  1
  O  O64  1  0.51438817  0.65896192  0.57865224  1
  O  O65  1  0.12889787  0.44498856  0.57476038  1
  O  O66  1  0.27895940  0.81555737  0.24993992  1
  O  O67  1  0.51749827  0.71250059  0.25741979  1
  O  O68  1  0.18344732  0.49083586  0.25611953  1
  O  O69  1  0.28749941  0.48250173  0.75741979  1
  O  O70  1  0.18444263  0.72104060  0.74993992  1
  O  O71  1  0.50916414  0.81655268  0.75611953  1
loop_
_geom_bond_atom_site_label_1
_geom_bond_atom_site_label_2
_geom_bond_distance
_geom_bond_site_symmetry_2
Na0 O52 2.474281 1_555
Na0 O67 2.483266 1_545
Na0 O53 2.538941 1_555
Na0 O2 2.730362 1_555
Na0 O16 2.835069 1_555
Na0 O9 2.850306 1_545
Na0 O31 2.932105 1_545
Na1 O52 2.348227 1_555
Na1 O15 2.376712 1_555
Na1 O51 2.446252 1_555
Na1 O66 2.552992 1_655
Na1 O68 2.800266 1_655
Na2 O48 2.474281 1_555
Na2 O69 2.483266 1_655
Na2 O50 2.538941 1_555
Na2 O5 2.730362 1_555
Na2 O12 2.835069 1_555
Na2 O7 2.850306 1_655
Na2 O33 2.932105 1_655
Na3 O48 2.348227 1_555
Na3 O13 2.376712 1_555
Na3 O49 2.446251 1_555
Na3 O70 2.552992 1_545
Na3 O71 2.800266 1_545
Na4 O64 2.474286 1_555
Na4 O43 2.483266 1_555
Na4 O65 2.538953 1_555
Na4 O14 2.730362 1_555
Na4 O28 2.835053 1_555
Na4 O21 2.850306 1_555
Na4 O7 2.932105 1_555
Na5 O64 2.348219 1_555
Na5 O27 2.376690 1_555
Na5 O63 2.446263 1_555
Na5 O42 2.552992 1_565
Na5 O44 2.800266 1_555
Na6 O60 2.474286 1_555
Na6 O45 2.483266 1_555
Na6 O62 2.538953 1_555
Na6 O17 2.730362 1_555
Na6 O24 2.835053 1_554
Na6 O19 2.850306 1_555
Na6 O9 2.932105 1_555
Na7 O60 2.348219 1_555
Na7 O25 2.376690 1_554
Na7 O61 2.446263 1_555
Na7 O46 2.552992 1_455
Na7 O47 2.800266 1_555
Na8 O40 2.474281 1_555
Na8 O55 2.483273 1_455
Na8 O41 2.538941 1_455
Na8 O26 2.730362 1_555
Na8 O4 2.835069 1_455
Na8 O33 2.850306 1_555
Na8 O19 2.932085 1_456
Na9 O40 2.348227 1_545
Na9 O3 2.376712 1_555
Na9 O39 2.446252 1_555
Na9 O54 2.552996 1_555
Na9 O56 2.800279 1_555
Na10 O36 2.474281 1_555
Na10 O57 2.483273 1_565
Na10 O38 2.538941 1_565
Na10 O29 2.730362 1_555
Na10 O0 2.835069 1_565
Na10 O31 2.850306 1_555
Na10 O21 2.932085 1_565
Na11 O36 2.348227 1_655
Na11 O1 2.376712 1_555
Na11 O37 2.446251 1_555
Na11 O58 2.552996 1_555
Na11 O59 2.800279 1_555
Na12 O36 2.440647 1_655
Na12 O37 2.489194 1_555
Na12 O44 2.560602 1_555
Na12 O42 2.709407 1_565
Na12 O43 2.798480 1_665
Na12 O38 2.941247 1_665
Na13 O40 2.440647 1_545
Na13 O39 2.489194 1_555
Na13 O47 2.560602 1_556
Na13 O46 2.709407 1_456
Na13 O45 2.798480 1_446
Na13 O41 2.941247 1_445
Na14 O48 2.440647 1_555
Na14 O49 2.489194 1_555
Na14 O56 2.560602 1_555
Na14 O54 2.709407 1_555
Na14 O55 2.798480 1_555
Na14 O50 2.941247 1_555
Na15 O52 2.440647 1_555
Na15 O51 2.489194 1_555
Na15 O59 2.560602 1_555
Na15 O58 2.709407 1_555
Na15 O57 2.798480 1_555
Na15 O53 2.941247 1_555
Na16 O60 2.440647 1_555
Na16 O61 2.489194 1_555
Na16 O68 2.560602 1_555
Na16 O66 2.709407 1_555
Na16 O67 2.798480 1_555
Na16 O62 2.941247 1_555
Na17 O64 2.440647 1_555
Na17 O63 2.489194 1_555
Na17 O71 2.560602 1_555
Na17 O70 2.709407 1_555
Na17 O69 2.798480 1_555
Na17 O65 2.941247 1_555
Ca0 O2 2.090112 1_555
Ca0 O1 2.157364 1_545
Ca0 O37 2.211588 1_545
Ca0 O36 2.285081 1_645
Ca0 O0 2.335204 1_655
Ca0 O38 2.358117 1_655
Ca1 O5 2.090112 1_555
Ca1 O3 2.157364 1_655
Ca1 O39 2.211588 1_655
Ca1 O40 2.285081 1_645
Ca1 O4 2.335204 1_545
Ca1 O41 2.358117 1_545
Ca2 O14 2.090112 1_555
Ca2 O13 2.157364 1_555
Ca2 O49 2.211588 1_555
Ca2 O48 2.285081 1_555
Ca2 O12 2.335204 1_555
Ca2 O50 2.358117 1_555
Ca3 O17 2.090112 1_555
Ca3 O15 2.157364 1_555
Ca3 O51 2.211588 1_555
Ca3 O52 2.285081 1_555
Ca3 O16 2.335204 1_555
Ca3 O53 2.358117 1_555
Ca4 O26 2.090112 1_554
Ca4 O25 2.157364 1_554
Ca4 O61 2.211588 1_555
Ca4 O60 2.285081 1_555
Ca4 O24 2.335204 1_554
Ca4 O62 2.358117 1_555
Ca5 O29 2.090112 1_555
Ca5 O27 2.157364 1_555
Ca5 O63 2.211588 1_555
Ca5 O64 2.285081 1_555
Ca5 O28 2.335204 1_555
Ca5 O65 2.358117 1_555
Nb0 O6 1.942428 1_555
Nb0 O7 1.998471 1_665
Nb0 O44 2.009615 1_555
Nb0 O43 2.039619 1_665
Nb0 O8 2.184032 1_655
Nb0 O42 2.238225 1_565
Nb1 O10 1.942428 1_555
Nb1 O9 1.998471 1_445
Nb1 O47 2.009615 1_555
Nb1 O45 2.039619 1_445
Nb1 O11 2.184032 1_545
Nb1 O46 2.238225 1_455
Nb2 O18 1.942428 1_556
Nb2 O19 1.998471 1_556
Nb2 O56 2.009615 1_555
Nb2 O55 2.039619 1_555
Nb2 O20 2.184032 1_556
Nb2 O54 2.238225 1_555
Nb3 O22 1.942428 1_555
Nb3 O21 1.998471 1_555
Nb3 O59 2.009615 1_555
Nb3 O57 2.039619 1_555
Nb3 O23 2.184032 1_555
Nb3 O58 2.238225 1_555
Nb4 O30 1.942428 1_555
Nb4 O31 1.998471 1_555
Nb4 O68 2.009615 1_555
Nb4 O67 2.039619 1_555
Nb4 O32 2.184032 1_555
Nb4 O66 2.238225 1_555
Nb5 O34 1.942428 1_555
Nb5 O33 1.998471 1_555
Nb5 O71 2.009615 1_555
Nb5 O69 2.039619 1_555
Nb5 O35 2.184032 1_555
Nb5 O70 2.238225 1_555
O0 S0 1.453374 1_545
O1 Si0 1.588215 1_555
O2 Si1 1.565903 1_655
O3 Si2 1.588215 1_555
O4 S1 1.453374 1_655
O5 Si3 1.565903 1_545
O6 Si3 1.742488 1_555
O7 Si2 1.771745 1_555
O8 S1 1.514213 1_555
O9 Si0 1.771745 1_555
O10 Si1 1.742488 1_555
O11 S0 1.514213 1_555
O12 S2 1.453374 1_555
O13 Si4 1.588215 1_555
O14 Si5 1.565903 1_555
O15 Si6 1.588215 1_555
O16 S3 1.453374 1_555
O17 Si7 1.565903 1_555
O18 Si7 1.742488 1_555
O19 Si6 1.771745 1_555
O20 S3 1.514213 1_555
O21 Si4 1.771745 1_555
O22 Si5 1.742488 1_555
O23 S2 1.514213 1_555
O24 S4 1.453374 1_555
O25 Si8 1.588215 1_555
O26 Si9 1.565903 1_555
O27 Si10 1.588215 1_555
O28 S5 1.453374 1_555
O29 Si11 1.565903 1_555
O30 Si11 1.742488 1_555
O31 Si10 1.771745 1_555
O32 S5 1.514213 1_555
O33 Si8 1.771745 1_555
O34 Si9 1.742488 1_555
O35 S4 1.514213 1_555
O36 Si11 1.611375 1_555
O37 Si10 1.594010 1_555
O38 S5 1.465226 1_555
O39 Si8 1.594010 1_555
O40 Si9 1.611375 1_555
O41 S4 1.465226 1_555
O42 S2 1.533513 1_555
O43 Si4 1.697701 1_555
O44 Si5 1.687881 1_555
O45 Si6 1.697701 1_555
O46 S3 1.533513 1_555
O47 Si7 1.687881 1_555
O48 Si3 1.611375 1_545
O49 Si2 1.594010 1_555
O50 S1 1.465226 1_655
O51 Si0 1.594010 1_555
O52 Si1 1.611375 1_655
O53 S0 1.465226 1_545
O54 S4 1.533526 1_555
O55 Si8 1.697686 1_655
O56 Si9 1.687879 1_545
O57 Si10 1.697686 1_545
O58 S5 1.533526 1_555
O59 Si11 1.687879 1_655
O60 Si7 1.611388 1_555
O61 Si6 1.593995 1_455
O62 S3 1.465219 1_565
O63 Si4 1.593995 1_565
O64 Si5 1.611388 1_555
O65 S2 1.465219 1_455
O66 S0 1.533513 1_555
O67 Si0 1.697701 1_555
O68 Si1 1.687881 1_555
O69 Si2 1.697701 1_555
O70 S1 1.533513 1_555
O71 Si3 1.687881 1_555
