# generated using pymatgen
data_HoSiIr
_symmetry_space_group_name_H-M   'P 1'
_cell_length_a   4.21184805
_cell_length_b   6.81969345
_cell_length_c   7.37759638
_cell_angle_alpha   90.00000000
_cell_angle_beta   90.00000000
_cell_angle_gamma   90.00000000
_symmetry_Int_Tables_number   1
_chemical_formula_structural   HoSiIr
_chemical_formula_sum   'Ho4 Si4 Ir4'
_cell_volume   211.91048228
_cell_formula_units_Z   4
loop_
 _symmetry_equiv_pos_site_id
 _symmetry_equiv_pos_as_xyz
  1  'x, y, z'
loop_
 _atom_site_type_symbol
 _atom_site_label
 _atom_site_symmetry_multiplicity
 _atom_site_fract_x
 _atom_site_fract_y
 _atom_site_fract_z
 _atom_site_occupancy
  Ho  Ho0  1  0.75000000  0.50009622  0.18729806  1
  Ho  Ho1  1  0.25000000  0.99990378  0.68729806  1
  Ho  Ho2  1  0.75000000  0.00009622  0.31270194  1
  Ho  Ho3  1  0.25000000  0.49990378  0.81270194  1
  Si  Si0  1  0.25000000  0.79899271  0.11043649  1
  Si  Si1  1  0.25000000  0.29899271  0.38956351  1
  Si  Si2  1  0.75000000  0.20100729  0.88956351  1
  Si  Si3  1  0.75000000  0.70100729  0.61043649  1
  Ir  Ir0  1  0.25000000  0.65642205  0.43337673  1
  Ir  Ir1  1  0.25000000  0.15642205  0.06662327  1
  Ir  Ir2  1  0.75000000  0.84357795  0.93337673  1
  Ir  Ir3  1  0.75000000  0.34357795  0.56662327  1
loop_
_geom_bond_atom_site_label_1
_geom_bond_atom_site_label_2
_geom_bond_distance
_geom_bond_site_symmetry_2
Ho0 Si1 2.922771 1_555
Ho0 Si1 2.922771 1_655
Ho0 Ir0 2.977818 1_555
Ho0 Ir0 2.977818 1_655
Ho0 Si0 2.985208 1_655
Ho0 Si0 2.985208 1_555
Ho0 Ir3 2.995164 1_555
Ho0 Si2 2.997541 1_554
Ho0 Ir2 2.999398 1_554
Ho0 Ir1 3.274249 1_555
Ho0 Ir1 3.274249 1_655
Ho1 Si2 2.922771 1_465
Ho1 Si2 2.922771 1_565
Ho1 Ir2 2.977818 1_555
Ho1 Ir2 2.977818 1_455
Ho1 Si3 2.985208 1_455
Ho1 Si3 2.985208 1_555
Ho1 Ir1 2.995164 1_566
Ho1 Si1 2.997541 1_565
Ho1 Ir0 2.999398 1_555
Ho1 Ir3 3.274249 1_565
Ho1 Ir3 3.274249 1_465
Ho2 Si0 2.922771 1_645
Ho2 Si0 2.922771 1_545
Ho2 Ir1 2.977818 1_655
Ho2 Ir1 2.977818 1_555
Ho2 Si1 2.985208 1_655
Ho2 Si1 2.985208 1_555
Ho2 Ir2 2.995164 1_544
Ho2 Si3 2.997541 1_545
Ho2 Ir3 2.999398 1_555
Ho2 Ir0 3.274249 1_645
Ho2 Ir0 3.274249 1_545
Ho3 Si3 2.922771 1_455
Ho3 Si3 2.922771 1_555
Ho3 Ir3 2.977818 1_455
Ho3 Ir3 2.977818 1_555
Ho3 Si2 2.985208 1_455
Ho3 Si2 2.985208 1_555
Ho3 Ir0 2.995164 1_555
Ho3 Si0 2.997541 1_556
Ho3 Ir1 2.999398 1_556
Ho3 Ir2 3.274249 1_555
Ho3 Ir2 3.274249 1_455
Ir0 Si1 2.458897 1_555
Ir0 Si3 2.496742 1_555
Ir0 Si3 2.496742 1_455
Ir0 Si0 2.573278 1_555
Ir1 Si0 2.458897 1_545
Ir1 Si2 2.496742 1_554
Ir1 Si2 2.496742 1_454
Ir1 Si1 2.573278 1_555
Ir2 Si2 2.458897 1_565
Ir2 Si0 2.496742 1_556
Ir2 Si0 2.496742 1_656
Ir2 Si3 2.573278 1_555
Ir3 Si3 2.458897 1_555
Ir3 Si1 2.496742 1_655
Ir3 Si1 2.496742 1_555
Ir3 Si2 2.573278 1_555
