# generated using pymatgen
data_NaHfScP2SO12
_symmetry_space_group_name_H-M   'P 1'
_cell_length_a   8.85899357
_cell_length_b   8.85337248
_cell_length_c   23.18454947
_cell_angle_alpha   90.11164865
_cell_angle_beta   90.00000000
_cell_angle_gamma   120.02100481
_symmetry_Int_Tables_number   1
_chemical_formula_structural   NaHfScP2SO12
_chemical_formula_sum   'Na6 Hf6 Sc6 P12 S6 O72'
_cell_volume   1574.45174580
_cell_formula_units_Z   6
loop_
 _symmetry_equiv_pos_site_id
 _symmetry_equiv_pos_as_xyz
  1  'x, y, z'
loop_
 _atom_site_type_symbol
 _atom_site_label
 _atom_site_symmetry_multiplicity
 _atom_site_fract_x
 _atom_site_fract_y
 _atom_site_fract_z
 _atom_site_occupancy
  Na  Na0  1  0.99136208  0.99463546  0.50204718  1
  Na  Na1  1  0.00327338  0.99463546  0.00204718  1
  Na  Na2  1  0.65802908  0.32796846  0.83538018  1
  Na  Na3  1  0.66994038  0.32796846  0.33538018  1
  Na  Na4  1  0.32469508  0.66130246  0.16871418  1
  Na  Na5  1  0.33660638  0.66130246  0.66871418  1
  Hf  Hf0  1  0.99986998  0.00263485  0.35281347  1
  Hf  Hf1  1  0.00276487  0.00263485  0.85281347  1
  Hf  Hf2  1  0.66653698  0.33596785  0.68614647  1
  Hf  Hf3  1  0.66943187  0.33596785  0.18614647  1
  Hf  Hf4  1  0.33320298  0.66930185  0.01948047  1
  Hf  Hf5  1  0.33609787  0.66930185  0.51948047  1
  Sc  Sc0  1  0.99194314  0.00621384  0.64750951  1
  Sc  Sc1  1  0.01427071  0.00621384  0.14750951  1
  Sc  Sc2  1  0.65861014  0.33954684  0.98084251  1
  Sc  Sc3  1  0.68093771  0.33954684  0.48084251  1
  Sc  Sc4  1  0.32527614  0.67288084  0.31417651  1
  Sc  Sc5  1  0.34760371  0.67288084  0.81417651  1
  P  P0  1  0.29160849  0.00088559  0.24982151  1
  P  P1  1  0.00210963  0.29119349  0.24930082  1
  P  P2  1  0.28908387  0.29119349  0.74930082  1
  P  P3  1  0.70927710  0.00088559  0.74982151  1
  P  P4  1  0.95827549  0.33421859  0.58315451  1
  P  P5  1  0.66877663  0.62452649  0.58263382  1
  P  P6  1  0.95575087  0.62452649  0.08263382  1
  P  P7  1  0.37594410  0.33421859  0.08315451  1
  P  P8  1  0.62494149  0.66755259  0.91648851  1
  P  P9  1  0.33544263  0.95786049  0.91596782  1
  P  P10  1  0.62241687  0.95786049  0.41596782  1
  P  P11  1  0.04261010  0.66755259  0.41648851  1
  S  S0  1  0.70890902  0.71068913  0.24935686  1
  S  S1  1  0.00178011  0.71068913  0.74935686  1
  S  S2  1  0.37557602  0.04402213  0.58268986  1
  S  S3  1  0.66844711  0.04402213  0.08268986  1
  S  S4  1  0.04224202  0.37735613  0.91602386  1
  S  S5  1  0.33511311  0.37735613  0.41602386  1
  O  O0  1  0.20408827  0.02839093  0.30416356  1
  O  O1  1  0.81863530  0.79013118  0.30186841  1
  O  O2  1  0.97108291  0.17520835  0.30385412  1
  O  O3  1  0.20412544  0.17520835  0.80385412  1
  O  O4  1  0.97149588  0.79013118  0.80186841  1
  O  O5  1  0.82430266  0.02839093  0.80416356  1
  O  O6  1  0.79203327  0.97061103  0.69628594  1
  O  O7  1  0.17892863  0.20314393  0.69577888  1
  O  O8  1  0.02719774  0.81558985  0.69805134  1
  O  O9  1  0.78839211  0.81558985  0.19805134  1
  O  O10  1  0.02421530  0.20314393  0.19577888  1
  O  O11  1  0.17857776  0.97061103  0.19628594  1
  O  O12  1  0.87075527  0.36172393  0.63749656  1
  O  O13  1  0.48530230  0.12346418  0.63520141  1
  O  O14  1  0.63774991  0.50854135  0.63718712  1
  O  O15  1  0.87079244  0.50854135  0.13718712  1
  O  O16  1  0.63816288  0.12346418  0.13520141  1
  O  O17  1  0.49096966  0.36172393  0.13749656  1
  O  O18  1  0.45870027  0.30394403  0.02961894  1
  O  O19  1  0.84559563  0.53647693  0.02911188  1
  O  O20  1  0.69386474  0.14892285  0.03138434  1
  O  O21  1  0.45505911  0.14892285  0.53138434  1
  O  O22  1  0.69088230  0.53647693  0.52911188  1
  O  O23  1  0.84524476  0.30394403  0.52961894  1
  O  O24  1  0.53742127  0.69505793  0.97083056  1
  O  O25  1  0.15196830  0.45679818  0.96853541  1
  O  O26  1  0.30441591  0.84187535  0.97052112  1
  O  O27  1  0.53745844  0.84187535  0.47052112  1
  O  O28  1  0.30482888  0.45679818  0.46853541  1
  O  O29  1  0.15763566  0.69505793  0.47083056  1
  O  O30  1  0.12536627  0.63727803  0.36295294  1
  O  O31  1  0.51226163  0.86981093  0.36244588  1
  O  O32  1  0.36053074  0.48225685  0.36471834  1
  O  O33  1  0.12172511  0.48225685  0.86471834  1
  O  O34  1  0.35754830  0.86981093  0.86244588  1
  O  O35  1  0.51191076  0.63727803  0.86295294  1
  O  O36  1  0.02592366  0.83387570  0.40923749  1
  O  O37  1  0.80683913  0.97586574  0.40937067  1
  O  O38  1  0.17423901  0.20091164  0.41046514  1
  O  O39  1  0.02667263  0.20091164  0.91046514  1
  O  O40  1  0.16902661  0.97586574  0.90937067  1
  O  O41  1  0.80795204  0.83387570  0.90923749  1
  O  O42  1  0.98069388  0.17352642  0.58937849  1
  O  O43  1  0.20026594  0.02125892  0.59037596  1
  O  O44  1  0.83068462  0.80523394  0.59032067  1
  O  O45  1  0.97454932  0.80523394  0.09032067  1
  O  O46  1  0.82099298  0.02125892  0.09037596  1
  O  O47  1  0.19283255  0.17352642  0.08937849  1
  O  O48  1  0.69259066  0.16720870  0.74257049  1
  O  O49  1  0.47350613  0.30919874  0.74270367  1
  O  O50  1  0.84090601  0.53424464  0.74379814  1
  O  O51  1  0.69333963  0.53424464  0.24379814  1
  O  O52  1  0.83569361  0.30919874  0.24270367  1
  O  O53  1  0.47461904  0.16720870  0.24257049  1
  O  O54  1  0.64736088  0.50685942  0.92271149  1
  O  O55  1  0.86693294  0.35459192  0.92370896  1
  O  O56  1  0.49735162  0.13856694  0.92365367  1
  O  O57  1  0.64121632  0.13856694  0.42365367  1
  O  O58  1  0.48765998  0.35459192  0.42370896  1
  O  O59  1  0.85949955  0.50685942  0.42271149  1
  O  O60  1  0.35925666  0.50054270  0.07590449  1
  O  O61  1  0.14017213  0.64253274  0.07603767  1
  O  O62  1  0.50757201  0.86757864  0.07713214  1
  O  O63  1  0.36000563  0.86757864  0.57713214  1
  O  O64  1  0.50235961  0.64253274  0.57603767  1
  O  O65  1  0.14128504  0.50054270  0.57590449  1
  O  O66  1  0.31402688  0.84019342  0.25604549  1
  O  O67  1  0.53359894  0.68792592  0.25704296  1
  O  O68  1  0.16401762  0.47190094  0.25698767  1
  O  O69  1  0.30788232  0.47190094  0.75698767  1
  O  O70  1  0.15432598  0.68792592  0.75704296  1
  O  O71  1  0.52616555  0.84019342  0.75604549  1
loop_
_geom_bond_atom_site_label_1
_geom_bond_atom_site_label_2
_geom_bond_distance
_geom_bond_site_symmetry_2
Na0 O44 2.579041 1_555
Na0 O42 2.598876 1_565
Na0 O37 2.653933 1_555
Na0 O36 2.678354 1_655
Na0 O43 2.689969 1_665
Na0 O38 2.742769 1_665
Na1 O45 2.579041 1_455
Na1 O47 2.598876 1_565
Na1 O40 2.653933 1_554
Na1 O41 2.678354 1_454
Na1 O46 2.689969 1_465
Na1 O39 2.742769 1_564
Na2 O56 2.579041 1_555
Na2 O54 2.598876 1_555
Na2 O49 2.653933 1_555
Na2 O48 2.678354 1_555
Na2 O55 2.689969 1_555
Na2 O50 2.742769 1_555
Na3 O57 2.579041 1_555
Na3 O59 2.598876 1_555
Na3 O52 2.653933 1_555
Na3 O53 2.678354 1_555
Na3 O58 2.689969 1_555
Na3 O51 2.742769 1_555
Na4 O68 2.579041 1_555
Na4 O66 2.598876 1_555
Na4 O61 2.653933 1_555
Na4 O60 2.678354 1_555
Na4 O67 2.689969 1_555
Na4 O62 2.742769 1_555
Na5 O69 2.579041 1_555
Na5 O71 2.598876 1_555
Na5 O64 2.653933 1_555
Na5 O65 2.678354 1_555
Na5 O70 2.689969 1_555
Na5 O63 2.742769 1_555
Hf0 O2 2.021011 1_555
Hf0 O0 2.045850 1_655
Hf0 O37 2.072566 1_545
Hf0 O36 2.085558 1_645
Hf0 O1 2.116893 1_545
Hf0 O38 2.128791 1_655
Hf1 O3 2.021011 1_555
Hf1 O5 2.045850 1_455
Hf1 O40 2.072566 1_545
Hf1 O41 2.085558 1_445
Hf1 O4 2.116893 1_445
Hf1 O39 2.128791 1_555
Hf2 O14 2.021011 1_555
Hf2 O12 2.045850 1_555
Hf2 O49 2.072566 1_555
Hf2 O48 2.085558 1_555
Hf2 O13 2.116893 1_555
Hf2 O50 2.128791 1_555
Hf3 O15 2.021011 1_555
Hf3 O17 2.045850 1_555
Hf3 O52 2.072566 1_555
Hf3 O53 2.085558 1_555
Hf3 O16 2.116893 1_555
Hf3 O51 2.128791 1_555
Hf4 O26 2.021011 1_554
Hf4 O24 2.045850 1_554
Hf4 O61 2.072566 1_555
Hf4 O60 2.085558 1_555
Hf4 O25 2.116893 1_554
Hf4 O62 2.128791 1_555
Hf5 O27 2.021011 1_555
Hf5 O29 2.045850 1_555
Hf5 O64 2.072566 1_555
Hf5 O65 2.085558 1_555
Hf5 O28 2.116893 1_555
Hf5 O63 2.128791 1_555
O0 P0 1.560616 1_555
O1 S0 1.494767 1_555
O2 P1 1.565991 1_655
O3 P2 1.565991 1_555
O4 S1 1.494767 1_655
O5 P3 1.560616 1_555
O6 P3 1.531416 1_565
O6 Sc0 1.989333 1_565
O7 P2 1.528006 1_555
O7 Sc0 2.034362 1_455
O8 S1 1.457114 1_555
O8 Sc0 2.203176 1_465
O9 S0 1.457114 1_555
O9 Sc1 2.203176 1_665
O10 P1 1.528006 1_555
O10 Sc1 2.034362 1_555
O11 P0 1.531416 1_565
O11 Sc1 1.989333 1_565
O12 P4 1.560616 1_555
O13 S2 1.494767 1_555
O14 P5 1.565991 1_555
O15 P6 1.565991 1_555
O16 S3 1.494767 1_555
O17 P7 1.560616 1_555
O18 P7 1.531416 1_555
O18 Sc2 1.989333 1_554
O19 P6 1.528006 1_555
O19 Sc2 2.034362 1_554
O20 S3 1.457114 1_555
O20 Sc2 2.203176 1_554
O21 S2 1.457114 1_555
O21 Sc3 2.203176 1_555
O22 P5 1.528006 1_555
O22 Sc3 2.034362 1_555
O23 P4 1.531416 1_555
O23 Sc3 1.989333 1_555
O24 P8 1.560616 1_555
O25 S4 1.494767 1_555
O26 P9 1.565991 1_555
O27 P10 1.565991 1_555
O28 S5 1.494767 1_555
O29 P11 1.560616 1_555
O30 P11 1.531416 1_555
O30 Sc4 1.989333 1_555
O31 P10 1.528006 1_555
O31 Sc4 2.034362 1_555
O32 S5 1.457114 1_555
O32 Sc4 2.203176 1_555
O33 S4 1.457114 1_555
O33 Sc5 2.203176 1_555
O34 P9 1.528006 1_555
O34 Sc5 2.034362 1_555
O35 P8 1.531416 1_555
O35 Sc5 1.989333 1_555
O36 P11 1.561156 1_555
O37 P10 1.567668 1_555
O38 S5 1.503158 1_555
O39 S4 1.503162 1_555
O40 P9 1.567660 1_555
O41 P8 1.561161 1_555
O42 P4 1.538758 1_555
O42 Sc0 2.043533 1_555
O43 S2 1.473549 1_555
O43 Sc0 2.221044 1_455
O44 P5 1.533412 1_555
O44 Sc0 2.100521 1_565
O45 P6 1.533416 1_555
O45 Sc1 2.100521 1_665
O46 S3 1.473541 1_555
O46 Sc1 2.221045 1_655
O47 P7 1.538763 1_555
O47 Sc1 2.043533 1_555
O48 P3 1.561156 1_555
O49 P2 1.567668 1_555
O50 S1 1.503158 1_655
O51 S0 1.503162 1_555
O52 P1 1.567660 1_655
O53 P0 1.561161 1_555
O54 P8 1.538770 1_555
O54 Sc2 2.043533 1_555
O55 S4 1.473534 1_655
O55 Sc2 2.221044 1_555
O56 P9 1.533408 1_545
O56 Sc2 2.100521 1_555
O57 P10 1.533401 1_545
O57 Sc3 2.100521 1_555
O58 S5 1.473552 1_555
O58 Sc3 2.221045 1_555
O59 P11 1.538759 1_655
O59 Sc3 2.043533 1_555
O60 P7 1.561167 1_555
O61 P6 1.567654 1_455
O62 S3 1.503155 1_565
O63 S2 1.503147 1_565
O64 P5 1.567671 1_555
O65 P4 1.561157 1_455
O66 P0 1.538758 1_565
O66 Sc4 2.043533 1_555
O67 S0 1.473549 1_555
O67 Sc4 2.221044 1_555
O68 P1 1.533412 1_555
O68 Sc4 2.100521 1_555
O69 P2 1.533416 1_555
O69 Sc5 2.100521 1_555
O70 S1 1.473541 1_555
O70 Sc5 2.221045 1_555
O71 P3 1.538763 1_565
O71 Sc5 2.043533 1_555
