# generated using pymatgen
data_SrAl2
_symmetry_space_group_name_H-M   'P 1'
_cell_length_a   4.80801321
_cell_length_b   6.09029572
_cell_length_c   6.09029427
_cell_angle_alpha   81.13863939
_cell_angle_beta   66.75101451
_cell_angle_gamma   66.75101927
_symmetry_Int_Tables_number   1
_chemical_formula_structural   SrAl2
_chemical_formula_sum   'Sr2 Al4'
_cell_volume   150.55030735
_cell_formula_units_Z   2
loop_
 _symmetry_equiv_pos_site_id
 _symmetry_equiv_pos_as_xyz
  1  'x, y, z'
loop_
 _atom_site_type_symbol
 _atom_site_label
 _atom_site_symmetry_multiplicity
 _atom_site_fract_x
 _atom_site_fract_y
 _atom_site_fract_z
 _atom_site_occupancy
  Sr  Sr0  1  0.44967054  0.30032946  0.80032946  1
  Sr  Sr1  1  0.55032946  0.69967054  0.19967054  1
  Al  Al0  1  0.16063055  0.27083181  0.40790708  1
  Al  Al1  1  0.83936945  0.72916819  0.59209292  1
  Al  Al2  1  0.83936945  0.09209292  0.22916819  1
  Al  Al3  1  0.16063055  0.90790708  0.77083181  1
loop_
_geom_bond_atom_site_label_1
_geom_bond_atom_site_label_2
_geom_bond_distance
_geom_bond_site_symmetry_2
Al0 Al1 2.762078 1_455
Al0 Al2 2.788508 1_555
Al0 Al2 2.788508 1_455
Al0 Al3 2.875039 1_545
Al0 Sr0 3.259899 1_455
Al0 Sr0 3.259900 1_555
Al0 Sr1 3.399576 1_545
Al0 Sr0 3.404203 1_554
Al0 Sr1 3.592655 1_455
Al0 Sr1 3.592655 1_555
Al1 Al3 2.788508 1_555
Al1 Al3 2.788508 1_655
Al1 Al2 2.875039 1_565
Al1 Sr1 3.259899 1_655
Al1 Sr1 3.259900 1_555
Al1 Sr0 3.399576 1_565
Al1 Sr1 3.404203 1_556
Al1 Sr0 3.592655 1_655
Al1 Sr0 3.592655 1_555
Al2 Al3 2.762077 1_644
Al2 Sr1 3.259900 1_645
Al2 Sr1 3.259900 1_545
Al2 Sr0 3.399575 1_555
Al2 Sr1 3.404204 1_555
Al2 Sr0 3.592655 1_654
Al2 Sr0 3.592655 1_554
Al3 Sr0 3.259900 1_465
Al3 Sr0 3.259900 1_565
Al3 Sr1 3.399575 1_555
Al3 Sr0 3.404204 1_555
Al3 Sr1 3.592655 1_456
Al3 Sr1 3.592655 1_556
