# generated using pymatgen
data_K2ZnH12(SO7)2
_symmetry_space_group_name_H-M   'P 1'
_cell_length_a   12.30793800
_cell_length_b   6.25947100
_cell_length_c   9.05810486
_cell_angle_alpha   76.01178540
_cell_angle_beta   90.00000000
_cell_angle_gamma   90.00000000
_symmetry_Int_Tables_number   1
_chemical_formula_structural   K2ZnH12(SO7)2
_chemical_formula_sum   'K4 Zn2 H24 S4 O28'
_cell_volume   677.15276686
_cell_formula_units_Z   2
loop_
 _symmetry_equiv_pos_site_id
 _symmetry_equiv_pos_as_xyz
  1  'x, y, z'
loop_
 _atom_site_type_symbol
 _atom_site_label
 _atom_site_symmetry_multiplicity
 _atom_site_fract_x
 _atom_site_fract_y
 _atom_site_fract_z
 _atom_site_occupancy
  K  K0  1  0.16058600  0.65400700  0.63725200  1
  K  K1  1  0.66058600  0.34599300  0.86274800  1
  K  K2  1  0.83941400  0.34599300  0.36274800  1
  K  K3  1  0.33941400  0.65400700  0.13725200  1
  Zn  Zn0  1  0.50000000  0.00000000  0.50000000  1
  Zn  Zn1  1  0.00000000  0.00000000  0.00000000  1
  H  H0  1  0.64617000  0.67583900  0.52352500  1
  H  H1  1  0.14617000  0.32416100  0.97647500  1
  H  H2  1  0.35383000  0.32416100  0.47647500  1
  H  H3  1  0.85383000  0.67583900  0.02352500  1
  H  H4  1  0.56230200  0.66931500  0.38955400  1
  H  H5  1  0.06230200  0.33068500  0.11044600  1
  H  H6  1  0.39501100  0.07376500  0.22888800  1
  H  H7  1  0.89501100  0.92623500  0.27111200  1
  H  H8  1  0.60498900  0.92623500  0.77111200  1
  H  H9  1  0.10498900  0.07376500  0.72888800  1
  H  H10  1  0.38020800  0.90391600  0.75776500  1
  H  H11  1  0.88020800  0.09608400  0.74223500  1
  H  H12  1  0.61979200  0.09608400  0.24223500  1
  H  H13  1  0.11979200  0.90391600  0.25776500  1
  H  H14  1  0.41718800  0.67431600  0.72495100  1
  H  H15  1  0.91718800  0.32568400  0.77504900  1
  H  H16  1  0.58281200  0.32568400  0.27504900  1
  H  H17  1  0.08281200  0.67431600  0.22495100  1
  H  H18  1  0.80532200  0.99804300  0.14302600  1
  H  H19  1  0.30532200  0.00195700  0.35697400  1
  H  H20  1  0.93769800  0.66931500  0.88955400  1
  H  H21  1  0.43769800  0.33068500  0.61044600  1
  H  H22  1  0.69467800  0.99804300  0.64302600  1
  H  H23  1  0.19467800  0.00195700  0.85697400  1
  S  S0  1  0.86490700  0.72809300  0.58654200  1
  S  S1  1  0.13509300  0.27190700  0.41345800  1
  S  S2  1  0.63509300  0.72809300  0.08654200  1
  S  S3  1  0.36490700  0.27190700  0.91345800  1
  O  O0  1  0.60917300  0.17518800  0.32376800  1
  O  O1  1  0.89082700  0.17518800  0.82376800  1
  O  O2  1  0.12015300  0.96570500  0.82777800  1
  O  O3  1  0.62015300  0.03429500  0.67222200  1
  O  O4  1  0.87984700  0.03429500  0.17222200  1
  O  O5  1  0.37984700  0.96570500  0.32777800  1
  O  O6  1  0.93083800  0.70602400  0.99014900  1
  O  O7  1  0.10917300  0.82481200  0.17623200  1
  O  O8  1  0.06916200  0.29397600  0.00985100  1
  O  O9  1  0.56916200  0.70602400  0.49014900  1
  O  O10  1  0.33111600  0.04943800  0.89457700  1
  O  O11  1  0.83111600  0.95056200  0.60542300  1
  O  O12  1  0.66888400  0.95056200  0.10542300  1
  O  O13  1  0.16888400  0.04943800  0.39457700  1
  O  O14  1  0.44079500  0.37871600  0.78767700  1
  O  O15  1  0.94079500  0.62128400  0.71232300  1
  O  O16  1  0.55920500  0.62128400  0.21232300  1
  O  O17  1  0.05920500  0.37871600  0.28767700  1
  O  O18  1  0.42104600  0.25083400  0.06137600  1
  O  O19  1  0.92104600  0.74916600  0.43862400  1
  O  O20  1  0.57895400  0.74916600  0.93862400  1
  O  O21  1  0.07895400  0.25083400  0.56137600  1
  O  O22  1  0.43083800  0.29397600  0.50985100  1
  O  O23  1  0.76680500  0.58425800  0.59445600  1
  O  O24  1  0.73319500  0.58425800  0.09445600  1
  O  O25  1  0.23319500  0.41574200  0.40554400  1
  O  O26  1  0.39082700  0.82481200  0.67623200  1
  O  O27  1  0.26680500  0.41574200  0.90554400  1
loop_
_geom_bond_atom_site_label_1
_geom_bond_atom_site_label_2
_geom_bond_distance
_geom_bond_site_symmetry_2
K0 O15 2.784778 1_455
K0 O27 2.843795 1_555
K0 O13 2.887662 1_565
K0 O2 2.942880 1_555
K0 O21 2.947740 1_555
K0 O25 2.990210 1_555
K0 O26 3.079062 1_555
K1 O14 2.784778 1_555
K1 O23 2.843795 1_555
K1 O12 2.887662 1_546
K1 O3 2.942880 1_555
K1 O20 2.947740 1_555
K1 O24 2.990210 1_556
K1 O1 3.079062 1_555
K2 O17 2.784778 1_655
K2 O24 2.843795 1_555
K2 O11 2.887662 1_545
K2 O4 2.942880 1_555
K2 O19 2.947740 1_555
K2 O23 2.990210 1_555
K2 O0 3.079062 1_555
K3 O16 2.784778 1_555
K3 O25 2.843795 1_555
K3 O10 2.887662 1_564
K3 O5 2.942880 1_555
K3 O18 2.947740 1_555
K3 O27 2.990210 1_554
K3 O7 3.079062 1_555
H0 O9 0.998913 1_555
H0 O23 1.663700 1_555
H1 O8 0.998913 1_556
H1 O27 1.663700 1_555
H2 O22 0.998913 1_555
H2 O25 1.663700 1_555
H3 O6 0.998913 1_554
H3 O24 1.663700 1_555
H4 O9 0.995708 1_555
H5 O8 0.995708 1_555
H6 O5 1.000907 1_545
H7 O4 1.000907 1_565
H8 O3 1.000907 1_565
H9 O2 1.000907 1_545
H10 O26 0.992208 1_555
H11 O1 0.992208 1_555
H12 O0 0.992208 1_555
H13 O7 0.992208 1_555
H14 O26 0.993202 1_555
H15 O1 0.993202 1_555
H16 O0 0.993202 1_555
H17 O7 0.993202 1_555
H18 O4 0.995886 1_565
H19 O5 0.995886 1_545
H20 O6 0.995708 1_555
H21 O22 0.995708 1_555
H22 O3 0.995886 1_565
H23 O2 0.995886 1_545
O0 Zn0 2.170254 1_555
O1 Zn1 2.170254 1_656
O2 Zn1 2.197396 1_566
O3 Zn0 2.197396 1_555
O4 Zn1 2.197396 1_655
O5 Zn0 2.197396 1_565
O6 Zn1 2.048914 1_666
O7 Zn1 2.170254 1_565
O8 Zn1 2.048914 1_555
O9 Zn0 2.048914 1_565
O10 S3 1.502172 1_555
O11 S0 1.502172 1_555
O12 S2 1.502172 1_555
O13 S1 1.502172 1_555
O14 S3 1.499741 1_555
O15 S0 1.499741 1_555
O16 S2 1.499741 1_555
O17 S1 1.499741 1_555
O18 S3 1.484787 1_554
O19 S0 1.484787 1_555
O20 S2 1.484787 1_556
O21 S1 1.484787 1_555
O22 Zn0 2.048914 1_555
O23 S0 1.497474 1_555
O24 S2 1.497474 1_555
O25 S1 1.497474 1_555
O26 Zn0 2.170254 1_565
O27 S3 1.497474 1_555
