# generated using pymatgen
data_YbGa5Co
_symmetry_space_group_name_H-M   'P 1'
_cell_length_a   4.22153500
_cell_length_b   4.22153500
_cell_length_c   6.78232900
_cell_angle_alpha   90.00000000
_cell_angle_beta   90.00000000
_cell_angle_gamma   90.00000000
_symmetry_Int_Tables_number   1
_chemical_formula_structural   YbGa5Co
_chemical_formula_sum   'Yb1 Ga5 Co1'
_cell_volume   120.87031153
_cell_formula_units_Z   1
loop_
 _symmetry_equiv_pos_site_id
 _symmetry_equiv_pos_as_xyz
  1  'x, y, z'
loop_
 _atom_site_type_symbol
 _atom_site_label
 _atom_site_symmetry_multiplicity
 _atom_site_fract_x
 _atom_site_fract_y
 _atom_site_fract_z
 _atom_site_occupancy
  Yb  Yb0  1  0.00000000  0.00000000  0.00000000  1
  Ga  Ga0  1  0.50000000  0.50000000  0.00000000  1
  Ga  Ga1  1  0.00000000  0.50000000  0.69299700  1
  Ga  Ga2  1  0.50000000  0.00000000  0.30700300  1
  Ga  Ga3  1  0.00000000  0.50000000  0.30700300  1
  Ga  Ga4  1  0.50000000  0.00000000  0.69299700  1
  Co  Co0  1  0.00000000  0.00000000  0.50000000  1
loop_
_geom_bond_atom_site_label_1
_geom_bond_atom_site_label_2
_geom_bond_distance
_geom_bond_site_symmetry_2
Ga0 Ga4 2.964941 1_554
Ga0 Ga2 2.964941 1_555
Ga0 Ga3 2.964941 1_655
Ga0 Ga3 2.964941 1_555
Ga0 Ga1 2.964941 1_554
Ga0 Ga2 2.964941 1_565
Ga0 Ga4 2.964941 1_564
Ga0 Ga1 2.964941 1_654
Ga0 Yb0 2.985076 1_655
Ga0 Yb0 2.985076 1_665
Ga0 Yb0 2.985076 1_565
Ga0 Yb0 2.985076 1_555
Ga1 Ga3 2.617938 1_555
Ga1 Yb0 2.964941 1_556
Ga1 Yb0 2.964941 1_566
Ga1 Ga4 2.985076 1_565
Ga1 Ga4 2.985076 1_455
Ga1 Ga4 2.985076 1_465
Ga1 Ga4 2.985076 1_555
Ga2 Ga4 2.617938 1_555
Ga2 Yb0 2.964941 1_655
Ga2 Yb0 2.964941 1_555
Ga2 Ga3 2.985076 1_545
Ga2 Ga3 2.985076 1_645
Ga2 Ga3 2.985076 1_555
Ga2 Ga3 2.985076 1_655
Ga3 Yb0 2.964941 1_565
Ga3 Yb0 2.964941 1_555
Ga4 Yb0 2.964941 1_556
Ga4 Yb0 2.964941 1_656
Co0 Ga1 2.483695 1_545
Co0 Ga1 2.483695 1_555
Co0 Ga4 2.483695 1_455
Co0 Ga4 2.483695 1_555
Co0 Ga3 2.483695 1_545
Co0 Ga2 2.483695 1_455
Co0 Ga2 2.483695 1_555
Co0 Ga3 2.483695 1_555
