# generated using pymatgen
data_MgTe2MoW2(SeS)2
_symmetry_space_group_name_H-M   'P 1'
_cell_length_a   6.68760200
_cell_length_b   6.68777152
_cell_length_c   62.13366600
_cell_angle_alpha   89.99955233
_cell_angle_beta   90.00016498
_cell_angle_gamma   119.99952080
_symmetry_Int_Tables_number   1
_chemical_formula_structural   MgTe2MoW2(SeS)2
_chemical_formula_sum   'Mg8 Te16 Mo8 W16 Se16 S16'
_cell_volume   2406.64234551
_cell_formula_units_Z   8
loop_
 _symmetry_equiv_pos_site_id
 _symmetry_equiv_pos_as_xyz
  1  'x, y, z'
loop_
 _atom_site_type_symbol
 _atom_site_label
 _atom_site_symmetry_multiplicity
 _atom_site_fract_x
 _atom_site_fract_y
 _atom_site_fract_z
 _atom_site_occupancy
  Mg  Mg0_0  1  0.29055050  0.18076950  0.43122450  1
  Mg  Mg0_1  1  0.29055050  0.18076950  0.93122450  1
  Mg  Mg0_2  1  0.29055050  0.68076950  0.43122450  1
  Mg  Mg0_3  1  0.29055050  0.68076950  0.93122450  1
  Mg  Mg0_4  1  0.79055050  0.18076950  0.43122450  1
  Mg  Mg0_5  1  0.79055050  0.18076950  0.93122450  1
  Mg  Mg0_6  1  0.79055050  0.68076950  0.43122450  1
  Mg  Mg0_7  1  0.79055050  0.68076950  0.93122450  1
  Te  Te0_0  1  0.33332600  0.16665100  0.25850550  1
  Te  Te0_1  1  0.33332600  0.16665100  0.75850550  1
  Te  Te0_2  1  0.33332600  0.66665100  0.25850550  1
  Te  Te0_3  1  0.33332600  0.66665100  0.75850550  1
  Te  Te0_4  1  0.83332600  0.16665100  0.25850550  1
  Te  Te0_5  1  0.83332600  0.16665100  0.75850550  1
  Te  Te0_6  1  0.83332600  0.66665100  0.25850550  1
  Te  Te0_7  1  0.83332600  0.66665100  0.75850550  1
  Te  Te1_0  1  0.33332300  0.16664400  0.31989550  1
  Te  Te1_1  1  0.33332300  0.16664400  0.81989550  1
  Te  Te1_2  1  0.33332300  0.66664400  0.31989550  1
  Te  Te1_3  1  0.33332300  0.66664400  0.81989550  1
  Te  Te1_4  1  0.83332300  0.16664400  0.31989550  1
  Te  Te1_5  1  0.83332300  0.16664400  0.81989550  1
  Te  Te1_6  1  0.83332300  0.66664400  0.31989550  1
  Te  Te1_7  1  0.83332300  0.66664400  0.81989550  1
  Mo  Mo0_0  1  0.16666400  0.33332550  0.05781800  1
  Mo  Mo0_1  1  0.16666400  0.33332550  0.55781800  1
  Mo  Mo0_2  1  0.16666400  0.83332550  0.05781800  1
  Mo  Mo0_3  1  0.16666400  0.83332550  0.55781800  1
  Mo  Mo0_4  1  0.66666400  0.33332550  0.05781800  1
  Mo  Mo0_5  1  0.66666400  0.33332550  0.55781800  1
  Mo  Mo0_6  1  0.66666400  0.83332550  0.05781800  1
  Mo  Mo0_7  1  0.66666400  0.83332550  0.55781800  1
  W  W0_0  1  0.16665800  0.33331350  0.28922300  1
  W  W0_1  1  0.16665800  0.33331350  0.78922300  1
  W  W0_2  1  0.16665800  0.83331350  0.28922300  1
  W  W0_3  1  0.16665800  0.83331350  0.78922300  1
  W  W0_4  1  0.66665800  0.33331350  0.28922300  1
  W  W0_5  1  0.66665800  0.33331350  0.78922300  1
  W  W0_6  1  0.66665800  0.83331350  0.28922300  1
  W  W0_7  1  0.66665800  0.83331350  0.78922300  1
  W  W1_0  1  0.33334500  0.16668900  0.17343750  1
  W  W1_1  1  0.33334500  0.16668900  0.67343750  1
  W  W1_2  1  0.33334500  0.66668900  0.17343750  1
  W  W1_3  1  0.33334500  0.66668900  0.67343750  1
  W  W1_4  1  0.83334500  0.16668900  0.17343750  1
  W  W1_5  1  0.83334500  0.16668900  0.67343750  1
  W  W1_6  1  0.83334500  0.66668900  0.17343750  1
  W  W1_7  1  0.83334500  0.66668900  0.67343750  1
  Se  Se0_0  1  0.16667800  0.33335350  0.20040950  1
  Se  Se0_1  1  0.16667800  0.33335350  0.70040950  1
  Se  Se0_2  1  0.16667800  0.83335350  0.20040950  1
  Se  Se0_3  1  0.16667800  0.83335350  0.70040950  1
  Se  Se0_4  1  0.66667800  0.33335350  0.20040950  1
  Se  Se0_5  1  0.66667800  0.33335350  0.70040950  1
  Se  Se0_6  1  0.66667800  0.83335350  0.20040950  1
  Se  Se0_7  1  0.66667800  0.83335350  0.70040950  1
  Se  Se1_0  1  0.16668000  0.33335900  0.14647300  1
  Se  Se1_1  1  0.16668000  0.33335900  0.64647300  1
  Se  Se1_2  1  0.16668000  0.83335900  0.14647300  1
  Se  Se1_3  1  0.16668000  0.83335900  0.64647300  1
  Se  Se1_4  1  0.66668000  0.33335900  0.14647300  1
  Se  Se1_5  1  0.66668000  0.33335900  0.64647300  1
  Se  Se1_6  1  0.66668000  0.83335900  0.14647300  1
  Se  Se1_7  1  0.66668000  0.83335900  0.64647300  1
  S  S0_0  1  0.33331800  0.16663500  0.03340800  1
  S  S0_1  1  0.33331800  0.16663500  0.53340800  1
  S  S0_2  1  0.33331800  0.66663500  0.03340800  1
  S  S0_3  1  0.33331800  0.66663500  0.53340800  1
  S  S0_4  1  0.83331800  0.16663500  0.03340800  1
  S  S0_5  1  0.83331800  0.16663500  0.53340800  1
  S  S0_6  1  0.83331800  0.66663500  0.03340800  1
  S  S0_7  1  0.83331800  0.66663500  0.53340800  1
  S  S1_0  1  0.33331800  0.16663300  0.08224550  1
  S  S1_1  1  0.33331800  0.16663300  0.58224550  1
  S  S1_2  1  0.33331800  0.66663300  0.08224550  1
  S  S1_3  1  0.33331800  0.66663300  0.58224550  1
  S  S1_4  1  0.83331800  0.16663300  0.08224550  1
  S  S1_5  1  0.83331800  0.16663300  0.58224550  1
  S  S1_6  1  0.83331800  0.66663300  0.08224550  1
  S  S1_7  1  0.83331800  0.66663300  0.58224550  1
loop_
_geom_bond_atom_site_label_1
_geom_bond_atom_site_label_2
_geom_bond_distance
_geom_bond_site_symmetry_2
Mg0_0 Mg0_4 3.343801 1_455
Mg0_0 Mg0_4 3.343801 1_555
Mg0_0 Mg0_6 3.343868 1_445
Mg0_0 Mg0_6 3.343868 1_555
Mg0_0 Mg0_2 3.343886 1_555
Mg0_0 Mg0_2 3.343886 1_545
Mg0_1 Mg0_5 3.343801 1_555
Mg0_1 Mg0_5 3.343801 1_455
Mg0_1 Mg0_7 3.343868 1_555
Mg0_1 Mg0_7 3.343868 1_445
Mg0_1 Mg0_3 3.343886 1_545
Mg0_1 Mg0_3 3.343886 1_555
Mg0_2 Mg0_6 3.343801 1_455
Mg0_2 Mg0_6 3.343801 1_555
Mg0_2 Mg0_4 3.343868 1_455
Mg0_2 Mg0_4 3.343868 1_565
Mg0_3 Mg0_7 3.343801 1_455
Mg0_3 Mg0_7 3.343801 1_555
Mg0_3 Mg0_5 3.343868 1_565
Mg0_3 Mg0_5 3.343868 1_455
Mg0_4 Mg0_6 3.343886 1_555
Mg0_4 Mg0_6 3.343886 1_545
Mg0_5 Mg0_7 3.343886 1_555
Mg0_5 Mg0_7 3.343886 1_545
Te0_0 W0_4 2.714726 1_555
Te0_0 W0_0 2.714734 1_555
Te0_0 W0_2 2.714772 1_545
Te0_1 W0_5 2.714726 1_555
Te0_1 W0_1 2.714734 1_555
Te0_1 W0_3 2.714772 1_545
Te0_2 W0_6 2.714726 1_555
Te0_2 W0_2 2.714734 1_555
Te0_2 W0_0 2.714772 1_555
Te0_3 W0_7 2.714726 1_555
Te0_3 W0_3 2.714734 1_555
Te0_3 W0_1 2.714772 1_555
Te0_4 W0_0 2.714726 1_655
Te0_4 W0_4 2.714734 1_555
Te0_4 W0_6 2.714772 1_545
Te0_5 W0_1 2.714726 1_655
Te0_5 W0_5 2.714734 1_555
Te0_5 W0_7 2.714772 1_545
Te0_6 W0_2 2.714726 1_655
Te0_6 W0_6 2.714734 1_555
Te0_6 W0_4 2.714772 1_555
Te0_7 W0_3 2.714726 1_655
Te0_7 W0_7 2.714734 1_555
Te0_7 W0_5 2.714772 1_555
Te1_0 W0_0 2.712769 1_555
Te1_0 W0_4 2.712770 1_555
Te1_0 W0_2 2.712798 1_545
Te1_1 W0_1 2.712769 1_555
Te1_1 W0_5 2.712770 1_555
Te1_1 W0_3 2.712798 1_545
Te1_2 W0_2 2.712769 1_555
Te1_2 W0_6 2.712770 1_555
Te1_2 W0_0 2.712798 1_555
Te1_3 W0_3 2.712769 1_555
Te1_3 W0_7 2.712770 1_555
Te1_3 W0_1 2.712798 1_555
Te1_4 W0_4 2.712769 1_555
Te1_4 W0_0 2.712770 1_655
Te1_4 W0_6 2.712798 1_545
Te1_5 W0_5 2.712769 1_555
Te1_5 W0_1 2.712770 1_655
Te1_5 W0_7 2.712798 1_545
Te1_6 W0_6 2.712769 1_555
Te1_6 W0_2 2.712770 1_655
Te1_6 W0_4 2.712798 1_555
Te1_7 W0_7 2.712769 1_555
Te1_7 W0_3 2.712770 1_655
Te1_7 W0_5 2.712798 1_555
Mo0_0 S0_2 2.454990 1_555
Mo0_0 S0_4 2.455128 1_455
Mo0_0 S0_0 2.455136 1_555
Mo0_0 S1_2 2.455671 1_555
Mo0_0 S1_4 2.455797 1_455
Mo0_0 S1_0 2.455802 1_555
Mo0_1 S0_3 2.454990 1_555
Mo0_1 S0_5 2.455128 1_455
Mo0_1 S0_1 2.455136 1_555
Mo0_1 S1_3 2.455671 1_555
Mo0_1 S1_5 2.455797 1_455
Mo0_1 S1_1 2.455802 1_555
Mo0_2 S0_0 2.454990 1_565
Mo0_2 S0_6 2.455128 1_455
Mo0_2 S0_2 2.455136 1_555
Mo0_2 S1_0 2.455671 1_565
Mo0_2 S1_6 2.455797 1_455
Mo0_2 S1_2 2.455802 1_555
Mo0_3 S0_1 2.454990 1_565
Mo0_3 S0_7 2.455128 1_455
Mo0_3 S0_3 2.455136 1_555
Mo0_3 S1_1 2.455671 1_565
Mo0_3 S1_7 2.455797 1_455
Mo0_3 S1_3 2.455802 1_555
Mo0_4 S0_6 2.454990 1_555
Mo0_4 S0_0 2.455128 1_555
Mo0_4 S0_4 2.455136 1_555
Mo0_4 S1_6 2.455671 1_555
Mo0_4 S1_0 2.455797 1_555
Mo0_4 S1_4 2.455802 1_555
Mo0_5 S0_7 2.454990 1_555
Mo0_5 S0_1 2.455128 1_555
Mo0_5 S0_5 2.455136 1_555
Mo0_5 S1_7 2.455671 1_555
Mo0_5 S1_1 2.455797 1_555
Mo0_5 S1_5 2.455802 1_555
Mo0_6 S0_4 2.454990 1_565
Mo0_6 S0_2 2.455128 1_555
Mo0_6 S0_6 2.455136 1_555
Mo0_6 S1_4 2.455671 1_565
Mo0_6 S1_2 2.455797 1_555
Mo0_6 S1_6 2.455802 1_555
Mo0_7 S0_5 2.454990 1_565
Mo0_7 S0_3 2.455128 1_555
Mo0_7 S0_7 2.455136 1_555
Mo0_7 S1_5 2.455671 1_565
Mo0_7 S1_3 2.455797 1_555
Mo0_7 S1_7 2.455802 1_555
Se0_0 W1_4 2.556477 1_455
Se0_0 W1_0 2.556485 1_555
Se0_0 W1_2 2.556514 1_555
Se0_1 W1_5 2.556477 1_455
Se0_1 W1_1 2.556485 1_555
Se0_1 W1_3 2.556514 1_555
Se0_2 W1_6 2.556477 1_455
Se0_2 W1_2 2.556485 1_555
Se0_2 W1_0 2.556514 1_565
Se0_3 W1_7 2.556477 1_455
Se0_3 W1_3 2.556485 1_555
Se0_3 W1_1 2.556514 1_565
Se0_4 W1_0 2.556477 1_555
Se0_4 W1_4 2.556485 1_555
Se0_4 W1_6 2.556514 1_555
Se0_5 W1_1 2.556477 1_555
Se0_5 W1_5 2.556485 1_555
Se0_5 W1_7 2.556514 1_555
Se0_6 W1_2 2.556477 1_555
Se0_6 W1_6 2.556485 1_555
Se0_6 W1_4 2.556514 1_565
Se0_7 W1_3 2.556477 1_555
Se0_7 W1_7 2.556485 1_555
Se0_7 W1_5 2.556514 1_565
Se1_0 W1_4 2.556177 1_455
Se1_0 W1_0 2.556179 1_555
Se1_0 W1_2 2.556203 1_555
Se1_1 W1_5 2.556177 1_455
Se1_1 W1_1 2.556179 1_555
Se1_1 W1_3 2.556203 1_555
Se1_2 W1_6 2.556177 1_455
Se1_2 W1_2 2.556179 1_555
Se1_2 W1_0 2.556203 1_565
Se1_3 W1_7 2.556177 1_455
Se1_3 W1_3 2.556179 1_555
Se1_3 W1_1 2.556203 1_565
Se1_4 W1_0 2.556177 1_555
Se1_4 W1_4 2.556179 1_555
Se1_4 W1_6 2.556203 1_555
Se1_5 W1_1 2.556177 1_555
Se1_5 W1_5 2.556179 1_555
Se1_5 W1_7 2.556203 1_555
Se1_6 W1_2 2.556177 1_555
Se1_6 W1_6 2.556179 1_555
Se1_6 W1_4 2.556203 1_565
Se1_7 W1_3 2.556177 1_555
Se1_7 W1_7 2.556179 1_555
Se1_7 W1_5 2.556203 1_565
