# generated using pymatgen
data_MgTaP(SO6)2
_symmetry_space_group_name_H-M   'P 1'
_cell_length_a   8.70845814
_cell_length_b   8.70730368
_cell_length_c   22.39860592
_cell_angle_alpha   90.03868477
_cell_angle_beta   90.00000000
_cell_angle_gamma   120.00438599
_symmetry_Int_Tables_number   1
_chemical_formula_structural   MgTaP(SO6)2
_chemical_formula_sum   'Mg6 Ta6 P6 S12 O72'
_cell_volume   1470.81229857
_cell_formula_units_Z   6
loop_
 _symmetry_equiv_pos_site_id
 _symmetry_equiv_pos_as_xyz
  1  'x, y, z'
loop_
 _atom_site_type_symbol
 _atom_site_label
 _atom_site_symmetry_multiplicity
 _atom_site_fract_x
 _atom_site_fract_y
 _atom_site_fract_z
 _atom_site_occupancy
  Mg  Mg0  1  0.99520398  0.00331812  0.35441825  1
  Mg  Mg1  1  0.00811414  0.00331812  0.85441825  1
  Mg  Mg2  1  0.66730906  0.33514864  0.68767188  1
  Mg  Mg3  1  0.66784058  0.33514864  0.18767188  1
  Mg  Mg4  1  0.33142010  0.66669429  0.02107947  1
  Mg  Mg5  1  0.33527319  0.66669429  0.52107947  1
  Ta  Ta0  1  0.00509572  0.01146663  0.64402325  1
  Ta  Ta1  1  0.00637092  0.01146663  0.14402325  1
  Ta  Ta2  1  0.65559274  0.32764112  0.97745486  1
  Ta  Ta3  1  0.67204938  0.32764112  0.47745486  1
  Ta  Ta4  1  0.33594838  0.66845369  0.31070923  1
  Ta  Ta5  1  0.33250431  0.66845369  0.81070923  1
  P  P0  1  0.99144262  0.28735433  0.25245392  1
  P  P1  1  0.29591171  0.28735433  0.75245392  1
  P  P2  1  0.96135762  0.34439351  0.58572367  1
  P  P3  1  0.38303689  0.34439351  0.08572367  1
  P  P4  1  0.32293744  0.94900954  0.91847933  1
  P  P5  1  0.62607109  0.94900954  0.41847933  1
  S  S0  1  0.29169311  0.00603584  0.25137141  1
  S  S1  1  0.71538172  0.70907864  0.25093824  1
  S  S2  1  0.99369692  0.70907864  0.75093824  1
  S  S3  1  0.71434273  0.00603584  0.75137141  1
  S  S4  1  0.38092521  0.04151038  0.58461415  1
  S  S5  1  0.66210412  0.62036771  0.58438795  1
  S  S6  1  0.95826459  0.62036771  0.08438795  1
  S  S7  1  0.66058616  0.04151038  0.08461415  1
  S  S8  1  0.62511793  0.67320937  0.91790489  1
  S  S9  1  0.04568979  0.37485760  0.91819876  1
  S  S10  1  0.32916681  0.37485760  0.41819876  1
  S  S11  1  0.04809044  0.67320937  0.41790489  1
  O  O0  1  0.20629941  0.02670403  0.30374736  1
  O  O1  1  0.82110593  0.79156666  0.30336443  1
  O  O2  1  0.97380715  0.17455620  0.30469263  1
  O  O3  1  0.20074905  0.17455620  0.80469263  1
  O  O4  1  0.97046073  0.79156666  0.80336443  1
  O  O5  1  0.82040462  0.02670403  0.80374736  1
  O  O6  1  0.79230282  0.96529274  0.69641472  1
  O  O7  1  0.16666546  0.19905393  0.69456530  1
  O  O8  1  0.03304863  0.82576792  0.69640895  1
  O  O9  1  0.79271928  0.82576792  0.19640895  1
  O  O10  1  0.03238847  0.19905393  0.19456530  1
  O  O11  1  0.17298992  0.96529274  0.19641472  1
  O  O12  1  0.86684848  0.35969651  0.63876141  1
  O  O13  1  0.48702197  0.12567733  0.63661256  1
  O  O14  1  0.63824537  0.51249756  0.63662462  1
  O  O15  1  0.87425319  0.51249756  0.13662462  1
  O  O16  1  0.63865636  0.12567733  0.13661256  1
  O  O17  1  0.49284903  0.35969651  0.13876141  1
  O  O18  1  0.46739261  0.30084750  0.02806883  1
  O  O19  1  0.84047368  0.53937859  0.02960715  1
  O  O20  1  0.70183579  0.16009943  0.02969196  1
  O  O21  1  0.45826464  0.16009943  0.52969196  1
  O  O22  1  0.69890590  0.53937859  0.52960715  1
  O  O23  1  0.83345589  0.30084750  0.52806883  1
  O  O24  1  0.54156990  0.69472303  0.96990538  1
  O  O25  1  0.15452554  0.45861883  0.96978890  1
  O  O26  1  0.30784706  0.84046095  0.97217666  1
  O  O27  1  0.53261290  0.84046095  0.47217666  1
  O  O28  1  0.30409229  0.45861883  0.46978890  1
  O  O29  1  0.15315212  0.69472303  0.46990538  1
  O  O30  1  0.12538394  0.63250307  0.36287421  1
  O  O31  1  0.49901095  0.86521184  0.36131206  1
  O  O32  1  0.36606368  0.49354167  0.36302120  1
  O  O33  1  0.12747699  0.49354167  0.86302120  1
  O  O34  1  0.36619989  0.86521184  0.86131206  1
  O  O35  1  0.50711813  0.63250307  0.86287421  1
  O  O36  1  0.02258625  0.82246522  0.40663108  1
  O  O37  1  0.80641226  0.97966452  0.40675337  1
  O  O38  1  0.18056828  0.20009709  0.40726252  1
  O  O39  1  0.01952881  0.20009709  0.90726252  1
  O  O40  1  0.17325225  0.97966452  0.90675337  1
  O  O41  1  0.79987897  0.82246522  0.90663108  1
  O  O42  1  0.97045871  0.16488097  0.59286675  1
  O  O43  1  0.19857701  0.02599206  0.59162638  1
  O  O44  1  0.82918216  0.80068579  0.59250421  1
  O  O45  1  0.97150363  0.80068579  0.09250421  1
  O  O46  1  0.82741505  0.02599206  0.09162638  1
  O  O47  1  0.19442226  0.16488097  0.09286675  1
  O  O48  1  0.68820113  0.15365843  0.74085772  1
  O  O49  1  0.47459343  0.31398844  0.73863298  1
  O  O50  1  0.84618490  0.53347230  0.74098513  1
  O  O51  1  0.68728840  0.53347230  0.24098513  1
  O  O52  1  0.83939601  0.31398844  0.23863298  1
  O  O53  1  0.46545830  0.15365843  0.24085772  1
  O  O54  1  0.64091559  0.50644942  0.92496878  1
  O  O55  1  0.86644927  0.36239930  0.92539303  1
  O  O56  1  0.50223011  0.13942673  0.92652978  1
  O  O57  1  0.63719762  0.13942673  0.42652978  1
  O  O58  1  0.49595103  0.36239930  0.42539303  1
  O  O59  1  0.86553483  0.50644942  0.42496878  1
  O  O60  1  0.35244684  0.49375416  0.07212773  1
  O  O61  1  0.13204501  0.64508487  0.07425568  1
  O  O62  1  0.51240072  0.86679979  0.07404520  1
  O  O63  1  0.35439807  0.86679979  0.57404520  1
  O  O64  1  0.51303887  0.64508487  0.57425568  1
  O  O65  1  0.14130633  0.49375416  0.57212773  1
  O  O66  1  0.30421234  0.83755853  0.25826421  1
  O  O67  1  0.53252649  0.69397053  0.25858366  1
  O  O68  1  0.16833406  0.47491468  0.26064421  1
  O  O69  1  0.30657961  0.47491468  0.76064421  1
  O  O70  1  0.16144305  0.69397053  0.75858366  1
  O  O71  1  0.53334519  0.83755853  0.75826421  1
loop_
_geom_bond_atom_site_label_1
_geom_bond_atom_site_label_2
_geom_bond_distance
_geom_bond_site_symmetry_2
Mg0 O2 1.943834 1_555
Mg0 O37 1.944539 1_545
Mg0 O38 2.042936 1_655
Mg0 O1 2.051151 1_545
Mg0 O36 2.069404 1_645
Mg0 O0 2.082049 1_655
Mg1 O3 1.943834 1_555
Mg1 O40 1.944539 1_545
Mg1 O39 2.042936 1_555
Mg1 O4 2.051151 1_445
Mg1 O41 2.069404 1_445
Mg1 O5 2.082049 1_455
Mg2 O49 1.960725 1_555
Mg2 O12 1.973384 1_555
Mg2 O50 2.035051 1_555
Mg2 O14 2.036989 1_555
Mg2 O13 2.057386 1_555
Mg2 O48 2.059049 1_555
Mg3 O52 1.960725 1_555
Mg3 O17 1.973384 1_555
Mg3 O51 2.035051 1_555
Mg3 O15 2.036989 1_555
Mg3 O16 2.057386 1_555
Mg3 O53 2.059049 1_555
Mg4 O26 1.960641 1_554
Mg4 O60 1.971439 1_555
Mg4 O61 2.035237 1_555
Mg4 O62 2.044028 1_555
Mg4 O25 2.044811 1_554
Mg4 O24 2.067916 1_554
Mg5 O27 1.960641 1_555
Mg5 O65 1.971439 1_555
Mg5 O64 2.035237 1_555
Mg5 O63 2.044028 1_555
Mg5 O28 2.044811 1_555
Mg5 O29 2.067916 1_555
O0 S0 1.447494 1_555
O1 S1 1.442208 1_555
O2 P0 1.485936 1_555
O3 P1 1.485936 1_555
O4 S2 1.442208 1_555
O5 S3 1.447494 1_555
O6 S3 1.530464 1_565
O6 Ta0 2.056261 1_665
O7 P1 1.634738 1_555
O7 Ta0 1.904790 1_555
O8 S2 1.514926 1_455
O8 Ta0 2.108730 1_565
O9 S1 1.514926 1_555
O9 Ta1 2.108731 1_665
O10 P0 1.634738 1_455
O10 Ta1 1.904790 1_555
O11 S0 1.530464 1_565
O11 Ta1 2.056261 1_565
O12 P2 1.488582 1_555
O13 S4 1.438366 1_555
O14 S5 1.449361 1_555
O15 S6 1.449361 1_555
O16 S7 1.438366 1_555
O17 P3 1.488582 1_555
O18 P3 1.621424 1_555
O18 Ta2 1.908850 1_554
O19 S6 1.526579 1_555
O19 Ta2 2.093843 1_554
O20 S7 1.529498 1_555
O20 Ta2 2.061366 1_554
O21 S4 1.529498 1_555
O21 Ta3 2.061366 1_555
O22 S5 1.526579 1_555
O22 Ta3 2.093843 1_555
O23 P2 1.621424 1_555
O23 Ta3 1.908850 1_555
O24 S8 1.434255 1_555
O25 S9 1.439806 1_555
O26 P4 1.494829 1_555
O27 P5 1.494829 1_555
O28 S10 1.439806 1_555
O29 S11 1.434255 1_555
O30 S11 1.528414 1_555
O30 Ta4 2.062047 1_555
O31 P5 1.608601 1_555
O31 Ta4 1.949494 1_555
O32 S10 1.538920 1_555
O32 Ta4 2.040379 1_555
O33 S9 1.538920 1_555
O33 Ta5 2.040379 1_555
O34 P4 1.608602 1_555
O34 Ta5 1.949494 1_555
O35 S8 1.528414 1_555
O35 Ta5 2.062047 1_555
O36 S11 1.446107 1_555
O37 P5 1.479026 1_555
O38 S10 1.442298 1_555
O39 S9 1.442301 1_555
O40 P4 1.479018 1_555
O41 S8 1.446112 1_555
O42 P2 1.612236 1_555
O42 Ta0 1.895627 1_655
O43 S4 1.532974 1_555
O43 Ta0 2.004846 1_555
O44 S5 1.526456 1_555
O44 Ta0 2.057192 1_665
O45 S6 1.526459 1_555
O45 Ta1 2.057192 1_665
O46 S7 1.532966 1_555
O46 Ta1 2.004846 1_655
O47 P3 1.612241 1_555
O47 Ta1 1.895627 1_555
O48 S3 1.432688 1_555
O49 P1 1.486630 1_555
O50 S2 1.439781 1_555
O51 S1 1.439784 1_555
O52 P0 1.486622 1_555
O53 S0 1.432693 1_555
O54 S8 1.533769 1_555
O54 Ta2 2.005982 1_555
O55 S9 1.518172 1_655
O55 Ta2 2.065875 1_555
O56 P4 1.621691 1_545
O56 Ta2 1.891827 1_555
O57 P5 1.621683 1_545
O57 Ta3 1.891827 1_555
O58 S10 1.518189 1_555
O58 Ta3 2.065875 1_555
O59 S11 1.533759 1_655
O59 Ta3 2.005982 1_555
O60 P3 1.483951 1_555
O61 S6 1.436106 1_455
O62 S7 1.439337 1_565
O63 S4 1.439331 1_565
O64 S5 1.436123 1_555
O65 P2 1.483940 1_455
O66 S0 1.532326 1_565
O66 Ta4 2.008413 1_555
O67 S1 1.540406 1_555
O67 Ta4 1.990738 1_555
O68 P0 1.599153 1_455
O68 Ta4 1.940445 1_555
O69 P1 1.599157 1_555
O69 Ta5 1.940445 1_555
O70 S2 1.540397 1_455
O70 Ta5 1.990738 1_555
O71 S3 1.532331 1_565
O71 Ta5 2.008413 1_555
