# generated using pymatgen
data_MgFe(CoO3)2
_symmetry_space_group_name_H-M   'P 1'
_cell_length_a   7.83955985
_cell_length_b   2.90717670
_cell_length_c   5.25866328
_cell_angle_alpha   90.15023022
_cell_angle_beta   110.52897135
_cell_angle_gamma   79.21899711
_symmetry_Int_Tables_number   1
_chemical_formula_structural   MgFe(CoO3)2
_chemical_formula_sum   'Mg1 Fe1 Co2 O6'
_cell_volume   109.99931064
_cell_formula_units_Z   1
loop_
 _symmetry_equiv_pos_site_id
 _symmetry_equiv_pos_as_xyz
  1  'x, y, z'
loop_
 _atom_site_type_symbol
 _atom_site_label
 _atom_site_symmetry_multiplicity
 _atom_site_fract_x
 _atom_site_fract_y
 _atom_site_fract_z
 _atom_site_occupancy
  Mg  Mg0  1  0.78589398  0.60688741  0.28386874  1
  Fe  Fe0  1  0.34488838  0.32718680  0.36277137  1
  Co  Co0  1  0.02184864  0.98877825  0.98740672  1
  Co  Co1  1  0.67567618  0.66173452  0.70358771  1
  O  O0  1  0.04737280  0.47765831  0.25287305  1
  O  O1  1  0.41815364  0.79136992  0.62773671  1
  O  O2  1  0.73706632  0.13180944  0.97026101  1
  O  O3  1  0.27586547  0.86101427  0.08721069  1
  O  O4  1  0.63480807  0.18139048  0.43575037  1
  O  O5  1  0.92842653  0.53466960  0.72603461  1
loop_
_geom_bond_atom_site_label_1
_geom_bond_atom_site_label_2
_geom_bond_distance
_geom_bond_site_symmetry_2
Mg0 O0 2.077408 1_655
Mg0 O2 2.125293 1_554
Mg0 O2 2.132359 1_564
Mg0 O4 2.178705 1_565
Mg0 O4 2.188102 1_555
Mg0 O5 2.189006 1_555
Fe0 O1 1.952233 1_555
Fe0 O1 1.952741 1_545
Fe0 O3 1.985807 1_545
Fe0 O3 1.987160 1_555
Fe0 O4 2.126366 1_555
Fe0 O0 2.153980 1_555
Co0 O3 1.835835 1_556
Co0 O5 1.953099 1_455
Co0 O5 1.953130 1_465
Co0 O0 1.974974 1_556
Co0 O0 1.977095 1_566
Co0 O2 2.162662 1_465
Co1 O1 1.878377 1_555
Co1 O5 1.907589 1_555
Co1 O2 1.956633 1_565
Co1 O2 1.957598 1_555
Co1 O4 1.969024 1_555
Co1 O4 1.970361 1_565
