# generated using pymatgen
data_ZnP4H16(NO8)2
_symmetry_space_group_name_H-M   'P 1'
_cell_length_a   7.14772400
_cell_length_b   7.41927034
_cell_length_c   7.83863608
_cell_angle_alpha   99.26811001
_cell_angle_beta   108.91014632
_cell_angle_gamma   89.75051410
_symmetry_Int_Tables_number   1
_chemical_formula_structural   ZnP4H16(NO8)2
_chemical_formula_sum   'Zn1 P4 H16 N2 O16'
_cell_volume   387.61070965
_cell_formula_units_Z   1
loop_
 _symmetry_equiv_pos_site_id
 _symmetry_equiv_pos_as_xyz
  1  'x, y, z'
loop_
 _atom_site_type_symbol
 _atom_site_label
 _atom_site_symmetry_multiplicity
 _atom_site_fract_x
 _atom_site_fract_y
 _atom_site_fract_z
 _atom_site_occupancy
  Zn  Zn0  1  0.00000000  0.50000000  0.00000000  1
  P  P0  1  0.83482400  0.25399900  0.25742500  1
  P  P1  1  0.16517600  0.74600100  0.74257500  1
  P  P2  1  0.24604200  0.21680400  0.25836200  1
  P  P3  1  0.75395800  0.78319600  0.74163800  1
  H  H0  1  0.57369000  0.71808300  0.32862000  1
  H  H1  1  0.42631000  0.28191700  0.67138000  1
  H  H2  1  0.44542300  0.68347200  0.10020100  1
  H  H3  1  0.55457700  0.31652800  0.89979900  1
  H  H4  1  0.67619100  0.60732900  0.17592900  1
  H  H5  1  0.35614000  0.16507400  0.81079300  1
  H  H6  1  0.12007000  0.70175300  0.34750200  1
  H  H7  1  0.87993000  0.29824700  0.65249800  1
  H  H8  1  0.64386000  0.83492600  0.18920700  1
  H  H9  1  0.87789500  0.16556100  0.79416400  1
  H  H10  1  0.75770200  0.02097200  0.02269000  1
  H  H11  1  0.24229800  0.97902800  0.97731000  1
  H  H12  1  0.56620300  0.27372600  0.42272300  1
  H  H13  1  0.43379700  0.72627400  0.57727700  1
  H  H14  1  0.32380900  0.39267100  0.82407100  1
  H  H15  1  0.12210500  0.83443900  0.20583600  1
  N  N0  1  0.58431400  0.71101900  0.19828500  1
  N  N1  1  0.41568600  0.28898100  0.80171500  1
  O  O0  1  0.07117200  0.23764400  0.34929600  1
  O  O1  1  0.94149600  0.27910500  0.78076100  1
  O  O2  1  0.05850400  0.72089500  0.21923900  1
  O  O3  1  0.23711200  0.69109900  0.58124300  1
  O  O4  1  0.25421800  0.94310800  0.84462600  1
  O  O5  1  0.20238300  0.61556900  0.88089900  1
  O  O6  1  0.74578200  0.05689200  0.15537400  1
  O  O7  1  0.92882800  0.76235600  0.65070400  1
  O  O8  1  0.23207400  0.02011600  0.15920600  1
  O  O9  1  0.76792600  0.97988400  0.84079400  1
  O  O10  1  0.42907300  0.24903300  0.44005500  1
  O  O11  1  0.57092700  0.75096700  0.55994500  1
  O  O12  1  0.23993000  0.36281600  0.14323000  1
  O  O13  1  0.76007000  0.63718400  0.85677000  1
  O  O14  1  0.76288800  0.30890100  0.41875700  1
  O  O15  1  0.79761700  0.38443100  0.11910100  1
loop_
_geom_bond_atom_site_label_1
_geom_bond_atom_site_label_2
_geom_bond_distance
_geom_bond_site_symmetry_2
H0 N0 1.041769 1_555
H1 N1 1.041769 1_555
H2 N0 1.036762 1_555
H3 N1 1.036762 1_555
H4 N0 1.039508 1_555
H5 N1 1.037032 1_555
H6 O2 0.991634 1_555
H7 O1 0.991634 1_555
H8 N0 1.037032 1_555
H9 O1 0.995069 1_555
H10 O6 1.062058 1_555
H10 O9 1.434769 1_544
H11 O4 1.062058 1_555
H11 O8 1.434769 1_566
H12 O10 1.052922 1_555
H12 O14 1.442090 1_555
H13 O11 1.052922 1_555
H13 O3 1.442090 1_555
H14 N1 1.039508 1_555
H15 O2 0.995069 1_555
O0 P0 1.620201 1_455
O0 P2 1.623143 1_555
O1 Zn0 2.108817 1_656
O2 Zn0 2.108817 1_555
O3 P1 1.511055 1_555
O4 P1 1.576342 1_555
O5 P1 1.526979 1_555
O5 Zn0 2.200769 1_556
O6 P0 1.576342 1_555
O7 P1 1.620201 1_655
O7 P3 1.623143 1_555
O8 P2 1.526175 1_555
O9 P3 1.526175 1_555
O10 P2 1.575580 1_555
O11 P3 1.575580 1_555
O12 P2 1.509591 1_555
O12 Zn0 2.083839 1_555
O13 P3 1.509591 1_555
O13 Zn0 2.083839 1_656
O14 P0 1.511055 1_555
O15 P0 1.526979 1_555
O15 Zn0 2.200769 1_655
