# generated using pymatgen
data_Na10La4Y4Si5S7O48
_symmetry_space_group_name_H-M   'P 1'
_cell_length_a   19.03574445
_cell_length_b   9.51920495
_cell_length_c   24.21174595
_cell_angle_alpha   90.02831633
_cell_angle_beta   89.57761973
_cell_angle_gamma   120.03732956
_symmetry_Int_Tables_number   1
_chemical_formula_structural   Na10La4Y4Si5S7O48
_chemical_formula_sum   'Na30 La12 Y12 Si15 S21 O144'
_cell_volume   3797.94819521
_cell_formula_units_Z   3
loop_
 _symmetry_equiv_pos_site_id
 _symmetry_equiv_pos_as_xyz
  1  'x, y, z'
loop_
 _atom_site_type_symbol
 _atom_site_label
 _atom_site_symmetry_multiplicity
 _atom_site_fract_x
 _atom_site_fract_y
 _atom_site_fract_z
 _atom_site_occupancy
  Na  Na0  1  0.33723528  0.00211962  0.24868304  1
  Na  Na1  1  0.83195828  0.99773607  0.25096198  1
  Na  Na2  1  0.18405957  0.38652321  0.23847407  1
  Na  Na3  1  0.67642257  0.37716069  0.24113405  1
  Na  Na4  1  0.99154591  0.62344311  0.26362237  1
  Na  Na5  1  0.49356884  0.62149101  0.26322848  1
  Na  Na6  1  0.83688017  0.66654267  0.74333026  1
  Na  Na7  1  0.98800491  0.35976608  0.75703752  1
  Na  Na8  1  0.49230601  0.34377556  0.76073381  1
  Na  Na9  1  0.17625518  0.98734146  0.73767397  1
  Na  Na10  1  0.02229247  0.71556380  0.58831064  1
  Na  Na11  1  0.32662664  0.97487080  0.59763795  1
  Na  Na12  1  0.02266303  0.33042886  0.08565617  1
  Na  Na13  1  0.51798305  0.32751271  0.08863876  1
  Na  Na14  1  0.15815264  0.30163965  0.93084484  1
  Na  Na15  1  0.66079379  0.30605011  0.93367061  1
  Na  Na16  1  0.15908275  0.01283526  0.43008210  1
  Na  Na17  1  0.65953261  0.01326354  0.43192374  1
  Na  Na18  1  0.00296531  0.98999290  0.50209509  1
  Na  Na19  1  0.51638830  0.97952673  0.49800168  1
  Na  Na20  1  0.00763052  0.01889912  0.00022338  1
  Na  Na21  1  0.51041169  0.01707322  0.00416492  1
  Na  Na22  1  0.35169311  0.32643071  0.83825054  1
  Na  Na23  1  0.85625042  0.32324651  0.83004783  1
  Na  Na24  1  0.36294726  0.38549154  0.33608242  1
  Na  Na25  1  0.85809866  0.38135369  0.33710486  1
  Na  Na26  1  0.17967813  0.64768340  0.16810256  1
  Na  Na27  1  0.67834050  0.64271005  0.16667548  1
  Na  Na28  1  0.17328888  0.68951645  0.67332105  1
  Na  Na29  1  0.69025808  0.74744516  0.66058576  1
  La  La0  1  0.98904600  0.98724015  0.35075291  1
  La  La1  1  0.98904207  0.98949644  0.84792082  1
  La  La2  1  0.49236529  0.00675910  0.84867909  1
  La  La3  1  0.50846537  0.00069904  0.64581077  1
  La  La4  1  0.00187838  0.00404922  0.15427723  1
  La  La5  1  0.82557325  0.33675176  0.17873997  1
  La  La6  1  0.33682609  0.33495450  0.98594512  1
  La  La7  1  0.83557398  0.33441802  0.98411889  1
  La  La8  1  0.16932011  0.65804097  0.01755833  1
  La  La9  1  0.16252682  0.66271184  0.51588297  1
  La  La10  1  0.16284130  0.66747839  0.81549948  1
  La  La11  1  0.66726114  0.68391409  0.81794268  1
  Y  Y0  1  0.49091411  0.98755784  0.34964034  1
  Y  Y1  1  -0.00023395  0.99515870  0.64780560  1
  Y  Y2  1  0.50225782  0.00724684  0.15383438  1
  Y  Y3  1  0.32999967  0.32669299  0.67861913  1
  Y  Y4  1  0.82312263  0.30817585  0.68158304  1
  Y  Y5  1  0.33226107  0.34476593  0.18312702  1
  Y  Y6  1  0.33669169  0.34401863  0.48116748  1
  Y  Y7  1  0.83359553  0.33554322  0.48258557  1
  Y  Y8  1  0.66194842  0.65437343  0.01754464  1
  Y  Y9  1  0.65829818  0.67234481  0.51767506  1
  Y  Y10  1  0.16218631  0.65479387  0.31956532  1
  Y  Y11  1  0.65663267  0.64798948  0.32102778  1
  Si  Si0  1  0.35060198  0.70272523  0.24984823  1
  Si  Si1  1  0.84250112  0.69307271  0.25020665  1
  Si  Si2  1  0.00008576  0.31085795  0.24767775  1
  Si  Si3  1  0.49892193  0.29841951  0.24853976  1
  Si  Si4  1  0.99642742  0.69101251  0.74324827  1
  Si  Si5  1  0.34891703  0.01103267  0.74094496  1
  Si  Si6  1  0.84937207  0.99880139  0.74584927  1
  Si  Si7  1  0.18275923  0.03535632  0.57916474  1
  Si  Si8  1  0.68317801  0.03219871  0.57626074  1
  Si  Si9  1  0.17915506  0.32909013  0.08328601  1
  Si  Si10  1  0.67259757  0.32707068  0.08105703  1
  Si  Si11  1  0.01357585  0.35417553  0.91629602  1
  Si  Si12  1  0.51654655  0.36480100  0.91464006  1
  Si  Si13  1  0.01283786  0.66667242  0.41703960  1
  Si  Si14  1  0.51550322  0.67359584  0.41414536  1
  S  S0  1  0.15719208  0.00046110  0.25342920  1
  S  S1  1  0.64534275  0.99180339  0.25376610  1
  S  S2  1  0.15056262  0.29432000  0.74701226  1
  S  S3  1  0.65433636  0.30871179  0.75170068  1
  S  S4  1  0.49515576  0.68346958  0.74904856  1
  S  S5  1  0.47991548  0.33597256  0.58242536  1
  S  S6  1  0.97755184  0.32911428  0.58470825  1
  S  S7  1  0.33348599  0.63054001  0.58313265  1
  S  S8  1  0.83291895  0.62831176  0.58420435  1
  S  S9  1  0.48761498  0.64094184  0.08657525  1
  S  S10  1  0.98862759  0.64195050  0.08489075  1
  S  S11  1  0.33685247  0.03464827  0.09032972  1
  S  S12  1  0.83021885  0.01851813  0.08496021  1
  S  S13  1  0.31919835  0.66139523  0.91477992  1
  S  S14  1  0.81272148  0.66329450  0.91803079  1
  S  S15  1  0.16787403  0.97970896  0.91601316  1
  S  S16  1  0.66350754  0.97112919  0.92095207  1
  S  S17  1  0.31672440  0.97348965  0.41565514  1
  S  S18  1  0.80838458  0.96310175  0.41718341  1
  S  S19  1  0.17215600  0.36205159  0.41488988  1
  S  S20  1  0.66717989  0.36475890  0.41733990  1
  O  O0  1  0.12194628  0.03207984  0.30323771  1
  O  O1  1  0.60759256  0.01661010  0.30369632  1
  O  O2  1  0.40949231  0.78012164  0.30349235  1
  O  O3  1  0.90667961  0.77012432  0.30151058  1
  O  O4  1  0.48486875  0.17159309  0.29871400  1
  O  O5  1  0.98802710  0.18297070  0.29719053  1
  O  O6  1  0.11856777  0.20553226  0.79995609  1
  O  O7  1  0.62013912  0.21404874  0.80332539  1
  O  O8  1  0.49354052  0.76690267  0.79996044  1
  O  O9  1  0.98658755  0.78615192  0.79665853  1
  O  O10  1  0.41074273  0.03916446  0.79301009  1
  O  O11  1  0.90075722  0.02870790  0.80300414  1
  O  O12  1  0.39144983  -0.00286809  0.68342614  1
  O  O13  1  0.90157317  0.98016284  0.69526724  1
  O  O14  1  0.09654743  0.20064520  0.70077345  1
  O  O15  1  0.60118820  0.21885695  0.70467970  1
  O  O16  1  0.01254703  0.80506093  0.68773265  1
  O  O17  1  0.50309717  0.78178762  0.69958976  1
  O  O18  1  0.39520298  0.82162942  0.19679276  1
  O  O19  1  0.88644390  0.80884134  0.19613979  1
  O  O20  1  0.01621910  0.24079963  0.18937601  1
  O  O21  1  0.51605970  0.22550002  0.19124903  1
  O  O22  1  0.10246952  0.96394830  0.20567567  1
  O  O23  1  0.59509830  0.97139747  0.20450482  1
  O  O24  1  0.44478491  0.35700317  0.63505433  1
  O  O25  1  0.93751514  0.34401649  0.63549730  1
  O  O26  1  0.23684282  0.12828052  0.63481223  1
  O  O27  1  0.73275702  0.13084779  0.63114289  1
  O  O28  1  0.33475240  0.54433468  0.63365059  1
  O  O29  1  0.82542135  0.54225891  0.63717096  1
  O  O30  1  0.44621455  0.53451142  0.13568308  1
  O  O31  1  0.94916885  0.55284348  0.13696701  1
  O  O32  1  0.33306639  0.12259453  0.14022388  1
  O  O33  1  0.82278137  0.08648292  0.13885433  1
  O  O34  1  0.22881936  0.32781897  0.13886028  1
  O  O35  1  0.71981388  0.33789334  0.13926194  1
  O  O36  1  0.22679923  0.33435839  0.02515128  1
  O  O37  1  0.72230012  0.32295379  0.02557083  1
  O  O38  1  0.43879000  0.56374156  0.03668124  1
  O  O39  1  0.93911034  0.54776070  0.03716318  1
  O  O40  1  0.34587616  0.13305584  0.04011151  1
  O  O41  1  0.83819346  0.13097936  0.03957923  1
  O  O42  1  0.23147179  0.13525454  0.52305271  1
  O  O43  1  0.72865457  0.13046785  0.51927601  1
  O  O44  1  0.33514740  0.54156189  0.53353501  1
  O  O45  1  0.84341745  0.53810371  0.53746457  1
  O  O46  1  0.42829765  0.32953419  0.53580887  1
  O  O47  1  0.92982408  0.31928442  0.53522953  1
  O  O48  1  0.28011073  0.67782648  0.96557681  1
  O  O49  1  0.76362760  0.67109513  0.96437826  1
  O  O50  1  0.06976794  0.46005818  0.97005621  1
  O  O51  1  0.57239605  0.47129994  0.96729524  1
  O  O52  1  0.17014562  0.88729689  0.96428567  1
  O  O53  1  0.66549062  0.87656333  0.96861638  1
  O  O54  1  0.27974550  0.87841342  0.46712123  1
  O  O55  1  0.76335505  0.85890817  0.46477239  1
  O  O56  1  0.16801477  0.44907377  0.46416467  1
  O  O57  1  0.66159884  0.45488306  0.46519901  1
  O  O58  1  0.06786976  0.68015252  0.47202530  1
  O  O59  1  0.57905635  0.69272419  0.46348028  1
  O  O60  1  0.06188673  0.65982029  0.36107386  1
  O  O61  1  0.55256505  0.65279352  0.35464584  1
  O  O62  1  0.26609654  0.88367731  0.36714679  1
  O  O63  1  0.76675481  0.88303924  0.36452242  1
  O  O64  1  0.17700429  0.45471780  0.36399022  1
  O  O65  1  0.67525259  0.45599845  0.36504980  1
  O  O66  1  0.05963238  0.45067741  0.85841381  1
  O  O67  1  0.55989823  0.45537928  0.85544096  1
  O  O68  1  0.17144945  0.90184997  0.86368484  1
  O  O69  1  0.66931837  0.89688210  0.86844322  1
  O  O70  1  0.27370532  0.66177941  0.86554047  1
  O  O71  1  0.77506563  0.66567660  0.86454867  1
  O  O72  1  0.01499006  0.84293961  0.41869274  1
  O  O73  1  0.51630781  0.84856091  0.41472396  1
  O  O74  1  0.39978042  0.00209328  0.41026256  1
  O  O75  1  0.89246923  0.99359077  0.41848870  1
  O  O76  1  0.10002493  0.19650266  0.41414668  1
  O  O77  1  0.59467105  0.19858273  0.41426431  1
  O  O78  1  0.01547836  0.18276527  0.91960933  1
  O  O79  1  0.51788999  0.19079880  0.91771054  1
  O  O80  1  0.09376015  0.99456976  0.91823782  1
  O  O81  1  0.58825307  0.98224993  0.92161696  1
  O  O82  1  0.40387113  0.79701165  0.91347069  1
  O  O83  1  0.89641944  0.80019374  0.92187589  1
  O  O84  1  0.47956557  0.17933825  0.58317288  1
  O  O85  1  0.98937884  0.18730585  0.58685353  1
  O  O86  1  0.08921634  0.00339963  0.58099193  1
  O  O87  1  0.59105546  0.01149901  0.57798063  1
  O  O88  1  0.40505922  0.79818661  0.58126813  1
  O  O89  1  0.90963872  0.79129997  0.58519437  1
  O  O90  1  0.49884739  0.80416214  0.09325441  1
  O  O91  1  0.99830915  0.80494683  0.08411074  1
  O  O92  1  0.41105060  0.02043123  0.09200896  1
  O  O93  1  0.90604492  0.00964775  0.08371937  1
  O  O94  1  0.08581249  0.17167013  0.08117108  1
  O  O95  1  0.58055243  0.16618515  0.08194435  1
  O  O96  1  0.34361934  0.18097065  0.74264869  1
  O  O97  1  0.84099438  0.16187610  0.74142978  1
  O  O98  1  0.23251647  0.31388767  0.73829127  1
  O  O99  1  0.73832282  0.34010737  0.74394843  1
  O  O100  1  0.42032972  0.52006024  0.74599040  1
  O  O101  1  0.91364176  0.51195857  0.73966836  1
  O  O102  1  0.33605767  0.51628832  0.24337126  1
  O  O103  1  0.82449384  0.50460929  0.24548716  1
  O  O104  1  0.41760249  0.31880183  0.24420958  1
  O  O105  1  0.91789808  0.32838040  0.24662958  1
  O  O106  1  0.23847180  0.14571795  0.24268892  1
  O  O107  1  0.72828269  0.13547406  0.24756857  1
  O  O108  1  0.31780381  0.50336275  0.91578676  1
  O  O109  1  0.81181720  0.50593715  0.91989681  1
  O  O110  1  0.42414742  0.33593336  0.91838589  1
  O  O111  1  0.92190452  0.33113911  0.91764763  1
  O  O112  1  0.23921501  0.14911637  0.91612611  1
  O  O113  1  0.73357177  0.14065401  0.92129395  1
  O  O114  1  0.31786137  0.13182212  0.41881323  1
  O  O115  1  0.80995022  0.12194942  0.41988281  1
  O  O116  1  0.24555683  0.34348177  0.41658963  1
  O  O117  1  0.74028599  0.34470205  0.42123777  1
  O  O118  1  0.42492005  0.51340293  0.42227028  1
  O  O119  1  0.92224601  0.50506900  0.42015604  1
  O  O120  1  0.16746554  0.49182674  0.08714800  1
  O  O121  1  0.66057335  0.48933022  0.08035138  1
  O  O122  1  0.06926944  0.65225482  0.08240552  1
  O  O123  1  0.56797563  0.64996943  0.08125490  1
  O  O124  1  0.26324863  0.87302593  0.08752476  1
  O  O125  1  0.75816227  0.85684478  0.07689556  1
  O  O126  1  0.17862155  0.85429582  0.58228269  1
  O  O127  1  0.67433423  0.85024178  0.57781691  1
  O  O128  1  0.25938248  0.64656869  0.58402041  1
  O  O129  1  0.76171937  0.64860841  0.57598361  1
  O  O130  1  0.05873854  0.48188733  0.58216810  1
  O  O131  1  0.56381467  0.47211943  0.57640343  1
  O  O132  1  0.17023939  0.85957150  0.26097248  1
  O  O133  1  0.65378765  0.84484681  0.25850537  1
  O  O134  1  0.26006476  0.68594993  0.25754246  1
  O  O135  1  0.75524434  0.68914648  0.25873441  1
  O  O136  1  0.08158694  0.49307309  0.25582646  1
  O  O137  1  0.58037190  0.48015756  0.25643581  1
  O  O138  1  0.15647797  0.45584523  0.74836094  1
  O  O139  1  0.65821780  0.46859581  0.75447330  1
  O  O140  1  0.07663797  0.66613629  0.74782454  1
  O  O141  1  0.56568416  0.65396752  0.74894253  1
  O  O142  1  0.25583719  0.85776482  0.74802177  1
  O  O143  1  0.76185870  0.82515490  0.74824136  1
loop_
_geom_bond_atom_site_label_1
_geom_bond_atom_site_label_2
_geom_bond_distance
_geom_bond_site_symmetry_2
Na0 O104 2.611630 1_555
Na0 O134 2.613800 1_545
Na0 O4 2.734443 1_555
Na0 O18 2.761057 1_545
Na0 O132 2.775462 1_545
Na0 O106 2.828630 1_555
Na0 O32 2.883482 1_555
Na1 O135 2.549302 1_555
Na1 O105 2.727048 1_565
Na1 O19 2.813405 1_555
Na1 O5 2.826793 1_565
Na1 O107 2.865971 1_565
Na1 O33 2.875543 1_565
Na1 O133 2.950252 1_555
Na1 O63 2.981331 1_555
Na2 O134 2.512108 1_555
Na2 O102 2.517629 1_555
Na2 O136 2.641679 1_555
Na2 O34 2.701884 1_555
Na3 O103 2.451233 1_555
Na3 O137 2.495174 1_555
Na3 O135 2.607684 1_555
Na3 O35 2.680252 1_555
Na3 O21 2.915849 1_555
Na3 O107 2.927162 1_555
Na4 O105 2.467601 1_555
Na4 O136 2.576441 1_655
Na4 O60 2.657346 1_655
Na4 O3 2.763345 1_555
Na4 O103 2.829032 1_555
Na4 O132 2.994924 1_655
Na5 O61 2.439264 1_555
Na5 O104 2.538219 1_555
Na5 O137 2.605520 1_555
Na5 O102 2.690504 1_555
Na5 O133 2.709000 1_555
Na5 O2 2.861303 1_555
Na6 O101 2.541449 1_555
Na6 O143 2.547397 1_555
Na6 O99 2.709096 1_555
Na6 O29 2.792960 1_555
Na6 O9 2.808775 1_555
Na6 O13 2.843430 1_555
Na6 O139 2.959945 1_555
Na7 O97 2.502003 1_555
Na7 O101 2.518337 1_555
Na7 O140 2.543774 1_655
Na7 O66 2.738341 1_655
Na7 O138 2.866942 1_655
Na7 O11 2.943589 1_555
Na8 O96 2.496139 1_555
Na8 O141 2.572416 1_555
Na8 O67 2.591283 1_555
Na8 O10 2.628027 1_555
Na8 O100 2.670249 1_555
Na8 O139 2.765072 1_555
Na9 O142 2.399111 1_555
Na9 O140 2.682264 1_555
Na9 O98 2.734426 1_565
Na9 O96 2.772800 1_565
Na9 O26 2.782877 1_565
Na9 O16 2.970576 1_555
Na10 O86 2.380001 1_565
Na10 O89 2.583474 1_455
Na10 O126 2.584640 1_555
Na10 O16 2.589276 1_555
Na10 O130 2.644732 1_555
Na11 O12 2.378529 1_565
Na11 O126 2.484134 1_555
Na11 O84 2.588336 1_565
Na11 O128 2.741216 1_555
Na11 O88 2.778403 1_555
Na11 O26 2.887632 1_565
Na12 O94 2.357407 1_555
Na12 O120 2.391936 1_555
Na12 O20 2.634789 1_555
Na12 O122 2.730698 1_555
Na12 O93 2.733062 1_455
Na12 O50 3.003183 1_554
Na13 O121 2.363685 1_555
Na13 O95 2.373052 1_555
Na13 O92 2.595352 1_555
Na13 O21 2.661184 1_555
Na13 O123 2.726398 1_555
Na14 O78 2.380020 1_555
Na14 O80 2.560774 1_545
Na14 O36 2.579530 1_556
Na14 O112 2.617332 1_555
Na14 O108 2.682957 1_555
Na14 O50 2.919114 1_555
Na15 O79 2.404198 1_555
Na15 O37 2.489391 1_556
Na15 O109 2.550808 1_555
Na15 O113 2.581669 1_555
Na15 O81 2.690100 1_545
Na15 O51 2.932116 1_555
Na16 O72 2.405171 1_545
Na16 O76 2.538564 1_555
Na16 O42 2.599859 1_555
Na16 O114 2.655849 1_555
Na16 O116 2.743943 1_555
Na16 O58 2.923602 1_545
Na17 O73 2.408625 1_545
Na17 O43 2.453184 1_555
Na17 O115 2.525114 1_555
Na17 O77 2.647333 1_555
Na17 O117 2.742937 1_555
Na17 O59 2.747053 1_545
Na18 O86 2.489413 1_565
Na18 O72 2.529967 1_555
Na18 O89 2.714529 1_455
Na18 O76 2.849968 1_565
Na18 O85 2.877631 1_465
Na18 O75 2.942438 1_455
Na19 O87 2.338703 1_565
Na19 O73 2.369673 1_555
Na19 O77 2.743731 1_565
Na19 O88 2.795245 1_555
Na20 O78 2.455707 1_554
Na20 O94 2.458527 1_555
Na20 O80 2.648342 1_544
Na20 O93 2.757902 1_455
Na20 O91 2.818091 1_445
Na20 O83 2.838531 1_444
Na21 O95 2.341139 1_555
Na21 O81 2.597590 1_544
Na21 O79 2.626779 1_554
Na21 O92 2.846601 1_555
Na21 O90 2.891282 1_545
Na21 O82 3.021761 1_544
Na22 O110 2.364160 1_555
Na22 O96 2.662278 1_555
Na22 O112 2.704445 1_555
Na22 O100 2.764835 1_555
Na22 O108 2.800687 1_555
Na23 O111 2.451715 1_555
Na23 O97 2.570391 1_555
Na23 O101 2.685675 1_555
Na24 O118 2.413417 1_555
Na24 O104 2.656901 1_555
Na24 O102 2.740190 1_555
Na24 O116 2.827508 1_555
Na24 O114 2.912802 1_555
Na25 O119 2.348519 1_555
Na25 O105 2.624014 1_555
Na25 O103 2.735185 1_555
Na25 O117 2.906995 1_555
Na25 O115 2.943881 1_555
Na26 O120 2.399074 1_555
Na26 O134 2.579472 1_555
Na26 O136 2.712418 1_555
Na26 O124 2.735015 1_555
Na27 O121 2.475384 1_555
Na27 O135 2.589554 1_555
Na27 O137 2.765841 1_555
Na27 O125 2.836166 1_555
Na27 O123 2.984188 1_555
Na28 O142 2.413496 1_555
Na28 O140 2.495981 1_555
Na28 O126 2.677669 1_555
Na28 O138 2.762958 1_555
Na28 O128 2.854018 1_555
Na29 O127 2.318017 1_555
Na29 O143 2.437367 1_555
Na29 O129 2.858281 1_555
Na29 O141 2.967527 1_555
La0 O3 2.220873 1_555
La0 O5 2.278731 1_565
La0 O72 2.351584 1_655
La0 O75 2.477847 1_555
La0 O76 2.572677 1_665
La0 O0 2.604296 1_665
La1 O11 2.191269 1_565
La1 O9 2.279785 1_555
La1 O78 2.394472 1_665
La1 O83 2.517529 1_555
La1 O6 2.557532 1_665
La1 O80 2.613044 1_655
La2 O10 2.199337 1_555
La2 O79 2.292522 1_555
La2 O82 2.425290 1_545
La2 O7 2.484614 1_555
La2 O8 2.579371 1_545
La2 O81 2.641779 1_545
La3 O87 2.231515 1_555
La3 O12 2.384669 1_555
La3 O15 2.413326 1_555
La3 O17 2.415757 1_545
La3 O88 2.505268 1_545
La3 O84 2.538848 1_555
La4 O19 2.278154 1_445
La4 O20 2.293763 1_555
La4 O94 2.374998 1_555
La4 O22 2.475540 1_545
La4 O91 2.520411 1_445
La4 O93 2.528345 1_455
La5 O35 2.239871 1_555
La5 O103 2.279278 1_555
La5 O31 2.431359 1_555
La5 O105 2.445368 1_555
La5 O107 2.506646 1_555
La5 O33 2.546129 1_555
La6 O36 2.290544 1_556
La6 O110 2.320153 1_555
La6 O40 2.404301 1_556
La6 O38 2.412471 1_556
La6 O108 2.485846 1_555
La6 O112 2.488414 1_555
La7 O111 2.303053 1_555
La7 O37 2.324052 1_556
La7 O41 2.378261 1_556
La7 O39 2.384497 1_556
La7 O113 2.437485 1_555
La7 O109 2.457678 1_555
La8 O50 2.218176 1_554
La8 O120 2.299864 1_555
La8 O48 2.372910 1_554
La8 O122 2.438520 1_555
La8 O52 2.528760 1_554
La8 O124 2.575403 1_555
La9 O58 2.174794 1_555
La9 O126 2.334392 1_555
La9 O56 2.433707 1_555
La9 O54 2.442448 1_555
La9 O130 2.448112 1_555
La9 O128 2.544259 1_555
La10 O66 2.260855 1_555
La10 O140 2.322988 1_555
La10 O142 2.415386 1_555
La10 O68 2.449424 1_555
La10 O70 2.465147 1_555
La10 O138 2.543806 1_555
La11 O67 2.292879 1_555
La11 O143 2.330645 1_555
La11 O69 2.350576 1_555
La11 O71 2.430170 1_555
La11 O141 2.471098 1_555
La11 O139 2.497948 1_555
O0 S0 1.478153 1_555
O1 S1 1.479993 1_545
O1 Y0 2.365573 1_545
O2 Si0 1.637099 1_555
O2 Y0 2.123489 1_555
O3 Si1 1.642511 1_555
O4 Si3 1.636517 1_555
O4 Y0 2.192869 1_545
O5 Si2 1.639952 1_655
O6 S2 1.484141 1_555
O7 S3 1.483219 1_555
O8 S4 1.474487 1_555
O9 Si4 1.640927 1_555
O10 Si5 1.658886 1_555
O11 Si6 1.641211 1_545
O12 Si5 1.644051 1_555
O13 Si6 1.636178 1_555
O13 Y1 2.129803 1_655
O14 S2 1.484516 1_555
O14 Y1 2.299906 1_545
O15 S3 1.483561 1_555
O16 Si4 1.655697 1_455
O16 Y1 2.171231 1_555
O17 S4 1.479711 1_555
O18 Si0 1.635655 1_555
O18 Y2 2.173128 1_565
O19 Si1 1.640183 1_555
O20 Si2 1.652080 1_555
O21 Si3 1.652695 1_555
O21 Y2 2.158988 1_555
O22 S0 1.482428 1_565
O23 S1 1.485140 1_555
O23 Y2 2.319700 1_565
O24 S5 1.494050 1_555
O24 Y3 2.303324 1_555
O25 S6 1.485715 1_555
O25 Y4 2.307368 1_555
O26 Si7 1.662894 1_555
O26 Y3 2.123571 1_555
O27 Si8 1.633472 1_555
O27 Y4 2.102814 1_555
O28 S7 1.480287 1_555
O28 Y3 2.301952 1_555
O29 S8 1.489049 1_555
O29 Y4 2.455093 1_555
O30 S9 1.499749 1_555
O30 Y5 2.308721 1_555
O31 S10 1.490869 1_555
O32 S11 1.491143 1_555
O32 Y5 2.362645 1_555
O33 S12 1.493133 1_555
O34 Si9 1.653678 1_555
O34 Y5 2.182881 1_555
O35 Si10 1.652345 1_555
O36 Si9 1.655884 1_555
O37 Si10 1.649178 1_555
O38 S9 1.481581 1_555
O39 S10 1.482119 1_555
O40 S11 1.490746 1_555
O41 S12 1.487404 1_555
O42 Si7 1.646141 1_555
O42 Y6 2.230830 1_555
O43 Si8 1.643468 1_555
O43 Y7 2.159177 1_555
O44 S7 1.478409 1_555
O44 Y6 2.279694 1_555
O45 S8 1.491799 1_555
O45 Y7 2.271270 1_555
O46 S5 1.482939 1_555
O46 Y6 2.254981 1_555
O47 S6 1.483286 1_555
O47 Y7 2.307040 1_555
O48 S13 1.481057 1_555
O49 S14 1.480552 1_555
O49 Y8 2.254704 1_556
O50 Si11 1.671583 1_555
O51 Si12 1.650158 1_555
O51 Y8 2.116023 1_556
O52 S15 1.477014 1_555
O53 S16 1.476231 1_555
O53 Y8 2.395822 1_556
O54 S17 1.489203 1_555
O55 S18 1.476995 1_555
O55 Y9 2.280965 1_555
O56 S19 1.476063 1_555
O57 S20 1.475959 1_555
O57 Y9 2.455566 1_555
O58 Si13 1.664948 1_555
O59 Si14 1.650478 1_555
O59 Y9 2.087371 1_555
O60 Si13 1.659623 1_555
O60 Y10 2.172731 1_555
O61 Si14 1.654336 1_555
O61 Y11 2.157747 1_555
O62 S17 1.493294 1_555
O62 Y10 2.388180 1_555
O63 S18 1.497929 1_555
O63 Y11 2.417478 1_555
O64 S19 1.491061 1_555
O64 Y10 2.325550 1_555
O65 S20 1.498466 1_555
O65 Y11 2.292990 1_555
O66 Si11 1.659332 1_555
O67 Si12 1.658396 1_555
O68 S15 1.485743 1_555
O69 S16 1.484369 1_555
O70 S13 1.479740 1_555
O71 S14 1.490325 1_555
O72 Si13 1.658266 1_555
O73 Si14 1.657968 1_555
O73 Y0 2.262979 1_555
O74 S17 1.468628 1_545
O74 Y0 2.320686 1_545
O75 S18 1.477451 1_555
O76 S19 1.484307 1_555
O77 S20 1.492819 1_555
O77 Y0 2.540633 1_545
O78 Si11 1.652116 1_555
O79 Si12 1.671010 1_555
O80 S15 1.487273 1_555
O81 S16 1.488311 1_555
O82 S13 1.477048 1_555
O83 S14 1.472692 1_555
O84 S5 1.487830 1_555
O85 S6 1.476523 1_555
O85 Y1 2.435479 1_645
O86 Si7 1.649788 1_555
O86 Y1 2.312614 1_545
O87 Si8 1.663956 1_555
O88 S7 1.492485 1_555
O89 S8 1.507535 1_555
O89 Y1 2.389485 1_655
O90 S9 1.467519 1_555
O90 Y2 2.401208 1_565
O91 S10 1.468153 1_555
O92 S11 1.485633 1_555
O92 Y2 2.351063 1_555
O93 S12 1.487558 1_555
O94 Si9 1.655590 1_555
O95 Si10 1.651973 1_555
O95 Y2 2.290605 1_555
O96 Si5 1.670908 1_555
O96 Y3 2.182396 1_555
O97 Si6 1.641616 1_545
O97 Y4 2.153694 1_555
O98 S2 1.489063 1_555
O98 Y3 2.297802 1_555
O99 S3 1.482505 1_555
O99 Y4 2.330875 1_555
O100 S4 1.495751 1_555
O100 Y3 2.423907 1_555
O101 Si4 1.645874 1_555
O101 Y4 2.323060 1_555
O102 Si0 1.661135 1_555
O102 Y5 2.163273 1_555
O103 Si1 1.653419 1_555
O104 Si3 1.657698 1_555
O104 Y5 2.307629 1_555
O105 Si2 1.654685 1_655
O106 S0 1.492004 1_555
O106 Y5 2.331391 1_555
O107 S1 1.490181 1_545
O108 S13 1.491441 1_555
O109 S14 1.490079 1_555
O110 Si12 1.640491 1_555
O111 Si11 1.646318 1_655
O112 S15 1.500798 1_545
O113 S16 1.492811 1_545
O114 S17 1.498405 1_545
O114 Y6 2.401658 1_555
O115 S18 1.498810 1_545
O115 Y7 2.394211 1_555
O116 S19 1.494437 1_555
O116 Y6 2.342093 1_555
O117 S20 1.499980 1_555
O117 Y7 2.358566 1_555
O118 Si14 1.643234 1_555
O118 Y6 2.170234 1_555
O119 Si13 1.639629 1_655
O119 Y7 2.230502 1_555
O120 Si9 1.674123 1_555
O121 Si10 1.671059 1_555
O121 Y8 2.177611 1_555
O122 S10 1.489163 1_455
O123 S9 1.493163 1_555
O123 Y8 2.337827 1_555
O124 S11 1.475799 1_565
O125 S12 1.475932 1_565
O125 Y8 2.374066 1_555
O126 Si7 1.687207 1_565
O127 Si8 1.654669 1_565
O127 Y9 2.137253 1_555
O128 S7 1.492851 1_555
O129 S8 1.476502 1_555
O129 Y9 2.531106 1_555
O130 S6 1.501918 1_455
O131 S5 1.475181 1_555
O131 Y9 2.328633 1_555
O132 S0 1.492691 1_565
O132 Y10 2.352922 1_555
O133 S1 1.490478 1_555
O133 Y11 2.431391 1_555
O134 Si0 1.658383 1_555
O134 Y10 2.284833 1_555
O135 Si1 1.654008 1_555
O135 Y11 2.274756 1_555
O136 Si2 1.662716 1_555
O136 Y10 2.184814 1_555
O137 Si3 1.658946 1_555
O137 Y11 2.194234 1_555
O138 S2 1.484792 1_555
O139 S3 1.487867 1_555
O140 Si4 1.662579 1_455
O141 S4 1.502916 1_555
O142 Si5 1.644746 1_565
O143 Si6 1.659141 1_555
