# generated using pymatgen
data_MgSb2(RhO4)2
_symmetry_space_group_name_H-M   'P 1'
_cell_length_a   5.86059211
_cell_length_b   5.91417779
_cell_length_c   6.01967680
_cell_angle_alpha   73.43371727
_cell_angle_beta   107.14355436
_cell_angle_gamma   65.07096927
_symmetry_Int_Tables_number   1
_chemical_formula_structural   MgSb2(RhO4)2
_chemical_formula_sum   'Mg1 Sb2 Rh2 O8'
_cell_volume   159.35231583
_cell_formula_units_Z   1
loop_
 _symmetry_equiv_pos_site_id
 _symmetry_equiv_pos_as_xyz
  1  'x, y, z'
loop_
 _atom_site_type_symbol
 _atom_site_label
 _atom_site_symmetry_multiplicity
 _atom_site_fract_x
 _atom_site_fract_y
 _atom_site_fract_z
 _atom_site_occupancy
  Mg  Mg0  1  0.23795200  0.25768800  0.00015100  1
  Sb  Sb0  1  0.23595600  0.25717500  0.49725200  1
  Sb  Sb1  1  0.95238400  0.96543000  0.99047100  1
  Rh  Rh0  1  0.74202500  0.75742100  0.49298500  1
  Rh  Rh1  1  0.50701800  0.54226000  0.99616200  1
  O  O0  1  0.49780200  0.25583100  0.82467600  1
  O  O1  1  0.06960800  0.68815700  0.83669700  1
  O  O2  1  0.49475300  0.82672900  0.68940600  1
  O  O3  1  0.96601800  0.32503000  0.65525700  1
  O  O4  1  0.50884300  0.20940700  0.33338400  1
  O  O5  1  0.00837600  0.69090600  0.33087000  1
  O  O6  1  0.43572200  0.80945100  0.16996500  1
  O  O7  1  0.96259200  0.29546400  0.17081900  1
loop_
_geom_bond_atom_site_label_1
_geom_bond_atom_site_label_2
_geom_bond_distance
_geom_bond_site_symmetry_2
Mg0 O4 2.009873 1_555
Mg0 O3 2.012877 1_454
Mg0 O1 2.074809 1_554
Mg0 O0 2.091864 1_554
Mg0 O7 2.124623 1_455
Mg0 O6 2.140548 1_545
O0 Sb0 2.106521 1_555
O0 Sb1 2.154348 1_545
O0 Rh1 2.231501 1_555
O1 Sb1 2.075751 1_455
O1 Rh1 2.109447 1_555
O1 Rh0 2.155559 1_455
O2 Sb0 2.037344 1_565
O2 Rh1 2.072123 1_555
O2 Rh0 2.109956 1_555
O3 Sb0 2.034201 1_655
O3 Rh0 2.050998 1_555
O3 Sb1 2.528304 1_545
O4 Sb0 2.078132 1_555
O4 Rh0 2.148992 1_545
O4 Rh1 2.384693 1_554
O5 Rh0 2.035449 1_455
O5 Sb1 2.049344 1_454
O5 Sb0 2.055572 1_555
O6 Rh0 2.057537 1_555
O6 Rh1 2.100042 1_554
O6 Sb1 2.338115 1_454
O7 Sb0 2.015872 1_655
O7 Rh1 2.132891 1_554
O7 Sb1 2.502108 1_544
