# generated using pymatgen
data_Ta2VO6
_symmetry_space_group_name_H-M   'P 1'
_cell_length_a   4.77993237
_cell_length_b   10.29405168
_cell_length_c   9.56003004
_cell_angle_alpha   62.31616649
_cell_angle_beta   90.00000000
_cell_angle_gamma   90.00000000
_symmetry_Int_Tables_number   1
_chemical_formula_structural   Ta2VO6
_chemical_formula_sum   'Ta8 V4 O24'
_cell_volume   416.55088056
_cell_formula_units_Z   4
loop_
 _symmetry_equiv_pos_site_id
 _symmetry_equiv_pos_as_xyz
  1  'x, y, z'
loop_
 _atom_site_type_symbol
 _atom_site_label
 _atom_site_symmetry_multiplicity
 _atom_site_fract_x
 _atom_site_fract_y
 _atom_site_fract_z
 _atom_site_occupancy
  Ta  Ta0  1  0.50004559  0.83032466  0.83482358  1
  Ta  Ta1  1  0.50004559  0.83032466  0.33482358  1
  Ta  Ta2  1  0.99995441  0.33032466  0.33482358  1
  Ta  Ta3  1  0.99995441  0.33032466  0.83482358  1
  Ta  Ta4  1  0.49995441  0.16967534  0.16517642  1
  Ta  Ta5  1  0.49995441  0.16967534  0.66517642  1
  Ta  Ta6  1  0.00004559  0.66967534  0.16517642  1
  Ta  Ta7  1  0.00004559  0.66967534  0.66517642  1
  V  V0  1  -0.00000000  0.00000000  0.50000000  1
  V  V1  1  0.50000000  0.50000000  0.00000000  1
  V  V2  1  -0.00000000  0.00000000  0.00000000  1
  V  V3  1  0.50000000  0.50000000  0.50000000  1
  O  O0  1  0.31136571  0.99992201  0.34438728  1
  O  O1  1  0.31136571  0.99992201  0.84438728  1
  O  O2  1  0.18863429  0.49992201  0.84438728  1
  O  O3  1  0.18863429  0.49992201  0.34438728  1
  O  O4  1  0.81136571  0.50007799  0.15561272  1
  O  O5  1  0.81136571  0.50007799  0.65561272  1
  O  O6  1  0.68863429  0.00007799  0.15561272  1
  O  O7  1  0.68863429  0.00007799  0.65561272  1
  O  O8  1  0.70434289  0.67475080  0.81058671  1
  O  O9  1  0.70434289  0.67475080  0.31058671  1
  O  O10  1  0.29593795  0.67474779  0.01472702  1
  O  O11  1  0.29593795  0.67474779  0.51472702  1
  O  O12  1  0.70406205  0.32525221  0.98527298  1
  O  O13  1  0.70406205  0.32525221  0.48527298  1
  O  O14  1  0.20406205  0.17474779  0.01472702  1
  O  O15  1  0.20406205  0.17474779  0.51472702  1
  O  O16  1  0.79565711  0.17475080  0.31058671  1
  O  O17  1  0.79565711  0.17475080  0.81058671  1
  O  O18  1  0.79593795  0.82525221  0.98527298  1
  O  O19  1  0.79593795  0.82525221  0.48527298  1
  O  O20  1  0.29565711  0.32524920  0.18941329  1
  O  O21  1  0.29565711  0.32524920  0.68941329  1
  O  O22  1  0.20434289  0.82524920  0.68941329  1
  O  O23  1  0.20434289  0.82524920  0.18941329  1
loop_
_geom_bond_atom_site_label_1
_geom_bond_atom_site_label_2
_geom_bond_distance
_geom_bond_site_symmetry_2
O0 Ta1 2.004502 1_555
O0 Ta4 2.004897 1_565
O0 V0 2.104592 1_565
O1 Ta0 2.004502 1_555
O1 Ta5 2.004897 1_565
O1 V2 2.104592 1_566
O2 Ta3 2.004502 1_455
O2 Ta7 2.004897 1_555
O2 V1 2.104592 1_556
O3 Ta2 2.004502 1_455
O3 Ta6 2.004897 1_555
O3 V3 2.104592 1_555
O4 Ta6 2.004502 1_655
O4 Ta2 2.004897 1_555
O4 V1 2.104592 1_555
O5 Ta7 2.004502 1_655
O5 Ta3 2.004897 1_555
O5 V3 2.104592 1_555
O6 Ta4 2.004502 1_555
O6 Ta1 2.004897 1_545
O6 V2 2.104592 1_655
O7 Ta5 2.004502 1_555
O7 Ta0 2.004897 1_545
O7 V0 2.104592 1_655
O8 Ta0 1.979102 1_555
O8 Ta7 2.000120 1_655
O8 V1 2.107672 1_556
O9 Ta1 1.979102 1_555
O9 Ta6 2.000120 1_655
O9 V3 2.107672 1_555
O10 Ta0 1.978717 1_554
O10 Ta6 2.000506 1_555
O10 V1 2.107716 1_555
O11 Ta1 1.978717 1_555
O11 Ta7 2.000506 1_555
O11 V3 2.107716 1_555
O12 Ta4 1.978717 1_556
O12 Ta3 2.000506 1_555
O12 V1 2.107716 1_556
O13 Ta5 1.978717 1_555
O13 Ta2 2.000506 1_555
O13 V3 2.107716 1_555
O14 Ta3 1.978717 1_454
O14 Ta4 2.000506 1_555
O14 V2 2.107716 1_555
O15 Ta2 1.978717 1_455
O15 Ta5 2.000506 1_555
O15 V0 2.107716 1_555
O16 Ta2 1.979102 1_555
O16 Ta4 2.000120 1_555
O16 V0 2.107672 1_655
O17 Ta3 1.979102 1_555
O17 Ta5 2.000120 1_555
O17 V2 2.107672 1_656
O18 Ta6 1.978717 1_656
O18 Ta0 2.000506 1_555
O18 V2 2.107716 1_666
O19 Ta7 1.978717 1_655
O19 Ta1 2.000506 1_555
O19 V0 2.107716 1_665
O20 Ta4 1.979102 1_555
O20 Ta2 2.000120 1_455
O20 V1 2.107672 1_555
O21 Ta5 1.979102 1_555
O21 Ta3 2.000120 1_455
O21 V3 2.107672 1_555
O22 Ta7 1.979102 1_555
O22 Ta0 2.000120 1_555
O22 V0 2.107672 1_565
O23 Ta6 1.979102 1_555
O23 Ta1 2.000120 1_555
O23 V2 2.107672 1_565
