# generated using pymatgen
data_Li3Ti2(PO4)3
_symmetry_space_group_name_H-M   'P 1'
_cell_length_a   8.79149100
_cell_length_b   8.82884800
_cell_length_c   14.96876231
_cell_angle_alpha   54.74356514
_cell_angle_beta   90.00000000
_cell_angle_gamma   90.00000000
_symmetry_Int_Tables_number   1
_chemical_formula_structural   Li3Ti2(PO4)3
_chemical_formula_sum   'Li12 Ti8 P12 O48'
_cell_volume   948.74493078
_cell_formula_units_Z   4
loop_
 _symmetry_equiv_pos_site_id
 _symmetry_equiv_pos_as_xyz
  1  'x, y, z'
loop_
 _atom_site_type_symbol
 _atom_site_label
 _atom_site_symmetry_multiplicity
 _atom_site_fract_x
 _atom_site_fract_y
 _atom_site_fract_z
 _atom_site_occupancy
  Li  Li0  1  0.42042700  0.38065600  0.19659200  1
  Li  Li1  1  0.22416500  0.97183100  0.82194600  1
  Li  Li2  1  0.72416500  0.02816900  0.67805400  1
  Li  Li3  1  0.79875100  0.32714700  0.25846100  1
  Li  Li4  1  0.77583500  0.02816900  0.17805400  1
  Li  Li5  1  0.07957300  0.38065600  0.69659200  1
  Li  Li6  1  0.92042700  0.61934400  0.30340800  1
  Li  Li7  1  0.29875100  0.67285300  0.24153900  1
  Li  Li8  1  0.57957300  0.61934400  0.80340800  1
  Li  Li9  1  0.20124900  0.67285300  0.74153900  1
  Li  Li10  1  0.70124900  0.32714700  0.75846100  1
  Li  Li11  1  0.27583500  0.97183100  0.32194600  1
  Ti  Ti0  1  0.03985900  0.13734000  0.60797200  1
  Ti  Ti1  1  0.96014100  0.86266000  0.39202800  1
  Ti  Ti2  1  0.02617000  0.36312000  0.89220300  1
  Ti  Ti3  1  0.97383000  0.63688000  0.10779700  1
  Ti  Ti4  1  0.46014100  0.13734000  0.10797200  1
  Ti  Ti5  1  0.52617000  0.63688000  0.60779700  1
  Ti  Ti6  1  0.53985900  0.86266000  0.89202800  1
  Ti  Ti7  1  0.47383000  0.36312000  0.39220300  1
  P  P0  1  0.88325600  0.74650600  0.64985200  1
  P  P1  1  0.75342300  0.45594900  0.50793100  1
  P  P2  1  0.25342300  0.54405100  0.99206900  1
  P  P3  1  0.24657700  0.54405100  0.49206900  1
  P  P4  1  0.39668300  0.95485800  0.64968500  1
  P  P5  1  0.61674400  0.74650600  0.14985200  1
  P  P6  1  0.38325600  0.25349400  0.85014800  1
  P  P7  1  0.89668300  0.04514200  0.85031500  1
  P  P8  1  0.60331700  0.04514200  0.35031500  1
  P  P9  1  0.10331700  0.95485800  0.14968500  1
  P  P10  1  0.74657700  0.45594900  0.00793100  1
  P  P11  1  0.11674400  0.25349400  0.35014800  1
  O  O0  1  0.40611000  0.09904800  0.83262500  1
  O  O1  1  0.68674500  0.47353900  0.59692400  1
  O  O2  1  0.61071600  0.22379500  0.34854200  1
  O  O3  1  0.58928000  0.82343100  0.02842200  1
  O  O4  1  0.81325500  0.47353900  0.09692400  1
  O  O5  1  0.55657300  0.87244300  0.46010600  1
  O  O6  1  0.63352800  0.61309200  0.93211700  1
  O  O7  1  0.33025400  0.73723800  0.93358800  1
  O  O8  1  0.37230300  0.53509500  0.56773400  1
  O  O9  1  0.94342700  0.87244300  0.96010600  1
  O  O10  1  0.08928000  0.17656900  0.47157800  1
  O  O11  1  0.09389000  0.09904800  0.33262500  1
  O  O12  1  0.31325500  0.52646100  0.40307600  1
  O  O13  1  0.41072000  0.17656900  0.97157800  1
  O  O14  1  0.50265900  0.41157700  0.78153300  1
  O  O15  1  0.88928400  0.22379500  0.84854200  1
  O  O16  1  0.49734100  0.58842300  0.21846700  1
  O  O17  1  0.01966800  0.08891500  0.76237200  1
  O  O18  1  0.59389000  0.90095200  0.16737500  1
  O  O19  1  0.98033200  0.91108500  0.23762800  1
  O  O20  1  0.13352800  0.38690800  0.56788300  1
  O  O21  1  0.00265900  0.58842300  0.71846700  1
  O  O22  1  0.44342700  0.12755700  0.53989400  1
  O  O23  1  0.87230300  0.46490500  0.93226600  1
  O  O24  1  0.16974600  0.73723800  0.43358800  1
  O  O25  1  0.11071600  0.77620500  0.15145800  1
  O  O26  1  0.91072000  0.82343100  0.52842200  1
  O  O27  1  0.78282900  0.67405100  0.18317400  1
  O  O28  1  0.21717100  0.32594900  0.81682600  1
  O  O29  1  0.90611000  0.90095200  0.66737500  1
  O  O30  1  0.66974600  0.26276200  0.06641200  1
  O  O31  1  0.48033200  0.08891500  0.26237200  1
  O  O32  1  0.18674500  0.52646100  0.90307600  1
  O  O33  1  0.36647200  0.38690800  0.06788300  1
  O  O34  1  0.71717100  0.67405100  0.68317400  1
  O  O35  1  0.05657300  0.12755700  0.03989400  1
  O  O36  1  0.28282900  0.32594900  0.31682600  1
  O  O37  1  0.76288600  0.02971000  0.31159000  1
  O  O38  1  0.51966800  0.91108500  0.73762800  1
  O  O39  1  0.12769700  0.53509500  0.06773400  1
  O  O40  1  0.62769700  0.46490500  0.43226600  1
  O  O41  1  0.83025400  0.26276200  0.56641200  1
  O  O42  1  0.99734100  0.41157700  0.28153300  1
  O  O43  1  0.38928400  0.77620500  0.65145800  1
  O  O44  1  0.26288600  0.97029000  0.18841000  1
  O  O45  1  0.23711400  0.97029000  0.68841000  1
  O  O46  1  0.86647200  0.61309200  0.43211700  1
  O  O47  1  0.73711400  0.02971000  0.81159000  1
loop_
_geom_bond_atom_site_label_1
_geom_bond_atom_site_label_2
_geom_bond_distance
_geom_bond_site_symmetry_2
Li0 O33 1.953745 1_555
Li0 O36 1.982976 1_555
Li0 O16 2.150044 1_555
Li0 O31 2.225612 1_555
Li0 O2 2.500688 1_555
Li1 O7 1.989096 1_555
Li1 O17 2.007929 1_565
Li1 O45 2.009979 1_555
Li1 O0 2.013201 1_565
Li2 O41 1.989096 1_555
Li2 O38 2.007929 1_545
Li2 O47 2.009979 1_555
Li2 O29 2.013201 1_545
Li3 O4 1.981297 1_555
Li3 O2 1.990758 1_555
Li3 O42 2.005069 1_555
Li3 O37 2.284048 1_555
Li3 O27 2.585607 1_555
Li4 O30 1.989096 1_555
Li4 O19 2.007929 1_545
Li4 O37 2.009979 1_555
Li4 O18 2.013201 1_545
Li5 O20 1.953745 1_555
Li5 O28 1.982976 1_555
Li5 O21 2.150044 1_555
Li5 O17 2.225612 1_555
Li5 O15 2.500688 1_455
Li6 O46 1.953745 1_555
Li6 O27 1.982976 1_555
Li6 O42 2.150044 1_555
Li6 O19 2.225612 1_555
Li6 O25 2.500688 1_655
Li7 O12 1.981297 1_555
Li7 O25 1.990758 1_555
Li7 O16 2.005069 1_555
Li7 O44 2.284048 1_555
Li7 O36 2.585607 1_555
Li8 O6 1.953745 1_555
Li8 O34 1.982976 1_555
Li8 O14 2.150044 1_555
Li8 O38 2.225612 1_555
Li8 O43 2.500688 1_555
Li9 O32 1.981297 1_555
Li9 O43 1.990758 1_555
Li9 O21 2.005069 1_555
Li9 O45 2.284048 1_555
Li9 O28 2.585607 1_555
Li10 O1 1.981297 1_555
Li10 O15 1.990758 1_555
Li10 O14 2.005069 1_555
Li10 O47 2.284048 1_555
Li10 O34 2.585607 1_555
Li11 O24 1.989096 1_555
Li11 O31 2.007929 1_565
Li11 O44 2.009979 1_555
Li11 O11 2.013201 1_565
O0 P6 1.543190 1_555
O0 Ti6 2.094412 1_545
O1 P1 1.543085 1_555
O1 Ti5 2.090461 1_555
O2 P8 1.563485 1_555
O2 Ti7 2.077637 1_555
O3 P5 1.548631 1_555
O3 Ti6 1.913299 1_554
O4 P10 1.543085 1_555
O4 Ti3 2.090461 1_555
O5 P8 1.517132 1_565
O5 Ti5 1.994034 1_555
O6 P10 1.543636 1_556
O6 Ti6 2.089672 1_555
O7 P2 1.551762 1_555
O7 Ti6 2.052706 1_555
O8 P3 1.551580 1_555
O8 Ti5 1.902421 1_555
O9 P7 1.517132 1_565
O9 Ti3 1.994034 1_556
O10 P11 1.548631 1_555
O10 Ti0 1.913299 1_555
O11 P11 1.543190 1_555
O11 Ti1 2.094412 1_445
O12 P3 1.543085 1_555
O12 Ti7 2.090461 1_555
O13 P6 1.548631 1_555
O13 Ti4 1.913299 1_556
O14 P6 1.565202 1_555
O14 Ti5 2.188730 1_555
O15 P7 1.563485 1_555
O15 Ti2 2.077637 1_655
O16 P5 1.565202 1_555
O16 Ti7 2.188730 1_555
O17 P7 1.569704 1_455
O17 Ti0 2.101210 1_555
O18 P5 1.543190 1_555
O18 Ti4 2.094412 1_565
O19 P9 1.569704 1_655
O19 Ti1 2.101210 1_555
O20 P3 1.543636 1_555
O20 Ti0 2.089672 1_555
O21 P0 1.565202 1_455
O21 Ti2 2.188730 1_555
O22 P4 1.517132 1_545
O22 Ti7 1.994034 1_555
O23 P10 1.551580 1_556
O23 Ti2 1.902421 1_655
O24 P3 1.551762 1_555
O24 Ti1 2.052706 1_455
O25 P9 1.563485 1_555
O25 Ti3 2.077637 1_455
O26 P0 1.548631 1_555
O26 Ti1 1.913299 1_555
O27 P5 1.556159 1_555
O27 Ti3 2.151256 1_555
O28 P6 1.556159 1_555
O28 Ti2 2.151256 1_555
O29 P0 1.543190 1_555
O29 Ti0 2.094412 1_665
O30 P10 1.551762 1_555
O30 Ti4 2.052706 1_555
O31 P8 1.569704 1_555
O31 Ti4 2.101210 1_555
O32 P2 1.543085 1_555
O32 Ti2 2.090461 1_555
O33 P2 1.543636 1_554
O33 Ti4 2.089672 1_555
O34 P0 1.556159 1_555
O34 Ti5 2.151256 1_555
O35 P9 1.517132 1_545
O35 Ti2 1.994034 1_554
O36 P11 1.556159 1_555
O36 Ti7 2.151256 1_555
O37 P8 1.553621 1_555
O37 Ti1 2.140598 1_545
O38 P4 1.569704 1_555
O38 Ti6 2.101210 1_555
O39 P2 1.551580 1_554
O39 Ti3 1.902421 1_455
O40 P1 1.551580 1_555
O40 Ti7 1.902421 1_555
O41 P1 1.551762 1_555
O41 Ti0 2.052706 1_655
O42 P11 1.565202 1_655
O42 Ti3 2.188730 1_555
O43 P4 1.563485 1_555
O43 Ti5 2.077637 1_555
O44 P9 1.553621 1_555
O44 Ti4 2.140598 1_565
O45 P4 1.553621 1_555
O45 Ti0 2.140598 1_565
O46 P1 1.543636 1_555
O46 Ti1 2.089672 1_555
O47 P7 1.553621 1_555
O47 Ti6 2.140598 1_545
