# generated using pymatgen
data_Na2Nb3InSi2(PO6)4
_symmetry_space_group_name_H-M   'P 1'
_cell_length_a   8.85606043
_cell_length_b   8.86445551
_cell_length_c   23.02165390
_cell_angle_alpha   90.05574455
_cell_angle_beta   89.97966966
_cell_angle_gamma   119.95752147
_symmetry_Int_Tables_number   1
_chemical_formula_structural   Na2Nb3InSi2(PO6)4
_chemical_formula_sum   'Na6 Nb9 In3 Si6 P12 O72'
_cell_volume   1565.83254154
_cell_formula_units_Z   3
loop_
 _symmetry_equiv_pos_site_id
 _symmetry_equiv_pos_as_xyz
  1  'x, y, z'
loop_
 _atom_site_type_symbol
 _atom_site_label
 _atom_site_symmetry_multiplicity
 _atom_site_fract_x
 _atom_site_fract_y
 _atom_site_fract_z
 _atom_site_occupancy
  Na  Na0  1  0.99734523  0.99929798  0.49494726  1
  Na  Na1  1  0.99968102  0.99943760  0.00095328  1
  Na  Na2  1  0.66827986  0.33370457  0.83198912  1
  Na  Na3  1  0.66624843  0.33434188  0.32804123  1
  Na  Na4  1  0.33348235  0.66374386  0.16489900  1
  Na  Na5  1  0.32990602  0.66432115  0.66711919  1
  Nb  Nb0  1  0.00047815  0.99991846  0.85707331  1
  Nb  Nb1  1  0.99904752  0.00214263  0.64460770  1
  Nb  Nb2  1  0.00272579  0.00331156  0.14602428  1
  Nb  Nb3  1  0.66156550  0.33173329  0.97801367  1
  Nb  Nb4  1  0.67004358  0.32915427  0.47801542  1
  Nb  Nb5  1  0.33314293  0.66368961  0.01999375  1
  Nb  Nb6  1  0.33531642  0.66674862  0.52012875  1
  Nb  Nb7  1  0.33751674  0.67119906  0.31022282  1
  Nb  Nb8  1  0.33254892  0.66641521  0.81346349  1
  In  In0  1  0.99851809  0.00072203  0.35406657  1
  In  In1  1  0.66852059  0.33485455  0.68661674  1
  In  In2  1  0.66611978  0.33429674  0.18414689  1
  Si  Si0  1  0.95713275  0.33590327  0.58450046  1
  Si  Si1  1  0.37714572  0.33480869  0.08425633  1
  Si  Si2  1  0.61967173  0.66546800  0.91639817  1
  Si  Si3  1  0.04423553  0.38038817  0.91647126  1
  Si  Si4  1  0.33502013  0.95329916  0.91700464  1
  Si  Si5  1  0.62473902  0.95507472  0.41658759  1
  P  P0  1  0.29037141  0.00188162  0.25139152  1
  P  P1  1  0.71208149  0.70852191  0.25089352  1
  P  P2  1  0.99805625  0.29068185  0.25084019  1
  P  P3  1  0.28717153  0.28747503  0.75041674  1
  P  P4  1  0.00062572  0.71351226  0.75044931  1
  P  P5  1  0.71166894  0.99860864  0.75077640  1
  P  P6  1  0.37790139  0.04406851  0.58328136  1
  P  P7  1  0.66616909  0.62096530  0.58326315  1
  P  P8  1  0.95699388  0.62333654  0.08324851  1
  P  P9  1  0.66566638  0.04251233  0.08316883  1
  P  P10  1  0.33582139  0.38119174  0.41666308  1
  P  P11  1  0.04717803  0.66634437  0.41669712  1
  O  O0  1  0.21072367  0.02650529  0.30595019  1
  O  O1  1  0.81480585  0.78820721  0.30567668  1
  O  O2  1  0.97217788  0.18578487  0.30521296  1
  O  O3  1  0.19308866  0.17538476  0.80397208  1
  O  O4  1  0.98467237  0.80979406  0.80423779  1
  O  O5  1  0.82522970  0.01702765  0.80410883  1
  O  O6  1  0.80379692  0.97535180  0.69545408  1
  O  O7  1  0.17158138  0.19577430  0.69517421  1
  O  O8  1  0.02476398  0.82743916  0.69539132  1
  O  O9  1  0.79850900  0.82678957  0.19596776  1
  O  O10  1  0.02680469  0.19861813  0.19571717  1
  O  O11  1  0.17119953  0.97261176  0.19618924  1
  O  O12  1  0.88690079  0.37689352  0.64193408  1
  O  O13  1  0.48299540  0.11221158  0.63839286  1
  O  O14  1  0.62513114  0.51577477  0.63857116  1
  O  O15  1  0.89097082  0.51782257  0.13833647  1
  O  O16  1  0.63164544  0.11220654  0.13843047  1
  O  O17  1  0.48707095  0.37550567  0.14180689  1
  O  O18  1  0.46925332  0.30307404  0.02645125  1
  O  O19  1  0.84094267  0.53595679  0.02920704  1
  O  O20  1  0.69773925  0.15909271  0.02902477  1
  O  O21  1  0.46349039  0.16119356  0.52911332  1
  O  O22  1  0.69492613  0.53514414  0.52922215  1
  O  O23  1  0.83159219  0.30327743  0.52657291  1
  O  O24  1  0.53201545  0.69947723  0.97301384  1
  O  O25  1  0.16772712  0.46859303  0.97275660  1
  O  O26  1  0.30061061  0.83324942  0.97346071  1
  O  O27  1  0.51985167  0.83605320  0.47296710  1
  O  O28  1  0.31392350  0.47337549  0.47106771  1
  O  O29  1  0.15796156  0.68224949  0.47106909  1
  O  O30  1  0.13056393  0.63441811  0.36206837  1
  O  O31  1  0.49656381  0.85889598  0.35951512  1
  O  O32  1  0.36083618  0.49569971  0.36222588  1
  O  O33  1  0.13752466  0.50149151  0.85862482  1
  O  O34  1  0.36404908  0.86215245  0.85864260  1
  O  O35  1  0.49837231  0.63517015  0.85857704  1
  O  O36  1  0.03104916  0.82794667  0.41446175  1
  O  O37  1  0.81369193  0.97740025  0.41607991  1
  O  O38  1  0.17699524  0.20149310  0.41424045  1
  O  O39  1  0.02593084  0.18921027  0.90657809  1
  O  O40  1  0.16491959  0.97645333  0.90673216  1
  O  O41  1  0.81176855  0.83694024  0.90685979  1
  O  O42  1  0.97678455  0.15904301  0.59155941  1
  O  O43  1  0.19190651  0.02213805  0.59028589  1
  O  O44  1  0.83194711  0.80593021  0.59081888  1
  O  O45  1  0.97318688  0.80724369  0.09050892  1
  O  O46  1  0.83070927  0.02115951  0.09027349  1
  O  O47  1  0.18001483  0.15780498  0.09138941  1
  O  O48  1  0.69251951  0.15904720  0.74781867  1
  O  O49  1  0.46613685  0.30454001  0.74650094  1
  O  O50  1  0.83767223  0.53539324  0.74864163  1
  O  O51  1  0.68418976  0.52687123  0.24543413  1
  O  O52  1  0.84372745  0.31717764  0.24325624  1
  O  O53  1  0.47313633  0.15215429  0.24479681  1
  O  O54  1  0.64282995  0.49612991  0.92486126  1
  O  O55  1  0.85368773  0.35891208  0.92528005  1
  O  O56  1  0.50708554  0.14490839  0.92434722  1
  O  O57  1  0.63089862  0.14503171  0.42488178  1
  O  O58  1  0.50499864  0.37172832  0.42519061  1
  O  O59  1  0.86365287  0.49970280  0.42505298  1
  O  O60  1  0.34658496  0.50059293  0.07344736  1
  O  O61  1  0.14307753  0.65337143  0.07339693  1
  O  O62  1  0.50654416  0.85882915  0.07356804  1
  O  O63  1  0.35015043  0.85872959  0.57257400  1
  O  O64  1  0.50952010  0.65153522  0.57288074  1
  O  O65  1  0.15263821  0.49914296  0.57177140  1
  O  O66  1  0.29784486  0.82630708  0.25652723  1
  O  O67  1  0.52581359  0.69570663  0.25702824  1
  O  O68  1  0.17062406  0.47257030  0.25638200  1
  O  O69  1  0.29852964  0.46782105  0.75506035  1
  O  O70  1  0.16941470  0.70068084  0.75560884  1
  O  O71  1  0.53166847  0.82900986  0.75516914  1
loop_
_geom_bond_atom_site_label_1
_geom_bond_atom_site_label_2
_geom_bond_distance
_geom_bond_site_symmetry_2
Na0 O37 2.380276 1_555
Na0 O36 2.505286 1_655
Na0 O38 2.520393 1_665
Na0 O42 2.690055 1_565
Na0 O44 2.729949 1_555
Na0 O43 2.735082 1_665
Na1 O47 2.571684 1_665
Na1 O46 2.605675 1_565
Na1 O45 2.610665 1_555
Na1 O41 2.671915 1_554
Na1 O40 2.680057 1_654
Na1 O39 2.687125 1_664
Na2 O50 2.540609 1_555
Na2 O48 2.554170 1_555
Na2 O49 2.585391 1_555
Na2 O56 2.641658 1_555
Na2 O55 2.644587 1_555
Na2 O54 2.648201 1_555
Na3 O51 2.507967 1_555
Na3 O53 2.538421 1_555
Na3 O52 2.557256 1_555
Na3 O57 2.714147 1_555
Na3 O58 2.760468 1_555
Na3 O59 2.762244 1_555
Na4 O60 2.588275 1_555
Na4 O68 2.636550 1_555
Na4 O67 2.645641 1_555
Na4 O66 2.659648 1_555
Na4 O62 2.667996 1_555
Na4 O61 2.671444 1_555
Na5 O70 2.593899 1_555
Na5 O69 2.594839 1_555
Na5 O71 2.612383 1_555
Na5 O65 2.669697 1_555
Na5 O64 2.725262 1_555
Na5 O63 2.727265 1_555
Nb0 O40 1.942996 1_555
Nb0 O39 1.945245 1_565
Nb0 O41 1.945356 1_455
Nb0 O4 2.024859 1_455
Nb0 O5 2.038453 1_465
Nb0 O3 2.043493 1_565
Nb1 O42 1.934455 1_555
Nb1 O6 2.001393 1_545
Nb1 O7 2.003526 1_655
Nb1 O8 2.042791 1_645
Nb1 O44 2.043299 1_545
Nb1 O43 2.051608 1_655
Nb2 O47 1.943501 1_555
Nb2 O10 1.994792 1_555
Nb2 O11 2.010288 1_545
Nb2 O9 2.053549 1_445
Nb2 O46 2.058044 1_455
Nb2 O45 2.065056 1_445
Nb3 O18 1.943128 1_556
Nb3 O56 1.968554 1_555
Nb3 O54 1.973234 1_555
Nb3 O55 2.004122 1_555
Nb3 O19 2.077230 1_556
Nb3 O20 2.077778 1_556
Nb4 O23 1.917943 1_555
Nb4 O57 1.926574 1_555
Nb4 O59 2.031108 1_555
Nb4 O21 2.056351 1_555
Nb4 O58 2.076257 1_555
Nb4 O22 2.089652 1_555
Nb5 O25 1.945965 1_554
Nb5 O60 1.947873 1_555
Nb5 O24 1.952851 1_554
Nb5 O26 1.981321 1_554
Nb5 O61 2.048931 1_555
Nb5 O62 2.053260 1_555
Nb6 O27 1.911644 1_555
Nb6 O65 1.959520 1_555
Nb6 O28 1.980387 1_555
Nb6 O29 1.994642 1_555
Nb6 O64 2.020541 1_555
Nb6 O63 2.035681 1_555
Nb7 O31 1.922747 1_555
Nb7 O67 1.991219 1_555
Nb7 O66 2.007008 1_555
Nb7 O68 2.054042 1_555
Nb7 O32 2.054463 1_555
Nb7 O30 2.071817 1_555
Nb8 O33 1.918651 1_555
Nb8 O34 1.919242 1_555
Nb8 O35 1.928693 1_555
Nb8 O70 2.096163 1_555
Nb8 O71 2.109925 1_555
Nb8 O69 2.112734 1_555
In0 O1 2.091189 1_545
In0 O0 2.093110 1_655
In0 O2 2.096780 1_555
In0 O37 2.102641 1_545
In0 O38 2.184519 1_655
In0 O36 2.192482 1_645
In1 O12 2.053508 1_555
In1 O14 2.135967 1_555
In1 O13 2.141424 1_555
In1 O49 2.168689 1_555
In1 O50 2.186349 1_555
In1 O48 2.189606 1_555
In2 O17 2.044058 1_555
In2 O16 2.114857 1_555
In2 O15 2.119109 1_555
In2 O52 2.142224 1_555
In2 O51 2.157097 1_555
In2 O53 2.173515 1_555
O0 P0 1.508443 1_555
O1 P1 1.508142 1_555
O2 P2 1.507735 1_555
O3 P3 1.541577 1_555
O4 P4 1.549204 1_655
O5 P5 1.543399 1_545
O6 P5 1.580191 1_555
O7 P3 1.579223 1_555
O8 P4 1.568090 1_555
O9 P1 1.576181 1_555
O10 P2 1.595780 1_455
O11 P0 1.588414 1_565
O12 Si0 1.578396 1_555
O13 P6 1.509546 1_555
O14 P7 1.512064 1_555
O15 P8 1.510191 1_555
O16 P9 1.508338 1_555
O17 Si1 1.575588 1_555
O18 Si1 1.656242 1_555
O19 P8 1.551797 1_555
O20 P9 1.552889 1_555
O21 P6 1.556755 1_555
O22 P7 1.543651 1_555
O23 Si0 1.666541 1_555
O24 Si2 1.620054 1_555
O25 Si3 1.622186 1_555
O26 Si4 1.610317 1_555
O27 Si5 1.638199 1_555
O28 P10 1.558903 1_555
O29 P11 1.552952 1_555
O30 P11 1.553858 1_555
O31 Si5 1.665556 1_555
O32 P10 1.558108 1_555
O33 Si3 1.650669 1_555
O34 Si4 1.652037 1_555
O35 Si2 1.646274 1_555
O36 P11 1.509854 1_555
O37 Si5 1.583902 1_555
O38 P10 1.510356 1_555
O39 Si3 1.635551 1_555
O40 Si4 1.636001 1_555
O41 Si2 1.634207 1_555
O42 Si0 1.669616 1_555
O43 P6 1.567505 1_555
O44 P7 1.571483 1_555
O45 P8 1.572316 1_555
O46 P9 1.573364 1_555
O47 Si1 1.673698 1_555
O48 P5 1.515627 1_545
O49 P3 1.517723 1_555
O50 P4 1.517105 1_655
O51 P1 1.507335 1_555
O52 P2 1.508140 1_555
O53 P0 1.504725 1_555
O54 Si2 1.625225 1_555
O55 Si3 1.613698 1_655
O56 Si4 1.627964 1_545
O57 Si5 1.668078 1_545
O58 P10 1.554373 1_555
O59 P11 1.569473 1_655
O60 Si1 1.640990 1_555
O61 P8 1.549122 1_455
O62 P9 1.547201 1_565
O63 P6 1.554470 1_565
O64 P7 1.559154 1_555
O65 Si0 1.635796 1_455
O66 P0 1.594959 1_565
O67 P1 1.602106 1_555
O68 P2 1.578082 1_455
O69 P3 1.554466 1_555
O70 P4 1.559310 1_555
O71 P5 1.555081 1_555
