# generated using pymatgen
data_CeGe3Pd5
_symmetry_space_group_name_H-M   'P 1'
_cell_length_a   4.14094626
_cell_length_b   7.32423049
_cell_length_c   20.31280511
_cell_angle_alpha   90.00000000
_cell_angle_beta   90.00000000
_cell_angle_gamma   90.00000000
_symmetry_Int_Tables_number   1
_chemical_formula_structural   CeGe3Pd5
_chemical_formula_sum   'Ce4 Ge12 Pd20'
_cell_volume   616.07203987
_cell_formula_units_Z   4
loop_
 _symmetry_equiv_pos_site_id
 _symmetry_equiv_pos_as_xyz
  1  'x, y, z'
loop_
 _atom_site_type_symbol
 _atom_site_label
 _atom_site_symmetry_multiplicity
 _atom_site_fract_x
 _atom_site_fract_y
 _atom_site_fract_z
 _atom_site_occupancy
  Ce  Ce0  1  0.75000000  0.37910888  0.35452985  1
  Ce  Ce1  1  0.75000000  0.12089112  0.85452985  1
  Ce  Ce2  1  0.25000000  0.62089112  0.64547015  1
  Ce  Ce3  1  0.25000000  0.87910888  0.14547015  1
  Ge  Ge0  1  0.25000000  0.37576513  0.23758165  1
  Ge  Ge1  1  0.75000000  0.15087159  0.07529299  1
  Ge  Ge2  1  0.75000000  0.90712894  0.58499419  1
  Ge  Ge3  1  0.75000000  0.87576513  0.26241835  1
  Ge  Ge4  1  0.75000000  0.59287106  0.08499419  1
  Ge  Ge5  1  0.25000000  0.84912841  0.92470701  1
  Ge  Ge6  1  0.25000000  0.12423487  0.73758165  1
  Ge  Ge7  1  0.25000000  0.40712894  0.91500581  1
  Ge  Ge8  1  0.25000000  0.09287106  0.41500581  1
  Ge  Ge9  1  0.75000000  0.34912841  0.57529299  1
  Ge  Ge10  1  0.75000000  0.62423487  0.76241835  1
  Ge  Ge11  1  0.25000000  0.65087159  0.42470701  1
  Pd  Pd0  1  0.75000000  0.12039678  0.48634775  1
  Pd  Pd1  1  0.25000000  0.82322784  0.80043569  1
  Pd  Pd2  1  0.25000000  0.67677216  0.30043569  1
  Pd  Pd3  1  0.75000000  0.64542958  0.88450475  1
  Pd  Pd4  1  0.25000000  0.14542958  0.61549525  1
  Pd  Pd5  1  0.25000000  0.12854672  0.99420160  1
  Pd  Pd6  1  0.75000000  0.17677216  0.19956431  1
  Pd  Pd7  1  0.25000000  0.35457042  0.11549525  1
  Pd  Pd8  1  0.75000000  0.85457042  0.38450475  1
  Pd  Pd9  1  0.25000000  0.42815421  0.79489055  1
  Pd  Pd10  1  0.25000000  0.87960322  0.51365225  1
  Pd  Pd11  1  0.75000000  0.62854672  0.50579840  1
  Pd  Pd12  1  0.75000000  0.37960322  0.98634775  1
  Pd  Pd13  1  0.25000000  0.37145328  0.49420160  1
  Pd  Pd14  1  0.25000000  0.07184579  0.29489055  1
  Pd  Pd15  1  0.75000000  0.57184579  0.20510945  1
  Pd  Pd16  1  0.75000000  0.92815421  0.70510945  1
  Pd  Pd17  1  0.75000000  0.32322784  0.69956431  1
  Pd  Pd18  1  0.75000000  0.87145328  0.00579840  1
  Pd  Pd19  1  0.25000000  0.62039678  0.01365225  1
loop_
_geom_bond_atom_site_label_1
_geom_bond_atom_site_label_2
_geom_bond_distance
_geom_bond_site_symmetry_2
Ce0 Ge0 3.151298 1_655
Ce0 Ge0 3.151298 1_555
Ce0 Ge8 3.192352 1_555
Ce0 Ge8 3.192352 1_655
Ce0 Pd2 3.201141 1_555
Ce0 Pd2 3.201141 1_655
Ce0 Ge11 3.206368 1_555
Ce0 Ge11 3.206368 1_655
Ce0 Pd0 3.280246 1_555
Ce0 Pd14 3.289232 1_555
Ce0 Pd14 3.289232 1_655
Ce0 Pd15 3.347368 1_555
Ce0 Pd6 3.479189 1_555
Ce0 Pd13 3.512731 1_555
Ce0 Pd13 3.512731 1_655
Ce0 Pd8 3.535218 1_555
Ce0 Pd11 3.574790 1_555
Ce1 Ge6 3.151298 1_555
Ce1 Ge6 3.151298 1_655
Ce1 Ge7 3.192352 1_555
Ce1 Ge7 3.192352 1_655
Ce1 Pd1 3.201141 1_645
Ce1 Pd1 3.201141 1_545
Ce1 Ge5 3.206368 1_545
Ce1 Ge5 3.206368 1_645
Ce1 Pd12 3.280246 1_555
Ce1 Pd9 3.289232 1_655
Ce1 Pd9 3.289232 1_555
Ce1 Pd16 3.347368 1_545
Ce1 Pd17 3.479189 1_555
Ce1 Pd5 3.512731 1_655
Ce1 Pd5 3.512731 1_555
Ce1 Pd3 3.535218 1_545
Ce1 Pd18 3.574790 1_546
Ce2 Ge10 3.151298 1_455
Ce2 Ge10 3.151298 1_555
Ce2 Ge2 3.192352 1_455
Ce2 Ge2 3.192352 1_555
Ce2 Pd17 3.201141 1_555
Ce2 Pd17 3.201141 1_455
Ce2 Ge9 3.206368 1_455
Ce2 Ge9 3.206368 1_555
Ce2 Pd10 3.280246 1_555
Ce2 Pd16 3.289232 1_455
Ce2 Pd16 3.289232 1_555
Ce2 Pd9 3.347368 1_555
Ce2 Pd1 3.479189 1_555
Ce2 Pd11 3.512731 1_555
Ce2 Pd11 3.512731 1_455
Ce2 Pd4 3.535218 1_555
Ce2 Pd13 3.574790 1_555
Ce3 Ge3 3.151298 1_455
Ce3 Ge3 3.151298 1_555
Ce3 Ge4 3.192352 1_555
Ce3 Ge4 3.192352 1_455
Ce3 Pd6 3.201141 1_465
Ce3 Pd6 3.201141 1_565
Ce3 Ge1 3.206368 1_465
Ce3 Ge1 3.206368 1_565
Ce3 Pd19 3.280246 1_555
Ce3 Pd15 3.289232 1_455
Ce3 Pd15 3.289232 1_555
Ce3 Pd14 3.347368 1_565
Ce3 Pd2 3.479189 1_555
Ce3 Pd18 3.512731 1_555
Ce3 Pd18 3.512731 1_455
Ce3 Pd7 3.535218 1_565
Ce3 Pd5 3.574790 1_564
Ge0 Pd7 2.484771 1_555
Ge0 Pd14 2.511992 1_555
Ge0 Pd2 2.547652 1_555
Ge0 Pd15 2.604694 1_455
Ge0 Pd15 2.604694 1_555
Ge0 Pd6 2.647155 1_455
Ge0 Pd6 2.647155 1_555
Ge1 Pd12 2.463907 1_554
Ge1 Pd18 2.486154 1_545
Ge1 Pd6 2.531417 1_555
Ge1 Pd5 2.650819 1_654
Ge1 Pd5 2.650819 1_554
Ge1 Pd7 2.679478 1_655
Ge1 Pd7 2.679478 1_555
Ge2 Pd16 2.444733 1_555
Ge2 Pd10 2.535262 1_555
Ge2 Pd10 2.535262 1_655
Ge2 Pd0 2.540684 1_565
Ge2 Pd11 2.598290 1_555
Ge2 Pd4 2.777954 1_565
Ge2 Pd4 2.777954 1_665
Ge3 Pd8 2.484771 1_555
Ge3 Pd15 2.511992 1_555
Ge3 Pd6 2.547652 1_565
Ge3 Pd14 2.604694 1_565
Ge3 Pd14 2.604694 1_665
Ge3 Pd2 2.647155 1_655
Ge3 Pd2 2.647155 1_555
Ge4 Pd15 2.444733 1_555
Ge4 Pd19 2.535262 1_655
Ge4 Pd19 2.535262 1_555
Ge4 Pd12 2.540684 1_554
Ge4 Pd18 2.598290 1_555
Ge4 Pd7 2.777954 1_555
Ge4 Pd7 2.777954 1_655
Ge5 Pd19 2.463907 1_556
Ge5 Pd5 2.486154 1_565
Ge5 Pd1 2.531417 1_555
Ge5 Pd18 2.650819 1_456
Ge5 Pd18 2.650819 1_556
Ge5 Pd3 2.679478 1_455
Ge5 Pd3 2.679478 1_555
Ge6 Pd4 2.484771 1_555
Ge6 Pd9 2.511992 1_555
Ge6 Pd1 2.547652 1_545
Ge6 Pd16 2.604694 1_445
Ge6 Pd16 2.604694 1_545
Ge6 Pd17 2.647155 1_455
Ge6 Pd17 2.647155 1_555
Ge7 Pd9 2.444733 1_555
Ge7 Pd12 2.535262 1_555
Ge7 Pd12 2.535262 1_455
Ge7 Pd19 2.540684 1_556
Ge7 Pd5 2.598290 1_555
Ge7 Pd3 2.777954 1_555
Ge7 Pd3 2.777954 1_455
Ge8 Pd14 2.444733 1_555
Ge8 Pd0 2.535262 1_555
Ge8 Pd0 2.535262 1_455
Ge8 Pd10 2.540684 1_545
Ge8 Pd13 2.598290 1_555
Ge8 Pd8 2.777954 1_445
Ge8 Pd8 2.777954 1_545
Ge9 Pd0 2.463907 1_555
Ge9 Pd11 2.486154 1_555
Ge9 Pd17 2.531417 1_555
Ge9 Pd13 2.650819 1_655
Ge9 Pd13 2.650819 1_555
Ge9 Pd4 2.679478 1_555
Ge9 Pd4 2.679478 1_655
Ge10 Pd3 2.484771 1_555
Ge10 Pd16 2.511992 1_555
Ge10 Pd17 2.547652 1_555
Ge10 Pd9 2.604694 1_555
Ge10 Pd9 2.604694 1_655
Ge10 Pd1 2.647155 1_555
Ge10 Pd1 2.647155 1_655
Ge11 Pd10 2.463907 1_555
Ge11 Pd13 2.486154 1_555
Ge11 Pd2 2.531417 1_555
Ge11 Pd11 2.650819 1_455
Ge11 Pd11 2.650819 1_555
Ge11 Pd8 2.679478 1_455
Ge11 Pd8 2.679478 1_555
Pd0 Pd13 2.773712 1_555
Pd0 Pd13 2.773712 1_655
Pd0 Pd10 2.775762 1_645
Pd0 Pd10 2.775762 1_545
Pd0 Pd8 2.840827 1_545
Pd10 Pd11 2.773712 1_455
Pd10 Pd11 2.773712 1_555
Pd10 Pd4 2.840827 1_565
Pd12 Pd5 2.773712 1_555
Pd12 Pd5 2.773712 1_655
Pd12 Pd19 2.775762 1_556
Pd12 Pd19 2.775762 1_656
Pd12 Pd3 2.840827 1_555
Pd18 Pd19 2.773712 1_655
Pd18 Pd19 2.773712 1_555
Pd19 Pd7 2.840827 1_555
