# generated using pymatgen
data_MgTl4(WO4)2
_symmetry_space_group_name_H-M   'P 1'
_cell_length_a   6.35614000
_cell_length_b   6.35614025
_cell_length_c   9.94358300
_cell_angle_alpha   90.00000000
_cell_angle_beta   90.00000000
_cell_angle_gamma   119.99999869
_symmetry_Int_Tables_number   1
_chemical_formula_structural   MgTl4(WO4)2
_chemical_formula_sum   'Mg1 Tl4 W2 O8'
_cell_volume   347.90483672
_cell_formula_units_Z   1
loop_
 _symmetry_equiv_pos_site_id
 _symmetry_equiv_pos_as_xyz
  1  'x, y, z'
loop_
 _atom_site_type_symbol
 _atom_site_label
 _atom_site_symmetry_multiplicity
 _atom_site_fract_x
 _atom_site_fract_y
 _atom_site_fract_z
 _atom_site_occupancy
  Mg  Mg0  1  0.00000000  0.00000000  0.75736900  1
  Tl  Tl0  1  0.33333300  0.66666700  0.76616300  1
  Tl  Tl1  1  0.66666700  0.33333300  0.24082500  1
  Tl  Tl2  1  0.00000000  0.00000000  0.45368400  1
  Tl  Tl3  1  0.00000000  0.00000000  0.08011200  1
  W  W0  1  0.33333300  0.66666700  0.31806200  1
  W  W1  1  0.66666700  0.33333300  0.66485100  1
  O  O0  1  0.83023900  0.16976100  0.74472900  1
  O  O1  1  0.83023900  0.66047800  0.74472900  1
  O  O2  1  0.33952200  0.16976100  0.74472900  1
  O  O3  1  0.64708100  0.82354100  0.25604600  1
  O  O4  1  0.17645900  0.35291900  0.25604600  1
  O  O5  1  0.17645900  0.82354100  0.25604600  1
  O  O6  1  0.66666700  0.33333300  0.46874400  1
  O  O7  1  0.33333300  0.66666700  0.49786400  1
loop_
_geom_bond_atom_site_label_1
_geom_bond_atom_site_label_2
_geom_bond_distance
_geom_bond_site_symmetry_2
Mg0 O2 1.873147 1_555
Mg0 O0 1.873147 1_455
Mg0 O1 1.873147 1_445
Mg0 Tl2 3.019717 1_555
O0 W1 1.968175 1_555
O1 W1 1.968181 1_555
O2 W1 1.968181 1_555
O3 W0 1.833842 1_555
O3 Tl3 2.614272 1_665
O3 Tl2 2.763349 1_665
O4 W0 1.833842 1_555
O4 Tl3 2.614272 1_555
O4 Tl2 2.763349 1_555
O5 W0 1.833842 1_555
O5 Tl3 2.614268 1_565
O5 Tl2 2.763345 1_565
O6 W1 1.950006 1_555
O6 Tl1 2.266331 1_555
O7 W0 1.787876 1_555
O7 Tl0 2.667853 1_555
