# generated using pymatgen
data_Na2MgZr3Si2(SO6)4
_symmetry_space_group_name_H-M   'P 1'
_cell_length_a   8.96844215
_cell_length_b   8.94829092
_cell_length_c   23.43641892
_cell_angle_alpha   89.76779233
_cell_angle_beta   89.98653836
_cell_angle_gamma   119.99614638
_symmetry_Int_Tables_number   1
_chemical_formula_structural   Na2MgZr3Si2(SO6)4
_chemical_formula_sum   'Na6 Mg3 Zr9 Si6 S12 O72'
_cell_volume   1628.88643376
_cell_formula_units_Z   3
loop_
 _symmetry_equiv_pos_site_id
 _symmetry_equiv_pos_as_xyz
  1  'x, y, z'
loop_
 _atom_site_type_symbol
 _atom_site_label
 _atom_site_symmetry_multiplicity
 _atom_site_fract_x
 _atom_site_fract_y
 _atom_site_fract_z
 _atom_site_occupancy
  Na  Na0  1  0.98438687  0.98776620  0.50759636  1
  Na  Na1  1  0.01938049  0.01506768  0.00111715  1
  Na  Na2  1  0.67071484  0.31966355  0.83506640  1
  Na  Na3  1  0.66482148  0.32176104  0.33490539  1
  Na  Na4  1  0.33461199  0.66049120  0.16538835  1
  Na  Na5  1  0.35025043  0.67336121  0.67012002  1
  Mg  Mg0  1  0.97746694  0.98350865  0.64812561  1
  Mg  Mg1  1  0.01002489  0.00849803  0.14592014  1
  Mg  Mg2  1  0.33997058  0.67797073  0.31595886  1
  Zr  Zr0  1  0.99010642  0.99909373  0.35352242  1
  Zr  Zr1  1  0.99929991  0.01443160  0.85431725  1
  Zr  Zr2  1  0.66517077  0.33456522  0.68840163  1
  Zr  Zr3  1  0.65686464  0.33461091  0.18340695  1
  Zr  Zr4  1  0.65293787  0.31948706  0.97797424  1
  Zr  Zr5  1  0.67035294  0.33624888  0.48223752  1
  Zr  Zr6  1  0.32111721  0.65390586  0.01789547  1
  Zr  Zr7  1  0.35558980  0.67579100  0.52096050  1
  Zr  Zr8  1  0.33404415  0.68008021  0.81485984  1
  Si  Si0  1  0.70915456  0.99669347  0.74720245  1
  Si  Si1  1  0.67865796  0.63313247  0.58419726  1
  Si  Si2  1  0.36360440  0.32976056  0.08264488  1
  Si  Si3  1  0.03927284  0.37750798  0.91549096  1
  Si  Si4  1  0.32618586  0.95480038  0.91779973  1
  Si  Si5  1  0.61925380  0.95962496  0.41300800  1
  S  S0  1  0.28705760  0.99427753  0.24931549  1
  S  S1  1  0.70836442  0.71163401  0.24842796  1
  S  S2  1  0.00480035  0.29518786  0.24921350  1
  S  S3  1  0.28641671  0.28838383  0.74749146  1
  S  S4  1  0.00086352  0.71384133  0.74841596  1
  S  S5  1  0.95986854  0.33232951  0.58370402  1
  S  S6  1  0.37127066  0.04332246  0.58407938  1
  S  S7  1  0.95588602  0.62790647  0.08424005  1
  S  S8  1  0.66999558  0.04092130  0.08473495  1
  S  S9  1  0.62380138  0.66709579  0.91660249  1
  S  S10  1  0.33321681  0.37801298  0.41479760  1
  S  S11  1  0.04657925  0.66646064  0.41501647  1
  O  O0  1  0.21016696  0.02539974  0.30165366  1
  O  O1  1  0.81714567  0.79195980  0.30116384  1
  O  O2  1  0.97649051  0.18360234  0.30201865  1
  O  O3  1  0.21260782  0.18402843  0.80055232  1
  O  O4  1  0.97516075  0.78793894  0.80085969  1
  O  O5  1  0.82360812  0.02559178  0.80586881  1
  O  O6  1  0.79630026  0.97276376  0.69215805  1
  O  O7  1  0.18579077  0.20634977  0.69669396  1
  O  O8  1  0.02896986  0.81737959  0.69720246  1
  O  O9  1  0.79343435  0.81704013  0.19820914  1
  O  O10  1  0.02525539  0.20990416  0.19915937  1
  O  O11  1  0.18360234  0.97613810  0.19879646  1
  O  O12  1  0.87658689  0.35879439  0.63407781  1
  O  O13  1  0.48329652  0.11942137  0.63443573  1
  O  O14  1  0.64134562  0.50313928  0.63839190  1
  O  O15  1  0.87425440  0.51408358  0.13626541  1
  O  O16  1  0.64513896  0.12889152  0.13590605  1
  O  O17  1  0.49362384  0.35937474  0.13945010  1
  O  O18  1  0.47124468  0.31192350  0.02906974  1
  O  O19  1  0.85384255  0.54491117  0.03313851  1
  O  O20  1  0.69758136  0.14920329  0.03320332  1
  O  O21  1  0.45773078  0.14750164  0.53165432  1
  O  O22  1  0.68753420  0.52749055  0.52712283  1
  O  O23  1  0.85015639  0.30613446  0.53166077  1
  O  O24  1  0.54567114  0.69415105  0.96836169  1
  O  O25  1  0.15965395  0.46088041  0.97261721  1
  O  O26  1  0.30938100  0.84162198  0.97456167  1
  O  O27  1  0.53745264  0.84183649  0.47188638  1
  O  O28  1  0.30236426  0.45202124  0.46730048  1
  O  O29  1  0.14676435  0.69132342  0.46748627  1
  O  O30  1  0.12206344  0.63799561  0.36393016  1
  O  O31  1  0.50674582  0.87088254  0.35847883  1
  O  O32  1  0.35714148  0.48182536  0.36379837  1
  O  O33  1  0.13390433  0.49151546  0.85931505  1
  O  O34  1  0.36488592  0.87206335  0.86143920  1
  O  O35  1  0.51828580  0.63863271  0.86526360  1
  O  O36  1  0.02638036  0.82319895  0.40798770  1
  O  O37  1  0.81644440  0.98006991  0.40756230  1
  O  O38  1  0.17952850  0.20013859  0.40872673  1
  O  O39  1  0.01936506  0.18570254  0.91159714  1
  O  O40  1  0.15601556  0.97053467  0.90874956  1
  O  O41  1  0.79676449  0.81980985  0.91030200  1
  O  O42  1  0.98251505  0.18243733  0.58893128  1
  O  O43  1  0.20368693  0.02985052  0.59048824  1
  O  O44  1  0.84614475  0.81928140  0.58570187  1
  O  O45  1  0.97089152  0.79660935  0.09303630  1
  O  O46  1  0.82128964  0.02179955  0.09297396  1
  O  O47  1  0.18003979  0.16003466  0.09024355  1
  O  O48  1  0.68505046  0.17043164  0.74203631  1
  O  O49  1  0.46369601  0.30774904  0.74343276  1
  O  O50  1  0.84453177  0.53594189  0.74281375  1
  O  O51  1  0.69664173  0.53646714  0.24466356  1
  O  O52  1  0.84552356  0.30980487  0.24491932  1
  O  O53  1  0.46570600  0.15380405  0.24383597  1
  O  O54  1  0.64345216  0.51287011  0.92338295  1
  O  O55  1  0.85283993  0.36210441  0.92532312  1
  O  O56  1  0.49907696  0.14697935  0.92254968  1
  O  O57  1  0.65007327  0.15426206  0.42465786  1
  O  O58  1  0.48698230  0.35675418  0.42275503  1
  O  O59  1  0.86855801  0.51387718  0.42209199  1
  O  O60  1  0.36090109  0.51194627  0.07969573  1
  O  O61  1  0.12983096  0.64396838  0.08039278  1
  O  O62  1  0.51129622  0.87225592  0.07960380  1
  O  O63  1  0.35162648  0.86732538  0.57640376  1
  O  O64  1  0.49527823  0.64005492  0.57693865  1
  O  O65  1  0.12841867  0.49306075  0.57503741  1
  O  O66  1  0.30711250  0.84173284  0.25618981  1
  O  O67  1  0.53464053  0.68609396  0.25644480  1
  O  O68  1  0.15699583  0.46619861  0.25834366  1
  O  O69  1  0.30924214  0.46298314  0.75483358  1
  O  O70  1  0.15237007  0.68682168  0.75427412  1
  O  O71  1  0.51454349  0.82613299  0.75577045  1
loop_
_geom_bond_atom_site_label_1
_geom_bond_atom_site_label_2
_geom_bond_distance
_geom_bond_site_symmetry_2
Na0 O44 2.295323 1_555
Na0 O42 2.593162 1_565
Na0 O43 2.655416 1_665
Na0 O37 2.769292 1_555
Na0 O36 2.888273 1_655
Na0 O38 2.946255 1_665
Na1 O47 2.505281 1_555
Na1 O39 2.589858 1_554
Na1 O40 2.615459 1_544
Na1 O45 2.786882 1_445
Na1 O46 2.810801 1_455
Na1 O41 2.848345 1_444
Na2 O56 2.560364 1_555
Na2 O55 2.583509 1_555
Na2 O48 2.597798 1_555
Na2 O54 2.790049 1_555
Na2 O50 2.792496 1_555
Na2 O49 2.806476 1_555
Na3 O57 2.542575 1_555
Na3 O52 2.694273 1_555
Na3 O53 2.710603 1_555
Na3 O59 2.712689 1_555
Na3 O58 2.717337 1_555
Na3 O51 2.768430 1_555
Na4 O60 2.488087 1_555
Na4 O61 2.663732 1_555
Na4 O62 2.666272 1_555
Na4 O67 2.723904 1_555
Na4 O68 2.739471 1_555
Na4 O66 2.765389 1_555
Na5 O71 2.465538 1_555
Na5 O69 2.626403 1_555
Na5 O64 2.634628 1_555
Na5 O70 2.695896 1_555
Na5 O63 2.790045 1_555
Na5 O65 2.889394 1_555
Mg0 O6 1.885820 1_555
Mg0 O44 1.993664 1_555
Mg0 O8 2.102173 1_655
Mg0 O42 2.234880 1_565
Mg0 O7 2.248743 1_665
Mg0 O43 2.294733 1_665
Mg1 O47 1.945170 1_555
Mg1 O11 2.119348 1_545
Mg1 O10 2.143767 1_555
Mg1 O45 2.146664 1_445
Mg1 O46 2.149479 1_455
Mg1 O9 2.205556 1_445
Mg2 O31 1.908684 1_555
Mg2 O30 2.123185 1_555
Mg2 O66 2.147489 1_555
Mg2 O32 2.148434 1_555
Mg2 O67 2.206808 1_555
Mg2 O68 2.240456 1_555
O0 S0 1.500693 1_545
O0 Zr0 2.227166 1_445
O1 S1 1.517430 1_555
O1 Zr0 2.119420 1_555
O2 S2 1.526231 1_655
O2 Zr0 2.093644 1_545
O3 S3 1.492897 1_555
O3 Zr1 2.151988 1_455
O4 S4 1.470624 1_655
O4 Zr1 2.303499 1_565
O5 Si0 1.658035 1_545
O5 Zr1 1.984759 1_555
O6 Si0 1.577975 1_555
O7 S3 1.454580 1_555
O8 S4 1.455981 1_555
O9 S1 1.458760 1_555
O10 S2 1.462641 1_555
O11 S0 1.463055 1_555
O12 S5 1.478659 1_555
O12 Zr2 2.201957 1_555
O13 S6 1.479500 1_555
O13 Zr2 2.201674 1_555
O14 Si1 1.636123 1_555
O14 Zr2 2.000711 1_555
O15 S7 1.517881 1_555
O15 Zr3 2.110642 1_555
O16 S8 1.513468 1_555
O16 Zr3 2.112385 1_555
O17 Si2 1.702045 1_555
O17 Zr3 1.891290 1_555
O18 Si2 1.639842 1_555
O18 Zr4 1.995499 1_554
O19 S7 1.466821 1_555
O19 Zr4 2.318411 1_554
O20 S8 1.486377 1_555
O20 Zr4 2.179859 1_554
O21 S6 1.499132 1_555
O21 Zr5 2.143120 1_555
O22 Si1 1.665721 1_555
O22 Zr5 1.951884 1_555
O23 S5 1.510977 1_555
O23 Zr5 2.108900 1_555
O24 S9 1.480775 1_555
O24 Zr6 2.191688 1_556
O25 Si3 1.648660 1_555
O25 Zr6 1.929003 1_556
O26 Si4 1.629245 1_555
O26 Zr6 2.006745 1_556
O27 Si5 1.663681 1_555
O27 Zr7 1.937222 1_555
O28 S10 1.489591 1_555
O28 Zr7 2.209939 1_555
O29 S11 1.473717 1_555
O29 Zr7 2.314612 1_555
O30 S11 1.459849 1_555
O31 Si5 1.577840 1_555
O32 S10 1.459162 1_555
O33 Si3 1.617790 1_555
O33 Zr8 2.027551 1_555
O34 Si4 1.636454 1_555
O34 Zr8 1.938991 1_555
O35 S9 1.473122 1_555
O35 Zr8 2.207580 1_555
O36 S11 1.509720 1_555
O36 Zr0 2.169895 1_455
O37 Si5 1.689238 1_555
O37 Zr0 1.947041 1_555
O38 S10 1.503931 1_555
O38 Zr0 2.181830 1_445
O39 Si3 1.637337 1_555
O39 Zr1 1.980998 1_455
O40 Si4 1.615161 1_555
O40 Zr1 2.075070 1_465
O41 S9 1.474513 1_555
O41 Zr1 2.207094 1_565
O42 S5 1.458203 1_555
O43 S6 1.454160 1_555
O44 Si1 1.590871 1_555
O45 S7 1.462502 1_555
O46 S8 1.462759 1_555
O47 Si2 1.595698 1_555
O48 Si0 1.677166 1_545
O48 Zr2 2.003981 1_555
O49 S3 1.513683 1_555
O49 Zr2 2.132790 1_555
O50 S4 1.512363 1_655
O50 Zr2 2.140599 1_555
O51 S1 1.520549 1_555
O51 Zr3 2.197245 1_555
O52 S2 1.501508 1_655
O52 Zr3 2.316124 1_555
O53 S0 1.527357 1_545
O53 Zr3 2.183894 1_555
O54 S9 1.484012 1_555
O54 Zr4 2.183556 1_555
O55 Si3 1.623838 1_655
O55 Zr4 2.047870 1_555
O56 Si4 1.646025 1_545
O56 Zr4 1.965072 1_555
O57 Si5 1.645266 1_545
O57 Zr5 2.056167 1_555
O58 S10 1.494940 1_555
O58 Zr5 2.232112 1_555
O59 S11 1.503047 1_655
O59 Zr5 2.197446 1_555
O60 Si2 1.643682 1_555
O60 Zr6 2.068156 1_555
O61 S7 1.496019 1_455
O61 Zr6 2.222971 1_555
O62 S8 1.473694 1_565
O62 Zr6 2.347373 1_555
O63 S6 1.506157 1_565
O63 Zr7 2.169354 1_555
O64 Si1 1.685080 1_555
O64 Zr7 1.947004 1_555
O65 S5 1.489468 1_455
O65 Zr7 2.254276 1_555
O66 S0 1.471491 1_555
O67 S1 1.469177 1_555
O68 S2 1.471351 1_555
O69 S3 1.481521 1_555
O69 Zr8 2.322215 1_555
O70 S4 1.500630 1_555
O70 Zr8 2.184763 1_555
O71 Si0 1.658256 1_555
O71 Zr8 2.028602 1_555
