# generated using pymatgen
data_MgFe6O11F
_symmetry_space_group_name_H-M   'P 1'
_cell_length_a   5.05912163
_cell_length_b   5.11797768
_cell_length_c   8.68781609
_cell_angle_alpha   90.00677497
_cell_angle_beta   89.99422273
_cell_angle_gamma   98.83532736
_symmetry_Int_Tables_number   1
_chemical_formula_structural   MgFe6O11F
_chemical_formula_sum   'Mg1 Fe6 O11 F1'
_cell_volume   222.27975343
_cell_formula_units_Z   1
loop_
 _symmetry_equiv_pos_site_id
 _symmetry_equiv_pos_as_xyz
  1  'x, y, z'
loop_
 _atom_site_type_symbol
 _atom_site_label
 _atom_site_symmetry_multiplicity
 _atom_site_fract_x
 _atom_site_fract_y
 _atom_site_fract_z
 _atom_site_occupancy
  Mg  Mg0  1  0.48286253  0.95588662  0.33656027  1
  Fe  Fe0  1  0.00875909  0.99574184  0.00694913  1
  Fe  Fe1  1  -0.00341762  0.02578456  0.33642304  1
  Fe  Fe2  1  0.00938289  0.99577536  0.66735231  1
  Fe  Fe3  1  0.55932353  0.45031384  0.15819174  1
  Fe  Fe4  1  0.42871084  0.57390580  0.83639922  1
  Fe  Fe5  1  0.56178471  0.44844542  0.51603279  1
  O  O0  1  0.17781876  0.86520642  0.18647605  1
  O  O1  1  0.17818107  0.86687257  0.48704569  1
  O  O2  1  0.18355350  0.83223953  0.83722835  1
  O  O3  1  0.30182793  0.32409882  0.00589012  1
  O  O4  1  0.33699746  0.31012247  0.33566329  1
  O  O5  1  0.30009302  0.32379992  0.66867692  1
  O  O6  1  0.69390901  0.68995878  0.00385451  1
  O  O7  1  0.70107462  0.67059001  0.33584962  1
  O  O8  1  0.69524761  0.69075623  0.67107335  1
  O  O9  1  0.78498809  0.15730033  0.18098126  1
  O  O10  1  0.78495490  0.15649109  0.49211759  1
  F  F0  1  0.82783506  0.16671243  0.83723274  1
loop_
_geom_bond_atom_site_label_1
_geom_bond_atom_site_label_2
_geom_bond_distance
_geom_bond_site_symmetry_2
Mg0 O7 1.961110 1_555
Mg0 O1 2.019111 1_555
Mg0 O0 2.019265 1_555
Mg0 O4 2.059729 1_565
Mg0 O10 2.175858 1_565
Mg0 O9 2.177551 1_565
Fe0 O0 1.945907 1_555
Fe0 O2 1.970572 1_554
Fe0 O6 2.054596 1_455
Fe0 O3 2.063285 1_565
Fe0 O9 2.130313 1_465
Fe1 O0 1.855844 1_545
Fe1 O1 1.856866 1_545
Fe1 O10 1.908650 1_455
Fe1 O9 1.909070 1_455
Fe1 O4 2.076980 1_555
Fe1 O7 2.169077 1_445
Fe2 O1 1.947018 1_555
Fe2 O2 1.970329 1_555
Fe2 O8 2.049783 1_455
Fe2 O5 2.055033 1_565
Fe2 O10 2.137986 1_465
Fe3 O6 1.873354 1_555
Fe3 O3 1.899137 1_555
Fe3 O4 1.977168 1_555
Fe3 O7 1.979638 1_555
Fe3 O9 2.029177 1_555
Fe4 O2 1.946832 1_555
Fe4 O5 1.982181 1_555
Fe4 O3 1.990742 1_556
Fe4 O8 1.997761 1_555
Fe4 O6 2.006180 1_556
Fe5 O8 1.884337 1_555
Fe5 O5 1.912801 1_555
Fe5 O7 1.998437 1_555
Fe5 O4 2.000695 1_555
Fe5 O10 2.017105 1_555
F0 Fe0 2.006024 1_646
F0 Fe2 2.008349 1_645
