# generated using pymatgen
data_Na6ZnSi2Sn3(PO6)4
_symmetry_space_group_name_H-M   'P 1'
_cell_length_a   15.54868994
_cell_length_b   9.02928337
_cell_length_c   9.09172066
_cell_angle_alpha   89.60615639
_cell_angle_beta   124.89959068
_cell_angle_gamma   90.06323088
_symmetry_Int_Tables_number   1
_chemical_formula_structural   Na6ZnSi2Sn3(PO6)4
_chemical_formula_sum   'Na12 Zn2 Si4 Sn6 P8 O48'
_cell_volume   1046.83147597
_cell_formula_units_Z   2
loop_
 _symmetry_equiv_pos_site_id
 _symmetry_equiv_pos_as_xyz
  1  'x, y, z'
loop_
 _atom_site_type_symbol
 _atom_site_label
 _atom_site_symmetry_multiplicity
 _atom_site_fract_x
 _atom_site_fract_y
 _atom_site_fract_z
 _atom_site_occupancy
  Na  Na0  1  0.25135679  0.74950731  0.00100087  1
  Na  Na1  1  0.74364367  0.74439531  0.48043962  1
  Na  Na2  1  0.75135679  0.24950731  0.00100087  1
  Na  Na3  1  0.24364367  0.24439531  0.48043962  1
  Na  Na4  1  0.50790740  0.09385638  0.76297815  1
  Na  Na5  1  0.49891899  0.88239171  0.23382208  1
  Na  Na6  1  0.00790740  0.59385638  0.76297815  1
  Na  Na7  1  0.99891899  0.38239171  0.23382208  1
  Na  Na8  1  0.79928162  0.92356921  0.21143944  1
  Na  Na9  1  0.18482728  0.08160008  0.80277194  1
  Na  Na10  1  0.29928162  0.42356921  0.21143944  1
  Na  Na11  1  0.68482728  0.58160008  0.80277194  1
  Zn  Zn0  1  0.10426923  0.24120446  0.05470157  1
  Zn  Zn1  1  0.60426923  0.74120446  0.05470157  1
  Si  Si0  1  0.65036272  0.89937911  0.74888304  1
  Si  Si1  1  0.35266958  0.10012182  0.25464392  1
  Si  Si2  1  0.15036272  0.39937911  0.74888304  1
  Si  Si3  1  0.85266958  0.60012182  0.25464392  1
  Sn  Sn0  1  0.10421101  0.75171161  0.55926960  1
  Sn  Sn1  1  0.89793717  0.75374917  0.93997634  1
  Sn  Sn2  1  0.89716469  0.25118261  0.44410524  1
  Sn  Sn3  1  0.60421101  0.25171161  0.55926960  1
  Sn  Sn4  1  0.39793717  0.25374917  0.93997634  1
  Sn  Sn5  1  0.39716469  0.75118261  0.44410524  1
  P  P0  1  0.99617809  0.95516968  0.74489486  1
  P  P1  1  0.00154153  0.04542890  0.25636607  1
  P  P2  1  0.49617809  0.45516968  0.74489486  1
  P  P3  1  0.50154153  0.54542890  0.25636607  1
  P  P4  1  0.35556137  0.89697850  0.76096351  1
  P  P5  1  0.64807027  0.10958640  0.24773298  1
  P  P6  1  0.85556137  0.39697850  0.76096351  1
  P  P7  1  0.14807027  0.60958640  0.24773298  1
  O  O0  1  0.15689793  0.58201370  0.74110608  1
  O  O1  1  0.85065454  0.57209158  0.75462384  1
  O  O2  1  0.85138802  0.41665218  0.25772164  1
  O  O3  1  0.15371060  0.44045414  0.25025285  1
  O  O4  1  0.65689793  0.08201370  0.74110608  1
  O  O5  1  0.35065454  0.07209158  0.75462384  1
  O  O6  1  0.35138802  0.91665218  0.25772164  1
  O  O7  1  0.65371060  0.94045414  0.25025285  1
  O  O8  1  0.42532090  0.54070144  0.56350444  1
  O  O9  1  0.55775194  0.55531848  0.90490872  1
  O  O10  1  0.56888925  0.45614724  0.43429975  1
  O  O11  1  0.43781696  0.43970069  0.09349586  1
  O  O12  1  0.92532090  0.04070144  0.56350444  1
  O  O13  1  0.05775194  0.05531848  0.90490872  1
  O  O14  1  0.06888925  0.95614724  0.43429975  1
  O  O15  1  0.93781696  0.93970069  0.09349586  1
  O  O16  1  0.25405656  0.84276232  0.74304445  1
  O  O17  1  0.74698473  0.81618728  0.75437397  1
  O  O18  1  0.74359636  0.17471820  0.25496307  1
  O  O19  1  0.25705374  0.18138835  0.24270910  1
  O  O20  1  0.75405656  0.34276232  0.74304445  1
  O  O21  1  0.24698473  0.31618728  0.75437397  1
  O  O22  1  0.24359636  0.67471820  0.25496307  1
  O  O23  1  0.75705374  0.68138835  0.24270910  1
  O  O24  1  0.35470737  0.85685847  0.59389207  1
  O  O25  1  0.64872729  0.86727919  0.92152567  1
  O  O26  1  0.64761208  0.15913225  0.40858806  1
  O  O27  1  0.35680175  0.12993256  0.07731477  1
  O  O28  1  0.85470737  0.35685847  0.59389207  1
  O  O29  1  0.14872729  0.36727919  0.92152567  1
  O  O30  1  0.14761208  0.65913225  0.40858806  1
  O  O31  1  0.85680175  0.62993256  0.07731477  1
  O  O32  1  0.45132402  0.84092817  0.93689965  1
  O  O33  1  0.54596214  0.82607485  0.56577631  1
  O  O34  1  0.54913358  0.16894115  0.06560358  1
  O  O35  1  0.46029474  0.16481058  0.43678119  1
  O  O36  1  0.95132402  0.34092817  0.93689965  1
  O  O37  1  0.04596214  0.32607485  0.56577631  1
  O  O38  1  0.04913358  0.66894115  0.06560358  1
  O  O39  1  0.96029474  0.66481058  0.43678119  1
  O  O40  1  0.08097049  0.86041404  0.74211107  1
  O  O41  1  0.92418888  0.84003889  0.75370029  1
  O  O42  1  0.91217969  0.13084514  0.25508222  1
  O  O43  1  0.07007500  0.15677688  0.24373214  1
  O  O44  1  0.58097049  0.36041404  0.74211107  1
  O  O45  1  0.42418888  0.34003889  0.75370029  1
  O  O46  1  0.41217969  0.63084514  0.25508222  1
  O  O47  1  0.57007500  0.65677688  0.24373214  1
loop_
_geom_bond_atom_site_label_1
_geom_bond_atom_site_label_2
_geom_bond_distance
_geom_bond_site_symmetry_2
Na0 O6 2.456368 1_555
Na0 O22 2.469623 1_555
Na0 O46 2.469653 1_555
Na0 O0 2.469954 1_554
Na0 O16 2.509278 1_554
Na0 O40 2.529758 1_554
Na1 O23 2.360413 1_555
Na1 O47 2.431755 1_555
Na1 O7 2.464725 1_555
Na1 O17 2.549458 1_555
Na1 O1 2.570848 1_555
Na1 O41 2.615767 1_555
Na2 O2 2.456368 1_555
Na2 O18 2.469623 1_555
Na2 O42 2.469653 1_555
Na2 O4 2.469954 1_554
Na2 O20 2.509278 1_554
Na2 O44 2.529758 1_554
Na3 O19 2.360413 1_555
Na3 O43 2.431755 1_555
Na3 O3 2.464725 1_555
Na3 O21 2.549458 1_555
Na3 O5 2.570848 1_555
Na3 O45 2.615767 1_555
Na4 O5 2.410274 1_555
Na4 O4 2.438364 1_555
Na4 O34 2.539134 1_556
Na4 O45 2.553587 1_555
Na4 O35 2.686346 1_555
Na4 O44 2.711768 1_555
Na4 O25 2.723091 1_545
Na4 O24 2.908685 1_545
Na5 O47 2.295762 1_555
Na5 O7 2.382596 1_555
Na5 O32 2.388012 1_554
Na5 O6 2.444953 1_555
Na5 O46 2.701952 1_555
Na5 O33 2.712155 1_555
Na5 O27 2.876218 1_565
Na6 O1 2.410274 1_455
Na6 O0 2.438364 1_555
Na6 O38 2.539134 1_556
Na6 O41 2.553587 1_455
Na6 O39 2.686346 1_455
Na6 O40 2.711768 1_555
Na6 O29 2.723091 1_555
Na6 O28 2.908685 1_455
Na7 O43 2.295762 1_655
Na7 O3 2.382596 1_655
Na7 O36 2.388012 1_554
Na7 O2 2.444953 1_555
Na7 O42 2.701952 1_555
Na7 O37 2.712155 1_655
Na7 O31 2.876218 1_555
Na8 O23 2.344260 1_555
Na8 O25 2.375095 1_554
Na8 O42 2.438765 1_565
Na8 O7 2.487245 1_555
Na8 O18 2.541143 1_565
Na8 O12 2.840560 1_565
Na8 O15 2.907092 1_555
Na9 O40 2.426809 1_545
Na9 O27 2.438431 1_556
Na9 O21 2.466484 1_555
Na9 O16 2.606586 1_545
Na9 O13 2.630218 1_555
Na10 O19 2.344260 1_555
Na10 O29 2.375095 1_554
Na10 O46 2.438765 1_555
Na10 O3 2.487245 1_555
Na10 O22 2.541143 1_555
Na10 O8 2.840560 1_555
Na10 O11 2.907092 1_555
Na11 O44 2.426809 1_555
Na11 O31 2.438431 1_556
Na11 O17 2.466484 1_555
Na11 O20 2.606586 1_555
Na11 O9 2.630218 1_555
O0 Si2 1.655588 1_555
O0 Sn0 2.042109 1_555
O1 P6 1.582133 1_555
O1 Sn1 2.165262 1_555
O2 Si3 1.656934 1_555
O2 Sn2 2.048842 1_555
O3 P7 1.529019 1_555
O3 Zn0 2.337853 1_555
O4 Si0 1.655588 1_545
O4 Sn3 2.042109 1_555
O5 P4 1.582133 1_545
O5 Sn4 2.165262 1_555
O6 Si1 1.656934 1_565
O6 Sn5 2.048842 1_555
O7 P5 1.529019 1_565
O7 Zn1 2.337853 1_555
O8 P2 1.560528 1_555
O8 Sn5 2.100383 1_555
O9 P2 1.507700 1_555
O9 Zn1 2.023989 1_556
O10 P3 1.552082 1_555
O10 Sn3 2.063807 1_555
O11 P3 1.557001 1_555
O11 Sn4 2.047260 1_554
O12 P0 1.560528 1_545
O12 Sn2 2.100383 1_555
O13 P0 1.507700 1_445
O13 Zn0 2.023989 1_556
O14 P1 1.552082 1_565
O14 Sn0 2.063807 1_555
O15 P1 1.557001 1_665
O15 Sn1 2.047260 1_554
O16 P4 1.569165 1_555
O16 Sn0 2.110953 1_555
O17 Si0 1.655275 1_555
O17 Sn1 2.032739 1_555
O18 P5 1.563070 1_555
O18 Sn2 2.109377 1_555
O19 Si1 1.605367 1_555
O19 Zn0 2.049525 1_555
O20 P6 1.569165 1_555
O20 Sn3 2.110953 1_555
O21 Si2 1.655275 1_555
O21 Sn4 2.032739 1_555
O22 P7 1.563070 1_555
O22 Sn5 2.109377 1_555
O23 Si3 1.605367 1_555
O23 Zn1 2.049525 1_555
O24 P4 1.556644 1_555
O24 Sn5 2.061260 1_555
O25 Si0 1.608651 1_555
O25 Zn1 2.043724 1_556
O26 P5 1.536186 1_555
O26 Sn3 2.026278 1_555
O27 Si1 1.669845 1_555
O27 Sn4 2.027599 1_554
O28 P6 1.556644 1_555
O28 Sn2 2.061260 1_555
O29 Si2 1.608651 1_555
O29 Zn0 2.043724 1_556
O30 P7 1.536186 1_555
O30 Sn0 2.026278 1_555
O31 Si3 1.669845 1_555
O31 Sn1 2.027599 1_554
O32 P4 1.515579 1_555
O32 Zn1 2.165689 1_556
O33 Si0 1.662850 1_555
O33 Sn5 2.027804 1_555
O34 P5 1.571756 1_555
O34 Sn4 2.082570 1_554
O35 Si1 1.650423 1_555
O35 Sn3 2.004947 1_555
O36 P6 1.515579 1_555
O36 Zn0 2.165689 1_656
O37 Si2 1.662850 1_555
O37 Sn2 2.027804 1_455
O38 P7 1.571756 1_555
O38 Sn1 2.082570 1_454
O39 Si3 1.650423 1_555
O39 Sn0 2.004947 1_655
O40 P0 1.584874 1_455
O40 Sn0 2.137266 1_555
O41 P0 1.561670 1_555
O41 Sn1 2.100956 1_555
O42 P1 1.584058 1_655
O42 Sn2 2.161909 1_555
O43 P1 1.515134 1_555
O43 Zn0 2.200935 1_555
O44 P2 1.584874 1_555
O44 Sn3 2.137266 1_555
O45 P2 1.561670 1_555
O45 Sn4 2.100956 1_555
O46 P3 1.584058 1_555
O46 Sn5 2.161909 1_555
O47 P3 1.515134 1_555
O47 Zn1 2.200935 1_555
