# generated using pymatgen
data_V3Ir
_symmetry_space_group_name_H-M   'P 1'
_cell_length_a   4.76271615
_cell_length_b   4.76271615
_cell_length_c   4.76271615
_cell_angle_alpha   90.00000000
_cell_angle_beta   90.00000000
_cell_angle_gamma   90.00000000
_symmetry_Int_Tables_number   1
_chemical_formula_structural   V3Ir
_chemical_formula_sum   'V6 Ir2'
_cell_volume   108.03490569
_cell_formula_units_Z   2
loop_
 _symmetry_equiv_pos_site_id
 _symmetry_equiv_pos_as_xyz
  1  'x, y, z'
loop_
 _atom_site_type_symbol
 _atom_site_label
 _atom_site_symmetry_multiplicity
 _atom_site_fract_x
 _atom_site_fract_y
 _atom_site_fract_z
 _atom_site_occupancy
  V  V0  1  0.50000000  0.25000000  -0.00000000  1
  V  V1  1  0.50000000  0.75000000  -0.00000000  1
  V  V2  1  0.25000000  0.00000000  0.50000000  1
  V  V3  1  0.75000000  0.00000000  0.50000000  1
  V  V4  1  0.00000000  0.50000000  0.25000000  1
  V  V5  1  0.00000000  0.50000000  0.75000000  1
  Ir  Ir0  1  0.50000000  0.50000000  0.50000000  1
  Ir  Ir1  1  0.00000000  0.00000000  -0.00000000  1
loop_
_geom_bond_atom_site_label_1
_geom_bond_atom_site_label_2
_geom_bond_distance
_geom_bond_site_symmetry_2
V0 V1 2.381358 1_545
V0 V1 2.381358 1_555
V0 V3 2.916556 1_554
V0 V5 2.916556 1_654
V0 V4 2.916556 1_655
V0 V2 2.916556 1_555
V0 V5 2.916556 1_554
V0 V2 2.916556 1_554
V0 V3 2.916556 1_555
V0 V4 2.916556 1_555
V1 V2 2.916556 1_565
V1 V5 2.916556 1_654
V1 V4 2.916556 1_655
V1 V3 2.916556 1_565
V1 V2 2.916556 1_564
V1 V5 2.916556 1_554
V1 V3 2.916556 1_564
V1 V4 2.916556 1_555
V2 V3 2.381358 1_455
V2 V3 2.381358 1_555
V2 V5 2.916556 1_545
V2 V4 2.916556 1_545
V2 V4 2.916556 1_555
V2 V5 2.916556 1_555
V3 V4 2.916556 1_655
V3 V5 2.916556 1_645
V3 V5 2.916556 1_655
V3 V4 2.916556 1_645
V4 V5 2.381358 1_554
V4 V5 2.381358 1_555
Ir0 V1 2.662439 1_555
Ir0 V5 2.662439 1_555
Ir0 V2 2.662439 1_565
Ir0 V1 2.662439 1_556
Ir0 V4 2.662439 1_655
Ir0 V2 2.662439 1_555
Ir0 V3 2.662439 1_565
Ir0 V5 2.662439 1_655
Ir0 V0 2.662439 1_555
Ir0 V3 2.662439 1_555
Ir0 V4 2.662439 1_555
Ir0 V0 2.662439 1_556
Ir1 V4 2.662439 1_545
Ir1 V2 2.662439 1_555
Ir1 V3 2.662439 1_454
Ir1 V5 2.662439 1_554
Ir1 V1 2.662439 1_445
Ir1 V0 2.662439 1_455
Ir1 V2 2.662439 1_554
Ir1 V0 2.662439 1_555
Ir1 V3 2.662439 1_455
Ir1 V4 2.662439 1_555
Ir1 V1 2.662439 1_545
Ir1 V5 2.662439 1_544
