# generated using pymatgen
data_US
_symmetry_space_group_name_H-M   'P 1'
_cell_length_a   3.96815343
_cell_length_b   3.96815227
_cell_length_c   3.96815307
_cell_angle_alpha   59.99999337
_cell_angle_beta   60.00000306
_cell_angle_gamma   59.99999782
_symmetry_Int_Tables_number   1
_chemical_formula_structural   US
_chemical_formula_sum   'U1 S1'
_cell_volume   44.18248961
_cell_formula_units_Z   1
loop_
 _symmetry_equiv_pos_site_id
 _symmetry_equiv_pos_as_xyz
  1  'x, y, z'
loop_
 _atom_site_type_symbol
 _atom_site_label
 _atom_site_symmetry_multiplicity
 _atom_site_fract_x
 _atom_site_fract_y
 _atom_site_fract_z
 _atom_site_occupancy
  U  U0  1  0.50000000  0.50000000  0.50000000  1
  S  S0  1  0.00000000  0.00000000  -0.00000000  1
loop_
_geom_bond_atom_site_label_1
_geom_bond_atom_site_label_2
_geom_bond_distance
_geom_bond_site_symmetry_2
S0 U0 2.805908 1_554
S0 U0 2.805908 1_445
S0 U0 2.805908 1_455
S0 U0 2.805908 1_454
S0 U0 2.805908 1_545
S0 U0 2.805908 1_544
