# generated using pymatgen
data_MgMn4(FeO4)2
_symmetry_space_group_name_H-M   'P 1'
_cell_length_a   6.19690019
_cell_length_b   6.59098585
_cell_length_c   6.45023505
_cell_angle_alpha   124.50211541
_cell_angle_beta   119.75485799
_cell_angle_gamma   88.92781447
_symmetry_Int_Tables_number   1
_chemical_formula_structural   MgMn4(FeO4)2
_chemical_formula_sum   'Mg1 Mn4 Fe2 O8'
_cell_volume   175.35176865
_cell_formula_units_Z   1
loop_
 _symmetry_equiv_pos_site_id
 _symmetry_equiv_pos_as_xyz
  1  'x, y, z'
loop_
 _atom_site_type_symbol
 _atom_site_label
 _atom_site_symmetry_multiplicity
 _atom_site_fract_x
 _atom_site_fract_y
 _atom_site_fract_z
 _atom_site_occupancy
  Mg  Mg0  1  0.87500000  0.12500000  0.75000000  1
  Mn  Mn0  1  0.87500000  0.62500000  0.25000000  1
  Mn  Mn1  1  0.37500000  0.62500000  0.25000000  1
  Mn  Mn2  1  0.37500000  0.12500000  0.75000000  1
  Mn  Mn3  1  0.37500000  0.62500000  0.75000000  1
  Fe  Fe0  1  0.03689000  0.97044100  0.06315200  1
  Fe  Fe1  1  0.71311000  0.27955900  0.43684800  1
  O  O0  1  0.62075500  0.43417500  0.23433500  1
  O  O1  1  0.62801700  0.89981800  0.26542100  1
  O  O2  1  0.12198300  0.35018200  0.23457900  1
  O  O3  1  0.64691300  0.38073100  0.78511400  1
  O  O4  1  0.61817900  0.86909800  0.71453800  1
  O  O5  1  0.13182100  0.38090200  0.78546200  1
  O  O6  1  0.12924500  0.81582500  0.26566500  1
  O  O7  1  0.10308700  0.86926900  0.71488600  1
loop_
_geom_bond_atom_site_label_1
_geom_bond_atom_site_label_2
_geom_bond_distance
_geom_bond_site_symmetry_2
Mg0 O1 2.096706 1_545
Mg0 O2 2.096706 1_656
Mg0 O7 2.164759 1_645
Mg0 O3 2.164759 1_555
Mg0 O4 2.175318 1_545
Mg0 O5 2.175318 1_655
Mn0 O6 1.961263 1_655
Mn0 O0 1.961263 1_555
Mn0 O7 1.997656 1_655
Mn0 O3 1.997656 1_554
Mn0 O2 2.340203 1_655
Mn0 O1 2.340203 1_555
Mn1 O6 1.961747 1_555
Mn1 O0 1.961747 1_555
Mn1 O4 1.996286 1_555
Mn1 O5 1.996286 1_554
Mn1 O1 2.344468 1_555
Mn1 O2 2.344468 1_555
Mn2 O0 2.100791 1_556
Mn2 O6 2.100791 1_545
Mn2 O4 2.231137 1_545
Mn2 O5 2.231137 1_555
Mn2 O7 2.241997 1_545
Mn2 O3 2.241997 1_555
Mn3 O1 2.214129 1_556
Mn3 O2 2.214129 1_555
Mn3 O3 2.327093 1_555
Mn3 O7 2.327093 1_555
Mn3 O5 2.400292 1_555
Mn3 O4 2.400292 1_555
Fe0 O6 1.953595 1_555
Fe0 O2 2.024959 1_565
Fe0 O4 2.192509 1_454
Fe0 O7 2.206055 1_554
Fe1 O0 1.953595 1_555
Fe1 O1 2.024959 1_545
Fe1 O5 2.192509 1_655
Fe1 O3 2.206055 1_555
