# generated using pymatgen
data_Rb2PuCl5
_symmetry_space_group_name_H-M   'P 1'
_cell_length_a   8.16564971
_cell_length_b   8.97525627
_cell_length_c   13.15850598
_cell_angle_alpha   90.00010773
_cell_angle_beta   89.99793265
_cell_angle_gamma   89.99983988
_symmetry_Int_Tables_number   1
_chemical_formula_structural   Rb2PuCl5
_chemical_formula_sum   'Rb8 Pu4 Cl20'
_cell_volume   964.37109558
_cell_formula_units_Z   4
loop_
 _symmetry_equiv_pos_site_id
 _symmetry_equiv_pos_as_xyz
  1  'x, y, z'
loop_
 _atom_site_type_symbol
 _atom_site_label
 _atom_site_symmetry_multiplicity
 _atom_site_fract_x
 _atom_site_fract_y
 _atom_site_fract_z
 _atom_site_occupancy
  Rb  Rb0  1  0.44118621  0.50590070  0.66943912  1
  Rb  Rb1  1  0.94117348  0.49405607  0.83059963  1
  Rb  Rb2  1  0.55880349  0.00590350  0.33058177  1
  Rb  Rb3  1  0.05879123  0.99406929  0.16940091  1
  Rb  Rb4  1  0.94115875  0.00593133  0.83059699  1
  Rb  Rb5  1  0.44120121  0.99407679  0.66943031  1
  Rb  Rb6  1  0.05878476  0.50593742  0.16940970  1
  Rb  Rb7  1  0.55878708  0.49410515  0.33057023  1
  Pu  Pu0  1  0.93529290  0.74999989  0.50234209  1
  Pu  Pu1  1  0.43530973  0.25000766  0.99763704  1
  Pu  Pu2  1  0.06474282  0.24998918  0.49767599  1
  Pu  Pu3  1  0.56469128  0.75000727  0.00233670  1
  Cl  Cl0  1  0.33554253  0.96035470  0.92829396  1
  Cl  Cl1  1  0.83545768  0.03968185  0.57177338  1
  Cl  Cl2  1  0.66443643  0.46035233  0.07168012  1
  Cl  Cl3  1  0.16455543  0.53964949  0.42820749  1
  Cl  Cl4  1  0.66446068  0.03968040  0.07166259  1
  Cl  Cl5  1  0.16456988  0.96033782  0.42821591  1
  Cl  Cl6  1  0.33554029  0.53965839  0.92830012  1
  Cl  Cl7  1  0.83550897  0.46032003  0.57180459  1
  Cl  Cl8  1  0.38458881  0.75002555  0.17804831  1
  Cl  Cl9  1  0.88463368  0.25000333  0.32192745  1
  Cl  Cl10  1  0.61541487  0.25001164  0.82193793  1
  Cl  Cl11  1  0.11536542  0.75001126  0.67810029  1
  Cl  Cl12  1  0.90741752  0.74999848  0.00999381  1
  Cl  Cl13  1  0.40755810  0.24999438  0.48998091  1
  Cl  Cl14  1  0.09256421  0.25000056  0.99000699  1
  Cl  Cl15  1  0.59243242  0.74997230  0.51004052  1
  Cl  Cl16  1  0.65204463  0.74999095  0.80143520  1
  Cl  Cl17  1  0.15202752  0.24997476  0.69861497  1
  Cl  Cl18  1  0.34798410  0.24999564  0.19857070  1
  Cl  Cl19  1  0.84797288  0.74999988  0.30138129  1
loop_
_geom_bond_atom_site_label_1
_geom_bond_atom_site_label_2
_geom_bond_distance
_geom_bond_site_symmetry_2
Cl0 Pu3 2.831044 1_556
Cl0 Pu1 2.873115 1_565
Cl0 Rb4 3.491594 1_465
Cl0 Rb5 3.526808 1_555
Cl1 Pu2 2.831748 1_655
Cl1 Pu0 2.873854 1_545
Cl1 Rb5 3.490388 1_545
Cl1 Rb4 3.526465 1_555
Cl2 Pu1 2.830914 1_554
Cl2 Pu3 2.873081 1_555
Cl2 Rb6 3.491496 1_655
Cl2 Rb7 3.527148 1_555
Cl3 Pu0 2.832043 1_455
Cl3 Pu2 2.873789 1_555
Cl3 Rb7 3.490039 1_555
Cl3 Rb6 3.526246 1_555
Cl4 Pu1 2.830857 1_554
Cl4 Pu3 2.873212 1_545
Cl4 Rb3 3.491430 1_645
Cl4 Rb2 3.527553 1_555
Cl5 Pu0 2.832018 1_455
Cl5 Pu2 2.873707 1_565
Cl5 Rb2 3.490064 1_565
Cl5 Rb3 3.526496 1_555
Cl6 Pu3 2.831041 1_556
Cl6 Pu1 2.873076 1_555
Cl6 Rb1 3.491512 1_455
Cl6 Rb0 3.526775 1_555
Cl7 Pu2 2.831744 1_655
Cl7 Pu0 2.873856 1_555
Cl7 Rb0 3.490750 1_555
Cl7 Rb1 3.526017 1_555
Cl8 Pu3 2.740145 1_555
Cl8 Rb2 3.365511 1_565
Cl8 Rb7 3.365624 1_555
Cl8 Rb3 3.447905 1_555
Cl8 Rb6 3.448204 1_555
Cl9 Pu2 2.740674 1_655
Cl9 Rb6 3.365456 1_655
Cl9 Rb3 3.365537 1_645
Cl9 Rb2 3.448436 1_555
Cl9 Rb7 3.448536 1_555
Cl10 Pu1 2.740018 1_555
Cl10 Rb0 3.365355 1_555
Cl10 Rb5 3.365653 1_545
Cl10 Rb1 3.447679 1_555
Cl10 Rb4 3.447780 1_555
Cl11 Pu0 2.740620 1_455
Cl11 Rb4 3.365386 1_465
Cl11 Rb1 3.365582 1_455
Cl11 Rb5 3.448283 1_555
Cl11 Rb0 3.448432 1_555
Cl12 Pu3 2.800399 1_555
Cl12 Rb6 3.275132 1_655
Cl12 Rb3 3.275136 1_655
Cl12 Rb4 3.305267 1_564
Cl12 Rb1 3.305305 1_554
Cl13 Pu2 2.801137 1_555
Cl13 Rb2 3.274732 1_555
Cl13 Rb7 3.274908 1_555
Cl13 Rb0 3.305610 1_555
Cl13 Rb5 3.305613 1_545
Cl14 Pu1 2.800544 1_555
Cl14 Rb1 3.275099 1_455
Cl14 Rb4 3.275249 1_455
Cl14 Rb3 3.305252 1_546
Cl14 Rb6 3.305366 1_556
Cl15 Pu0 2.801507 1_555
Cl15 Rb0 3.274624 1_555
Cl15 Rb5 3.274692 1_555
Cl15 Rb7 3.305491 1_555
Cl15 Rb2 3.305776 1_565
Cl16 Pu3 2.738080 1_556
Cl16 Rb5 3.283413 1_555
Cl16 Rb0 3.283445 1_555
Cl16 Rb4 3.316255 1_565
Cl16 Rb1 3.316302 1_555
Cl17 Pu2 2.738460 1_555
Cl17 Rb4 3.283050 1_455
Cl17 Rb1 3.283221 1_455
Cl17 Rb5 3.316343 1_545
Cl17 Rb0 3.316427 1_555
Cl18 Pu1 2.738430 1_554
Cl18 Rb7 3.283347 1_555
Cl18 Rb2 3.283391 1_555
Cl18 Rb3 3.316637 1_545
Cl18 Rb6 3.316749 1_555
Cl19 Pu0 2.738813 1_555
Cl19 Rb6 3.282837 1_655
Cl19 Rb3 3.282978 1_655
Cl19 Rb2 3.316377 1_565
Cl19 Rb7 3.316410 1_555
