# generated using pymatgen
data_Na3Nb5ZnSi6(SO12)3
_symmetry_space_group_name_H-M   'P 1'
_cell_length_a   8.87684849
_cell_length_b   8.87684819
_cell_length_c   22.99797160
_cell_angle_alpha   89.63252157
_cell_angle_beta   90.36747843
_cell_angle_gamma   119.76361615
_symmetry_Int_Tables_number   1
_chemical_formula_structural   Na3Nb5ZnSi6(SO12)3
_chemical_formula_sum   'Na6 Nb10 Zn2 Si12 S6 O72'
_cell_volume   1573.09654957
_cell_formula_units_Z   2
loop_
 _symmetry_equiv_pos_site_id
 _symmetry_equiv_pos_as_xyz
  1  'x, y, z'
loop_
 _atom_site_type_symbol
 _atom_site_label
 _atom_site_symmetry_multiplicity
 _atom_site_fract_x
 _atom_site_fract_y
 _atom_site_fract_z
 _atom_site_occupancy
  Na  Na0  1  0.00339143  0.99700681  0.49965698  1
  Na  Na1  1  0.00299319  0.99660857  0.99965698  1
  Na  Na2  1  0.66703404  0.32438312  0.82898888  1
  Na  Na3  1  0.67561688  0.33296596  0.32898888  1
  Na  Na4  1  0.32553027  0.65672954  0.16499775  1
  Na  Na5  1  0.34327046  0.67446973  0.66499775  1
  Nb  Nb0  1  0.99449623  0.00784383  0.35751608  1
  Nb  Nb1  1  0.99215617  0.00550377  0.85751608  1
  Nb  Nb2  1  0.98627936  0.98720585  0.64242138  1
  Nb  Nb3  1  0.01279415  0.01372064  0.14242138  1
  Nb  Nb4  1  0.66372175  0.34571799  0.97702993  1
  Nb  Nb5  1  0.65428201  0.33627825  0.47702993  1
  Nb  Nb6  1  0.32111293  0.65570302  0.01994682  1
  Nb  Nb7  1  0.34429698  0.67888707  0.51994682  1
  Nb  Nb8  1  0.32289521  0.65659331  0.31449086  1
  Nb  Nb9  1  0.34340669  0.67710479  0.81449086  1
  Zn  Zn0  1  0.65204980  0.31630868  0.68326209  1
  Zn  Zn1  1  0.68369132  0.34795020  0.18326209  1
  Si  Si0  1  0.99035709  0.29132583  0.24863762  1
  Si  Si1  1  0.70867417  0.00964291  0.74863762  1
  Si  Si2  1  0.37930065  0.04614194  0.58586450  1
  Si  Si3  1  0.65851666  0.60760365  0.58682759  1
  Si  Si4  1  0.95385806  0.62069935  0.08586450  1
  Si  Si5  1  0.39239635  0.34148334  0.08682759  1
  Si  Si6  1  0.61868957  0.66954225  0.91811083  1
  Si  Si7  1  0.04318085  0.38332860  0.91470839  1
  Si  Si8  1  0.33551775  0.95750127  0.91746966  1
  Si  Si9  1  0.61667140  0.95681915  0.41470839  1
  Si  Si10  1  0.33045775  0.38131043  0.41811083  1
  Si  Si11  1  0.04249873  0.66448225  0.41746966  1
  S  S0  1  0.28783331  0.00050511  0.25048039  1
  S  S1  1  0.71219445  0.71436867  0.25054921  1
  S  S2  1  0.28563133  0.28780555  0.75054921  1
  S  S3  1  -0.00050511  0.71216669  0.75048039  1
  S  S4  1  0.95771781  0.33651416  0.58431922  1
  S  S5  1  0.66348584  0.04228219  0.08431922  1
  O  O0  1  0.19682464  0.01481634  0.30219889  1
  O  O1  1  0.81999530  0.80255612  0.30342233  1
  O  O2  1  0.98461026  0.16873361  0.30517287  1
  O  O3  1  0.19744388  0.18000470  0.80342233  1
  O  O4  1  0.98518366  0.80317536  0.80219889  1
  O  O5  1  0.83126639  0.01538974  0.80517287  1
  O  O6  1  0.81206250  0.97676833  0.69384486  1
  O  O7  1  0.17890282  0.20338675  0.69814348  1
  O  O8  1  0.02805801  0.82281821  0.69669848  1
  O  O9  1  0.79661325  0.82109718  0.19814348  1
  O  O10  1  0.02323167  0.18793750  0.19384486  1
  O  O11  1  0.17718179  0.97194199  0.19669848  1
  O  O12  1  0.88723182  0.36385683  0.63674219  1
  O  O13  1  0.49177862  0.10937198  0.64272619  1
  O  O14  1  0.63793221  0.50686929  0.64523995  1
  O  O15  1  0.89062802  0.50822138  0.14272619  1
  O  O16  1  0.63614317  0.11276818  0.13674219  1
  O  O17  1  0.49313071  0.36206779  0.14523995  1
  O  O18  1  0.47018014  0.30318450  0.02663928  1
  O  O19  1  0.83376944  0.52822696  0.02658708  1
  O  O20  1  0.69679098  0.14963630  0.03109667  1
  O  O21  1  0.47177304  0.16623056  0.52658708  1
  O  O22  1  0.69681550  0.52981986  0.52663928  1
  O  O23  1  0.85036370  0.30320902  0.53109667  1
  O  O24  1  0.53321014  0.70187900  0.97438114  1
  O  O25  1  0.16526885  0.46636954  0.97242337  1
  O  O26  1  0.30215264  0.83274306  0.97313270  1
  O  O27  1  0.53363046  0.83473115  0.47242337  1
  O  O28  1  0.29812100  0.46678986  0.47438114  1
  O  O29  1  0.16725694  0.69784736  0.47313270  1
  O  O30  1  0.13733470  0.63608524  0.35959495  1
  O  O31  1  0.49823029  0.86208516  0.35766061  1
  O  O32  1  0.36243941  0.49976157  0.35937717  1
  O  O33  1  0.13791484  0.50176971  0.85766061  1
  O  O34  1  0.36391476  0.86266530  0.85959495  1
  O  O35  1  0.50023843  0.63756059  0.85937717  1
  O  O36  1  0.02442083  0.83560391  0.40461521  1
  O  O37  1  0.80824334  0.97064925  0.40791239  1
  O  O38  1  0.16504913  0.18631095  0.40779860  1
  O  O39  1  0.02935075  0.19175666  0.90791239  1
  O  O40  1  0.16439609  0.97557917  0.90461521  1
  O  O41  1  0.81368905  0.83495087  0.90779860  1
  O  O42  1  0.97841424  0.17506030  0.59009729  1
  O  O43  1  0.18298660  0.02693243  0.59289067  1
  O  O44  1  0.83381126  0.81161706  0.59111224  1
  O  O45  1  0.97306757  0.81701340  0.09289067  1
  O  O46  1  0.82493970  0.02158576  0.09009729  1
  O  O47  1  0.18838294  0.16618874  0.09111224  1
  O  O48  1  0.69699690  0.18210084  0.74781127  1
  O  O49  1  0.45890872  0.30898462  0.74883161  1
  O  O50  1  0.84618822  0.54249416  0.74566081  1
  O  O51  1  0.69101538  0.54109128  0.24883161  1
  O  O52  1  0.81789916  0.30300310  0.24781127  1
  O  O53  1  0.45750584  0.15381178  0.24566081  1
  O  O54  1  0.63976792  0.49718681  0.92200576  1
  O  O55  1  0.85081254  0.35343200  0.92512195  1
  O  O56  1  0.50808897  0.14522001  0.92526408  1
  O  O57  1  0.64656800  0.14918746  0.42512195  1
  O  O58  1  0.50281319  0.36023208  0.42200576  1
  O  O59  1  0.85477999  0.49191103  0.42526408  1
  O  O60  1  0.35678089  0.50412342  0.07477088  1
  O  O61  1  0.15350807  0.65757055  0.07310522  1
  O  O62  1  0.51333952  0.86454643  0.07595237  1
  O  O63  1  0.34242945  0.84649193  0.57310522  1
  O  O64  1  0.49587658  0.64321911  0.57477088  1
  O  O65  1  0.13545357  0.48666048  0.57595237  1
  O  O66  1  0.30065980  0.83848128  0.25473852  1
  O  O67  1  0.53880177  0.70507943  0.25574461  1
  O  O68  1  0.17540348  0.47990830  0.25620613  1
  O  O69  1  0.29492057  0.46119823  0.75574461  1
  O  O70  1  0.16151872  0.69934020  0.75473852  1
  O  O71  1  0.52009170  0.82459652  0.75620613  1
loop_
_geom_bond_atom_site_label_1
_geom_bond_atom_site_label_2
_geom_bond_distance
_geom_bond_site_symmetry_2
Na0 O43 2.598593 1_565
Na0 O44 2.633390 1_455
Na0 O38 2.635365 1_565
Na0 O37 2.657911 1_455
Na0 O36 2.678833 1_555
Na0 O42 2.696199 1_465
Na1 O45 2.598593 1_456
Na1 O47 2.633390 1_566
Na1 O41 2.635365 1_455
Na1 O39 2.657911 1_565
Na1 O40 2.678833 1_555
Na1 O46 2.696199 1_466
Na2 O48 2.349786 1_555
Na2 O49 2.557161 1_555
Na2 O50 2.623872 1_555
Na2 O55 2.675666 1_555
Na2 O56 2.681326 1_555
Na2 O54 2.721234 1_555
Na3 O52 2.349786 1_555
Na3 O51 2.557161 1_555
Na3 O53 2.623872 1_555
Na3 O57 2.675666 1_555
Na3 O59 2.681326 1_555
Na3 O58 2.721234 1_555
Na4 O68 2.560557 1_555
Na4 O60 2.575729 1_555
Na4 O61 2.601493 1_555
Na4 O67 2.697769 1_555
Na4 O66 2.704337 1_555
Na4 O62 2.705203 1_555
Na5 O71 2.560557 1_555
Na5 O64 2.575729 1_555
Na5 O63 2.601493 1_555
Na5 O69 2.697769 1_555
Na5 O70 2.704337 1_555
Na5 O65 2.705203 1_555
Nb0 O2 1.896727 1_555
Nb0 O37 1.914039 1_545
Nb0 O38 1.938779 1_655
Nb0 O36 1.989934 1_645
Nb0 O1 2.114163 1_545
Nb0 O0 2.183109 1_655
Nb1 O5 1.896727 1_555
Nb1 O39 1.914039 1_655
Nb1 O41 1.938779 1_545
Nb1 O40 1.989934 1_645
Nb1 O3 2.114163 1_655
Nb1 O4 2.183109 1_545
Nb2 O44 1.887407 1_555
Nb2 O6 1.917983 1_555
Nb2 O43 1.969752 1_665
Nb2 O42 2.079047 1_565
Nb2 O8 2.081609 1_655
Nb2 O7 2.234761 1_665
Nb3 O47 1.887407 1_555
Nb3 O10 1.917983 1_555
Nb3 O45 1.969752 1_445
Nb3 O46 2.079047 1_455
Nb3 O11 2.081609 1_545
Nb3 O9 2.234761 1_445
Nb4 O54 1.926914 1_555
Nb4 O18 1.942032 1_556
Nb4 O19 1.943148 1_556
Nb4 O56 2.014554 1_555
Nb4 O55 2.024709 1_555
Nb4 O20 2.266445 1_556
Nb5 O58 1.926914 1_555
Nb5 O22 1.942032 1_555
Nb5 O21 1.943148 1_555
Nb5 O59 2.014554 1_555
Nb5 O57 2.024709 1_555
Nb5 O23 2.266445 1_555
Nb6 O25 1.904933 1_554
Nb6 O61 1.938170 1_555
Nb6 O26 1.973787 1_554
Nb6 O60 1.973973 1_555
Nb6 O24 2.016060 1_554
Nb6 O62 2.206624 1_555
Nb7 O27 1.904933 1_555
Nb7 O63 1.938170 1_555
Nb7 O29 1.973788 1_555
Nb7 O64 1.973973 1_555
Nb7 O28 2.016060 1_555
Nb7 O65 2.206624 1_555
Nb8 O30 1.882593 1_555
Nb8 O32 1.894493 1_555
Nb8 O31 1.979942 1_555
Nb8 O68 1.984064 1_555
Nb8 O66 2.195157 1_555
Nb8 O67 2.211463 1_555
Nb9 O34 1.882593 1_555
Nb9 O35 1.894493 1_555
Nb9 O33 1.979942 1_555
Nb9 O71 1.984064 1_555
Nb9 O70 2.195157 1_555
Nb9 O69 2.211463 1_555
O0 S0 1.483130 1_555
O1 S1 1.503550 1_555
O2 Si0 1.674797 1_555
O3 S2 1.503550 1_555
O4 S3 1.483130 1_655
O5 Si1 1.674797 1_555
O6 Si1 1.673564 1_565
O7 S2 1.484511 1_555
O8 S3 1.516611 1_555
O9 S1 1.484511 1_555
O10 Si0 1.673564 1_455
O11 S0 1.516611 1_565
O12 S4 1.438102 1_555
O12 Zn0 2.197532 1_555
O13 Si2 1.567894 1_555
O13 Zn0 1.917747 1_555
O14 Si3 1.569438 1_555
O14 Zn0 1.957515 1_555
O15 Si4 1.567894 1_555
O15 Zn1 1.917747 1_555
O16 S5 1.438102 1_555
O16 Zn1 2.197532 1_555
O17 Si5 1.569438 1_555
O17 Zn1 1.957515 1_555
O18 Si5 1.661244 1_555
O19 Si4 1.672004 1_555
O20 S5 1.484489 1_555
O21 Si2 1.672004 1_555
O22 Si3 1.661244 1_555
O23 S4 1.484489 1_555
O24 Si6 1.602021 1_555
O25 Si7 1.637265 1_555
O26 Si8 1.616774 1_555
O27 Si9 1.637265 1_555
O28 Si10 1.602021 1_555
O29 Si11 1.616774 1_555
O30 Si11 1.665285 1_555
O31 Si9 1.628656 1_555
O32 Si10 1.643490 1_555
O33 Si7 1.628656 1_555
O34 Si8 1.665285 1_555
O35 Si6 1.643490 1_555
O36 Si11 1.629793 1_555
O37 Si9 1.651445 1_555
O38 Si10 1.638852 1_555
O39 Si7 1.651445 1_555
O40 Si8 1.629793 1_555
O41 Si6 1.638852 1_555
O42 S4 1.537577 1_555
O43 Si2 1.673393 1_555
O44 Si3 1.706812 1_555
O45 Si4 1.673393 1_555
O46 S5 1.537577 1_555
O47 Si5 1.706812 1_555
O48 Si1 1.584885 1_555
O48 Zn0 2.055208 1_555
O49 S2 1.454788 1_555
O49 Zn0 2.266910 1_555
O50 S3 1.448434 1_655
O50 Zn0 2.372849 1_555
O51 S1 1.454788 1_555
O51 Zn1 2.266910 1_555
O52 Si0 1.584885 1_555
O52 Zn1 2.055208 1_555
O53 S0 1.448434 1_555
O53 Zn1 2.372849 1_555
O54 Si6 1.632820 1_555
O55 Si7 1.611911 1_655
O56 Si8 1.619089 1_545
O57 Si9 1.611911 1_545
O58 Si10 1.632820 1_555
O59 Si11 1.619089 1_655
O60 Si5 1.645634 1_555
O61 Si4 1.662430 1_455
O62 S5 1.488455 1_565
O63 Si2 1.662430 1_565
O64 Si3 1.645634 1_555
O65 S4 1.488455 1_455
O66 S0 1.500595 1_565
O67 S1 1.505448 1_555
O68 Si0 1.673564 1_455
O69 S2 1.505448 1_555
O70 S3 1.500595 1_555
O71 Si1 1.673564 1_565
