# generated using pymatgen
data_Na3ZrInSi2SO12
_symmetry_space_group_name_H-M   'P 1'
_cell_length_a   9.23282361
_cell_length_b   9.23282328
_cell_length_c   22.95035149
_cell_angle_alpha   90.39790083
_cell_angle_beta   89.60209918
_cell_angle_gamma   120.27330851
_symmetry_Int_Tables_number   1
_chemical_formula_structural   Na3ZrInSi2SO12
_chemical_formula_sum   'Na18 Zr6 In6 Si12 S6 O72'
_cell_volume   1689.55543399
_cell_formula_units_Z   6
loop_
 _symmetry_equiv_pos_site_id
 _symmetry_equiv_pos_as_xyz
  1  'x, y, z'
loop_
 _atom_site_type_symbol
 _atom_site_label
 _atom_site_symmetry_multiplicity
 _atom_site_fract_x
 _atom_site_fract_y
 _atom_site_fract_z
 _atom_site_occupancy
  Na  Na0  1  0.62827524  0.00079025  0.24233136  1
  Na  Na1  1  0.99613472  0.64305150  0.24532642  1
  Na  Na2  1  0.99920975  0.37172476  0.74233136  1
  Na  Na3  1  0.35694850  0.00386528  0.74532642  1
  Na  Na4  1  0.29494224  0.33412325  0.57566436  1
  Na  Na5  1  0.66280172  0.97638450  0.57865942  1
  Na  Na6  1  0.66587675  0.70505776  0.07566436  1
  Na  Na7  1  0.02361550  0.33719828  0.07865942  1
  Na  Na8  1  0.96160824  0.66745725  0.90899836  1
  Na  Na9  1  0.32946772  0.30971850  0.91199342  1
  Na  Na10  1  0.33254275  0.03839176  0.40899836  1
  Na  Na11  1  0.69028150  0.67053228  0.41199342  1
  Na  Na12  1  0.00448610  0.02652511  0.49485580  1
  Na  Na13  1  0.97347489  0.99551390  0.99485580  1
  Na  Na14  1  0.67115310  0.35985811  0.82818880  1
  Na  Na15  1  0.64014189  0.32884690  0.32818880  1
  Na  Na16  1  0.33781910  0.69319211  0.16152280  1
  Na  Na17  1  0.30680789  0.66218090  0.66152280  1
  Zr  Zr0  1  0.01820766  0.00376754  0.64741391  1
  Zr  Zr1  1  0.99623246  0.98179234  0.14741391  1
  Zr  Zr2  1  0.68487466  0.33710054  0.98074691  1
  Zr  Zr3  1  0.66289946  0.31512534  0.48074691  1
  Zr  Zr4  1  0.35154066  0.67043454  0.31408091  1
  Zr  Zr5  1  0.32956546  0.64845934  0.81408091  1
  In  In0  1  0.00515702  0.00855141  0.35034298  1
  In  In1  1  0.99144859  0.99484298  0.85034298  1
  In  In2  1  0.67182402  0.34188441  0.68367598  1
  In  In3  1  0.65811559  0.32817598  0.18367598  1
  In  In4  1  0.33849002  0.67521841  0.01700998  1
  In  In5  1  0.32478159  0.66150998  0.51700998  1
  Si  Si0  1  0.29699996  0.00080668  0.25319530  1
  Si  Si1  1  0.70756540  0.70087126  0.25159758  1
  Si  Si2  1  0.29912874  0.29243460  0.75159758  1
  Si  Si3  1  0.99919332  0.70300004  0.75319530  1
  Si  Si4  1  0.96366696  0.33413968  0.58652830  1
  Si  Si5  1  0.37423240  0.03420426  0.58493058  1
  Si  Si6  1  0.96579574  0.62576760  0.08493058  1
  Si  Si7  1  0.66586032  0.03633304  0.08652830  1
  Si  Si8  1  0.63033296  0.66747368  0.91986230  1
  Si  Si9  1  0.04089840  0.36753826  0.91826458  1
  Si  Si10  1  0.63246174  0.95910160  0.41826458  1
  Si  Si11  1  0.33252632  0.36966704  0.41986230  1
  S  S0  1  0.00267422  0.29712122  0.24901570  1
  S  S1  1  0.70287878  0.99732578  0.74901570  1
  S  S2  1  0.66934122  0.63045422  0.58234870  1
  S  S3  1  0.36954578  0.33065878  0.08234870  1
  S  S4  1  0.33600722  0.96378822  0.91568270  1
  S  S5  1  0.03621178  0.66399278  0.41568270  1
  O  O0  1  0.21974736  0.02399535  0.31384418  1
  O  O1  1  0.81922878  0.78565038  0.30958427  1
  O  O2  1  0.97597567  0.19270588  0.30060425  1
  O  O3  1  0.21434962  0.18077122  0.80958427  1
  O  O4  1  0.97600465  0.78025264  0.81384418  1
  O  O5  1  0.80729412  0.02402433  0.80060425  1
  O  O6  1  0.78000449  0.97470194  0.69549424  1
  O  O7  1  0.17517170  0.20494750  0.69417635  1
  O  O8  1  0.02181826  0.82854980  0.69805289  1
  O  O9  1  0.79505250  0.82482830  0.19417635  1
  O  O10  1  0.02529806  0.21999551  0.19549424  1
  O  O11  1  0.17145020  0.97818174  0.19805289  1
  O  O12  1  0.88641436  0.35732835  0.64717718  1
  O  O13  1  0.48589578  0.11898338  0.64291727  1
  O  O14  1  0.64264267  0.52603888  0.63393725  1
  O  O15  1  0.88101662  0.51410422  0.14291727  1
  O  O16  1  0.64267165  0.11358564  0.14717718  1
  O  O17  1  0.47396112  0.35735733  0.13393725  1
  O  O18  1  0.44667149  0.30803494  0.02882724  1
  O  O19  1  0.84183870  0.53828050  0.02750935  1
  O  O20  1  0.68848526  0.16188280  0.03138589  1
  O  O21  1  0.46171950  0.15816130  0.52750935  1
  O  O22  1  0.69196506  0.55332851  0.52882724  1
  O  O23  1  0.83811720  0.31151474  0.53138589  1
  O  O24  1  0.55308036  0.69066235  0.98051118  1
  O  O25  1  0.15256178  0.45231738  0.97625127  1
  O  O26  1  0.30930867  0.85937288  0.96727125  1
  O  O27  1  0.54768262  0.84743822  0.47625127  1
  O  O28  1  0.30933765  0.44691964  0.48051118  1
  O  O29  1  0.14062712  0.69069133  0.46727125  1
  O  O30  1  0.11333749  0.64136894  0.36216124  1
  O  O31  1  0.50850470  0.87161450  0.36084335  1
  O  O32  1  0.35515126  0.49521680  0.36471989  1
  O  O33  1  0.12838550  0.49149530  0.86084335  1
  O  O34  1  0.35863106  0.88666251  0.86216124  1
  O  O35  1  0.50478320  0.64484874  0.86471989  1
  O  O36  1  0.01832278  0.81473743  0.41281998  1
  O  O37  1  0.81338915  0.97063615  0.41194878  1
  O  O38  1  0.17799902  0.17650793  0.41472102  1
  O  O39  1  0.02936385  0.18661085  0.91194878  1
  O  O40  1  0.18526257  0.98167722  0.91281998  1
  O  O41  1  0.82349207  0.82200098  0.91472102  1
  O  O42  1  0.96494694  0.15297300  0.58831846  1
  O  O43  1  0.19076656  0.02646092  0.58788571  1
  O  O44  1  0.81809834  0.80161809  0.58847079  1
  O  O45  1  0.97353908  0.80923344  0.08788571  1
  O  O46  1  0.84702700  0.03505306  0.08831846  1
  O  O47  1  0.19838191  0.18190166  0.08847079  1
  O  O48  1  0.68498978  0.14807043  0.74615298  1
  O  O49  1  0.48005615  0.30396915  0.74528178  1
  O  O50  1  0.84466602  0.50984093  0.74805402  1
  O  O51  1  0.69603085  0.51994385  0.24528178  1
  O  O52  1  0.85192957  0.31501022  0.24615298  1
  O  O53  1  0.49015907  0.15533398  0.24805402  1
  O  O54  1  0.63161394  0.48630600  0.92165146  1
  O  O55  1  0.85743356  0.35979392  0.92121871  1
  O  O56  1  0.48476534  0.13495109  0.92180379  1
  O  O57  1  0.64020608  0.14256644  0.42121871  1
  O  O58  1  0.51369400  0.36838606  0.42165146  1
  O  O59  1  0.86504891  0.51523466  0.42180379  1
  O  O60  1  0.35165578  0.48140443  0.07948698  1
  O  O61  1  0.14672215  0.63730315  0.07861578  1
  O  O62  1  0.51133202  0.84317493  0.08138802  1
  O  O63  1  0.36269685  0.85327785  0.57861578  1
  O  O64  1  0.51859557  0.64834422  0.57948698  1
  O  O65  1  0.15682507  0.48866798  0.58138802  1
  O  O66  1  0.29827994  0.81964000  0.25498546  1
  O  O67  1  0.52409956  0.69312792  0.25455271  1
  O  O68  1  0.15143134  0.46828509  0.25513779  1
  O  O69  1  0.30687208  0.47590044  0.75455271  1
  O  O70  1  0.18036000  0.70172006  0.75498546  1
  O  O71  1  0.53171491  0.84856866  0.75513779  1
loop_
_geom_bond_atom_site_label_1
_geom_bond_atom_site_label_2
_geom_bond_distance
_geom_bond_site_symmetry_2
Na0 O53 2.347126 1_555
Na0 O16 2.399852 1_555
Na0 O67 2.515026 1_545
Na0 O52 2.578211 1_555
Na0 O66 2.649752 1_545
Na0 O9 2.950523 1_545
Na0 O31 2.952391 1_545
Na1 O51 2.407063 1_555
Na1 O66 2.430496 1_655
Na1 O15 2.605977 1_555
Na1 O52 2.623164 1_555
Na1 O68 2.655645 1_655
Na1 O11 2.888543 1_655
Na1 O30 2.901542 1_655
Na1 O1 2.946834 1_555
Na2 O50 2.347126 1_555
Na2 O12 2.399852 1_555
Na2 O69 2.515026 1_655
Na2 O48 2.578211 1_555
Na2 O70 2.649752 1_655
Na2 O7 2.950523 1_655
Na2 O33 2.952391 1_655
Na3 O49 2.407063 1_555
Na3 O70 2.430496 1_545
Na3 O13 2.605977 1_555
Na3 O48 2.623164 1_555
Na3 O71 2.655645 1_545
Na3 O8 2.888544 1_545
Na3 O34 2.901542 1_545
Na3 O3 2.946834 1_555
Na4 O65 2.347143 1_555
Na4 O28 2.399837 1_555
Na4 O43 2.515026 1_555
Na4 O64 2.578216 1_555
Na4 O42 2.649752 1_455
Na4 O21 2.950523 1_555
Na4 O7 2.952391 1_555
Na5 O63 2.407072 1_555
Na5 O42 2.430496 1_565
Na5 O27 2.605956 1_555
Na5 O64 2.623155 1_555
Na5 O44 2.655645 1_555
Na5 O23 2.888543 1_565
Na5 O6 2.901542 1_555
Na5 O13 2.946834 1_565
Na6 O62 2.347143 1_555
Na6 O24 2.399837 1_554
Na6 O45 2.515026 1_555
Na6 O60 2.578216 1_555
Na6 O46 2.649752 1_565
Na6 O19 2.950523 1_555
Na6 O9 2.952391 1_555
Na7 O61 2.407072 1_555
Na7 O46 2.430496 1_455
Na7 O25 2.605956 1_554
Na7 O60 2.623155 1_555
Na7 O47 2.655645 1_555
Na7 O20 2.888544 1_455
Na7 O10 2.901542 1_555
Na7 O15 2.946834 1_455
Na8 O41 2.347126 1_555
Na8 O4 2.399852 1_555
Na8 O55 2.515034 1_555
Na8 O40 2.578211 1_655
Na8 O54 2.649742 1_555
Na8 O33 2.950523 1_655
Na8 O19 2.952371 1_556
Na9 O39 2.407063 1_555
Na9 O54 2.430500 1_555
Na9 O3 2.605977 1_555
Na9 O40 2.623164 1_545
Na9 O56 2.655659 1_555
Na9 O35 2.888543 1_555
Na9 O18 2.901526 1_556
Na9 O25 2.946834 1_555
Na10 O38 2.347126 1_555
Na10 O0 2.399852 1_555
Na10 O57 2.515034 1_555
Na10 O36 2.578211 1_545
Na10 O58 2.649742 1_555
Na10 O31 2.950523 1_545
Na10 O21 2.952371 1_555
Na11 O37 2.407063 1_555
Na11 O58 2.430500 1_555
Na11 O1 2.605977 1_555
Na11 O36 2.623164 1_655
Na11 O59 2.655659 1_555
Na11 O32 2.888544 1_555
Na11 O22 2.901526 1_555
Na11 O27 2.946834 1_555
Na12 O38 2.371524 1_555
Na12 O37 2.472799 1_445
Na12 O42 2.545847 1_455
Na12 O43 2.751110 1_555
Na12 O36 2.753551 1_545
Na12 O44 2.880471 1_445
Na13 O41 2.371524 1_555
Na13 O39 2.472799 1_665
Na13 O46 2.545847 1_566
Na13 O45 2.751110 1_556
Na13 O40 2.753552 1_655
Na13 O47 2.880471 1_666
Na14 O50 2.371524 1_555
Na14 O49 2.472799 1_555
Na14 O54 2.545847 1_555
Na14 O55 2.751110 1_555
Na14 O48 2.753551 1_555
Na14 O56 2.880471 1_555
Na15 O53 2.371524 1_555
Na15 O51 2.472799 1_555
Na15 O58 2.545847 1_555
Na15 O57 2.751110 1_555
Na15 O52 2.753552 1_555
Na15 O59 2.880471 1_555
Na16 O62 2.371524 1_555
Na16 O61 2.472799 1_555
Na16 O66 2.545847 1_555
Na16 O67 2.751110 1_555
Na16 O60 2.753551 1_555
Na16 O68 2.880471 1_555
Na17 O65 2.371524 1_555
Na17 O63 2.472799 1_555
Na17 O70 2.545847 1_555
Na17 O69 2.751110 1_555
Na17 O64 2.753552 1_555
Na17 O71 2.880471 1_555
In0 O0 2.083560 1_555
In0 O1 2.119158 1_445
In0 O37 2.145611 1_445
In0 O38 2.154113 1_555
In0 O2 2.181667 1_455
In0 O36 2.351651 1_545
In1 O4 2.083560 1_555
In1 O3 2.119158 1_665
In1 O39 2.145611 1_665
In1 O41 2.154113 1_555
In1 O5 2.181667 1_565
In1 O40 2.351651 1_655
In2 O12 2.083560 1_555
In2 O13 2.119158 1_555
In2 O49 2.145611 1_555
In2 O50 2.154113 1_555
In2 O14 2.181667 1_555
In2 O48 2.351651 1_555
In3 O16 2.083560 1_555
In3 O15 2.119158 1_555
In3 O51 2.145611 1_555
In3 O53 2.154113 1_555
In3 O17 2.181667 1_555
In3 O52 2.351651 1_555
In4 O24 2.083560 1_554
In4 O25 2.119158 1_554
In4 O61 2.145611 1_555
In4 O62 2.154113 1_555
In4 O26 2.181667 1_554
In4 O60 2.351651 1_555
In5 O28 2.083560 1_555
In5 O27 2.119158 1_555
In5 O63 2.145611 1_555
In5 O65 2.154113 1_555
In5 O29 2.181667 1_555
In5 O64 2.351651 1_555
O0 Si0 1.621122 1_555
O1 Si1 1.624069 1_555
O2 S0 1.471105 1_655
O3 Si2 1.624069 1_555
O4 Si3 1.621122 1_555
O5 S1 1.471105 1_545
O6 S1 1.481138 1_555
O6 Zr0 2.345602 1_665
O7 Si2 1.665252 1_555
O7 Zr0 1.995500 1_555
O8 Si3 1.661770 1_455
O8 Zr0 2.012445 1_565
O9 Si1 1.665252 1_555
O9 Zr1 1.995500 1_555
O10 S0 1.481138 1_555
O10 Zr1 2.345602 1_445
O11 Si0 1.661770 1_565
O11 Zr1 2.012445 1_455
O12 Si4 1.621122 1_555
O13 Si5 1.624069 1_555
O14 S2 1.471105 1_555
O15 Si6 1.624069 1_555
O16 Si7 1.621122 1_555
O17 S3 1.471105 1_555
O18 S3 1.481138 1_555
O18 Zr2 2.345602 1_554
O19 Si6 1.665252 1_555
O19 Zr2 1.995500 1_554
O20 Si7 1.661770 1_555
O20 Zr2 2.012445 1_554
O21 Si5 1.665252 1_555
O21 Zr3 1.995500 1_555
O22 S2 1.481138 1_555
O22 Zr3 2.345602 1_555
O23 Si4 1.661770 1_555
O23 Zr3 2.012445 1_555
O24 Si8 1.621122 1_555
O25 Si9 1.624069 1_555
O26 S4 1.471105 1_555
O27 Si10 1.624069 1_555
O28 Si11 1.621122 1_555
O29 S5 1.471105 1_555
O30 S5 1.481138 1_555
O30 Zr4 2.345602 1_555
O31 Si10 1.665252 1_555
O31 Zr4 1.995500 1_555
O32 Si11 1.661770 1_555
O32 Zr4 2.012445 1_555
O33 Si9 1.665252 1_555
O33 Zr5 1.995500 1_555
O34 S4 1.481138 1_555
O34 Zr5 2.345602 1_555
O35 Si8 1.661770 1_555
O35 Zr5 2.012445 1_555
O36 S5 1.483878 1_555
O37 Si10 1.624903 1_555
O38 Si11 1.632173 1_555
O39 Si9 1.624903 1_555
O40 S4 1.483878 1_555
O41 Si8 1.632173 1_555
O42 Si4 1.679458 1_555
O42 Zr0 2.167310 1_655
O43 Si5 1.659941 1_555
O43 Zr0 2.021352 1_555
O44 S2 1.488195 1_555
O44 Zr0 2.291256 1_665
O45 Si6 1.659941 1_555
O45 Zr1 2.021352 1_555
O46 Si7 1.679458 1_555
O46 Zr1 2.167310 1_545
O47 S3 1.488195 1_555
O47 Zr1 2.291256 1_445
O48 S1 1.483878 1_545
O49 Si2 1.624903 1_555
O50 Si3 1.632173 1_555
O51 Si1 1.624903 1_555
O52 S0 1.483878 1_655
O53 Si0 1.632173 1_555
O54 Si8 1.679471 1_555
O54 Zr2 2.167310 1_555
O55 Si9 1.659927 1_655
O55 Zr2 2.021352 1_555
O56 S4 1.488191 1_545
O56 Zr2 2.291256 1_555
O57 Si10 1.659927 1_545
O57 Zr3 2.021352 1_555
O58 Si11 1.679471 1_555
O58 Zr3 2.167310 1_555
O59 S5 1.488191 1_655
O59 Zr3 2.291256 1_555
O60 S3 1.483892 1_555
O61 Si6 1.624888 1_455
O62 Si7 1.632169 1_565
O63 Si5 1.624888 1_565
O64 S2 1.483892 1_555
O65 Si4 1.632169 1_455
O66 Si0 1.679458 1_565
O66 Zr4 2.167310 1_555
O67 Si1 1.659941 1_555
O67 Zr4 2.021352 1_555
O68 S0 1.488195 1_555
O68 Zr4 2.291256 1_555
O69 Si2 1.659941 1_555
O69 Zr5 2.021352 1_555
O70 Si3 1.679458 1_455
O70 Zr5 2.167310 1_555
O71 S1 1.488195 1_555
O71 Zr5 2.291256 1_555
