# generated using pymatgen
data_MoPRu
_symmetry_space_group_name_H-M   'P 1'
_cell_length_a   3.87469538
_cell_length_b   6.00744644
_cell_length_c   6.93923695
_cell_angle_alpha   89.99890149
_cell_angle_beta   90.00000000
_cell_angle_gamma   90.00000000
_symmetry_Int_Tables_number   1
_chemical_formula_structural   MoPRu
_chemical_formula_sum   'Mo4 P4 Ru4'
_cell_volume   161.52479172
_cell_formula_units_Z   4
loop_
 _symmetry_equiv_pos_site_id
 _symmetry_equiv_pos_as_xyz
  1  'x, y, z'
loop_
 _atom_site_type_symbol
 _atom_site_label
 _atom_site_symmetry_multiplicity
 _atom_site_fract_x
 _atom_site_fract_y
 _atom_site_fract_z
 _atom_site_occupancy
  Mo  Mo0  1  0.75000000  0.97428319  0.16930763  1
  Mo  Mo1  1  0.25000000  0.02571635  0.83070882  1
  Mo  Mo2  1  0.75000000  0.47427198  0.33076389  1
  Mo  Mo3  1  0.25000000  0.52572331  0.66921966  1
  P  P0  1  0.25000000  0.25521463  0.11617068  1
  P  P1  1  0.75000000  0.74478836  0.88384543  1
  P  P2  1  0.25000000  0.75519960  0.38386179  1
  P  P3  1  0.75000000  0.24480031  0.61612403  1
  Ru  Ru0  1  0.25000000  0.63998787  0.06925716  1
  Ru  Ru1  1  0.75000000  0.36001468  0.93079096  1
  Ru  Ru2  1  0.25000000  0.14003188  0.43076821  1
  Ru  Ru3  1  0.75000000  0.85996785  0.56918274  1
loop_
_geom_bond_atom_site_label_1
_geom_bond_atom_site_label_2
_geom_bond_distance
_geom_bond_site_symmetry_2
Mo0 P1 2.413459 1_554
Mo0 P0 2.595673 1_565
Mo0 P0 2.595673 1_665
Mo0 P2 2.775265 1_555
Mo0 P2 2.775265 1_655
Mo0 Ru2 2.834903 1_565
Mo0 Ru2 2.834903 1_665
Mo0 Ru1 2.847628 1_564
Mo0 Ru3 2.858534 1_555
Mo0 Ru0 2.875500 1_555
Mo0 Ru0 2.875500 1_655
Mo1 P0 2.413468 1_556
Mo1 P1 2.595659 1_445
Mo1 P1 2.595659 1_545
Mo1 P3 2.775380 1_455
Mo1 P3 2.775380 1_555
Mo1 Ru3 2.835193 1_545
Mo1 Ru3 2.835193 1_445
Mo1 Ru0 2.847741 1_546
Mo1 Ru2 2.858975 1_555
Mo1 Ru1 2.875565 1_555
Mo1 Ru1 2.875565 1_455
Mo2 P3 2.412754 1_555
Mo2 P2 2.595629 1_555
Mo2 P2 2.595629 1_655
Mo2 P0 2.775363 1_655
Mo2 P0 2.775363 1_555
Mo2 Ru0 2.835014 1_555
Mo2 Ru0 2.835014 1_655
Mo2 Ru3 2.847111 1_555
Mo2 Ru1 2.859134 1_554
Mo2 Ru2 2.875172 1_555
Mo2 Ru2 2.875172 1_655
Mo3 P2 2.412757 1_555
Mo3 P3 2.595609 1_455
Mo3 P3 2.595609 1_555
Mo3 P1 2.775506 1_455
Mo3 P1 2.775506 1_555
Mo3 Ru1 2.835286 1_455
Mo3 Ru1 2.835286 1_555
Mo3 Ru2 2.847221 1_555
Mo3 Ru0 2.859580 1_556
Mo3 Ru3 2.875245 1_455
Mo3 Ru3 2.875245 1_555
P0 Ru2 2.290092 1_555
P0 Ru0 2.334310 1_555
P0 Ru1 2.409246 1_554
P0 Ru1 2.409246 1_454
P1 Ru3 2.290518 1_555
P1 Ru1 2.334344 1_555
P1 Ru0 2.409365 1_656
P1 Ru0 2.409365 1_556
P2 Ru0 2.290217 1_555
P2 Ru2 2.334667 1_565
P2 Ru3 2.408991 1_555
P2 Ru3 2.408991 1_455
P3 Ru1 2.290634 1_555
P3 Ru3 2.334702 1_545
P3 Ru2 2.409121 1_655
P3 Ru2 2.409121 1_555
Ru0 Ru1 2.739613 1_554
Ru0 Ru1 2.739613 1_454
Ru2 Ru3 2.739800 1_545
Ru2 Ru3 2.739800 1_445
