# generated using pymatgen
data_NaYSiGe(SO6)2
_symmetry_space_group_name_H-M   'P 1'
_cell_length_a   8.98503311
_cell_length_b   8.97522114
_cell_length_c   23.06246194
_cell_angle_alpha   92.00306988
_cell_angle_beta   90.00000000
_cell_angle_gamma   120.03617028
_symmetry_Int_Tables_number   1
_chemical_formula_structural   NaYSiGe(SO6)2
_chemical_formula_sum   'Na6 Y6 Si6 Ge6 S12 O72'
_cell_volume   1608.74964228
_cell_formula_units_Z   6
loop_
 _symmetry_equiv_pos_site_id
 _symmetry_equiv_pos_as_xyz
  1  'x, y, z'
loop_
 _atom_site_type_symbol
 _atom_site_label
 _atom_site_symmetry_multiplicity
 _atom_site_fract_x
 _atom_site_fract_y
 _atom_site_fract_z
 _atom_site_occupancy
  Na  Na0  1  0.02268201  0.00416257  0.49779807  1
  Na  Na1  1  0.98148057  0.00416257  0.99779807  1
  Na  Na2  1  0.69611804  0.34309594  0.83006378  1
  Na  Na3  1  0.64697889  0.34309594  0.33006378  1
  Na  Na4  1  0.33360335  0.69164270  0.16331270  1
  Na  Na5  1  0.35803835  0.69164270  0.66331270  1
  Y  Y0  1  0.00108432  0.99427958  0.64444029  1
  Y  Y1  1  0.99319526  0.99427958  0.14444029  1
  Y  Y2  1  0.67306198  0.32870815  0.97731677  1
  Y  Y3  1  0.65564717  0.32870815  0.47731677  1
  Y  Y4  1  0.33709955  0.66915556  0.31006765  1
  Y  Y5  1  0.33205500  0.66915556  0.81006765  1
  Si  Si0  1  0.29874193  0.00933063  0.24773962  1
  Si  Si1  1  0.71058869  0.00933063  0.74773962  1
  Si  Si2  1  0.37414529  0.01930032  0.57770748  1
  Si  Si3  1  0.64515603  0.01930032  0.07770748  1
  Si  Si4  1  0.05838164  0.37764556  0.91625665  1
  Si  Si5  1  0.31926292  0.37764556  0.41625665  1
  Ge  Ge0  1  0.04588364  0.02924524  0.35177978  1
  Ge  Ge1  1  0.98336160  0.02924524  0.85177978  1
  Ge  Ge2  1  0.66365160  0.27660743  0.68239804  1
  Ge  Ge3  1  0.61295683  0.27660743  0.18239804  1
  Ge  Ge4  1  0.32066678  0.67867907  0.01476879  1
  Ge  Ge5  1  0.35801129  0.67867907  0.51476879  1
  S  S0  1  0.72184233  0.69700066  0.25074614  1
  S  S1  1  0.97465069  0.28211873  0.25181330  1
  S  S2  1  0.30746804  0.28211873  0.75181330  1
  S  S3  1  0.97515832  0.69700066  0.75074614  1
  S  S4  1  0.96676161  0.34878178  0.58536925  1
  S  S5  1  0.64367022  0.61649665  0.58405332  1
  S  S6  1  0.97282744  0.61649665  0.08405332  1
  S  S7  1  0.38202117  0.34878178  0.08536925  1
  S  S8  1  0.63756673  0.68890303  0.91676087  1
  S  S9  1  0.30523249  0.95045114  0.91825732  1
  S  S10  1  0.64521765  0.95045114  0.41825732  1
  S  S11  1  0.05133530  0.68890303  0.41676087  1
  O  O0  1  0.21600166  0.04461883  0.30991590  1
  O  O1  1  0.82633244  0.78513785  0.30559590  1
  O  O2  1  0.95988477  0.18081362  0.30524849  1
  O  O3  1  0.22092885  0.18081362  0.80524849  1
  O  O4  1  0.95880541  0.78513785  0.80559590  1
  O  O5  1  0.82861717  0.04461883  0.80991590  1
  O  O6  1  0.80203922  0.99450225  0.69152603  1
  O  O7  1  0.20761500  0.19968653  0.69885260  1
  O  O8  1  0.00130280  0.79803428  0.69947388  1
  O  O9  1  0.79673148  0.79803428  0.19947388  1
  O  O10  1  0.99207152  0.19968653  0.19885260  1
  O  O11  1  0.19246304  0.99450225  0.19152603  1
  O  O12  1  0.87614811  0.36887000  0.64121893  1
  O  O13  1  0.49690452  0.10730735  0.64063059  1
  O  O14  1  0.62541731  0.51979881  0.63613123  1
  O  O15  1  0.89438250  0.51979881  0.13613123  1
  O  O16  1  0.61040383  0.10730735  0.14063059  1
  O  O17  1  0.49272289  0.36887000  0.14121893  1
  O  O18  1  0.46451381  0.33051116  0.03384162  1
  O  O19  1  0.87212494  0.53917978  0.03062207  1
  O  O20  1  0.66768289  0.13741564  0.02564630  1
  O  O21  1  0.46973375  0.13741564  0.52564630  1
  O  O22  1  0.66705583  0.53917978  0.53062207  1
  O  O23  1  0.86599834  0.33051116  0.53384162  1
  O  O24  1  0.55834325  0.71589906  0.97024467  1
  O  O25  1  0.18530141  0.48059481  0.97710027  1
  O  O26  1  0.29681411  0.85017673  0.97172717  1
  O  O27  1  0.55336163  0.85017673  0.47172717  1
  O  O28  1  0.29529240  0.48059481  0.47710027  1
  O  O29  1  0.15755481  0.71589906  0.47024467  1
  O  O30  1  0.12951306  0.66770223  0.36411311  1
  O  O31  1  0.53777287  0.87597897  0.36621620  1
  O  O32  1  0.33080742  0.47727677  0.36011201  1
  O  O33  1  0.14646835  0.47727677  0.86011201  1
  O  O34  1  0.33820510  0.87597897  0.86621620  1
  O  O35  1  0.53818817  0.66770223  0.86411311  1
  O  O36  1  0.03538248  0.84984727  0.41224287  1
  O  O37  1  0.80753578  0.94655217  0.41492106  1
  O  O38  1  0.13559773  0.18067986  0.41220710  1
  O  O39  1  0.04508213  0.18067986  0.91220710  1
  O  O40  1  0.13901639  0.94655217  0.91492106  1
  O  O41  1  0.81446479  0.84984727  0.91224287  1
  O  O42  1  0.98660331  0.19569996  0.58889151  1
  O  O43  1  0.18290664  0.98592930  0.58454224  1
  O  O44  1  0.79003791  0.79469567  0.58735964  1
  O  O45  1  0.00465776  0.79469567  0.08735964  1
  O  O46  1  0.80302266  0.98592930  0.08454224  1
  O  O47  1  0.20909665  0.19569996  0.08889151  1
  O  O48  1  0.70491473  0.19501683  0.74506518  1
  O  O49  1  0.48014531  0.29571457  0.74867183  1
  O  O50  1  0.81361840  0.52544478  0.74441517  1
  O  O51  1  0.71182738  0.52544478  0.24441517  1
  O  O52  1  0.81557026  0.29571457  0.24867183  1
  O  O53  1  0.49010311  0.19501683  0.24506518  1
  O  O54  1  0.65940088  0.53745674  0.92172903  1
  O  O55  1  0.86578099  0.34473555  0.92020415  1
  O  O56  1  0.44773028  0.12885616  0.92480115  1
  O  O57  1  0.68112688  0.12885616  0.42480115  1
  O  O58  1  0.47895556  0.34473555  0.42020415  1
  O  O59  1  0.87805686  0.53745674  0.42172903  1
  O  O60  1  0.37184465  0.50714828  0.08666657  1
  O  O61  1  0.14708185  0.62681790  0.07757164  1
  O  O62  1  0.46237163  0.82619221  0.06910873  1
  O  O63  1  0.36381959  0.82619221  0.56910873  1
  O  O64  1  0.47973505  0.62681790  0.57757164  1
  O  O65  1  0.13530263  0.50714828  0.58666657  1
  O  O66  1  0.33422170  0.85210648  0.25159209  1
  O  O67  1  0.54605374  0.67108798  0.25519169  1
  O  O68  1  0.12641424  0.45690888  0.25595156  1
  O  O69  1  0.33049364  0.45690888  0.75595156  1
  O  O70  1  0.12503324  0.67108798  0.75519169  1
  O  O71  1  0.51788378  0.85210648  0.75159209  1
loop_
_geom_bond_atom_site_label_1
_geom_bond_atom_site_label_2
_geom_bond_distance
_geom_bond_site_symmetry_2
Na0 O36 2.406584 1_545
Na0 O38 2.458703 1_555
Na0 O43 2.521937 1_545
Na0 O37 2.566661 1_445
Na0 O42 2.789139 1_455
Na0 O44 2.916769 1_445
Na1 O41 2.406584 1_545
Na1 O39 2.458703 1_655
Na1 O46 2.521937 1_546
Na1 O40 2.566661 1_645
Na1 O47 2.789139 1_656
Na1 O45 2.916769 1_646
Na2 O48 2.353364 1_555
Na2 O50 2.488183 1_555
Na2 O49 2.566718 1_555
Na2 O55 2.573160 1_555
Na2 O54 2.817679 1_555
Na3 O53 2.353364 1_555
Na3 O51 2.488183 1_555
Na3 O52 2.566718 1_555
Na3 O58 2.573160 1_555
Na3 O59 2.817679 1_555
Na4 O61 2.449634 1_555
Na4 O66 2.450769 1_555
Na4 O62 2.510322 1_555
Na4 O60 2.519829 1_555
Na4 O67 2.923640 1_555
Na4 O68 2.976076 1_555
Na5 O64 2.449634 1_555
Na5 O71 2.450769 1_555
Na5 O63 2.510322 1_555
Na5 O65 2.519829 1_555
Na5 O70 2.923640 1_555
Na5 O69 2.976076 1_555
Ge0 O0 1.756626 1_555
Ge0 O38 1.791650 1_555
Ge0 O36 2.133246 1_545
Ge0 O2 2.180276 1_455
Ge0 O1 2.310024 1_445
Ge0 O37 2.396249 1_445
Ge1 O5 1.756626 1_555
Ge1 O39 1.791650 1_655
Ge1 O41 2.133246 1_545
Ge1 O3 2.180276 1_655
Ge1 O4 2.310024 1_545
Ge1 O40 2.396249 1_645
Ge2 O13 1.760704 1_555
Ge2 O48 1.763027 1_555
Ge2 O12 1.924894 1_555
Ge2 O49 2.312757 1_555
Ge2 O50 2.369237 1_555
Ge3 O16 1.760704 1_555
Ge3 O53 1.763027 1_555
Ge3 O17 1.924894 1_555
Ge3 O52 2.312757 1_555
Ge3 O51 2.369237 1_555
Ge4 O25 1.766938 1_554
Ge4 O62 1.772282 1_555
Ge4 O26 1.958969 1_554
Ge4 O61 2.016782 1_555
Ge4 O24 2.244168 1_554
Ge4 O60 2.493627 1_555
Ge5 O28 1.766938 1_555
Ge5 O63 1.772282 1_555
Ge5 O27 1.958969 1_555
Ge5 O64 2.016782 1_555
Ge5 O29 2.244168 1_555
Ge5 O65 2.493627 1_555
O0 Si0 1.706791 1_555
O1 S0 1.514565 1_555
O2 S1 1.523338 1_555
O3 S2 1.523338 1_555
O4 S3 1.514565 1_555
O5 Si1 1.706791 1_555
O6 Si1 1.571945 1_565
O6 Y0 2.093110 1_655
O7 S2 1.454807 1_555
O7 Y0 2.197840 1_545
O8 S3 1.461984 1_455
O8 Y0 2.207481 1_555
O9 S0 1.461984 1_555
O9 Y1 2.207481 1_555
O10 S1 1.454807 1_555
O10 Y1 2.197840 1_545
O11 Si0 1.571944 1_565
O11 Y1 2.093110 1_455
O12 S4 1.576424 1_555
O13 Si2 1.730337 1_555
O14 S5 1.467312 1_555
O15 S6 1.467312 1_555
O16 Si3 1.730337 1_555
O17 S7 1.576424 1_555
O18 S7 1.447932 1_555
O18 Y2 2.289038 1_554
O19 S6 1.459570 1_555
O19 Y2 2.175788 1_554
O20 Si3 1.574979 1_555
O20 Y2 2.059876 1_554
O21 Si2 1.574979 1_555
O21 Y3 2.059876 1_555
O22 S5 1.459570 1_555
O22 Y3 2.175788 1_555
O23 S4 1.447932 1_555
O23 Y3 2.289038 1_555
O24 S8 1.496200 1_555
O25 Si4 1.725606 1_555
O26 S9 1.531593 1_555
O27 S10 1.531593 1_555
O28 Si5 1.725606 1_555
O29 S11 1.496200 1_555
O30 S11 1.456544 1_555
O30 Y4 2.238165 1_555
O31 S10 1.455048 1_555
O31 Y4 2.203396 1_555
O32 Si5 1.573230 1_555
O32 Y4 2.083877 1_555
O33 Si4 1.573230 1_555
O33 Y5 2.083877 1_555
O34 S9 1.455048 1_555
O34 Y5 2.203396 1_555
O35 S8 1.456544 1_555
O35 Y5 2.238165 1_555
O36 S11 1.528336 1_555
O37 S10 1.478201 1_555
O38 Si5 1.710299 1_555
O39 Si4 1.710303 1_555
O40 S9 1.478192 1_555
O41 S8 1.528341 1_555
O42 S4 1.476183 1_555
O42 Y0 2.307295 1_645
O43 Si2 1.598483 1_565
O43 Y0 2.167514 1_555
O44 S5 1.476198 1_555
O44 Y0 2.229844 1_655
O45 S6 1.476201 1_455
O45 Y1 2.229844 1_455
O46 Si3 1.598475 1_565
O46 Y1 2.167514 1_555
O47 S7 1.476188 1_555
O47 Y1 2.307295 1_445
O48 Si1 1.695912 1_555
O49 S2 1.496133 1_555
O50 S3 1.498605 1_555
O51 S0 1.498609 1_555
O52 S1 1.496124 1_555
O53 Si0 1.695916 1_555
O54 S8 1.475484 1_555
O54 Y2 2.359436 1_555
O55 Si4 1.606366 1_655
O55 Y2 2.125529 1_555
O56 S9 1.468580 1_545
O56 Y2 2.235154 1_555
O57 S10 1.468574 1_545
O57 Y3 2.235154 1_555
O58 Si5 1.606384 1_555
O58 Y3 2.125529 1_555
O59 S11 1.475473 1_655
O59 Y3 2.359436 1_555
O60 S7 1.468569 1_555
O61 S6 1.529071 1_455
O62 Si3 1.693192 1_565
O63 Si2 1.693184 1_565
O64 S5 1.529089 1_555
O65 S4 1.468559 1_455
O66 Si0 1.599964 1_565
O66 Y4 2.170925 1_555
O67 S0 1.480959 1_555
O67 Y4 2.257382 1_555
O68 S1 1.475667 1_455
O68 Y4 2.234669 1_555
O69 S2 1.475670 1_555
O69 Y5 2.234670 1_555
O70 S3 1.480951 1_455
O70 Y5 2.257382 1_555
O71 Si1 1.599970 1_565
O71 Y5 2.170925 1_555
