# generated using pymatgen
data_Th4H15
_symmetry_space_group_name_H-M   'P 1'
_cell_length_a   7.90367090
_cell_length_b   7.90367272
_cell_length_c   7.90367294
_cell_angle_alpha   109.47121859
_cell_angle_beta   109.47121535
_cell_angle_gamma   109.47121862
_symmetry_Int_Tables_number   1
_chemical_formula_structural   Th4H15
_chemical_formula_sum   'Th8 H30'
_cell_volume   380.07116042
_cell_formula_units_Z   2
loop_
 _symmetry_equiv_pos_site_id
 _symmetry_equiv_pos_as_xyz
  1  'x, y, z'
loop_
 _atom_site_type_symbol
 _atom_site_label
 _atom_site_symmetry_multiplicity
 _atom_site_fract_x
 _atom_site_fract_y
 _atom_site_fract_z
 _atom_site_occupancy
  Th  Th0  1  0.91551995  0.91551995  0.91551895  1
  Th  Th1  1  0.08448005  0.50000000  -0.00000000  1
  Th  Th2  1  0.50000000  0.00000000  0.08448005  1
  Th  Th3  1  0.00000000  0.08448005  0.50000000  1
  Th  Th4  1  0.50000000  0.00000000  0.58448005  1
  Th  Th5  1  0.00000000  0.58448105  0.50000000  1
  Th  Th6  1  0.58448105  0.50000000  -0.00000000  1
  Th  Th7  1  0.41551895  0.41551995  0.41551995  1
  H  H0  1  0.37439113  0.65381223  0.96916292  1
  H  H1  1  0.84618777  0.22057690  0.31534970  1
  H  H2  1  0.53083708  0.18465030  0.40522621  1
  H  H3  1  0.12560887  0.09477379  0.27942210  1
  H  H4  1  0.09477379  0.27942210  0.12560887  1
  H  H5  1  0.27942210  0.12560887  0.09477379  1
  H  H6  1  0.87439113  0.46916292  0.15381223  1
  H  H7  1  0.81534970  0.72057790  0.34618777  1
  H  H8  1  0.25000000  0.62500000  0.37500000  1
  H  H9  1  0.37500000  0.25000000  0.62500000  1
  H  H10  1  0.12500000  0.75000000  0.87500000  1
  H  H11  1  0.87500000  0.12500000  0.75000000  1
  H  H12  1  0.62500000  0.37500000  0.25000000  1
  H  H13  1  0.75000000  0.87500000  0.12500000  1
  H  H14  1  0.62560887  0.77942310  0.59477379  1
  H  H15  1  0.22057690  0.31534970  0.84618777  1
  H  H16  1  0.96916292  0.37439113  0.65381223  1
  H  H17  1  0.65381223  0.96916292  0.37439113  1
  H  H18  1  0.40522621  0.53083708  0.18465030  1
  H  H19  1  0.18465030  0.40522621  0.53083708  1
  H  H20  1  0.31534970  0.84618777  0.22057790  1
  H  H21  1  0.03083708  0.90522621  0.68465030  1
  H  H22  1  0.34618777  0.81534970  0.72057690  1
  H  H23  1  0.46916292  0.15381223  0.87439113  1
  H  H24  1  0.90522621  0.68465030  0.03083708  1
  H  H25  1  0.72057790  0.34618777  0.81534970  1
  H  H26  1  0.15381223  0.87439113  0.46916292  1
  H  H27  1  0.59477379  0.62560887  0.77942210  1
  H  H28  1  0.77942310  0.59477379  0.62560887  1
  H  H29  1  0.68465030  0.03083708  0.90522621  1
loop_
_geom_bond_atom_site_label_1
_geom_bond_atom_site_label_2
_geom_bond_distance
_geom_bond_site_symmetry_2
H0 Th2 2.286079 1_566
H0 Th1 2.345297 1_556
H0 Th6 2.359651 1_556
H1 Th2 2.286076 1_555
H1 Th3 2.345289 1_655
H1 Th5 2.359666 1_655
H2 Th7 2.286075 1_555
H2 Th2 2.345286 1_555
H2 Th4 2.359664 1_555
H3 Th3 2.286074 1_555
H3 Th7 2.345286 1_555
H3 Th0 2.359657 1_444
H4 Th1 2.286074 1_555
H4 Th7 2.345285 1_555
H4 Th0 2.359652 1_444
H5 Th2 2.286073 1_555
H5 Th7 2.345292 1_555
H5 Th0 2.359650 1_444
H6 Th5 2.286078 1_655
H6 Th6 2.345290 1_555
H6 Th1 2.359645 1_655
H7 Th6 2.286076 1_555
H7 Th5 2.345289 1_655
H7 Th3 2.359652 1_665
H8 Th7 2.464414 1_555
H8 Th5 2.464419 1_555
H8 Th4 2.464420 1_565
H8 Th1 2.464420 1_555
H9 Th7 2.464418 1_555
H9 Th3 2.464419 1_555
H9 Th4 2.464419 1_555
H9 Th6 2.464420 1_556
H10 Th0 2.464418 1_455
H10 Th2 2.464419 1_566
H10 Th1 2.464420 1_556
H10 Th5 2.464420 1_555
H11 Th0 2.464414 1_545
H11 Th4 2.464419 1_555
H11 Th3 2.464419 1_655
H11 Th1 2.464420 1_656
H12 Th5 2.464419 1_655
H12 Th6 2.464420 1_555
H12 Th2 2.464420 1_555
H12 Th7 2.464426 1_555
H13 Th2 2.464419 1_565
H13 Th6 2.464420 1_555
H13 Th3 2.464420 1_665
H13 Th0 2.464426 1_554
H14 Th4 2.286066 1_565
H14 Th0 2.345287 1_555
H14 Th7 2.359658 1_555
H15 Th3 2.286076 1_555
H15 Th1 2.345289 1_556
H15 Th6 2.359665 1_556
H16 Th1 2.286079 1_656
H16 Th3 2.345297 1_655
H16 Th5 2.359652 1_655
H17 Th3 2.286078 1_665
H17 Th2 2.345297 1_565
H17 Th4 2.359645 1_565
H18 Th7 2.286071 1_555
H18 Th1 2.345286 1_555
H18 Th6 2.359671 1_555
H19 Th7 2.286062 1_555
H19 Th3 2.345286 1_555
H19 Th5 2.359671 1_555
H20 Th1 2.286077 1_555
H20 Th2 2.345295 1_565
H20 Th4 2.359652 1_565
H21 Th0 2.286063 1_455
H21 Th5 2.345279 1_555
H21 Th3 2.359665 1_565
H22 Th5 2.286075 1_555
H22 Th4 2.345289 1_565
H22 Th2 2.359659 1_566
H23 Th6 2.286078 1_556
H23 Th4 2.345297 1_555
H23 Th2 2.359645 1_556
H24 Th0 2.286075 1_554
H24 Th6 2.345279 1_555
H24 Th1 2.359664 1_655
H25 Th4 2.286077 1_555
H25 Th6 2.345289 1_556
H25 Th1 2.359652 1_656
H26 Th4 2.286078 1_565
H26 Th5 2.345291 1_555
H26 Th3 2.359645 1_565
H27 Th6 2.286073 1_556
H27 Th0 2.345291 1_555
H27 Th7 2.359651 1_555
H28 Th5 2.286065 1_655
H28 Th0 2.345288 1_555
H28 Th7 2.359663 1_555
H29 Th0 2.286070 1_545
H29 Th4 2.345286 1_555
H29 Th2 2.359664 1_556
