# generated using pymatgen
data_Na4Al2Zn2SiS5O24
_symmetry_space_group_name_H-M   'P 1'
_cell_length_a   8.71054129
_cell_length_b   8.68095547
_cell_length_c   21.87264879
_cell_angle_alpha   90.10643532
_cell_angle_beta   89.73529560
_cell_angle_gamma   120.15918484
_symmetry_Int_Tables_number   1
_chemical_formula_structural   Na4Al2Zn2SiS5O24
_chemical_formula_sum   'Na12 Al6 Zn6 Si3 S15 O72'
_cell_volume   1430.01673017
_cell_formula_units_Z   3
loop_
 _symmetry_equiv_pos_site_id
 _symmetry_equiv_pos_as_xyz
  1  'x, y, z'
loop_
 _atom_site_type_symbol
 _atom_site_label
 _atom_site_symmetry_multiplicity
 _atom_site_fract_x
 _atom_site_fract_y
 _atom_site_fract_z
 _atom_site_occupancy
  Na  Na0  1  0.99614834  0.62940583  0.24269807  1
  Na  Na1  1  0.99739402  0.36099936  0.75740407  1
  Na  Na2  1  0.37337537  0.99424244  0.74961727  1
  Na  Na3  1  0.65929074  0.97620628  0.59045476  1
  Na  Na4  1  0.67850421  0.68262678  0.07909880  1
  Na  Na5  1  0.33718654  0.03928248  0.42133593  1
  Na  Na6  1  0.01571734  0.00288489  0.50318338  1
  Na  Na7  1  0.01427329  0.99572613  0.00301397  1
  Na  Na8  1  0.66565485  0.33449755  0.84105321  1
  Na  Na9  1  0.66649245  0.33368588  0.33135266  1
  Na  Na10  1  0.31818221  0.66266775  0.16166868  1
  Na  Na11  1  0.34523631  0.67101784  0.66655583  1
  Al  Al0  1  0.98748398  0.00100280  0.85380140  1
  Al  Al1  1  0.99917495  0.99494475  0.64803238  1
  Al  Al2  1  0.00438480  0.00103042  0.14850301  1
  Al  Al3  1  0.65942418  0.31579868  0.68233368  1
  Al  Al4  1  0.32186748  0.66748730  0.01624661  1
  Al  Al5  1  0.32720178  0.67073163  0.51965997  1
  Zn  Zn0  1  0.99639394  0.00188004  0.35223730  1
  Zn  Zn1  1  0.67705484  0.33580931  0.17244653  1
  Zn  Zn2  1  0.68086445  0.34677578  0.99108010  1
  Zn  Zn3  1  0.65006961  0.32542850  0.48983976  1
  Zn  Zn4  1  0.33683693  0.66409549  0.31265974  1
  Zn  Zn5  1  0.35996849  0.68428413  0.81581270  1
  Si  Si0  1  0.71748903  0.00375686  0.74707933  1
  Si  Si1  1  0.35637180  0.02931183  0.58281635  1
  Si  Si2  1  0.97859677  0.64378041  0.08526360  1
  S  S0  1  0.29703239  0.00878139  0.25052634  1
  S  S1  1  0.70540317  0.70995890  0.24904396  1
  S  S2  1  0.99685738  0.28461250  0.24917117  1
  S  S3  1  0.28909979  0.28144481  0.74907734  1
  S  S4  1  0.98342326  0.70884714  0.75003912  1
  S  S5  1  0.96771811  0.33870339  0.58418248  1
  S  S6  1  0.66729190  0.62227134  0.58514447  1
  S  S7  1  0.66494328  0.02853998  0.08224587  1
  S  S8  1  0.35873830  0.33106433  0.08210293  1
  S  S9  1  0.63104459  0.67054148  0.91697705  1
  S  S10  1  0.04807352  0.37171933  0.91351327  1
  S  S11  1  0.32595052  0.96370878  0.91452391  1
  S  S12  1  0.62670621  0.95428627  0.41885516  1
  S  S13  1  0.33442132  0.38427091  0.41909027  1
  S  S14  1  0.03796848  0.65938218  0.41700114  1
  O  O0  1  0.22570547  0.02600568  0.31075822  1
  O  O1  1  0.81296200  0.78960603  0.30473217  1
  O  O2  1  0.98774276  0.19536017  0.30721533  1
  O  O3  1  0.21392971  0.16785023  0.80476413  1
  O  O4  1  0.96784720  0.79365198  0.80677171  1
  O  O5  1  0.84750442  0.04242167  0.80607681  1
  O  O6  1  0.81319364  0.98671849  0.68557507  1
  O  O7  1  0.17783753  0.19323396  0.69505718  1
  O  O8  1  0.02125470  0.82611244  0.69641817  1
  O  O9  1  0.80177280  0.81697864  0.19349625  1
  O  O10  1  0.00730368  0.18537694  0.19532166  1
  O  O11  1  0.17342289  0.98864114  0.20009245  1
  O  O12  1  0.88759005  0.37205421  0.64010983  1
  O  O13  1  0.50119341  0.12834429  0.63926581  1
  O  O14  1  0.64662681  0.50754256  0.63846099  1
  O  O15  1  0.90352132  0.52719211  0.14776042  1
  O  O16  1  0.61695937  0.09407208  0.13701154  1
  O  O17  1  0.47432906  0.37269875  0.13643226  1
  O  O18  1  0.42699220  0.28214098  0.02855918  1
  O  O19  1  0.83196494  0.56212706  0.03123713  1
  O  O20  1  0.69665075  0.13740295  0.02762333  1
  O  O21  1  0.42739045  0.13719468  0.51917829  1
  O  O22  1  0.70527227  0.55756150  0.52841407  1
  O  O23  1  0.85363513  0.30247870  0.53056788  1
  O  O24  1  0.53945565  0.69118151  0.97198367  1
  O  O25  1  0.16343531  0.46936820  0.96616450  1
  O  O26  1  0.30500963  0.84272214  0.96597139  1
  O  O27  1  0.53404810  0.84985306  0.47579580  1
  O  O28  1  0.32440635  0.48151793  0.47415676  1
  O  O29  1  0.15918423  0.68104533  0.46906129  1
  O  O30  1  0.11264870  0.64334543  0.35790921  1
  O  O31  1  0.51719366  0.87249228  0.36425748  1
  O  O32  1  0.34417036  0.47541424  0.36183672  1
  O  O33  1  0.12466024  0.47071809  0.85559383  1
  O  O34  1  0.34947189  0.89333709  0.85527731  1
  O  O35  1  0.53081240  0.64754508  0.86083085  1
  O  O36  1  0.03172595  0.82884890  0.41756156  1
  O  O37  1  0.80054490  0.96367367  0.41704402  1
  O  O38  1  0.17335879  0.20189511  0.42054953  1
  O  O39  1  0.04107426  0.19422110  0.91104917  1
  O  O40  1  0.15700489  0.97186177  0.91095804  1
  O  O41  1  0.81027428  0.83953616  0.91289341  1
  O  O42  1  0.98598742  0.17811849  0.59188810  1
  O  O43  1  0.16130641  0.00405678  0.59591697  1
  O  O44  1  0.81810578  0.80843457  0.59279291  1
  O  O45  1  0.99759097  0.84247174  0.09570041  1
  O  O46  1  0.82622387  0.01227345  0.09273931  1
  O  O47  1  0.17494321  0.18610322  0.09457730  1
  O  O48  1  0.69785089  0.18807059  0.74175619  1
  O  O49  1  0.47039119  0.30577078  0.74126624  1
  O  O50  1  0.81897637  0.53297487  0.74250413  1
  O  O51  1  0.68181843  0.52897450  0.24459398  1
  O  O52  1  0.83701737  0.30297264  0.24618851  1
  O  O53  1  0.47398775  0.16395487  0.24188893  1
  O  O54  1  0.65353586  0.51479363  0.92227281  1
  O  O55  1  0.86726350  0.34207376  0.92071717  1
  O  O56  1  0.48001287  0.14253921  0.92350575  1
  O  O57  1  0.64959883  0.13575663  0.42262479  1
  O  O58  1  0.49472986  0.36512129  0.42088944  1
  O  O59  1  0.86103102  0.50259675  0.42498829  1
  O  O60  1  0.35220949  0.49847559  0.07021334  1
  O  O61  1  0.16997371  0.66176407  0.07035897  1
  O  O62  1  0.51660318  0.84021189  0.07181866  1
  O  O63  1  0.35174668  0.83467937  0.57586480  1
  O  O64  1  0.50298014  0.63609928  0.58064582  1
  O  O65  1  0.14717593  0.49579243  0.57651756  1
  O  O66  1  0.30146162  0.83819235  0.24978376  1
  O  O67  1  0.53261447  0.70266444  0.25033619  1
  O  O68  1  0.15846399  0.46694228  0.24724059  1
  O  O69  1  0.29953039  0.45550984  0.75423528  1
  O  O70  1  0.13695720  0.67805829  0.75315024  1
  O  O71  1  0.51548548  0.83434718  0.74981854  1
loop_
_geom_bond_atom_site_label_1
_geom_bond_atom_site_label_2
_geom_bond_distance
_geom_bond_site_symmetry_2
Na0 O15 2.244903 1_555
Na0 O66 2.353961 1_655
Na0 O51 2.420517 1_555
Na0 O68 2.450172 1_655
Na0 O52 2.451597 1_555
Na0 O30 2.700703 1_655
Na0 O11 2.852511 1_655
Na0 O1 2.919569 1_555
Na1 O48 2.291108 1_555
Na1 O69 2.330896 1_655
Na1 O70 2.387449 1_655
Na1 O33 2.387893 1_655
Na1 O5 2.618454 1_555
Na1 O50 2.662342 1_555
Na1 O12 2.760761 1_555
Na2 O71 2.277170 1_555
Na2 O49 2.401071 1_565
Na2 O34 2.443662 1_555
Na2 O48 2.463148 1_565
Na2 O70 2.469891 1_555
Na2 O13 2.665315 1_565
Na2 O3 2.781387 1_565
Na2 O8 2.901760 1_555
Na3 O63 2.342439 1_555
Na3 O6 2.456875 1_555
Na3 O44 2.462285 1_555
Na3 O42 2.481936 1_565
Na3 O64 2.564749 1_555
Na3 O13 2.566945 1_565
Na3 O27 2.737788 1_555
Na3 O23 2.789133 1_565
Na4 O19 2.316245 1_555
Na4 O62 2.413898 1_555
Na4 O45 2.432004 1_555
Na4 O60 2.471836 1_555
Na4 O46 2.496843 1_565
Na4 O24 2.660616 1_554
Na4 O17 2.675481 1_555
Na4 O9 2.744032 1_555
Na5 O21 2.292912 1_555
Na5 O36 2.353918 1_545
Na5 O57 2.412088 1_555
Na5 O58 2.446196 1_555
Na5 O38 2.460459 1_555
Na5 O0 2.591179 1_555
Na5 O29 2.883914 1_545
Na5 O31 2.893080 1_545
Na6 O43 2.394406 1_555
Na6 O38 2.396229 1_555
Na6 O36 2.451124 1_545
Na6 O42 2.554549 1_455
Na6 O37 2.562764 1_445
Na6 O44 2.591415 1_445
Na7 O45 2.390408 1_455
Na7 O40 2.424246 1_554
Na7 O47 2.527928 1_565
Na7 O41 2.546172 1_454
Na7 O39 2.583445 1_564
Na7 O46 2.600177 1_465
Na8 O54 2.402223 1_555
Na8 O56 2.433261 1_555
Na8 O55 2.456879 1_555
Na8 O48 2.598812 1_555
Na8 O50 2.659628 1_555
Na8 O49 2.706463 1_555
Na9 O52 2.473421 1_555
Na9 O51 2.505012 1_555
Na9 O53 2.519696 1_555
Na9 O58 2.555281 1_555
Na9 O57 2.591401 1_555
Na9 O59 2.596211 1_555
Na10 O61 2.380970 1_555
Na10 O68 2.436839 1_555
Na10 O66 2.503388 1_555
Na10 O62 2.555022 1_555
Na10 O60 2.555263 1_555
Na10 O67 2.598054 1_555
Na11 O71 2.329978 1_555
Na11 O63 2.425916 1_555
Na11 O64 2.429677 1_555
Na11 O65 2.559688 1_555
Na11 O69 2.567921 1_555
Na11 O70 2.638522 1_555
Al0 O5 1.777438 1_555
Al0 O39 1.951940 1_655
Al0 O41 1.957604 1_545
Al0 O4 2.003197 1_545
Al0 O40 2.049607 1_645
Al0 O3 2.062635 1_655
Al1 O43 1.781377 1_665
Al1 O6 1.781987 1_555
Al1 O8 1.896307 1_655
Al1 O7 1.938904 1_665
Al1 O44 2.003318 1_555
Al1 O42 2.059569 1_565
Al2 O45 1.773370 1_445
Al2 O10 1.887740 1_555
Al2 O11 1.904671 1_545
Al2 O47 1.942186 1_555
Al2 O9 1.947423 1_445
Al2 O46 2.018822 1_455
Al3 O13 1.785426 1_555
Al3 O48 1.847448 1_555
Al3 O14 1.974151 1_555
Al3 O12 2.012673 1_555
Al3 O49 2.053565 1_555
Al3 O50 2.143096 1_555
Al4 O61 1.753158 1_555
Al4 O25 1.919497 1_554
Al4 O26 1.943456 1_554
Al4 O60 2.003687 1_555
Al4 O62 2.014855 1_555
Al4 O24 2.040561 1_554
Al5 O63 1.809075 1_555
Al5 O29 1.876635 1_555
Al5 O28 1.908695 1_555
Al5 O27 1.938845 1_555
Al5 O65 1.976870 1_555
Al5 O64 2.167250 1_555
O0 S0 1.492997 1_555
O0 Zn0 2.102455 1_455
O1 S1 1.481886 1_555
O1 Zn0 2.019415 1_565
O2 S2 1.469475 1_555
O2 Zn0 1.982536 1_555
O3 S3 1.494328 1_555
O4 S4 1.481758 1_555
O5 Si0 1.640238 1_555
O6 Si0 1.624609 1_565
O7 S3 1.477583 1_555
O8 S4 1.477902 1_455
O9 S1 1.501691 1_555
O10 S2 1.487173 1_455
O11 S0 1.492598 1_565
O12 S5 1.503734 1_555
O13 Si1 1.666021 1_555
O14 S6 1.485438 1_555
O15 Si2 1.628631 1_555
O15 Zn1 1.908792 1_555
O16 S7 1.471385 1_555
O16 Zn1 2.042646 1_555
O17 S8 1.483346 1_555
O17 Zn1 2.103163 1_555
O18 S8 1.466575 1_555
O18 Zn2 2.148299 1_554
O19 Si2 1.622141 1_555
O19 Zn2 1.879062 1_554
O20 S7 1.461388 1_555
O20 Zn2 2.053981 1_554
O21 Si1 1.616166 1_555
O21 Zn3 1.910978 1_555
O22 S6 1.464599 1_555
O22 Zn3 2.006903 1_555
O23 S5 1.468669 1_555
O23 Zn3 2.085091 1_555
O24 S9 1.500027 1_555
O25 S10 1.485165 1_555
O26 S11 1.487494 1_555
O27 S12 1.511329 1_555
O28 S13 1.496739 1_555
O29 S14 1.502536 1_555
O30 S14 1.481771 1_555
O30 Zn4 2.110637 1_555
O31 S12 1.472080 1_555
O31 Zn4 2.041466 1_555
O32 S13 1.461723 1_555
O32 Zn4 1.989020 1_555
O33 S10 1.486165 1_555
O33 Zn5 2.136969 1_555
O34 S11 1.488235 1_555
O34 Zn5 2.051113 1_555
O35 S9 1.464284 1_555
O35 Zn5 1.943568 1_555
O36 S14 1.499215 1_555
O36 Zn0 2.206581 1_465
O37 S12 1.475319 1_555
O37 Zn0 2.107234 1_565
O38 S13 1.497911 1_555
O38 Zn0 2.223906 1_455
O39 S10 1.512013 1_555
O40 S11 1.510781 1_555
O41 S9 1.515040 1_555
O42 S5 1.490328 1_555
O43 Si1 1.624386 1_555
O44 S6 1.494404 1_555
O45 Si2 1.663330 1_555
O46 S7 1.499543 1_555
O47 S8 1.481210 1_555
O48 Si0 1.696693 1_555
O49 S3 1.493336 1_555
O50 S4 1.487859 1_555
O51 S1 1.481684 1_555
O51 Zn1 2.285760 1_555
O52 S2 1.480538 1_555
O52 Zn1 2.246291 1_555
O53 S0 1.462205 1_555
O53 Zn1 2.234609 1_555
O54 S9 1.465181 1_555
O54 Zn2 2.193036 1_555
O55 S10 1.470417 1_655
O55 Zn2 2.247160 1_555
O56 S11 1.468831 1_545
O56 Zn2 2.299178 1_555
O57 S12 1.487371 1_545
O57 Zn3 2.203807 1_555
O58 S13 1.487556 1_555
O58 Zn3 2.171014 1_555
O59 S14 1.465935 1_655
O59 Zn3 2.213244 1_555
O60 S8 1.505822 1_555
O61 Si2 1.625792 1_455
O62 S7 1.507687 1_565
O63 Si1 1.676360 1_565
O64 S6 1.498843 1_555
O65 S5 1.479107 1_455
O66 S0 1.500686 1_565
O66 Zn4 2.179446 1_555
O67 S1 1.474426 1_555
O67 Zn4 2.070026 1_555
O68 S2 1.499836 1_455
O68 Zn4 2.174892 1_555
O69 S3 1.471656 1_555
O69 Zn5 2.231898 1_555
O70 S4 1.491537 1_455
O70 Zn5 2.360885 1_555
O71 Si0 1.631457 1_565
O71 Zn5 1.957397 1_555
