# generated using pymatgen
data_MgGa2
_symmetry_space_group_name_H-M   'P 1'
_cell_length_a   5.22204783
_cell_length_b   5.22204783
_cell_length_c   4.91215803
_cell_angle_alpha   90.00000000
_cell_angle_beta   90.00000000
_cell_angle_gamma   123.68061642
_symmetry_Int_Tables_number   1
_chemical_formula_structural   MgGa2
_chemical_formula_sum   'Mg2 Ga4'
_cell_volume   111.46829264
_cell_formula_units_Z   2
loop_
 _symmetry_equiv_pos_site_id
 _symmetry_equiv_pos_as_xyz
  1  'x, y, z'
loop_
 _atom_site_type_symbol
 _atom_site_label
 _atom_site_symmetry_multiplicity
 _atom_site_fract_x
 _atom_site_fract_y
 _atom_site_fract_z
 _atom_site_occupancy
  Mg  Mg0  1  0.76443163  0.76443163  0.75000000  1
  Mg  Mg1  1  0.23556837  0.23556837  0.25000000  1
  Ga  Ga0  1  0.09169341  0.44629487  0.75000000  1
  Ga  Ga1  1  0.44629487  0.09169341  0.75000000  1
  Ga  Ga2  1  0.55370513  0.90830659  0.25000000  1
  Ga  Ga3  1  0.90830659  0.55370513  0.25000000  1
loop_
_geom_bond_atom_site_label_1
_geom_bond_atom_site_label_2
_geom_bond_distance
_geom_bond_site_symmetry_2
Ga0 Ga3 2.803534 1_456
Ga0 Ga3 2.803534 1_455
Ga0 Ga1 2.804622 1_565
Ga0 Ga1 2.804622 1_455
Ga0 Mg0 2.937417 1_555
Ga0 Mg1 2.953766 1_556
Ga0 Mg1 2.953766 1_555
Ga0 Mg0 2.971464 1_455
Ga0 Mg0 2.974912 1_445
Ga1 Ga2 2.803534 1_545
Ga1 Ga2 2.803534 1_546
Ga1 Mg0 2.937417 1_555
Ga1 Mg1 2.953766 1_555
Ga1 Mg1 2.953766 1_556
Ga1 Mg0 2.971464 1_545
Ga1 Mg0 2.974912 1_445
Ga2 Ga3 2.804622 1_565
Ga2 Ga3 2.804622 1_455
Ga2 Mg1 2.937417 1_555
Ga2 Mg0 2.953766 1_555
Ga2 Mg0 2.953766 1_554
Ga2 Mg1 2.971464 1_565
Ga2 Mg1 2.974912 1_665
Ga3 Mg1 2.937417 1_555
Ga3 Mg0 2.953766 1_555
Ga3 Mg0 2.953766 1_554
Ga3 Mg1 2.971464 1_655
Ga3 Mg1 2.974912 1_665
