# generated using pymatgen
data_MgMn2CoO6
_symmetry_space_group_name_H-M   'P 1'
_cell_length_a   6.56130982
_cell_length_b   2.92007146
_cell_length_c   5.73429389
_cell_angle_alpha   90.01423425
_cell_angle_beta   101.75964835
_cell_angle_gamma   77.12251784
_symmetry_Int_Tables_number   1
_chemical_formula_structural   MgMn2CoO6
_chemical_formula_sum   'Mg1 Mn2 Co1 O6'
_cell_volume   104.73742092
_cell_formula_units_Z   1
loop_
 _symmetry_equiv_pos_site_id
 _symmetry_equiv_pos_as_xyz
  1  'x, y, z'
loop_
 _atom_site_type_symbol
 _atom_site_label
 _atom_site_symmetry_multiplicity
 _atom_site_fract_x
 _atom_site_fract_y
 _atom_site_fract_z
 _atom_site_occupancy
  Mg  Mg0  1  0.35036000  0.32404900  0.84140800  1
  Mn  Mn0  1  0.98847000  0.00491400  0.02572200  1
  Mn  Mn1  1  0.69351700  0.65247700  0.61513800  1
  Co  Co0  1  0.32087600  0.33868000  0.34348800  1
  O  O0  1  0.00781300  0.49545500  0.25049900  1
  O  O1  1  0.33782000  0.83038000  0.57621600  1
  O  O2  1  0.68753800  0.15568100  0.86131500  1
  O  O3  1  0.30294700  0.84753000  0.10774500  1
  O  O4  1  0.62355800  0.18716500  0.39208900  1
  O  O5  1  0.02073400  0.48862700  0.81024200  1
loop_
_geom_bond_atom_site_label_1
_geom_bond_atom_site_label_2
_geom_bond_distance
_geom_bond_site_symmetry_2
Mg0 O5 2.078391 1_555
Mg0 O1 2.097166 1_545
Mg0 O1 2.097900 1_555
Mg0 O2 2.135748 1_555
Mg0 O3 2.178635 1_556
Mg0 O3 2.180169 1_546
Mn0 O0 1.934090 1_645
Mn0 O0 1.934610 1_655
Mn0 O5 1.951267 1_654
Mn0 O5 1.951376 1_644
Mn0 O2 1.958384 1_554
Mn0 O3 1.967692 1_645
Mn1 O4 1.930437 1_565
Mn1 O4 1.931484 1_555
Mn1 O2 2.036597 1_555
Mn1 O2 2.036973 1_565
Mn1 O5 2.157173 1_655
Mn1 O1 2.239154 1_555
Co0 O4 1.897466 1_555
Co0 O0 1.961571 1_555
Co0 O1 1.965541 1_545
Co0 O1 1.965852 1_555
Co0 O3 1.976703 1_555
Co0 O3 1.976761 1_545
