# generated using pymatgen
data_MgCo6O7F5
_symmetry_space_group_name_H-M   'P 1'
_cell_length_a   5.09772462
_cell_length_b   5.16188703
_cell_length_c   8.73969841
_cell_angle_alpha   91.52407708
_cell_angle_beta   90.48891180
_cell_angle_gamma   102.23139648
_symmetry_Int_Tables_number   1
_chemical_formula_structural   MgCo6O7F5
_chemical_formula_sum   'Mg1 Co6 O7 F5'
_cell_volume   224.65177296
_cell_formula_units_Z   1
loop_
 _symmetry_equiv_pos_site_id
 _symmetry_equiv_pos_as_xyz
  1  'x, y, z'
loop_
 _atom_site_type_symbol
 _atom_site_label
 _atom_site_symmetry_multiplicity
 _atom_site_fract_x
 _atom_site_fract_y
 _atom_site_fract_z
 _atom_site_occupancy
  Mg  Mg0  1  0.52906345  0.02894532  0.33641894  1
  Co  Co0  1  0.01663109  0.98138511  0.98804342  1
  Co  Co1  1  0.01201631  0.96971127  0.33068879  1
  Co  Co2  1  0.05817908  0.99265174  0.66722153  1
  Co  Co3  1  0.49065274  0.49448179  0.15875783  1
  Co  Co4  1  0.42663261  0.55367934  0.83946326  1
  Co  Co5  1  0.41714712  0.55976924  0.49498576  1
  O  O0  1  0.19433209  0.81583246  0.82816363  1
  O  O1  1  0.23577381  0.82917058  0.48955952  1
  O  O2  1  0.31323863  0.30060734  0.32398106  1
  O  O3  1  0.27983245  0.30085480  0.00410014  1
  O  O4  1  0.29970303  0.32897961  0.66607874  1
  O  O5  1  0.68000727  0.68328741  0.99667687  1
  O  O6  1  0.67299349  0.69465438  0.32313025  1
  F  F0  1  0.22151292  0.82680351  0.16198914  1
  F  F1  1  0.70498468  0.69955025  0.65542807  1
  F  F2  1  0.79016129  0.15853856  0.17312064  1
  F  F3  1  0.83752690  0.13289774  0.82570994  1
  F  F4  1  0.81961204  0.14819756  0.49362647  1
loop_
_geom_bond_atom_site_label_1
_geom_bond_atom_site_label_2
_geom_bond_distance
_geom_bond_site_symmetry_2
Mg0 O2 1.961758 1_555
Mg0 O6 2.014121 1_545
Mg0 O1 2.131751 1_545
Co0 O3 1.893753 1_566
Co0 O0 1.946645 1_555
Co0 F3 1.948743 1_465
Co0 O5 2.051265 1_455
Co0 F0 2.104565 1_556
Co0 F2 2.277261 1_466
Co1 O6 1.990077 1_455
Co1 O1 2.032840 1_555
Co1 F0 2.039933 1_555
Co1 O2 2.043112 1_565
Co1 F4 2.043441 1_465
Co1 F2 2.153467 1_465
Co2 O0 1.900876 1_555
Co2 O4 1.904056 1_565
Co2 F3 2.006542 1_465
Co2 O1 2.054425 1_555
Co2 F1 2.091821 1_455
Co2 F4 2.207383 1_465
Co3 O3 1.851796 1_555
Co3 O6 1.867262 1_555
Co3 O5 1.893761 1_554
Co3 O2 1.902698 1_555
Co3 F0 2.412702 1_555
Co3 F2 2.546407 1_555
Co4 O5 1.886385 1_555
Co4 O4 1.905775 1_555
Co4 O0 1.981759 1_555
Co4 O3 2.009476 1_556
Co4 F1 2.195008 1_555
Co5 O1 1.827156 1_555
Co5 O4 1.954842 1_555
Co5 O2 1.970709 1_555
Co5 F1 2.025416 1_555
Co5 O6 2.036171 1_555
F0 Mg0 2.247709 1_565
F2 Mg0 1.990436 1_555
F4 Mg0 1.998593 1_555
