# generated using pymatgen
data_MgTi(FeO2)4
_symmetry_space_group_name_H-M   'P 1'
_cell_length_a   6.04044794
_cell_length_b   6.01659602
_cell_length_c   6.07568347
_cell_angle_alpha   60.32118132
_cell_angle_beta   60.21080430
_cell_angle_gamma   60.13053106
_symmetry_Int_Tables_number   1
_chemical_formula_structural   MgTi(FeO2)4
_chemical_formula_sum   'Mg1 Ti1 Fe4 O8'
_cell_volume   156.91475102
_cell_formula_units_Z   1
loop_
 _symmetry_equiv_pos_site_id
 _symmetry_equiv_pos_as_xyz
  1  'x, y, z'
loop_
 _atom_site_type_symbol
 _atom_site_label
 _atom_site_symmetry_multiplicity
 _atom_site_fract_x
 _atom_site_fract_y
 _atom_site_fract_z
 _atom_site_occupancy
  Mg  Mg0  1  0.00000000  0.50000000  0.50000000  1
  Ti  Ti0  1  0.50000000  0.50000000  0.00000000  1
  Fe  Fe0  1  0.13143700  0.12986900  0.10882400  1
  Fe  Fe1  1  0.50000000  0.00000000  0.50000000  1
  Fe  Fe2  1  0.50000000  0.50000000  0.50000000  1
  Fe  Fe3  1  0.86856300  0.87013100  0.89117600  1
  O  O0  1  0.26021800  0.27137600  0.23318400  1
  O  O1  1  0.26021800  0.73522200  0.23318400  1
  O  O2  1  0.25783500  0.25803100  0.72610300  1
  O  O3  1  0.74053800  0.26652400  0.22641300  1
  O  O4  1  0.25946200  0.73347600  0.77358700  1
  O  O5  1  0.74216500  0.74196900  0.27389700  1
  O  O6  1  0.73978200  0.26477800  0.76681600  1
  O  O7  1  0.73978200  0.72862400  0.76681600  1
loop_
_geom_bond_atom_site_label_1
_geom_bond_atom_site_label_2
_geom_bond_distance
_geom_bond_site_symmetry_2
Mg0 O2 2.078259 1_555
Mg0 O5 2.078259 1_455
Mg0 O1 2.124494 1_555
Mg0 O6 2.124494 1_455
Mg0 O7 2.124494 1_455
Mg0 O0 2.124494 1_555
Fe0 O2 1.905594 1_554
Fe0 O3 1.932235 1_455
Fe0 O1 1.944626 1_545
Fe0 O0 1.944631 1_555
Fe1 O2 2.071316 1_555
Fe1 O5 2.071316 1_545
Fe1 O3 2.174148 1_555
Fe1 O4 2.174148 1_545
Fe1 O7 2.178995 1_545
Fe1 O0 2.178995 1_555
Fe2 O5 2.071316 1_555
Fe2 O2 2.071316 1_555
Fe2 O4 2.174152 1_555
Fe2 O3 2.174152 1_555
Fe2 O6 2.178995 1_555
Fe2 O1 2.178995 1_555
Fe3 O5 1.905594 1_556
Fe3 O4 1.932235 1_655
Fe3 O6 1.944626 1_565
Fe3 O7 1.944631 1_555
O0 Ti0 2.003201 1_555
O1 Ti0 2.003201 1_555
O3 Ti0 2.004020 1_555
O4 Ti0 2.004020 1_556
O6 Ti0 2.003201 1_556
O7 Ti0 2.003201 1_556
