# generated using pymatgen
data_IO2
_symmetry_space_group_name_H-M   'P 1'
_cell_length_a   6.76690215
_cell_length_b   7.82743668
_cell_length_c   8.29899840
_cell_angle_alpha   116.68794003
_cell_angle_beta   90.00000000
_cell_angle_gamma   90.00000000
_symmetry_Int_Tables_number   1
_chemical_formula_structural   IO2
_chemical_formula_sum   'I8 O16'
_cell_volume   392.74724178
_cell_formula_units_Z   8
loop_
 _symmetry_equiv_pos_site_id
 _symmetry_equiv_pos_as_xyz
  1  'x, y, z'
loop_
 _atom_site_type_symbol
 _atom_site_label
 _atom_site_symmetry_multiplicity
 _atom_site_fract_x
 _atom_site_fract_y
 _atom_site_fract_z
 _atom_site_occupancy
  I  I0  1  0.12623781  0.85976197  0.68525461  1
  I  I1  1  0.62623781  0.14023803  0.81474539  1
  I  I2  1  0.87376219  0.14023803  0.31474539  1
  I  I3  1  0.37376219  0.85976197  0.18525461  1
  I  I4  1  0.25406260  0.31763152  0.14276132  1
  I  I5  1  0.75406260  0.68236848  0.35723868  1
  I  I6  1  0.74593740  0.68236848  0.85723868  1
  I  I7  1  0.24593740  0.31763152  0.64276132  1
  O  O0  1  0.25945184  0.05873161  0.50851749  1
  O  O1  1  0.75945184  0.94126839  0.99148251  1
  O  O2  1  0.74054816  0.94126839  0.49148251  1
  O  O3  1  0.24054816  0.05873161  0.00851749  1
  O  O4  1  0.34693631  0.31806579  0.34485039  1
  O  O5  1  0.84693631  0.68193421  0.15514961  1
  O  O6  1  0.65306369  0.68193421  0.65514961  1
  O  O7  1  0.15306369  0.31806579  0.84485039  1
  O  O8  1  0.04401445  0.69068953  0.44315806  1
  O  O9  1  0.54401445  0.30931047  0.05684194  1
  O  O10  1  0.95598555  0.30931047  0.55684194  1
  O  O11  1  0.45598555  0.69068953  0.94315806  1
  O  O12  1  0.04816281  0.69160587  0.78410942  1
  O  O13  1  0.54816281  0.30839413  0.71589058  1
  O  O14  1  0.95183719  0.30839413  0.21589058  1
  O  O15  1  0.45183719  0.69160587  0.28410942  1
loop_
_geom_bond_atom_site_label_1
_geom_bond_atom_site_label_2
_geom_bond_distance
_geom_bond_site_symmetry_2
I0 O12 1.911704 1_555
I0 O8 1.925949 1_555
I0 O3 2.543225 1_566
I0 O0 2.727898 1_565
I1 O13 1.911704 1_555
I1 O9 1.925949 1_556
I1 O2 2.543225 1_545
I1 O1 2.727898 1_545
I2 O14 1.911704 1_555
I2 O10 1.925949 1_555
I2 O1 2.543225 1_544
I2 O2 2.727898 1_545
I3 O15 1.911704 1_555
I3 O11 1.925949 1_554
I3 O0 2.543225 1_565
I3 O3 2.727898 1_565
I4 O4 1.789595 1_555
I4 O3 1.824369 1_555
I4 O9 2.078629 1_555
I4 O14 2.143718 1_455
I4 O7 2.566562 1_554
I5 O5 1.789595 1_555
I5 O2 1.824369 1_555
I5 O8 2.078629 1_655
I5 O15 2.143718 1_555
I5 O6 2.566562 1_555
I6 O6 1.789595 1_555
I6 O1 1.824369 1_555
I6 O11 2.078629 1_555
I6 O12 2.143718 1_655
I6 O5 2.566562 1_556
I7 O7 1.789595 1_555
I7 O0 1.824369 1_555
I7 O10 2.078629 1_455
I7 O13 2.143718 1_555
I7 O4 2.566562 1_555
