# generated using pymatgen
data_NaClO4
_symmetry_space_group_name_H-M   'P 1'
_cell_length_a   4.71875978
_cell_length_b   4.71876030
_cell_length_c   6.98561793
_cell_angle_alpha   90.00000000
_cell_angle_beta   90.00000000
_cell_angle_gamma   95.61421131
_symmetry_Int_Tables_number   1
_chemical_formula_structural   NaClO4
_chemical_formula_sum   'Na2 Cl2 O8'
_cell_volume   154.80050180
_cell_formula_units_Z   2
loop_
 _symmetry_equiv_pos_site_id
 _symmetry_equiv_pos_as_xyz
  1  'x, y, z'
loop_
 _atom_site_type_symbol
 _atom_site_label
 _atom_site_symmetry_multiplicity
 _atom_site_fract_x
 _atom_site_fract_y
 _atom_site_fract_z
 _atom_site_occupancy
  Na  Na0  1  0.65640662  0.65640662  0.25000000  1
  Na  Na1  1  0.34359338  0.34359338  0.75000000  1
  Cl  Cl0  1  0.15944971  0.15944971  0.25000000  1
  Cl  Cl1  1  0.84055029  0.84055029  0.75000000  1
  O  O0  1  0.14146958  0.80682710  0.75000000  1
  O  O1  1  0.85852942  0.19317290  0.25000000  1
  O  O2  1  0.80682710  0.14146958  0.75000000  1
  O  O3  1  0.19317290  0.85852942  0.25000000  1
  O  O4  1  0.29367690  0.29367690  0.08342575  1
  O  O5  1  0.70632310  0.70632310  0.58342575  1
  O  O6  1  0.29367690  0.29367690  0.41657425  1
  O  O7  1  0.70632310  0.70632310  0.91657425  1
loop_
_geom_bond_atom_site_label_1
_geom_bond_atom_site_label_2
_geom_bond_distance
_geom_bond_site_symmetry_2
Na0 O7 2.350576 1_554
Na0 O5 2.350576 1_555
Na0 O3 2.468948 1_555
Na0 O1 2.468948 1_555
Na0 O6 2.576855 1_555
Na0 O4 2.576855 1_555
Na0 O3 2.617717 1_655
Na0 O1 2.617717 1_565
Na1 O4 2.350576 1_556
Na1 O6 2.350576 1_555
Na1 O2 2.468950 1_555
Na1 O0 2.468950 1_555
Na1 O7 2.576855 1_555
Na1 O5 2.576855 1_555
Na1 O2 2.617718 1_455
Na1 O0 2.617719 1_545
Cl0 O4 1.441486 1_555
Cl0 O6 1.441486 1_555
Cl0 O1 1.444248 1_455
Cl0 O3 1.444248 1_545
Cl1 O7 1.441486 1_555
Cl1 O5 1.441486 1_555
Cl1 O0 1.444243 1_655
Cl1 O2 1.444243 1_565
