# generated using pymatgen
data_Rb2MgFe4O7
_symmetry_space_group_name_H-M   'P 1'
_cell_length_a   5.52550615
_cell_length_b   5.52202962
_cell_length_c   7.47068530
_cell_angle_alpha   90.19723288
_cell_angle_beta   98.17750590
_cell_angle_gamma   112.65046482
_symmetry_Int_Tables_number   1
_chemical_formula_structural   Rb2MgFe4O7
_chemical_formula_sum   'Rb2 Mg1 Fe4 O7'
_cell_volume   207.80218981
_cell_formula_units_Z   1
loop_
 _symmetry_equiv_pos_site_id
 _symmetry_equiv_pos_as_xyz
  1  'x, y, z'
loop_
 _atom_site_type_symbol
 _atom_site_label
 _atom_site_symmetry_multiplicity
 _atom_site_fract_x
 _atom_site_fract_y
 _atom_site_fract_z
 _atom_site_occupancy
  Rb  Rb0  1  0.36266846  0.73388582  0.99507266  1
  Rb  Rb1  1  0.71437402  0.37399173  0.93684387  1
  Mg  Mg0  1  0.11467482  0.11653359  0.22374304  1
  Fe  Fe0  1  0.77219996  0.71226738  0.38543216  1
  Fe  Fe1  1  0.03876931  0.06541186  0.71630781  1
  Fe  Fe2  1  0.28832551  0.64721688  0.51415685  1
  Fe  Fe3  1  0.61354408  0.16310617  0.47873212  1
  O  O0  1  0.10715873  0.75037408  0.29806673  1
  O  O1  1  0.00827935  0.38881865  0.62656594  1
  O  O2  1  0.12514966  0.13824185  0.96632739  1
  O  O3  1  0.41361915  0.40434793  0.36847088  1
  O  O4  1  0.68550085  0.79384083  0.63743440  1
  O  O5  1  0.32904833  -0.00229970  0.64856709  1
  O  O6  1  0.75168678  0.03906494  0.27835205  1
loop_
_geom_bond_atom_site_label_1
_geom_bond_atom_site_label_2
_geom_bond_distance
_geom_bond_site_symmetry_2
Mg0 O2 1.934898 1_554
Mg0 O3 1.970162 1_555
Mg0 O6 1.986296 1_455
Mg0 O0 2.085161 1_545
Fe0 O0 1.985049 1_655
Fe0 O6 2.012710 1_565
Fe0 O3 2.040881 1_555
Fe0 O4 2.096099 1_555
Fe1 O2 1.863239 1_555
Fe1 O5 1.913128 1_555
Fe1 O4 1.954079 1_445
Fe1 O1 1.968505 1_555
Fe2 O1 1.952682 1_555
Fe2 O0 1.979512 1_555
Fe2 O4 2.090762 1_555
Fe2 O3 2.093302 1_555
Fe2 O5 2.095600 1_565
Fe3 O6 2.003359 1_555
Fe3 O5 2.093965 1_555
Fe3 O3 2.134387 1_555
Fe3 O1 2.177587 1_655
Fe3 O4 2.495728 1_545
O0 Rb0 2.851668 1_554
O0 Rb1 3.336668 1_454
O1 Rb1 2.997809 1_455
O1 Rb0 3.255871 1_555
O2 Rb0 2.989051 1_545
O2 Rb1 3.005089 1_455
O2 Rb0 3.029402 1_555
O2 Rb1 3.047084 1_555
O3 Rb0 3.373172 1_554
O4 Rb1 3.259270 1_555
O4 Rb0 3.367073 1_555
O5 Rb1 2.957388 1_555
O5 Rb0 2.992554 1_545
O6 Rb0 2.798281 1_544
O6 Rb1 3.185708 1_554
