# generated using pymatgen
data_NaNb2Ga2P5SO24
_symmetry_space_group_name_H-M   'P 1'
_cell_length_a   8.66792040
_cell_length_b   8.64848826
_cell_length_c   22.38190269
_cell_angle_alpha   89.91971870
_cell_angle_beta   90.22066376
_cell_angle_gamma   119.94185295
_symmetry_Int_Tables_number   1
_chemical_formula_structural   NaNb2Ga2P5SO24
_chemical_formula_sum   'Na3 Nb6 Ga6 P15 S3 O72'
_cell_volume   1453.89692266
_cell_formula_units_Z   3
loop_
 _symmetry_equiv_pos_site_id
 _symmetry_equiv_pos_as_xyz
  1  'x, y, z'
loop_
 _atom_site_type_symbol
 _atom_site_label
 _atom_site_symmetry_multiplicity
 _atom_site_fract_x
 _atom_site_fract_y
 _atom_site_fract_z
 _atom_site_occupancy
  Na  Na0  1  0.00009728  0.99959853  0.00482936  1
  Na  Na1  1  0.66644828  0.33316354  0.83303999  1
  Na  Na2  1  0.66728655  0.33159490  0.33917268  1
  Nb  Nb0  1  0.00533199  0.00755928  0.36053921  1
  Nb  Nb1  1  0.99953659  0.00033830  0.85375812  1
  Nb  Nb2  1  0.66619274  0.32765933  0.18898014  1
  Nb  Nb3  1  0.33174779  0.66625210  0.02741222  1
  Nb  Nb4  1  0.33940960  0.66781155  0.52433730  1
  Nb  Nb5  1  0.33415350  0.66617339  0.80762652  1
  Ga  Ga0  1  0.99217056  0.99174593  0.64587650  1
  Ga  Ga1  1  0.01038583  0.00775847  0.14741326  1
  Ga  Ga2  1  0.66380638  0.33915157  0.68714686  1
  Ga  Ga3  1  0.66714717  0.33425722  0.98094433  1
  Ga  Ga4  1  0.67017389  0.34300615  0.48005600  1
  Ga  Ga5  1  0.32359630  0.66663224  0.31381841  1
  P  P0  1  0.28081998  0.98964401  0.24969211  1
  P  P1  1  0.01158192  0.29209495  0.24947867  1
  P  P2  1  0.28838533  0.28056875  0.74549525  1
  P  P3  1  0.99268039  0.70894147  0.74644160  1
  P  P4  1  0.71603443  0.00979083  0.74593187  1
  P  P5  1  0.67852829  0.62106110  0.58463552  1
  P  P6  1  0.94606153  0.62605439  0.08241591  1
  P  P7  1  0.67980819  0.05153833  0.08164059  1
  P  P8  1  0.37643518  0.32231602  0.08160769  1
  P  P9  1  0.61930869  0.65938244  0.91808922  1
  P  P10  1  0.03965934  0.38116556  0.91759114  1
  P  P11  1  0.34133864  0.96045996  0.91761247  1
  P  P12  1  0.61329419  0.95841445  0.41541814  1
  P  P13  1  0.34704614  0.39094513  0.41536294  1
  P  P14  1  0.04198114  0.65607515  0.41639863  1
  S  S0  1  0.70808318  0.71608099  0.24967291  1
  S  S1  1  0.94883572  0.32629268  0.58416159  1
  S  S2  1  0.37798785  0.05261603  0.58408944  1
  O  O0  1  0.19717593  0.02951320  0.30531436  1
  O  O1  1  0.82395717  0.79271334  0.30349917  1
  O  O2  1  0.96816516  0.16818955  0.30539961  1
  O  O3  1  0.19899553  0.16802189  0.80392109  1
  O  O4  1  0.96742021  0.79846765  0.80431668  1
  O  O5  1  0.82998881  0.03396038  0.80424345  1
  O  O6  1  0.79395582  0.96801143  0.69267425  1
  O  O7  1  0.16942972  0.20079959  0.69172473  1
  O  O8  1  0.03521883  0.82840969  0.69282918  1
  O  O9  1  0.78896111  0.81902795  0.19534512  1
  O  O10  1  0.02945322  0.20423259  0.19340199  1
  O  O11  1  0.17228203  0.96512037  0.19351132  1
  O  O12  1  0.87537948  0.36516004  0.63765007  1
  O  O13  1  0.49180827  0.12312391  0.63772657  1
  O  O14  1  0.63041330  0.50184384  0.63998325  1
  O  O15  1  0.86436212  0.50508582  0.13864170  1
  O  O16  1  0.64024940  0.13325841  0.13830949  1
  O  O17  1  0.49482107  0.35965580  0.13835032  1
  O  O18  1  0.45977712  0.29572041  0.02607544  1
  O  O19  1  0.83700273  0.54229334  0.02636528  1
  O  O20  1  0.70632237  0.16344620  0.02645884  1
  O  O21  1  0.45845565  0.15719864  0.52963053  1
  O  O22  1  0.70250163  0.53743214  0.52793404  1
  O  O23  1  0.84122050  0.29723809  0.52978126  1
  O  O24  1  0.53454216  0.69517205  0.97306853  1
  O  O25  1  0.16033119  0.46540783  0.97300289  1
  O  O26  1  0.30526160  0.83977782  0.97294890  1
  O  O27  1  0.53171852  0.83893357  0.47218236  1
  O  O28  1  0.30744859  0.46943761  0.47199012  1
  O  O29  1  0.16109153  0.69417555  0.47255006  1
  O  O30  1  0.12173190  0.62695197  0.36036255  1
  O  O31  1  0.50279268  0.87381532  0.35986338  1
  O  O32  1  0.37291878  0.49998121  0.35961275  1
  O  O33  1  0.13188863  0.49347405  0.86119098  1
  O  O34  1  0.36139024  0.86790149  0.86125242  1
  O  O35  1  0.50664505  0.63847906  0.86129300  1
  O  O36  1  0.02453440  0.82742638  0.40714532  1
  O  O37  1  0.79974200  0.97136413  0.40717625  1
  O  O38  1  0.17279737  0.20221475  0.40890529  1
  O  O39  1  0.02625637  0.19433878  0.91014274  1
  O  O40  1  0.16842745  0.97423080  0.90997405  1
  O  O41  1  0.80573902  0.83196336  0.91014509  1
  O  O42  1  0.97622429  0.17329048  0.59121926  1
  O  O43  1  0.19992163  0.02906143  0.59118054  1
  O  O44  1  0.83498157  0.80940984  0.59199902  1
  O  O45  1  0.97379276  0.81232556  0.09125385  1
  O  O46  1  0.83609287  0.02179211  0.09150407  1
  O  O47  1  0.18918789  0.16475773  0.08905084  1
  O  O48  1  0.69255606  0.17287428  0.74167595  1
  O  O49  1  0.47427664  0.30281997  0.74352801  1
  O  O50  1  0.83030025  0.52219358  0.74337037  1
  O  O51  1  0.69310233  0.53275659  0.24398832  1
  O  O52  1  0.83703588  0.30882664  0.24295477  1
  O  O53  1  0.47036878  0.16590398  0.24295816  1
  O  O54  1  0.64044032  0.49652911  0.92278633  1
  O  O55  1  0.85619868  0.35968858  0.92271515  1
  O  O56  1  0.50374162  0.14396400  0.92283218  1
  O  O57  1  0.64246948  0.14525072  0.42604504  1
  O  O58  1  0.50141420  0.35623713  0.42398878  1
  O  O59  1  0.85523805  0.49621097  0.42413925  1
  O  O60  1  0.36186228  0.49562717  0.07474312  1
  O  O61  1  0.13333293  0.63968518  0.07491283  1
  O  O62  1  0.50535696  0.86595874  0.07487281  1
  O  O63  1  0.35828425  0.86866621  0.57569139  1
  O  O64  1  0.50640516  0.64086755  0.57354964  1
  O  O65  1  0.13056797  0.49136280  0.57537484  1
  O  O66  1  0.31212801  0.83486879  0.25934120  1
  O  O67  1  0.53169754  0.69178840  0.25771122  1
  O  O68  1  0.16973845  0.47528561  0.25929925  1
  O  O69  1  0.30659437  0.46725695  0.75866903  1
  O  O70  1  0.16106813  0.69175323  0.75944807  1
  O  O71  1  0.53102538  0.84053789  0.75928168  1
loop_
_geom_bond_atom_site_label_1
_geom_bond_atom_site_label_2
_geom_bond_distance
_geom_bond_site_symmetry_2
Na0 O47 2.434490 1_565
Na0 O45 2.458222 1_455
Na0 O46 2.473009 1_465
Na0 O41 2.640849 1_454
Na0 O39 2.644191 1_564
Na0 O40 2.651235 1_554
Na1 O55 2.526949 1_555
Na1 O49 2.529176 1_555
Na1 O54 2.532045 1_555
Na1 O50 2.532332 1_555
Na1 O56 2.532669 1_555
Na1 O48 2.545430 1_555
Na2 O59 2.442523 1_555
Na2 O58 2.458525 1_555
Na2 O57 2.464236 1_555
Na2 O53 2.672632 1_555
Na2 O52 2.675119 1_555
Na2 O51 2.687022 1_555
Nb0 O38 1.914845 1_555
Nb0 O36 1.948273 1_545
Nb0 O37 1.954425 1_445
Nb0 O2 1.998914 1_455
Nb0 O0 2.007245 1_555
Nb0 O1 2.151546 1_445
Nb1 O3 1.960581 1_655
Nb1 O4 1.966724 1_545
Nb1 O5 1.971211 1_555
Nb1 O39 2.019183 1_655
Nb1 O40 2.022912 1_645
Nb1 O41 2.025931 1_545
Nb2 O16 1.946642 1_555
Nb2 O52 1.976182 1_555
Nb2 O53 1.984547 1_555
Nb2 O15 1.988328 1_555
Nb2 O17 1.990905 1_555
Nb2 O51 2.075435 1_555
Nb3 O60 1.935435 1_555
Nb3 O61 1.939043 1_555
Nb3 O62 1.942757 1_555
Nb3 O25 2.030639 1_554
Nb3 O26 2.031627 1_554
Nb3 O24 2.051487 1_554
Nb4 O64 1.920028 1_555
Nb4 O27 1.969529 1_555
Nb4 O28 1.980289 1_555
Nb4 O63 2.021342 1_555
Nb4 O29 2.030216 1_555
Nb4 O65 2.040586 1_555
Nb5 O70 1.944425 1_555
Nb5 O71 1.948779 1_555
Nb5 O69 1.952004 1_555
Nb5 O35 2.019515 1_555
Nb5 O34 2.032889 1_555
Nb5 O33 2.034469 1_555
Ga0 O44 1.909228 1_555
Ga0 O6 1.937095 1_555
Ga0 O8 1.938574 1_655
Ga0 O7 1.975506 1_665
Ga0 O42 2.047137 1_565
Ga0 O43 2.069138 1_665
Ga1 O11 1.916800 1_545
Ga1 O10 1.922849 1_555
Ga1 O47 1.965174 1_555
Ga1 O45 2.001258 1_445
Ga1 O46 2.007749 1_455
Ga1 O9 2.093444 1_445
Ga2 O14 1.891533 1_555
Ga2 O50 1.970606 1_555
Ga2 O49 1.972211 1_555
Ga2 O48 1.992507 1_555
Ga2 O13 2.036997 1_555
Ga2 O12 2.060156 1_555
Ga3 O18 1.943537 1_556
Ga3 O19 1.946165 1_556
Ga3 O20 1.956837 1_556
Ga3 O54 2.008580 1_555
Ga3 O56 2.017733 1_555
Ga3 O55 2.021895 1_555
Ga4 O22 1.893845 1_555
Ga4 O59 1.945308 1_555
Ga4 O58 1.969813 1_555
Ga4 O57 2.009397 1_555
Ga4 O23 2.040922 1_555
Ga4 O21 2.061095 1_555
Ga5 O30 1.917873 1_555
Ga5 O66 1.937023 1_555
Ga5 O68 1.948372 1_555
Ga5 O31 1.974815 1_555
Ga5 O32 1.979444 1_555
Ga5 O67 2.122021 1_555
O0 P0 1.565922 1_545
O1 S0 1.492597 1_555
O2 P1 1.566457 1_655
O3 P2 1.584043 1_555
O4 P3 1.581011 1_555
O5 P4 1.583482 1_555
O6 P4 1.502881 1_565
O7 P2 1.506706 1_555
O8 P3 1.504329 1_455
O9 S0 1.463961 1_555
O10 P1 1.516036 1_555
O11 P0 1.517785 1_555
O12 S1 1.473863 1_555
O13 S2 1.476067 1_555
O14 P5 1.530602 1_555
O15 P6 1.563103 1_555
O16 P7 1.572764 1_555
O17 P8 1.559013 1_555
O18 P8 1.514331 1_555
O19 P6 1.517243 1_555
O20 P7 1.513844 1_555
O21 S2 1.471048 1_555
O22 P5 1.526927 1_555
O23 S1 1.474044 1_555
O24 P9 1.544329 1_555
O25 P10 1.547526 1_555
O26 P11 1.547467 1_555
O27 P12 1.567087 1_555
O28 P13 1.556710 1_555
O29 P14 1.550986 1_555
O30 P14 1.515147 1_555
O31 P12 1.514149 1_555
O32 P13 1.511384 1_555
O33 P10 1.550884 1_555
O34 P11 1.551013 1_555
O35 P9 1.554724 1_555
O36 P14 1.576226 1_555
O37 P12 1.574788 1_555
O38 P13 1.582509 1_555
O39 P10 1.570102 1_555
O40 P11 1.570322 1_555
O41 P9 1.569867 1_555
O42 S1 1.464576 1_555
O43 S2 1.461813 1_555
O44 P5 1.521031 1_555
O45 P6 1.518581 1_555
O46 P7 1.515076 1_555
O47 P8 1.520699 1_555
O48 P4 1.525055 1_555
O49 P2 1.525196 1_555
O50 P3 1.524668 1_555
O51 S0 1.530266 1_555
O52 P1 1.596266 1_655
O53 P0 1.595933 1_545
O54 P9 1.511706 1_555
O55 P10 1.510944 1_655
O56 P11 1.510977 1_545
O57 P12 1.524533 1_545
O58 P13 1.522019 1_555
O59 P14 1.526149 1_655
O60 P8 1.573025 1_555
O61 P6 1.577363 1_455
O62 P7 1.568978 1_565
O63 S2 1.524725 1_565
O64 P5 1.602799 1_555
O65 S1 1.521463 1_455
O66 P0 1.507785 1_555
O67 S0 1.447549 1_555
O68 P1 1.506078 1_555
O69 P2 1.570120 1_555
O70 P3 1.565370 1_455
O71 P4 1.569336 1_565
