# generated using pymatgen
data_MgVFeP2(O4F)2
_symmetry_space_group_name_H-M   'P 1'
_cell_length_a   5.28730286
_cell_length_b   5.39460694
_cell_length_c   7.46777700
_cell_angle_alpha   108.46281951
_cell_angle_beta   108.01297745
_cell_angle_gamma   96.61808550
_symmetry_Int_Tables_number   1
_chemical_formula_structural   MgVFeP2(O4F)2
_chemical_formula_sum   'Mg1 V1 Fe1 P2 O8 F2'
_cell_volume   186.69394630
_cell_formula_units_Z   1
loop_
 _symmetry_equiv_pos_site_id
 _symmetry_equiv_pos_as_xyz
  1  'x, y, z'
loop_
 _atom_site_type_symbol
 _atom_site_label
 _atom_site_symmetry_multiplicity
 _atom_site_fract_x
 _atom_site_fract_y
 _atom_site_fract_z
 _atom_site_occupancy
  Mg  Mg0  1  0.01504200  0.67635700  0.28767800  1
  V  V0  1  0.99588400  0.99923000  0.98785500  1
  Fe  Fe0  1  0.51895200  0.49814800  0.51376200  1
  P  P0  1  0.41279400  0.09806600  0.74242700  1
  P  P1  1  0.58254900  0.90792800  0.25589000  1
  O  O0  1  0.26401500  0.12507800  0.89142600  1
  O  O1  1  0.31865000  0.80409500  0.57478300  1
  O  O2  1  0.34313000  0.29071200  0.63024100  1
  O  O3  1  0.26425200  0.81774200  0.15279300  1
  O  O4  1  0.72291400  0.17070200  0.86921300  1
  O  O5  1  0.68549000  0.72896300  0.38015100  1
  O  O6  1  0.66849200  0.21030900  0.38031900  1
  O  O7  1  0.74403400  0.84125300  0.10975500  1
  F  F0  1  0.15213300  0.35170900  0.25192700  1
  F  F1  1  0.84916700  0.65470800  0.74856600  1
loop_
_geom_bond_atom_site_label_1
_geom_bond_atom_site_label_2
_geom_bond_distance
_geom_bond_site_symmetry_2
Mg0 O5 2.080278 1_455
Mg0 O1 2.080689 1_555
Mg0 O3 2.099616 1_555
Mg0 O7 2.115385 1_455
Fe0 O2 1.936466 1_555
Fe0 O6 1.954364 1_555
Fe0 O1 2.068405 1_555
Fe0 O5 2.097348 1_555
O0 P0 1.530744 1_555
O0 V0 1.925745 1_445
O1 P0 1.582777 1_565
O2 P0 1.538321 1_555
O3 P1 1.560255 1_555
O3 V0 2.119479 1_454
O4 P0 1.547696 1_555
O4 V0 1.938988 1_545
O5 P1 1.570228 1_555
O6 P1 1.529305 1_545
O7 P1 1.564534 1_555
O7 V0 2.075486 1_554
F0 Mg0 1.944232 1_555
F0 V0 2.107687 1_444
F0 Fe0 2.128854 1_555
F1 Fe0 1.914416 1_555
F1 V0 1.988976 1_555
