# generated using pymatgen
data_Ba2MgMn2O6
_symmetry_space_group_name_H-M   'P 1'
_cell_length_a   6.64077912
_cell_length_b   6.51748096
_cell_length_c   5.51128000
_cell_angle_alpha   90.00000000
_cell_angle_beta   90.00000000
_cell_angle_gamma   128.96584155
_symmetry_Int_Tables_number   1
_chemical_formula_structural   Ba2MgMn2O6
_chemical_formula_sum   'Ba2 Mg1 Mn2 O6'
_cell_volume   185.46561999
_cell_formula_units_Z   1
loop_
 _symmetry_equiv_pos_site_id
 _symmetry_equiv_pos_as_xyz
  1  'x, y, z'
loop_
 _atom_site_type_symbol
 _atom_site_label
 _atom_site_symmetry_multiplicity
 _atom_site_fract_x
 _atom_site_fract_y
 _atom_site_fract_z
 _atom_site_occupancy
  Ba  Ba0  1  0.65791300  0.31978800  0.25000000  1
  Ba  Ba1  1  0.21964100  0.72784100  0.75000000  1
  Mg  Mg0  1  0.39157100  0.62388400  0.25000000  1
  Mn  Mn0  1  0.98408000  0.02104700  0.51683200  1
  Mn  Mn1  1  0.98408000  0.02104700  0.98316800  1
  O  O0  1  0.82161400  0.73586000  0.75000000  1
  O  O1  1  0.23407000  0.78221300  0.25000000  1
  O  O2  1  0.74717400  0.80548200  0.25000000  1
  O  O3  1  0.26147500  0.18401300  0.75000000  1
  O  O4  1  0.20131200  0.25938800  0.25000000  1
  O  O5  1  0.83040300  0.18610000  0.75000000  1
loop_
_geom_bond_atom_site_label_1
_geom_bond_atom_site_label_2
_geom_bond_distance
_geom_bond_site_symmetry_2
Ba0 O1 2.791909 1_545
Ba0 O4 2.801404 1_555
Ba0 O2 2.830513 1_555
Ba0 O1 3.036344 1_655
Ba0 O5 3.304557 1_555
Ba0 O5 3.304557 1_554
Ba1 O0 2.676384 1_455
Ba1 O5 2.769351 1_455
Ba1 O1 2.772292 1_556
Ba1 O1 2.772292 1_555
Ba1 O3 2.806713 1_565
Ba1 O5 3.183585 1_565
Mg0 O2 1.860686 1_555
Mg0 O4 1.861395 1_555
Mg0 O1 1.875167 1_555
Mn0 O3 1.926676 1_655
Mn0 O0 1.935975 1_545
Mn0 O2 1.957455 1_545
Mn0 O4 1.959154 1_655
Mn0 O5 2.287093 1_555
Mn1 O3 1.926676 1_655
Mn1 O0 1.935975 1_545
Mn1 O2 1.957455 1_546
Mn1 O4 1.959154 1_656
Mn1 O5 2.287093 1_555
