# generated using pymatgen
data_Na6Be8O11
_symmetry_space_group_name_H-M   'P 1'
_cell_length_a   5.21078836
_cell_length_b   6.38292521
_cell_length_c   8.23786063
_cell_angle_alpha   102.55525723
_cell_angle_beta   94.46150122
_cell_angle_gamma   104.59506621
_symmetry_Int_Tables_number   1
_chemical_formula_structural   Na6Be8O11
_chemical_formula_sum   'Na6 Be8 O11'
_cell_volume   256.24833038
_cell_formula_units_Z   1
loop_
 _symmetry_equiv_pos_site_id
 _symmetry_equiv_pos_as_xyz
  1  'x, y, z'
loop_
 _atom_site_type_symbol
 _atom_site_label
 _atom_site_symmetry_multiplicity
 _atom_site_fract_x
 _atom_site_fract_y
 _atom_site_fract_z
 _atom_site_occupancy
  Na  Na0  1  0.79756961  0.22853182  0.20756114  1
  Na  Na1  1  0.20243039  0.77146818  0.79243886  1
  Na  Na2  1  0.77856516  0.61266264  -0.00126997  1
  Na  Na3  1  0.22143484  0.38733736  0.00126997  1
  Na  Na4  1  0.96513952  0.74309603  0.42970843  1
  Na  Na5  1  0.03486048  0.25690397  0.57029157  1
  Be  Be0  1  0.82764453  0.02342903  0.85103430  1
  Be  Be1  1  0.17235547  0.97657097  0.14896570  1
  Be  Be2  1  0.51985067  0.86173356  0.55012762  1
  Be  Be3  1  0.48014933  0.13826644  0.44987238  1
  Be  Be4  1  0.44712972  0.43029071  0.36333787  1
  Be  Be5  1  0.52589098  0.25907358  0.74889723  1
  Be  Be6  1  0.55287028  0.56970929  0.63666213  1
  Be  Be7  1  0.47410902  0.74092642  0.25110277  1
  O  O0  1  0.26394124  0.17007756  0.30997212  1
  O  O1  1  0.64067420  0.95445834  0.38926566  1
  O  O2  1  0.73605876  0.82992244  0.69002788  1
  O  O3  1  -0.00000000  -0.00000000  0.00000000  1
  O  O4  1  0.23240864  0.75076667  0.13593329  1
  O  O5  1  0.76759136  0.24923333  0.86406671  1
  O  O6  1  0.32786293  0.60701154  0.48945826  1
  O  O7  1  0.67213707  0.39298846  0.51054174  1
  O  O8  1  0.42105310  0.47017045  0.78029189  1
  O  O9  1  0.57894690  0.52982955  0.21970811  1
  O  O10  1  0.35932580  0.04554166  0.61073434  1
loop_
_geom_bond_atom_site_label_1
_geom_bond_atom_site_label_2
_geom_bond_distance
_geom_bond_site_symmetry_2
Na0 O9 2.458563 1_555
Na0 O3 2.477046 1_655
Na0 O1 2.564644 1_545
Na0 O0 2.651696 1_655
Na0 O7 2.686852 1_555
Na0 O5 2.855350 1_554
Na1 O8 2.458563 1_555
Na1 O3 2.477046 1_566
Na1 O10 2.564644 1_565
Na1 O2 2.651696 1_455
Na1 O6 2.686852 1_555
Na1 O4 2.855350 1_556
Na2 O9 2.260790 1_555
Na2 O5 2.327998 1_554
Na2 O8 2.334258 1_554
Na2 O4 2.397412 1_655
Na2 O3 2.448093 1_665
Na3 O8 2.260790 1_554
Na3 O4 2.327998 1_555
Na3 O9 2.334258 1_555
Na3 O5 2.397412 1_454
Na3 O3 2.448093 1_555
Na4 O6 2.331885 1_655
Na4 O9 2.439138 1_555
Na4 O1 2.459055 1_555
Na4 O10 2.538327 1_665
Na4 O2 2.558470 1_555
Na4 O7 2.618017 1_555
Na4 O4 2.887950 1_655
Na5 O7 2.331885 1_455
Na5 O8 2.439138 1_555
Na5 O10 2.459055 1_555
Na5 O1 2.538327 1_445
Na5 O0 2.558470 1_555
Na5 O6 2.618017 1_555
Na5 O5 2.887950 1_455
Be0 O3 1.520160 1_656
Be0 O5 1.533631 1_555
Be0 O2 1.550721 1_545
Be1 O3 1.520160 1_565
Be1 O4 1.533631 1_555
Be1 O0 1.550721 1_565
Be2 O10 1.621820 1_565
Be2 O6 1.625811 1_555
Be2 O2 1.629024 1_555
Be2 O1 1.669044 1_555
Be3 O1 1.621820 1_545
Be3 O7 1.625811 1_555
Be3 O0 1.629024 1_555
Be3 O10 1.669044 1_555
Be4 O9 1.583908 1_555
Be4 O0 1.637481 1_555
Be4 O6 1.637767 1_555
Be4 O7 1.716651 1_555
Be5 O5 1.539532 1_555
Be5 O8 1.556369 1_555
Be5 O10 1.575464 1_555
Be6 O8 1.583908 1_555
Be6 O2 1.637481 1_555
Be6 O7 1.637767 1_555
Be6 O6 1.716651 1_555
Be7 O4 1.539532 1_555
Be7 O9 1.556369 1_555
Be7 O1 1.575464 1_555
