# generated using pymatgen
data_MgSbN(OF3)2
_symmetry_space_group_name_H-M   'P 1'
_cell_length_a   5.23594965
_cell_length_b   5.23594965
_cell_length_c   6.82342600
_cell_angle_alpha   90.00000000
_cell_angle_beta   90.00000000
_cell_angle_gamma   101.39715367
_symmetry_Int_Tables_number   1
_chemical_formula_structural   MgSbN(OF3)2
_chemical_formula_sum   'Mg1 Sb1 N1 O2 F6'
_cell_volume   183.37663170
_cell_formula_units_Z   1
loop_
 _symmetry_equiv_pos_site_id
 _symmetry_equiv_pos_as_xyz
  1  'x, y, z'
loop_
 _atom_site_type_symbol
 _atom_site_label
 _atom_site_symmetry_multiplicity
 _atom_site_fract_x
 _atom_site_fract_y
 _atom_site_fract_z
 _atom_site_occupancy
  Mg  Mg0  1  0.00000000  0.00000000  0.00034400  1
  Sb  Sb0  1  0.50000000  0.50000000  0.97159500  1
  N  N0  1  0.00000000  0.00000000  0.53575100  1
  O  O0  1  0.13885400  0.86114600  0.48902600  1
  O  O1  1  0.86114600  0.13885400  0.48902600  1
  F  F0  1  0.20514700  0.20514700  0.78036400  1
  F  F1  1  0.79485300  0.79485300  0.78036400  1
  F  F2  1  0.26410000  0.26410000  0.17152700  1
  F  F3  1  0.73590000  0.73590000  0.17152700  1
  F  F4  1  0.75722900  0.24277100  0.02547500  1
  F  F5  1  0.24277100  0.75722900  0.02547500  1
loop_
_geom_bond_atom_site_label_1
_geom_bond_atom_site_label_2
_geom_bond_distance
_geom_bond_site_symmetry_2
N0 O0 1.169489 1_545
N0 O1 1.169489 1_455
F0 Mg0 2.025984 1_556
F0 Sb0 2.351068 1_555
F1 Mg0 2.025984 1_666
F1 Sb0 2.351068 1_555
F2 Sb0 2.075907 1_554
F2 Mg0 2.105464 1_555
F3 Sb0 2.075907 1_554
F3 Mg0 2.105464 1_665
F4 Mg0 1.974733 1_655
F4 Sb0 2.116606 1_554
F5 Mg0 1.974733 1_565
F5 Sb0 2.116606 1_554
