# generated using pymatgen
data_MgMnV2O6
_symmetry_space_group_name_H-M   'P 1'
_cell_length_a   3.97061620
_cell_length_b   5.31604334
_cell_length_c   6.61179669
_cell_angle_alpha   88.91130323
_cell_angle_beta   89.99335348
_cell_angle_gamma   111.91988304
_symmetry_Int_Tables_number   1
_chemical_formula_structural   MgMnV2O6
_chemical_formula_sum   'Mg1 Mn1 V2 O6'
_cell_volume   129.44495026
_cell_formula_units_Z   1
loop_
 _symmetry_equiv_pos_site_id
 _symmetry_equiv_pos_as_xyz
  1  'x, y, z'
loop_
 _atom_site_type_symbol
 _atom_site_label
 _atom_site_symmetry_multiplicity
 _atom_site_fract_x
 _atom_site_fract_y
 _atom_site_fract_z
 _atom_site_occupancy
  Mg  Mg0  1  0.81970893  0.63828322  0.82106255  1
  Mn  Mn0  1  0.13306551  0.26482356  0.07237193  1
  V  V0  1  0.81002058  0.61880086  0.33067427  1
  V  V1  1  0.14921600  0.29704100  0.60178869  1
  O  O0  1  0.71579141  0.43031961  0.08764718  1
  O  O1  1  0.28383171  0.56642378  0.79546493  1
  O  O2  1  0.98650480  0.97153491  0.33142641  1
  O  O3  1  0.01702627  0.03326336  0.78882869  1
  O  O4  1  0.69307821  0.38482058  0.57001839  1
  O  O5  1  0.26675658  0.53218913  0.35071697  1
loop_
_geom_bond_atom_site_label_1
_geom_bond_atom_site_label_2
_geom_bond_distance
_geom_bond_site_symmetry_2
Mg0 O3 1.955206 1_665
Mg0 O0 2.021002 1_556
Mg0 O1 2.024258 1_555
Mg0 O1 2.024519 1_655
Mg0 O4 2.098289 1_555
Mn0 O0 2.149646 1_455
Mn0 O0 2.149743 1_555
Mn0 O3 2.215098 1_554
Mn0 O2 2.219044 1_445
Mn0 O5 2.285868 1_555
Mn0 O1 2.335082 1_554
O0 V0 1.872783 1_555
O1 V1 1.864033 1_555
O2 V0 1.739698 1_555
O2 V1 2.426988 1_665
O3 V1 1.776400 1_555
O4 V0 1.939296 1_555
O4 V1 2.041809 1_555
O4 V1 2.041937 1_655
O5 V1 2.005381 1_555
O5 V0 2.034376 1_555
O5 V0 2.034599 1_455
