# generated using pymatgen
data_MgMn12(O7F5)2
_symmetry_space_group_name_H-M   'P 1'
_cell_length_a   4.81270906
_cell_length_b   5.71539768
_cell_length_c   15.34847557
_cell_angle_alpha   90.08723210
_cell_angle_beta   89.71115095
_cell_angle_gamma   89.78929768
_symmetry_Int_Tables_number   1
_chemical_formula_structural   MgMn12(O7F5)2
_chemical_formula_sum   'Mg1 Mn12 O14 F10'
_cell_volume   422.17483152
_cell_formula_units_Z   1
loop_
 _symmetry_equiv_pos_site_id
 _symmetry_equiv_pos_as_xyz
  1  'x, y, z'
loop_
 _atom_site_type_symbol
 _atom_site_label
 _atom_site_symmetry_multiplicity
 _atom_site_fract_x
 _atom_site_fract_y
 _atom_site_fract_z
 _atom_site_occupancy
  Mg  Mg0  1  0.99445900  0.60170100  0.08916200  1
  Mn  Mn0  1  0.99383000  0.16158000  0.41410200  1
  Mn  Mn1  1  0.00793400  0.85641900  0.25221600  1
  Mn  Mn2  1  0.02990800  0.13782900  0.07777600  1
  Mn  Mn3  1  0.03990900  0.17554900  0.73813400  1
  Mn  Mn4  1  0.01517000  0.83062000  0.57932000  1
  Mn  Mn5  1  0.04035700  0.86057200  0.89884000  1
  Mn  Mn6  1  0.50249300  0.35872400  0.59114000  1
  Mn  Mn7  1  0.50021100  0.33701200  0.91850100  1
  Mn  Mn8  1  0.49914800  0.34388200  0.25770000  1
  Mn  Mn9  1  0.49886600  0.63448100  0.09604600  1
  Mn  Mn10  1  0.50182500  0.65580600  0.42610100  1
  Mn  Mn11  1  0.48390700  0.64099600  0.74717800  1
  O  O0  1  0.20883300  0.12258200  0.30520300  1
  O  O1  1  0.22849400  0.11716100  0.63192600  1
  O  O2  1  0.22952900  0.11090000  0.96857600  1
  O  O3  1  0.21991200  0.86361800  0.13713500  1
  O  O4  1  0.20414400  0.88196800  0.46981900  1
  O  O5  1  0.25477800  0.89696300  0.79080800  1
  O  O6  1  0.27513900  0.38750400  0.14403500  1
  O  O7  1  0.27881300  0.59819800  0.64389400  1
  O  O8  1  0.28204800  0.40748400  0.81096700  1
  O  O9  1  0.73088100  0.38626500  0.03105200  1
  O  O10  1  0.75261200  0.62070000  0.19838700  1
  O  O11  1  0.70757600  0.38442900  0.36582700  1
  O  O12  1  0.71693400  0.61179000  0.53067300  1
  O  O13  1  0.71854100  0.38508200  0.69282700  1
  F  F0  1  0.26644300  0.62348700  0.31875100  1
  F  F1  1  0.25941400  0.38090400  0.48601100  1
  F  F2  1  0.24082800  0.61534200  0.98224800  1
  F  F3  1  0.71955900  0.63492200  0.85957800  1
  F  F4  1  0.77078200  0.11771700  0.18284300  1
  F  F5  1  0.74797900  0.12507900  0.52612000  1
  F  F6  1  0.74702300  0.89195500  0.35343900  1
  F  F7  1  0.76643000  0.85315300  0.02548200  1
  F  F8  1  0.79470200  0.13891000  0.84757800  1
  F  F9  1  0.77058700  0.86776200  0.68976900  1
loop_
_geom_bond_atom_site_label_1
_geom_bond_atom_site_label_2
_geom_bond_distance
_geom_bond_site_symmetry_2
Mg0 O9 1.985018 1_555
Mg0 O3 1.994242 1_655
Mg0 O6 2.008790 1_655
Mg0 O10 2.038585 1_555
Mn0 O0 1.973272 1_655
Mn0 O11 2.017285 1_555
Mn0 O4 2.076228 1_645
Mn1 O0 1.981251 1_565
Mn1 O10 2.006631 1_455
Mn1 O3 2.035858 1_555
Mn2 O2 1.933317 1_554
Mn2 O3 2.030921 1_545
Mn2 O6 2.117438 1_555
Mn2 O9 2.144764 1_455
Mn3 O1 1.890406 1_555
Mn3 O5 2.063594 1_545
Mn3 O13 2.075962 1_455
Mn3 O8 2.094009 1_555
Mn4 O4 1.930283 1_555
Mn4 O12 2.050138 1_455
Mn4 O7 2.088336 1_555
Mn4 O1 2.098742 1_565
Mn5 O5 1.960340 1_555
Mn5 O2 2.009036 1_565
Mn6 O13 1.885879 1_555
Mn6 O7 1.914362 1_555
Mn6 O12 2.005951 1_555
Mn6 O1 2.011125 1_555
Mn7 O2 1.990772 1_555
Mn7 O8 2.001278 1_555
Mn7 O9 2.077506 1_556
Mn8 O11 1.957413 1_555
Mn8 O0 2.022141 1_555
Mn8 O6 2.070344 1_555
Mn8 O10 2.197111 1_555
Mn9 O6 1.923735 1_555
Mn9 O3 1.972610 1_555
Mn9 O10 1.995971 1_555
Mn9 O9 2.056052 1_555
Mn10 O12 1.930597 1_555
Mn10 O4 2.036569 1_555
Mn10 O11 2.053571 1_555
Mn11 O7 1.887727 1_555
Mn11 O8 1.920280 1_555
Mn11 O5 1.944837 1_555
Mn11 O13 2.021146 1_555
F0 Mn10 2.012865 1_555
F0 Mn1 2.089941 1_555
F0 Mn8 2.158190 1_555
F1 Mn6 2.001708 1_555
F1 Mn0 2.108316 1_455
F1 Mn10 2.163854 1_555
F2 Mg0 2.021433 1_456
F2 Mn5 2.131232 1_555
F2 Mn9 2.151087 1_556
F2 Mn7 2.239313 1_555
F3 Mn11 2.069606 1_555
F3 Mn5 2.105166 1_655
F3 Mn7 2.199931 1_555
F4 Mn2 2.037240 1_655
F4 Mn8 2.160524 1_555
F4 Mn1 2.161312 1_645
F5 Mn6 2.036523 1_555
F5 Mn0 2.093302 1_555
F5 Mn4 2.269688 1_645
F6 Mn1 2.002306 1_655
F6 Mn10 2.112113 1_555
F6 Mn0 2.161662 1_565
F7 Mg0 2.056343 1_555
F7 Mn9 2.096444 1_555
F7 Mn2 2.218301 1_665
F7 Mn5 2.343678 1_654
F8 Mn3 2.059402 1_655
F8 Mn7 2.108207 1_555
F8 Mn5 2.132332 1_645
F9 Mn4 2.069148 1_655
F9 Mn11 2.089052 1_555
F9 Mn3 2.312601 1_665
