# generated using pymatgen
data_Na4Sn3F10
_symmetry_space_group_name_H-M   'P 1'
_cell_length_a   10.76309770
_cell_length_b   10.76309770
_cell_length_c   5.38218282
_cell_angle_alpha   89.13940440
_cell_angle_beta   89.13940440
_cell_angle_gamma   112.40807056
_symmetry_Int_Tables_number   1
_chemical_formula_structural   Na4Sn3F10
_chemical_formula_sum   'Na8 Sn6 F20'
_cell_volume   576.20622647
_cell_formula_units_Z   2
loop_
 _symmetry_equiv_pos_site_id
 _symmetry_equiv_pos_as_xyz
  1  'x, y, z'
loop_
 _atom_site_type_symbol
 _atom_site_label
 _atom_site_symmetry_multiplicity
 _atom_site_fract_x
 _atom_site_fract_y
 _atom_site_fract_z
 _atom_site_occupancy
  Na  Na0  1  0.55710695  0.09899280  0.75005080  1
  Na  Na1  1  0.90100720  0.44289305  0.74994920  1
  Na  Na2  1  0.44289305  0.90100720  0.24994920  1
  Na  Na3  1  0.09899280  0.55710695  0.25005080  1
  Na  Na4  1  0.65627112  0.34372888  0.25000000  1
  Na  Na5  1  0.34372888  0.65627112  0.75000000  1
  Na  Na6  1  0.54789639  0.45210361  0.75000000  1
  Na  Na7  1  0.45210361  0.54789639  0.25000000  1
  Sn  Sn0  1  0.66949596  0.82871179  0.66513751  1
  Sn  Sn1  1  0.17128821  0.33050404  0.83486249  1
  Sn  Sn2  1  0.33050404  0.17128821  0.33486249  1
  Sn  Sn3  1  0.82871179  0.66949596  0.16513751  1
  Sn  Sn4  1  0.84492226  0.15507774  0.25000000  1
  Sn  Sn5  1  0.15507774  0.84492226  0.75000000  1
  F  F0  1  0.20375630  0.72261431  0.51396492  1
  F  F1  1  0.27738569  0.79624370  0.98603508  1
  F  F2  1  0.79624370  0.27738569  0.48603508  1
  F  F3  1  0.72261431  0.20375630  0.01396492  1
  F  F4  1  0.09676786  0.43670485  0.60491975  1
  F  F5  1  0.56329515  0.90323214  0.89508025  1
  F  F6  1  0.90323214  0.56329515  0.39508025  1
  F  F7  1  0.43670485  0.09676786  0.10491975  1
  F  F8  1  0.34764108  0.44429295  0.61195316  1
  F  F9  1  0.55570705  0.65235892  0.88804684  1
  F  F10  1  0.65235892  0.55570705  0.38804684  1
  F  F11  1  0.44429295  0.34764108  0.11195316  1
  F  F12  1  0.01086111  0.65095588  0.93571197  1
  F  F13  1  0.34904412  0.98913889  0.56428803  1
  F  F14  1  0.50077896  0.25625396  0.55010896  1
  F  F15  1  0.74374604  0.49922104  0.94989104  1
  F  F16  1  0.49922104  0.74374604  0.44989104  1
  F  F17  1  0.25625396  0.50077896  0.05010896  1
  F  F18  1  0.65095588  0.01086111  0.43571197  1
  F  F19  1  0.98913889  0.34904412  0.06428803  1
loop_
_geom_bond_atom_site_label_1
_geom_bond_atom_site_label_2
_geom_bond_distance
_geom_bond_site_symmetry_2
F0 Sn5 2.043869 1_555
F0 Na3 2.248352 1_555
F0 Na5 2.289937 1_555
F1 Sn5 2.043869 1_555
F1 Na2 2.248352 1_556
F1 Na5 2.289937 1_555
F2 Sn4 2.043869 1_555
F2 Na1 2.248352 1_555
F2 Na4 2.289937 1_555
F3 Sn4 2.043869 1_555
F3 Na0 2.248352 1_554
F3 Na4 2.289937 1_555
F4 Sn1 2.041523 1_555
F4 Na1 2.261038 1_455
F4 Na3 2.286597 1_555
F5 Sn0 2.041523 1_555
F5 Na0 2.261038 1_565
F5 Na2 2.286597 1_556
F6 Sn3 2.041523 1_555
F6 Na3 2.261038 1_655
F6 Na1 2.286597 1_555
F7 Sn2 2.041523 1_555
F7 Na2 2.261038 1_545
F7 Na0 2.286597 1_554
F8 Sn1 2.158067 1_555
F8 Na6 2.261980 1_555
F8 Na7 2.283803 1_555
F8 Na5 2.425381 1_555
F9 Sn0 2.158067 1_555
F9 Na6 2.261980 1_555
F9 Na7 2.283803 1_556
F9 Na5 2.425381 1_555
F10 Sn3 2.158067 1_555
F10 Na7 2.261980 1_555
F10 Na6 2.283803 1_555
F10 Na4 2.425381 1_555
F11 Sn2 2.158067 1_555
F11 Na7 2.261980 1_555
F11 Na6 2.283803 1_554
F11 Na4 2.425381 1_555
F12 Sn5 2.277494 1_555
F12 Na1 2.344486 1_455
F12 Na3 2.347287 1_556
F12 Sn3 2.375088 1_456
F13 Sn5 2.277494 1_555
F13 Na0 2.344486 1_565
F13 Na2 2.347287 1_555
F13 Sn2 2.375088 1_565
F14 Sn2 2.086860 1_555
F14 Na4 2.228925 1_555
F14 Na6 2.264418 1_555
F14 Na0 2.266669 1_555
F15 Sn3 2.086860 1_556
F15 Na4 2.228925 1_556
F15 Na6 2.264418 1_555
F15 Na1 2.266669 1_555
F16 Sn0 2.086860 1_555
F16 Na5 2.228925 1_555
F16 Na7 2.264418 1_555
F16 Na2 2.266669 1_555
F17 Sn1 2.086860 1_554
F17 Na5 2.228925 1_554
F17 Na7 2.264418 1_555
F17 Na3 2.266669 1_555
F18 Sn4 2.277494 1_555
F18 Na2 2.344486 1_545
F18 Na0 2.347287 1_555
F18 Sn0 2.375088 1_545
F19 Sn4 2.277494 1_555
F19 Na3 2.344486 1_655
F19 Na1 2.347287 1_554
F19 Sn1 2.375088 1_654
