# generated using pymatgen
data_MgFe3(PO4)3
_symmetry_space_group_name_H-M   'P 1'
_cell_length_a   5.37854821
_cell_length_b   5.22579220
_cell_length_c   11.22089512
_cell_angle_alpha   84.29786539
_cell_angle_beta   90.14322694
_cell_angle_gamma   120.89922364
_symmetry_Int_Tables_number   1
_chemical_formula_structural   MgFe3(PO4)3
_chemical_formula_sum   'Mg1 Fe3 P3 O12'
_cell_volume   268.85099210
_cell_formula_units_Z   1
loop_
 _symmetry_equiv_pos_site_id
 _symmetry_equiv_pos_as_xyz
  1  'x, y, z'
loop_
 _atom_site_type_symbol
 _atom_site_label
 _atom_site_symmetry_multiplicity
 _atom_site_fract_x
 _atom_site_fract_y
 _atom_site_fract_z
 _atom_site_occupancy
  Mg  Mg0  1  0.01024033  0.99382336  0.83701607  1
  Fe  Fe0  1  0.51738601  0.44770119  0.04277207  1
  Fe  Fe1  1  0.06618418  0.54624064  0.62656601  1
  Fe  Fe2  1  0.39026081  0.00257432  0.33392805  1
  P  P0  1  0.51564881  0.53074423  0.50333877  1
  P  P1  1  0.98651426  0.47338551  0.16416410  1
  P  P2  1  0.50808927  0.99830349  0.83432999  1
  O  O0  1  0.18951248  0.35346404  0.14852168  1
  O  O1  1  0.48017440  0.80846646  0.46523526  1
  O  O2  1  0.21889480  0.79387387  0.77442160  1
  O  O3  1  0.83752204  0.64618520  0.51957123  1
  O  O4  1  0.67193340  0.19826456  0.20164132  1
  O  O5  1  0.42495444  0.20366320  0.89428668  1
  O  O6  1  0.39572680  0.31827714  0.40393236  1
  O  O7  1  0.78079325  0.16697618  0.74592628  1
  O  O8  1  0.95088470  0.62682249  0.04516002  1
  O  O9  1  0.08129811  0.68615577  0.26338324  1
  O  O10  1  0.60896541  0.82699183  0.92377009  1
  O  O11  1  0.32751449  0.37808852  0.62203717  1
loop_
_geom_bond_atom_site_label_1
_geom_bond_atom_site_label_2
_geom_bond_distance
_geom_bond_site_symmetry_2
Mg0 O2 2.049081 1_555
Mg0 O5 2.052205 1_565
Mg0 O10 2.067646 1_455
Mg0 O7 2.084052 1_465
Fe0 O0 1.939798 1_555
Fe0 O8 2.019000 1_555
Fe0 O5 2.101539 1_554
Fe0 O10 2.104517 1_554
Fe0 O4 2.492314 1_555
Fe1 O3 1.937653 1_455
Fe1 O11 2.007029 1_555
Fe1 O2 2.104744 1_555
Fe1 O7 2.106262 1_455
Fe1 O1 2.550749 1_555
Fe2 O6 1.883431 1_555
Fe2 O9 1.885107 1_545
Fe2 O1 1.907080 1_545
Fe2 O4 1.913830 1_555
O0 P1 1.530103 1_455
O1 P0 1.576777 1_555
O2 P2 1.563138 1_555
O3 P0 1.530298 1_555
O4 P1 1.578511 1_555
O5 P2 1.562710 1_545
O6 P0 1.549184 1_555
O7 P2 1.554988 1_545
O8 P1 1.551303 1_555
O9 P1 1.548118 1_455
O10 P2 1.555845 1_555
O11 P0 1.549455 1_555
