# generated using pymatgen
data_Na2Zr3Zn5(SO4)12
_symmetry_space_group_name_H-M   'P 1'
_cell_length_a   17.59241612
_cell_length_b   8.79343696
_cell_length_c   22.84814757
_cell_angle_alpha   90.02695980
_cell_angle_beta   89.95705417
_cell_angle_gamma   120.04435743
_symmetry_Int_Tables_number   1
_chemical_formula_structural   Na2Zr3Zn5(SO4)12
_chemical_formula_sum   'Na6 Zr9 Zn15 S36 O144'
_cell_volume   3059.64720819
_cell_formula_units_Z   3
loop_
 _symmetry_equiv_pos_site_id
 _symmetry_equiv_pos_as_xyz
  1  'x, y, z'
loop_
 _atom_site_type_symbol
 _atom_site_label
 _atom_site_symmetry_multiplicity
 _atom_site_fract_x
 _atom_site_fract_y
 _atom_site_fract_z
 _atom_site_occupancy
  Na  Na0  1  0.00060227  0.00056254  0.50151226  1
  Na  Na1  1  0.50403640  0.00610653  0.99621182  1
  Na  Na2  1  0.33597232  0.33758530  0.82939747  1
  Na  Na3  1  0.83047658  0.32862095  0.83015992  1
  Na  Na4  1  0.32995674  0.33219937  0.34415502  1
  Na  Na5  1  0.83653205  0.33356908  0.33369510  1
  Zr  Zr0  1  0.50227307  0.99977163  0.35690694  1
  Zr  Zr1  1  0.99931052  0.99975051  0.85201552  1
  Zr  Zr2  1  0.50017865  0.00087111  0.64903648  1
  Zr  Zr3  1  0.99516339  0.99609049  0.14837034  1
  Zr  Zr4  1  0.33540124  0.33409007  0.18784954  1
  Zr  Zr5  1  0.16688012  0.66854256  0.01938285  1
  Zr  Zr6  1  0.66610883  0.66408018  0.01991117  1
  Zr  Zr7  1  0.16351690  0.66386139  0.52280134  1
  Zr  Zr8  1  0.67008536  0.66999635  0.52351978  1
  Zn  Zn0  1  0.99806710  0.00070023  0.35270718  1
  Zn  Zn1  1  0.50093232  0.00050836  0.84834824  1
  Zn  Zn2  1  0.00022922  0.99990401  0.65225625  1
  Zn  Zn3  1  0.50645073  0.00674427  0.15137771  1
  Zn  Zn4  1  0.33091280  0.32913664  0.68498142  1
  Zn  Zn5  1  0.83588362  0.33802318  0.68514139  1
  Zn  Zn6  1  0.83097171  0.33348477  0.18497088  1
  Zn  Zn7  1  0.33620687  0.33659989  0.97938771  1
  Zn  Zn8  1  0.83001700  0.33054915  0.98266388  1
  Zn  Zn9  1  0.32994493  0.33062586  0.48599629  1
  Zn  Zn10  1  0.83714382  0.33650094  0.48477003  1
  Zn  Zn11  1  0.16102739  0.65534055  0.31481366  1
  Zn  Zn12  1  0.67222216  0.67688927  0.31294401  1
  Zn  Zn13  1  0.16893312  0.66787328  0.80911066  1
  Zn  Zn14  1  0.66425507  0.66564411  0.80976213  1
  S  S0  1  0.14448837  0.99405641  0.25275078  1
  S  S1  1  0.64832376  0.99973759  0.24936654  1
  S  S2  1  0.35260395  0.71321754  0.24920776  1
  S  S3  1  0.85191525  0.70013610  0.25374560  1
  S  S4  1  0.99829889  0.29486478  0.25295400  1
  S  S5  1  0.50416001  0.29618732  0.25006155  1
  S  S6  1  0.14885787  0.29627717  0.74871383  1
  S  S7  1  0.64972317  0.29605091  0.75303541  1
  S  S8  1  -0.00000074  0.70256977  0.74872741  1
  S  S9  1  0.49776421  0.70091609  0.75291086  1
  S  S10  1  0.35263089  0.00393721  0.75321259  1
  S  S11  1  0.85124240  0.00052458  0.74851620  1
  S  S12  1  0.47487667  0.33133800  0.58297459  1
  S  S13  1  0.97511971  0.32035375  0.58380238  1
  S  S14  1  0.18518894  0.04788014  0.58324651  1
  S  S15  1  0.69086414  0.05230042  0.58349646  1
  S  S16  1  0.33432188  0.61983210  0.58343007  1
  S  S17  1  0.83966067  0.62792876  0.58327315  1
  S  S18  1  0.47752809  0.63170125  0.08130005  1
  S  S19  1  0.97542983  0.61827994  0.08343396  1
  S  S20  1  0.33853543  0.04542763  0.08113682  1
  S  S21  1  0.83251659  0.04913693  0.08331987  1
  S  S22  1  0.18875899  0.33047423  0.08146630  1
  S  S23  1  0.68551250  0.32419998  0.08328132  1
  S  S24  1  0.31496107  0.66649634  0.91484798  1
  S  S25  1  0.81052955  0.65769842  0.91415161  1
  S  S26  1  0.01842397  0.37917316  0.91448703  1
  S  S27  1  0.51812565  0.36971876  0.91439999  1
  S  S28  1  0.17085809  0.96389779  0.91402002  1
  S  S29  1  0.66685865  0.96241717  0.91498904  1
  S  S30  1  0.30897442  0.96112862  0.41401621  1
  S  S31  1  0.81479203  0.96578288  0.41537479  1
  S  S32  1  0.16754659  0.37129718  0.41508560  1
  S  S33  1  0.67271044  0.38306828  0.41454546  1
  S  S34  1  0.01755904  0.66602023  0.41468007  1
  S  S35  1  0.51910173  0.65367305  0.41500049  1
  O  O0  1  0.10789048  0.03135802  0.30444692  1
  O  O1  1  0.60027841  0.02319636  0.30179720  1
  O  O2  1  0.40986042  0.79418379  0.30198047  1
  O  O3  1  0.90817663  0.78515920  0.30474738  1
  O  O4  1  0.48693569  0.17942660  0.30211573  1
  O  O5  1  0.98512694  0.18479547  0.30466498  1
  O  O6  1  0.10218616  0.17965622  0.80205844  1
  O  O7  1  0.60870639  0.18586034  0.80509386  1
  O  O8  1  0.48405513  0.78261517  0.80520431  1
  O  O9  1  0.98835795  0.79637487  0.80206424  1
  O  O10  1  0.40715957  0.03090715  0.80536047  1
  O  O11  1  0.90995243  0.02426265  0.80191207  1
  O  O12  1  0.39949464  0.98666497  0.69958804  1
  O  O13  1  0.89330967  0.97902389  0.69636744  1
  O  O14  1  0.09664026  0.21289349  0.69636985  1
  O  O15  1  0.59383082  0.20143617  0.69954389  1
  O  O16  1  0.01046075  0.80702951  0.69636181  1
  O  O17  1  0.50642009  0.81266735  0.69947626  1
  O  O18  1  0.39492720  0.81295265  0.19628717  1
  O  O19  1  0.89841941  0.81142876  0.19939110  1
  O  O20  1  0.00736306  0.20055277  0.19905163  1
  O  O21  1  0.51051687  0.21335917  0.19637552  1
  O  O22  1  0.09280685  0.98089643  0.19876481  1
  O  O23  1  0.59612187  0.97598767  0.19645413  1
  O  O24  1  0.43843664  0.36508569  0.63548197  1
  O  O25  1  0.93892549  0.35449546  0.63644026  1
  O  O26  1  0.23883939  0.12116415  0.63575247  1
  O  O27  1  0.74364478  0.12487587  0.63607025  1
  O  O28  1  0.31719898  0.51273360  0.63581829  1
  O  O29  1  0.82218846  0.52100151  0.63582756  1
  O  O30  1  0.43506458  0.52038330  0.13515910  1
  O  O31  1  0.93920116  0.51325888  0.13623450  1
  O  O32  1  0.32527820  0.13076468  0.13486342  1
  O  O33  1  0.81721759  0.12172901  0.13641918  1
  O  O34  1  0.24390302  0.35810804  0.13488123  1
  O  O35  1  0.73748765  0.35586537  0.13655130  1
  O  O36  1  0.22774733  0.30230992  0.02957906  1
  O  O37  1  0.72544126  0.29928445  0.03021758  1
  O  O38  1  0.42392596  0.54640962  0.02967195  1
  O  O39  1  0.92351695  0.54665985  0.03034005  1
  O  O40  1  0.34897456  0.15135200  0.02927201  1
  O  O41  1  0.84980596  0.15441815  0.03045091  1
  O  O42  1  0.22448955  0.15089708  0.52953904  1
  O  O43  1  0.72680359  0.15396048  0.52992907  1
  O  O44  1  0.35142822  0.54955340  0.53011459  1
  O  O45  1  0.84977396  0.54801393  0.52939746  1
  O  O46  1  0.42335259  0.29973194  0.52956355  1
  O  O47  1  0.92391699  0.29667545  0.53018944  1
  O  O48  1  0.26730452  0.68153781  0.96941210  1
  O  O49  1  0.76906663  0.68278676  0.96853255  1
  O  O50  1  0.07305948  0.46305173  0.96902847  1
  O  O51  1  0.57208102  0.46354054  0.96896712  1
  O  O52  1  0.15874817  0.85528648  0.96858184  1
  O  O53  1  0.65909375  0.85283957  0.96927854  1
  O  O54  1  0.26911503  0.85380152  0.46749367  1
  O  O55  1  0.76697312  0.85318041  0.46842842  1
  O  O56  1  0.15997698  0.46574184  0.46814299  1
  O  O57  1  0.65851585  0.46418464  0.46784620  1
  O  O58  1  0.07327930  0.68221291  0.46774878  1
  O  O59  1  0.57278843  0.68154858  0.46842733  1
  O  O60  1  0.05886979  0.64498931  0.36171793  1
  O  O61  1  0.56082480  0.63366306  0.36253907  1
  O  O62  1  0.25680268  0.87838068  0.36151501  1
  O  O63  1  0.76284625  0.88295377  0.36263664  1
  O  O64  1  0.17905448  0.47551170  0.36200204  1
  O  O65  1  0.68169978  0.48506859  0.36200293  1
  O  O66  1  0.06172108  0.48742899  0.86345861  1
  O  O67  1  0.56071146  0.47619674  0.86279404  1
  O  O68  1  0.18200660  0.87867822  0.86287200  1
  O  O69  1  0.67717548  0.87701116  0.86319410  1
  O  O70  1  0.26136490  0.64478919  0.86342159  1
  O  O71  1  0.75707269  0.63555374  0.86278818  1
  O  O72  1  0.01247004  0.82920527  0.41370744  1
  O  O73  1  0.51213375  0.81830389  0.40925572  1
  O  O74  1  0.39792296  0.97468273  0.40768914  1
  O  O75  1  0.90144262  0.97593496  0.41463031  1
  O  O76  1  0.08641599  0.19718084  0.41368846  1
  O  O77  1  0.58974701  0.20515170  0.40941950  1
  O  O78  1  0.01272381  0.20389008  0.91016096  1
  O  O79  1  0.51235106  0.19623475  0.91419859  1
  O  O80  1  0.08931388  0.97584383  0.91016325  1
  O  O81  1  0.58578747  0.97406106  0.91460630  1
  O  O82  1  0.40146077  0.82843343  0.91474222  1
  O  O83  1  0.89850869  0.82150513  0.90969742  1
  O  O84  1  0.48849766  0.17800807  0.59191756  1
  O  O85  1  0.98957767  0.16964917  0.58898151  1
  O  O86  1  0.09554443  0.01967862  0.58862218  1
  O  O87  1  0.60045093  0.02486779  0.59208445  1
  O  O88  1  0.41135011  0.80024456  0.59253719  1
  O  O89  1  0.91523949  0.80727679  0.58841990  1
  O  O90  1  0.48836275  0.80661867  0.08898936  1
  O  O91  1  0.98969993  0.80021882  0.09268243  1
  O  O92  1  0.41406410  0.02104808  0.08920300  1
  O  O93  1  0.91021087  0.02228996  0.09190540  1
  O  O94  1  0.10086002  0.17675717  0.09237587  1
  O  O95  1  0.59512234  0.17152519  0.08816111  1
  O  O96  1  0.34408679  0.16178111  0.74545538  1
  O  O97  1  0.84567067  0.16297577  0.74714992  1
  O  O98  1  0.23600060  0.30868607  0.74742663  1
  O  O99  1  0.73701802  0.31272655  0.74511168  1
  O  O100  1  0.41883203  0.52602633  0.74501129  1
  O  O101  1  0.91872431  0.52857871  0.74753136  1
  O  O102  1  0.34551109  0.53233259  0.24482625  1
  O  O103  1  0.84385242  0.52608065  0.24549036  1
  O  O104  1  0.42074850  0.31011161  0.24605914  1
  O  O105  1  0.91951446  0.31147398  0.24483820  1
  O  O106  1  0.23483297  0.15781240  0.24283317  1
  O  O107  1  0.73495352  0.16238978  0.24772750  1
  O  O108  1  0.32250065  0.50737058  0.92221890  1
  O  O109  1  0.82330954  0.50605635  0.92176782  1
  O  O110  1  0.43042122  0.35296322  0.92115429  1
  O  O111  1  0.93040357  0.35541654  0.92241332  1
  O  O112  1  0.24720703  0.14011048  0.92197993  1
  O  O113  1  0.74629967  0.13749528  0.92199325  1
  O  O114  1  0.32323901  0.14006695  0.42093624  1
  O  O115  1  0.82285959  0.14021607  0.42243171  1
  O  O116  1  0.24688945  0.35388569  0.42162270  1
  O  O117  1  0.74776051  0.35595632  0.42156602  1
  O  O118  1  0.42987002  0.50284538  0.42168694  1
  O  O119  1  0.92999393  0.50763814  0.42143208  1
  O  O120  1  0.17900782  0.48844386  0.07639289  1
  O  O121  1  0.67668952  0.48608744  0.07401001  1
  O  O122  1  0.06634863  0.64479624  0.07420728  1
  O  O123  1  0.56472261  0.64260419  0.07671618  1
  O  O124  1  0.25603501  0.87017519  0.07634166  1
  O  O125  1  0.75570235  0.86796827  0.07453281  1
  O  O126  1  0.17724432  0.86857513  0.57360498  1
  O  O127  1  0.67726225  0.86967617  0.57473670  1
  O  O128  1  0.25694917  0.64566265  0.57382841  1
  O  O129  1  0.75796632  0.64629794  0.57438277  1
  O  O130  1  0.06523318  0.48390897  0.57437851  1
  O  O131  1  0.56560444  0.48698620  0.57358854  1
  O  O132  1  0.15556273  0.84174932  0.25623952  1
  O  O133  1  0.65464652  0.84256209  0.25899311  1
  O  O134  1  0.26569582  0.68908106  0.25789732  1
  O  O135  1  0.76675035  0.69083968  0.25606139  1
  O  O136  1  0.07941017  0.46556938  0.25527340  1
  O  O137  1  0.57886123  0.46946255  0.25871134  1
  O  O138  1  0.15567347  0.46659225  0.75823754  1
  O  O139  1  0.65393332  0.46613602  0.75573111  1
  O  O140  1  0.07812592  0.68863917  0.75844026  1
  O  O141  1  0.57853047  0.69217629  0.75534582  1
  O  O142  1  0.26723132  0.84253781  0.75559687  1
  O  O143  1  0.76621928  0.84391548  0.75838891  1
loop_
_geom_bond_atom_site_label_1
_geom_bond_atom_site_label_2
_geom_bond_distance
_geom_bond_site_symmetry_2
Na0 O86 2.550070 1_555
Na0 O85 2.554951 1_455
Na0 O89 2.555346 1_445
Na0 O72 2.578835 1_545
Na0 O75 2.580139 1_445
Na0 O76 2.584558 1_555
Na1 O81 2.454712 1_545
Na1 O79 2.466891 1_555
Na1 O82 2.518224 1_545
Na1 O95 2.601045 1_556
Na1 O90 2.676752 1_546
Na1 O92 2.690688 1_556
Na2 O100 2.483589 1_555
Na2 O98 2.494474 1_555
Na2 O96 2.511266 1_555
Na2 O110 2.637104 1_555
Na2 O108 2.670874 1_555
Na2 O112 2.685478 1_555
Na3 O97 2.485317 1_555
Na3 O99 2.504643 1_555
Na3 O101 2.516229 1_555
Na3 O113 2.631844 1_555
Na3 O109 2.650434 1_555
Na3 O111 2.679393 1_555
Na4 O116 2.362129 1_555
Na4 O114 2.397610 1_555
Na4 O118 2.416691 1_555
Na4 O102 2.800559 1_555
Na4 O104 2.813762 1_555
Na4 O106 2.818529 1_555
Na5 O119 2.558683 1_555
Na5 O105 2.563186 1_555
Na5 O107 2.574151 1_555
Na5 O115 2.579203 1_555
Na5 O103 2.593897 1_555
Na5 O117 2.609841 1_555
O0 S0 1.458504 1_545
O0 Zn0 2.120592 1_455
O1 S1 1.537817 1_545
O1 Zr0 2.059603 1_545
O2 S2 1.502753 1_555
O2 Zr0 2.131705 1_555
O3 S3 1.468488 1_555
O3 Zn0 2.072013 1_565
O4 S5 1.499866 1_555
O4 Zr0 2.136567 1_545
O5 S4 1.470553 1_555
O5 Zn0 2.061162 1_555
O6 S6 1.538792 1_555
O6 Zr1 2.052478 1_445
O7 S7 1.474449 1_555
O7 Zn1 2.032819 1_555
O8 S9 1.474487 1_555
O8 Zn1 2.039622 1_565
O9 S8 1.541198 1_655
O9 Zr1 2.047269 1_555
O10 S10 1.473008 1_555
O10 Zn1 2.049847 1_555
O11 S11 1.544186 1_555
O11 Zr1 2.042168 1_545
O12 S10 1.525662 1_565
O12 Zr2 2.064599 1_565
O13 S11 1.463453 1_565
O13 Zn2 2.058898 1_655
O14 S6 1.462255 1_555
O14 Zn2 2.054343 1_545
O15 S7 1.527889 1_555
O15 Zr2 2.061062 1_555
O16 S8 1.463064 1_555
O16 Zn2 2.057184 1_555
O17 S9 1.526567 1_555
O17 Zr2 2.064713 1_565
O18 S2 1.459906 1_555
O18 Zn3 2.111137 1_565
O19 S3 1.538597 1_555
O19 Zr3 2.030714 1_555
O20 S4 1.536600 1_455
O20 Zr3 2.057067 1_445
O21 S5 1.458807 1_555
O21 Zn3 2.057016 1_555
O22 S0 1.502566 1_555
O22 Zr3 2.127752 1_455
O23 S1 1.468991 1_555
O23 Zn3 2.013057 1_565
O24 S12 1.458532 1_555
O24 Zn4 2.086996 1_555
O25 S13 1.460118 1_555
O25 Zn5 2.068679 1_555
O26 S14 1.461927 1_555
O26 Zn4 2.065896 1_555
O27 S15 1.456007 1_555
O27 Zn5 2.087692 1_555
O28 S16 1.458375 1_555
O28 Zn4 2.078114 1_555
O29 S17 1.459974 1_555
O29 Zn5 2.075275 1_555
O30 S18 1.515947 1_555
O30 Zr4 2.080779 1_555
O31 S19 1.457726 1_555
O31 Zn6 2.085374 1_555
O32 S20 1.516029 1_555
O32 Zr4 2.091289 1_555
O33 S21 1.456926 1_555
O33 Zn6 2.074535 1_555
O34 S22 1.501690 1_555
O34 Zr4 2.108054 1_555
O35 S23 1.463349 1_555
O35 Zn6 2.072293 1_555
O36 S22 1.451162 1_555
O36 Zn7 2.113688 1_554
O37 S23 1.471034 1_555
O37 Zn8 2.032623 1_554
O38 S18 1.461455 1_555
O38 Zn7 2.062762 1_554
O39 S19 1.458529 1_555
O39 Zn8 2.091480 1_554
O40 S20 1.461161 1_555
O40 Zn7 2.090826 1_554
O41 S21 1.458523 1_555
O41 Zn8 2.062564 1_554
O42 S14 1.475488 1_555
O42 Zn9 1.998024 1_555
O43 S15 1.459713 1_555
O43 Zn10 2.070685 1_555
O44 S16 1.463340 1_555
O44 Zn9 2.033529 1_555
O45 S17 1.471323 1_555
O45 Zn10 2.033009 1_555
O46 S12 1.461910 1_555
O46 Zn9 2.052981 1_555
O47 S13 1.472713 1_555
O47 Zn10 2.016917 1_555
O48 S24 1.544005 1_555
O48 Zr5 2.057383 1_556
O49 S25 1.511317 1_555
O49 Zr6 2.093916 1_556
O50 S26 1.520479 1_555
O50 Zr5 2.080261 1_556
O51 S27 1.533849 1_555
O51 Zr6 2.069022 1_556
O52 S28 1.519415 1_555
O52 Zr5 2.074019 1_556
O53 S29 1.534540 1_555
O53 Zr6 2.077446 1_556
O54 S30 1.487442 1_555
O54 Zr7 2.174665 1_555
O55 S31 1.524141 1_555
O55 Zr8 2.081783 1_555
O56 S32 1.512147 1_555
O56 Zr7 2.118492 1_555
O57 S33 1.493761 1_555
O57 Zr8 2.136405 1_555
O58 S34 1.520933 1_555
O58 Zr7 2.094775 1_555
O59 S35 1.487235 1_555
O59 Zr8 2.168441 1_555
O60 S34 1.469605 1_555
O60 Zn11 2.054287 1_555
O61 S35 1.460922 1_555
O61 Zn12 2.126100 1_555
O62 S30 1.463859 1_555
O62 Zn11 2.125056 1_555
O63 S31 1.466935 1_555
O63 Zn12 2.054822 1_555
O64 S32 1.471977 1_555
O64 Zn11 2.065880 1_555
O65 S33 1.459244 1_555
O65 Zn12 2.100732 1_555
O66 S26 1.455802 1_555
O66 Zn13 2.149108 1_555
O67 S27 1.457922 1_555
O67 Zn14 2.126381 1_555
O68 S28 1.453184 1_555
O68 Zn13 2.137594 1_555
O69 S29 1.460401 1_555
O69 Zn14 2.138192 1_555
O70 S24 1.458533 1_555
O70 Zn13 2.135188 1_555
O71 S25 1.455213 1_555
O71 Zn14 2.154085 1_555
O72 S34 1.481987 1_555
O72 Zn0 2.160094 1_465
O73 S35 1.518522 1_555
O73 Zr0 2.070342 1_555
O74 S30 1.515482 1_555
O74 Zr0 2.087217 1_555
O75 S31 1.481799 1_555
O75 Zn0 2.136513 1_565
O76 S32 1.481274 1_555
O76 Zn0 2.157350 1_455
O77 S33 1.518284 1_555
O77 Zr0 2.070536 1_545
O78 S26 1.496882 1_555
O78 Zr1 2.148731 1_445
O79 S27 1.477283 1_555
O79 Zn1 2.217673 1_555
O80 S28 1.492601 1_555
O80 Zr1 2.157102 1_455
O81 S29 1.480190 1_555
O81 Zn1 2.219398 1_565
O82 S24 1.474308 1_555
O82 Zn1 2.236031 1_565
O83 S25 1.499410 1_555
O83 Zr1 2.133913 1_555
O84 S12 1.496973 1_555
O84 Zr2 2.120024 1_555
O85 S13 1.473972 1_555
O85 Zn2 2.153065 1_645
O86 S14 1.473714 1_555
O86 Zn2 2.158814 1_545
O87 S15 1.497341 1_555
O87 Zr2 2.115104 1_555
O88 S16 1.497950 1_555
O88 Zr2 2.112141 1_565
O89 S17 1.472832 1_555
O89 Zn2 2.167251 1_655
O90 S18 1.462618 1_555
O90 Zn3 2.160472 1_565
O91 S19 1.504938 1_555
O91 Zr3 2.104071 1_555
O92 S20 1.459826 1_555
O92 Zn3 2.209934 1_555
O93 S21 1.511950 1_555
O93 Zr3 2.073408 1_545
O94 S22 1.478908 1_555
O94 Zr3 2.158375 1_445
O95 S23 1.485142 1_555
O95 Zn3 2.086735 1_555
O96 S10 1.479766 1_555
O96 Zn4 2.114822 1_555
O97 S11 1.480359 1_555
O97 Zn5 2.161957 1_555
O98 S6 1.481704 1_555
O98 Zn4 2.133539 1_555
O99 S7 1.478800 1_555
O99 Zn5 2.135736 1_555
O100 S9 1.479063 1_555
O100 Zn4 2.142552 1_555
O101 S8 1.481710 1_655
O101 Zn5 2.125863 1_555
O102 S2 1.535164 1_555
O102 Zr4 2.110204 1_555
O103 S3 1.476700 1_555
O103 Zn6 2.108450 1_555
O104 S5 1.535178 1_555
O104 Zr4 2.094750 1_555
O105 S4 1.476430 1_555
O105 Zn6 2.154113 1_555
O106 S0 1.535916 1_545
O106 Zr4 2.088911 1_555
O107 S1 1.478853 1_545
O107 Zn6 2.150930 1_555
O108 S24 1.479862 1_555
O108 Zn7 2.093844 1_555
O109 S25 1.469494 1_555
O109 Zn8 2.125146 1_555
O110 S27 1.482630 1_555
O110 Zn7 2.072736 1_555
O111 S26 1.466275 1_655
O111 Zn8 2.161418 1_555
O112 S28 1.467726 1_545
O112 Zn7 2.109344 1_555
O113 S29 1.481413 1_545
O113 Zn8 2.114199 1_555
O114 S30 1.472500 1_545
O114 Zn9 2.198053 1_555
O115 S31 1.476720 1_545
O115 Zn10 2.152874 1_555
O116 S32 1.486079 1_555
O116 Zn9 2.154726 1_555
O117 S33 1.463332 1_555
O117 Zn10 2.204620 1_555
O118 S35 1.470270 1_555
O118 Zn9 2.207973 1_555
O119 S34 1.479211 1_655
O119 Zn10 2.136390 1_555
O120 S22 1.487027 1_555
O120 Zr5 2.142658 1_555
O121 S23 1.522183 1_555
O121 Zr6 2.075123 1_555
O122 S19 1.511040 1_455
O122 Zr5 2.089915 1_555
O123 S18 1.491880 1_555
O123 Zr6 2.135646 1_555
O124 S20 1.501270 1_565
O124 Zr5 2.124523 1_555
O125 S21 1.499598 1_565
O125 Zr6 2.104140 1_555
O126 S14 1.527457 1_565
O126 Zr7 2.051668 1_555
O127 S15 1.513669 1_565
O127 Zr8 2.060272 1_555
O128 S16 1.504193 1_555
O128 Zr7 2.086399 1_555
O129 S17 1.538125 1_555
O129 Zr8 2.027247 1_555
O130 S13 1.531255 1_455
O130 Zr7 2.035021 1_555
O131 S12 1.509681 1_555
O131 Zr8 2.076928 1_555
O132 S0 1.448946 1_555
O132 Zn11 2.155751 1_555
O133 S1 1.457824 1_555
O133 Zn12 2.047139 1_555
O134 S2 1.448006 1_555
O134 Zn11 2.149306 1_555
O135 S3 1.459965 1_555
O135 Zn12 2.064535 1_555
O136 S4 1.465411 1_455
O136 Zn11 2.073287 1_555
O137 S5 1.443178 1_555
O137 Zn12 2.135670 1_555
O138 S6 1.457606 1_555
O138 Zn13 2.030581 1_555
O139 S7 1.461229 1_555
O139 Zn14 2.077035 1_555
O140 S8 1.456848 1_555
O140 Zn13 2.054461 1_555
O141 S9 1.461968 1_555
O141 Zn14 2.056706 1_555
O142 S10 1.462613 1_565
O142 Zn13 2.045349 1_555
O143 S11 1.456655 1_565
O143 Zn14 2.058086 1_555
