# generated using pymatgen
data_Na6Ca2Zr2Si3(SO8)3
_symmetry_space_group_name_H-M   'P 1'
_cell_length_a   9.35241881
_cell_length_b   9.37805480
_cell_length_c   23.08060668
_cell_angle_alpha   90.09850573
_cell_angle_beta   90.50152319
_cell_angle_gamma   119.81812713
_symmetry_Int_Tables_number   1
_chemical_formula_structural   Na6Ca2Zr2Si3(SO8)3
_chemical_formula_sum   'Na18 Ca6 Zr6 Si9 S9 O72'
_cell_volume   1756.22557039
_cell_formula_units_Z   3
loop_
 _symmetry_equiv_pos_site_id
 _symmetry_equiv_pos_as_xyz
  1  'x, y, z'
loop_
 _atom_site_type_symbol
 _atom_site_label
 _atom_site_symmetry_multiplicity
 _atom_site_fract_x
 _atom_site_fract_y
 _atom_site_fract_z
 _atom_site_occupancy
  Na  Na0  1  0.37167265  0.34292448  0.24165835  1
  Na  Na1  1  0.00339775  0.64538125  0.23370440  1
  Na  Na2  1  0.98309262  0.34081103  0.74049312  1
  Na  Na3  1  0.38674366  0.03631647  0.74112279  1
  Na  Na4  1  0.30081753  0.33278088  0.57925214  1
  Na  Na5  1  0.65226745  0.98655352  0.59768488  1
  Na  Na6  1  0.30620217  0.96453274  0.06743568  1
  Na  Na7  1  0.65534589  0.67477170  0.08096884  1
  Na  Na8  1  0.99862973  0.69001387  0.91741700  1
  Na  Na9  1  0.32115255  0.28002565  0.90257134  1
  Na  Na10  1  0.99980492  0.30669581  0.43217635  1
  Na  Na11  1  0.32063468  0.04133100  0.41133646  1
  Na  Na12  1  0.01375701  0.00193733  0.50761235  1
  Na  Na13  1  0.01426547  0.01418225  0.99281138  1
  Na  Na14  1  0.64493231  0.30552375  0.82258080  1
  Na  Na15  1  0.63684843  0.31488356  0.33169961  1
  Na  Na16  1  0.30903092  0.64693443  0.15303774  1
  Na  Na17  1  0.31017282  0.66207993  0.65895504  1
  Ca  Ca0  1  0.00323057  0.00209540  0.34980896  1
  Ca  Ca1  1  0.99871891  0.00213051  0.84747829  1
  Ca  Ca2  1  0.66595901  0.33840706  0.68348562  1
  Ca  Ca3  1  0.66484127  0.32483494  0.18211330  1
  Ca  Ca4  1  0.32138077  0.66125074  0.01685282  1
  Ca  Ca5  1  0.32249404  0.65939381  0.51945956  1
  Zr  Zr0  1  0.00373666  0.02012987  0.65041024  1
  Zr  Zr1  1  0.02041093  0.99973604  0.14432677  1
  Zr  Zr2  1  0.65686246  0.32573139  0.98532423  1
  Zr  Zr3  1  0.65242367  0.32973742  0.48817138  1
  Zr  Zr4  1  0.34201135  0.66633633  0.31509834  1
  Zr  Zr5  1  0.35505190  0.68917044  0.81047549  1
  Si  Si0  1  0.30356962  0.99349242  0.25477101  1
  Si  Si1  1  0.30114121  0.30970813  0.75591297  1
  Si  Si2  1  0.70174432  0.00075335  0.74892748  1
  Si  Si3  1  0.96349675  0.32817128  0.58477173  1
  Si  Si4  1  0.35794424  0.03104569  0.58719126  1
  Si  Si5  1  0.96309354  0.63119915  0.08767461  1
  Si  Si6  1  0.36892162  0.33449332  0.08851013  1
  Si  Si7  1  0.33694727  0.97041795  0.92021850  1
  Si  Si8  1  0.34131793  0.36802303  0.41723132  1
  S  S0  1  0.69813137  0.70646834  0.24937618  1
  S  S1  1  0.00800022  0.30190982  0.25257943  1
  S  S2  1  0.00923824  0.70838432  0.75269822  1
  S  S3  1  0.67729028  0.63844746  0.58268484  1
  S  S4  1  0.67652293  0.03779851  0.08326539  1
  S  S5  1  0.62853402  0.65814075  0.91971953  1
  S  S6  1  0.02883467  0.37221852  0.91568379  1
  S  S7  1  0.62570829  0.96684698  0.41770660  1
  S  S8  1  0.03354454  0.65640410  0.41259761  1
  O  O0  1  0.21555481  0.00864116  0.31197811  1
  O  O1  1  0.79235390  0.79351173  0.30081818  1
  O  O2  1  0.99077283  0.21646123  0.30716419  1
  O  O3  1  0.22438145  0.20249238  0.81322834  1
  O  O4  1  0.99271493  0.77294739  0.80864517  1
  O  O5  1  0.80551141  0.01038870  0.80444103  1
  O  O6  1  0.78846887  0.97591768  0.68864878  1
  O  O7  1  0.17011704  0.20540134  0.69853098  1
  O  O8  1  0.02466023  0.81888988  0.70381296  1
  O  O9  1  0.77382544  0.80140776  0.19556445  1
  O  O10  1  0.02062770  0.20793580  0.20241792  1
  O  O11  1  0.17368320  0.97082612  0.19728852  1
  O  O12  1  0.88115248  0.34449530  0.64259463  1
  O  O13  1  0.46213272  0.11839408  0.64417710  1
  O  O14  1  0.65288415  0.54162460  0.63413671  1
  O  O15  1  0.88493366  0.54209309  0.14761207  1
  O  O16  1  0.64845873  0.10828922  0.13517066  1
  O  O17  1  0.45838040  0.34694213  0.14924898  1
  O  O18  1  0.46955814  0.30091008  0.03365293  1
  O  O19  1  0.83918404  0.52850727  0.03087535  1
  O  O20  1  0.69452839  0.14229294  0.03153340  1
  O  O21  1  0.45979209  0.16300613  0.52893555  1
  O  O22  1  0.68877125  0.54535438  0.52992312  1
  O  O23  1  0.84483853  0.31277350  0.52458261  1
  O  O24  1  0.55913850  0.67818046  0.97363209  1
  O  O25  1  0.13176149  0.44986572  0.96715369  1
  O  O26  1  0.32297315  0.87342283  0.97890629  1
  O  O27  1  0.55426989  0.87773054  0.47045340  1
  O  O28  1  0.31910709  0.45436507  0.47311975  1
  O  O29  1  0.13658132  0.68632488  0.46390211  1
  O  O30  1  0.12563510  0.64243316  0.36008802  1
  O  O31  1  0.51673593  0.87246171  0.36595114  1
  O  O32  1  0.35486003  0.48633938  0.35826113  1
  O  O33  1  0.10800370  0.47272785  0.86330462  1
  O  O34  1  0.34853631  0.86238956  0.86358818  1
  O  O35  1  0.52016813  0.64146938  0.86906694  1
  O  O36  1  0.00330502  0.79459972  0.40588948  1
  O  O37  1  0.79481554  0.99921289  0.40977754  1
  O  O38  1  0.17659825  0.18534322  0.41392194  1
  O  O39  1  0.00377349  0.20461362  0.91206539  1
  O  O40  1  0.17299760  0.99012277  0.91770699  1
  O  O41  1  0.79949411  0.79204797  0.91339074  1
  O  O42  1  0.95967391  0.14536013  0.58415690  1
  O  O43  1  0.17715891  0.02428108  0.58741977  1
  O  O44  1  0.83212155  0.79955251  0.58403865  1
  O  O45  1  0.95813042  0.81325977  0.08846456  1
  O  O46  1  0.83055681  0.02735263  0.08831628  1
  O  O47  1  0.18408470  0.15852447  0.08796996  1
  O  O48  1  0.67823715  0.16037481  0.74739126  1
  O  O49  1  0.48196223  0.33444531  0.74738244  1
  O  O50  1  0.87426032  0.53977122  0.74511365  1
  O  O51  1  0.68169662  0.54062584  0.24794745  1
  O  O52  1  0.87436933  0.34063148  0.24667581  1
  O  O53  1  0.48171628  0.15668687  0.24982824  1
  O  O54  1  0.63142177  0.49712461  0.92142147  1
  O  O55  1  0.86583732  0.36839408  0.92205384  1
  O  O56  1  0.50544983  0.16037054  0.92178626  1
  O  O57  1  0.62865594  0.12992993  0.41750412  1
  O  O58  1  0.50941920  0.34612735  0.41791507  1
  O  O59  1  0.87582755  0.49592972  0.41514894  1
  O  O60  1  0.36276264  0.50086622  0.07914616  1
  O  O61  1  0.15465297  0.68353220  0.08294916  1
  O  O62  1  0.53654394  0.86964092  0.07556567  1
  O  O63  1  0.35939265  0.86228794  0.57727242  1
  O  O64  1  0.53513734  0.66444529  0.57514773  1
  O  O65  1  0.15575581  0.46948716  0.58077013  1
  O  O66  1  0.30245323  0.81263931  0.25601182  1
  O  O67  1  0.52410025  0.68210683  0.25271840  1
  O  O68  1  0.17107894  0.46680116  0.25312718  1
  O  O69  1  0.29119621  0.48317579  0.75992658  1
  O  O70  1  0.16998801  0.70384335  0.75296650  1
  O  O71  1  0.50984596  0.83342015  0.75165847  1
loop_
_geom_bond_atom_site_label_1
_geom_bond_atom_site_label_2
_geom_bond_distance
_geom_bond_site_symmetry_2
Na0 O17 2.282170 1_555
Na0 O53 2.435267 1_555
Na0 O51 2.551675 1_555
Na0 O68 2.667257 1_555
Na0 O67 2.774273 1_555
Na1 O15 2.236459 1_455
Na1 O66 2.481358 1_555
Na1 O52 2.508630 1_455
Na1 O51 2.684085 1_455
Na1 O11 2.784975 1_555
Na1 O68 2.840283 1_555
Na2 O12 2.451745 1_555
Na2 O48 2.495709 1_555
Na2 O50 2.533522 1_555
Na2 O69 2.536962 1_655
Na2 O7 2.800796 1_655
Na3 O13 2.364343 1_555
Na3 O48 2.375871 1_555
Na3 O49 2.480133 1_555
Na3 O71 2.679642 1_545
Na3 O70 2.762712 1_545
Na4 O65 2.283823 1_555
Na4 O43 2.534052 1_555
Na4 O28 2.674487 1_555
Na4 O42 2.776978 1_455
Na4 O64 2.777006 1_555
Na4 O21 2.910720 1_555
Na4 O7 3.019668 1_555
Na5 O63 2.425632 1_555
Na5 O6 2.474008 1_555
Na5 O42 2.517984 1_565
Na5 O64 2.699864 1_555
Na5 O13 2.838590 1_565
Na6 O26 2.250038 1_554
Na6 O61 2.319310 1_555
Na6 O47 2.628987 1_565
Na6 O62 2.714398 1_555
Na6 O18 2.851266 1_565
Na6 O45 2.877933 1_455
Na7 O60 2.389320 1_555
Na7 O45 2.463478 1_555
Na7 O62 2.570503 1_555
Na7 O24 2.634001 1_554
Na7 O46 2.872598 1_565
Na7 O9 2.874559 1_555
Na7 O19 2.923884 1_555
Na8 O40 2.452715 1_655
Na8 O41 2.482409 1_555
Na8 O55 2.632355 1_555
Na8 O4 2.637753 1_555
Na9 O3 2.215342 1_555
Na9 O40 2.387215 1_545
Na9 O56 2.517652 1_555
Na9 O54 2.618046 1_555
Na9 O39 2.698706 1_555
Na10 O38 2.467479 1_655
Na10 O59 2.586312 1_555
Na10 O37 2.595669 1_545
Na10 O23 2.605456 1_555
Na10 O28 2.749883 1_655
Na11 O38 2.335089 1_555
Na11 O0 2.444850 1_555
Na11 O58 2.507115 1_555
Na11 O57 2.573196 1_555
Na11 O36 2.709386 1_545
Na11 O21 2.968782 1_555
Na12 O43 2.324484 1_555
Na12 O42 2.422850 1_455
Na12 O44 2.541089 1_445
Na12 O38 2.723833 1_555
Na13 O40 2.374115 1_545
Na13 O39 2.618158 1_555
Na13 O47 2.639938 1_556
Na13 O41 2.737795 1_445
Na13 O45 2.784054 1_446
Na13 O46 2.846504 1_456
Na14 O48 2.320476 1_555
Na14 O49 2.403219 1_555
Na14 O56 2.663566 1_555
Na14 O50 2.831569 1_555
Na14 O55 2.930532 1_555
Na14 O54 2.943756 1_555
Na15 O53 2.382958 1_555
Na15 O58 2.419231 1_555
Na15 O57 2.611273 1_555
Na15 O51 2.745832 1_555
Na15 O59 2.779805 1_555
Na15 O52 2.896278 1_555
Na16 O61 2.296327 1_555
Na16 O60 2.393561 1_555
Na16 O62 2.783302 1_555
Na16 O68 2.784433 1_555
Na16 O66 2.855227 1_555
Na16 O67 2.950313 1_555
Na17 O65 2.439950 1_555
Na17 O63 2.541509 1_555
Na17 O70 2.671713 1_555
Na17 O71 2.753436 1_555
Na17 O69 2.828804 1_555
Na17 O64 2.862470 1_555
Ca0 O0 2.149109 1_555
Ca0 O38 2.224888 1_555
Ca0 O1 2.260810 1_445
Ca0 O2 2.293803 1_455
Ca0 O36 2.339218 1_545
Ca0 O37 2.389722 1_445
Ca1 O5 2.089451 1_555
Ca1 O3 2.168006 1_655
Ca1 O4 2.301830 1_545
Ca1 O40 2.331017 1_645
Ca1 O39 2.393747 1_655
Ca1 O41 2.465115 1_545
Ca2 O13 2.183096 1_555
Ca2 O12 2.205365 1_555
Ca2 O49 2.262429 1_555
Ca2 O48 2.274307 1_555
Ca2 O14 2.276199 1_555
Ca2 O50 2.380790 1_555
Ca3 O17 2.172504 1_555
Ca3 O15 2.210384 1_555
Ca3 O16 2.236408 1_555
Ca3 O53 2.287354 1_555
Ca3 O52 2.396226 1_555
Ca3 O51 2.469218 1_555
Ca4 O26 2.168686 1_554
Ca4 O25 2.202486 1_554
Ca4 O60 2.248526 1_555
Ca4 O61 2.273097 1_555
Ca4 O24 2.377616 1_554
Ca4 O62 2.395235 1_555
Ca5 O28 2.184892 1_555
Ca5 O63 2.202330 1_555
Ca5 O65 2.211642 1_555
Ca5 O29 2.264967 1_555
Ca5 O64 2.338948 1_555
Ca5 O27 2.409887 1_555
O0 Si0 1.604939 1_545
O1 S0 1.454497 1_555
O2 S1 1.460805 1_655
O3 Si1 1.606142 1_555
O4 S2 1.466890 1_655
O5 Si2 1.575532 1_555
O6 Si2 1.689451 1_565
O6 Zr0 2.050932 1_665
O7 Si1 1.728460 1_555
O7 Zr0 1.986980 1_555
O8 S2 1.491999 1_555
O8 Zr0 2.343126 1_565
O9 S0 1.492924 1_555
O9 Zr1 2.442519 1_655
O10 S1 1.494463 1_555
O10 Zr1 2.365797 1_545
O11 Si0 1.730620 1_555
O11 Zr1 1.994877 1_555
O12 Si3 1.591282 1_555
O13 Si4 1.590750 1_555
O14 S3 1.445396 1_555
O15 Si5 1.600190 1_555
O16 S4 1.454802 1_555
O17 Si6 1.600213 1_555
O18 Si6 1.703651 1_555
O18 Zr2 1.999157 1_554
O19 Si5 1.687660 1_555
O19 Zr2 2.089524 1_554
O20 S4 1.502581 1_555
O20 Zr2 2.196226 1_554
O21 Si4 1.761399 1_555
O21 Zr3 1.951677 1_555
O22 S3 1.532496 1_555
O22 Zr3 2.106399 1_555
O23 Si3 1.730669 1_555
O23 Zr3 2.056362 1_555
O24 S5 1.462718 1_555
O25 S6 1.465613 1_555
O26 Si7 1.602627 1_555
O27 S7 1.445480 1_555
O28 Si8 1.590947 1_555
O29 S8 1.455851 1_555
O30 S8 1.535491 1_555
O30 Zr4 2.193189 1_555
O31 S7 1.525458 1_555
O31 Zr4 2.145177 1_555
O32 Si8 1.722835 1_555
O32 Zr4 2.015373 1_555
O33 S6 1.491224 1_555
O33 Zr5 2.517749 1_555
O34 Si7 1.689275 1_555
O34 Zr5 2.058700 1_555
O35 S5 1.496468 1_555
O35 Zr5 2.250798 1_555
O36 S8 1.465612 1_555
O37 S7 1.467927 1_555
O38 Si8 1.639164 1_555
O39 S6 1.471502 1_555
O40 Si7 1.633667 1_555
O41 S5 1.470610 1_555
O42 Si3 1.696951 1_555
O42 Zr0 2.088989 1_655
O43 Si4 1.660204 1_555
O43 Zr0 2.173595 1_555
O44 S3 1.484517 1_555
O44 Zr0 2.417861 1_665
O45 Si5 1.730993 1_555
O45 Zr1 2.006487 1_655
O46 S4 1.495303 1_555
O46 Zr1 2.304198 1_645
O47 Si6 1.695373 1_555
O47 Zr1 2.006793 1_545
O48 Si2 1.617947 1_555
O49 Si1 1.602585 1_555
O50 S2 1.461041 1_655
O51 S0 1.485128 1_555
O52 S1 1.469996 1_655
O53 Si0 1.612221 1_545
O54 S5 1.524195 1_555
O54 Zr2 2.279879 1_555
O55 S6 1.515363 1_655
O55 Zr2 2.320925 1_555
O56 Si7 1.692648 1_545
O56 Zr2 2.081503 1_555
O57 S7 1.515898 1_545
O57 Zr3 2.406195 1_555
O58 Si8 1.683658 1_555
O58 Zr3 2.146892 1_555
O59 S8 1.496075 1_655
O59 Zr3 2.543096 1_555
O60 Si6 1.604600 1_555
O61 Si5 1.609838 1_455
O62 S4 1.474502 1_565
O63 Si4 1.605430 1_565
O64 S3 1.475011 1_555
O65 Si3 1.622183 1_455
O66 Si0 1.691176 1_555
O66 Zr4 2.093226 1_555
O67 S0 1.529615 1_555
O67 Zr4 2.188171 1_555
O68 S1 1.540020 1_555
O68 Zr4 2.253629 1_555
O69 Si1 1.677433 1_555
O69 Zr5 2.069422 1_555
O70 S2 1.524982 1_555
O70 Zr5 2.230176 1_555
O71 Si2 1.699704 1_565
O71 Zr5 1.965152 1_555
