# generated using pymatgen
data_Al10Ge2O19
_symmetry_space_group_name_H-M   'P 1'
_cell_length_a   15.70865166
_cell_length_b   15.70865166
_cell_length_c   7.83298600
_cell_angle_alpha   90.00000000
_cell_angle_beta   90.00000000
_cell_angle_gamma   158.25761854
_symmetry_Int_Tables_number   1
_chemical_formula_structural   Al10Ge2O19
_chemical_formula_sum   'Al20 Ge4 O38'
_cell_volume   716.00479451
_cell_formula_units_Z   2
loop_
 _symmetry_equiv_pos_site_id
 _symmetry_equiv_pos_as_xyz
  1  'x, y, z'
loop_
 _atom_site_type_symbol
 _atom_site_label
 _atom_site_symmetry_multiplicity
 _atom_site_fract_x
 _atom_site_fract_y
 _atom_site_fract_z
 _atom_site_occupancy
  Al  Al0  1  0.30231300  0.18403100  0.98940900  1
  Al  Al1  1  0.69768700  0.81596900  0.48940900  1
  Al  Al2  1  0.81596900  0.69768700  0.98940900  1
  Al  Al3  1  0.18403100  0.30231300  0.48940900  1
  Al  Al4  1  0.97228800  0.02771200  0.83215900  1
  Al  Al5  1  0.02771200  0.97228800  0.33215900  1
  Al  Al6  1  0.47654500  0.52345500  0.81737100  1
  Al  Al7  1  0.52345500  0.47654500  0.31737100  1
  Al  Al8  1  0.22368100  0.77631900  0.84544500  1
  Al  Al9  1  0.77631900  0.22368100  0.34544500  1
  Al  Al10  1  0.14474500  0.85525500  0.17790000  1
  Al  Al11  1  0.85525500  0.14474500  0.67790000  1
  Al  Al12  1  0.40111200  0.59888800  0.16293100  1
  Al  Al13  1  0.59888800  0.40111200  0.66293100  1
  Al  Al14  1  0.90203200  0.09796800  0.16268800  1
  Al  Al15  1  0.09796800  0.90203200  0.66268800  1
  Al  Al16  1  0.93829500  0.56849300  0.51398300  1
  Al  Al17  1  0.06170500  0.43150700  0.01398300  1
  Al  Al18  1  0.43150700  0.06170500  0.51398300  1
  Al  Al19  1  0.56849300  0.93829500  0.01398300  1
  Ge  Ge0  1  0.38218800  0.61781200  0.78390100  1
  Ge  Ge1  1  0.61781200  0.38218800  0.28390100  1
  Ge  Ge2  1  0.24516200  0.75483800  0.20254000  1
  Ge  Ge3  1  0.75483800  0.24516200  0.70254000  1
  O  O0  1  0.07027900  0.92972100  0.47463500  1
  O  O1  1  0.92972100  0.07027900  0.97463500  1
  O  O2  1  0.80317400  0.19682600  0.55505500  1
  O  O3  1  0.19682600  0.80317400  0.05505500  1
  O  O4  1  0.57546700  0.42453300  0.44554800  1
  O  O5  1  0.42453300  0.57546700  0.94554800  1
  O  O6  1  0.71965100  0.78331700  0.70553400  1
  O  O7  1  0.28034900  0.21668300  0.20553400  1
  O  O8  1  0.21668300  0.28034900  0.70553400  1
  O  O9  1  0.78331700  0.71965100  0.20553400  1
  O  O10  1  0.97756300  0.53137300  0.71485100  1
  O  O11  1  0.02243700  0.46862700  0.21485100  1
  O  O12  1  0.46862700  0.02243700  0.71485100  1
  O  O13  1  0.53137300  0.97756300  0.21485100  1
  O  O14  1  0.89774400  0.59295100  0.30345800  1
  O  O15  1  0.10225600  0.40704900  0.80345800  1
  O  O16  1  0.40704900  0.10225600  0.30345800  1
  O  O17  1  0.59295100  0.89774400  0.80345800  1
  O  O18  1  0.16353300  0.34431700  0.27810500  1
  O  O19  1  0.83646700  0.65568300  0.77810500  1
  O  O20  1  0.65568300  0.83646700  0.27810500  1
  O  O21  1  0.34431700  0.16353300  0.77810500  1
  O  O22  1  0.02559000  0.97441000  0.91439700  1
  O  O23  1  0.97441000  0.02559000  0.41439700  1
  O  O24  1  0.15671700  0.84328300  0.61410500  1
  O  O25  1  0.84328300  0.15671700  0.11410500  1
  O  O26  1  0.65331600  0.34668400  0.58517900  1
  O  O27  1  0.34668400  0.65331600  0.08517900  1
  O  O28  1  0.40210800  0.59789200  0.57625100  1
  O  O29  1  0.59789200  0.40210800  0.07625100  1
  O  O30  1  0.90223100  0.09776900  0.56304000  1
  O  O31  1  0.09776900  0.90223100  0.06304000  1
  O  O32  1  0.21788000  0.78212000  0.40464400  1
  O  O33  1  0.78212000  0.21788000  0.90464400  1
  O  O34  1  0.72524800  0.27475200  0.45456800  1
  O  O35  1  0.27475200  0.72524800  0.95456800  1
  O  O36  1  0.47404900  0.52595100  0.42196400  1
  O  O37  1  0.52595100  0.47404900  0.92196400  1
loop_
_geom_bond_atom_site_label_1
_geom_bond_atom_site_label_2
_geom_bond_distance
_geom_bond_site_symmetry_2
Al0 O22 1.868941 1_545
Al0 O7 1.891246 1_556
Al0 O37 1.908820 1_555
Al0 O21 1.916569 1_555
Al0 O31 1.956830 1_546
Al0 O29 2.051353 1_556
Al1 O23 1.868941 1_565
Al1 O6 1.891246 1_555
Al1 O36 1.908820 1_555
Al1 O20 1.916569 1_555
Al1 O30 1.956830 1_565
Al1 O28 2.051353 1_555
Al2 O22 1.868941 1_655
Al2 O9 1.891246 1_556
Al2 O37 1.908820 1_555
Al2 O19 1.916569 1_555
Al2 O31 1.956830 1_656
Al2 O29 2.051353 1_556
Al3 O23 1.868941 1_455
Al3 O8 1.891246 1_555
Al3 O36 1.908820 1_555
Al3 O18 1.916569 1_555
Al3 O30 1.956830 1_455
Al3 O28 2.051353 1_555
Al4 O1 1.723469 1_555
Al4 O22 1.766212 1_645
Al4 O6 1.779980 1_545
Al4 O8 1.779980 1_655
Al5 O0 1.723469 1_555
Al5 O23 1.766212 1_465
Al5 O9 1.779980 1_455
Al5 O7 1.779980 1_565
Al6 O37 1.730562 1_555
Al6 O6 1.747775 1_555
Al6 O8 1.747775 1_555
Al6 O5 1.892950 1_555
Al7 O36 1.730562 1_555
Al7 O9 1.747775 1_555
Al7 O7 1.747775 1_555
Al7 O4 1.892950 1_555
Al8 O12 1.778585 1_565
Al8 O10 1.778585 1_455
Al8 O35 1.792624 1_555
Al8 O3 1.839096 1_556
Al9 O11 1.778585 1_655
Al9 O13 1.778585 1_545
Al9 O34 1.792624 1_555
Al9 O2 1.839096 1_555
Al10 O31 1.705912 1_555
Al10 O14 1.816533 1_455
Al10 O16 1.816533 1_565
Al10 O3 1.872959 1_555
Al11 O30 1.705912 1_555
Al11 O17 1.816533 1_545
Al11 O15 1.816533 1_655
Al11 O2 1.872959 1_555
Al12 O18 1.734532 1_555
Al12 O20 1.734532 1_555
Al12 O27 1.786321 1_555
Al12 O5 1.849747 1_554
Al13 O21 1.734532 1_555
Al13 O19 1.734532 1_555
Al13 O26 1.786321 1_555
Al13 O4 1.849747 1_555
Al14 O1 1.702824 1_554
Al14 O18 1.770811 1_655
Al14 O20 1.770811 1_545
Al14 O25 1.852128 1_555
Al15 O0 1.702824 1_555
Al15 O21 1.770811 1_565
Al15 O19 1.770811 1_455
Al15 O24 1.852128 1_555
Al16 O24 1.872539 1_655
Al16 O26 1.874838 1_555
Al16 O14 1.930639 1_555
Al16 O10 1.965778 1_555
Al16 O32 1.975864 1_655
Al16 O34 2.005140 1_555
Al17 O25 1.872539 1_455
Al17 O27 1.874838 1_555
Al17 O15 1.930639 1_554
Al17 O11 1.965778 1_555
Al17 O33 1.975864 1_454
Al17 O35 2.005140 1_554
Al18 O24 1.872539 1_545
Al18 O26 1.874838 1_555
Al18 O16 1.930639 1_555
Al18 O12 1.965778 1_555
Al18 O32 1.975864 1_545
Al18 O34 2.005140 1_555
Al19 O25 1.872539 1_565
Al19 O27 1.874838 1_555
Al19 O17 1.930639 1_554
Al19 O13 1.965778 1_555
Al19 O33 1.975864 1_564
Al19 O35 2.005140 1_554
Ge0 O28 1.738764 1_555
Ge0 O15 1.809839 1_555
Ge0 O17 1.809839 1_555
Ge0 O5 1.819375 1_555
Ge1 O29 1.738764 1_555
Ge1 O16 1.809839 1_555
Ge1 O14 1.809839 1_555
Ge1 O4 1.819375 1_555
Ge2 O32 1.792950 1_555
Ge2 O13 1.800553 1_555
Ge2 O11 1.800553 1_555
Ge2 O3 1.886445 1_555
Ge2 O35 2.146218 1_554
Ge3 O33 1.792950 1_555
Ge3 O10 1.800553 1_555
Ge3 O12 1.800553 1_555
Ge3 O2 1.886445 1_555
Ge3 O34 2.146218 1_555
