# generated using pymatgen
data_Na6La3NbSi4(SO12)2
_symmetry_space_group_name_H-M   'P 1'
_cell_length_a   9.59108537
_cell_length_b   9.60029052
_cell_length_c   23.68461892
_cell_angle_alpha   89.86821139
_cell_angle_beta   90.75027862
_cell_angle_gamma   120.09600720
_symmetry_Int_Tables_number   1
_chemical_formula_structural   Na6La3NbSi4(SO12)2
_chemical_formula_sum   'Na18 La9 Nb3 Si12 S6 O72'
_cell_volume   1886.62543397
_cell_formula_units_Z   3
loop_
 _symmetry_equiv_pos_site_id
 _symmetry_equiv_pos_as_xyz
  1  'x, y, z'
loop_
 _atom_site_type_symbol
 _atom_site_label
 _atom_site_symmetry_multiplicity
 _atom_site_fract_x
 _atom_site_fract_y
 _atom_site_fract_z
 _atom_site_occupancy
  Na  Na0  1  0.62254821  0.99917700  0.25363326  1
  Na  Na1  1  0.64195608  0.63860735  0.75634581  1
  Na  Na2  1  0.01483850  0.37064898  0.74336574  1
  Na  Na3  1  0.29885307  0.35279929  0.58117874  1
  Na  Na4  1  0.01530379  0.67720081  0.58904376  1
  Na  Na5  1  0.68034915  0.95700279  0.56983132  1
  Na  Na6  1  0.30368580  0.94846460  0.08467798  1
  Na  Na7  1  0.67105831  0.71497972  0.06981815  1
  Na  Na8  1  0.02374238  0.34333815  0.07710976  1
  Na  Na9  1  0.97802087  0.68264217  0.91396021  1
  Na  Na10  1  0.32765448  0.29228632  0.91103597  1
  Na  Na11  1  0.67745270  0.67743896  0.41679372  1
  Na  Na12  1  0.99544766  0.03288384  0.49495280  1
  Na  Na13  1  0.96798075  0.98880313  0.99341934  1
  Na  Na14  1  0.64651418  0.32703573  0.83109157  1
  Na  Na15  1  0.61794794  0.29784213  0.33443698  1
  Na  Na16  1  0.30987009  0.68570538  0.16938766  1
  Na  Na17  1  0.32283901  0.65097428  0.67001096  1
  La  La0  1  0.02988350  0.01871513  0.35191415  1
  La  La1  1  0.00185799  0.99801750  0.84814831  1
  La  La2  1  0.01021804  0.00153028  0.65367311  1
  La  La3  1  0.00822051  0.98885528  0.14823789  1
  La  La4  1  0.66652610  0.34253529  0.68499139  1
  La  La5  1  0.66127424  0.33285934  0.18404734  1
  La  La6  1  0.33942514  0.67776394  0.00955427  1
  La  La7  1  0.33405747  0.65814362  0.50909760  1
  La  La8  1  0.33591168  0.67592537  0.32378028  1
  Nb  Nb0  1  0.68594280  0.33039773  0.97293902  1
  Nb  Nb1  1  0.67386200  0.33344099  0.48239634  1
  Nb  Nb2  1  0.32148992  0.65920820  0.82569502  1
  Si  Si0  1  0.31244835  0.99348520  0.24660506  1
  Si  Si1  1  0.31022224  0.32647842  0.75535649  1
  Si  Si2  1  0.01351964  0.69123807  0.75260838  1
  Si  Si3  1  0.96133266  0.33209710  0.58447011  1
  Si  Si4  1  0.67243812  0.63263879  0.58036293  1
  Si  Si5  1  0.95496207  0.62376291  0.07744695  1
  Si  Si6  1  0.67452524  0.04708194  0.08012130  1
  Si  Si7  1  0.62868096  0.65029350  0.92010798  1
  Si  Si8  1  0.03221259  0.36717023  0.92060553  1
  Si  Si9  1  0.34849148  0.97450473  0.91831060  1
  Si  Si10  1  0.64861118  0.98411171  0.42082625  1
  Si  Si11  1  0.35215186  0.36199493  0.42440190  1
  S  S0  1  0.69289334  0.70068476  0.25211559  1
  S  S1  1  0.00309456  0.30498455  0.24729121  1
  S  S2  1  0.67814251  0.98237840  0.75043963  1
  S  S3  1  0.37552583  0.04579618  0.57774736  1
  S  S4  1  0.37123693  0.33006080  0.07627102  1
  S  S5  1  0.00441066  0.64927452  0.42140592  1
  O  O0  1  0.20175901  0.99525609  0.29771259  1
  O  O1  1  0.78758519  0.78826267  0.30308018  1
  O  O2  1  0.99109359  0.20291316  0.29619979  1
  O  O3  1  0.21799988  0.21787994  0.80933776  1
  O  O4  1  0.96804042  0.77140029  0.80404754  1
  O  O5  1  0.78703134  0.01148379  0.79876475  1
  O  O6  1  0.75214518  0.96054514  0.69798913  1
  O  O7  1  0.19928265  0.25070966  0.69675808  1
  O  O8  1  0.03781884  0.79067231  0.69295117  1
  O  O9  1  0.77601703  0.79309225  0.20002309  1
  O  O10  1  0.01046544  0.22640056  0.19398140  1
  O  O11  1  0.22570624  0.99008915  0.18459839  1
  O  O12  1  0.88157522  0.34089065  0.64342968  1
  O  O13  1  0.46486300  0.11129662  0.63117875  1
  O  O14  1  0.64633483  0.53350074  0.63872242  1
  O  O15  1  0.86140293  0.51868975  0.13175268  1
  O  O16  1  0.65099211  0.12466414  0.13725197  1
  O  O17  1  0.46141995  0.34656510  0.12906495  1
  O  O18  1  0.45869972  0.31999702  0.02650789  1
  O  O19  1  0.83832199  0.51277507  0.02010835  1
  O  O20  1  0.67682450  0.17074650  0.02537355  1
  O  O21  1  0.47202182  0.14873767  0.52944028  1
  O  O22  1  0.67737742  0.51261018  0.52844508  1
  O  O23  1  0.83481371  0.32876925  0.53265453  1
  O  O24  1  0.56353688  0.67298459  0.97973953  1
  O  O25  1  0.12298050  0.43836532  0.97968007  1
  O  O26  1  0.30748932  0.87929609  0.97758950  1
  O  O27  1  0.55970669  0.87557170  0.47643187  1
  O  O28  1  0.32857258  0.43389051  0.48346664  1
  O  O29  1  0.09703312  0.67567969  0.47467400  1
  O  O30  1  0.08645483  0.63015319  0.37300515  1
  O  O31  1  0.53736752  0.91046161  0.36344940  1
  O  O32  1  0.39249676  0.49378607  0.37364183  1
  O  O33  1  0.14023444  0.50213176  0.86852868  1
  O  O34  1  0.35895412  0.85132185  0.86858391  1
  O  O35  1  0.49548350  0.63542759  0.86797828  1
  O  O36  1  0.96805195  0.78176292  0.41434423  1
  O  O37  1  0.81976951  0.98743492  0.41583991  1
  O  O38  1  0.20194625  0.18037677  0.41827209  1
  O  O39  1  0.01045774  0.19296204  0.90982331  1
  O  O40  1  0.19975227  0.00596971  0.90668973  1
  O  O41  1  0.81280103  0.79196148  0.91065036  1
  O  O42  1  0.97149566  0.16624133  0.57938467  1
  O  O43  1  0.21967543  0.04548663  0.57827279  1
  O  O44  1  0.84555307  0.80410491  0.58001720  1
  O  O45  1  0.95910048  0.79813022  0.07498138  1
  O  O46  1  0.84708769  0.04998517  0.07672261  1
  O  O47  1  0.20927058  0.17904509  0.07782963  1
  O  O48  1  0.65350949  0.12207817  0.74581548  1
  O  O49  1  0.49585329  0.36233181  0.75336866  1
  O  O50  1  0.86732534  0.50167610  0.75032493  1
  O  O51  1  0.67188269  0.53824024  0.25139517  1
  O  O52  1  0.85374355  0.31568694  0.24850381  1
  O  O53  1  0.49527145  0.15173775  0.25355105  1
  O  O54  1  0.62501745  0.47138630  0.92236871  1
  O  O55  1  0.85652124  0.36789414  0.92025866  1
  O  O56  1  0.51750619  0.15231599  0.92179757  1
  O  O57  1  0.66810018  0.16655231  0.43435268  1
  O  O58  1  0.52147722  0.34982049  0.43048123  1
  O  O59  1  0.84268216  0.49663534  0.42531071  1
  O  O60  1  0.34628428  0.47094650  0.07489428  1
  O  O61  1  0.13593127  0.64586563  0.07831639  1
  O  O62  1  0.52072102  0.86333308  0.07730254  1
  O  O63  1  0.34381659  0.87870150  0.57198724  1
  O  O64  1  0.51937709  0.66492864  0.57661041  1
  O  O65  1  0.13715853  0.49864009  0.57966235  1
  O  O66  1  0.33577161  0.83360419  0.24907871  1
  O  O67  1  0.53344952  0.69319452  0.25224702  1
  O  O68  1  0.14797707  0.46692959  0.25162641  1
  O  O69  1  0.32201692  0.50810951  0.76506550  1
  O  O70  1  0.18156858  0.68167318  0.76746753  1
  O  O71  1  0.52194171  0.82867805  0.75817855  1
loop_
_geom_bond_atom_site_label_1
_geom_bond_atom_site_label_2
_geom_bond_distance
_geom_bond_site_symmetry_2
Na0 O53 2.329874 1_565
Na0 O66 2.389943 1_555
Na0 O67 2.615822 1_555
Na0 O52 2.722628 1_565
Na0 O31 2.739602 1_555
Na0 O16 2.966237 1_565
Na1 O49 2.296569 1_555
Na1 O71 2.600895 1_555
Na1 O69 2.681080 1_555
Na1 O4 2.932300 1_555
Na2 O50 2.324453 1_455
Na2 O69 2.598043 1_555
Na2 O12 2.622093 1_455
Na2 O70 2.644620 1_555
Na2 O7 2.788131 1_555
Na3 O28 2.414459 1_555
Na3 O65 2.557853 1_555
Na3 O43 2.652971 1_555
Na3 O64 2.666959 1_555
Na3 O42 2.724813 1_455
Na3 O7 2.912672 1_555
Na4 O44 2.481867 1_455
Na4 O65 2.524223 1_555
Na4 O8 2.655633 1_555
Na4 O63 2.783849 1_555
Na4 O29 2.831883 1_555
Na5 O27 2.424306 1_555
Na5 O64 2.436098 1_555
Na5 O42 2.498770 1_565
Na5 O44 2.654116 1_555
Na5 O63 2.925165 1_555
Na6 O61 2.521649 1_555
Na6 O11 2.582669 1_555
Na6 O62 2.597678 1_555
Na6 O26 2.628652 1_554
Na6 O47 2.784131 1_565
Na6 O45 2.873384 1_455
Na7 O24 2.303716 1_554
Na7 O45 2.462565 1_555
Na7 O62 2.491255 1_555
Na7 O46 2.787531 1_565
Na7 O60 2.809919 1_555
Na8 O46 2.452835 1_455
Na8 O25 2.498028 1_554
Na8 O61 2.541509 1_555
Na8 O60 2.697523 1_555
Na8 O47 2.910016 1_555
Na8 O10 2.964835 1_555
Na9 O41 2.298463 1_555
Na9 O55 2.642306 1_555
Na9 O40 2.752112 1_665
Na9 O4 2.752667 1_555
Na10 O40 2.384788 1_555
Na10 O54 2.495305 1_555
Na10 O3 2.570260 1_555
Na10 O39 2.693310 1_555
Na10 O56 2.761604 1_555
Na10 O18 2.950966 1_556
Na10 O35 3.031938 1_555
Na11 O36 2.445227 1_555
Na11 O37 2.578183 1_555
Na11 O32 2.593285 1_555
Na11 O58 2.743118 1_555
Na11 O59 2.883343 1_555
Na11 O1 2.904412 1_555
Na11 O27 3.016139 1_555
Na11 O22 3.078411 1_555
Na12 O37 2.392520 1_545
Na12 O42 2.451446 1_555
Na12 O38 2.548684 1_655
Na12 O44 2.799753 1_545
Na12 O43 2.857093 1_655
Na12 O36 2.983099 1_545
Na13 O46 2.516038 1_566
Na13 O41 2.597912 1_555
Na13 O45 2.630863 1_556
Na13 O39 2.670231 1_665
Na13 O47 2.888760 1_666
Na13 O40 2.989783 1_665
Na14 O49 2.451543 1_555
Na14 O56 2.632763 1_555
Na14 O54 2.636026 1_555
Na14 O50 2.736008 1_555
Na14 O55 2.787645 1_555
Na14 O48 2.847754 1_555
Na15 O53 2.306534 1_555
Na15 O58 2.608274 1_555
Na15 O57 2.825721 1_555
Na15 O51 2.875892 1_555
Na15 O59 2.948306 1_555
Na15 O52 3.002782 1_555
Na16 O66 2.299244 1_555
Na16 O61 2.617560 1_555
Na16 O68 2.721376 1_555
Na16 O67 2.861937 1_555
Na16 O62 2.897278 1_555
Na17 O69 2.631558 1_555
Na17 O65 2.681778 1_555
Na17 O71 2.749985 1_555
Na17 O70 2.781388 1_555
Na17 O64 2.884344 1_555
La0 O0 2.201197 1_545
La0 O38 2.230888 1_555
La0 O2 2.375495 1_455
La0 O37 2.431986 1_445
La0 O36 2.523360 1_445
La0 O1 2.533393 1_445
La1 O4 2.285451 1_455
La1 O3 2.291355 1_565
La1 O40 2.305868 1_565
La1 O39 2.344739 1_565
La1 O5 2.415247 1_465
La1 O41 2.419093 1_455
La2 O8 2.357034 1_545
La2 O7 2.380007 1_555
La2 O44 2.463922 1_445
La2 O42 2.508632 1_455
La2 O6 2.544111 1_445
La2 O43 2.577462 1_555
La3 O11 2.240777 1_555
La3 O45 2.390201 1_455
La3 O9 2.420653 1_455
La3 O10 2.517234 1_565
La3 O47 2.524315 1_565
La3 O46 2.537372 1_465
La4 O14 2.222782 1_555
La4 O12 2.304186 1_555
La4 O50 2.327997 1_555
La4 O49 2.391920 1_555
La4 O13 2.436366 1_555
La4 O48 2.509176 1_555
La5 O15 2.240297 1_555
La5 O16 2.245598 1_555
La5 O53 2.355267 1_555
La5 O17 2.360957 1_555
La5 O52 2.448611 1_555
La5 O51 2.500281 1_555
La6 O26 2.234240 1_554
La6 O24 2.293427 1_554
La6 O25 2.297037 1_554
La6 O62 2.367568 1_555
La6 O61 2.457011 1_555
La6 O60 2.540804 1_555
La7 O28 2.213106 1_555
La7 O27 2.268332 1_555
La7 O64 2.351645 1_555
La7 O65 2.423862 1_555
La7 O29 2.489119 1_555
La7 O63 2.554013 1_555
La8 O31 2.298888 1_555
La8 O66 2.326259 1_555
La8 O32 2.381638 1_555
La8 O67 2.501040 1_555
La8 O30 2.508585 1_555
La8 O68 2.550143 1_555
Nb0 O20 1.938754 1_556
Nb0 O55 1.955435 1_555
Nb0 O19 1.962026 1_556
Nb0 O56 2.046508 1_555
Nb0 O54 2.091771 1_555
Nb0 O18 2.494705 1_556
Nb1 O57 1.944938 1_555
Nb1 O23 1.955254 1_555
Nb1 O58 1.963477 1_555
Nb1 O22 2.024553 1_555
Nb1 O59 2.099475 1_555
Nb1 O21 2.176711 1_555
Nb2 O33 1.932716 1_555
Nb2 O34 1.974086 1_555
Nb2 O70 1.997450 1_555
Nb2 O35 2.043813 1_555
Nb2 O69 2.045342 1_555
Nb2 O71 2.414929 1_555
O0 Si0 1.626167 1_555
O1 S0 1.482873 1_555
O2 S1 1.483402 1_655
O3 Si1 1.613256 1_555
O4 Si2 1.619169 1_655
O5 S2 1.468433 1_545
O6 S2 1.504802 1_555
O7 Si1 1.666504 1_555
O8 Si2 1.655694 1_555
O9 S0 1.502086 1_555
O10 S1 1.492845 1_555
O11 Si0 1.670636 1_555
O12 Si3 1.623455 1_555
O13 S3 1.471730 1_555
O14 Si4 1.625759 1_555
O15 Si5 1.610450 1_555
O16 Si6 1.617977 1_555
O17 S4 1.473737 1_555
O18 S4 1.486564 1_555
O19 Si5 1.732778 1_555
O20 Si6 1.748930 1_555
O21 S3 1.499168 1_555
O22 Si4 1.704377 1_555
O23 Si3 1.703494 1_555
O24 Si7 1.610464 1_555
O25 Si8 1.599511 1_555
O26 Si9 1.615357 1_555
O27 Si10 1.636876 1_555
O28 Si11 1.629053 1_555
O29 S5 1.480344 1_555
O30 S5 1.461672 1_555
O31 Si10 1.641620 1_555
O32 Si11 1.646236 1_555
O33 Si8 1.718524 1_555
O34 Si9 1.710036 1_555
O35 Si7 1.718564 1_555
O36 S5 1.486507 1_655
O37 Si10 1.631665 1_555
O38 Si11 1.616518 1_555
O39 Si8 1.598885 1_555
O40 Si9 1.619759 1_545
O41 Si7 1.618216 1_555
O42 Si3 1.648077 1_555
O43 S3 1.493501 1_555
O44 Si4 1.650998 1_555
O45 Si5 1.655343 1_555
O46 Si6 1.644293 1_555
O47 S4 1.502992 1_555
O48 S2 1.477478 1_545
O49 Si1 1.636475 1_555
O50 Si2 1.649296 1_655
O51 S0 1.468959 1_555
O52 S1 1.487265 1_655
O53 Si0 1.652810 1_545
O54 Si7 1.700946 1_555
O55 Si8 1.688479 1_655
O56 Si9 1.664483 1_545
O57 Si10 1.696450 1_545
O58 Si11 1.689963 1_555
O59 S5 1.511779 1_655
O60 S4 1.487259 1_555
O61 Si5 1.639447 1_455
O62 Si6 1.637240 1_565
O63 S3 1.481575 1_565
O64 Si4 1.646795 1_555
O65 Si3 1.647194 1_455
O66 Si0 1.659215 1_555
O67 S0 1.494521 1_555
O68 S1 1.479511 1_555
O69 Si1 1.705738 1_555
O70 Si2 1.692195 1_555
O71 S2 1.498079 1_555
