# generated using pymatgen
data_Na3ScTiSi(PO6)2
_symmetry_space_group_name_H-M   'P 1'
_cell_length_a   8.98442029
_cell_length_b   8.98441998
_cell_length_c   22.30143392
_cell_angle_alpha   90.31243193
_cell_angle_beta   89.68756806
_cell_angle_gamma   120.01500933
_symmetry_Int_Tables_number   1
_chemical_formula_structural   Na3ScTiSi(PO6)2
_chemical_formula_sum   'Na18 Sc6 Ti6 Si6 P12 O72'
_cell_volume   1558.72396371
_cell_formula_units_Z   6
loop_
 _symmetry_equiv_pos_site_id
 _symmetry_equiv_pos_as_xyz
  1  'x, y, z'
loop_
 _atom_site_type_symbol
 _atom_site_label
 _atom_site_symmetry_multiplicity
 _atom_site_fract_x
 _atom_site_fract_y
 _atom_site_fract_z
 _atom_site_occupancy
  Na  Na0  1  0.99893504  0.99466130  0.49914684  1
  Na  Na1  1  0.00533870  0.00106496  0.99914684  1
  Na  Na2  1  0.66911687  0.32837686  0.83277469  1
  Na  Na3  1  0.67162314  0.33088313  0.33277469  1
  Na  Na4  1  0.35377696  0.67962441  0.16572120  1
  Na  Na5  1  0.32037559  0.64622304  0.66572120  1
  Na  Na6  1  0.36488014  0.36363907  0.24858877  1
  Na  Na7  1  0.99475392  0.63218633  0.24681532  1
  Na  Na8  1  0.63636093  0.63511986  0.74858877  1
  Na  Na9  1  0.36781367  0.00524608  0.74681532  1
  Na  Na10  1  0.03727745  0.69995422  0.58153350  1
  Na  Na11  1  0.65760305  0.96517904  0.58420720  1
  Na  Na12  1  0.30004578  0.96272255  0.08153350  1
  Na  Na13  1  0.03482096  0.34239695  0.08420720  1
  Na  Na14  1  0.97322955  0.67305813  0.91755806  1
  Na  Na15  1  0.70059078  0.03092316  0.91400499  1
  Na  Na16  1  0.96907684  0.29940922  0.41400499  1
  Na  Na17  1  0.32694187  0.02677045  0.41755806  1
  Sc  Sc0  1  0.99058295  0.99326345  0.35230541  1
  Sc  Sc1  1  0.00673655  0.00941705  0.85230541  1
  Sc  Sc2  1  0.66962108  0.32753294  0.68583699  1
  Sc  Sc3  1  0.67246706  0.33037892  0.18583699  1
  Sc  Sc4  1  0.33364036  0.66782183  0.01882579  1
  Sc  Sc5  1  0.33217817  0.66635964  0.51882579  1
  Ti  Ti0  1  0.00687670  0.00986378  0.64828376  1
  Ti  Ti1  1  0.99013622  0.99312330  0.14828376  1
  Ti  Ti2  1  0.66151356  0.33761171  0.98136816  1
  Ti  Ti3  1  0.66238829  0.33848644  0.48136816  1
  Ti  Ti4  1  0.32434575  0.66169411  0.31490788  1
  Ti  Ti5  1  0.33830589  0.67565425  0.81490788  1
  Si  Si0  1  -0.00007039  0.29248314  0.25146813  1
  Si  Si1  1  0.70751686  0.00007039  0.75146813  1
  Si  Si2  1  0.36899536  0.04309310  0.58378846  1
  Si  Si3  1  0.95690690  0.63100464  0.08378846  1
  Si  Si4  1  0.33736513  0.96725317  0.91868590  1
  Si  Si5  1  0.03274683  0.66263487  0.41868590  1
  P  P0  1  0.28965112  0.99551485  0.25034121  1
  P  P1  1  0.70259629  0.71082880  0.24964342  1
  P  P2  1  0.28917120  0.29740371  0.74964342  1
  P  P3  1  0.00448515  0.71034888  0.75034121  1
  P  P4  1  0.95690065  0.32811409  0.58160975  1
  P  P5  1  0.66862836  0.62626357  0.58523634  1
  P  P6  1  0.67188591  0.04309935  0.08160975  1
  P  P7  1  0.37373643  0.33137164  0.08523634  1
  P  P8  1  0.62136922  0.65974257  0.91531352  1
  P  P9  1  0.04216014  0.37862115  0.91765881  1
  P  P10  1  0.62137885  0.95783986  0.41765881  1
  P  P11  1  0.34025743  0.37863078  0.41531352  1
  O  O0  1  0.20822869  0.02229644  0.30699331  1
  O  O1  1  0.81981713  0.78833395  0.30392206  1
  O  O2  1  0.98336287  0.18863520  0.31184272  1
  O  O3  1  0.21166605  0.18018287  0.80392206  1
  O  O4  1  0.97770356  0.79177131  0.80699331  1
  O  O5  1  0.81136480  0.01663713  0.81184272  1
  O  O6  1  0.80556025  0.97014701  0.69191866  1
  O  O7  1  0.17389909  0.19906707  0.69374363  1
  O  O8  1  0.03443708  0.82882607  0.69422281  1
  O  O9  1  0.80093293  0.82610091  0.19374363  1
  O  O10  1  0.02985299  0.19443975  0.19191866  1
  O  O11  1  0.17117393  0.96556292  0.19422281  1
  O  O12  1  0.87513087  0.36266868  0.63659008  1
  O  O13  1  0.48736248  0.12635955  0.64253012  1
  O  O14  1  0.64875215  0.52654498  0.64304403  1
  O  O15  1  0.87364045  0.51263752  0.14253012  1
  O  O16  1  0.63733132  0.12486913  0.13659008  1
  O  O17  1  0.47345502  0.35124785  0.14304403  1
  O  O18  1  0.47173705  0.30563892  0.03033141  1
  O  O19  1  0.83530161  0.52846250  0.02395427  1
  O  O20  1  0.70026360  0.15876568  0.02506580  1
  O  O21  1  0.47153750  0.16469839  0.52395427  1
  O  O22  1  0.69436108  0.52826295  0.53033141  1
  O  O23  1  0.84123432  0.29973640  0.52506580  1
  O  O24  1  0.53635003  0.68936942  0.96913158  1
  O  O25  1  0.13901187  0.45278379  0.97635691  1
  O  O26  1  0.30687061  0.84883837  0.97673801  1
  O  O27  1  0.54721621  0.86098813  0.47635691  1
  O  O28  1  0.31063058  0.46364997  0.46913158  1
  O  O29  1  0.15116163  0.69312939  0.47673801  1
  O  O30  1  0.13592536  0.63366350  0.35927418  1
  O  O31  1  0.50006692  0.85793298  0.36380927  1
  O  O32  1  0.36218309  0.48651733  0.35710091  1
  O  O33  1  0.14206702  0.49993308  0.86380927  1
  O  O34  1  0.36633650  0.86407464  0.85927418  1
  O  O35  1  0.51348267  0.63781691  0.85710091  1
  O  O36  1  0.02377540  0.83648187  0.41215246  1
  O  O37  1  0.80624418  0.99075023  0.41234256  1
  O  O38  1  0.18111483  0.19585154  0.41133556  1
  O  O39  1  0.00924977  0.19375582  0.91234256  1
  O  O40  1  0.16351813  0.97622460  0.91215246  1
  O  O41  1  0.80414846  0.81888517  0.91133556  1
  O  O42  1  0.96177479  0.15756643  0.58802965  1
  O  O43  1  0.17430518  0.01968051  0.58948950  1
  O  O44  1  0.83801572  0.80531010  0.58661565  1
  O  O45  1  0.98031949  0.82569482  0.08948950  1
  O  O46  1  0.84243357  0.03822521  0.08802965  1
  O  O47  1  0.19468990  0.16198428  0.08661565  1
  O  O48  1  0.67017158  0.15861815  0.74774639  1
  O  O49  1  0.47177864  0.32260706  0.74317595  1
  O  O50  1  0.84093381  0.53414735  0.74415988  1
  O  O51  1  0.67739294  0.52822136  0.24317595  1
  O  O52  1  0.84138185  0.32982842  0.24774639  1
  O  O53  1  0.46585265  0.15906619  0.24415988  1
  O  O54  1  0.64065194  0.49636439  0.92069145  1
  O  O55  1  0.86230047  0.36863944  0.91948105  1
  O  O56  1  0.51914317  0.15236521  0.92324574  1
  O  O57  1  0.63136056  0.13769953  0.41948105  1
  O  O58  1  0.50363561  0.35934806  0.42069145  1
  O  O59  1  0.84763479  0.48085683  0.42324574  1
  O  O60  1  0.34584233  0.48428874  0.07836532  1
  O  O61  1  0.14833934  0.65180149  0.07987673  1
  O  O62  1  0.51417791  0.86316319  0.07677171  1
  O  O63  1  0.34819851  0.85166066  0.57987673  1
  O  O64  1  0.51571126  0.65415767  0.57836532  1
  O  O65  1  0.13683681  0.48582209  0.57677171  1
  O  O66  1  0.30170601  0.82859320  0.25507742  1
  O  O67  1  0.52497936  0.69731047  0.25430299  1
  O  O68  1  0.18294209  0.48580191  0.25494612  1
  O  O69  1  0.30268953  0.47502064  0.75430299  1
  O  O70  1  0.17140680  0.69829399  0.75507742  1
  O  O71  1  0.51419809  0.81705791  0.75494612  1
loop_
_geom_bond_atom_site_label_1
_geom_bond_atom_site_label_2
_geom_bond_distance
_geom_bond_site_symmetry_2
Na0 O36 2.473051 1_655
Na0 O43 2.503536 1_665
Na0 O44 2.516799 1_555
Na0 O42 2.575421 1_565
Na0 O37 2.592459 1_555
Na0 O38 2.612488 1_665
Na1 O40 2.473051 1_545
Na1 O45 2.503536 1_446
Na1 O47 2.516799 1_556
Na1 O46 2.575421 1_456
Na1 O39 2.592459 1_555
Na1 O41 2.612488 1_445
Na2 O48 2.429974 1_555
Na2 O56 2.502104 1_555
Na2 O55 2.506642 1_555
Na2 O54 2.556549 1_555
Na2 O50 2.618719 1_555
Na2 O49 2.661652 1_555
Na3 O52 2.429974 1_555
Na3 O59 2.502104 1_555
Na3 O57 2.506642 1_555
Na3 O58 2.556549 1_555
Na3 O53 2.618719 1_555
Na3 O51 2.661652 1_555
Na4 O67 2.465556 1_555
Na4 O62 2.521523 1_555
Na4 O66 2.562905 1_555
Na4 O68 2.584215 1_555
Na4 O61 2.589613 1_555
Na4 O60 2.592185 1_555
Na5 O69 2.465556 1_555
Na5 O65 2.521523 1_555
Na5 O70 2.562905 1_555
Na5 O71 2.584215 1_555
Na5 O63 2.589613 1_555
Na5 O64 2.592185 1_555
Na6 O68 2.384819 1_555
Na6 O53 2.424052 1_555
Na6 O51 2.434977 1_555
Na6 O17 2.566141 1_555
Na6 O67 2.599246 1_555
Na6 O32 2.659446 1_555
Na6 O10 2.900194 1_555
Na6 O0 2.964420 1_555
Na7 O52 2.352445 1_555
Na7 O66 2.426221 1_655
Na7 O51 2.519164 1_555
Na7 O15 2.564700 1_555
Na7 O68 2.617605 1_655
Na7 O30 2.813608 1_655
Na7 O11 2.850893 1_655
Na7 O1 2.867919 1_555
Na8 O71 2.384819 1_555
Na8 O50 2.424052 1_555
Na8 O49 2.434977 1_555
Na8 O14 2.566141 1_555
Na8 O69 2.599246 1_555
Na8 O35 2.659446 1_555
Na8 O6 2.900194 1_555
Na8 O4 2.964420 1_555
Na9 O48 2.352445 1_555
Na9 O70 2.426221 1_545
Na9 O49 2.519164 1_555
Na9 O13 2.564700 1_555
Na9 O71 2.617605 1_545
Na9 O34 2.813608 1_545
Na9 O8 2.850893 1_545
Na9 O3 2.867919 1_555
Na10 O44 2.409521 1_455
Na10 O63 2.419236 1_555
Na10 O65 2.496189 1_555
Na10 O43 2.501494 1_565
Na10 O29 2.558863 1_555
Na10 O8 2.766624 1_555
Na10 O12 2.901237 1_455
Na10 O22 2.905147 1_455
Na11 O42 2.395483 1_565
Na11 O64 2.425788 1_555
Na11 O63 2.437695 1_555
Na11 O27 2.591831 1_555
Na11 O44 2.650331 1_555
Na11 O6 2.741082 1_555
Na11 O13 2.881301 1_565
Na11 O23 2.924821 1_565
Na12 O47 2.409521 1_565
Na12 O61 2.419236 1_555
Na12 O62 2.496189 1_555
Na12 O45 2.501494 1_455
Na12 O26 2.558863 1_554
Na12 O11 2.766624 1_555
Na12 O16 2.901237 1_565
Na12 O18 2.905146 1_565
Na13 O46 2.395483 1_455
Na13 O60 2.425789 1_555
Na13 O61 2.437695 1_555
Na13 O25 2.591831 1_554
Na13 O47 2.650331 1_555
Na13 O10 2.741082 1_555
Na13 O15 2.881301 1_455
Na13 O20 2.924821 1_455
Na14 O40 2.387235 1_655
Na14 O55 2.397757 1_555
Na14 O41 2.457421 1_555
Na14 O54 2.589708 1_555
Na14 O4 2.683995 1_555
Na14 O19 2.691540 1_556
Na14 O33 2.911620 1_655
Na14 O26 2.916451 1_655
Na15 O56 2.379890 1_555
Na15 O39 2.402602 1_655
Na15 O41 2.503955 1_545
Na15 O5 2.509543 1_555
Na15 O55 2.630521 1_555
Na15 O20 2.725098 1_556
Na15 O34 2.876050 1_545
Na15 O24 2.932013 1_545
Na16 O59 2.379890 1_555
Na16 O37 2.402602 1_545
Na16 O38 2.503955 1_655
Na16 O2 2.509543 1_555
Na16 O57 2.630521 1_555
Na16 O23 2.725098 1_555
Na16 O30 2.876049 1_655
Na16 O28 2.932013 1_655
Na17 O36 2.387235 1_545
Na17 O57 2.397757 1_555
Na17 O38 2.457421 1_555
Na17 O58 2.589708 1_555
Na17 O0 2.683995 1_555
Na17 O21 2.691540 1_555
Na17 O31 2.911620 1_545
Na17 O29 2.916451 1_545
O0 P0 1.533617 1_545
O0 Sc0 2.093777 1_445
O1 P1 1.526547 1_555
O1 Sc0 2.019501 1_555
O2 Si0 1.605661 1_655
O2 Sc0 2.007835 1_545
O3 P2 1.526547 1_555
O3 Sc1 2.019501 1_555
O4 P3 1.533617 1_655
O4 Sc1 2.093777 1_665
O5 Si1 1.605661 1_555
O5 Sc1 2.007835 1_655
O6 Si1 1.682900 1_565
O6 Ti0 1.919537 1_665
O7 P2 1.579217 1_555
O7 Ti0 1.901322 1_555
O8 P3 1.579890 1_555
O8 Ti0 2.044593 1_565
O9 P1 1.579217 1_555
O9 Ti1 1.901322 1_555
O10 Si0 1.682900 1_555
O10 Ti1 1.919537 1_445
O11 P0 1.579890 1_555
O11 Ti1 2.044593 1_455
O12 P4 1.534184 1_555
O12 Sc2 2.028189 1_555
O13 Si2 1.617199 1_555
O13 Sc2 1.979435 1_555
O14 P5 1.531861 1_555
O14 Sc2 2.121051 1_555
O15 Si3 1.617199 1_555
O15 Sc3 1.979435 1_555
O16 P6 1.534184 1_555
O16 Sc3 2.028189 1_555
O17 P7 1.531861 1_555
O17 Sc3 2.121051 1_555
O18 P7 1.586443 1_555
O18 Ti2 1.917060 1_554
O19 Si3 1.678842 1_555
O19 Ti2 1.897358 1_554
O20 P6 1.575053 1_555
O20 Ti2 2.057482 1_554
O21 Si2 1.678842 1_555
O21 Ti3 1.897358 1_555
O22 P5 1.586443 1_555
O22 Ti3 1.917060 1_555
O23 P4 1.575053 1_555
O23 Ti3 2.057483 1_555
O24 P8 1.511547 1_555
O24 Sc4 2.051869 1_556
O25 P9 1.528925 1_555
O25 Sc4 2.074983 1_556
O26 Si4 1.613248 1_555
O26 Sc4 1.998557 1_556
O27 P10 1.528925 1_555
O27 Sc5 2.074983 1_555
O28 P11 1.511547 1_555
O28 Sc5 2.051869 1_555
O29 Si5 1.613248 1_555
O29 Sc5 1.998557 1_555
O30 Si5 1.704951 1_555
O30 Ti4 1.861737 1_555
O31 P10 1.568307 1_555
O31 Ti4 2.000839 1_555
O32 P11 1.575956 1_555
O32 Ti4 2.008216 1_555
O33 P9 1.568307 1_555
O33 Ti5 2.000839 1_555
O34 Si4 1.704951 1_555
O34 Ti5 1.861737 1_555
O35 P8 1.575956 1_555
O35 Ti5 2.008216 1_555
O36 Si5 1.611169 1_555
O36 Sc0 2.073528 1_455
O37 P10 1.538510 1_555
O37 Sc0 2.115386 1_555
O38 P11 1.549087 1_555
O38 Sc0 2.203989 1_445
O39 P9 1.538510 1_555
O39 Sc1 2.115386 1_555
O40 Si4 1.611169 1_555
O40 Sc1 2.073528 1_565
O41 P8 1.549087 1_555
O41 Sc1 2.203989 1_665
O42 P4 1.562007 1_555
O42 Ti0 2.072250 1_655
O43 Si2 1.658252 1_555
O43 Ti0 1.958774 1_555
O44 P5 1.566980 1_555
O44 Ti0 2.185481 1_665
O45 Si3 1.658252 1_555
O45 Ti1 1.958774 1_555
O46 P6 1.562007 1_555
O46 Ti1 2.072250 1_545
O47 P7 1.566980 1_555
O47 Ti1 2.185481 1_445
O48 Si1 1.621205 1_555
O48 Sc2 2.059082 1_555
O49 P2 1.545906 1_555
O49 Sc2 2.166511 1_555
O50 P3 1.535213 1_655
O50 Sc2 2.154927 1_555
O51 P1 1.545906 1_555
O51 Sc3 2.166511 1_555
O52 Si0 1.621205 1_655
O52 Sc3 2.059082 1_555
O53 P0 1.535213 1_545
O53 Sc3 2.154927 1_555
O54 P8 1.567024 1_555
O54 Ti2 2.047394 1_555
O55 P9 1.573302 1_655
O55 Ti2 2.170430 1_555
O56 Si4 1.651102 1_545
O56 Ti2 1.987718 1_555
O57 P10 1.573302 1_545
O57 Ti3 2.170430 1_555
O58 P11 1.567024 1_555
O58 Ti3 2.047394 1_555
O59 Si5 1.651102 1_655
O59 Ti3 1.987718 1_555
O60 P7 1.523480 1_555
O60 Sc4 2.168048 1_555
O61 Si3 1.636351 1_455
O61 Sc4 2.093748 1_555
O62 P6 1.529989 1_565
O62 Sc4 2.128663 1_555
O63 Si2 1.636351 1_565
O63 Sc5 2.093748 1_555
O64 P5 1.523480 1_555
O64 Sc5 2.168048 1_555
O65 P4 1.529989 1_455
O65 Sc5 2.128663 1_555
O66 P0 1.560872 1_555
O66 Ti4 2.097651 1_555
O67 P1 1.541592 1_555
O67 Ti4 2.139979 1_555
O68 Si0 1.693831 1_555
O68 Ti4 1.971401 1_555
O69 P2 1.541592 1_555
O69 Ti5 2.139979 1_555
O70 P3 1.560872 1_555
O70 Ti5 2.097651 1_555
O71 Si1 1.693831 1_565
O71 Ti5 1.971401 1_555
