# generated using pymatgen
data_NaFe(WO4)2
_symmetry_space_group_name_H-M   'P 1'
_cell_length_a   5.82968000
_cell_length_b   5.07777900
_cell_length_c   10.02599125
_cell_angle_alpha   89.07936396
_cell_angle_beta   90.00000000
_cell_angle_gamma   90.00000000
_symmetry_Int_Tables_number   1
_chemical_formula_structural   NaFe(WO4)2
_chemical_formula_sum   'Na2 Fe2 W4 O16'
_cell_volume   296.74934312
_cell_formula_units_Z   2
loop_
 _symmetry_equiv_pos_site_id
 _symmetry_equiv_pos_as_xyz
  1  'x, y, z'
loop_
 _atom_site_type_symbol
 _atom_site_label
 _atom_site_symmetry_multiplicity
 _atom_site_fract_x
 _atom_site_fract_y
 _atom_site_fract_z
 _atom_site_occupancy
  Na  Na0  1  0.68774400  0.75000000  0.50000000  1
  Na  Na1  1  0.31225600  0.25000000  0.50000000  1
  Fe  Fe0  1  0.66080700  0.75000000  0.00000000  1
  Fe  Fe1  1  0.33919300  0.25000000  0.00000000  1
  W  W0  1  0.17626700  0.76046600  0.76444000  1
  W  W1  1  0.17626700  0.73953400  0.23556000  1
  W  W2  1  0.82373300  0.23953400  0.23556000  1
  W  W3  1  0.82373300  0.26046600  0.76444000  1
  O  O0  1  0.12481500  0.07738500  0.87488300  1
  O  O1  1  0.12481500  0.42261500  0.12511700  1
  O  O2  1  0.87518500  0.92261500  0.12511700  1
  O  O3  1  0.87518500  0.57738500  0.87488300  1
  O  O4  1  0.09059500  0.44856300  0.67097800  1
  O  O5  1  0.09059500  0.05143700  0.32902200  1
  O  O6  1  0.90940500  0.55143700  0.32902200  1
  O  O7  1  0.90940500  0.94856300  0.67097800  1
  O  O8  1  0.37511700  0.59150100  0.89247200  1
  O  O9  1  0.37511700  0.90849900  0.10752800  1
  O  O10  1  0.62488300  0.40849900  0.10752800  1
  O  O11  1  0.62488300  0.09150100  0.89247200  1
  O  O12  1  0.62328800  0.37854700  0.64592100  1
  O  O13  1  0.62328800  0.12145300  0.35407900  1
  O  O14  1  0.37671200  0.62145300  0.35407900  1
  O  O15  1  0.37671200  0.87854700  0.64592100  1
loop_
_geom_bond_atom_site_label_1
_geom_bond_atom_site_label_2
_geom_bond_distance
_geom_bond_site_symmetry_2
Na0 O7 2.383381 1_555
Na0 O6 2.383381 1_555
Na0 O12 2.398016 1_555
Na0 O13 2.398016 1_565
Na0 O14 2.425877 1_555
Na0 O15 2.425877 1_555
Na1 O4 2.383381 1_555
Na1 O5 2.383381 1_555
Na1 O15 2.398016 1_545
Na1 O14 2.398016 1_555
Na1 O12 2.425877 1_555
Na1 O13 2.425877 1_555
Fe0 O2 1.984704 1_555
Fe0 O3 1.984704 1_554
Fe0 O10 2.037895 1_555
Fe0 O11 2.037895 1_564
Fe0 O8 2.147486 1_554
Fe0 O9 2.147486 1_555
Fe1 O1 1.984704 1_555
Fe1 O0 1.984704 1_554
Fe1 O9 2.037895 1_545
Fe1 O8 2.037895 1_554
Fe1 O10 2.147486 1_555
Fe1 O11 2.147486 1_554
O0 W0 1.990732 1_545
O0 W3 2.266725 1_455
O1 W1 1.990732 1_555
O1 W2 2.266725 1_455
O2 W2 1.990732 1_565
O2 W1 2.266725 1_655
O3 W3 1.990732 1_555
O3 W0 2.266725 1_655
O4 W0 1.919254 1_555
O4 W3 2.044948 1_455
O5 W1 1.919254 1_545
O5 W2 2.044948 1_455
O6 W2 1.919254 1_555
O6 W1 2.044948 1_655
O7 W3 1.919254 1_565
O7 W0 2.044948 1_655
O8 W0 1.921532 1_555
O9 W1 1.921532 1_555
O10 W2 1.921532 1_555
O11 W3 1.921532 1_555
O12 W3 1.764670 1_555
O13 W2 1.764670 1_555
O14 W1 1.764670 1_555
O15 W0 1.764670 1_555
