# generated using pymatgen
data_Na9Mg5NbSi3(SO6)6
_symmetry_space_group_name_H-M   'P 1'
_cell_length_a   9.01544799
_cell_length_b   8.98637460
_cell_length_c   22.36072850
_cell_angle_alpha   89.73191414
_cell_angle_beta   90.00000000
_cell_angle_gamma   120.10707990
_symmetry_Int_Tables_number   1
_chemical_formula_structural   Na9Mg5NbSi3(SO6)6
_chemical_formula_sum   'Na18 Mg10 Nb2 Si6 S12 O72'
_cell_volume   1567.15675593
_cell_formula_units_Z   2
loop_
 _symmetry_equiv_pos_site_id
 _symmetry_equiv_pos_as_xyz
  1  'x, y, z'
loop_
 _atom_site_type_symbol
 _atom_site_label
 _atom_site_symmetry_multiplicity
 _atom_site_fract_x
 _atom_site_fract_y
 _atom_site_fract_z
 _atom_site_occupancy
  Na  Na0  1  0.64207229  0.00370756  0.24075675  1
  Na  Na1  1  0.37753747  0.34941513  0.24948956  1
  Na  Na2  1  0.99649191  0.65372476  0.24517911  1
  Na  Na3  1  0.65723285  0.65372476  0.74517911  1
  Na  Na4  1  0.97187767  0.34941513  0.74948956  1
  Na  Na5  1  0.36163527  0.00370756  0.74075675  1
  Na  Na6  1  0.30084952  0.33557489  0.57619943  1
  Na  Na7  1  0.03472638  0.33557489  0.07619943  1
  Na  Na8  1  0.96159311  0.65788176  0.91271723  1
  Na  Na9  1  0.71728709  0.04611875  0.91112263  1
  Na  Na10  1  0.32883066  0.04611875  0.41112263  1
  Na  Na11  1  0.69628765  0.65788176  0.41271723  1
  Na  Na12  1  0.00028600  0.01456981  0.50017561  1
  Na  Na13  1  0.01428381  0.01456981  0.00017561  1
  Na  Na14  1  0.67980802  0.33426487  0.83093542  1
  Na  Na15  1  0.65445786  0.33426487  0.33093542  1
  Na  Na16  1  0.35113316  0.69004362  0.15844357  1
  Na  Na17  1  0.33890946  0.69004362  0.65844357  1
  Mg  Mg0  1  0.01273548  0.00560726  0.34930341  1
  Mg  Mg1  1  0.99287179  0.00560726  0.84930341  1
  Mg  Mg2  1  0.98023007  0.97576610  0.65122251  1
  Mg  Mg3  1  0.99553603  0.97576610  0.15122251  1
  Mg  Mg4  1  0.67784583  0.33450027  0.68313932  1
  Mg  Mg5  1  0.65665544  0.33450027  0.18313932  1
  Mg  Mg6  1  0.66870870  0.33548542  0.98317423  1
  Mg  Mg7  1  0.66677772  0.33548542  0.48317423  1
  Mg  Mg8  1  0.33242571  0.66000784  0.01786302  1
  Mg  Mg9  1  0.32758114  0.66000784  0.51786302  1
  Nb  Nb0  1  0.34136224  0.66254528  0.31429871  1
  Nb  Nb1  1  0.32118204  0.66254528  0.81429871  1
  Si  Si0  1  0.29569785  0.00273697  0.25093239  1
  Si  Si1  1  0.71804336  0.71205877  0.25211813  1
  Si  Si2  1  0.99401541  0.71205877  0.75211813  1
  Si  Si3  1  0.70703912  0.00273697  0.75093239  1
  Si  Si4  1  0.03396364  0.36022833  0.92359352  1
  Si  Si5  1  0.32626368  0.36022833  0.42359352  1
  S  S0  1  0.00052430  0.29210191  0.24900249  1
  S  S1  1  0.29157761  0.29210191  0.74900249  1
  S  S2  1  0.96323723  0.33385148  0.58367697  1
  S  S3  1  0.37067101  0.03836246  0.58231500  1
  S  S4  1  0.66745072  0.62881063  0.58284175  1
  S  S5  1  0.96136091  0.62881063  0.08284175  1
  S  S6  1  0.66769245  0.03836246  0.08231500  1
  S  S7  1  0.37061525  0.33385148  0.08367697  1
  S  S8  1  0.62228397  0.66302798  0.91865964  1
  S  S9  1  0.33281254  0.95900791  0.91876089  1
  S  S10  1  0.62619437  0.95900791  0.41876089  1
  S  S11  1  0.04074301  0.66302798  0.41865964  1
  O  O0  1  0.22503521  0.04303469  0.31142690  1
  O  O1  1  0.81665172  0.78945757  0.31434499  1
  O  O2  1  0.97252531  0.18617849  0.30211047  1
  O  O3  1  0.21365319  0.18617849  0.80211047  1
  O  O4  1  0.97280585  0.78945757  0.81434499  1
  O  O5  1  0.81799948  0.04303469  0.81142690  1
  O  O6  1  0.78215387  0.94832992  0.69544314  1
  O  O7  1  0.18699054  0.22675423  0.69444926  1
  O  O8  1  0.06165639  0.84335027  0.69661365  1
  O  O9  1  0.78169388  0.84335027  0.19661365  1
  O  O10  1  0.03976369  0.22675423  0.19444926  1
  O  O11  1  0.16617605  0.94832992  0.19544314  1
  O  O12  1  0.88364313  0.34960808  0.63954675  1
  O  O13  1  0.47186073  0.12077282  0.63720822  1
  O  O14  1  0.64298412  0.52048118  0.63665148  1
  O  O15  1  0.87749805  0.52048118  0.13665148  1
  O  O16  1  0.64891309  0.12077282  0.13720822  1
  O  O17  1  0.46596595  0.34960808  0.13954675  1
  O  O18  1  0.45919651  0.31614947  0.03097917  1
  O  O19  1  0.86095196  0.54345601  0.02819696  1
  O  O20  1  0.68638438  0.14488975  0.02844434  1
  O  O21  1  0.45850637  0.14488975  0.52844434  1
  O  O22  1  0.68250505  0.54345601  0.52819696  1
  O  O23  1  0.85695396  0.31614947  0.53097917  1
  O  O24  1  0.53705827  0.69237649  0.96943175  1
  O  O25  1  0.14576603  0.46138747  0.98046386  1
  O  O26  1  0.31121505  0.84781514  0.96969333  1
  O  O27  1  0.53659909  0.84781514  0.46969333  1
  O  O28  1  0.31562044  0.46138747  0.48046386  1
  O  O29  1  0.15531722  0.69237649  0.46943175  1
  O  O30  1  0.12354201  0.64608352  0.36211264  1
  O  O31  1  0.51555787  0.87602702  0.36206682  1
  O  O32  1  0.34865704  0.49409858  0.36342008  1
  O  O33  1  0.14544054  0.49409858  0.86342008  1
  O  O34  1  0.36046815  0.87602702  0.86206682  1
  O  O35  1  0.52254051  0.64608352  0.86211264  1
  O  O36  1  0.01907362  0.81496375  0.41379184  1
  O  O37  1  0.79292874  0.97072294  0.41104976  1
  O  O38  1  0.15949022  0.17213970  0.41526260  1
  O  O39  1  0.01264948  0.17213970  0.91526260  1
  O  O40  1  0.17779420  0.97072294  0.91104976  1
  O  O41  1  0.79589013  0.81496375  0.91379184  1
  O  O42  1  0.98954700  0.18238312  0.58692314  1
  O  O43  1  0.20176903  0.03153355  0.58576631  1
  O  O44  1  0.82345566  0.80048104  0.58609641  1
  O  O45  1  0.97702538  0.80048104  0.08609641  1
  O  O46  1  0.82976452  0.03153355  0.08576631  1
  O  O47  1  0.19283612  0.18238312  0.08692314  1
  O  O48  1  0.66305062  0.15713106  0.74256900  1
  O  O49  1  0.46636762  0.32040946  0.74186503  1
  O  O50  1  0.83143762  0.51857191  0.74348382  1
  O  O51  1  0.68713529  0.51857191  0.24348382  1
  O  O52  1  0.85404284  0.32040946  0.24186503  1
  O  O53  1  0.49408144  0.15713106  0.24256900  1
  O  O54  1  0.63586271  0.50610265  0.92343706  1
  O  O55  1  0.84815329  0.35583787  0.91936353  1
  O  O56  1  0.49040525  0.12825785  0.92147879  1
  O  O57  1  0.63785360  0.12825785  0.42147879  1
  O  O58  1  0.50768558  0.35583787  0.41936353  1
  O  O59  1  0.87024094  0.50610265  0.42343706  1
  O  O60  1  0.35395035  0.49174609  0.08008541  1
  O  O61  1  0.13484499  0.64495350  0.07986356  1
  O  O62  1  0.51514778  0.86409671  0.07696792  1
  O  O63  1  0.34894793  0.86409671  0.57696792  1
  O  O64  1  0.51010751  0.64495350  0.57986356  1
  O  O65  1  0.13779474  0.49174609  0.58008541  1
  O  O66  1  0.31151737  0.82197980  0.26213450  1
  O  O67  1  0.51060297  0.67893082  0.26064346  1
  O  O68  1  0.15831910  0.47207472  0.25735974  1
  O  O69  1  0.31375463  0.47207472  0.75735974  1
  O  O70  1  0.16832685  0.67893082  0.76064346  1
  O  O71  1  0.51046142  0.82197980  0.76213450  1
loop_
_geom_bond_atom_site_label_1
_geom_bond_atom_site_label_2
_geom_bond_distance
_geom_bond_site_symmetry_2
Na0 O53 2.351294 1_555
Na0 O52 2.509308 1_555
Na0 O16 2.526614 1_555
Na0 O9 2.543308 1_545
Na0 O67 2.576434 1_545
Na0 O66 2.624245 1_545
Na0 O2 2.926873 1_555
Na0 O31 2.938278 1_545
Na1 O51 2.420919 1_555
Na1 O53 2.436716 1_555
Na1 O17 2.584159 1_555
Na1 O67 2.590919 1_555
Na1 O68 2.709105 1_555
Na1 O0 2.748724 1_555
Na1 O32 2.935811 1_555
Na1 O10 2.940761 1_555
Na2 O51 2.420152 1_555
Na2 O66 2.488630 1_655
Na2 O11 2.548591 1_655
Na2 O52 2.601829 1_555
Na2 O15 2.685560 1_555
Na2 O68 2.693036 1_655
Na2 O30 2.868914 1_655
Na2 O1 2.917219 1_555
Na3 O50 2.420160 1_555
Na3 O71 2.488637 1_555
Na3 O6 2.548591 1_555
Na3 O49 2.601828 1_555
Na3 O14 2.685562 1_555
Na3 O69 2.693043 1_555
Na3 O35 2.868918 1_555
Na3 O4 2.917219 1_555
Na4 O50 2.420911 1_555
Na4 O48 2.436709 1_555
Na4 O12 2.584156 1_555
Na4 O70 2.590918 1_655
Na4 O69 2.709097 1_655
Na4 O5 2.748724 1_555
Na4 O33 2.935809 1_655
Na4 O7 2.940761 1_655
Na5 O48 2.351302 1_555
Na5 O49 2.509306 1_555
Na5 O13 2.526616 1_555
Na5 O8 2.543308 1_545
Na5 O70 2.576435 1_545
Na5 O71 2.624237 1_545
Na5 O3 2.926873 1_555
Na5 O34 2.938276 1_545
Na6 O28 2.388506 1_555
Na6 O43 2.419670 1_555
Na6 O42 2.439279 1_455
Na6 O64 2.456715 1_555
Na6 O65 2.491767 1_555
Na6 O7 2.823166 1_555
Na6 O21 2.925304 1_555
Na6 O14 2.996917 1_555
Na7 O25 2.388503 1_554
Na7 O46 2.419672 1_455
Na7 O47 2.439272 1_555
Na7 O61 2.456718 1_555
Na7 O60 2.491751 1_555
Na7 O10 2.823164 1_555
Na7 O20 2.925304 1_455
Na7 O15 2.996918 1_455
Na8 O55 2.376270 1_555
Na8 O4 2.470341 1_555
Na8 O40 2.491116 1_655
Na8 O41 2.518092 1_555
Na8 O54 2.553443 1_555
Na8 O19 2.754551 1_556
Na8 O33 2.931060 1_655
Na8 O26 3.015712 1_655
Na9 O39 2.314594 1_655
Na9 O5 2.412600 1_555
Na9 O55 2.425462 1_555
Na9 O41 2.509245 1_545
Na9 O56 2.509699 1_555
Na9 O20 2.831526 1_556
Na10 O38 2.314586 1_555
Na10 O0 2.412596 1_555
Na10 O58 2.425463 1_555
Na10 O36 2.509238 1_545
Na10 O57 2.509716 1_555
Na10 O21 2.831530 1_555
Na11 O58 2.376267 1_555
Na11 O1 2.470342 1_555
Na11 O37 2.491114 1_555
Na11 O36 2.518100 1_655
Na11 O59 2.553459 1_555
Na11 O22 2.754554 1_555
Na11 O32 2.931060 1_555
Na11 O27 3.015712 1_555
Na12 O38 2.367724 1_555
Na12 O42 2.493987 1_455
Na12 O43 2.590481 1_555
Na12 O44 2.611981 1_445
Na12 O37 2.624895 1_445
Na12 O36 2.704532 1_545
Na13 O39 2.367724 1_554
Na13 O47 2.493987 1_555
Na13 O46 2.590481 1_455
Na13 O45 2.611981 1_445
Na13 O40 2.624895 1_544
Na13 O41 2.704532 1_444
Na14 O55 2.441149 1_555
Na14 O50 2.476701 1_555
Na14 O48 2.499825 1_555
Na14 O56 2.689895 1_555
Na14 O49 2.728923 1_555
Na14 O54 2.731935 1_555
Na15 O58 2.441150 1_555
Na15 O51 2.476701 1_555
Na15 O53 2.499825 1_555
Na15 O57 2.689895 1_555
Na15 O52 2.728923 1_555
Na15 O59 2.731935 1_555
Na16 O62 2.367508 1_555
Na16 O61 2.503568 1_555
Na16 O60 2.514104 1_555
Na16 O66 2.712885 1_555
Na16 O67 2.727868 1_555
Na16 O68 2.879960 1_555
Na17 O63 2.367508 1_555
Na17 O64 2.503568 1_555
Na17 O65 2.514104 1_555
Na17 O71 2.712885 1_555
Na17 O70 2.727868 1_555
Na17 O69 2.879960 1_555
Mg0 O0 1.960933 1_555
Mg0 O1 2.019501 1_445
Mg0 O38 2.049303 1_555
Mg0 O2 2.110029 1_455
Mg0 O36 2.256719 1_545
Mg0 O37 2.303100 1_445
Mg1 O5 1.960933 1_555
Mg1 O4 2.019501 1_545
Mg1 O39 2.049303 1_655
Mg1 O3 2.110029 1_655
Mg1 O41 2.256719 1_545
Mg1 O40 2.303100 1_645
Mg2 O6 1.945103 1_555
Mg2 O8 1.962163 1_655
Mg2 O44 2.094634 1_555
Mg2 O7 2.301866 1_665
Mg2 O42 2.310909 1_565
Mg2 O43 2.317646 1_665
Mg3 O11 1.945103 1_655
Mg3 O9 1.962163 1_555
Mg3 O45 2.094634 1_555
Mg3 O10 2.301866 1_665
Mg3 O47 2.310909 1_665
Mg3 O46 2.317646 1_565
Mg4 O48 2.022663 1_555
Mg4 O12 2.038870 1_555
Mg4 O50 2.048729 1_555
Mg4 O14 2.117378 1_555
Mg4 O13 2.152327 1_555
Mg4 O49 2.265315 1_555
Mg5 O53 2.022663 1_555
Mg5 O17 2.038870 1_555
Mg5 O51 2.048729 1_555
Mg5 O15 2.117378 1_555
Mg5 O16 2.152327 1_555
Mg5 O52 2.265315 1_555
Mg6 O20 2.059428 1_556
Mg6 O19 2.068377 1_556
Mg6 O55 2.094581 1_555
Mg6 O18 2.099902 1_556
Mg6 O54 2.158491 1_555
Mg6 O56 2.230677 1_555
Mg7 O21 2.059428 1_555
Mg7 O22 2.068377 1_555
Mg7 O58 2.094581 1_555
Mg7 O23 2.099902 1_555
Mg7 O59 2.158491 1_555
Mg7 O57 2.230677 1_555
Mg8 O25 1.928120 1_554
Mg8 O24 2.029676 1_554
Mg8 O26 2.086108 1_554
Mg8 O60 2.129436 1_555
Mg8 O62 2.194467 1_555
Mg8 O61 2.206759 1_555
Mg9 O28 1.928120 1_555
Mg9 O29 2.029676 1_555
Mg9 O27 2.086108 1_555
Mg9 O65 2.129436 1_555
Mg9 O63 2.194467 1_555
Mg9 O64 2.206759 1_555
Nb0 O67 1.887351 1_555
Nb0 O32 1.893796 1_555
Nb0 O66 1.963874 1_555
Nb0 O31 2.069834 1_555
Nb0 O68 2.112021 1_555
Nb0 O30 2.174479 1_555
Nb1 O70 1.887351 1_555
Nb1 O33 1.893796 1_555
Nb1 O71 1.963874 1_555
Nb1 O34 2.069834 1_555
Nb1 O69 2.112021 1_555
Nb1 O35 2.174479 1_555
O0 Si0 1.613322 1_555
O1 Si1 1.612114 1_555
O2 S0 1.458895 1_655
O3 S1 1.458895 1_555
O4 Si2 1.612114 1_555
O5 Si3 1.613322 1_555
O6 Si3 1.604685 1_565
O7 S1 1.474160 1_555
O8 Si2 1.602733 1_455
O9 Si1 1.602733 1_555
O10 S0 1.474160 1_555
O11 Si0 1.604685 1_565
O12 S2 1.482996 1_555
O13 S3 1.489309 1_555
O14 S4 1.489194 1_555
O15 S5 1.489194 1_555
O16 S6 1.489309 1_555
O17 S7 1.482996 1_555
O18 S7 1.476755 1_555
O19 S5 1.487614 1_555
O20 S6 1.491042 1_555
O21 S3 1.491042 1_555
O22 S4 1.487614 1_555
O23 S2 1.476755 1_555
O24 S8 1.467966 1_555
O25 Si4 1.597197 1_555
O26 S9 1.458622 1_555
O27 S10 1.458622 1_555
O28 Si5 1.597197 1_555
O29 S11 1.467966 1_555
O30 S11 1.514934 1_555
O31 S10 1.555865 1_555
O32 Si5 1.743448 1_555
O33 Si4 1.743448 1_555
O34 S9 1.555865 1_555
O35 S8 1.514934 1_555
O36 S11 1.476619 1_555
O37 S10 1.463369 1_555
O38 Si5 1.614192 1_555
O39 Si4 1.614195 1_555
O40 S9 1.463360 1_555
O41 S8 1.476625 1_555
O42 S2 1.495741 1_555
O43 S3 1.494867 1_555
O44 S4 1.479060 1_555
O45 S5 1.479064 1_555
O46 S6 1.494858 1_555
O47 S7 1.495746 1_555
O48 Si3 1.633041 1_555
O49 S1 1.473372 1_555
O50 Si2 1.629484 1_555
O51 Si1 1.629488 1_555
O52 S0 1.473363 1_655
O53 Si0 1.633047 1_555
O54 S8 1.478789 1_555
O55 Si4 1.658434 1_655
O56 S9 1.472587 1_545
O57 S10 1.472579 1_545
O58 Si5 1.658452 1_555
O59 S11 1.478778 1_655
O60 S7 1.501699 1_555
O61 S5 1.497991 1_455
O62 S6 1.482952 1_565
O63 S3 1.482945 1_565
O64 S4 1.498009 1_555
O65 S2 1.501689 1_455
O66 Si0 1.717617 1_565
O67 Si1 1.750261 1_555
O68 S0 1.539149 1_555
O69 S1 1.539153 1_555
O70 Si2 1.750252 1_455
O71 Si3 1.717623 1_565
