# generated using pymatgen
data_MgV6O15
_symmetry_space_group_name_H-M   'P 1'
_cell_length_a   7.97700727
_cell_length_b   7.97702111
_cell_length_c   10.39991412
_cell_angle_alpha   71.44746763
_cell_angle_beta   108.55187903
_cell_angle_gamma   153.08744755
_symmetry_Int_Tables_number   1
_chemical_formula_structural   MgV6O15
_chemical_formula_sum   'Mg1 V6 O15'
_cell_volume   283.05647229
_cell_formula_units_Z   1
loop_
 _symmetry_equiv_pos_site_id
 _symmetry_equiv_pos_as_xyz
  1  'x, y, z'
loop_
 _atom_site_type_symbol
 _atom_site_label
 _atom_site_symmetry_multiplicity
 _atom_site_fract_x
 _atom_site_fract_y
 _atom_site_fract_z
 _atom_site_occupancy
  Mg  Mg0  1  0.42783200  0.57249000  0.67600700  1
  V  V0  1  0.12162500  0.87875600  0.11047000  1
  V  V1  1  0.88386100  0.11653100  0.89770400  1
  V  V2  1  0.27330500  0.72702500  0.40313900  1
  V  V3  1  0.34138600  0.65895600  0.10775700  1
  V  V4  1  0.66619700  0.33448500  0.89461700  1
  V  V5  1  0.70861400  0.29175800  0.58637700  1
  O  O0  1  0.18216900  0.81818600  0.93889200  1
  O  O1  1  0.12034100  0.88003900  0.26796800  1
  O  O2  1  0.24389700  0.75645200  0.58374000  1
  O  O3  1  0.37107500  0.62924500  0.93129600  1
  O  O4  1  0.26577100  0.73453800  0.20895600  1
  O  O5  1  0.38706400  0.61323000  0.47694900  1
  O  O6  1  0.44066300  0.55972800  0.22022500  1
  O  O7  1  0.56146000  0.43899900  0.78296700  1
  O  O8  1  0.00566500  0.99470400  0.00935600  1
  O  O9  1  0.59955800  0.40086100  0.53577300  1
  O  O10  1  0.73670100  0.26368200  0.78110500  1
  O  O11  1  0.64050100  0.35983600  0.06818800  1
  O  O12  1  0.74095000  0.25939900  0.42304200  1
  O  O13  1  0.89525900  0.10515000  0.73089400  1
  O  O14  1  0.81943900  0.18094900  0.04582800  1
loop_
_geom_bond_atom_site_label_1
_geom_bond_atom_site_label_2
_geom_bond_distance
_geom_bond_site_symmetry_2
Mg0 O5 1.956785 1_555
Mg0 O7 2.005888 1_555
Mg0 O13 2.053308 1_455
Mg0 O13 2.053628 1_565
O0 V4 1.908618 1_455
O0 V4 1.909778 1_565
O0 V0 2.272432 1_556
O0 V3 2.519692 1_556
O1 V0 1.644588 1_555
O1 V2 2.329732 1_555
O2 V5 1.938060 1_455
O2 V5 1.938147 1_565
O2 V2 2.072931 1_555
O3 V1 1.910944 1_455
O3 V1 1.911186 1_565
O3 V3 2.033122 1_556
O4 V3 1.814202 1_555
O4 V2 1.984365 1_555
O4 V0 2.134153 1_555
O5 V2 1.679020 1_555
O6 V3 1.600358 1_555
O7 V4 1.658395 1_555
O8 V0 1.762059 1_555
O8 V1 1.866755 1_464
O9 V5 1.599585 1_555
O10 V4 1.855310 1_555
O10 V5 1.927110 1_555
O10 V1 2.207305 1_555
O11 V0 1.951698 1_545
O11 V0 1.951875 1_655
O11 V4 1.970545 1_554
O12 V5 1.922297 1_555
O12 V2 1.951573 1_655
O12 V2 1.951653 1_545
O13 V1 1.800385 1_555
O14 V3 1.957770 1_655
O14 V3 1.957904 1_545
O14 V1 2.092757 1_554
O14 V4 2.385060 1_554
