# generated using pymatgen
data_Sr4(PPd)5
_symmetry_space_group_name_H-M   'P 1'
_cell_length_a   15.91266468
_cell_length_b   15.91266468
_cell_length_c   8.65956729
_cell_angle_alpha   90.00000000
_cell_angle_beta   90.00000000
_cell_angle_gamma   164.97076002
_symmetry_Int_Tables_number   1
_chemical_formula_structural   Sr4(PPd)5
_chemical_formula_sum   'Sr8 P10 Pd10'
_cell_volume   568.59698820
_cell_formula_units_Z   2
loop_
 _symmetry_equiv_pos_site_id
 _symmetry_equiv_pos_as_xyz
  1  'x, y, z'
loop_
 _atom_site_type_symbol
 _atom_site_label
 _atom_site_symmetry_multiplicity
 _atom_site_fract_x
 _atom_site_fract_y
 _atom_site_fract_z
 _atom_site_occupancy
  Sr  Sr0  1  0.19361235  0.80638765  0.50402152  1
  Sr  Sr1  1  0.80638765  0.19361235  0.49597848  1
  Sr  Sr2  1  0.80638765  0.19361235  0.00402152  1
  Sr  Sr3  1  0.19361235  0.80638765  0.99597848  1
  Sr  Sr4  1  0.42084973  0.57915027  0.00041205  1
  Sr  Sr5  1  0.57915027  0.42084973  0.50041205  1
  Sr  Sr6  1  0.57915027  0.42084973  0.99958795  1
  Sr  Sr7  1  0.42084973  0.57915027  0.49958795  1
  P  P0  1  0.72890259  0.27109741  0.25000000  1
  P  P1  1  0.95739670  0.04260330  0.25000000  1
  P  P2  1  0.95631577  0.04368423  0.75000000  1
  P  P3  1  0.04260330  0.95739670  0.75000000  1
  P  P4  1  0.04368423  0.95631577  0.25000000  1
  P  P5  1  0.34297349  0.65702651  0.75000000  1
  P  P6  1  0.65702651  0.34297349  0.25000000  1
  P  P7  1  0.65644147  0.34355853  0.75000000  1
  P  P8  1  0.27109741  0.72890259  0.75000000  1
  P  P9  1  0.34355853  0.65644147  0.25000000  1
  Pd  Pd0  1  0.26646264  0.73353736  0.25000000  1
  Pd  Pd1  1  0.73353736  0.26646264  0.75000000  1
  Pd  Pd2  1  -0.00000000  0.00000000  0.50000000  1
  Pd  Pd3  1  0.11991021  0.88008979  0.25000000  1
  Pd  Pd4  1  0.88008979  0.11991021  0.75000000  1
  Pd  Pd5  1  0.88171630  0.11828370  0.25000000  1
  Pd  Pd6  1  0.11828370  0.88171630  0.75000000  1
  Pd  Pd7  1  0.50016071  0.49983929  0.25000000  1
  Pd  Pd8  1  0.49983929  0.50016071  0.75000000  1
  Pd  Pd9  1  -0.00000000  0.00000000  -0.00000000  1
loop_
_geom_bond_atom_site_label_1
_geom_bond_atom_site_label_2
_geom_bond_distance
_geom_bond_site_symmetry_2
P0 P6 2.267834 1_555
P0 Pd0 2.394827 1_545
P0 Pd0 2.394827 1_655
P0 Sr3 3.226350 1_544
P0 Sr0 3.226350 1_655
P0 Sr0 3.226350 1_545
P0 Sr3 3.226350 1_654
P0 Sr2 3.242572 1_555
P0 Sr1 3.242572 1_555
P1 Pd5 2.387868 1_555
P1 Pd7 2.480188 1_655
P1 Pd7 2.480188 1_545
P1 Pd9 2.548270 1_655
P1 Pd2 2.548270 1_655
P1 Sr4 3.214308 1_655
P1 Sr7 3.214308 1_545
P1 Sr4 3.214308 1_545
P1 Sr7 3.214308 1_655
P2 Pd4 2.405082 1_555
P2 Pd8 2.493306 1_655
P2 Pd8 2.493306 1_545
P2 Pd2 2.566425 1_655
P2 Pd9 2.566425 1_656
P2 Sr7 3.207052 1_655
P2 Sr7 3.207052 1_545
P2 Sr4 3.207052 1_656
P2 Sr4 3.207052 1_546
P3 Pd6 2.387868 1_555
P3 Pd8 2.480188 1_565
P3 Pd8 2.480188 1_455
P3 Pd2 2.548270 1_565
P3 Pd9 2.548270 1_566
P3 Sr5 3.214308 1_455
P3 Sr5 3.214308 1_565
P3 Sr6 3.214308 1_455
P3 Sr6 3.214308 1_565
P4 Pd3 2.405082 1_555
P4 Pd7 2.493306 1_455
P4 Pd7 2.493306 1_565
P4 Pd9 2.566425 1_565
P4 Pd2 2.566425 1_565
P4 Sr5 3.207052 1_455
P4 Sr6 3.207052 1_454
P4 Sr5 3.207052 1_565
P4 Sr6 3.207052 1_564
P5 P8 2.267834 1_555
P5 Pd4 2.387930 1_565
P5 Pd4 2.387930 1_455
P5 Sr1 3.240685 1_455
P5 Sr1 3.240685 1_565
P5 Sr2 3.240685 1_456
P5 Sr2 3.240685 1_566
P5 Sr4 3.277165 1_556
P5 Sr7 3.277165 1_555
P6 Pd3 2.387930 1_545
P6 Pd3 2.387930 1_655
P6 Sr3 3.240685 1_544
P6 Sr0 3.240685 1_655
P6 Sr0 3.240685 1_545
P6 Sr3 3.240685 1_654
P6 Sr5 3.277165 1_555
P6 Sr6 3.277165 1_554
P7 Pd6 2.404216 1_655
P7 Pd6 2.404216 1_545
P7 Pd1 2.432529 1_555
P7 Sr0 3.200536 1_545
P7 Sr3 3.200536 1_655
P7 Sr3 3.200536 1_545
P7 Sr0 3.200536 1_655
P7 Sr6 3.258610 1_555
P7 Sr5 3.258610 1_555
P8 Pd1 2.394827 1_455
P8 Pd1 2.394827 1_565
P8 Sr1 3.226350 1_565
P8 Sr2 3.226350 1_456
P8 Sr2 3.226350 1_566
P8 Sr1 3.226350 1_455
P8 Sr3 3.242572 1_555
P8 Sr0 3.242572 1_555
P9 Pd5 2.404216 1_565
P9 Pd5 2.404216 1_455
P9 Pd0 2.432529 1_555
P9 Sr2 3.200536 1_565
P9 Sr1 3.200536 1_455
P9 Sr2 3.200536 1_455
P9 Sr1 3.200536 1_565
P9 Sr4 3.258610 1_555
P9 Sr7 3.258610 1_555
Pd0 Sr3 3.181538 1_554
Pd0 Sr0 3.181538 1_555
Pd0 Sr1 3.233390 1_565
Pd0 Sr2 3.233390 1_565
Pd0 Sr1 3.233390 1_455
Pd0 Sr2 3.233390 1_455
Pd1 Sr2 3.181538 1_556
Pd1 Sr1 3.181538 1_555
Pd1 Sr3 3.233390 1_655
Pd1 Sr3 3.233390 1_545
Pd1 Sr0 3.233390 1_655
Pd1 Sr0 3.233390 1_545
Pd2 Sr7 3.250771 1_445
Pd2 Sr5 3.250771 1_555
Pd2 Sr5 3.250771 1_445
Pd2 Sr7 3.250771 1_555
Pd3 Sr0 3.201011 1_555
Pd3 Sr3 3.201011 1_554
Pd3 Sr5 3.269084 1_565
Pd3 Sr6 3.269084 1_564
Pd3 Sr5 3.269084 1_455
Pd3 Sr6 3.269084 1_454
Pd4 Sr1 3.201011 1_555
Pd4 Sr2 3.201011 1_556
Pd4 Sr4 3.269084 1_546
Pd4 Sr7 3.269084 1_545
Pd4 Sr7 3.269084 1_655
Pd4 Sr4 3.269084 1_656
Pd5 Sr1 3.191586 1_555
Pd5 Sr2 3.191586 1_555
Pd5 Sr7 3.244479 1_545
Pd5 Sr4 3.244479 1_545
Pd5 Sr7 3.244479 1_655
Pd5 Sr4 3.244479 1_655
Pd6 Sr3 3.191586 1_555
Pd6 Sr0 3.191586 1_555
Pd6 Sr6 3.244479 1_455
Pd6 Sr5 3.244479 1_455
Pd6 Sr5 3.244479 1_565
Pd6 Sr6 3.244479 1_565
Pd7 Sr5 3.303585 1_555
Pd7 Sr6 3.303585 1_554
Pd7 Sr4 3.306573 1_555
Pd7 Sr7 3.306573 1_555
Pd8 Sr7 3.303585 1_555
Pd8 Sr4 3.303585 1_556
Pd8 Sr6 3.306573 1_555
Pd8 Sr5 3.306573 1_555
Pd9 Sr6 3.250771 1_554
Pd9 Sr4 3.250771 1_445
Pd9 Sr6 3.250771 1_444
Pd9 Sr4 3.250771 1_555
