# generated using pymatgen
data_Cs6Cl4O
_symmetry_space_group_name_H-M   'P 1'
_cell_length_a   9.51622142
_cell_length_b   9.51622142
_cell_length_c   9.51622116
_cell_angle_alpha   88.98237086
_cell_angle_beta   88.98237086
_cell_angle_gamma   88.98236961
_symmetry_Int_Tables_number   1
_chemical_formula_structural   Cs6Cl4O
_chemical_formula_sum   'Cs12 Cl8 O2'
_cell_volume   861.37143251
_cell_formula_units_Z   2
loop_
 _symmetry_equiv_pos_site_id
 _symmetry_equiv_pos_as_xyz
  1  'x, y, z'
loop_
 _atom_site_type_symbol
 _atom_site_label
 _atom_site_symmetry_multiplicity
 _atom_site_fract_x
 _atom_site_fract_y
 _atom_site_fract_z
 _atom_site_occupancy
  Cs  Cs0  1  0.05638339  0.93364721  0.71179216  1
  Cs  Cs1  1  0.93364721  0.71179216  0.05638339  1
  Cs  Cs2  1  0.71179216  0.05638339  0.93364721  1
  Cs  Cs3  1  0.56635279  0.44361661  0.78820784  1
  Cs  Cs4  1  0.78820784  0.56635279  0.44361661  1
  Cs  Cs5  1  0.44361661  0.78820784  0.56635279  1
  Cs  Cs6  1  0.06635279  0.28820784  0.94361661  1
  Cs  Cs7  1  0.94361661  0.06635279  0.28820784  1
  Cs  Cs8  1  0.28820784  0.94361661  0.06635279  1
  Cs  Cs9  1  0.43364721  0.55638339  0.21179216  1
  Cs  Cs10  1  0.21179216  0.43364721  0.55638339  1
  Cs  Cs11  1  0.55638339  0.21179216  0.43364721  1
  Cl  Cl0  1  0.75000000  0.75000000  0.75000000  1
  Cl  Cl1  1  0.25000000  0.25000000  0.25000000  1
  Cl  Cl2  1  0.75000000  0.36706040  0.13293960  1
  Cl  Cl3  1  0.13293960  0.75000000  0.36706040  1
  Cl  Cl4  1  0.36706040  0.13293960  0.75000000  1
  Cl  Cl5  1  0.25000000  0.63293960  0.86706040  1
  Cl  Cl6  1  0.86706040  0.25000000  0.63293960  1
  Cl  Cl7  1  0.63293960  0.86706040  0.25000000  1
  O  O0  1  0.50000000  0.50000000  0.50000000  1
  O  O1  1  0.00000000  0.00000000  -0.00000000  1
loop_
_geom_bond_atom_site_label_1
_geom_bond_atom_site_label_2
_geom_bond_distance
_geom_bond_site_symmetry_2
Cs0 O1 2.864599 1_566
Cs1 O1 2.864599 1_665
Cs2 O1 2.864599 1_656
Cs3 O0 2.864599 1_555
Cs4 O0 2.864599 1_555
Cs5 O0 2.864599 1_555
Cs6 O1 2.864599 1_556
Cs7 O1 2.864599 1_655
Cs8 O1 2.864599 1_565
Cs9 O0 2.864599 1_555
Cs10 O0 2.864599 1_555
Cs11 O0 2.864599 1_555
Cl0 Cs4 3.436271 1_555
Cl0 Cs1 3.436271 1_556
Cl0 Cs5 3.436271 1_555
Cl0 Cs2 3.436271 1_565
Cl0 Cs0 3.436271 1_655
Cl0 Cs3 3.436271 1_555
Cl1 Cs10 3.436271 1_555
Cl1 Cs6 3.436271 1_554
Cl1 Cs11 3.436271 1_555
Cl1 Cs8 3.436271 1_545
Cl1 Cs7 3.436271 1_455
Cl1 Cs9 3.436271 1_555
Cl2 Cs6 3.556277 1_654
Cl2 Cs9 3.556277 1_555
Cl2 Cs4 3.568124 1_555
Cl2 Cs2 3.568124 1_554
Cl2 Cs7 3.677770 1_555
Cl2 Cs11 3.677770 1_555
Cl2 Cs3 3.797426 1_554
Cl2 Cs1 3.797426 1_555
Cl3 Cs10 3.556277 1_555
Cl3 Cs7 3.556277 1_465
Cl3 Cs1 3.568124 1_455
Cl3 Cs5 3.568124 1_555
Cl3 Cs9 3.677770 1_555
Cl3 Cs8 3.677770 1_555
Cl3 Cs0 3.797426 1_555
Cl3 Cs4 3.797426 1_455
Cl4 Cs11 3.556277 1_555
Cl4 Cs8 3.556277 1_546
Cl4 Cs0 3.568124 1_545
Cl4 Cs3 3.568124 1_555
Cl4 Cs10 3.677770 1_555
Cl4 Cs6 3.677770 1_555
Cl4 Cs5 3.797426 1_545
Cl4 Cs2 3.797426 1_555
Cl5 Cs1 3.556277 1_456
Cl5 Cs3 3.556277 1_555
Cl5 Cs10 3.568124 1_555
Cl5 Cs8 3.568124 1_556
Cl5 Cs0 3.677770 1_555
Cl5 Cs5 3.677770 1_555
Cl5 Cs9 3.797426 1_556
Cl5 Cs6 3.797426 1_555
Cl6 Cs4 3.556277 1_555
Cl6 Cs0 3.556277 1_645
Cl6 Cs6 3.568124 1_655
Cl6 Cs11 3.568124 1_555
Cl6 Cs3 3.677770 1_555
Cl6 Cs2 3.677770 1_555
Cl6 Cs7 3.797426 1_555
Cl6 Cs10 3.797426 1_655
Cl7 Cs5 3.556277 1_555
Cl7 Cs2 3.556277 1_564
Cl7 Cs9 3.568124 1_555
Cl7 Cs7 3.568124 1_565
Cl7 Cs4 3.677770 1_555
Cl7 Cs1 3.677770 1_555
Cl7 Cs8 3.797426 1_555
Cl7 Cs11 3.797426 1_565
