# generated using pymatgen
data_Na6Hf2Zr2Si5SO24
_symmetry_space_group_name_H-M   'P 1'
_cell_length_a   9.16584223
_cell_length_b   9.17106427
_cell_length_c   23.00045866
_cell_angle_alpha   89.96948959
_cell_angle_beta   89.98446266
_cell_angle_gamma   119.95908548
_symmetry_Int_Tables_number   1
_chemical_formula_structural   Na6Hf2Zr2Si5SO24
_chemical_formula_sum   'Na18 Hf6 Zr6 Si15 S3 O72'
_cell_volume   1675.08944340
_cell_formula_units_Z   3
loop_
 _symmetry_equiv_pos_site_id
 _symmetry_equiv_pos_as_xyz
  1  'x, y, z'
loop_
 _atom_site_type_symbol
 _atom_site_label
 _atom_site_symmetry_multiplicity
 _atom_site_fract_x
 _atom_site_fract_y
 _atom_site_fract_z
 _atom_site_occupancy
  Na  Na0  1  0.63960027  0.00271828  0.25218514  1
  Na  Na1  1  0.36090619  0.36391399  0.24746949  1
  Na  Na2  1  0.00053880  0.63457068  0.25047561  1
  Na  Na3  1  0.63655450  0.63524508  0.74787381  1
  Na  Na4  1  0.99638597  0.36191300  0.75023519  1
  Na  Na5  1  0.36693916  0.00419099  0.75041321  1
  Na  Na6  1  0.30142683  0.33233137  0.58530656  1
  Na  Na7  1  0.02890078  0.69858022  0.58304157  1
  Na  Na8  1  0.67063765  0.96990729  0.58331593  1
  Na  Na9  1  0.03838679  0.33613591  0.08645712  1
  Na  Na10  1  0.97689802  0.66725530  0.91696301  1
  Na  Na11  1  0.33333059  0.02503327  0.41680348  1
  Na  Na12  1  0.98313498  0.98931671  0.49827318  1
  Na  Na13  1  0.02051919  0.00788573  0.00005782  1
  Na  Na14  1  0.66097229  0.31577359  0.83420031  1
  Na  Na15  1  0.68476247  0.33858586  0.33602110  1
  Na  Na16  1  0.33548980  0.66456659  0.16550491  1
  Na  Na17  1  0.33499599  0.66605547  0.66678117  1
  Hf  Hf0  1  0.98737327  0.99061441  0.35254635  1
  Hf  Hf1  1  0.99982078  0.99949268  0.64813281  1
  Hf  Hf2  1  0.66870872  0.33399974  0.68463323  1
  Hf  Hf3  1  0.67961980  0.33626284  0.48187515  1
  Hf  Hf4  1  0.33640164  0.67674695  0.51931693  1
  Hf  Hf5  1  0.32623338  0.66927341  0.81369990  1
  Zr  Zr0  1  0.01088780  0.01366111  0.85192597  1
  Zr  Zr1  1  0.00806726  0.99367377  0.14768536  1
  Zr  Zr2  1  0.66612823  0.34208824  0.18602881  1
  Zr  Zr3  1  0.65664524  0.32883533  0.97981874  1
  Zr  Zr4  1  0.31921861  0.65969622  0.01932270  1
  Zr  Zr5  1  0.32961667  0.67141918  0.31505046  1
  Si  Si0  1  0.29335578  0.00226717  0.25313492  1
  Si  Si1  1  0.70827359  0.71074524  0.24951753  1
  Si  Si2  1  0.99962106  0.28846217  0.24906079  1
  Si  Si3  1  0.29600956  0.29550486  0.74813599  1
  Si  Si4  1  0.99730989  0.70725111  0.75083596  1
  Si  Si5  1  0.70767762  0.99911199  0.74944949  1
  Si  Si6  1  0.96172853  0.33284302  0.58414136  1
  Si  Si7  1  0.37526367  0.04451607  0.58225925  1
  Si  Si8  1  0.66594399  0.62396698  0.58349819  1
  Si  Si9  1  0.95641630  0.62841249  0.08175197  1
  Si  Si10  1  0.37078052  0.33473571  0.08381081  1
  Si  Si11  1  0.03568756  0.36917452  0.91640709  1
  Si  Si12  1  0.33401923  0.96105909  0.91549499  1
  Si  Si13  1  0.63091092  0.96420825  0.41735340  1
  Si  Si14  1  0.03508758  0.66681214  0.41715344  1
  S  S0  1  0.66565920  0.04075109  0.08344001  1
  S  S1  1  0.62325584  0.66765940  0.91640751  1
  S  S2  1  0.33346646  0.37406368  0.41733101  1
  O  O0  1  0.21094051  0.03761885  0.31041963  1
  O  O1  1  0.83135232  0.79463510  0.30593838  1
  O  O2  1  0.96851641  0.16427841  0.30419458  1
  O  O3  1  0.20860454  0.17039399  0.80370877  1
  O  O4  1  0.96332525  0.79033677  0.80808322  1
  O  O5  1  0.83314016  0.03425566  0.80413807  1
  O  O6  1  0.79068089  0.96595268  0.69107631  1
  O  O7  1  0.17587662  0.21225840  0.69084524  1
  O  O8  1  0.03244241  0.82710248  0.69347442  1
  O  O9  1  0.79206918  0.83359785  0.19375980  1
  O  O10  1  0.03251488  0.20929322  0.19012685  1
  O  O11  1  0.16961430  0.96405314  0.19706323  1
  O  O12  1  0.88048751  0.37033625  0.64185849  1
  O  O13  1  0.49472900  0.12868159  0.63957559  1
  O  O14  1  0.63218407  0.50884768  0.64213996  1
  O  O15  1  0.87192597  0.50781118  0.13967316  1
  O  O16  1  0.64048438  0.11583837  0.13733886  1
  O  O17  1  0.47986991  0.35360989  0.14308599  1
  O  O18  1  0.46737350  0.30826090  0.02860983  1
  O  O19  1  0.84534606  0.53174430  0.02424185  1
  O  O20  1  0.69058432  0.15015307  0.03250125  1
  O  O21  1  0.46026434  0.16245122  0.52515404  1
  O  O22  1  0.69883770  0.53120885  0.52900487  1
  O  O23  1  0.83544590  0.29675673  0.52904402  1
  O  O24  1  0.54144937  0.68691079  0.96769149  1
  O  O25  1  0.15168599  0.45995452  0.97451917  1
  O  O26  1  0.31086035  0.83847738  0.97085942  1
  O  O27  1  0.53758147  0.84677700  0.47494388  1
  O  O28  1  0.31267846  0.45665172  0.46971218  1
  O  O29  1  0.15701317  0.69194166  0.47380054  1
  O  O30  1  0.12457023  0.64115511  0.35877272  1
  O  O31  1  0.51154990  0.87148602  0.35991117  1
  O  O32  1  0.35514026  0.47443600  0.36446617  1
  O  O33  1  0.13144937  0.49046281  0.85945750  1
  O  O34  1  0.35852071  0.87276807  0.85649916  1
  O  O35  1  0.52345697  0.64566076  0.86242713  1
  O  O36  1  0.03670478  0.84724172  0.41243509  1
  O  O37  1  0.81827802  0.98622116  0.41206777  1
  O  O38  1  0.18157261  0.20370505  0.41330815  1
  O  O39  1  0.01465959  0.18260186  0.91232322  1
  O  O40  1  0.15480633  0.96181605  0.91216152  1
  O  O41  1  0.79460564  0.81609008  0.91193565  1
  O  O42  1  0.97891708  0.16412025  0.58951337  1
  O  O43  1  0.18696089  0.02188280  0.58919000  1
  O  O44  1  0.83378799  0.81196090  0.58919013  1
  O  O45  1  0.97373193  0.81319636  0.08669932  1
  O  O46  1  0.82290512  0.03250559  0.08745355  1
  O  O47  1  0.17740883  0.17349265  0.08691399  1
  O  O48  1  0.68570055  0.16576424  0.74356125  1
  O  O49  1  0.48204508  0.31296590  0.74276503  1
  O  O50  1  0.83207092  0.51930451  0.74375033  1
  O  O51  1  0.69150595  0.52357159  0.24410565  1
  O  O52  1  0.83092929  0.30792609  0.24403493  1
  O  O53  1  0.48159713  0.16561905  0.24468722  1
  O  O54  1  0.64222383  0.51444061  0.92012436  1
  O  O55  1  0.85573419  0.36773282  0.92123074  1
  O  O56  1  0.49940421  0.14815669  0.92114608  1
  O  O57  1  0.63060085  0.14371618  0.42221053  1
  O  O58  1  0.48438492  0.35405162  0.42197801  1
  O  O59  1  0.84807888  0.50174230  0.42256707  1
  O  O60  1  0.35510624  0.50542601  0.07872538  1
  O  O61  1  0.14336560  0.64073226  0.07832482  1
  O  O62  1  0.51814715  0.87193051  0.07693064  1
  O  O63  1  0.35610095  0.85528605  0.57679805  1
  O  O64  1  0.49612920  0.64067463  0.57591167  1
  O  O65  1  0.14905708  0.49909381  0.57558821  1
  O  O66  1  0.31207470  0.83276856  0.25666650  1
  O  O67  1  0.51855964  0.68291869  0.25731667  1
  O  O68  1  0.16804411  0.47556370  0.25686989  1
  O  O69  1  0.31659359  0.48268087  0.75678594  1
  O  O70  1  0.16768977  0.68857126  0.75591669  1
  O  O71  1  0.52171600  0.82904694  0.75676286  1
loop_
_geom_bond_atom_site_label_1
_geom_bond_atom_site_label_2
_geom_bond_distance
_geom_bond_site_symmetry_2
Na0 O52 2.458056 1_555
Na0 O53 2.553405 1_555
Na0 O67 2.568348 1_545
Na0 O66 2.603576 1_545
Na0 O31 2.747672 1_545
Na0 O16 2.835951 1_555
Na0 O2 2.873632 1_555
Na0 O9 2.886272 1_545
Na1 O68 2.455198 1_555
Na1 O67 2.545021 1_555
Na1 O53 2.558209 1_555
Na1 O51 2.626883 1_555
Na1 O17 2.657784 1_555
Na1 O32 2.885806 1_555
Na1 O10 2.924295 1_555
Na1 O0 2.970982 1_555
Na2 O51 2.490290 1_455
Na2 O66 2.508906 1_555
Na2 O68 2.596426 1_555
Na2 O52 2.600403 1_455
Na2 O30 2.726483 1_555
Na2 O15 2.805720 1_455
Na2 O11 2.891293 1_555
Na2 O1 2.908875 1_455
Na3 O71 2.485476 1_555
Na3 O50 2.500858 1_555
Na3 O69 2.549818 1_555
Na3 O49 2.564198 1_555
Na3 O14 2.686316 1_555
Na3 O35 2.850172 1_555
Na3 O6 2.935387 1_555
Na3 O4 2.942986 1_555
Na4 O48 2.500622 1_555
Na4 O50 2.558367 1_555
Na4 O69 2.572397 1_655
Na4 O70 2.599956 1_655
Na4 O12 2.726037 1_555
Na4 O33 2.789370 1_655
Na4 O5 2.882720 1_555
Na4 O7 2.951659 1_655
Na5 O49 2.485663 1_555
Na5 O48 2.536228 1_555
Na5 O70 2.539604 1_545
Na5 O71 2.624836 1_545
Na5 O34 2.704862 1_545
Na5 O13 2.798948 1_555
Na5 O3 2.853522 1_555
Na5 O8 2.963784 1_545
Na6 O64 2.487364 1_555
Na6 O43 2.496236 1_555
Na6 O65 2.544127 1_555
Na6 O42 2.563717 1_455
Na6 O7 2.675696 1_555
Na6 O28 2.873773 1_555
Na6 O14 2.936512 1_555
Na6 O21 2.954267 1_555
Na7 O44 2.481293 1_455
Na7 O65 2.569443 1_555
Na7 O43 2.573044 1_565
Na7 O63 2.602919 1_555
Na7 O29 2.786697 1_555
Na7 O8 2.794102 1_555
Na7 O22 2.901619 1_455
Na7 O12 2.940657 1_455
Na8 O42 2.480096 1_565
Na8 O63 2.532331 1_555
Na8 O44 2.552674 1_555
Na8 O64 2.623239 1_555
Na8 O6 2.719625 1_555
Na8 O27 2.757677 1_555
Na8 O23 2.880616 1_565
Na8 O13 2.956380 1_565
Na9 O47 2.397305 1_555
Na9 O61 2.465579 1_555
Na9 O46 2.482419 1_455
Na9 O60 2.523371 1_555
Na9 O10 2.641245 1_555
Na9 O25 2.795399 1_554
Na9 O15 2.950465 1_455
Na9 O20 3.030801 1_455
Na10 O40 2.359857 1_655
Na10 O55 2.396130 1_555
Na10 O41 2.635547 1_555
Na10 O54 2.661837 1_555
Na10 O19 2.754131 1_556
Na10 O4 2.774616 1_555
Na10 O26 2.928459 1_655
Na10 O33 2.946228 1_655
Na11 O36 2.373483 1_545
Na11 O57 2.379626 1_555
Na11 O58 2.619919 1_555
Na11 O38 2.627309 1_555
Na11 O0 2.718363 1_555
Na11 O21 2.773625 1_555
Na11 O31 2.943129 1_545
Na11 O29 2.953988 1_545
Na12 O37 2.484810 1_555
Na12 O36 2.545186 1_655
Na12 O44 2.581347 1_555
Na12 O42 2.653480 1_565
Na12 O43 2.719894 1_665
Na12 O38 2.723106 1_665
Na13 O47 2.487772 1_555
Na13 O40 2.509894 1_544
Na13 O45 2.564014 1_445
Na13 O39 2.593258 1_554
Na13 O46 2.789164 1_455
Na13 O41 2.803239 1_444
Na14 O56 2.505348 1_555
Na14 O55 2.564013 1_555
Na14 O48 2.569907 1_555
Na14 O49 2.659494 1_555
Na14 O50 2.709623 1_555
Na14 O54 2.751594 1_555
Na15 O59 2.491972 1_555
Na15 O57 2.545559 1_555
Na15 O52 2.593377 1_555
Na15 O51 2.691240 1_555
Na15 O53 2.729914 1_555
Na15 O58 2.749646 1_555
Na16 O60 2.532060 1_555
Na16 O61 2.605287 1_555
Na16 O67 2.650195 1_555
Na16 O68 2.667106 1_555
Na16 O66 2.675052 1_555
Na16 O62 2.717359 1_555
Na17 O69 2.618208 1_555
Na17 O71 2.626199 1_555
Na17 O70 2.629150 1_555
Na17 O64 2.635517 1_555
Na17 O63 2.644488 1_555
Na17 O65 2.654731 1_555
Hf0 O1 1.964805 1_555
Hf0 O2 2.019026 1_565
Hf0 O37 2.052913 1_555
Hf0 O36 2.103093 1_655
Hf0 O0 2.107135 1_665
Hf0 O38 2.338947 1_665
Hf1 O8 2.036448 1_655
Hf1 O6 2.038286 1_555
Hf1 O7 2.057833 1_665
Hf1 O42 2.102611 1_565
Hf1 O43 2.114005 1_665
Hf1 O44 2.121638 1_555
Hf2 O13 2.041218 1_555
Hf2 O14 2.042876 1_555
Hf2 O12 2.049274 1_555
Hf2 O49 2.102633 1_555
Hf2 O50 2.107381 1_555
Hf2 O48 2.116533 1_555
Hf3 O23 1.966096 1_555
Hf3 O22 2.022418 1_555
Hf3 O59 2.050456 1_555
Hf3 O21 2.090579 1_555
Hf3 O57 2.100920 1_555
Hf3 O58 2.327988 1_555
Hf4 O27 1.999726 1_555
Hf4 O29 2.012109 1_555
Hf4 O63 2.041749 1_555
Hf4 O64 2.105136 1_555
Hf4 O65 2.116741 1_555
Hf4 O28 2.233293 1_555
Hf5 O34 1.997514 1_555
Hf5 O33 2.014287 1_555
Hf5 O70 2.041344 1_555
Hf5 O71 2.108783 1_555
Hf5 O69 2.121610 1_555
Hf5 O35 2.227700 1_555
O0 Si0 1.629809 1_555
O1 Si1 1.638173 1_555
O2 Si2 1.631080 1_555
O3 Si3 1.634606 1_555
O3 Zr0 1.993936 1_555
O4 Si4 1.627665 1_555
O4 Zr0 2.124240 1_665
O5 Si5 1.624673 1_545
O5 Zr0 2.050900 1_655
O6 Si5 1.644642 1_555
O7 Si3 1.641323 1_555
O8 Si4 1.642325 1_455
O9 Si1 1.624088 1_555
O9 Zr1 2.071761 1_655
O10 Si2 1.635523 1_455
O10 Zr1 2.114966 1_545
O11 Si0 1.636079 1_565
O11 Zr1 1.989594 1_555
O12 Si6 1.640341 1_555
O13 Si7 1.640260 1_555
O14 Si8 1.643651 1_555
O15 Si9 1.655368 1_555
O15 Zr2 2.034385 1_555
O16 S0 1.491230 1_555
O16 Zr2 2.265025 1_555
O17 Si10 1.648218 1_555
O17 Zr2 2.020466 1_555
O18 Si10 1.633779 1_555
O18 Zr3 1.994093 1_554
O19 Si9 1.634820 1_555
O19 Zr3 2.070454 1_554
O20 S0 1.483650 1_555
O20 Zr3 2.181199 1_554
O21 Si7 1.630425 1_555
O22 Si8 1.625611 1_555
O23 Si6 1.635209 1_555
O24 S1 1.454897 1_555
O24 Zr4 2.261029 1_556
O25 Si11 1.651653 1_555
O25 Zr4 1.992234 1_556
O26 Si12 1.640259 1_555
O26 Zr4 2.015010 1_556
O27 Si13 1.650440 1_555
O28 S2 1.485429 1_555
O29 Si14 1.656345 1_555
O30 Si14 1.650342 1_555
O30 Zr5 2.024412 1_555
O31 Si13 1.654814 1_555
O31 Zr5 2.039377 1_555
O32 S2 1.476925 1_555
O32 Zr5 2.242817 1_555
O33 Si11 1.657157 1_555
O34 Si12 1.652263 1_555
O35 S1 1.495166 1_555
O36 Si14 1.650892 1_555
O37 Si13 1.630492 1_555
O38 S2 1.488492 1_555
O39 Si11 1.626201 1_555
O39 Zr0 2.068896 1_555
O40 Si12 1.647920 1_555
O40 Zr0 2.124236 1_565
O41 S1 1.481470 1_555
O41 Zr0 2.350839 1_665
O42 Si6 1.636375 1_555
O43 Si7 1.639943 1_555
O44 Si8 1.645497 1_555
O45 Si9 1.625303 1_555
O45 Zr1 2.070911 1_655
O46 S0 1.483402 1_555
O46 Zr1 2.351773 1_645
O47 Si10 1.647840 1_555
O47 Zr1 2.126596 1_545
O48 Si5 1.643821 1_545
O49 Si3 1.635744 1_555
O50 Si4 1.638458 1_555
O51 Si1 1.650003 1_555
O51 Zr2 2.055366 1_555
O52 Si2 1.646726 1_555
O52 Zr2 2.152490 1_555
O53 Si0 1.636136 1_555
O53 Zr2 2.136062 1_555
O54 S1 1.501980 1_555
O54 Zr3 2.241073 1_555
O55 Si11 1.646573 1_655
O55 Zr3 2.149675 1_555
O56 Si12 1.631425 1_545
O56 Zr3 2.064524 1_555
O57 Si13 1.651542 1_545
O58 S2 1.487359 1_555
O59 Si14 1.628924 1_655
O60 Si10 1.645986 1_555
O60 Zr4 2.107052 1_555
O61 Si9 1.661859 1_455
O61 Zr4 2.046586 1_555
O62 S0 1.468747 1_565
O62 Zr4 2.308296 1_555
O63 Si7 1.659574 1_565
O64 Si8 1.647703 1_555
O65 Si6 1.642062 1_455
O66 Si0 1.648850 1_565
O66 Zr5 2.062619 1_555
O67 Si1 1.636339 1_555
O67 Zr5 2.142392 1_555
O68 Si2 1.647603 1_455
O68 Zr5 2.134741 1_555
O69 Si3 1.642808 1_555
O70 Si4 1.658046 1_455
O71 Si5 1.646385 1_555
