# generated using pymatgen
data_PrFeO3
_symmetry_space_group_name_H-M   'P 1'
_cell_length_a   5.49878697
_cell_length_b   5.63563068
_cell_length_c   7.82389895
_cell_angle_alpha   90.00000000
_cell_angle_beta   90.00000000
_cell_angle_gamma   90.00000000
_symmetry_Int_Tables_number   1
_chemical_formula_structural   PrFeO3
_chemical_formula_sum   'Pr4 Fe4 O12'
_cell_volume   242.45584163
_cell_formula_units_Z   4
loop_
 _symmetry_equiv_pos_site_id
 _symmetry_equiv_pos_as_xyz
  1  'x, y, z'
loop_
 _atom_site_type_symbol
 _atom_site_label
 _atom_site_symmetry_multiplicity
 _atom_site_fract_x
 _atom_site_fract_y
 _atom_site_fract_z
 _atom_site_occupancy
  Pr  Pr0  1  0.01156896  0.94938099  0.75000000  1
  Pr  Pr1  1  0.51156896  0.55061901  0.25000000  1
  Pr  Pr2  1  0.48843104  0.44938099  0.75000000  1
  Pr  Pr3  1  0.98843104  0.05061901  0.25000000  1
  Fe  Fe0  1  -0.00000000  0.50000000  0.50000000  1
  Fe  Fe1  1  0.50000000  0.00000000  0.50000000  1
  Fe  Fe2  1  0.50000000  0.00000000  0.00000000  1
  Fe  Fe3  1  -0.00000000  0.50000000  0.00000000  1
  O  O0  1  0.70678429  0.29341482  0.45420401  1
  O  O1  1  0.20678429  0.20658518  0.54579599  1
  O  O2  1  0.79321571  0.79341482  0.04579599  1
  O  O3  1  0.29321571  0.70658518  0.95420401  1
  O  O4  1  0.29321571  0.70658518  0.54579599  1
  O  O5  1  0.79321571  0.79341482  0.45420401  1
  O  O6  1  0.20678429  0.20658518  0.95420401  1
  O  O7  1  0.70678429  0.29341482  0.04579599  1
  O  O8  1  0.08581555  0.47815424  0.25000000  1
  O  O9  1  0.58581555  0.02184576  0.75000000  1
  O  O10  1  0.41418445  0.97815424  0.25000000  1
  O  O11  1  0.91418445  0.52184576  0.75000000  1
loop_
_geom_bond_atom_site_label_1
_geom_bond_atom_site_label_2
_geom_bond_distance
_geom_bond_site_symmetry_2
Fe0 O11 2.015854 1_455
Fe0 O8 2.015854 1_555
Fe0 O0 2.020753 1_455
Fe0 O4 2.020753 1_555
Fe0 O5 2.038532 1_455
Fe0 O1 2.038532 1_555
Fe1 O9 2.015854 1_555
Fe1 O10 2.015854 1_545
Fe1 O5 2.020753 1_545
Fe1 O1 2.020753 1_555
Fe1 O4 2.038532 1_545
Fe1 O0 2.038532 1_555
Fe2 O9 2.015854 1_554
Fe2 O10 2.015854 1_545
Fe2 O2 2.020753 1_545
Fe2 O6 2.020753 1_554
Fe2 O3 2.038532 1_544
Fe2 O7 2.038532 1_555
Fe3 O11 2.015854 1_454
Fe3 O8 2.015854 1_555
Fe3 O7 2.020753 1_455
Fe3 O3 2.020753 1_554
Fe3 O2 2.038532 1_455
Fe3 O6 2.038532 1_554
O0 Pr1 2.409547 1_555
O0 Pr3 2.612152 1_555
O0 Pr2 2.751380 1_555
O1 Pr0 2.409547 1_545
O1 Pr2 2.612152 1_555
O1 Pr3 2.751380 1_455
O2 Pr3 2.409547 1_565
O2 Pr1 2.612152 1_555
O2 Pr0 2.751380 1_654
O3 Pr2 2.409547 1_555
O3 Pr0 2.612152 1_555
O3 Pr1 2.751380 1_556
O4 Pr2 2.409547 1_555
O4 Pr0 2.612152 1_555
O4 Pr1 2.751380 1_555
O5 Pr3 2.409547 1_565
O5 Pr1 2.612152 1_555
O5 Pr0 2.751380 1_655
O6 Pr0 2.409547 1_545
O6 Pr2 2.612152 1_555
O6 Pr3 2.751380 1_456
O7 Pr1 2.409547 1_555
O7 Pr3 2.612152 1_555
O7 Pr2 2.751380 1_554
O8 Pr1 2.376480 1_555
O8 Pr3 2.468221 1_455
O9 Pr0 2.376480 1_645
O9 Pr2 2.468221 1_555
O10 Pr3 2.376480 1_465
O10 Pr1 2.468221 1_555
O11 Pr2 2.376480 1_555
O11 Pr0 2.468221 1_655
