# generated using pymatgen
data_MgTiZn(BiO3)2
_symmetry_space_group_name_H-M   'P 1'
_cell_length_a   3.78817076
_cell_length_b   3.78817076
_cell_length_c   12.13866058
_cell_angle_alpha   88.59585414
_cell_angle_beta   88.59585414
_cell_angle_gamma   89.38816885
_symmetry_Int_Tables_number   1
_chemical_formula_structural   MgTiZn(BiO3)2
_chemical_formula_sum   'Mg1 Ti1 Zn1 Bi2 O6'
_cell_volume   174.07921621
_cell_formula_units_Z   1
loop_
 _symmetry_equiv_pos_site_id
 _symmetry_equiv_pos_as_xyz
  1  'x, y, z'
loop_
 _atom_site_type_symbol
 _atom_site_label
 _atom_site_symmetry_multiplicity
 _atom_site_fract_x
 _atom_site_fract_y
 _atom_site_fract_z
 _atom_site_occupancy
  Mg  Mg0  1  0.00271678  0.00271678  0.28769351  1
  Ti  Ti0  1  0.51217301  0.51217301  0.16664438  1
  Zn  Zn0  1  0.52489969  0.52489969  0.73331754  1
  Bi  Bi0  1  0.99030807  0.99030807  0.53904031  1
  Bi  Bi1  1  0.01180136  0.01180136  0.90115388  1
  O  O0  1  0.02171853  0.52161406  0.80363606  1
  O  O1  1  0.52161406  0.02171853  0.80363606  1
  O  O2  1  0.00778382  0.50801340  0.22123898  1
  O  O3  1  0.50801340  0.00778382  0.22123898  1
  O  O4  1  0.57170067  0.57170067  0.56622479  1
  O  O5  1  0.52384362  0.52384362  0.02592553  1
loop_
_geom_bond_atom_site_label_1
_geom_bond_atom_site_label_2
_geom_bond_distance
_geom_bond_site_symmetry_2
Mg0 O3 2.058057 1_455
Mg0 O2 2.058057 1_545
Mg0 O2 2.058981 1_555
Mg0 O3 2.058981 1_555
Bi0 O4 2.267278 1_555
Bi0 O4 2.722045 1_655
Bi0 O4 2.722045 1_565
Bi0 Mg0 3.049441 1_665
Bi1 O0 2.225944 1_545
Bi1 O1 2.225944 1_455
Bi1 O1 2.240475 1_555
Bi1 O0 2.240475 1_555
O0 Zn0 2.069382 1_555
O0 Zn0 2.085307 1_455
O1 Zn0 2.069382 1_555
O1 Zn0 2.085307 1_545
O2 Ti0 2.006018 1_455
O2 Ti0 2.007068 1_555
O3 Ti0 2.006018 1_545
O3 Ti0 2.007068 1_555
O4 Zn0 2.035244 1_555
O5 Ti0 1.707128 1_555
