# generated using pymatgen
data_Na14Si11Sn8SO48
_symmetry_space_group_name_H-M   'P 1'
_cell_length_a   18.16643807
_cell_length_b   9.08670199
_cell_length_c   22.58372972
_cell_angle_alpha   90.15095592
_cell_angle_beta   90.10244168
_cell_angle_gamma   120.01476908
_symmetry_Int_Tables_number   1
_chemical_formula_structural   Na14Si11Sn8SO48
_chemical_formula_sum   'Na42 Si33 Sn24 S3 O144'
_cell_volume   3227.99916317
_cell_formula_units_Z   3
loop_
 _symmetry_equiv_pos_site_id
 _symmetry_equiv_pos_as_xyz
  1  'x, y, z'
loop_
 _atom_site_type_symbol
 _atom_site_label
 _atom_site_symmetry_multiplicity
 _atom_site_fract_x
 _atom_site_fract_y
 _atom_site_fract_z
 _atom_site_occupancy
  Na  Na0  1  0.32070206  0.99997232  0.24996372  1
  Na  Na1  1  0.82060788  0.99993398  0.25000547  1
  Na  Na2  1  0.32022202  0.64112917  0.75041943  1
  Na  Na3  1  0.81701825  0.63305013  0.74964371  1
  Na  Na4  1  0.50079188  0.36503502  0.75061616  1
  Na  Na5  1  0.68500050  0.00175858  0.74957735  1
  Na  Na6  1  0.15036727  0.33498944  0.58039781  1
  Na  Na7  1  0.65023650  0.33296889  0.58387489  1
  Na  Na8  1  0.01627678  0.69622869  0.58388097  1
  Na  Na9  1  0.51783888  0.70204464  0.58299292  1
  Na  Na10  1  0.33300880  0.96485864  0.58360639  1
  Na  Na11  1  0.83226782  0.96687849  0.58340959  1
  Na  Na12  1  0.15096034  0.96741189  0.08101491  1
  Na  Na13  1  0.65095370  0.96773839  0.08083577  1
  Na  Na14  1  0.33224766  0.69860876  0.08354070  1
  Na  Na15  1  0.83216929  0.69831294  0.08364238  1
  Na  Na16  1  0.01720402  0.33656189  0.08380737  1
  Na  Na17  1  0.51723272  0.33628944  0.08386932  1
  Na  Na18  1  0.48282467  0.66689430  0.91656612  1
  Na  Na19  1  0.98303130  0.66387805  0.91647605  1
  Na  Na20  1  0.34981167  0.03385593  0.91631506  1
  Na  Na21  1  0.84925291  0.03485405  0.91637805  1
  Na  Na22  1  0.16731291  0.30297277  0.91976562  1
  Na  Na23  1  0.66656309  0.29826398  0.91637121  1
  Na  Na24  1  0.48319627  0.30168955  0.41632017  1
  Na  Na25  1  0.98284055  0.30140663  0.41651340  1
  Na  Na26  1  0.16705764  0.03215074  0.41900951  1
  Na  Na27  1  0.66718954  0.03271512  0.41932299  1
  Na  Na28  1  0.34906921  0.66369831  0.41594131  1
  Na  Na29  1  0.84884025  0.66298068  0.41623008  1
  Na  Na30  1  0.99948625  0.99904901  0.49989226  1
  Na  Na31  1  0.50024482  0.99960393  0.50072110  1
  Na  Na32  1  0.99995224  0.00069376  0.00025443  1
  Na  Na33  1  0.50008513  0.00058479  0.99920920  1
  Na  Na34  1  0.33331812  0.32578425  0.83421292  1
  Na  Na35  1  0.83790295  0.33465357  0.83108747  1
  Na  Na36  1  0.33812680  0.34891812  0.33172367  1
  Na  Na37  1  0.83795592  0.34879887  0.33193066  1
  Na  Na38  1  0.16367708  0.65103570  0.16812315  1
  Na  Na39  1  0.66370803  0.65106053  0.16820935  1
  Na  Na40  1  0.16311999  0.67591029  0.66793015  1
  Na  Na41  1  0.66722194  0.66727197  0.66675057  1
  Si  Si0  1  0.35172669  0.70210230  0.25019800  1
  Si  Si1  1  0.85168078  0.70200614  0.25018329  1
  Si  Si2  1  0.00077183  0.29781816  0.24972936  1
  Si  Si3  1  0.50078546  0.29782776  0.24975431  1
  Si  Si4  1  0.64675938  0.29295443  0.75012360  1
  Si  Si5  1  0.00252799  0.70699797  0.74960099  1
  Si  Si6  1  0.49861827  0.70477418  0.74977310  1
  Si  Si7  1  0.35062661  0.99821584  0.74987180  1
  Si  Si8  1  0.85446521  0.00337809  0.75034351  1
  Si  Si9  1  0.48110222  0.33336461  0.58245901  1
  Si  Si10  1  0.98026166  0.33353415  0.58350971  1
  Si  Si11  1  0.18689009  0.04144432  0.58318841  1
  Si  Si12  1  0.68725883  0.04148994  0.58381545  1
  Si  Si13  1  0.33274734  0.62419790  0.58439784  1
  Si  Si14  1  0.83216200  0.62264010  0.58308251  1
  Si  Si15  1  0.48161925  0.62952902  0.08251048  1
  Si  Si16  1  0.98163869  0.62929832  0.08235018  1
  Si  Si17  1  0.33197517  0.04316357  0.08402681  1
  Si  Si18  1  0.83201281  0.04306384  0.08419165  1
  Si  Si19  1  0.18756155  0.33217286  0.08409013  1
  Si  Si20  1  0.68765723  0.33194430  0.08400461  1
  Si  Si21  1  0.31160144  0.66626938  0.91514646  1
  Si  Si22  1  0.81219531  0.66461160  0.91740127  1
  Si  Si23  1  0.02134422  0.37504392  0.91608389  1
  Si  Si24  1  0.52016938  0.37414319  0.91644132  1
  Si  Si25  1  0.16729766  0.96355712  0.91794865  1
  Si  Si26  1  0.66640144  0.95957032  0.91662522  1
  Si  Si27  1  0.31042850  0.95666972  0.41599106  1
  Si  Si28  1  0.81056935  0.95690791  0.41580462  1
  Si  Si29  1  0.16690279  0.37071118  0.41759556  1
  Si  Si30  1  0.66708354  0.37068432  0.41768934  1
  Si  Si31  1  0.02156976  0.66774649  0.41592143  1
  Si  Si32  1  0.52154024  0.66778878  0.41584880  1
  Sn  Sn0  1  0.99476633  0.99670516  0.35222566  1
  Sn  Sn1  1  0.49484954  0.99688991  0.35233001  1
  Sn  Sn2  1  0.99555990  0.99279254  0.85291919  1
  Sn  Sn3  1  0.49907213  0.99988273  0.85116779  1
  Sn  Sn4  1  0.99676387  0.98966937  0.64725677  1
  Sn  Sn5  1  0.49951958  0.99977538  0.64872441  1
  Sn  Sn6  1  0.99645669  0.00315695  0.14778502  1
  Sn  Sn7  1  0.49648384  0.00328323  0.14774819  1
  Sn  Sn8  1  0.33631846  0.33008144  0.68309178  1
  Sn  Sn9  1  0.83664066  0.33583047  0.68683521  1
  Sn  Sn10  1  0.34009485  0.34786567  0.18483475  1
  Sn  Sn11  1  0.84014072  0.34805649  0.18482419  1
  Sn  Sn12  1  0.33354278  0.33661405  0.98204981  1
  Sn  Sn13  1  0.83329249  0.33436885  0.98174459  1
  Sn  Sn14  1  0.33347779  0.33273192  0.48154209  1
  Sn  Sn15  1  0.83414309  0.33168527  0.48183443  1
  Sn  Sn16  1  0.16671088  0.66665384  0.01809090  1
  Sn  Sn17  1  0.66682627  0.66657655  0.01857047  1
  Sn  Sn18  1  0.16578402  0.66525479  0.51828795  1
  Sn  Sn19  1  0.66605562  0.66570377  0.51797556  1
  Sn  Sn20  1  0.16601182  0.65212079  0.31514035  1
  Sn  Sn21  1  0.66602941  0.65200301  0.31518441  1
  Sn  Sn22  1  0.16540224  0.67891973  0.81569891  1
  Sn  Sn23  1  0.66716529  0.66726142  0.81449371  1
  S  S0  1  0.14641328  0.00022752  0.25006225  1
  S  S1  1  0.64643031  0.00022738  0.25005654  1
  S  S2  1  0.14658857  0.29210398  0.75001450  1
  O  O0  1  0.10699536  0.02492081  0.30395778  1
  O  O1  1  0.60696760  0.02488216  0.30394174  1
  O  O2  1  0.41013278  0.78563663  0.30980119  1
  O  O3  1  0.91015878  0.78552831  0.30974910  1
  O  O4  1  0.48217275  0.17653910  0.30863258  1
  O  O5  1  0.98229017  0.17664726  0.30862177  1
  O  O6  1  0.10780981  0.19019200  0.80381270  1
  O  O7  1  0.60647143  0.17252961  0.80868711  1
  O  O8  1  0.47823544  0.78382326  0.80858466  1
  O  O9  1  0.98374768  0.79030473  0.80886493  1
  O  O10  1  0.41179762  0.04143376  0.80869579  1
  O  O11  1  0.91176762  0.03536832  0.80996607  1
  O  O12  1  0.39174409  0.96035512  0.69089627  1
  O  O13  1  0.89473611  0.96263729  0.69160457  1
  O  O14  1  0.09530192  0.21407185  0.69593076  1
  O  O15  1  0.58595943  0.21445713  0.69134166  1
  O  O16  1  0.01896742  0.82333953  0.69016682  1
  O  O17  1  0.51884837  0.82406585  0.69111089  1
  O  O18  1  0.39380669  0.82383090  0.19142639  1
  O  O19  1  0.89377898  0.82380837  0.19141736  1
  O  O20  1  0.01723242  0.21418104  0.19021480  1
  O  O21  1  0.51717590  0.21416633  0.19023141  1
  O  O22  1  0.09457992  0.97523857  0.19602057  1
  O  O23  1  0.59455136  0.97518635  0.19600206  1
  O  O24  1  0.44397715  0.37831863  0.64168536  1
  O  O25  1  0.93885967  0.37879110  0.63909983  1
  O  O26  1  0.24955198  0.12461232  0.64012594  1
  O  O27  1  0.74784203  0.12238390  0.64215556  1
  O  O28  1  0.31175781  0.50287116  0.64325968  1
  O  O29  1  0.81271078  0.50504454  0.64183313  1
  O  O30  1  0.44280716  0.50229129  0.13845744  1
  O  O31  1  0.94290724  0.50252562  0.13847024  1
  O  O32  1  0.31181022  0.12268819  0.14295496  1
  O  O33  1  0.81196159  0.12301026  0.14300105  1
  O  O34  1  0.25114365  0.37304848  0.14008598  1
  O  O35  1  0.75112265  0.37318723  0.14010597  1
  O  O36  1  0.22408468  0.29019504  0.02367448  1
  O  O37  1  0.72429545  0.28981941  0.02367641  1
  O  O38  1  0.42119222  0.55611284  0.02328403  1
  O  O39  1  0.92107916  0.55523564  0.02322878  1
  O  O40  1  0.35303798  0.16244912  0.02513365  1
  O  O41  1  0.85321617  0.16188464  0.02516264  1
  O  O42  1  0.22451364  0.15895732  0.52377829  1
  O  O43  1  0.72598770  0.15917026  0.52447641  1
  O  O44  1  0.35341710  0.54537057  0.52559348  1
  O  O45  1  0.85349832  0.54595198  0.52404464  1
  O  O46  1  0.41981651  0.29116143  0.52425128  1
  O  O47  1  0.92144730  0.28697713  0.52334753  1
  O  O48  1  0.27301961  0.70784526  0.97452798  1
  O  O49  1  0.77358010  0.70736672  0.97609570  1
  O  O50  1  0.07954540  0.44854210  0.97634301  1
  O  O51  1  0.57996545  0.45209249  0.97552285  1
  O  O52  1  0.14417269  0.84267854  0.97665460  1
  O  O53  1  0.64629964  0.84041991  0.97546791  1
  O  O54  1  0.27212404  0.83752826  0.47498664  1
  O  O55  1  0.77234835  0.83796972  0.47475971  1
  O  O56  1  0.14397972  0.44488814  0.47680099  1
  O  O57  1  0.64361678  0.44505636  0.47657975  1
  O  O58  1  0.07935013  0.71049682  0.47641654  1
  O  O59  1  0.57917965  0.71007257  0.47632651  1
  O  O60  1  0.06454217  0.62685005  0.35995297  1
  O  O61  1  0.56436798  0.62658948  0.35989623  1
  O  O62  1  0.25028264  0.87716268  0.35706665  1
  O  O63  1  0.75036571  0.87729748  0.35691523  1
  O  O64  1  0.19145898  0.49754830  0.36151769  1
  O  O65  1  0.69144543  0.49734831  0.36151174  1
  O  O66  1  0.06385911  0.50110846  0.85997490  1
  O  O67  1  0.55976011  0.49414705  0.85786351  1
  O  O68  1  0.19166096  0.88602461  0.86143882  1
  O  O69  1  0.68695543  0.88033651  0.85784532  1
  O  O70  1  0.25029856  0.62324746  0.85656166  1
  O  O71  1  0.75325042  0.62544509  0.85827380  1
  O  O72  1  0.01368707  0.84060896  0.40987455  1
  O  O73  1  0.51358158  0.84049986  0.40986879  1
  O  O74  1  0.40558075  0.97589055  0.41297220  1
  O  O75  1  0.90575104  0.97612542  0.41290627  1
  O  O76  1  0.08208504  0.18109112  0.40951405  1
  O  O77  1  0.58203801  0.18112461  0.40947289  1
  O  O78  1  0.01393472  0.18697988  0.90998775  1
  O  O79  1  0.51124214  0.18518629  0.91186122  1
  O  O80  1  0.08260288  0.98378783  0.91005318  1
  O  O81  1  0.58042414  0.97612675  0.91182005  1
  O  O82  1  0.40605309  0.83746671  0.91105196  1
  O  O83  1  0.90693068  0.83628291  0.91406757  1
  O  O84  1  0.48832260  0.16092799  0.58743697  1
  O  O85  1  0.99162528  0.16527962  0.59113234  1
  O  O86  1  0.09326337  0.02782993  0.58940437  1
  O  O87  1  0.59245117  0.02296606  0.58822666  1
  O  O88  1  0.41845670  0.81261696  0.58891926  1
  O  O89  1  0.91791290  0.81306082  0.58611166  1
  O  O90  1  0.49160829  0.81894658  0.09065001  1
  O  O91  1  0.99163879  0.81889141  0.09059612  1
  O  O92  1  0.41750716  0.02377210  0.08710742  1
  O  O93  1  0.91760351  0.02382415  0.08707984  1
  O  O94  1  0.09330023  0.15905617  0.08997658  1
  O  O95  1  0.59332829  0.15905569  0.09002309  1
  O  O96  1  0.34598045  0.17461351  0.74523497  1
  O  O97  1  0.83967717  0.16566623  0.74633662  1
  O  O98  1  0.23313872  0.31244875  0.74597173  1
  O  O99  1  0.74059610  0.31054946  0.74541474  1
  O  O100  1  0.41057168  0.51660234  0.74517015  1
  O  O101  1  0.91198190  0.52697901  0.74563947  1
  O  O102  1  0.34080414  0.51277707  0.24641957  1
  O  O103  1  0.84082887  0.51277743  0.24642466  1
  O  O104  1  0.40848537  0.29372000  0.24552681  1
  O  O105  1  0.90849852  0.29368225  0.24551585  1
  O  O106  1  0.23248369  0.15293019  0.24607054  1
  O  O107  1  0.73246308  0.15287349  0.24604747  1
  O  O108  1  0.32071797  0.49562693  0.92048244  1
  O  O109  1  0.82153976  0.49454228  0.92145670  1
  O  O110  1  0.42579869  0.35688751  0.92137334  1
  O  O111  1  0.92655956  0.35527302  0.92133180  1
  O  O112  1  0.25234174  0.15219449  0.92238951  1
  O  O113  1  0.75238953  0.14755739  0.92141994  1
  O  O114  1  0.32070393  0.14644199  0.42092434  1
  O  O115  1  0.82082662  0.14656912  0.42064291  1
  O  O116  1  0.25214095  0.35288483  0.42232945  1
  O  O117  1  0.75211248  0.35232434  0.42252493  1
  O  O118  1  0.42657833  0.49765850  0.42103783  1
  O  O119  1  0.92681480  0.49737740  0.42103707  1
  O  O120  1  0.17800887  0.50249906  0.07897125  1
  O  O121  1  0.67773733  0.50198081  0.07905218  1
  O  O122  1  0.07575755  0.64706423  0.07758007  1
  O  O123  1  0.57568650  0.64734285  0.07769328  1
  O  O124  1  0.24741603  0.85317324  0.07888627  1
  O  O125  1  0.74735331  0.85330528  0.07929437  1
  O  O126  1  0.17760758  0.85255824  0.57867583  1
  O  O127  1  0.67850585  0.85250172  0.57881258  1
  O  O128  1  0.24743630  0.64231801  0.57904781  1
  O  O129  1  0.74738432  0.64283990  0.57839895  1
  O  O130  1  0.07464433  0.50431754  0.57852135  1
  O  O131  1  0.57473467  0.50493795  0.57807887  1
  O  O132  1  0.15612899  0.84746420  0.25409927  1
  O  O133  1  0.65611254  0.84742529  0.25409018  1
  O  O134  1  0.26147719  0.70610056  0.25442790  1
  O  O135  1  0.76146303  0.70606275  0.25441300  1
  O  O136  1  0.08456250  0.48713422  0.25342938  1
  O  O137  1  0.58453038  0.48713198  0.25343946  1
  O  O138  1  0.15672677  0.46546146  0.75414783  1
  O  O139  1  0.65463084  0.48098475  0.75472312  1
  O  O140  1  0.08636183  0.68514065  0.75348677  1
  O  O141  1  0.58384029  0.68648381  0.75438864  1
  O  O142  1  0.26034572  0.81672908  0.75474276  1
  O  O143  1  0.76054819  0.82756150  0.75434963  1
loop_
_geom_bond_atom_site_label_1
_geom_bond_atom_site_label_2
_geom_bond_distance
_geom_bond_site_symmetry_2
Na0 O104 2.328356 1_565
Na0 O134 2.329352 1_555
Na0 O132 2.593107 1_555
Na0 O106 2.595468 1_565
Na0 O32 2.702358 1_565
Na0 O62 2.707291 1_555
Na0 O18 2.862657 1_555
Na0 O4 2.863685 1_565
Na1 O105 2.328635 1_565
Na1 O135 2.329450 1_555
Na1 O133 2.591811 1_555
Na1 O107 2.594194 1_565
Na1 O63 2.702242 1_555
Na1 O33 2.702550 1_565
Na1 O19 2.863971 1_555
Na1 O5 2.866060 1_565
Na2 O142 2.339804 1_555
Na2 O100 2.417943 1_555
Na2 O138 2.575883 1_555
Na2 O98 2.589136 1_555
Na2 O70 2.681873 1_555
Na2 O28 2.692223 1_555
Na2 O8 2.810804 1_555
Na2 O12 2.857541 1_555
Na3 O101 2.361548 1_555
Na3 O143 2.449695 1_555
Na3 O99 2.540079 1_555
Na3 O139 2.559093 1_555
Na3 O29 2.679637 1_555
Na3 O71 2.701159 1_555
Na3 O13 2.911644 1_555
Na3 O9 2.941113 1_555
Na4 O139 2.445771 1_555
Na4 O96 2.459145 1_555
Na4 O141 2.530737 1_555
Na4 O100 2.618521 1_555
Na4 O67 2.666209 1_555
Na4 O24 2.692374 1_555
Na4 O15 2.858939 1_555
Na4 O10 2.872706 1_555
Na5 O97 2.435915 1_555
Na5 O99 2.463432 1_555
Na5 O141 2.516234 1_545
Na5 O143 2.564063 1_545
Na5 O27 2.676216 1_555
Na5 O69 2.692616 1_545
Na5 O7 2.904425 1_555
Na5 O17 2.925732 1_545
Na6 O128 2.446039 1_555
Na6 O86 2.452477 1_555
Na6 O85 2.511657 1_455
Na6 O130 2.525700 1_555
Na6 O56 2.571325 1_555
Na6 O14 2.817888 1_555
Na6 O42 2.856367 1_555
Na6 O28 2.904766 1_555
Na7 O129 2.467645 1_555
Na7 O87 2.467800 1_555
Na7 O131 2.546553 1_555
Na7 O84 2.550171 1_555
Na7 O57 2.656661 1_555
Na7 O15 2.679436 1_555
Na7 O29 2.868478 1_555
Na7 O43 2.890832 1_555
Na8 O130 2.455432 1_555
Na8 O89 2.494108 1_455
Na8 O126 2.541319 1_555
Na8 O86 2.613828 1_565
Na8 O16 2.650761 1_555
Na8 O58 2.661346 1_555
Na8 O25 2.796411 1_455
Na8 O45 2.893337 1_455
Na9 O88 2.470201 1_555
Na9 O131 2.477882 1_555
Na9 O87 2.529457 1_565
Na9 O127 2.531128 1_555
Na9 O59 2.641818 1_555
Na9 O17 2.675233 1_555
Na9 O24 2.878973 1_555
Na9 O44 2.889848 1_555
Na10 O84 2.472194 1_565
Na10 O126 2.477845 1_555
Na10 O128 2.540998 1_555
Na10 O88 2.546815 1_555
Na10 O12 2.654450 1_555
Na10 O54 2.697127 1_555
Na10 O26 2.869508 1_565
Na10 O46 2.902699 1_565
Na11 O127 2.446936 1_555
Na11 O85 2.537020 1_565
Na11 O129 2.552563 1_555
Na11 O89 2.560020 1_555
Na11 O55 2.697663 1_555
Na11 O13 2.700755 1_555
Na11 O47 2.870375 1_565
Na11 O27 2.876567 1_565
Na12 O124 2.443369 1_555
Na12 O94 2.448368 1_565
Na12 O91 2.518160 1_455
Na12 O122 2.523027 1_555
Na12 O52 2.588362 1_554
Na12 O22 2.807359 1_555
Na12 O36 2.858748 1_565
Na12 O32 2.887259 1_565
Na13 O125 2.443579 1_555
Na13 O95 2.445547 1_565
Na13 O90 2.518923 1_555
Na13 O123 2.523202 1_555
Na13 O53 2.625831 1_554
Na13 O23 2.810164 1_555
Na13 O37 2.851631 1_565
Na13 O33 2.891911 1_565
Na14 O120 2.457612 1_555
Na14 O90 2.536326 1_555
Na14 O124 2.554245 1_555
Na14 O92 2.560348 1_565
Na14 O18 2.680351 1_555
Na14 O48 2.703280 1_554
Na14 O34 2.866876 1_555
Na14 O38 2.868955 1_555
Na15 O121 2.460670 1_555
Na15 O91 2.537643 1_555
Na15 O125 2.557030 1_555
Na15 O93 2.563049 1_565
Na15 O49 2.667982 1_554
Na15 O19 2.678801 1_555
Na15 O35 2.862985 1_555
Na15 O39 2.874005 1_555
Na16 O122 2.472222 1_555
Na16 O93 2.492462 1_455
Na16 O120 2.532682 1_555
Na16 O94 2.600621 1_555
Na16 O20 2.650671 1_555
Na16 O50 2.660449 1_554
Na16 O31 2.766304 1_455
Na16 O41 2.896980 1_455
Na17 O123 2.477048 1_555
Na17 O92 2.491236 1_555
Na17 O121 2.527954 1_555
Na17 O95 2.598402 1_555
Na17 O21 2.648432 1_555
Na17 O51 2.686446 1_554
Na17 O30 2.767607 1_555
Na17 O40 2.900515 1_555
Na18 O81 2.463470 1_555
Na18 O110 2.470349 1_555
Na18 O108 2.553192 1_555
Na18 O82 2.554590 1_555
Na18 O38 2.640133 1_556
Na18 O8 2.680352 1_555
Na18 O53 2.892276 1_555
Na18 O67 2.892307 1_555
Na19 O111 2.460073 1_555
Na19 O109 2.544200 1_555
Na19 O80 2.546727 1_655
Na19 O83 2.556430 1_555
Na19 O39 2.638981 1_556
Na19 O9 2.688112 1_555
Na19 O66 2.853294 1_655
Na19 O52 2.876122 1_655
Na20 O82 2.462916 1_545
Na20 O112 2.493068 1_555
Na20 O79 2.543344 1_555
Na20 O110 2.545284 1_555
Na20 O10 2.667005 1_555
Na20 O40 2.706305 1_556
Na20 O68 2.777067 1_545
Na20 O48 2.888371 1_545
Na21 O113 2.441545 1_555
Na21 O83 2.499492 1_545
Na21 O111 2.523669 1_555
Na21 O78 2.597515 1_655
Na21 O11 2.658862 1_555
Na21 O41 2.697133 1_556
Na21 O69 2.871653 1_545
Na21 O49 2.915315 1_545
Na22 O108 2.439291 1_555
Na22 O78 2.445774 1_555
Na22 O80 2.521587 1_545
Na22 O112 2.526657 1_555
Na22 O36 2.587758 1_556
Na22 O6 2.818420 1_555
Na22 O50 2.834213 1_555
Na22 O70 2.901709 1_555
Na23 O109 2.468747 1_555
Na23 O79 2.474999 1_555
Na23 O81 2.538274 1_545
Na23 O113 2.540788 1_555
Na23 O37 2.655351 1_556
Na23 O7 2.671947 1_555
Na23 O71 2.895544 1_555
Na23 O51 2.900147 1_555
Na24 O118 2.464132 1_555
Na24 O77 2.533068 1_555
Na24 O114 2.559375 1_555
Na24 O74 2.565223 1_545
Na24 O4 2.678106 1_555
Na24 O46 2.679039 1_555
Na24 O61 2.860990 1_555
Na24 O57 2.867116 1_555
Na25 O119 2.455595 1_555
Na25 O76 2.538270 1_655
Na25 O115 2.551390 1_555
Na25 O75 2.561518 1_545
Na25 O47 2.635764 1_555
Na25 O5 2.682588 1_555
Na25 O60 2.866212 1_655
Na25 O56 2.877657 1_655
Na26 O114 2.443467 1_555
Na26 O72 2.445260 1_545
Na26 O76 2.520096 1_555
Na26 O116 2.525912 1_555
Na26 O42 2.605573 1_555
Na26 O0 2.804149 1_555
Na26 O58 2.851396 1_545
Na26 O62 2.890252 1_545
Na27 O115 2.443738 1_555
Na27 O73 2.450096 1_545
Na27 O117 2.517081 1_555
Na27 O77 2.519591 1_555
Na27 O43 2.617134 1_555
Na27 O1 2.811182 1_555
Na27 O59 2.854208 1_545
Na27 O63 2.897579 1_545
Na28 O116 2.474999 1_555
Na28 O74 2.488676 1_555
Na28 O118 2.529415 1_555
Na28 O73 2.594360 1_555
Na28 O2 2.645352 1_555
Na28 O44 2.718996 1_555
Na28 O64 2.764232 1_555
Na28 O54 2.903694 1_555
Na29 O117 2.473235 1_555
Na29 O75 2.495874 1_555
Na29 O119 2.532888 1_555
Na29 O72 2.600174 1_655
Na29 O3 2.654492 1_555
Na29 O45 2.677581 1_555
Na29 O65 2.764074 1_555
Na29 O55 2.900432 1_555
Na30 O89 2.523035 1_555
Na30 O75 2.536374 1_555
Na30 O86 2.568333 1_665
Na30 O72 2.574906 1_655
Na30 O76 2.588310 1_665
Na30 O85 2.597740 1_565
Na31 O84 2.516944 1_565
Na31 O87 2.527147 1_565
Na31 O74 2.558475 1_555
Na31 O88 2.562174 1_555
Na31 O73 2.587515 1_555
Na31 O77 2.598454 1_565
Na32 O83 2.514620 1_544
Na32 O93 2.539670 1_555
Na32 O94 2.565772 1_655
Na32 O80 2.582198 1_644
Na32 O78 2.583686 1_654
Na32 O91 2.585294 1_545
Na33 O81 2.531193 1_545
Na33 O79 2.534732 1_555
Na33 O82 2.553027 1_545
Na33 O92 2.561249 1_556
Na33 O95 2.584730 1_556
Na33 O90 2.603304 1_546
Na34 O96 2.506181 1_555
Na34 O110 2.507440 1_555
Na34 O112 2.514591 1_555
Na34 O108 2.563044 1_555
Na34 O100 2.571730 1_555
Na34 O98 2.657663 1_555
Na35 O97 2.461000 1_555
Na35 O101 2.502640 1_555
Na35 O111 2.543044 1_555
Na35 O99 2.552347 1_555
Na35 O109 2.604410 1_555
Na35 O113 2.617775 1_555
Na36 O102 2.423560 1_555
Na36 O118 2.505689 1_555
Na36 O104 2.513928 1_555
Na36 O116 2.587603 1_555
Na36 O114 2.642453 1_555
Na36 O106 2.673152 1_555
Na37 O103 2.426839 1_555
Na37 O119 2.504362 1_555
Na37 O105 2.519446 1_555
Na37 O117 2.584561 1_555
Na37 O115 2.633816 1_555
Na37 O107 2.675681 1_555
Na38 O136 2.424625 1_555
Na38 O120 2.506457 1_555
Na38 O134 2.509777 1_555
Na38 O122 2.581430 1_555
Na38 O124 2.642796 1_555
Na38 O132 2.683695 1_555
Na39 O137 2.423663 1_555
Na39 O121 2.507402 1_555
Na39 O135 2.507600 1_555
Na39 O123 2.582767 1_555
Na39 O125 2.637245 1_555
Na39 O133 2.682075 1_555
Na40 O140 2.410516 1_555
Na40 O126 2.510995 1_555
Na40 O142 2.512777 1_555
Na40 O130 2.560509 1_555
Na40 O128 2.635169 1_555
Na40 O138 2.694406 1_555
Na41 O143 2.532170 1_555
Na41 O129 2.546125 1_555
Na41 O127 2.548117 1_555
Na41 O139 2.548888 1_555
Na41 O131 2.549881 1_555
Na41 O141 2.552567 1_555
O0 S0 1.485608 1_555
O0 Sn0 2.212953 1_445
O1 S1 1.485735 1_555
O1 Sn1 2.213256 1_545
O2 Si0 1.642438 1_555
O2 Sn1 2.001318 1_555
O3 Si1 1.642274 1_555
O3 Sn0 1.999787 1_555
O4 Si3 1.653352 1_555
O4 Sn1 2.018781 1_545
O5 Si2 1.653308 1_655
O5 Sn0 2.018169 1_545
O6 S2 1.478615 1_555
O6 Sn2 2.228181 1_445
O7 Si4 1.640777 1_555
O7 Sn3 2.034845 1_545
O8 Si6 1.637057 1_555
O8 Sn3 2.041521 1_555
O9 Si5 1.653907 1_655
O9 Sn2 2.003967 1_555
O10 Si7 1.645999 1_545
O10 Sn3 2.042456 1_545
O11 Si8 1.634440 1_555
O11 Sn2 1.998407 1_545
O12 Si7 1.645740 1_555
O12 Sn5 2.043419 1_555
O13 Si8 1.644326 1_565
O13 Sn4 2.012775 1_555
O14 S2 1.480916 1_555
O14 Sn4 2.213589 1_445
O15 Si4 1.640918 1_555
O15 Sn5 2.029203 1_545
O16 Si5 1.643610 1_555
O16 Sn4 2.000579 1_455
O17 Si6 1.635829 1_555
O17 Sn5 2.038760 1_555
O18 Si0 1.653772 1_555
O18 Sn7 2.020731 1_565
O19 Si1 1.654006 1_555
O19 Sn6 2.019900 1_565
O20 Si2 1.642228 1_555
O20 Sn6 2.000621 1_455
O21 Si3 1.641975 1_555
O21 Sn7 2.000535 1_555
O22 S0 1.486026 1_565
O22 Sn6 2.208035 1_465
O23 S1 1.486645 1_565
O23 Sn7 2.208209 1_565
O24 Si9 1.639123 1_555
O24 Sn8 2.010641 1_555
O25 Si10 1.618955 1_555
O25 Sn9 2.011716 1_555
O26 Si11 1.627689 1_555
O26 Sn8 1.988132 1_555
O27 Si12 1.633356 1_555
O27 Sn9 2.058128 1_555
O28 Si13 1.648295 1_555
O28 Sn8 2.044583 1_555
O29 Si14 1.630487 1_555
O29 Sn9 2.064331 1_555
O30 Si15 1.620372 1_555
O30 Sn10 1.985682 1_555
O31 Si16 1.621219 1_555
O31 Sn11 1.986074 1_555
O32 Si17 1.639802 1_555
O32 Sn10 2.069156 1_555
O33 Si18 1.638822 1_555
O33 Sn11 2.068020 1_555
O34 Si19 1.623088 1_555
O34 Sn10 2.012510 1_555
O35 Si20 1.623254 1_555
O35 Sn11 2.012963 1_555
O36 Si19 1.643481 1_555
O36 Sn12 2.045788 1_554
O37 Si20 1.643512 1_555
O37 Sn13 2.046508 1_554
O38 Si15 1.642113 1_555
O38 Sn12 2.046533 1_554
O39 Si16 1.641721 1_555
O39 Sn13 2.057076 1_554
O40 Si17 1.638516 1_555
O40 Sn12 2.035765 1_554
O41 Si18 1.638473 1_555
O41 Sn13 2.030589 1_554
O42 Si11 1.639573 1_555
O42 Sn14 2.051628 1_555
O43 Si12 1.640905 1_555
O43 Sn15 2.044143 1_555
O44 Si13 1.638154 1_555
O44 Sn14 2.035348 1_555
O45 Si14 1.637277 1_555
O45 Sn15 2.031550 1_555
O46 Si9 1.636948 1_555
O46 Sn14 2.030356 1_555
O47 Si10 1.645039 1_555
O47 Sn15 2.049559 1_555
O48 Si21 1.642561 1_555
O48 Sn16 2.030584 1_556
O49 Si22 1.635041 1_555
O49 Sn17 2.026805 1_556
O50 Si23 1.643026 1_555
O50 Sn16 2.041914 1_556
O51 Si24 1.637707 1_555
O51 Sn17 2.035013 1_556
O52 Si25 1.639729 1_555
O52 Sn16 2.064797 1_556
O53 Si26 1.638679 1_555
O53 Sn17 2.044026 1_556
O54 Si27 1.639701 1_555
O54 Sn18 2.031773 1_555
O55 Si28 1.637980 1_555
O55 Sn19 2.030330 1_555
O56 Si29 1.641206 1_555
O56 Sn18 2.059038 1_555
O57 Si30 1.640964 1_555
O57 Sn19 2.056967 1_555
O58 Si31 1.644188 1_555
O58 Sn18 2.042361 1_555
O59 Si32 1.642899 1_555
O59 Sn19 2.042380 1_555
O60 Si31 1.623712 1_555
O60 Sn20 2.014766 1_555
O61 Si32 1.623153 1_555
O61 Sn21 2.016169 1_555
O62 Si27 1.639100 1_555
O62 Sn20 2.067474 1_555
O63 Si28 1.639025 1_555
O63 Sn21 2.067184 1_555
O64 Si29 1.620667 1_555
O64 Sn20 1.984712 1_555
O65 Si30 1.621810 1_555
O65 Sn21 1.984400 1_555
O66 Si23 1.624932 1_555
O66 Sn22 2.011594 1_555
O67 Si24 1.637926 1_555
O67 Sn23 2.045765 1_555
O68 Si25 1.621777 1_555
O68 Sn22 1.981419 1_555
O69 Si26 1.638795 1_555
O69 Sn23 2.031948 1_555
O70 Si21 1.643168 1_555
O70 Sn22 2.064952 1_555
O71 Si22 1.633250 1_555
O71 Sn23 2.039250 1_555
O72 Si31 1.653028 1_555
O72 Sn0 2.078678 1_455
O73 Si32 1.652309 1_555
O73 Sn1 2.077434 1_555
O74 Si27 1.649721 1_555
O74 Sn1 2.059526 1_555
O75 Si28 1.650149 1_555
O75 Sn0 2.057832 1_555
O76 Si29 1.648498 1_555
O76 Sn0 2.078370 1_445
O77 Si30 1.650217 1_555
O77 Sn1 2.074906 1_545
O78 Si23 1.651036 1_555
O78 Sn2 2.069597 1_445
O79 Si24 1.644839 1_555
O79 Sn3 2.092165 1_545
O80 Si25 1.647739 1_555
O80 Sn2 2.072355 1_455
O81 Si26 1.645754 1_555
O81 Sn3 2.102480 1_555
O82 Si21 1.644253 1_555
O82 Sn3 2.094341 1_555
O83 Si22 1.648071 1_555
O83 Sn2 2.061412 1_555
O84 Si9 1.640564 1_555
O84 Sn5 2.099781 1_545
O85 Si10 1.651284 1_555
O85 Sn4 2.078664 1_545
O86 Si11 1.648753 1_555
O86 Sn4 2.074334 1_445
O87 Si12 1.647818 1_555
O87 Sn5 2.101208 1_545
O88 Si13 1.642439 1_555
O88 Sn5 2.088126 1_555
O89 Si14 1.651565 1_555
O89 Sn4 2.053177 1_555
O90 Si15 1.647702 1_555
O90 Sn7 2.077518 1_565
O91 Si16 1.649460 1_555
O91 Sn6 2.078659 1_565
O92 Si17 1.650396 1_555
O92 Sn7 2.056736 1_555
O93 Si18 1.650489 1_555
O93 Sn6 2.056755 1_555
O94 Si19 1.652724 1_555
O94 Sn6 2.081090 1_455
O95 Si20 1.652771 1_555
O95 Sn7 2.079614 1_555
O96 Si7 1.650301 1_545
O96 Sn8 2.062461 1_555
O97 Si8 1.628480 1_555
O97 Sn9 2.072581 1_555
O98 S2 1.491465 1_555
O98 Sn8 2.294759 1_555
O99 Si4 1.634280 1_555
O99 Sn9 2.110947 1_555
O100 Si6 1.659863 1_555
O100 Sn8 2.085927 1_555
O101 Si5 1.642036 1_655
O101 Sn9 2.063199 1_555
O102 Si0 1.632142 1_555
O102 Sn10 2.037075 1_555
O103 Si1 1.631770 1_555
O103 Sn11 2.036191 1_555
O104 Si3 1.660975 1_555
O104 Sn10 2.067210 1_555
O105 Si2 1.660349 1_655
O105 Sn11 2.067900 1_555
O106 S0 1.486234 1_555
O106 Sn10 2.330239 1_555
O107 S1 1.485650 1_555
O107 Sn11 2.331395 1_555
O108 Si21 1.644404 1_555
O108 Sn12 2.102738 1_555
O109 Si22 1.639669 1_555
O109 Sn13 2.082775 1_555
O110 Si24 1.645580 1_555
O110 Sn12 2.102657 1_555
O111 Si23 1.643965 1_655
O111 Sn13 2.110907 1_555
O112 Si25 1.638355 1_545
O112 Sn12 2.075447 1_555
O113 Si26 1.642755 1_545
O113 Sn13 2.093391 1_555
O114 Si27 1.642469 1_545
O114 Sn14 2.094527 1_555
O115 Si28 1.641465 1_545
O115 Sn15 2.092166 1_555
O116 Si29 1.638864 1_555
O116 Sn14 2.066394 1_555
O117 Si30 1.638011 1_555
O117 Sn15 2.079360 1_555
O118 Si32 1.647190 1_555
O118 Sn14 2.111109 1_555
O119 Si31 1.645800 1_655
O119 Sn15 2.114140 1_555
O120 Si19 1.645735 1_555
O120 Sn16 2.115069 1_555
O121 Si20 1.646702 1_555
O121 Sn17 2.109095 1_555
O122 Si16 1.638812 1_455
O122 Sn16 2.069223 1_555
O123 Si15 1.637768 1_555
O123 Sn17 2.067431 1_555
O124 Si17 1.642791 1_565
O124 Sn16 2.098021 1_555
O125 Si18 1.641958 1_565
O125 Sn17 2.096894 1_555
O126 Si11 1.641385 1_565
O126 Sn18 2.103267 1_555
O127 Si12 1.647066 1_565
O127 Sn19 2.102960 1_555
O128 Si13 1.642653 1_555
O128 Sn18 2.104785 1_555
O129 Si14 1.642907 1_555
O129 Sn19 2.095112 1_555
O130 Si10 1.643292 1_455
O130 Sn18 2.080018 1_555
O131 Si9 1.637691 1_555
O131 Sn19 2.079082 1_555
O132 S0 1.487295 1_565
O132 Sn20 2.326832 1_555
O133 S1 1.487284 1_565
O133 Sn21 2.328404 1_555
O134 Si0 1.660897 1_555
O134 Sn20 2.071046 1_555
O135 Si1 1.660594 1_555
O135 Sn21 2.071385 1_555
O136 Si2 1.631679 1_555
O136 Sn20 2.035084 1_555
O137 Si3 1.631263 1_555
O137 Sn21 2.035540 1_555
O138 S2 1.494307 1_555
O138 Sn22 2.323454 1_555
O139 Si4 1.644704 1_555
O139 Sn23 2.083320 1_555
O140 Si5 1.633642 1_555
O140 Sn22 2.028136 1_555
O141 Si6 1.640819 1_555
O141 Sn23 2.103045 1_555
O142 Si7 1.648412 1_555
O142 Sn22 2.072395 1_555
O143 Si8 1.657039 1_565
O143 Sn23 2.095478 1_555
