# generated using pymatgen
data_Na10Ca4Si5Ge4S7O48
_symmetry_space_group_name_H-M   'P 1'
_cell_length_a   18.38956763
_cell_length_b   9.12445400
_cell_length_c   22.77336283
_cell_angle_alpha   89.17951380
_cell_angle_beta   92.30311016
_cell_angle_gamma   119.56401154
_symmetry_Int_Tables_number   1
_chemical_formula_structural   Na10Ca4Si5Ge4S7O48
_chemical_formula_sum   'Na30 Ca12 Si15 Ge12 S21 O144'
_cell_volume   3320.99173862
_cell_formula_units_Z   3
loop_
 _symmetry_equiv_pos_site_id
 _symmetry_equiv_pos_as_xyz
  1  'x, y, z'
loop_
 _atom_site_type_symbol
 _atom_site_label
 _atom_site_symmetry_multiplicity
 _atom_site_fract_x
 _atom_site_fract_y
 _atom_site_fract_z
 _atom_site_occupancy
  Na  Na0  1  0.32577540  0.01609621  0.25287590  1
  Na  Na1  1  0.68248797  0.35270809  0.25616471  1
  Na  Na2  1  0.99902985  0.63459036  0.24292422  1
  Na  Na3  1  0.49727363  0.63067752  0.24174812  1
  Na  Na4  1  0.32269215  0.62948990  0.75370364  1
  Na  Na5  1  0.82281395  0.62946505  0.75342371  1
  Na  Na6  1  0.99624469  0.36182115  0.74160430  1
  Na  Na7  1  0.49622555  0.36135249  0.74132151  1
  Na  Na8  1  0.18126396  0.01054799  0.75637679  1
  Na  Na9  1  0.68156414  0.01078563  0.75579985  1
  Na  Na10  1  0.33568976  0.96507259  0.57582993  1
  Na  Na11  1  0.83566270  0.96557830  0.57680046  1
  Na  Na12  1  0.33567352  0.70836722  0.07713187  1
  Na  Na13  1  0.83479034  0.70477079  0.07602931  1
  Na  Na14  1  0.48338755  0.67618481  0.91151321  1
  Na  Na15  1  0.98341912  0.67669015  0.91139256  1
  Na  Na16  1  0.48740859  0.29384325  0.40937392  1
  Na  Na17  1  0.16649393  0.03198084  0.40923818  1
  Na  Na18  1  0.98913749  0.99730101  0.49960709  1
  Na  Na19  1  0.49622886  0.98619353  0.49982056  1
  Na  Na20  1  0.99560301  0.00538542  0.99879947  1
  Na  Na21  1  0.49549566  0.00486488  0.00029341  1
  Na  Na22  1  0.32482995  0.32898207  0.83546324  1
  Na  Na23  1  0.82482516  0.32945200  0.83507805  1
  Na  Na24  1  0.32380101  0.33205008  0.32931002  1
  Na  Na25  1  0.82423241  0.30457679  0.33511156  1
  Na  Na26  1  0.15200257  0.65377139  0.16516629  1
  Na  Na27  1  0.65714790  0.67930011  0.16456124  1
  Na  Na28  1  0.15172755  0.63855005  0.66260420  1
  Na  Na29  1  0.65252647  0.63963666  0.66248782  1
  Ca  Ca0  1  0.99591272  0.00282670  0.35241625  1
  Ca  Ca1  1  0.50082503  0.99631947  0.35374913  1
  Ca  Ca2  1  0.99929431  0.00309670  0.85281909  1
  Ca  Ca3  1  0.49910616  0.00349075  0.85296421  1
  Ca  Ca4  1  0.33548054  0.33961106  0.68194594  1
  Ca  Ca5  1  0.83544272  0.34037950  0.68161078  1
  Ca  Ca6  1  0.33190764  0.32839886  0.18510428  1
  Ca  Ca7  1  0.83490828  0.32185971  0.18498611  1
  Ca  Ca8  1  0.16527719  0.67318446  0.01964270  1
  Ca  Ca9  1  0.66431321  0.67109620  0.01998359  1
  Ca  Ca10  1  0.16329532  0.65277078  0.51947586  1
  Ca  Ca11  1  0.66531598  0.65708186  0.51971321  1
  Si  Si0  1  0.14850923  0.99441224  0.25746652  1
  Si  Si1  1  0.64856598  0.99843731  0.25367779  1
  Si  Si2  1  0.50983729  0.30023899  0.25102320  1
  Si  Si3  1  0.14810049  0.29916384  0.75288851  1
  Si  Si4  1  0.64838247  0.29958168  0.75307336  1
  Si  Si5  1  0.00780025  0.71737691  0.75235081  1
  Si  Si6  1  0.50812732  0.71774484  0.75218885  1
  Si  Si7  1  0.48516771  0.31693160  0.59031642  1
  Si  Si8  1  0.98390727  0.31670312  0.59083774  1
  Si  Si9  1  0.48323306  0.64953692  0.09029201  1
  Si  Si10  1  0.98181065  0.63427921  0.08879694  1
  Si  Si11  1  0.30872044  0.66054136  0.92017005  1
  Si  Si12  1  0.80849744  0.65998046  0.92030508  1
  Si  Si13  1  0.31558169  0.96704727  0.42372786  1
  Si  Si14  1  0.80850728  0.95756997  0.41954618  1
  Ge  Ge0  1  0.02247141  0.02779073  0.65029253  1
  Ge  Ge1  1  0.52465147  0.02984488  0.64993979  1
  Ge  Ge2  1  0.01226980  0.98071736  0.14767809  1
  Ge  Ge3  1  0.51689987  0.00918565  0.15230968  1
  Ge  Ge4  1  0.32729808  0.37587197  0.99004700  1
  Ge  Ge5  1  0.82720150  0.36737702  0.98799062  1
  Ge  Ge6  1  0.34417247  0.31538995  0.48368980  1
  Ge  Ge7  1  0.84286017  0.30277005  0.48099999  1
  Ge  Ge8  1  0.16983754  0.69502894  0.32060146  1
  Ge  Ge9  1  0.67012227  0.68744257  0.31105206  1
  Ge  Ge10  1  0.15915430  0.63457295  0.81517535  1
  Ge  Ge11  1  0.65883107  0.63388688  0.81535966  1
  S  S0  1  0.34805774  0.70925475  0.24844962  1
  S  S1  1  0.84663397  0.70561713  0.24821202  1
  S  S2  1  0.00845312  0.30559740  0.24917176  1
  S  S3  1  0.34661382  0.98654365  0.74759926  1
  S  S4  1  0.84686415  0.98695045  0.74753736  1
  S  S5  1  0.17972100  0.03727179  0.58367631  1
  S  S6  1  0.68201141  0.04091198  0.58379613  1
  S  S7  1  0.34107726  0.63833189  0.58278814  1
  S  S8  1  0.84117950  0.63835138  0.58255627  1
  S  S9  1  0.34066490  0.04889391  0.08265395  1
  S  S10  1  0.84027624  0.04635410  0.08080749  1
  S  S11  1  0.18119545  0.32114770  0.08249587  1
  S  S12  1  0.68148471  0.32113420  0.08447072  1
  S  S13  1  0.01645123  0.37823578  0.91458479  1
  S  S14  1  0.51618289  0.37797970  0.91475875  1
  S  S15  1  0.17467479  0.97312335  0.91498946  1
  S  S16  1  0.67417148  0.97160198  0.91488814  1
  S  S17  1  0.17393153  0.37716476  0.41604339  1
  S  S18  1  0.67562904  0.37750758  0.41560397  1
  S  S19  1  0.01238425  0.65168284  0.41612757  1
  S  S20  1  0.51539129  0.65191898  0.41512885  1
  O  O0  1  0.10688954  0.00862360  0.31494391  1
  O  O1  1  0.60524455  0.02770930  0.30670748  1
  O  O2  1  0.40052776  0.78620586  0.30113764  1
  O  O3  1  0.90080425  0.78680933  0.29951536  1
  O  O4  1  0.48580454  0.19076336  0.31000404  1
  O  O5  1  0.99924806  0.20764914  0.30176861  1
  O  O6  1  0.10643334  0.18086226  0.80666735  1
  O  O7  1  0.60637452  0.18064715  0.80663349  1
  O  O8  1  0.48554715  0.78150942  0.80973083  1
  O  O9  1  0.98558965  0.78114321  0.80985596  1
  O  O10  1  0.39955053  0.01835813  0.80060171  1
  O  O11  1  0.89972770  0.01840970  0.80055645  1
  O  O12  1  0.38579623  0.96434634  0.69480082  1
  O  O13  1  0.88630751  0.96481033  0.69473196  1
  O  O14  1  0.08541866  0.21730634  0.69131830  1
  O  O15  1  0.58593687  0.21848115  0.69135508  1
  O  O16  1  0.02659826  0.85891165  0.69450924  1
  O  O17  1  0.52693816  0.85940560  0.69418402  1
  O  O18  1  0.38641217  0.81421643  0.19459646  1
  O  O19  1  0.88199423  0.80140496  0.19281190  1
  O  O20  1  0.01579135  0.22489951  0.19471287  1
  O  O21  1  0.52587401  0.19249978  0.19417438  1
  O  O22  1  0.08271908  0.94721838  0.19602168  1
  O  O23  1  0.58422647  0.95137945  0.19195760  1
  O  O24  1  0.44119152  0.33249090  0.64643650  1
  O  O25  1  0.94186479  0.33242810  0.64799730  1
  O  O26  1  0.22867441  0.11544181  0.63763892  1
  O  O27  1  0.72763195  0.11217307  0.63957642  1
  O  O28  1  0.33101056  0.54819137  0.63813306  1
  O  O29  1  0.83126279  0.54941667  0.63834493  1
  O  O30  1  0.43846071  0.54454825  0.14725957  1
  O  O31  1  0.93932299  0.54186437  0.14745881  1
  O  O32  1  0.33111415  0.11844442  0.13738539  1
  O  O33  1  0.83010041  0.11996919  0.13382272  1
  O  O34  1  0.23148387  0.34073623  0.13526628  1
  O  O35  1  0.73057246  0.34027692  0.13843689  1
  O  O36  1  0.22235052  0.29525237  0.02792582  1
  O  O37  1  0.72280130  0.29571883  0.03083822  1
  O  O38  1  0.41325766  0.55299780  0.02857350  1
  O  O39  1  0.91287416  0.54273213  0.02751851  1
  O  O40  1  0.34555811  0.15492963  0.02950098  1
  O  O41  1  0.84647078  0.15059775  0.02656494  1
  O  O42  1  0.21783268  0.14015556  0.52978634  1
  O  O43  1  0.72201106  0.14932271  0.53192551  1
  O  O44  1  0.34603942  0.54421091  0.53029070  1
  O  O45  1  0.84576810  0.54447860  0.53065057  1
  O  O46  1  0.41776381  0.27597479  0.52758389  1
  O  O47  1  0.91266559  0.27135210  0.53012565  1
  O  O48  1  0.27217831  0.67255068  0.98052704  1
  O  O49  1  0.77145258  0.67201418  0.98041542  1
  O  O50  1  0.06847132  0.46383940  0.96615202  1
  O  O51  1  0.56846763  0.46337212  0.96623591  1
  O  O52  1  0.16453193  0.86620216  0.96570279  1
  O  O53  1  0.66466516  0.86573408  0.96573498  1
  O  O54  1  0.27062546  0.87044146  0.48085196  1
  O  O55  1  0.77417826  0.87138037  0.48085453  1
  O  O56  1  0.16447334  0.45458597  0.46803792  1
  O  O57  1  0.66427136  0.46249155  0.46516109  1
  O  O58  1  0.06640909  0.67365008  0.46729978  1
  O  O59  1  0.56606977  0.66900703  0.46769603  1
  O  O60  1  0.04971241  0.62717694  0.36032939  1
  O  O61  1  0.55247516  0.62623183  0.36035337  1
  O  O62  1  0.25075641  0.88119258  0.36088229  1
  O  O63  1  0.74235582  0.85528403  0.35950491  1
  O  O64  1  0.18159540  0.47985486  0.36082008  1
  O  O65  1  0.68262417  0.47345510  0.35870699  1
  O  O66  1  0.05731408  0.48390143  0.85780561  1
  O  O67  1  0.55710297  0.48387541  0.85786299  1
  O  O68  1  0.18170567  0.89177670  0.85944697  1
  O  O69  1  0.68146331  0.89090243  0.85942968  1
  O  O70  1  0.24565975  0.63403449  0.85787166  1
  O  O71  1  0.74551679  0.63412185  0.85787791  1
  O  O72  1  0.00425274  0.80398126  0.41136544  1
  O  O73  1  0.50007430  0.79356179  0.41149809  1
  O  O74  1  0.41012409  0.00773812  0.41802509  1
  O  O75  1  0.90181000  0.99030965  0.41327369  1
  O  O76  1  0.10192300  0.20353734  0.41161852  1
  O  O77  1  0.60037955  0.20840788  0.41226732  1
  O  O78  1  0.00484480  0.20901324  0.91104732  1
  O  O79  1  0.50470601  0.20885563  0.91112865  1
  O  O80  1  0.09859296  0.99010347  0.91209316  1
  O  O81  1  0.59834691  0.98907412  0.91206048  1
  O  O82  1  0.40410971  0.80697580  0.91326591  1
  O  O83  1  0.90387620  0.80664184  0.91339459  1
  O  O84  1  0.48448701  0.12632544  0.59403069  1
  O  O85  1  0.98383038  0.12712979  0.59418661  1
  O  O86  1  0.09378644  0.02537144  0.58662502  1
  O  O87  1  0.59513148  0.02734601  0.58610204  1
  O  O88  1  0.41904734  0.80695081  0.58461543  1
  O  O89  1  0.91930815  0.80835476  0.58479569  1
  O  O90  1  0.48328454  0.84053484  0.09409399  1
  O  O91  1  0.98315570  0.82573869  0.08808976  1
  O  O92  1  0.41921122  0.03487524  0.08485487  1
  O  O93  1  0.91909410  0.03323478  0.08334729  1
  O  O94  1  0.09746564  0.16419373  0.08314948  1
  O  O95  1  0.59697357  0.16416546  0.08550755  1
  O  O96  1  0.33066532  0.13155898  0.74285631  1
  O  O97  1  0.83096921  0.13190685  0.74282162  1
  O  O98  1  0.24226705  0.33358564  0.74588668  1
  O  O99  1  0.74248765  0.33395400  0.74613508  1
  O  O100  1  0.43233891  0.52865600  0.74192444  1
  O  O101  1  0.93223220  0.52865372  0.74196466  1
  O  O102  1  0.33637944  0.53804477  0.24370814  1
  O  O103  1  0.83491345  0.53201472  0.24510416  1
  O  O104  1  0.43269682  0.33741112  0.24146089  1
  O  O105  1  0.93594501  0.33585736  0.24617590  1
  O  O106  1  0.24290753  0.13973913  0.24883986  1
  O  O107  1  0.73843019  0.16214758  0.24700227  1
  O  O108  1  0.31865568  0.47743792  0.92359849  1
  O  O109  1  0.81816609  0.47671144  0.92344577  1
  O  O110  1  0.43505689  0.37752808  0.91466518  1
  O  O111  1  0.93504466  0.37748872  0.91427817  1
  O  O112  1  0.25292098  0.14215792  0.92053162  1
  O  O113  1  0.75265658  0.14183379  0.92017073  1
  O  O114  1  0.31749947  0.16085697  0.42360180  1
  O  O115  1  0.81634307  0.15585742  0.42147119  1
  O  O116  1  0.25302007  0.36315048  0.41932485  1
  O  O117  1  0.75445207  0.36585580  0.42116748  1
  O  O118  1  0.43107874  0.48462188  0.41848298  1
  O  O119  1  0.92725583  0.49436456  0.42018447  1
  O  O120  1  0.17344897  0.47241148  0.07588933  1
  O  O121  1  0.67363746  0.47249020  0.07770386  1
  O  O122  1  0.07341670  0.66389996  0.08108343  1
  O  O123  1  0.57355885  0.67289837  0.08106316  1
  O  O124  1  0.26893735  0.87432826  0.07767504  1
  O  O125  1  0.76883470  0.87158064  0.07710437  1
  O  O126  1  0.17027708  0.86792819  0.57930694  1
  O  O127  1  0.67221705  0.87158299  0.57811104  1
  O  O128  1  0.26848682  0.66765507  0.57759133  1
  O  O129  1  0.76875471  0.66877547  0.57788180  1
  O  O130  1  0.07381339  0.47413051  0.58147761  1
  O  O131  1  0.57514286  0.47467528  0.58140225  1
  O  O132  1  0.14871530  0.80399100  0.25909157  1
  O  O133  1  0.64815722  0.81088133  0.25702897  1
  O  O134  1  0.26437111  0.70454781  0.25264461  1
  O  O135  1  0.76042129  0.68835437  0.25301353  1
  O  O136  1  0.08717263  0.47867617  0.25324242  1
  O  O137  1  0.59980042  0.49154570  0.25927650  1
  O  O138  1  0.14916076  0.48736002  0.75721263  1
  O  O139  1  0.64902500  0.48733002  0.75730418  1
  O  O140  1  0.09890416  0.70615782  0.76179651  1
  O  O141  1  0.59907958  0.70634930  0.76179476  1
  O  O142  1  0.26308281  0.82670440  0.75217082  1
  O  O143  1  0.76341830  0.82707570  0.75189059  1
loop_
_geom_bond_atom_site_label_1
_geom_bond_atom_site_label_2
_geom_bond_distance
_geom_bond_site_symmetry_2
Na0 O106 2.299087 1_555
Na0 O134 2.487666 1_545
Na0 O104 2.619159 1_555
Na0 O32 2.767518 1_555
Na0 O62 2.824650 1_545
Na0 O4 2.831347 1_555
Na0 O132 2.859782 1_545
Na0 O18 2.934946 1_545
Na1 O137 2.415395 1_555
Na1 O107 2.432680 1_555
Na1 O103 2.473207 1_555
Na1 O65 2.595701 1_555
Na1 O135 2.666330 1_555
Na1 O21 2.828861 1_555
Na1 O1 2.830794 1_555
Na1 O35 2.877684 1_555
Na2 O31 2.364763 1_555
Na2 O105 2.379472 1_555
Na2 O132 2.416216 1_655
Na2 O136 2.634720 1_655
Na2 O103 2.685195 1_555
Na2 O22 2.712799 1_655
Na2 O60 2.806908 1_655
Na3 O104 2.331272 1_555
Na3 O30 2.332451 1_555
Na3 O133 2.441374 1_555
Na3 O102 2.648109 1_555
Na3 O137 2.759118 1_555
Na3 O23 2.799788 1_555
Na3 O61 2.853924 1_555
Na4 O98 2.358185 1_555
Na4 O142 2.526380 1_555
Na4 O100 2.620181 1_555
Na4 O28 2.775065 1_555
Na4 O138 2.793828 1_555
Na4 O70 2.822575 1_555
Na4 O8 2.857511 1_555
Na4 O12 2.998390 1_555
Na5 O99 2.354304 1_555
Na5 O143 2.526647 1_555
Na5 O101 2.615051 1_555
Na5 O29 2.761409 1_555
Na5 O139 2.798741 1_555
Na5 O71 2.831110 1_555
Na5 O9 2.860247 1_555
Na5 O13 2.999209 1_555
Na6 O25 2.279626 1_555
Na6 O101 2.339326 1_555
Na6 O138 2.469589 1_655
Na6 O97 2.711565 1_555
Na6 O140 2.786651 1_655
Na6 O14 2.840309 1_655
Na6 O66 2.848863 1_655
Na7 O24 2.310932 1_555
Na7 O100 2.341473 1_555
Na7 O139 2.468181 1_555
Na7 O96 2.715528 1_555
Na7 O141 2.792844 1_555
Na7 O15 2.833999 1_555
Na7 O67 2.856257 1_555
Na8 O140 2.424311 1_545
Na8 O96 2.434554 1_555
Na8 O68 2.572631 1_545
Na8 O98 2.596535 1_555
Na8 O142 2.755675 1_545
Na8 O16 2.799922 1_545
Na8 O6 2.812156 1_555
Na8 O26 2.877507 1_555
Na9 O141 2.425622 1_545
Na9 O97 2.432500 1_555
Na9 O69 2.586613 1_545
Na9 O99 2.596134 1_555
Na9 O143 2.754720 1_545
Na9 O17 2.796686 1_545
Na9 O27 2.813499 1_555
Na9 O7 2.819393 1_555
Na10 O128 2.363229 1_555
Na10 O54 2.383613 1_555
Na10 O84 2.403646 1_565
Na10 O88 2.573122 1_555
Na10 O46 2.711394 1_565
Na10 O126 2.720588 1_555
Na10 O12 2.827476 1_555
Na11 O129 2.358189 1_555
Na11 O55 2.384887 1_555
Na11 O85 2.391748 1_565
Na11 O89 2.569976 1_555
Na11 O47 2.656439 1_565
Na11 O127 2.689487 1_555
Na11 O13 2.808072 1_555
Na12 O124 2.373826 1_555
Na12 O90 2.381345 1_555
Na12 O48 2.397468 1_554
Na12 O92 2.596846 1_565
Na12 O120 2.681933 1_555
Na12 O38 2.726874 1_555
Na12 O18 2.818420 1_555
Na13 O125 2.369283 1_555
Na13 O49 2.378769 1_554
Na13 O91 2.390504 1_555
Na13 O93 2.611919 1_565
Na13 O121 2.661710 1_555
Na13 O19 2.780363 1_555
Na13 O39 2.781663 1_555
Na14 O82 2.296544 1_555
Na14 O110 2.414676 1_555
Na14 O8 2.490759 1_555
Na14 O81 2.581318 1_555
Na14 O108 2.678247 1_555
Na15 O83 2.294814 1_555
Na15 O111 2.419066 1_555
Na15 O9 2.482656 1_555
Na15 O80 2.585711 1_655
Na15 O109 2.687152 1_555
Na16 O74 2.284794 1_555
Na16 O118 2.439939 1_555
Na16 O4 2.456587 1_555
Na16 O77 2.552183 1_555
Na16 O114 2.769297 1_555
Na16 O61 2.881947 1_555
Na17 O0 2.334863 1_555
Na17 O76 2.388533 1_555
Na17 O114 2.432449 1_555
Na17 O116 2.638450 1_555
Na17 O72 2.667521 1_545
Na17 O62 2.791262 1_545
Na17 O42 2.889966 1_555
Na18 O75 2.469276 1_555
Na18 O85 2.501231 1_565
Na18 O89 2.510935 1_555
Na18 O86 2.630178 1_665
Na18 O72 2.803090 1_655
Na18 O76 2.869276 1_665
Na19 O74 2.464828 1_565
Na19 O88 2.501508 1_555
Na19 O87 2.523853 1_565
Na19 O84 2.583185 1_565
Na19 O73 2.715775 1_555
Na19 O77 2.848512 1_565
Na20 O93 2.517138 1_556
Na20 O94 2.531922 1_656
Na20 O91 2.538873 1_546
Na20 O83 2.595291 1_545
Na20 O78 2.661584 1_655
Na20 O80 2.841573 1_645
Na21 O92 2.522446 1_555
Na21 O95 2.544455 1_555
Na21 O90 2.544880 1_545
Na21 O82 2.617810 1_544
Na21 O79 2.687882 1_554
Na21 O81 2.866759 1_544
Na22 O108 2.474737 1_555
Na22 O98 2.505986 1_555
Na22 O112 2.508896 1_555
Na22 O110 2.530092 1_555
Na22 O96 2.832310 1_555
Na22 O100 2.904945 1_555
Na23 O109 2.475866 1_555
Na23 O99 2.491909 1_555
Na23 O113 2.513356 1_555
Na23 O111 2.530950 1_555
Na23 O97 2.829205 1_555
Na23 O101 2.895706 1_555
Na24 O106 2.438750 1_555
Na24 O116 2.563714 1_555
Na24 O114 2.609559 1_555
Na24 O102 2.624683 1_555
Na24 O118 2.646284 1_555
Na24 O104 2.870122 1_555
Na25 O115 2.341492 1_555
Na25 O107 2.449805 1_555
Na25 O117 2.596458 1_555
Na25 O119 2.627786 1_555
Na25 O103 2.838149 1_555
Na25 O105 2.853622 1_555
Na26 O122 2.380755 1_555
Na26 O136 2.493565 1_555
Na26 O132 2.575620 1_555
Na26 O134 2.684082 1_555
Na26 O120 2.798644 1_555
Na26 O124 2.933121 1_555
Na27 O123 2.379447 1_555
Na27 O133 2.489872 1_555
Na27 O137 2.644586 1_555
Na27 O135 2.685835 1_555
Na27 O125 2.817125 1_555
Na27 O121 2.878404 1_555
Na28 O130 2.337192 1_555
Na28 O138 2.531049 1_555
Na28 O140 2.689718 1_555
Na28 O126 2.707221 1_555
Na28 O142 2.756212 1_555
Na28 O128 2.861065 1_555
Na29 O131 2.335656 1_555
Na29 O139 2.536712 1_555
Na29 O141 2.694372 1_555
Na29 O127 2.736011 1_555
Na29 O143 2.748329 1_555
Na29 O129 2.847293 1_555
Ca0 O5 2.158177 1_555
Ca0 O3 2.211838 1_545
Ca0 O75 2.218490 1_545
Ca0 O0 2.219939 1_655
Ca0 O72 2.303459 1_645
Ca0 O76 2.304028 1_655
Ca1 O1 2.128573 1_565
Ca1 O4 2.151135 1_565
Ca1 O2 2.216256 1_555
Ca1 O73 2.249233 1_555
Ca1 O77 2.292231 1_565
Ca1 O74 2.303834 1_565
Ca2 O6 2.140445 1_655
Ca2 O9 2.157670 1_545
Ca2 O11 2.204800 1_555
Ca2 O78 2.273816 1_655
Ca2 O80 2.276320 1_645
Ca2 O83 2.283664 1_545
Ca3 O7 2.142266 1_555
Ca3 O8 2.161723 1_545
Ca3 O10 2.203892 1_555
Ca3 O79 2.268515 1_555
Ca3 O82 2.276863 1_545
Ca3 O81 2.278939 1_545
Ca4 O24 2.165572 1_555
Ca4 O28 2.172049 1_555
Ca4 O100 2.203139 1_555
Ca4 O26 2.234966 1_555
Ca4 O98 2.273112 1_555
Ca4 O96 2.303114 1_555
Ca5 O25 2.164121 1_555
Ca5 O29 2.167831 1_555
Ca5 O101 2.205016 1_555
Ca5 O27 2.239116 1_555
Ca5 O99 2.277116 1_555
Ca5 O97 2.312392 1_555
Ca6 O34 2.178155 1_555
Ca6 O30 2.178438 1_555
Ca6 O104 2.179618 1_555
Ca6 O32 2.209506 1_555
Ca6 O106 2.255647 1_555
Ca6 O102 2.314348 1_555
Ca7 O33 2.156704 1_555
Ca7 O31 2.173983 1_555
Ca7 O107 2.203898 1_555
Ca7 O105 2.230072 1_555
Ca7 O35 2.232260 1_555
Ca7 O103 2.372004 1_555
Ca8 O52 2.138084 1_554
Ca8 O48 2.193237 1_554
Ca8 O50 2.199674 1_554
Ca8 O122 2.205443 1_555
Ca8 O124 2.272324 1_555
Ca8 O120 2.282182 1_555
Ca9 O53 2.146352 1_554
Ca9 O51 2.189458 1_554
Ca9 O49 2.195476 1_554
Ca9 O123 2.221435 1_555
Ca9 O125 2.265070 1_555
Ca9 O121 2.293802 1_555
Ca10 O56 2.178095 1_555
Ca10 O58 2.186534 1_555
Ca10 O130 2.198277 1_555
Ca10 O54 2.198920 1_555
Ca10 O128 2.247709 1_555
Ca10 O126 2.353931 1_555
Ca11 O57 2.173447 1_555
Ca11 O59 2.182799 1_555
Ca11 O55 2.200981 1_555
Ca11 O131 2.211409 1_555
Ca11 O129 2.232887 1_555
Ca11 O127 2.330517 1_555
Ge0 O14 1.785269 1_555
Ge0 O16 1.859843 1_545
Ge0 O85 1.867763 1_455
Ge0 O86 2.001246 1_555
Ge0 O89 2.437752 1_445
Ge1 O15 1.780203 1_555
Ge1 O17 1.857901 1_545
Ge1 O84 1.864298 1_555
Ge1 O87 1.993859 1_555
Ge1 O88 2.465320 1_545
Ge2 O22 1.802887 1_555
Ge2 O91 1.837743 1_455
Ge2 O94 2.223323 1_565
Ge2 O19 2.398886 1_455
Ge2 O93 2.429044 1_465
Ge2 O20 2.456835 1_565
Ge3 O23 1.779690 1_545
Ge3 O21 1.869377 1_555
Ge3 O90 1.887246 1_545
Ge3 O95 2.132143 1_555
Ge3 O18 2.403019 1_545
Ge3 O92 2.413593 1_555
Ge4 O108 1.805515 1_555
Ge4 O38 1.813483 1_556
Ge4 O36 1.929927 1_556
Ge4 O40 2.361380 1_556
Ge4 O112 2.443154 1_555
Ge5 O109 1.812570 1_555
Ge5 O39 1.814469 1_556
Ge5 O37 1.989765 1_556
Ge5 O41 2.329505 1_556
Ge5 O113 2.374202 1_555
Ge6 O46 1.822440 1_555
Ge6 O114 1.849360 1_555
Ge6 O118 2.198536 1_555
Ge6 O44 2.340178 1_555
Ge6 O42 2.353433 1_555
Ge6 O116 2.377687 1_555
Ge7 O47 1.794488 1_555
Ge7 O115 1.796229 1_555
Ge7 O119 2.192966 1_555
Ge7 O43 2.309635 1_555
Ge7 O117 2.356722 1_555
Ge7 O45 2.468925 1_555
Ge8 O62 1.838974 1_555
Ge8 O132 1.843643 1_555
Ge8 O60 2.208338 1_555
Ge8 O64 2.256517 1_555
Ge8 O134 2.342682 1_555
Ge8 O136 2.345016 1_555
Ge9 O63 1.802941 1_555
Ge9 O133 1.820619 1_555
Ge9 O137 1.978493 1_555
Ge9 O135 2.160315 1_555
Ge9 O61 2.288681 1_555
Ge9 O65 2.324910 1_555
Ge10 O70 1.832856 1_555
Ge10 O138 1.835256 1_555
Ge10 O140 1.927462 1_555
Ge10 O66 1.976652 1_555
Ge10 O142 2.372099 1_555
Ge10 O68 2.402064 1_555
Ge11 O71 1.830683 1_555
Ge11 O139 1.833649 1_555
Ge11 O141 1.928381 1_555
Ge11 O67 1.972538 1_555
Ge11 O143 2.387578 1_555
Ge11 O69 2.398080 1_555
O0 Si0 1.580910 1_545
O1 Si1 1.568756 1_545
O2 S0 1.458178 1_555
O3 S1 1.452317 1_555
O4 Si2 1.603417 1_555
O5 S2 1.448616 1_655
O6 Si3 1.572781 1_555
O7 Si4 1.572511 1_555
O8 Si6 1.591263 1_555
O9 Si5 1.587353 1_655
O10 S3 1.457953 1_545
O11 S4 1.457924 1_545
O12 S3 1.492176 1_555
O13 S4 1.494905 1_555
O14 Si3 1.703858 1_555
O15 Si4 1.703918 1_555
O16 Si5 1.752076 1_555
O17 Si6 1.755553 1_555
O18 S0 1.512650 1_555
O19 S1 1.500672 1_555
O20 S2 1.495382 1_555
O21 Si2 1.755759 1_555
O22 Si0 1.724621 1_555
O23 Si1 1.715290 1_555
O24 Si7 1.584017 1_555
O25 Si8 1.583826 1_555
O26 S5 1.460119 1_555
O27 S6 1.462872 1_555
O28 S7 1.462240 1_555
O29 S8 1.465940 1_555
O30 Si9 1.597069 1_555
O31 Si10 1.583576 1_555
O32 S9 1.461976 1_555
O33 S10 1.452333 1_555
O34 S11 1.443993 1_555
O35 S12 1.455057 1_555
O36 S11 1.559963 1_555
O37 S12 1.542541 1_555
O38 Si9 1.782950 1_555
O39 Si10 1.760272 1_555
O40 S9 1.516157 1_555
O41 S10 1.521303 1_555
O42 S5 1.505163 1_555
O43 S6 1.494430 1_555
O44 S7 1.513505 1_555
O45 S8 1.498798 1_555
O46 Si7 1.770010 1_555
O47 Si8 1.770615 1_555
O48 Si11 1.582446 1_555
O49 Si12 1.582131 1_555
O50 S13 1.450169 1_555
O51 S14 1.449887 1_555
O52 S15 1.458041 1_555
O53 S16 1.456757 1_555
O54 Si13 1.577124 1_555
O55 Si14 1.586146 1_555
O56 S17 1.446761 1_555
O57 S18 1.456861 1_555
O58 S19 1.449968 1_555
O59 S20 1.448538 1_555
O60 S19 1.538060 1_555
O61 S20 1.520043 1_555
O62 Si13 1.748313 1_555
O63 Si14 1.732928 1_555
O64 S17 1.526306 1_555
O65 S18 1.526991 1_555
O66 S13 1.579141 1_555
O67 S14 1.582326 1_555
O68 S15 1.517340 1_555
O69 S16 1.514254 1_555
O70 Si11 1.736941 1_555
O71 Si12 1.739494 1_555
O72 S19 1.471277 1_555
O73 S20 1.452861 1_555
O74 Si13 1.599128 1_545
O75 Si14 1.601964 1_555
O76 S17 1.482302 1_555
O77 S18 1.479642 1_555
O78 S13 1.453668 1_555
O79 S14 1.453821 1_555
O80 S15 1.480563 1_555
O81 S16 1.478415 1_555
O82 Si11 1.609468 1_555
O83 Si12 1.609958 1_555
O84 Si7 1.733908 1_555
O85 Si8 1.729648 1_555
O86 S5 1.533831 1_555
O87 S6 1.543399 1_555
O88 S7 1.498303 1_555
O89 S8 1.506713 1_555
O90 Si9 1.745671 1_555
O91 Si10 1.734744 1_555
O92 S9 1.510490 1_555
O93 S10 1.510890 1_555
O94 S11 1.499092 1_555
O95 S12 1.507545 1_555
O96 S3 1.491580 1_545
O97 S4 1.490398 1_545
O98 Si3 1.614575 1_555
O99 Si4 1.613419 1_555
O100 Si6 1.608217 1_555
O101 Si5 1.605067 1_655
O102 S0 1.473141 1_555
O103 S1 1.491874 1_555
O104 Si2 1.619469 1_555
O105 S2 1.488042 1_655
O106 Si0 1.599654 1_545
O107 Si1 1.600990 1_545
O108 Si11 1.768364 1_555
O109 Si12 1.766928 1_555
O110 S14 1.489759 1_555
O111 S13 1.493416 1_655
O112 S15 1.505399 1_545
O113 S16 1.513084 1_545
O114 Si13 1.751239 1_545
O115 Si14 1.743738 1_545
O116 S17 1.520441 1_555
O117 S18 1.505123 1_555
O118 S20 1.552623 1_555
O119 S19 1.519902 1_655
O120 S11 1.460900 1_555
O121 S12 1.463088 1_555
O122 Si10 1.585845 1_455
O123 Si9 1.589366 1_555
O124 S9 1.486506 1_565
O125 S10 1.484505 1_565
O126 S5 1.471671 1_565
O127 S6 1.471592 1_565
O128 S7 1.485400 1_555
O129 S8 1.488238 1_555
O130 Si8 1.586922 1_455
O131 Si7 1.587184 1_555
O132 Si0 1.739224 1_555
O133 Si1 1.708273 1_555
O134 S0 1.525073 1_555
O135 S1 1.522274 1_555
O136 S2 1.528291 1_555
O137 Si2 1.718730 1_555
O138 Si3 1.711858 1_555
O139 Si4 1.711374 1_555
O140 Si5 1.732983 1_555
O141 Si6 1.731393 1_555
O142 S3 1.515019 1_555
O143 S4 1.513853 1_555
