# generated using pymatgen
data_Sr2Mg(AgO2)2
_symmetry_space_group_name_H-M   'P 1'
_cell_length_a   6.59958163
_cell_length_b   6.57689757
_cell_length_c   6.57689721
_cell_angle_alpha   97.21202123
_cell_angle_beta   55.88637228
_cell_angle_gamma   124.11363124
_symmetry_Int_Tables_number   1
_chemical_formula_structural   Sr2Mg(AgO2)2
_chemical_formula_sum   'Sr2 Mg1 Ag2 O4'
_cell_volume   188.09339926
_cell_formula_units_Z   1
loop_
 _symmetry_equiv_pos_site_id
 _symmetry_equiv_pos_as_xyz
  1  'x, y, z'
loop_
 _atom_site_type_symbol
 _atom_site_label
 _atom_site_symmetry_multiplicity
 _atom_site_fract_x
 _atom_site_fract_y
 _atom_site_fract_z
 _atom_site_occupancy
  Sr  Sr0  1  0.50000000  0.65302774  0.84697226  1
  Sr  Sr1  1  0.50000000  0.34697226  0.15302774  1
  Mg  Mg0  1  0.50000000  0.00000000  0.50000000  1
  Ag  Ag0  1  -0.00000000  0.50000000  0.50000000  1
  Ag  Ag1  1  -0.00000000  0.00000000  0.00000000  1
  O  O0  1  0.50000000  0.26336962  0.76336962  1
  O  O1  1  0.96599436  0.23299718  0.26700282  1
  O  O2  1  0.50000000  0.73663038  0.23663038  1
  O  O3  1  0.03400564  0.76700282  0.73299718  1
loop_
_geom_bond_atom_site_label_1
_geom_bond_atom_site_label_2
_geom_bond_distance
_geom_bond_site_symmetry_2
Mg0 O3 2.042498 1_545
Mg0 O1 2.042498 1_555
Mg0 O2 2.290717 1_545
Mg0 O0 2.290717 1_555
Ag0 O3 2.179534 1_555
Ag0 O1 2.179534 1_455
Ag0 O0 2.194631 1_455
Ag0 O2 2.194631 1_555
Ag1 O3 2.179534 1_544
Ag1 O1 2.179534 1_455
Ag1 O0 2.194631 1_554
Ag1 O2 2.194631 1_445
O0 Sr1 2.552679 1_556
O0 Sr0 2.552679 1_555
O1 Sr1 2.785427 1_655
O1 Sr0 2.785428 1_654
O2 Sr0 2.552679 1_554
O2 Sr1 2.552679 1_555
O3 Sr0 2.785427 1_455
O3 Sr1 2.785428 1_456
