# generated using pymatgen
data_MgZn2(FeO2)4
_symmetry_space_group_name_H-M   'P 1'
_cell_length_a   6.34290375
_cell_length_b   6.34290359
_cell_length_c   6.41900592
_cell_angle_alpha   56.26612808
_cell_angle_beta   56.26613228
_cell_angle_gamma   56.42835731
_symmetry_Int_Tables_number   1
_chemical_formula_structural   MgZn2(FeO2)4
_chemical_formula_sum   'Mg1 Zn2 Fe4 O8'
_cell_volume   167.06604136
_cell_formula_units_Z   1
loop_
 _symmetry_equiv_pos_site_id
 _symmetry_equiv_pos_as_xyz
  1  'x, y, z'
loop_
 _atom_site_type_symbol
 _atom_site_label
 _atom_site_symmetry_multiplicity
 _atom_site_fract_x
 _atom_site_fract_y
 _atom_site_fract_z
 _atom_site_occupancy
  Mg  Mg0  1  0.12500000  0.12500000  0.12500000  1
  Zn  Zn0  1  0.12500000  0.62500000  0.62500000  1
  Zn  Zn1  1  0.62500000  0.12500000  0.62500000  1
  Fe  Fe0  1  0.94194900  0.94194800  0.01245600  1
  Fe  Fe1  1  0.30805100  0.30805200  0.23754400  1
  Fe  Fe2  1  0.62500000  0.62500000  0.12500000  1
  Fe  Fe3  1  0.62500000  0.62500000  0.62500000  1
  O  O0  1  0.39885900  0.39885900  0.40756800  1
  O  O1  1  0.38802800  0.38802800  0.85755500  1
  O  O2  1  0.39423300  0.87721300  0.35115300  1
  O  O3  1  0.87721200  0.39423600  0.35115200  1
  O  O4  1  0.37278800  0.85576400  0.89884800  1
  O  O5  1  0.85576700  0.37278700  0.89884700  1
  O  O6  1  0.86197200  0.86197200  0.39244500  1
  O  O7  1  0.85114100  0.85114100  0.84243200  1
loop_
_geom_bond_atom_site_label_1
_geom_bond_atom_site_label_2
_geom_bond_distance
_geom_bond_site_symmetry_2
Mg0 O5 2.178258 1_454
Mg0 O2 2.178258 1_545
Mg0 O3 2.178267 1_455
Mg0 O4 2.178267 1_544
Mg0 O1 2.286956 1_554
Mg0 O6 2.286956 1_445
Fe0 O7 1.902084 1_554
Fe0 O6 2.000044 1_555
Fe0 O4 2.208129 1_654
Fe0 O5 2.208131 1_564
Fe1 O0 1.902084 1_555
Fe1 O1 2.000044 1_554
Fe1 O3 2.208129 1_455
Fe1 O2 2.208131 1_545
Fe2 O0 1.975106 1_555
Fe2 O7 1.975106 1_554
Fe2 O3 2.106817 1_555
Fe2 O4 2.106817 1_554
Fe2 O2 2.106824 1_555
Fe2 O5 2.106824 1_554
Fe3 O6 2.064319 1_555
Fe3 O1 2.064319 1_555
Fe3 O3 2.221790 1_555
Fe3 O4 2.221790 1_555
Fe3 O5 2.221798 1_555
Fe3 O2 2.221798 1_555
O0 Zn1 1.948848 1_555
O0 Zn0 1.948848 1_555
O1 Zn0 2.184418 1_555
O1 Zn1 2.184419 1_555
O2 Zn0 2.264838 1_555
O3 Zn1 2.264847 1_555
O4 Zn1 2.264847 1_565
O5 Zn0 2.264838 1_655
O6 Zn0 2.184418 1_655
O6 Zn1 2.184419 1_565
O7 Zn1 1.948848 1_565
O7 Zn0 1.948848 1_655
