# generated using pymatgen
data_MgZn2(FeO2)4
_symmetry_space_group_name_H-M   'P 1'
_cell_length_a   6.35708550
_cell_length_b   5.99144801
_cell_length_c   5.99596000
_cell_angle_alpha   59.97507442
_cell_angle_beta   61.86200356
_cell_angle_gamma   62.00823307
_symmetry_Int_Tables_number   1
_chemical_formula_structural   MgZn2(FeO2)4
_chemical_formula_sum   'Mg1 Zn2 Fe4 O8'
_cell_volume   166.01518600
_cell_formula_units_Z   1
loop_
 _symmetry_equiv_pos_site_id
 _symmetry_equiv_pos_as_xyz
  1  'x, y, z'
loop_
 _atom_site_type_symbol
 _atom_site_label
 _atom_site_symmetry_multiplicity
 _atom_site_fract_x
 _atom_site_fract_y
 _atom_site_fract_z
 _atom_site_occupancy
  Mg  Mg0  1  0.62500000  0.12500000  0.12500000  1
  Zn  Zn0  1  0.12500000  0.62500000  0.62500000  1
  Zn  Zn1  1  0.62500000  0.12500000  0.62500000  1
  Fe  Fe0  1  0.08548400  0.96276600  0.97587500  1
  Fe  Fe1  1  0.16451600  0.28723400  0.27412500  1
  Fe  Fe2  1  0.62500000  0.62500000  0.12500000  1
  Fe  Fe3  1  0.62500000  0.62500000  0.62500000  1
  O  O0  1  0.38876700  0.38274900  0.35822300  1
  O  O1  1  0.38876700  0.38274900  0.87026000  1
  O  O2  1  0.39676700  0.87245900  0.36538600  1
  O  O3  1  0.80747900  0.40344200  0.39453900  1
  O  O4  1  0.44252100  0.84655800  0.85546100  1
  O  O5  1  0.85323300  0.37754100  0.88461400  1
  O  O6  1  0.86123300  0.86725100  0.37974000  1
  O  O7  1  0.86123300  0.86725100  0.89177700  1
loop_
_geom_bond_atom_site_label_1
_geom_bond_atom_site_label_2
_geom_bond_distance
_geom_bond_site_symmetry_2
Mg0 O5 2.092313 1_554
Mg0 O2 2.092313 1_545
Mg0 O0 2.144541 1_555
Mg0 O7 2.144541 1_544
Mg0 O6 2.144545 1_545
Mg0 O1 2.144545 1_554
Fe0 O4 1.905697 1_555
Fe0 O7 2.084862 1_455
Fe0 O6 2.084866 1_456
Fe0 O5 2.147564 1_465
Fe1 O3 1.905697 1_455
Fe1 O0 2.084862 1_555
Fe1 O1 2.084866 1_554
Fe1 O2 2.147564 1_545
Fe2 O3 1.973719 1_555
Fe2 O4 1.973719 1_554
Fe2 O7 2.086033 1_554
Fe2 O0 2.086033 1_555
Fe2 O2 2.127835 1_555
Fe2 O5 2.127835 1_554
Fe3 O4 1.973724 1_555
Fe3 O3 1.973724 1_555
Fe3 O6 2.086033 1_555
Fe3 O1 2.086033 1_555
Fe3 O5 2.127843 1_555
Fe3 O2 2.127843 1_555
O0 Zn1 2.194413 1_555
O0 Zn0 2.232948 1_555
O1 Zn1 2.194409 1_555
O1 Zn0 2.232944 1_555
O2 Zn0 2.272511 1_555
O3 Zn1 2.008967 1_555
O4 Zn1 2.008967 1_565
O5 Zn0 2.272511 1_655
O6 Zn1 2.194409 1_565
O6 Zn0 2.232944 1_655
O7 Zn1 2.194413 1_565
O7 Zn0 2.232948 1_655
