# generated using pymatgen
data_Mg(BiO2)4
_symmetry_space_group_name_H-M   'P 1'
_cell_length_a   6.92323809
_cell_length_b   6.92719685
_cell_length_c   6.92554969
_cell_angle_alpha   59.99601151
_cell_angle_beta   60.02620498
_cell_angle_gamma   60.00512507
_symmetry_Int_Tables_number   1
_chemical_formula_structural   Mg(BiO2)4
_chemical_formula_sum   'Mg1 Bi4 O8'
_cell_volume   234.90686557
_cell_formula_units_Z   1
loop_
 _symmetry_equiv_pos_site_id
 _symmetry_equiv_pos_as_xyz
  1  'x, y, z'
loop_
 _atom_site_type_symbol
 _atom_site_label
 _atom_site_symmetry_multiplicity
 _atom_site_fract_x
 _atom_site_fract_y
 _atom_site_fract_z
 _atom_site_occupancy
  Mg  Mg0  1  0.87738200  0.87807500  0.87297700  1
  Bi  Bi0  1  0.49615000  0.99876800  0.50269900  1
  Bi  Bi1  1  0.49578100  0.49541100  0.00734200  1
  Bi  Bi2  1  0.99917300  0.49587500  0.50268600  1
  Bi  Bi3  1  0.49581900  0.49534400  0.50154000  1
  O  O0  1  0.26511400  0.26510100  0.27495900  1
  O  O1  1  0.68864000  0.26313800  0.27431000  1
  O  O2  1  0.26370400  0.68815600  0.27385100  1
  O  O3  1  0.26552600  0.26461700  0.69514500  1
  O  O4  1  0.75295000  0.75426000  0.24510300  1
  O  O5  1  0.75737400  0.24123300  0.75148400  1
  O  O6  1  0.24140800  0.75802400  0.75087900  1
  O  O7  1  0.75283000  0.75384800  0.74881100  1
loop_
_geom_bond_atom_site_label_1
_geom_bond_atom_site_label_2
_geom_bond_distance
_geom_bond_site_symmetry_2
Mg0 O5 2.053926 1_565
Mg0 O6 2.058289 1_655
Mg0 O4 2.104585 1_556
Mg0 O7 2.108674 1_555
Bi0 O1 2.251345 1_565
Bi0 O3 2.259557 1_565
Bi0 O0 2.260510 1_565
Bi0 O6 2.427116 1_555
Bi0 O4 2.460543 1_555
Bi0 O7 2.462005 1_555
Bi1 O2 2.264394 1_555
Bi1 O1 2.265734 1_555
Bi1 O0 2.272301 1_555
Bi1 O5 2.499084 1_554
Bi1 O6 2.501249 1_554
Bi1 O7 2.524606 1_554
Bi2 O2 2.251116 1_655
Bi2 O0 2.260539 1_655
Bi2 O3 2.260559 1_655
Bi2 O5 2.431744 1_555
Bi2 O4 2.467057 1_555
Bi2 O7 2.470230 1_555
Bi3 O1 2.265286 1_555
Bi3 O2 2.265493 1_555
Bi3 O3 2.272198 1_555
Bi3 O5 2.504306 1_555
Bi3 O6 2.508828 1_555
Bi3 O4 2.527371 1_555
