# generated using pymatgen
data_MgTi2Tl2(PS5)2
_symmetry_space_group_name_H-M   'P 1'
_cell_length_a   6.67388031
_cell_length_b   7.19728732
_cell_length_c   10.09626178
_cell_angle_alpha   115.43094225
_cell_angle_beta   100.91843120
_cell_angle_gamma   89.00919331
_symmetry_Int_Tables_number   1
_chemical_formula_structural   MgTi2Tl2(PS5)2
_chemical_formula_sum   'Mg1 Ti2 Tl2 P2 S10'
_cell_volume   428.91970722
_cell_formula_units_Z   1
loop_
 _symmetry_equiv_pos_site_id
 _symmetry_equiv_pos_as_xyz
  1  'x, y, z'
loop_
 _atom_site_type_symbol
 _atom_site_label
 _atom_site_symmetry_multiplicity
 _atom_site_fract_x
 _atom_site_fract_y
 _atom_site_fract_z
 _atom_site_occupancy
  Mg  Mg0  1  0.79610000  0.58627700  0.73632300  1
  Ti  Ti0  1  0.50475400  0.29943400  0.00930200  1
  Ti  Ti1  1  0.50548800  0.72670600  0.01128900  1
  Tl  Tl0  1  0.69127400  0.75299900  0.41175600  1
  Tl  Tl1  1  0.26454300  0.22049700  0.54311900  1
  P  P0  1  0.28229900  0.84692300  0.72257400  1
  P  P1  1  0.71467500  0.16267200  0.26377000  1
  S  S0  1  0.17515700  0.66115700  0.81260400  1
  S  S1  1  0.34128900  0.59102500  0.13781500  1
  S  S2  1  0.40922900  0.10579500  0.16052800  1
  S  S3  1  0.59412800  0.89841400  0.83143700  1
  S  S4  1  0.17889900  0.13498400  0.81661600  1
  S  S5  1  0.75925600  0.26389300  0.49550500  1
  S  S6  1  0.66188500  0.42288000  0.86722700  1
  S  S7  1  0.23000300  0.71160800  0.50130400  1
  S  S8  1  0.83661200  0.87760300  0.18098000  1
  S  S9  1  0.83440900  0.34824300  0.18535100  1
loop_
_geom_bond_atom_site_label_1
_geom_bond_atom_site_label_2
_geom_bond_distance
_geom_bond_site_symmetry_2
Mg0 S6 2.398304 1_555
Mg0 S0 2.497196 1_655
Mg0 S5 2.510743 1_555
Mg0 S3 2.513731 1_555
P0 S7 1.977081 1_555
P0 S4 2.045531 1_565
P0 S0 2.109065 1_555
P0 S3 2.118192 1_555
P1 S9 2.057672 1_555
P1 S2 2.065685 1_555
P1 S8 2.073053 1_545
P1 S5 2.091211 1_555
S0 Ti1 2.579656 1_556
S1 Ti0 2.323027 1_555
S1 Ti1 2.329172 1_555
S1 Tl0 3.056482 1_555
S2 Ti1 2.627273 1_545
S2 Ti0 2.628104 1_555
S3 Ti1 2.744815 1_556
S3 Ti0 2.793892 1_566
S4 Ti0 2.534497 1_556
S4 Tl1 3.224888 1_555
S6 Ti0 2.375565 1_556
S6 Ti1 2.398191 1_556
S8 Ti1 2.459475 1_555
S8 Tl0 3.139222 1_555
S9 Ti0 2.476310 1_555
S9 Tl0 3.104180 1_555
