# generated using pymatgen
data_MgGe4(BiO6)2
_symmetry_space_group_name_H-M   'P 1'
_cell_length_a   5.80941945
_cell_length_b   7.43612217
_cell_length_c   7.24566743
_cell_angle_alpha   86.30378382
_cell_angle_beta   78.04470993
_cell_angle_gamma   73.13947178
_symmetry_Int_Tables_number   1
_chemical_formula_structural   MgGe4(BiO6)2
_chemical_formula_sum   'Mg1 Ge4 Bi2 O12'
_cell_volume   293.05375869
_cell_formula_units_Z   1
loop_
 _symmetry_equiv_pos_site_id
 _symmetry_equiv_pos_as_xyz
  1  'x, y, z'
loop_
 _atom_site_type_symbol
 _atom_site_label
 _atom_site_symmetry_multiplicity
 _atom_site_fract_x
 _atom_site_fract_y
 _atom_site_fract_z
 _atom_site_occupancy
  Mg  Mg0  1  0.05765600  0.00395700  0.34762700  1
  Ge  Ge0  1  0.73970400  0.39429600  0.20837000  1
  Ge  Ge1  1  0.75184400  0.75678300  0.63594700  1
  Ge  Ge2  1  0.26847400  0.60745400  0.79796000  1
  Ge  Ge3  1  0.24733700  0.28217700  0.35278100  1
  Bi  Bi0  1  0.74047700  0.85310500  0.10361700  1
  Bi  Bi1  1  0.23375800  0.13131500  0.86481300  1
  O  O0  1  0.47145800  0.38628200  0.38119500  1
  O  O1  1  0.03145800  0.59808200  0.67467000  1
  O  O2  1  0.51042100  0.65959900  0.62427700  1
  O  O3  1  0.96764200  0.44740000  0.31572900  1
  O  O4  1  0.16133500  0.13496400  0.54190200  1
  O  O5  1  0.34734600  0.38301200  0.89650600  1
  O  O6  1  0.82308800  0.86611800  0.41849300  1
  O  O7  1  0.67205500  0.58034100  0.05252000  1
  O  O8  1  0.87457700  0.15705400  0.13296100  1
  O  O9  1  0.63333700  0.93787200  0.81376800  1
  O  O10  1  0.14069600  0.80239800  0.95568100  1
  O  O11  1  0.33775400  0.09186600  0.17748000  1
loop_
_geom_bond_atom_site_label_1
_geom_bond_atom_site_label_2
_geom_bond_distance
_geom_bond_site_symmetry_2
Mg0 O6 1.903604 1_445
Mg0 O4 2.040035 1_555
Mg0 O11 2.068096 1_555
Mg0 O8 2.145043 1_455
Ge0 O7 1.735112 1_555
Ge0 O8 1.780394 1_555
Ge0 O0 1.798857 1_555
Ge0 O3 1.812238 1_555
Ge1 O6 1.753481 1_555
Ge1 O2 1.772415 1_555
Ge1 O1 1.773184 1_655
Ge1 O9 1.807148 1_555
Ge2 O5 1.744582 1_555
Ge2 O10 1.787834 1_555
Ge2 O2 1.797248 1_555
Ge2 O1 1.808891 1_555
Ge3 O0 1.747343 1_555
Ge3 O4 1.779308 1_555
Ge3 O3 1.789389 1_455
Ge3 O11 1.848272 1_555
Bi0 O7 2.243786 1_555
Bi0 O10 2.282103 1_654
Bi0 O9 2.310552 1_554
Bi0 O6 2.440062 1_555
Bi0 O11 2.471137 1_565
Bi0 O8 2.629187 1_565
Bi1 O5 2.196790 1_555
Bi1 O9 2.317417 1_545
Bi1 O11 2.441725 1_556
Bi1 O4 2.458659 1_555
Bi1 O8 2.510424 1_456
Bi1 O10 2.668334 1_545
