# generated using pymatgen
data_Na3SiGe4P5O24
_symmetry_space_group_name_H-M   'P 1'
_cell_length_a   8.43820181
_cell_length_b   8.41311310
_cell_length_c   21.68772571
_cell_angle_alpha   90.19024823
_cell_angle_beta   89.70874619
_cell_angle_gamma   119.96340399
_symmetry_Int_Tables_number   1
_chemical_formula_structural   Na3SiGe4P5O24
_chemical_formula_sum   'Na9 Si3 Ge12 P15 O72'
_cell_volume   1333.84549373
_cell_formula_units_Z   3
loop_
 _symmetry_equiv_pos_site_id
 _symmetry_equiv_pos_as_xyz
  1  'x, y, z'
loop_
 _atom_site_type_symbol
 _atom_site_label
 _atom_site_symmetry_multiplicity
 _atom_site_fract_x
 _atom_site_fract_y
 _atom_site_fract_z
 _atom_site_occupancy
  Na  Na0  1  0.36675260  0.00034325  0.74947088  1
  Na  Na1  1  0.66487723  0.96767475  0.58458804  1
  Na  Na2  1  0.66940872  0.69823392  0.08275052  1
  Na  Na3  1  0.01150088  0.00108954  0.49920530  1
  Na  Na4  1  0.00955853  0.00699041  0.99945330  1
  Na  Na5  1  0.67612046  0.34078200  0.83407505  1
  Na  Na6  1  0.66675001  0.33338055  0.33331054  1
  Na  Na7  1  0.32156754  0.66521319  0.16747928  1
  Na  Na8  1  0.32513978  0.65204901  0.66652559  1
  Si  Si0  1  0.71843124  0.00055796  0.75022251  1
  Si  Si1  1  0.37379213  0.04756493  0.58269360  1
  Si  Si2  1  0.95714630  0.61821636  0.08387488  1
  Ge  Ge0  1  0.00135054  0.00065985  0.35358114  1
  Ge  Ge1  1  0.99718374  0.00062354  0.85453705  1
  Ge  Ge2  1  0.00261842  0.99891088  0.64660976  1
  Ge  Ge3  1  0.00544708  0.00046883  0.14707657  1
  Ge  Ge4  1  0.67029719  0.33090630  0.68665758  1
  Ge  Ge5  1  0.67133883  0.33444522  0.18778146  1
  Ge  Ge6  1  0.66911816  0.33723144  0.97968862  1
  Ge  Ge7  1  0.66119655  0.33155017  0.47858700  1
  Ge  Ge8  1  0.32592366  0.66615732  0.01970126  1
  Ge  Ge9  1  0.32868395  0.66674222  0.51936933  1
  Ge  Ge10  1  0.33195125  0.66593941  0.31306743  1
  Ge  Ge11  1  0.33731416  0.66628714  0.81351596  1
  P  P0  1  0.28891692  0.00127423  0.25050748  1
  P  P1  1  0.71151099  0.71237339  0.25067368  1
  P  P2  1  0.99964801  0.28513489  0.25060360  1
  P  P3  1  0.28421754  0.28923285  0.75049075  1
  P  P4  1  0.99397258  0.70907071  0.75111136  1
  P  P5  1  0.95598002  0.33834756  0.58222215  1
  P  P6  1  0.66627725  0.61381394  0.58264441  1
  P  P7  1  0.66724168  0.05140861  0.08334538  1
  P  P8  1  0.37849337  0.32866393  0.08319447  1
  P  P9  1  0.62003542  0.66555617  0.91746081  1
  P  P10  1  0.04788498  0.38040447  0.91636727  1
  P  P11  1  0.33354590  0.95737522  0.91640676  1
  P  P12  1  0.62179968  0.95430497  0.41595394  1
  P  P13  1  0.33357154  0.38131961  0.41595875  1
  P  P14  1  0.04434810  0.66537458  0.41604949  1
  O  O0  1  0.20805471  0.04020597  0.30860255  1
  O  O1  1  0.83411980  0.79631825  0.30749329  1
  O  O2  1  0.96307532  0.16664283  0.30865815  1
  O  O3  1  0.21012358  0.16174689  0.80753003  1
  O  O4  1  0.96071057  0.79143836  0.80962222  1
  O  O5  1  0.84267163  0.04197405  0.81069328  1
  O  O6  1  0.79621131  0.95983556  0.68658702  1
  O  O7  1  0.16756064  0.20851655  0.69230259  1
  O  O8  1  0.04744066  0.83620000  0.69388855  1
  O  O9  1  0.78913451  0.82805085  0.19088300  1
  O  O10  1  0.03830470  0.20430823  0.19201643  1
  O  O11  1  0.16955992  0.96094949  0.19249840  1
  O  O12  1  0.87951897  0.37941174  0.64116763  1
  O  O13  1  0.50359912  0.12325469  0.64447256  1
  O  O14  1  0.63001189  0.49812521  0.64130952  1
  O  O15  1  0.87003901  0.49422036  0.14496433  1
  O  O16  1  0.62200584  0.12467659  0.14171741  1
  O  O17  1  0.50166053  0.37509113  0.14070232  1
  O  O18  1  0.45561886  0.28743130  0.02464984  1
  O  O19  1  0.82137518  0.54033640  0.02403271  1
  O  O20  1  0.70438549  0.16706951  0.02479344  1
  O  O21  1  0.46317071  0.17228399  0.52223813  1
  O  O22  1  0.70856750  0.53877128  0.52426891  1
  O  O23  1  0.83144152  0.29271918  0.52534560  1
  O  O24  1  0.53974576  0.70194974  0.97694986  1
  O  O25  1  0.16685364  0.46112549  0.97427746  1
  O  O26  1  0.29546781  0.83574559  0.97350060  1
  O  O27  1  0.54435925  0.83860792  0.47582949  1
  O  O28  1  0.29507924  0.46226842  0.47460423  1
  O  O29  1  0.16404555  0.70596277  0.47409052  1
  O  O30  1  0.12558795  0.62664594  0.35802362  1
  O  O31  1  0.49921657  0.87033139  0.35920662  1
  O  O32  1  0.37032266  0.50001796  0.35800204  1
  O  O33  1  0.12969595  0.50100135  0.85841991  1
  O  O34  1  0.36950738  0.87813305  0.85656514  1
  O  O35  1  0.50008812  0.62930509  0.85999348  1
  O  O36  1  0.02676239  0.83900273  0.40921256  1
  O  O37  1  0.81222587  0.97098982  0.40940338  1
  O  O38  1  0.16085716  0.18947027  0.40995931  1
  O  O39  1  0.03334295  0.19054034  0.91102779  1
  O  O40  1  0.16033406  0.97408294  0.90980440  1
  O  O41  1  0.81142761  0.83742586  0.91212493  1
  O  O42  1  0.96954404  0.16264103  0.58881249  1
  O  O43  1  0.17394483  0.02592105  0.59072295  1
  O  O44  1  0.83385532  0.80936624  0.58844236  1
  O  O45  1  0.97238415  0.82034808  0.09138500  1
  O  O46  1  0.83842657  0.02978933  0.09054153  1
  O  O47  1  0.18655774  0.16197888  0.09068502  1
  O  O48  1  0.69048972  0.17962237  0.74443791  1
  O  O49  1  0.47691531  0.31139403  0.74346141  1
  O  O50  1  0.82120464  0.52300805  0.74282130  1
  O  O51  1  0.68997330  0.51967225  0.24480944  1
  O  O52  1  0.82537046  0.30037234  0.24521646  1
  O  O53  1  0.47938759  0.17379148  0.24307260  1
  O  O54  1  0.63399956  0.48993733  0.92224881  1
  O  O55  1  0.85606692  0.36024535  0.92258672  1
  O  O56  1  0.50727956  0.14686969  0.92330288  1
  O  O57  1  0.64280485  0.14671112  0.42187277  1
  O  O58  1  0.50757738  0.36573947  0.42126650  1
  O  O59  1  0.85412034  0.49302873  0.42334212  1
  O  O60  1  0.36642562  0.50579403  0.07570784  1
  O  O61  1  0.15756644  0.64010339  0.07639851  1
  O  O62  1  0.50159648  0.85404789  0.07593642  1
  O  O63  1  0.36141276  0.84676716  0.57532697  1
  O  O64  1  0.49474835  0.63582481  0.57625235  1
  O  O65  1  0.14736594  0.50646010  0.57541992  1
  O  O66  1  0.30669723  0.82785719  0.25742683  1
  O  O67  1  0.52106986  0.69584422  0.25729494  1
  O  O68  1  0.17232514  0.47701046  0.25668331  1
  O  O69  1  0.29851646  0.47686815  0.75809440  1
  O  O70  1  0.16648323  0.68942502  0.75778284  1
  O  O71  1  0.51032935  0.82236837  0.75706719  1
loop_
_geom_bond_atom_site_label_1
_geom_bond_atom_site_label_2
_geom_bond_distance
_geom_bond_site_symmetry_2
Na0 O49 2.302261 1_555
Na0 O70 2.305456 1_545
Na0 O71 2.356402 1_545
Na0 O48 2.373120 1_555
Na0 O13 2.526735 1_555
Na0 O34 2.548051 1_545
Na0 O8 2.631589 1_545
Na0 O3 2.634515 1_555
Na1 O63 2.243703 1_555
Na1 O42 2.257718 1_565
Na1 O44 2.390165 1_555
Na1 O64 2.425689 1_555
Na1 O6 2.494977 1_555
Na1 O27 2.584801 1_555
Na1 O13 2.646154 1_565
Na1 O23 2.696323 1_565
Na2 O45 2.237533 1_555
Na2 O60 2.246907 1_555
Na2 O62 2.367068 1_555
Na2 O46 2.422578 1_565
Na2 O24 2.554080 1_554
Na2 O9 2.572568 1_555
Na2 O19 2.589294 1_555
Na2 O17 2.671125 1_555
Na3 O43 2.366620 1_555
Na3 O36 2.416734 1_545
Na3 O38 2.418028 1_555
Na3 O44 2.484022 1_445
Na3 O42 2.491079 1_455
Na3 O37 2.507880 1_445
Na4 O40 2.408045 1_545
Na4 O39 2.410155 1_555
Na4 O47 2.431751 1_556
Na4 O41 2.459503 1_445
Na4 O45 2.462047 1_446
Na4 O46 2.503958 1_456
Na5 O48 2.403455 1_555
Na5 O54 2.404271 1_555
Na5 O55 2.407600 1_555
Na5 O50 2.426240 1_555
Na5 O56 2.471299 1_555
Na5 O49 2.522679 1_555
Na6 O58 2.419229 1_555
Na6 O52 2.420873 1_555
Na6 O51 2.426565 1_555
Na6 O57 2.428057 1_555
Na6 O59 2.451345 1_555
Na6 O53 2.454782 1_555
Na7 O61 2.365308 1_555
Na7 O68 2.416522 1_555
Na7 O66 2.417613 1_555
Na7 O67 2.508256 1_555
Na7 O62 2.520484 1_555
Na7 O60 2.526896 1_555
Na8 O65 2.415228 1_555
Na8 O69 2.418812 1_555
Na8 O64 2.462697 1_555
Na8 O71 2.475254 1_555
Na8 O70 2.489522 1_555
Na8 O63 2.490761 1_555
Ge0 O2 1.861801 1_455
Ge0 O0 1.873426 1_555
Ge0 O1 1.877634 1_445
Ge0 O36 1.912123 1_545
Ge0 O37 1.912918 1_445
Ge0 O38 1.923037 1_555
Ge1 O5 1.786886 1_555
Ge1 O4 1.895114 1_545
Ge1 O39 1.910724 1_655
Ge1 O3 1.913896 1_655
Ge1 O40 1.925477 1_645
Ge1 O41 1.934854 1_545
Ge2 O43 1.807372 1_565
Ge2 O6 1.818770 1_455
Ge2 O7 1.891994 1_565
Ge2 O8 1.897043 1_555
Ge2 O44 1.974548 1_455
Ge2 O42 1.986358 1_465
Ge3 O45 1.844451 1_445
Ge3 O11 1.864038 1_545
Ge3 O10 1.866671 1_555
Ge3 O47 1.896146 1_555
Ge3 O9 1.919686 1_445
Ge3 O46 1.979225 1_455
Ge4 O13 1.848095 1_555
Ge4 O48 1.857062 1_555
Ge4 O12 1.876700 1_555
Ge4 O14 1.884751 1_555
Ge4 O50 1.914202 1_555
Ge4 O49 1.980081 1_555
Ge5 O15 1.794879 1_555
Ge5 O16 1.882700 1_555
Ge5 O53 1.921583 1_555
Ge5 O52 1.927209 1_555
Ge5 O17 1.927615 1_555
Ge5 O51 1.930607 1_555
Ge6 O19 1.817716 1_556
Ge6 O20 1.879562 1_556
Ge6 O18 1.898115 1_556
Ge6 O54 1.919607 1_555
Ge6 O55 1.932957 1_555
Ge6 O56 1.935091 1_555
Ge7 O21 1.799899 1_555
Ge7 O22 1.864712 1_555
Ge7 O23 1.919534 1_555
Ge7 O58 1.923455 1_555
Ge7 O57 1.924424 1_555
Ge7 O59 1.926949 1_555
Ge8 O61 1.803115 1_555
Ge8 O25 1.853920 1_554
Ge8 O26 1.866563 1_554
Ge8 O24 1.909942 1_554
Ge8 O62 1.961770 1_555
Ge8 O60 1.971825 1_555
Ge9 O63 1.848347 1_555
Ge9 O29 1.864707 1_555
Ge9 O28 1.867273 1_555
Ge9 O65 1.888936 1_555
Ge9 O27 1.912458 1_555
Ge9 O64 1.984181 1_555
Ge10 O32 1.861947 1_555
Ge10 O30 1.871368 1_555
Ge10 O31 1.878543 1_555
Ge10 O67 1.911640 1_555
Ge10 O66 1.913310 1_555
Ge10 O68 1.923885 1_555
Ge11 O71 1.852577 1_555
Ge11 O35 1.855382 1_555
Ge11 O33 1.873367 1_555
Ge11 O69 1.887225 1_555
Ge11 O34 1.905233 1_555
Ge11 O70 1.968863 1_555
O0 P0 1.540160 1_555
O1 P1 1.537861 1_555
O2 P2 1.539922 1_555
O3 P3 1.550057 1_555
O4 P4 1.534301 1_555
O5 Si0 1.608260 1_555
O6 Si0 1.632513 1_565
O7 P3 1.536852 1_555
O8 P4 1.552020 1_455
O9 P1 1.555844 1_555
O10 P2 1.547548 1_455
O11 P0 1.543043 1_565
O12 P5 1.543131 1_555
O13 Si1 1.647112 1_555
O14 P6 1.538341 1_555
O15 Si2 1.617778 1_555
O16 P7 1.534029 1_555
O17 P8 1.546840 1_555
O18 P8 1.539545 1_555
O19 Si2 1.638867 1_555
O20 P7 1.535301 1_555
O21 Si1 1.611670 1_555
O22 P6 1.530987 1_555
O23 P5 1.542843 1_555
O24 P9 1.553391 1_555
O25 P10 1.540298 1_555
O26 P11 1.536073 1_555
O27 P12 1.557287 1_555
O28 P13 1.548549 1_555
O29 P14 1.544941 1_555
O30 P14 1.539940 1_555
O31 P12 1.536534 1_555
O32 P13 1.538950 1_555
O33 P10 1.544471 1_555
O34 P11 1.553455 1_555
O35 P9 1.540373 1_555
O36 P14 1.547899 1_555
O37 P12 1.547376 1_555
O38 P13 1.548199 1_555
O39 P10 1.543734 1_555
O40 P11 1.544023 1_555
O41 P9 1.542400 1_555
O42 P5 1.545734 1_555
O43 Si1 1.611756 1_555
O44 P6 1.548761 1_555
O45 Si2 1.647700 1_555
O46 P7 1.552070 1_555
O47 P8 1.531718 1_555
O48 Si0 1.642314 1_555
O49 P3 1.548158 1_555
O50 P4 1.526197 1_555
O51 P1 1.543405 1_555
O52 P2 1.543657 1_555
O53 P0 1.544191 1_555
O54 P9 1.543608 1_555
O55 P10 1.546138 1_655
O56 P11 1.542465 1_545
O57 P12 1.542871 1_545
O58 P13 1.542852 1_555
O59 P14 1.542102 1_655
O60 P8 1.552685 1_555
O61 Si2 1.614512 1_455
O62 P7 1.555230 1_565
O63 Si1 1.646934 1_565
O64 P6 1.555122 1_555
O65 P5 1.532189 1_455
O66 P0 1.547249 1_565
O67 P1 1.548196 1_555
O68 P2 1.548343 1_455
O69 P3 1.530338 1_555
O70 P4 1.552381 1_455
O71 Si0 1.649922 1_565
