# generated using pymatgen
data_Na7TaSi6(GeO8)3
_symmetry_space_group_name_H-M   'P 1'
_cell_length_a   8.84150982
_cell_length_b   8.84806450
_cell_length_c   21.92126970
_cell_angle_alpha   90.07681397
_cell_angle_beta   89.86183238
_cell_angle_gamma   120.04801369
_symmetry_Int_Tables_number   1
_chemical_formula_structural   Na7TaSi6(GeO8)3
_chemical_formula_sum   'Na21 Ta3 Si18 Ge9 O72'
_cell_volume   1484.42910229
_cell_formula_units_Z   3
loop_
 _symmetry_equiv_pos_site_id
 _symmetry_equiv_pos_as_xyz
  1  'x, y, z'
loop_
 _atom_site_type_symbol
 _atom_site_label
 _atom_site_symmetry_multiplicity
 _atom_site_fract_x
 _atom_site_fract_y
 _atom_site_fract_z
 _atom_site_occupancy
  Na  Na0  1  0.36900673  0.36568209  0.24877078  1
  Na  Na1  1  0.63520594  0.63132926  0.74862672  1
  Na  Na2  1  0.99618590  0.36520911  0.74855154  1
  Na  Na3  1  0.36834834  0.00394877  0.74865508  1
  Na  Na4  1  0.29815725  0.33330408  0.58274947  1
  Na  Na5  1  0.03501373  0.70179311  0.58275204  1
  Na  Na6  1  0.66676276  0.96474660  0.58273042  1
  Na  Na7  1  0.30322115  0.96656647  0.08225204  1
  Na  Na8  1  0.66301205  0.69779219  0.08231702  1
  Na  Na9  1  0.03442868  0.33734645  0.08203518  1
  Na  Na10  1  0.96451798  0.66498180  0.91824928  1
  Na  Na11  1  0.70234362  0.03394836  0.91818033  1
  Na  Na12  1  0.96609718  0.29881254  0.41581776  1
  Na  Na13  1  0.33296905  0.03475511  0.41612641  1
  Na  Na14  1  0.70135044  0.66698870  0.41579704  1
  Na  Na15  1  0.00010114  0.00004930  0.49929667  1
  Na  Na16  1  0.00726942  0.00657556  0.99661257  1
  Na  Na17  1  0.65980608  0.33258802  0.83565383  1
  Na  Na18  1  0.67275276  0.33298982  0.32998975  1
  Na  Na19  1  0.33272848  0.67230300  0.16611604  1
  Na  Na20  1  0.33322662  0.66661548  0.66372156  1
  Ta  Ta0  1  0.99940242  0.99924734  0.14568710  1
  Ta  Ta1  1  0.33296812  0.67007672  0.31111987  1
  Ta  Ta2  1  0.33439297  0.66712285  0.81412308  1
  Si  Si0  1  0.29305526  0.00424553  0.25076108  1
  Si  Si1  1  0.71633752  0.70767141  0.25149045  1
  Si  Si2  1  0.98809319  0.28504940  0.25137882  1
  Si  Si3  1  0.28489791  0.28032227  0.74863097  1
  Si  Si4  1  0.99544065  0.71485234  0.74880558  1
  Si  Si5  1  0.71947210  0.00488542  0.74872108  1
  Si  Si6  1  0.95352357  0.33329229  0.58317068  1
  Si  Si7  1  0.37983979  0.04635232  0.58330747  1
  Si  Si8  1  0.66662008  0.62039150  0.58330372  1
  Si  Si9  1  0.95127692  0.61293205  0.08193172  1
  Si  Si10  1  0.66161172  0.04950144  0.08199188  1
  Si  Si11  1  0.38725501  0.33843979  0.08204392  1
  Si  Si12  1  0.62349526  0.66205818  0.91917119  1
  Si  Si13  1  0.04368497  0.37198736  0.91932032  1
  Si  Si14  1  0.33300502  0.96372065  0.91915938  1
  Si  Si15  1  0.62523097  0.95877955  0.41913455  1
  Si  Si16  1  0.33367398  0.37514139  0.41858989  1
  Si  Si17  1  0.04134177  0.66645326  0.41910828  1
  Ge  Ge0  1  0.99932286  0.00026907  0.35206803  1
  Ge  Ge1  1  0.00369004  0.00306667  0.85404929  1
  Ge  Ge2  1  0.00047545  0.00037828  0.64563494  1
  Ge  Ge3  1  0.66652857  0.33350592  0.68553891  1
  Ge  Ge4  1  0.66991742  0.33292211  0.18778070  1
  Ge  Ge5  1  0.66397230  0.33277754  0.97949933  1
  Ge  Ge6  1  0.66660926  0.33347898  0.48089914  1
  Ge  Ge7  1  0.33260016  0.66650144  0.01958127  1
  Ge  Ge8  1  0.33319423  0.66676840  0.51932199  1
  O  O0  1  0.20426472  0.04116639  0.31066605  1
  O  O1  1  0.83408273  0.79849466  0.31200174  1
  O  O2  1  0.96544330  0.16789947  0.31209133  1
  O  O3  1  0.19938223  0.15553679  0.80773287  1
  O  O4  1  0.95740280  0.79685244  0.80975455  1
  O  O5  1  0.83838320  0.04099180  0.80967630  1
  O  O6  1  0.79892302  0.95914951  0.68864668  1
  O  O7  1  0.16129249  0.20298190  0.68800230  1
  O  O8  1  0.04098541  0.83975442  0.68871255  1
  O  O9  1  0.79960827  0.82981291  0.19046307  1
  O  O10  1  0.03343426  0.20131412  0.19111787  1
  O  O11  1  0.17037605  0.97010060  0.19015601  1
  O  O12  1  0.87072007  0.37510320  0.64403754  1
  O  O13  1  0.50439839  0.12928369  0.64400105  1
  O  O14  1  0.62505210  0.49580964  0.64400601  1
  O  O15  1  0.86613615  0.48958540  0.14107447  1
  O  O16  1  0.62146092  0.13343892  0.14115357  1
  O  O17  1  0.50394738  0.37628443  0.14374634  1
  O  O18  1  0.46867962  0.28972672  0.02388634  1
  O  O19  1  0.82848900  0.53624574  0.02131740  1
  O  O20  1  0.70949450  0.17259240  0.02126154  1
  O  O21  1  0.46319135  0.17203176  0.52354580  1
  O  O22  1  0.70887882  0.53688422  0.52352118  1
  O  O23  1  0.82784073  0.29125274  0.52350841  1
  O  O24  1  0.53630737  0.70802189  0.97713574  1
  O  O25  1  0.16696576  0.46512537  0.97835800  1
  O  O26  1  0.29204262  0.83095947  0.97715970  1
  O  O27  1  0.53902263  0.83008731  0.47880936  1
  O  O28  1  0.29144103  0.46217563  0.47815157  1
  O  O29  1  0.16998129  0.70912796  0.47876072  1
  O  O30  1  0.13192035  0.62572808  0.36091395  1
  O  O31  1  0.49432853  0.86752750  0.36101001  1
  O  O32  1  0.37347743  0.50102384  0.35892860  1
  O  O33  1  0.13080664  0.49904766  0.85842858  1
  O  O34  1  0.36909695  0.87115551  0.85837920  1
  O  O35  1  0.50307403  0.63395445  0.85771013  1
  O  O36  1  0.02454970  0.84158168  0.41135606  1
  O  O37  1  0.81771664  0.97639769  0.41176090  1
  O  O38  1  0.15858003  0.18193089  0.41174830  1
  O  O39  1  0.01903046  0.17797955  0.91066043  1
  O  O40  1  0.15239159  0.96831768  0.91016826  1
  O  O41  1  0.81532959  0.84063870  0.91065517  1
  O  O42  1  0.97354252  0.15786562  0.58918036  1
  O  O43  1  0.18413992  0.02629449  0.58925510  1
  O  O44  1  0.84238115  0.81597760  0.58930512  1
  O  O45  1  0.97525443  0.81087981  0.08732086  1
  O  O46  1  0.83555645  0.02545720  0.08780801  1
  O  O47  1  0.18885492  0.16478774  0.08755957  1
  O  O48  1  0.69414666  0.17659765  0.74327804  1
  O  O49  1  0.48244893  0.30599512  0.74303186  1
  O  O50  1  0.82326809  0.51766083  0.74325674  1
  O  O51  1  0.68803013  0.51320526  0.24406672  1
  O  O52  1  0.81934691  0.30514538  0.24367204  1
  O  O53  1  0.48010703  0.18036275  0.24361057  1
  O  O54  1  0.64701382  0.49188247  0.92277410  1
  O  O55  1  0.85148229  0.35873515  0.92271271  1
  O  O56  1  0.51434050  0.14919316  0.92290524  1
  O  O57  1  0.64156698  0.15136521  0.42445564  1
  O  O58  1  0.50993133  0.35833253  0.42449389  1
  O  O59  1  0.84853206  0.48998350  0.42453328  1
  O  O60  1  0.36115433  0.51043571  0.07658525  1
  O  O61  1  0.15005814  0.64052786  0.07675171  1
  O  O62  1  0.48994926  0.85098519  0.07624605  1
  O  O63  1  0.35957301  0.85082274  0.57752477  1
  O  O64  1  0.49109675  0.64031751  0.57750854  1
  O  O65  1  0.14923380  0.50893976  0.57742640  1
  O  O66  1  0.30818511  0.82820229  0.25572754  1
  O  O67  1  0.51978407  0.68557951  0.25660203  1
  O  O68  1  0.17188120  0.47454225  0.25677822  1
  O  O69  1  0.30768348  0.47744705  0.75495545  1
  O  O70  1  0.16984411  0.69235646  0.75499935  1
  O  O71  1  0.52221475  0.83046312  0.75450602  1
loop_
_geom_bond_atom_site_label_1
_geom_bond_atom_site_label_2
_geom_bond_distance
_geom_bond_site_symmetry_2
Na0 O53 2.297468 1_555
Na0 O68 2.382328 1_555
Na0 O51 2.445879 1_555
Na0 O67 2.457484 1_555
Na0 O17 2.570589 1_555
Na0 O32 2.685546 1_555
Na0 O0 2.831904 1_555
Na0 O10 2.864816 1_555
Na1 O50 2.337435 1_555
Na1 O71 2.425002 1_555
Na1 O49 2.496352 1_555
Na1 O69 2.511725 1_555
Na1 O14 2.567382 1_555
Na1 O35 2.664010 1_555
Na1 O4 2.809031 1_555
Na1 O6 2.834389 1_555
Na2 O48 2.338326 1_555
Na2 O69 2.419400 1_655
Na2 O50 2.497389 1_555
Na2 O70 2.511048 1_655
Na2 O12 2.568525 1_555
Na2 O33 2.686121 1_655
Na2 O5 2.822143 1_555
Na2 O7 2.834976 1_655
Na3 O49 2.339995 1_555
Na3 O70 2.419654 1_545
Na3 O48 2.497429 1_555
Na3 O71 2.513181 1_545
Na3 O13 2.568557 1_555
Na3 O34 2.679824 1_545
Na3 O3 2.774994 1_555
Na3 O8 2.831410 1_545
Na4 O64 2.379421 1_555
Na4 O43 2.381930 1_555
Na4 O42 2.490749 1_455
Na4 O65 2.492543 1_555
Na4 O28 2.576175 1_555
Na4 O7 2.591094 1_555
Na4 O21 2.814372 1_555
Na4 O14 2.841807 1_555
Na5 O44 2.379870 1_455
Na5 O65 2.381143 1_555
Na5 O63 2.489153 1_555
Na5 O43 2.492234 1_565
Na5 O29 2.556289 1_555
Na5 O8 2.610875 1_555
Na5 O22 2.815865 1_455
Na5 O12 2.840140 1_455
Na6 O42 2.378354 1_565
Na6 O63 2.380193 1_555
Na6 O64 2.490106 1_555
Na6 O44 2.492565 1_555
Na6 O27 2.557803 1_555
Na6 O6 2.613431 1_555
Na6 O23 2.817885 1_565
Na6 O13 2.839481 1_565
Na7 O62 2.340573 1_555
Na7 O47 2.426315 1_565
Na7 O61 2.501620 1_555
Na7 O45 2.513349 1_455
Na7 O26 2.575200 1_554
Na7 O11 2.645527 1_555
Na7 O16 2.759744 1_565
Na7 O18 2.786519 1_565
Na8 O60 2.336051 1_555
Na8 O45 2.422698 1_555
Na8 O62 2.504959 1_555
Na8 O46 2.513526 1_565
Na8 O24 2.587281 1_554
Na8 O9 2.652713 1_555
Na8 O17 2.806826 1_555
Na8 O19 2.837514 1_555
Na9 O61 2.347031 1_555
Na9 O46 2.421513 1_455
Na9 O60 2.504580 1_555
Na9 O47 2.509780 1_555
Na9 O25 2.546373 1_554
Na9 O10 2.676526 1_555
Na9 O15 2.774300 1_455
Na9 O20 2.823594 1_455
Na10 O40 2.351433 1_655
Na10 O55 2.374665 1_555
Na10 O54 2.435034 1_555
Na10 O41 2.497608 1_555
Na10 O19 2.543743 1_556
Na10 O4 2.665251 1_555
Na10 O26 2.822091 1_655
Na10 O33 2.860790 1_655
Na11 O56 2.347302 1_555
Na11 O41 2.379127 1_545
Na11 O39 2.432296 1_655
Na11 O55 2.492386 1_555
Na11 O20 2.555497 1_556
Na11 O5 2.649455 1_555
Na11 O24 2.811215 1_545
Na11 O34 2.870184 1_545
Na12 O38 2.394851 1_655
Na12 O59 2.395218 1_555
Na12 O37 2.473679 1_545
Na12 O57 2.494032 1_555
Na12 O2 2.549173 1_555
Na12 O23 2.641274 1_555
Na12 O30 2.778281 1_655
Na12 O28 2.842648 1_655
Na13 O36 2.387798 1_545
Na13 O57 2.392718 1_555
Na13 O38 2.468631 1_555
Na13 O58 2.488485 1_555
Na13 O0 2.592363 1_555
Na13 O21 2.636437 1_555
Na13 O31 2.790233 1_545
Na13 O29 2.847119 1_545
Na14 O58 2.393778 1_555
Na14 O37 2.395970 1_555
Na14 O36 2.477877 1_655
Na14 O59 2.495180 1_555
Na14 O1 2.556356 1_555
Na14 O22 2.644023 1_555
Na14 O32 2.804188 1_555
Na14 O27 2.847757 1_555
Na15 O38 2.444076 1_555
Na15 O37 2.449935 1_445
Na15 O36 2.454234 1_545
Na15 O42 2.491201 1_455
Na15 O44 2.492225 1_445
Na15 O43 2.495251 1_555
Na16 O39 2.389516 1_555
Na16 O40 2.402782 1_545
Na16 O41 2.469603 1_445
Na16 O47 2.503834 1_556
Na16 O45 2.558885 1_446
Na16 O46 2.562772 1_456
Na17 O54 2.407905 1_555
Na17 O56 2.419085 1_555
Na17 O55 2.487866 1_555
Na17 O49 2.506267 1_555
Na17 O50 2.549011 1_555
Na17 O48 2.550880 1_555
Na18 O52 2.372280 1_555
Na18 O51 2.428934 1_555
Na18 O53 2.452661 1_555
Na18 O59 2.546783 1_555
Na18 O57 2.551322 1_555
Na18 O58 2.592696 1_555
Na19 O61 2.466613 1_555
Na19 O66 2.469647 1_555
Na19 O62 2.471284 1_555
Na19 O60 2.513338 1_555
Na19 O67 2.550335 1_555
Na19 O68 2.556907 1_555
Na20 O64 2.426005 1_555
Na20 O65 2.430270 1_555
Na20 O63 2.430443 1_555
Na20 O71 2.537061 1_555
Na20 O70 2.540987 1_555
Na20 O69 2.545706 1_555
Ge0 O1 1.866308 1_545
Ge0 O2 1.872773 1_555
Ge0 O0 1.890578 1_655
Ge0 O37 1.996511 1_545
Ge0 O38 2.003625 1_655
Ge0 O36 2.007544 1_645
Ge1 O3 1.871396 1_555
Ge1 O4 1.920636 1_445
Ge1 O5 1.921933 1_455
Ge1 O39 1.933672 1_555
Ge1 O40 1.936521 1_545
Ge1 O41 1.994153 1_445
Ge2 O6 1.881358 1_445
Ge2 O7 1.883392 1_555
Ge2 O8 1.885433 1_545
Ge2 O43 1.958368 1_555
Ge2 O44 1.964607 1_445
Ge2 O42 1.966805 1_455
Ge3 O12 1.884145 1_555
Ge3 O13 1.886000 1_555
Ge3 O14 1.886325 1_555
Ge3 O49 1.972493 1_555
Ge3 O50 1.979371 1_555
Ge3 O48 1.983643 1_555
Ge4 O15 1.888505 1_555
Ge4 O16 1.893051 1_555
Ge4 O52 1.908103 1_555
Ge4 O17 1.950379 1_555
Ge4 O51 1.957661 1_555
Ge4 O53 1.965256 1_555
Ge5 O18 1.845944 1_556
Ge5 O19 1.891230 1_556
Ge5 O20 1.893530 1_556
Ge5 O54 1.941016 1_555
Ge5 O56 1.943797 1_555
Ge5 O55 1.990073 1_555
Ge6 O21 1.889927 1_555
Ge6 O22 1.890847 1_555
Ge6 O23 1.893387 1_555
Ge6 O59 1.948308 1_555
Ge6 O58 1.951989 1_555
Ge6 O57 1.953232 1_555
Ge7 O25 1.877484 1_554
Ge7 O24 1.890716 1_554
Ge7 O26 1.907505 1_554
Ge7 O61 1.961591 1_555
Ge7 O62 1.967640 1_555
Ge7 O60 1.971633 1_555
Ge8 O27 1.884344 1_555
Ge8 O28 1.885680 1_555
Ge8 O29 1.887374 1_555
Ge8 O65 1.984467 1_555
Ge8 O63 1.987423 1_555
Ge8 O64 1.991839 1_555
O0 Si0 1.642617 1_555
O1 Si1 1.629453 1_555
O2 Si2 1.637179 1_555
O3 Si3 1.622459 1_555
O4 Si4 1.632244 1_555
O5 Si5 1.631608 1_555
O6 Si5 1.634092 1_565
O7 Si3 1.638488 1_555
O8 Si4 1.635387 1_455
O9 Si1 1.643777 1_555
O9 Ta0 1.916998 1_555
O10 Si2 1.657387 1_455
O10 Ta0 1.933097 1_445
O11 Si0 1.646360 1_565
O11 Ta0 1.923564 1_455
O12 Si6 1.648739 1_555
O13 Si7 1.648216 1_555
O14 Si8 1.648243 1_555
O15 Si9 1.617090 1_555
O16 Si10 1.618263 1_555
O17 Si11 1.632684 1_555
O18 Si11 1.623034 1_555
O19 Si9 1.634439 1_555
O20 Si10 1.636198 1_555
O21 Si7 1.635383 1_555
O22 Si8 1.635385 1_555
O23 Si6 1.635689 1_555
O24 Si12 1.637700 1_555
O25 Si13 1.626805 1_555
O26 Si14 1.644182 1_555
O27 Si15 1.648883 1_555
O28 Si16 1.649288 1_555
O29 Si17 1.649823 1_555
O30 Si17 1.637510 1_555
O30 Ta1 1.948964 1_555
O31 Si15 1.638121 1_555
O31 Ta1 1.946789 1_555
O32 Si16 1.638307 1_555
O32 Ta1 2.001640 1_555
O33 Si13 1.664581 1_555
O33 Ta2 1.926034 1_555
O34 Si14 1.674700 1_555
O34 Ta2 1.932986 1_555
O35 Si12 1.658778 1_555
O35 Ta2 1.915538 1_555
O36 Si17 1.638059 1_555
O37 Si15 1.637018 1_555
O38 Si16 1.640633 1_555
O39 Si13 1.629369 1_555
O40 Si14 1.630081 1_555
O41 Si12 1.650359 1_555
O42 Si6 1.653408 1_555
O43 Si7 1.653427 1_555
O44 Si8 1.653551 1_555
O45 Si9 1.659583 1_555
O45 Ta0 2.024770 1_555
O46 Si10 1.659951 1_555
O46 Ta0 2.026884 1_545
O47 Si11 1.659156 1_555
O47 Ta0 2.027933 1_445
O48 Si5 1.647428 1_555
O49 Si3 1.648985 1_555
O50 Si4 1.648261 1_555
O51 Si1 1.618003 1_555
O52 Si2 1.597845 1_555
O53 Si0 1.614466 1_555
O54 Si12 1.621924 1_555
O55 Si13 1.645288 1_655
O56 Si14 1.623492 1_545
O57 Si15 1.640485 1_545
O58 Si16 1.643336 1_555
O59 Si17 1.640771 1_655
O60 Si11 1.654045 1_555
O61 Si9 1.652503 1_455
O62 Si10 1.653853 1_565
O63 Si7 1.652375 1_565
O64 Si8 1.652454 1_555
O65 Si6 1.652795 1_455
O66 Si0 1.632541 1_565
O66 Ta1 1.947515 1_555
O67 Si1 1.652195 1_555
O67 Ta1 1.984775 1_555
O68 Si2 1.654572 1_455
O68 Ta1 1.993934 1_555
O69 Si3 1.658175 1_555
O69 Ta2 2.037980 1_555
O70 Si4 1.656575 1_455
O70 Ta2 2.044853 1_555
O71 Si5 1.656361 1_565
O71 Ta2 2.036040 1_555
