# generated using pymatgen
data_Ba2YbMgRuO6
_symmetry_space_group_name_H-M   'P 1'
_cell_length_a   5.98798775
_cell_length_b   6.33682222
_cell_length_c   6.33681891
_cell_angle_alpha   55.88564498
_cell_angle_beta   61.80489444
_cell_angle_gamma   61.80483182
_symmetry_Int_Tables_number   1
_chemical_formula_structural   Ba2YbMgRuO6
_chemical_formula_sum   'Ba2 Yb1 Mg1 Ru1 O6'
_cell_volume   168.20870167
_cell_formula_units_Z   1
loop_
 _symmetry_equiv_pos_site_id
 _symmetry_equiv_pos_as_xyz
  1  'x, y, z'
loop_
 _atom_site_type_symbol
 _atom_site_label
 _atom_site_symmetry_multiplicity
 _atom_site_fract_x
 _atom_site_fract_y
 _atom_site_fract_z
 _atom_site_occupancy
  Ba  Ba0  1  0.81242100  0.68757900  0.68758400  1
  Ba  Ba1  1  0.18758400  0.31241600  0.31242100  1
  Yb  Yb0  1  0.50000000  0.50000000  0.50000000  1
  Mg  Mg0  1  0.49999800  0.99999900  0.00000100  1
  Ru  Ru0  1  0.00000000  0.99999900  0.00000100  1
  O  O0  1  0.21505200  0.78495300  0.78494500  1
  O  O1  1  0.25341700  0.76925800  0.23074200  1
  O  O2  1  0.74657900  0.23074000  0.76926000  1
  O  O3  1  0.25342500  0.23074200  0.76925800  1
  O  O4  1  0.78495000  0.21505500  0.21504700  1
  O  O5  1  0.74657500  0.76926000  0.23074000  1
loop_
_geom_bond_atom_site_label_1
_geom_bond_atom_site_label_2
_geom_bond_distance
_geom_bond_site_symmetry_2
Ba0 O1 2.829975 1_655
Ba0 O3 2.829981 1_655
Ba0 O2 2.829994 1_555
Ba0 O5 2.830021 1_555
Ba0 Mg0 2.955559 1_556
Ba0 O4 2.980683 1_556
Ba0 O4 2.980760 1_565
Ba0 O0 3.132477 1_655
Ba0 O0 3.132494 1_555
Ba1 O1 2.829975 1_555
Ba1 O3 2.829982 1_555
Ba1 O2 2.829993 1_455
Ba1 O5 2.830021 1_455
Ba1 Mg0 2.955559 1_545
Ba1 O0 2.980683 1_545
Ba1 O0 2.980760 1_554
Ba1 O4 3.132476 1_555
Ba1 O4 3.132494 1_455
Mg0 O3 2.014389 1_564
Mg0 O5 2.014390 1_555
Mg0 O2 2.014419 1_564
Mg0 O1 2.014419 1_555
O0 Ru0 2.034438 1_556
O0 Yb0 2.695691 1_555
O1 Ru0 2.044609 1_555
O1 Yb0 2.176494 1_555
O2 Ru0 2.044627 1_646
O2 Yb0 2.176487 1_555
O3 Ru0 2.044655 1_546
O3 Yb0 2.176465 1_555
O4 Ru0 2.034438 1_645
O4 Yb0 2.695691 1_555
O5 Ru0 2.044640 1_655
O5 Yb0 2.176473 1_555
