# generated using pymatgen
data_Nd2MgNb2O8
_symmetry_space_group_name_H-M   'P 1'
_cell_length_a   5.42742981
_cell_length_b   5.67394597
_cell_length_c   6.98454552
_cell_angle_alpha   113.32622322
_cell_angle_beta   112.21404087
_cell_angle_gamma   91.49530753
_symmetry_Int_Tables_number   1
_chemical_formula_structural   Nd2MgNb2O8
_chemical_formula_sum   'Nd2 Mg1 Nb2 O8'
_cell_volume   178.89664253
_cell_formula_units_Z   1
loop_
 _symmetry_equiv_pos_site_id
 _symmetry_equiv_pos_as_xyz
  1  'x, y, z'
loop_
 _atom_site_type_symbol
 _atom_site_label
 _atom_site_symmetry_multiplicity
 _atom_site_fract_x
 _atom_site_fract_y
 _atom_site_fract_z
 _atom_site_occupancy
  Nd  Nd0  1  0.13284900  0.38252600  0.76516400  1
  Nd  Nd1  1  0.88966900  0.63932200  0.27904700  1
  Mg  Mg0  1  0.83815600  0.08774500  0.17581000  1
  Nb  Nb0  1  0.60808000  0.85791400  0.71578500  1
  Nb  Nb1  1  0.35202300  0.10162400  0.20348000  1
  O  O0  1  0.81273500  0.97046200  0.58581500  1
  O  O1  1  0.27357200  0.61502400  0.58579400  1
  O  O2  1  0.18557200  0.05151100  0.40824700  1
  O  O3  1  0.72325700  0.35621300  0.40817500  1
  O  O4  1  0.09241600  0.30423300  0.09369800  1
  O  O5  1  0.50152700  0.78895100  0.09359800  1
  O  O6  1  0.91531400  0.76141400  0.93992700  1
  O  O7  1  0.52483100  0.17829900  0.93990500  1
loop_
_geom_bond_atom_site_label_1
_geom_bond_atom_site_label_2
_geom_bond_distance
_geom_bond_site_symmetry_2
Nd0 O1 2.423402 1_555
Nd0 O0 2.424267 1_445
Nd0 O7 2.577546 1_555
Nd0 O6 2.578674 1_455
Nd0 O3 2.584165 1_455
Nd0 O5 2.585163 1_556
Nd0 O2 2.585245 1_555
Nd0 O4 2.587257 1_556
Nd1 O5 2.395271 1_555
Nd1 O4 2.395574 1_655
Nd1 O1 2.413322 1_655
Nd1 O0 2.413445 1_555
Nd1 O3 2.428386 1_555
Nd1 O2 2.428996 1_665
Nd1 O7 2.765953 1_554
Nd1 O6 2.766442 1_554
Mg0 O3 2.049459 1_555
Mg0 O2 2.050171 1_655
Mg0 O6 2.112920 1_544
Mg0 O7 2.113787 1_554
Mg0 O4 2.193158 1_655
Mg0 O5 2.194558 1_545
Nb0 O0 1.910529 1_555
Nb0 O1 1.910981 1_555
Nb0 O7 2.069602 1_565
Nb0 O6 2.069732 1_555
Nb1 O4 1.964810 1_555
Nb1 O5 1.965340 1_545
Nb1 O3 2.055415 1_555
Nb1 O2 2.056228 1_555
Nb1 O7 2.525187 1_554
Nb1 O6 2.526012 1_444
