# generated using pymatgen
data_PrSnPd
_symmetry_space_group_name_H-M   'P 1'
_cell_length_a   4.72733922
_cell_length_b   7.58469446
_cell_length_c   8.00745778
_cell_angle_alpha   90.00005212
_cell_angle_beta   89.99999258
_cell_angle_gamma   90.00000000
_symmetry_Int_Tables_number   1
_chemical_formula_structural   PrSnPd
_chemical_formula_sum   'Pr4 Sn4 Pd4'
_cell_volume   287.11079060
_cell_formula_units_Z   4
loop_
 _symmetry_equiv_pos_site_id
 _symmetry_equiv_pos_as_xyz
  1  'x, y, z'
loop_
 _atom_site_type_symbol
 _atom_site_label
 _atom_site_symmetry_multiplicity
 _atom_site_fract_x
 _atom_site_fract_y
 _atom_site_fract_z
 _atom_site_occupancy
  Pr  Pr0  1  0.25000000  0.48745585  0.29825921  1
  Pr  Pr1  1  0.75000000  0.51254361  0.70173938  1
  Pr  Pr2  1  0.25000000  0.98746932  0.20165994  1
  Pr  Pr3  1  0.75000000  0.01252961  0.79834053  1
  Sn  Sn0  1  0.25000000  0.81219312  0.58779825  1
  Sn  Sn1  1  0.75000000  0.68777113  0.08774817  1
  Sn  Sn2  1  0.25000000  0.31222959  0.91224953  1
  Sn  Sn3  1  0.75000000  0.18780720  0.41220481  1
  Pd  Pd0  1  0.75000000  0.30132807  0.08383001  1
  Pd  Pd1  1  0.25000000  0.19868780  0.58384342  1
  Pd  Pd2  1  0.75000000  0.80131172  0.41615638  1
  Pd  Pd3  1  0.25000000  0.69867298  0.91617138  1
loop_
_geom_bond_atom_site_label_1
_geom_bond_atom_site_label_2
_geom_bond_distance
_geom_bond_site_symmetry_2
Pr0 Sn1 3.276697 1_555
Pr0 Sn1 3.276698 1_455
Pr0 Sn2 3.364572 1_554
Pr0 Sn0 3.382578 1_555
Pr0 Sn3 3.403645 1_455
Pr0 Sn3 3.403645 1_555
Pr0 Pr2 3.870328 1_545
Pr0 Pr2 3.870530 1_555
Pr0 Pr1 4.007684 1_455
Pr0 Pr1 4.007685 1_555
Pr1 Sn2 3.276689 1_555
Pr1 Sn2 3.276690 1_655
Pr1 Sn1 3.364569 1_556
Pr1 Sn3 3.382548 1_555
Pr1 Sn0 3.403640 1_655
Pr1 Sn0 3.403640 1_555
Pr1 Pr3 3.870327 1_565
Pr1 Pr3 3.870537 1_555
Pr2 Sn3 3.276915 1_465
Pr2 Sn3 3.276915 1_565
Pr2 Sn0 3.365670 1_555
Pr2 Sn2 3.382002 1_564
Pr2 Sn1 3.403822 1_555
Pr2 Sn1 3.403823 1_455
Pr2 Pr3 4.006637 1_564
Pr2 Pr3 4.006637 1_464
Pr3 Sn0 3.276899 1_645
Pr3 Sn0 3.276900 1_545
Pr3 Sn3 3.365655 1_555
Pr3 Sn1 3.381977 1_546
Pr3 Sn2 3.403825 1_555
Pr3 Sn2 3.403826 1_655
Pd0 Sn2 2.735221 1_654
Pd0 Sn2 2.735222 1_554
Pd0 Sn3 2.766831 1_555
Pd0 Sn1 2.931220 1_555
Pd0 Pr3 3.166079 1_554
Pd0 Pr0 3.244702 1_555
Pd0 Pr0 3.244702 1_655
Pd0 Pr1 3.453611 1_554
Pd0 Pr2 3.484832 1_545
Pd0 Pr2 3.484832 1_645
Pd1 Sn3 2.735450 1_555
Pd1 Sn3 2.735451 1_455
Pd1 Sn2 2.767117 1_555
Pd1 Sn0 2.931615 1_545
Pd1 Pr0 3.166470 1_555
Pd1 Pr3 3.245091 1_455
Pd1 Pr3 3.245092 1_555
Pd1 Pr2 3.454277 1_545
Pd1 Pr1 3.484959 1_455
Pd1 Pr1 3.484959 1_555
Pd2 Sn0 2.735464 1_555
Pd2 Sn0 2.735464 1_655
Pd2 Sn1 2.767130 1_555
Pd2 Sn3 2.931621 1_565
Pd2 Pr1 3.166463 1_555
Pd2 Pr2 3.245087 1_655
Pd2 Pr2 3.245087 1_555
Pd2 Pr3 3.454280 1_565
Pd2 Pr0 3.484962 1_655
Pd2 Pr0 3.484962 1_555
Pd3 Sn1 2.735207 1_456
Pd3 Sn1 2.735207 1_556
Pd3 Sn0 2.766817 1_555
Pd3 Sn2 2.931223 1_555
Pd3 Pr2 3.166062 1_556
Pd3 Pr1 3.244719 1_555
Pd3 Pr1 3.244719 1_455
Pd3 Pr0 3.453596 1_556
Pd3 Pr3 3.484823 1_565
Pd3 Pr3 3.484823 1_465
