# generated using pymatgen
data_In2O3
_symmetry_space_group_name_H-M   'P 1'
_cell_length_a   8.81329933
_cell_length_b   8.81312684
_cell_length_c   8.81325327
_cell_angle_alpha   109.46946077
_cell_angle_beta   109.47298967
_cell_angle_gamma   109.46915933
_symmetry_Int_Tables_number   1
_chemical_formula_structural   In2O3
_chemical_formula_sum   'In16 O24'
_cell_volume   526.97971591
_cell_formula_units_Z   8
loop_
 _symmetry_equiv_pos_site_id
 _symmetry_equiv_pos_as_xyz
  1  'x, y, z'
loop_
 _atom_site_type_symbol
 _atom_site_label
 _atom_site_symmetry_multiplicity
 _atom_site_fract_x
 _atom_site_fract_y
 _atom_site_fract_z
 _atom_site_occupancy
  In  In0  1  0.75000736  0.28400235  0.53400718  1
  In  In1  1  0.25000207  0.71620933  0.46618611  1
  In  In2  1  0.00000143  0.00027884  0.49999269  1
  In  In3  1  0.50002654  0.99998023  0.00028908  1
  In  In4  1  0.53397508  0.74998013  0.28399100  1
  In  In5  1  0.46620116  0.25000139  0.71620783  1
  In  In6  1  0.74999423  0.78379812  0.03380452  1
  In  In7  1  0.24999548  0.21598506  0.96601417  1
  In  In8  1  0.28397426  0.53396759  0.74998309  1
  In  In9  1  0.03382555  0.74998472  0.78377454  1
  In  In10  1  0.00019915  0.50002173  0.00000712  1
  In  In11  1  0.49973895  0.49974481  0.49974489  1
  In  In12  1  0.96600186  0.25001910  0.21600093  1
  In  In13  1  0.71616984  0.46618783  0.24999272  1
  In  In14  1  0.21602144  0.96603200  0.24999770  1
  In  In15  1  0.78381925  0.03380103  0.75001033  1
  O  O0  1  0.54471638  0.53681346  0.77213559  1
  O  O1  1  0.53682767  0.77213027  0.54471219  1
  O  O2  1  0.96316941  0.50794561  0.23533385  1
  O  O3  1  0.26470990  0.77256845  0.72785985  1
  O  O4  1  0.46309644  0.22764555  0.45529333  1
  O  O5  1  0.04469708  0.27233725  0.00778715  1
  O  O6  1  0.22761230  0.45529147  0.46305487  1
  O  O7  1  0.99215191  0.95531363  0.72743942  1
  O  O8  1  0.27234427  0.73541597  0.22763933  1
  O  O9  1  0.23534832  0.96321810  0.50787381  1
  O  O10  1  0.50789050  0.23528737  0.96318974  1
  O  O11  1  0.00774955  0.04470437  0.27231190  1
  O  O12  1  0.76452619  0.03691753  0.49222744  1
  O  O13  1  0.95530489  0.72748210  0.99209699  1
  O  O14  1  0.22766786  0.27236132  0.73543765  1
  O  O15  1  0.72740806  0.99209735  0.95528183  1
  O  O16  1  0.77259238  0.72788866  0.26471861  1
  O  O17  1  0.72786677  0.26469197  0.77261420  1
  O  O18  1  0.73547488  0.22768663  0.27239844  1
  O  O19  1  0.03690895  0.49219815  0.76455438  1
  O  O20  1  0.27236657  0.00773029  0.04469846  1
  O  O21  1  0.49220448  0.76449859  0.03691524  1
  O  O22  1  0.77213845  0.54473906  0.53681718  1
  O  O23  1  0.45527113  0.46304158  0.22760963  1
loop_
_geom_bond_atom_site_label_1
_geom_bond_atom_site_label_2
_geom_bond_distance
_geom_bond_site_symmetry_2
In0 O12 2.139277 1_555
In0 O18 2.139290 1_555
In0 O19 2.210292 1_655
In0 O4 2.210315 1_555
In0 O22 2.231390 1_555
In0 O17 2.231426 1_555
In1 O3 2.139214 1_555
In1 O9 2.139283 1_555
In1 O2 2.210740 1_455
In1 O1 2.210831 1_555
In1 O8 2.231236 1_555
In1 O6 2.231368 1_555
In2 O14 2.186698 1_555
In2 O11 2.186707 1_555
In2 O12 2.186919 1_455
In2 O16 2.187037 1_445
In2 O7 2.187178 1_445
In2 O9 2.187329 1_545
In3 O20 2.186492 1_565
In3 O21 2.186773 1_555
In3 O18 2.186889 1_565
In3 O15 2.186898 1_554
In3 O10 2.187149 1_564
In3 O3 2.187297 1_554
In4 O21 2.139216 1_555
In4 O8 2.139318 1_555
In4 O23 2.210493 1_555
In4 O12 2.210546 1_565
In4 O1 2.231106 1_555
In4 O16 2.231241 1_555
In5 O17 2.139129 1_555
In5 O10 2.139298 1_555
In5 O9 2.210603 1_545
In5 O0 2.210702 1_555
In5 O14 2.231258 1_555
In5 O4 2.231532 1_555
In6 O13 2.139183 1_554
In6 O0 2.139259 1_554
In6 O15 2.210703 1_554
In6 O16 2.210824 1_555
In6 O21 2.231279 1_555
In6 O11 2.231280 1_665
In7 O23 2.139199 1_556
In7 O5 2.139440 1_556
In7 O14 2.210599 1_555
In7 O20 2.210627 1_556
In7 O7 2.230935 1_445
In7 O10 2.231247 1_555
In8 O14 2.139213 1_555
In8 O19 2.139384 1_555
In8 O21 2.210450 1_556
In8 O6 2.210494 1_555
In8 O3 2.231126 1_555
In8 O0 2.231307 1_555
In9 O22 2.139190 1_455
In9 O7 2.139252 1_455
In9 O3 2.210668 1_555
In9 O13 2.210762 1_455
In9 O19 2.231294 1_555
In9 O20 2.231382 1_566
In10 O8 2.186760 1_555
In10 O17 2.186891 1_454
In10 O19 2.186915 1_554
In10 O2 2.186951 1_455
In10 O5 2.187089 1_555
In10 O13 2.187116 1_454
In11 O4 2.186676 1_555
In11 O23 2.186819 1_555
In11 O6 2.186825 1_555
In11 O1 2.187008 1_555
In11 O0 2.187094 1_555
In11 O22 2.187146 1_555
In12 O6 2.139236 1_655
In12 O11 2.139278 1_655
In12 O5 2.210275 1_655
In12 O18 2.210330 1_555
In12 O15 2.231383 1_544
In12 O2 2.231433 1_555
In13 O2 2.139184 1_555
In13 O16 2.139281 1_555
In13 O22 2.210677 1_555
In13 O10 2.210726 1_554
In13 O23 2.231200 1_555
In13 O18 2.231317 1_555
In14 O20 2.139173 1_565
In14 O4 2.139367 1_565
In14 O8 2.210620 1_555
In14 O11 2.210622 1_565
In14 O9 2.230964 1_555
In14 O13 2.231202 1_454
In15 O15 2.139217 1_545
In15 O1 2.139324 1_545
In15 O7 2.210818 1_545
In15 O17 2.210821 1_555
In15 O12 2.231227 1_555
In15 O5 2.231312 1_656
