# generated using pymatgen
data_TlBS3
_symmetry_space_group_name_H-M   'P 1'
_cell_length_a   12.17007700
_cell_length_b   5.83175800
_cell_length_c   7.06762971
_cell_angle_alpha   66.32774426
_cell_angle_beta   90.00000000
_cell_angle_gamma   90.00000000
_symmetry_Int_Tables_number   1
_chemical_formula_structural   TlBS3
_chemical_formula_sum   'Tl4 B4 S12'
_cell_volume   459.40353655
_cell_formula_units_Z   4
loop_
 _symmetry_equiv_pos_site_id
 _symmetry_equiv_pos_as_xyz
  1  'x, y, z'
loop_
 _atom_site_type_symbol
 _atom_site_label
 _atom_site_symmetry_multiplicity
 _atom_site_fract_x
 _atom_site_fract_y
 _atom_site_fract_z
 _atom_site_occupancy
  Tl  Tl0  1  0.91033500  0.27477600  0.24785800  1
  Tl  Tl1  1  0.41033500  0.22522400  0.75214200  1
  Tl  Tl2  1  0.08966500  0.72522400  0.75214200  1
  Tl  Tl3  1  0.58966500  0.77477600  0.24785800  1
  B  B0  1  0.76954400  0.35904600  0.70029400  1
  B  B1  1  0.26954400  0.14095400  0.29970600  1
  B  B2  1  0.23045600  0.64095400  0.29970600  1
  B  B3  1  0.73045600  0.85904600  0.70029400  1
  S  S0  1  0.81750300  0.83145300  0.94113000  1
  S  S1  1  0.31750300  0.66854700  0.05887000  1
  S  S2  1  0.18249700  0.16854700  0.05887000  1
  S  S3  1  0.68249700  0.33145300  0.94113000  1
  S  S4  1  0.59904500  0.67162300  0.81047500  1
  S  S5  1  0.09904500  0.82837700  0.18952500  1
  S  S6  1  0.40095500  0.32837700  0.18952500  1
  S  S7  1  0.90095500  0.17162300  0.81047500  1
  S  S8  1  0.80110100  0.70348800  0.53699300  1
  S  S9  1  0.30110100  0.79651200  0.46300700  1
  S  S10  1  0.19889900  0.29651200  0.46300700  1
  S  S11  1  0.69889900  0.20348800  0.53699300  1
loop_
_geom_bond_atom_site_label_1
_geom_bond_atom_site_label_2
_geom_bond_distance
_geom_bond_site_symmetry_2
B0 S8 1.911228 1_555
B0 S7 1.917105 1_555
B0 S11 1.932609 1_555
B0 S3 1.955886 1_555
B1 S9 1.911228 1_545
B1 S6 1.917105 1_555
B1 S10 1.932609 1_555
B1 S2 1.955886 1_555
B2 S10 1.911228 1_555
B2 S5 1.917105 1_555
B2 S9 1.932609 1_555
B2 S1 1.955886 1_555
B3 S11 1.911228 1_565
B3 S4 1.917105 1_555
B3 S8 1.932609 1_555
B3 S0 1.955886 1_555
S0 Tl0 3.296019 1_556
S1 Tl1 3.296019 1_564
S2 Tl2 3.296019 1_554
S3 Tl3 3.296019 1_546
S8 Tl3 3.207467 1_555
S9 Tl2 3.207467 1_555
S10 Tl1 3.207467 1_555
S11 Tl0 3.207467 1_555
