# generated using pymatgen
data_Na2LaAlSi(SO6)2
_symmetry_space_group_name_H-M   'P 1'
_cell_length_a   9.03602588
_cell_length_b   9.06386903
_cell_length_c   23.33643509
_cell_angle_alpha   89.56830342
_cell_angle_beta   88.84286000
_cell_angle_gamma   120.32986612
_symmetry_Int_Tables_number   1
_chemical_formula_structural   Na2LaAlSi(SO6)2
_chemical_formula_sum   'Na12 La6 Al6 Si6 S12 O72'
_cell_volume   1649.00799389
_cell_formula_units_Z   6
loop_
 _symmetry_equiv_pos_site_id
 _symmetry_equiv_pos_as_xyz
  1  'x, y, z'
loop_
 _atom_site_type_symbol
 _atom_site_label
 _atom_site_symmetry_multiplicity
 _atom_site_fract_x
 _atom_site_fract_y
 _atom_site_fract_z
 _atom_site_occupancy
  Na  Na0  1  0.99691336  0.62818601  0.25628303  1
  Na  Na1  1  0.38136841  0.01257493  0.74043266  1
  Na  Na2  1  0.65653091  0.95899540  0.59631582  1
  Na  Na3  1  0.03236629  0.33859650  0.10149052  1
  Na  Na4  1  0.99399003  0.67864853  0.93180614  1
  Na  Na5  1  0.32565106  0.02440540  0.41572455  1
  Na  Na6  1  0.01220570  0.98125485  0.50190859  1
  Na  Na7  1  0.02128866  0.98140162  0.00441898  1
  Na  Na8  1  0.67215910  0.30082775  0.82689422  1
  Na  Na9  1  0.67869944  0.33496221  0.33817141  1
  Na  Na10  1  0.33257151  0.65201382  0.17858852  1
  Na  Na11  1  0.33016593  0.66547127  0.65992340  1
  La  La0  1  0.99444382  0.01082726  0.84069358  1
  La  La1  1  0.00010636  0.98326472  0.16710846  1
  La  La2  1  0.64666951  0.31661411  0.98343004  1
  La  La3  1  0.33790437  0.69506924  0.02545896  1
  La  La4  1  0.31125786  0.67760261  0.51089634  1
  La  La5  1  0.36370446  0.68831921  0.80565044  1
  Al  Al0  1  0.96665162  0.98986622  0.34889516  1
  Al  Al1  1  0.01868641  0.99875409  0.64719800  1
  Al  Al2  1  0.66479740  0.32253254  0.67690942  1
  Al  Al3  1  0.69341420  0.32330713  0.19208308  1
  Al  Al4  1  0.68300473  0.36367655  0.49089863  1
  Al  Al5  1  0.28764855  0.62665707  0.32195374  1
  Si  Si0  1  0.00150994  0.29567800  0.25302933  1
  Si  Si1  1  0.71878350  0.02256074  0.73182609  1
  Si  Si2  1  0.38071715  0.07219024  0.58133967  1
  Si  Si3  1  0.94817029  0.62092472  0.09028436  1
  Si  Si4  1  0.32878350  0.98075048  0.90583782  1
  Si  Si5  1  0.01183033  0.67280089  0.41244937  1
  S  S0  1  0.32534530  0.99244194  0.25866936  1
  S  S1  1  0.67267924  0.68671553  0.26032503  1
  S  S2  1  0.31490678  0.29887398  0.73506536  1
  S  S3  1  0.98108029  0.69017001  0.73763830  1
  S  S4  1  0.93937109  0.32603393  0.58204753  1
  S  S5  1  0.68309967  0.62491138  0.58634559  1
  S  S6  1  0.66454790  0.03724421  0.09773167  1
  S  S7  1  0.37160561  0.33567981  0.09644246  1
  S  S8  1  0.64529778  0.66775733  0.91750031  1
  S  S9  1  0.03926746  0.36474249  0.91804690  1
  S  S10  1  0.63675251  0.96760943  0.41351659  1
  S  S11  1  0.31762180  0.35745441  0.41139588  1
  O  O0  1  0.23866656  0.02773274  0.30618751  1
  O  O1  1  0.81453324  0.79521576  0.30045970  1
  O  O2  1  0.98047187  0.14751387  0.29903863  1
  O  O3  1  0.26092389  0.21570552  0.79278718  1
  O  O4  1  0.95546168  0.74502852  0.79481645  1
  O  O5  1  0.78865943  0.02729452  0.79614925  1
  O  O6  1  0.84290285  0.00784776  0.68163622  1
  O  O7  1  0.19684723  0.18234093  0.69192655  1
  O  O8  1  0.01221273  0.82429303  0.69335460  1
  O  O9  1  0.71534896  0.77122994  0.20288336  1
  O  O10  1  0.03712582  0.24427178  0.18986109  1
  O  O11  1  0.21540319  0.93536636  0.20695030  1
  O  O12  1  0.85320968  0.33956239  0.63420253  1
  O  O13  1  0.49822252  0.15897309  0.63680907  1
  O  O14  1  0.67139651  0.51755300  0.63541898  1
  O  O15  1  0.82992745  0.49936023  0.14619254  1
  O  O16  1  0.66446935  0.14794593  0.14417392  1
  O  O17  1  0.46480173  0.31330020  0.14345226  1
  O  O18  1  0.44676086  0.33958092  0.03903550  1
  O  O19  1  0.87413806  0.54177434  0.02685073  1
  O  O20  1  0.65387661  0.10297919  0.04063321  1
  O  O21  1  0.48344129  0.18942809  0.52178306  1
  O  O22  1  0.69804189  0.54905604  0.53139353  1
  O  O23  1  0.84587683  0.32825317  0.52996504  1
  O  O24  1  0.54102535  0.64034732  0.96986752  1
  O  O25  1  0.12409940  0.45041756  0.97149176  1
  O  O26  1  0.32122505  0.86290082  0.96155505  1
  O  O27  1  0.59142955  0.88276936  0.47152025  1
  O  O28  1  0.29197713  0.42179815  0.46657942  1
  O  O29  1  0.14505759  0.75198514  0.46628492  1
  O  O30  1  0.11403287  0.62975641  0.36119496  1
  O  O31  1  0.50843773  0.85960366  0.37140564  1
  O  O32  1  0.33311453  0.47721434  0.36434389  1
  O  O33  1  0.14920573  0.45196351  0.86657917  1
  O  O34  1  0.32637924  0.88908565  0.84447212  1
  O  O35  1  0.55612694  0.67223202  0.86571242  1
  O  O36  1  0.99432690  0.83911416  0.39242410  1
  O  O37  1  0.81102283  0.99550362  0.39996116  1
  O  O38  1  0.16816385  0.18117471  0.40281436  1
  O  O39  1  0.99727032  0.18543994  0.92210562  1
  O  O40  1  0.14740254  0.97872077  0.91349608  1
  O  O41  1  0.80973467  0.83070670  0.92239256  1
  O  O42  1  0.94545091  0.16618997  0.58031959  1
  O  O43  1  0.18085807  0.03764864  0.59168910  1
  O  O44  1  0.83906948  0.80018571  0.58901810  1
  O  O45  1  0.97928299  0.81467803  0.09159451  1
  O  O46  1  0.82652365  0.03521060  0.09659586  1
  O  O47  1  0.19131986  0.18877874  0.09348497  1
  O  O48  1  0.68715069  0.18742347  0.72956884  1
  O  O49  1  0.49196957  0.32971794  0.72717164  1
  O  O50  1  0.83109969  0.52356520  0.72612000  1
  O  O51  1  0.67082531  0.52062585  0.25745124  1
  O  O52  1  0.83068822  0.32339968  0.24831215  1
  O  O53  1  0.49332721  0.15026157  0.24465892  1
  O  O54  1  0.68580814  0.52947552  0.90939115  1
  O  O55  1  0.87970599  0.37323455  0.91119618  1
  O  O56  1  0.49803348  0.16918121  0.90553500  1
  O  O57  1  0.64413633  0.13522215  0.41624191  1
  O  O58  1  0.47640356  0.34687186  0.41167973  1
  O  O59  1  0.82934998  0.49833721  0.43314442  1
  O  O60  1  0.36517106  0.49584212  0.10238106  1
  O  O61  1  0.13352174  0.62502760  0.09609399  1
  O  O62  1  0.51445255  0.86540170  0.10708261  1
  O  O63  1  0.37177750  0.88392126  0.57764065  1
  O  O64  1  0.52921073  0.64461238  0.58543616  1
  O  O65  1  0.11602318  0.47469016  0.58238212  1
  O  O66  1  0.34968514  0.84451264  0.27281350  1
  O  O67  1  0.50617534  0.66449005  0.27874598  1
  O  O68  1  0.16228089  0.49154613  0.26552304  1
  O  O69  1  0.31630174  0.46177531  0.73253092  1
  O  O70  1  0.14030686  0.67906777  0.73659330  1
  O  O71  1  0.52306782  0.85309529  0.72681585  1
loop_
_geom_bond_atom_site_label_1
_geom_bond_atom_site_label_2
_geom_bond_distance
_geom_bond_site_symmetry_2
Na0 O68 2.385626 1_655
Na0 O52 2.398048 1_555
Na0 O51 2.593923 1_555
Na0 O30 2.684060 1_655
Na0 O11 2.698790 1_655
Na0 O66 2.811254 1_655
Na0 O1 2.923248 1_555
Na0 O15 2.943283 1_555
Na1 O71 2.385291 1_545
Na1 O48 2.398649 1_555
Na1 O49 2.535795 1_555
Na1 O34 2.596745 1_545
Na1 O13 2.675229 1_555
Na1 O70 2.693020 1_545
Na1 O3 2.840945 1_555
Na2 O42 2.341005 1_565
Na2 O63 2.356897 1_555
Na2 O64 2.493915 1_555
Na2 O6 2.528261 1_565
Na2 O44 2.685475 1_555
Na2 O13 2.968926 1_565
Na2 O27 2.998971 1_555
Na3 O10 2.236029 1_555
Na3 O61 2.277112 1_555
Na3 O46 2.425283 1_455
Na3 O47 2.429951 1_555
Na3 O60 2.597972 1_555
Na4 O40 2.377467 1_655
Na4 O55 2.472617 1_555
Na4 O54 2.474536 1_555
Na4 O19 2.477112 1_556
Na4 O41 2.654719 1_555
Na4 O26 2.669709 1_655
Na5 O29 2.441483 1_545
Na5 O38 2.487568 1_555
Na5 O57 2.524523 1_555
Na5 O58 2.525234 1_555
Na5 O36 2.660978 1_445
Na5 O0 2.693845 1_555
Na5 O21 2.905230 1_555
Na5 O31 2.911174 1_545
Na6 O43 2.516297 1_565
Na6 O44 2.549816 1_455
Na6 O42 2.746758 1_465
Na6 O38 2.800600 1_565
Na6 O36 2.840758 1_455
Na6 O29 2.992618 1_555
Na6 O37 3.064090 1_455
Na7 O40 2.394242 1_554
Na7 O45 2.430950 1_455
Na7 O41 2.595037 1_454
Na7 O47 2.735852 1_565
Na7 O39 2.743324 1_464
Na7 O46 2.948229 1_465
Na8 O56 2.285080 1_555
Na8 O48 2.529179 1_555
Na8 O55 2.596835 1_555
Na8 O54 2.797873 1_555
Na8 O50 2.921079 1_555
Na8 O49 2.951232 1_555
Na9 O57 2.459816 1_555
Na9 O52 2.515330 1_555
Na9 O58 2.524116 1_555
Na9 O51 2.542432 1_555
Na9 O59 2.663354 1_555
Na9 O53 2.782292 1_555
Na10 O60 2.385604 1_555
Na10 O62 2.420052 1_555
Na10 O68 2.483570 1_555
Na10 O61 2.589132 1_555
Na10 O66 2.775299 1_555
Na10 O67 2.812390 1_555
Na11 O71 2.350164 1_555
Na11 O69 2.450735 1_555
Na11 O70 2.500498 1_555
Na11 O64 2.552311 1_555
Na11 O65 2.611142 1_555
Na11 O63 2.628793 1_555
La0 O5 2.217324 1_555
La0 O40 2.318413 1_645
La0 O3 2.416677 1_655
La0 O39 2.474151 1_555
La0 O41 2.481654 1_545
La0 O4 2.504275 1_545
La1 O10 2.284159 1_565
La1 O45 2.288966 1_455
La1 O11 2.399503 1_555
La1 O9 2.430223 1_455
La1 O47 2.447126 1_565
La1 O46 2.495595 1_465
La2 O56 2.283973 1_555
La2 O18 2.297687 1_556
La2 O19 2.301132 1_556
La2 O20 2.372267 1_556
La2 O54 2.463479 1_555
La2 O55 2.508217 1_555
La3 O26 2.183383 1_554
La3 O61 2.282107 1_555
La3 O25 2.459555 1_554
La3 O24 2.476018 1_554
La3 O62 2.497275 1_555
La3 O60 2.638598 1_555
La4 O29 2.206555 1_555
La4 O63 2.295131 1_555
La4 O65 2.415733 1_555
La4 O27 2.416045 1_555
La4 O28 2.472078 1_555
La4 O64 2.778342 1_555
La5 O34 2.208676 1_555
La5 O35 2.315262 1_555
La5 O71 2.316955 1_555
La5 O33 2.452962 1_555
La5 O69 2.550576 1_555
La5 O70 2.577099 1_555
Al0 O2 1.788820 1_565
Al0 O36 1.815460 1_555
Al0 O37 1.845574 1_555
Al0 O1 1.980720 1_555
Al0 O38 2.200496 1_665
Al0 O0 2.489265 1_665
Al1 O6 1.804800 1_465
Al1 O43 1.828758 1_565
Al1 O8 1.882149 1_555
Al1 O7 1.959250 1_565
Al1 O44 2.211897 1_455
Al1 O42 2.489417 1_465
Al2 O13 1.778542 1_555
Al2 O48 1.813226 1_555
Al2 O12 1.891913 1_555
Al2 O49 1.961825 1_555
Al2 O14 1.982679 1_555
Al2 O50 2.057418 1_555
Al3 O15 1.774185 1_555
Al3 O52 1.823502 1_555
Al3 O16 1.861044 1_555
Al3 O53 2.061960 1_555
Al3 O17 2.338905 1_555
Al3 O51 2.442241 1_555
Al4 O21 1.821975 1_555
Al4 O59 1.824297 1_555
Al4 O22 1.879705 1_555
Al4 O23 1.904519 1_555
Al5 O68 1.789040 1_555
Al5 O30 1.813114 1_555
Al5 O32 1.881586 1_555
Al5 O67 2.064921 1_555
Al5 O66 2.085758 1_555
Al5 O31 2.376016 1_555
O0 S0 1.472661 1_545
O1 S1 1.508847 1_555
O2 Si0 1.644578 1_655
O3 S2 1.485750 1_555
O4 S3 1.481569 1_555
O5 Si1 1.632672 1_555
O6 Si1 1.657659 1_555
O7 S2 1.479370 1_555
O8 S3 1.499634 1_455
O9 S1 1.482469 1_555
O10 Si0 1.623681 1_555
O11 S0 1.500012 1_555
O12 S4 1.470694 1_555
O13 Si2 1.627599 1_555
O14 S5 1.464220 1_555
O15 Si3 1.670607 1_555
O16 S6 1.482725 1_555
O17 S7 1.469795 1_555
O18 S7 1.481705 1_555
O19 Si3 1.650702 1_555
O20 S6 1.480213 1_555
O21 Si2 1.688754 1_555
O22 S5 1.495160 1_555
O23 S4 1.499877 1_555
O24 S8 1.468137 1_555
O25 S9 1.482626 1_555
O26 Si4 1.654718 1_555
O27 S10 1.495040 1_555
O28 S11 1.479179 1_555
O29 Si5 1.656737 1_555
O30 Si5 1.661936 1_555
O31 S10 1.477358 1_555
O32 S11 1.491945 1_555
O33 S9 1.482819 1_555
O34 Si4 1.656051 1_555
O35 S8 1.477516 1_555
O36 Si5 1.657994 1_655
O37 S10 1.490062 1_555
O38 S11 1.501105 1_555
O39 S9 1.472254 1_655
O40 Si4 1.635893 1_555
O41 S8 1.481620 1_555
O42 S4 1.478126 1_555
O43 Si2 1.681652 1_555
O44 S5 1.502590 1_555
O45 Si3 1.632965 1_555
O46 S6 1.472720 1_555
O47 S7 1.498911 1_555
O48 Si1 1.657766 1_555
O49 S2 1.485762 1_555
O50 S3 1.463966 1_555
O51 S1 1.499050 1_555
O52 Si0 1.689954 1_655
O53 S0 1.495697 1_545
O54 S8 1.484884 1_555
O55 S9 1.493814 1_655
O56 Si4 1.617808 1_545
O57 S10 1.488550 1_545
O58 S11 1.485643 1_555
O59 Si5 1.666015 1_655
O60 S7 1.489276 1_555
O61 Si3 1.664691 1_455
O62 S6 1.470542 1_565
O63 Si2 1.670095 1_565
O64 S5 1.489249 1_555
O65 S4 1.480538 1_455
O66 S0 1.499729 1_555
O67 S1 1.468151 1_555
O68 Si0 1.663541 1_555
O69 S2 1.470923 1_555
O70 S3 1.491858 1_455
O71 Si1 1.663778 1_565
