# generated using pymatgen
data_Na6Sc4Si5Ge4S7O48
_symmetry_space_group_name_H-M   'P 1'
_cell_length_a   17.53496726
_cell_length_b   8.76414066
_cell_length_c   22.46315919
_cell_angle_alpha   90.04423221
_cell_angle_beta   89.97342543
_cell_angle_gamma   120.05320158
_symmetry_Int_Tables_number   1
_chemical_formula_structural   Na6Sc4Si5Ge4S7O48
_chemical_formula_sum   'Na18 Sc12 Si15 Ge12 S21 O144'
_cell_volume   2988.01354221
_cell_formula_units_Z   3
loop_
 _symmetry_equiv_pos_site_id
 _symmetry_equiv_pos_as_xyz
  1  'x, y, z'
loop_
 _atom_site_type_symbol
 _atom_site_label
 _atom_site_symmetry_multiplicity
 _atom_site_fract_x
 _atom_site_fract_y
 _atom_site_fract_z
 _atom_site_occupancy
  Na  Na0  1  0.99850425  0.62837102  0.25419600  1
  Na  Na1  1  0.50079743  0.63013536  0.25075335  1
  Na  Na2  1  0.00131798  0.37553396  0.74991920  1
  Na  Na3  1  0.49825932  0.36160955  0.75306239  1
  Na  Na4  1  0.66444653  0.30694028  0.91799358  1
  Na  Na5  1  0.16643096  0.01957877  0.42706299  1
  Na  Na6  1  0.99714768  0.99784132  0.50631044  1
  Na  Na7  1  0.50180550  0.99265491  0.50120846  1
  Na  Na8  1  0.00080848  0.00855337  0.99707025  1
  Na  Na9  1  0.49867020  0.00063655  0.00252529  1
  Na  Na10  1  0.32893404  0.32320268  0.83848745  1
  Na  Na11  1  0.83209653  0.33203711  0.82497889  1
  Na  Na12  1  0.34213827  0.34588344  0.33017418  1
  Na  Na13  1  0.82449736  0.32839152  0.34094489  1
  Na  Na14  1  0.18391619  0.66404564  0.16269928  1
  Na  Na15  1  0.66921987  0.65513344  0.16278328  1
  Na  Na16  1  0.17169455  0.68721788  0.66521496  1
  Na  Na17  1  0.68152683  0.69081331  0.66788316  1
  Sc  Sc0  1  0.99501250  0.98488079  0.36023240  1
  Sc  Sc1  1  0.50039287  0.01246480  0.85669808  1
  Sc  Sc2  1  0.32431298  0.33536688  0.67889733  1
  Sc  Sc3  1  0.82614446  0.30893850  0.69033259  1
  Sc  Sc4  1  0.33221523  0.35174941  0.18675386  1
  Sc  Sc5  1  0.82156416  0.31208460  0.17798504  1
  Sc  Sc6  1  0.82939226  0.31804538  0.98734682  1
  Sc  Sc7  1  0.33182065  0.34818785  0.49037321  1
  Sc  Sc8  1  0.17028182  0.66642637  0.31349838  1
  Sc  Sc9  1  0.66752010  0.64847598  0.31371398  1
  Sc  Sc10  1  0.16926498  0.68816010  0.81338051  1
  Sc  Sc11  1  0.66713648  0.65817015  0.80860257  1
  Si  Si0  1  0.36333935  0.73509652  0.25062456  1
  Si  Si1  1  0.49844009  0.28904259  0.24938830  1
  Si  Si2  1  0.64072836  0.27914104  0.74761782  1
  Si  Si3  1  0.00079347  0.70850551  0.74922097  1
  Si  Si4  1  0.86456749  0.99301651  0.75087914  1
  Si  Si5  1  0.17690631  0.03560336  0.58317609  1
  Si  Si6  1  0.69089735  0.03384523  0.57929446  1
  Si  Si7  1  0.33346849  0.64601738  0.58386541  1
  Si  Si8  1  0.82959331  0.02281201  0.08212225  1
  Si  Si9  1  0.19078261  0.34715848  0.08005724  1
  Si  Si10  1  0.67662985  0.32214397  0.08252487  1
  Si  Si11  1  0.51718741  0.38513148  0.92031549  1
  Si  Si12  1  0.16210163  0.95733727  0.91912505  1
  Si  Si13  1  0.66302718  0.36739992  0.41901862  1
  Si  Si14  1  0.01829707  0.64666486  0.41975170  1
  Ge  Ge0  1  0.50108026  0.02147001  0.35073852  1
  Ge  Ge1  1  0.00133996  0.97921180  0.84985741  1
  Ge  Ge2  1  0.00224403  0.97980750  0.65175336  1
  Ge  Ge3  1  0.51226192  0.99827504  0.64042821  1
  Ge  Ge4  1  0.00446165  0.02080048  0.13683230  1
  Ge  Ge5  1  0.50006345  0.02213209  0.14956817  1
  Ge  Ge6  1  0.32441430  0.31397084  0.97912524  1
  Ge  Ge7  1  0.82513846  0.33893633  0.48100039  1
  Ge  Ge8  1  0.16405578  0.66366838  0.01412555  1
  Ge  Ge9  1  0.66545344  0.65097561  0.02396062  1
  Ge  Ge10  1  0.16277785  0.67873394  0.52786596  1
  Ge  Ge11  1  0.66186230  0.65701031  0.51743229  1
  S  S0  1  0.14113882  0.00239013  0.24816564  1
  S  S1  1  0.64456616  0.00656029  0.25222646  1
  S  S2  1  0.85813609  0.71557979  0.24580052  1
  S  S3  1  0.99927173  0.28449165  0.24783416  1
  S  S4  1  0.14492604  0.28268334  0.75228805  1
  S  S5  1  0.49780665  0.71153358  0.74851093  1
  S  S6  1  0.35581465  0.99965331  0.74635125  1
  S  S7  1  0.48530848  0.33574948  0.58382990  1
  S  S8  1  0.97807230  0.33085733  0.58076541  1
  S  S9  1  0.83163551  0.62598981  0.58110191  1
  S  S10  1  0.47924323  0.62899527  0.08128385  1
  S  S11  1  0.98591842  0.63615444  0.08604372  1
  S  S12  1  0.33109691  0.03716472  0.08156190  1
  S  S13  1  0.30989874  0.66016236  0.91925358  1
  S  S14  1  0.81568225  0.67356805  0.91867430  1
  S  S15  1  0.02075480  0.37207157  0.91617340  1
  S  S16  1  0.66687377  0.95114045  0.91823491  1
  S  S17  1  0.31641769  0.95995854  0.41848255  1
  S  S18  1  0.80887986  0.95856302  0.41893935  1
  S  S19  1  0.16833192  0.37806508  0.41809331  1
  S  S20  1  0.52016156  0.66983331  0.41602671  1
  O  O0  1  0.10167786  0.02133886  0.30434755  1
  O  O1  1  0.60526744  0.03292512  0.30762857  1
  O  O2  1  0.42886395  0.82020198  0.31041195  1
  O  O3  1  0.91077111  0.79729914  0.30103293  1
  O  O4  1  0.48508030  0.17491189  0.31027751  1
  O  O5  1  0.99015993  0.18120193  0.30140282  1
  O  O6  1  0.10587422  0.17732804  0.80761851  1
  O  O7  1  0.59926193  0.17756454  0.81084806  1
  O  O8  1  0.48431430  0.79032548  0.80211452  1
  O  O9  1  0.98663792  0.79473779  0.81028196  1
  O  O10  1  0.40674220  0.02111390  0.80180277  1
  O  O11  1  0.93073173  0.03839678  0.81080018  1
  O  O12  1  0.39702188  0.97930680  0.69262502  1
  O  O13  1  0.91191682  0.97540203  0.68812300  1
  O  O14  1  0.09012603  0.20526762  0.69770348  1
  O  O15  1  0.57180795  0.17571998  0.69060523  1
  O  O16  1  0.02412512  0.83431553  0.69030210  1
  O  O17  1  0.50623415  0.81159415  0.69275892  1
  O  O18  1  0.41096389  0.84511776  0.18836083  1
  O  O19  1  0.90289078  0.82115388  0.19256679  1
  O  O20  1  0.01070505  0.20149336  0.19247818  1
  O  O21  1  0.52078094  0.20929582  0.19029741  1
  O  O22  1  0.08234862  0.97174614  0.19539821  1
  O  O23  1  0.58996510  0.97480043  0.19788749  1
  O  O24  1  0.44680547  0.36211789  0.63874222  1
  O  O25  1  0.94560504  0.36827887  0.63595156  1
  O  O26  1  0.24062026  0.12264932  0.63967327  1
  O  O27  1  0.74771212  0.10377703  0.63852332  1
  O  O28  1  0.31231780  0.52036874  0.64138708  1
  O  O29  1  0.81940125  0.52108513  0.63382562  1
  O  O30  1  0.44557677  0.52591311  0.13729175  1
  O  O31  1  0.94676023  0.53329105  0.14134097  1
  O  O32  1  0.31838885  0.11598629  0.13516419  1
  O  O33  1  0.81244361  0.10415485  0.14203952  1
  O  O34  1  0.24516307  0.38553464  0.14083180  1
  O  O35  1  0.73935474  0.36136369  0.14026978  1
  O  O36  1  0.23777478  0.30619090  0.02413325  1
  O  O37  1  0.71862595  0.29271799  0.02183367  1
  O  O38  1  0.42131777  0.53880285  0.02973357  1
  O  O39  1  0.93064592  0.55561820  0.03349632  1
  O  O40  1  0.34737726  0.14757024  0.02713678  1
  O  O41  1  0.85542684  0.15379567  0.02576645  1
  O  O42  1  0.21767688  0.14514974  0.52124092  1
  O  O43  1  0.73701708  0.16765594  0.52210589  1
  O  O44  1  0.35735813  0.56640529  0.52583020  1
  O  O45  1  0.84871895  0.55010044  0.52549465  1
  O  O46  1  0.43088663  0.31412418  0.53089025  1
  O  O47  1  0.92205642  0.30837147  0.52787201  1
  O  O48  1  0.26823783  0.69259031  0.97316973  1
  O  O49  1  0.77638957  0.70007985  0.97388848  1
  O  O50  1  0.07716000  0.45782065  0.97131221  1
  O  O51  1  0.59186186  0.48623025  0.97376203  1
  O  O52  1  0.14590939  0.82574129  0.97795452  1
  O  O53  1  0.65975335  0.85116335  0.97308495  1
  O  O54  1  0.27588389  0.85399920  0.47257893  1
  O  O55  1  0.76800246  0.84337537  0.47166332  1
  O  O56  1  0.15728931  0.46023931  0.47147015  1
  O  O57  1  0.64621402  0.46651842  0.47687804  1
  O  O58  1  0.09421071  0.69778866  0.47206590  1
  O  O59  1  0.57599789  0.69417963  0.47006569  1
  O  O60  1  0.05547072  0.62332322  0.35539293  1
  O  O61  1  0.56210909  0.65233922  0.36099805  1
  O  O62  1  0.25946781  0.87814635  0.36509272  1
  O  O63  1  0.75921455  0.88295819  0.36380617  1
  O  O64  1  0.17880457  0.47858482  0.36286092  1
  O  O65  1  0.68320014  0.48569830  0.35992394  1
  O  O66  1  0.06382080  0.47431445  0.86200674  1
  O  O67  1  0.55353421  0.48583771  0.85719326  1
  O  O68  1  0.18262614  0.87888463  0.86085768  1
  O  O69  1  0.67726470  0.87156189  0.86402476  1
  O  O70  1  0.25798681  0.63288516  0.86519968  1
  O  O71  1  0.75923901  0.64070760  0.86618769  1
  O  O72  1  0.01315196  0.83188884  0.41621511  1
  O  O73  1  0.51174793  0.82953585  0.41382873  1
  O  O74  1  0.40350876  0.96998591  0.41227450  1
  O  O75  1  0.89880199  0.97876907  0.41501044  1
  O  O76  1  0.08834377  0.19721372  0.41303281  1
  O  O77  1  0.57419643  0.16701945  0.41047853  1
  O  O78  1  0.01213808  0.19596588  0.91458918  1
  O  O79  1  0.50968441  0.18941569  0.91954882  1
  O  O80  1  0.07380555  0.98125313  0.91080357  1
  O  O81  1  0.58619430  0.96896030  0.91672011  1
  O  O82  1  0.39828407  0.81657927  0.91616189  1
  O  O83  1  0.90341296  0.83724958  0.91319496  1
  O  O84  1  0.49499713  0.17805337  0.58647987  1
  O  O85  1  0.98713792  0.17319074  0.58468787  1
  O  O86  1  0.07921476  0.02484953  0.59140685  1
  O  O87  1  0.59178988  0.01488533  0.58531854  1
  O  O88  1  0.42039786  0.84515540  0.59471231  1
  O  O89  1  0.91016303  0.80659852  0.58480605  1
  O  O90  1  0.48704001  0.80443460  0.08673225  1
  O  O91  1  0.99725320  0.81746245  0.09153202  1
  O  O92  1  0.41025207  0.01484469  0.08578473  1
  O  O93  1  0.91726995  0.99674402  0.09099148  1
  O  O94  1  0.09166790  0.16378748  0.08765191  1
  O  O95  1  0.57941336  0.13594202  0.09126151  1
  O  O96  1  0.34850583  0.16266555  0.74417345  1
  O  O97  1  0.85961206  0.17230296  0.74772857  1
  O  O98  1  0.23307660  0.30015053  0.74817175  1
  O  O99  1  0.73686043  0.30220207  0.74406673  1
  O  O100  1  0.42157427  0.52784618  0.74384100  1
  O  O101  1  0.91574154  0.51634956  0.74377439  1
  O  O102  1  0.35479863  0.54080571  0.24761739  1
  O  O103  1  0.85065351  0.53830638  0.24374097  1
  O  O104  1  0.41155429  0.30824409  0.24462342  1
  O  O105  1  0.92164145  0.30940692  0.24375420  1
  O  O106  1  0.22863824  0.15628981  0.24312819  1
  O  O107  1  0.73307138  0.16673347  0.24855840  1
  O  O108  1  0.31762828  0.49990131  0.92648078  1
  O  O109  1  0.82609689  0.51578183  0.92397076  1
  O  O110  1  0.41941771  0.36643015  0.93308159  1
  O  O111  1  0.93514304  0.36430746  0.92216162  1
  O  O112  1  0.25025031  0.15249262  0.92696754  1
  O  O113  1  0.74468827  0.13590651  0.92058463  1
  O  O114  1  0.32631928  0.13805879  0.42252487  1
  O  O115  1  0.82004240  0.13655058  0.42528811  1
  O  O116  1  0.24603224  0.35181463  0.41985012  1
  O  O117  1  0.75182918  0.35071135  0.42658178  1
  O  O118  1  0.43328298  0.50687777  0.42093206  1
  O  O119  1  0.92010309  0.47527258  0.43188885  1
  O  O120  1  0.17369643  0.51673393  0.06751393  1
  O  O121  1  0.66600759  0.49786267  0.07764855  1
  O  O122  1  0.07474331  0.65268113  0.07999445  1
  O  O123  1  0.56919211  0.65136976  0.07410628  1
  O  O124  1  0.25075135  0.85801058  0.07406848  1
  O  O125  1  0.73962732  0.83128874  0.07150475  1
  O  O126  1  0.16475247  0.83669716  0.57859270  1
  O  O127  1  0.67494738  0.83036356  0.56642715  1
  O  O128  1  0.24146628  0.65237577  0.57098459  1
  O  O129  1  0.75065391  0.64154922  0.57303855  1
  O  O130  1  0.06991266  0.48952053  0.57319226  1
  O  O131  1  0.57485474  0.49972093  0.57835790  1
  O  O132  1  0.14674220  0.83781349  0.25111780  1
  O  O133  1  0.65344851  0.84806512  0.25740566  1
  O  O134  1  0.26584518  0.71451111  0.25484462  1
  O  O135  1  0.77117518  0.70154448  0.24990625  1
  O  O136  1  0.07958092  0.46382613  0.24959698  1
  O  O137  1  0.58386924  0.49023504  0.25285687  1
  O  O138  1  0.15294388  0.45810378  0.75749377  1
  O  O139  1  0.64263656  0.46794528  0.74801717  1
  O  O140  1  0.08698363  0.68179785  0.75270788  1
  O  O141  1  0.57930675  0.70002208  0.75094608  1
  O  O142  1  0.26767153  0.83977697  0.75079944  1
  O  O143  1  0.76802642  0.82116981  0.75541463  1
loop_
_geom_bond_atom_site_label_1
_geom_bond_atom_site_label_2
_geom_bond_distance
_geom_bond_site_symmetry_2
Na0 O103 2.313039 1_555
Na0 O132 2.313394 1_655
Na0 O105 2.431383 1_555
Na0 O136 2.482861 1_655
Na0 O60 2.492738 1_655
Na0 O31 2.680642 1_555
Na0 O3 2.818310 1_555
Na0 O22 2.921505 1_655
Na1 O102 2.272553 1_555
Na1 O137 2.327333 1_555
Na1 O133 2.390489 1_555
Na1 O104 2.450354 1_555
Na1 O61 2.668081 1_555
Na1 O30 2.716734 1_555
Na1 O23 2.872757 1_555
Na1 O2 2.874232 1_555
Na2 O97 2.217257 1_455
Na2 O140 2.329452 1_555
Na2 O101 2.376806 1_455
Na2 O138 2.386362 1_555
Na2 O66 2.709064 1_555
Na2 O25 2.729881 1_455
Na2 O14 2.889754 1_555
Na2 O11 2.911057 1_455
Na3 O139 2.219767 1_555
Na3 O96 2.321527 1_555
Na3 O100 2.436517 1_555
Na3 O67 2.556844 1_555
Na3 O141 2.568434 1_555
Na3 O24 2.723020 1_555
Na3 O10 2.808203 1_555
Na3 O15 2.895695 1_555
Na4 O79 2.372101 1_555
Na4 O109 2.491226 1_555
Na4 O113 2.518478 1_555
Na4 O37 2.545610 1_556
Na4 O81 2.566436 1_545
Na4 O7 2.661799 1_555
Na4 O51 2.767124 1_555
Na4 O71 2.794147 1_555
Na5 O42 2.345583 1_555
Na5 O72 2.358150 1_545
Na5 O114 2.456213 1_555
Na5 O116 2.526383 1_555
Na5 O76 2.556196 1_555
Na5 O58 2.646747 1_545
Na5 O62 2.855933 1_545
Na5 O0 2.984744 1_555
Na6 O86 2.332706 1_665
Na6 O89 2.384588 1_555
Na6 O85 2.399575 1_565
Na6 O72 2.587227 1_655
Na6 O75 2.630964 1_555
Na6 O76 2.684126 1_665
Na7 O87 2.406590 1_565
Na7 O77 2.481901 1_565
Na7 O73 2.484314 1_555
Na7 O88 2.504709 1_555
Na7 O84 2.551999 1_565
Na7 O74 2.580875 1_555
Na8 O80 2.398862 1_545
Na8 O78 2.418190 1_555
Na8 O83 2.480120 1_445
Na8 O94 2.521344 1_556
Na8 O93 2.540319 1_446
Na8 O91 2.685509 1_446
Na9 O95 2.387747 1_555
Na9 O79 2.435812 1_554
Na9 O92 2.471337 1_555
Na9 O90 2.495960 1_545
Na9 O81 2.563345 1_544
Na9 O82 2.572645 1_544
Na10 O112 2.454961 1_555
Na10 O110 2.564345 1_555
Na10 O98 2.577678 1_555
Na10 O108 2.578156 1_555
Na10 O96 2.657843 1_555
Na10 O100 2.731335 1_555
Na11 O101 2.391017 1_555
Na11 O99 2.392765 1_555
Na11 O97 2.424010 1_555
Na11 O113 2.698126 1_555
Na11 O111 2.757066 1_555
Na11 O109 2.777228 1_555
Na12 O104 2.383805 1_555
Na12 O102 2.455898 1_555
Na12 O118 2.537991 1_555
Na12 O116 2.642899 1_555
Na12 O114 2.682763 1_555
Na12 O106 2.689155 1_555
Na13 O117 2.368389 1_555
Na13 O115 2.509131 1_555
Na13 O119 2.545299 1_555
Na13 O107 2.570564 1_555
Na13 O103 2.742768 1_555
Na13 O105 2.824109 1_555
Na14 O134 2.430804 1_555
Na14 O120 2.456635 1_555
Na14 O124 2.496931 1_555
Na14 O122 2.634033 1_555
Na14 O136 2.650102 1_555
Na14 O132 2.770825 1_555
Na15 O121 2.340625 1_555
Na15 O125 2.491043 1_555
Na15 O137 2.501534 1_555
Na15 O135 2.542705 1_555
Na15 O123 2.643986 1_555
Na15 O133 2.813477 1_555
Na16 O126 2.383512 1_555
Na16 O140 2.449104 1_555
Na16 O142 2.461961 1_555
Na16 O128 2.537977 1_555
Na16 O130 2.713107 1_555
Na16 O138 2.789525 1_555
Na17 O143 2.394899 1_555
Na17 O139 2.488090 1_555
Na17 O129 2.591360 1_555
Na17 O141 2.615775 1_555
Na17 O127 2.617050 1_555
Na17 O131 2.684845 1_555
Ge0 O4 1.758764 1_555
Ge0 O2 1.815744 1_545
Ge0 O77 1.852740 1_555
Ge0 O1 2.024916 1_555
Ge0 O74 2.065694 1_545
Ge0 O73 2.278626 1_545
Ge1 O9 1.746765 1_455
Ge1 O11 1.793510 1_465
Ge1 O80 1.862267 1_555
Ge1 O6 2.021905 1_565
Ge1 O83 2.093183 1_455
Ge1 O78 2.322637 1_565
Ge2 O16 1.736374 1_555
Ge2 O13 1.765001 1_455
Ge2 O86 1.811222 1_565
Ge2 O14 2.071956 1_565
Ge2 O89 2.171807 1_455
Ge2 O85 2.380370 1_465
Ge3 O15 1.775144 1_565
Ge3 O88 1.812311 1_555
Ge3 O87 1.814858 1_565
Ge3 O17 1.974706 1_555
Ge3 O84 2.126924 1_565
Ge3 O12 2.268786 1_555
Ge4 O93 1.766523 1_445
Ge4 O94 1.791761 1_555
Ge4 O20 1.976286 1_555
Ge4 O91 1.999746 1_445
Ge4 O22 2.090807 1_545
Ge4 O19 2.163577 1_445
Ge5 O21 1.749526 1_555
Ge5 O18 1.783313 1_545
Ge5 O95 1.804602 1_555
Ge5 O92 2.106718 1_555
Ge5 O23 2.119565 1_545
Ge5 O90 2.290066 1_545
Ge6 O112 1.795052 1_555
Ge6 O36 1.797158 1_556
Ge6 O110 1.813363 1_555
Ge6 O40 2.010739 1_556
Ge6 O108 2.065252 1_555
Ge6 O38 2.169586 1_556
Ge7 O43 1.780778 1_555
Ge7 O117 1.814364 1_555
Ge7 O119 1.850701 1_555
Ge7 O45 1.956015 1_555
Ge7 O47 2.127565 1_555
Ge7 O115 2.135003 1_555
Ge8 O52 1.798270 1_554
Ge8 O120 1.829141 1_555
Ge8 O50 1.935633 1_554
Ge8 O48 1.944980 1_554
Ge8 O124 2.104770 1_555
Ge8 O122 2.120902 1_555
Ge9 O51 1.775975 1_554
Ge9 O125 1.808196 1_555
Ge9 O121 1.808537 1_555
Ge9 O123 2.030287 1_555
Ge9 O49 2.096328 1_554
Ge9 O53 2.138473 1_554
Ge10 O126 1.779271 1_555
Ge10 O128 1.793376 1_555
Ge10 O58 1.802061 1_555
Ge10 O130 1.932522 1_555
Ge10 O54 2.187381 1_555
Ge10 O56 2.256724 1_555
Ge11 O127 1.794621 1_555
Ge11 O57 1.797621 1_555
Ge11 O131 1.998855 1_555
Ge11 O59 1.999605 1_555
Ge11 O55 2.035867 1_555
Ge11 O129 2.053311 1_555
O0 S0 1.487627 1_555
O0 Sc0 2.139194 1_445
O1 S1 1.495089 1_555
O2 Si0 1.679782 1_555
O3 S2 1.497236 1_555
O3 Sc0 2.054073 1_555
O4 Si1 1.641124 1_555
O5 S3 1.466157 1_555
O5 Sc0 2.205509 1_545
O6 S4 1.494644 1_555
O7 Si2 1.640505 1_555
O7 Sc1 1.910006 1_555
O8 S5 1.464508 1_555
O8 Sc1 2.195446 1_565
O9 Si3 1.643197 1_655
O10 S6 1.488908 1_545
O10 Sc1 2.085601 1_555
O11 Si4 1.689505 1_545
O12 S6 1.462303 1_555
O13 Si4 1.681486 1_555
O14 S4 1.494630 1_555
O15 Si2 1.680685 1_555
O16 Si3 1.638514 1_555
O17 S5 1.493658 1_555
O18 Si0 1.666676 1_555
O19 S2 1.474945 1_555
O20 S3 1.503321 1_455
O21 Si1 1.635900 1_555
O22 S0 1.504386 1_565
O23 S1 1.489196 1_565
O24 S7 1.478454 1_555
O24 Sc2 2.230744 1_555
O25 S8 1.467705 1_555
O25 Sc3 2.249017 1_555
O26 Si5 1.608398 1_555
O26 Sc2 1.914139 1_555
O27 Si6 1.589554 1_555
O27 Sc3 2.000081 1_555
O28 Si7 1.616308 1_555
O28 Sc2 1.930531 1_555
O29 S9 1.448404 1_555
O29 Sc3 2.303493 1_555
O30 S10 1.488090 1_555
O30 Sc4 2.115944 1_555
O31 S11 1.485955 1_555
O31 Sc5 2.234586 1_555
O32 S12 1.459217 1_555
O32 Sc4 2.272882 1_555
O33 Si8 1.619586 1_555
O33 Sc5 1.924672 1_555
O34 Si9 1.601688 1_555
O34 Sc4 1.984059 1_555
O35 Si10 1.622469 1_555
O35 Sc5 1.899369 1_555
O36 Si9 1.637280 1_555
O37 Si10 1.629776 1_555
O37 Sc6 1.997227 1_554
O38 S10 1.480857 1_555
O39 S11 1.464729 1_555
O39 Sc6 2.204064 1_554
O40 S12 1.495743 1_555
O41 Si8 1.614450 1_555
O41 Sc6 1.919870 1_554
O42 Si5 1.637718 1_555
O42 Sc7 2.021528 1_555
O43 Si6 1.652587 1_555
O44 Si7 1.628701 1_555
O44 Sc7 1.905965 1_555
O45 S9 1.513379 1_555
O46 S7 1.476587 1_555
O46 Sc7 2.111014 1_555
O47 S8 1.490696 1_555
O48 S13 1.512568 1_555
O49 S14 1.492019 1_555
O50 S15 1.527200 1_555
O51 Si11 1.666967 1_555
O52 Si12 1.682600 1_555
O53 S16 1.481003 1_555
O54 S17 1.477852 1_555
O55 S18 1.487238 1_555
O56 S19 1.460109 1_555
O57 Si13 1.668889 1_555
O58 Si14 1.660394 1_555
O59 S20 1.506359 1_555
O60 Si14 1.639825 1_555
O60 Sc8 2.078078 1_555
O61 S20 1.484704 1_555
O61 Sc9 2.146303 1_555
O62 S17 1.494082 1_555
O62 Sc8 2.079379 1_555
O63 S18 1.467322 1_555
O63 Sc9 2.182455 1_555
O64 S19 1.479388 1_555
O64 Sc8 2.052184 1_555
O65 Si13 1.611377 1_555
O65 Sc9 1.893071 1_555
O66 S15 1.475387 1_555
O66 Sc10 2.157485 1_555
O67 Si11 1.622767 1_555
O67 Sc11 2.104209 1_555
O68 Si12 1.600451 1_555
O68 Sc10 1.895138 1_555
O69 S16 1.458853 1_555
O69 Sc11 2.177848 1_555
O70 S13 1.463796 1_555
O70 Sc10 2.183427 1_555
O71 S14 1.472293 1_555
O71 Sc11 2.134188 1_555
O72 Si14 1.672287 1_555
O72 Sc0 1.977526 1_455
O73 S20 1.479926 1_555
O74 S17 1.491550 1_555
O75 S18 1.498534 1_555
O75 Sc0 2.066583 1_555
O76 S19 1.505193 1_555
O76 Sc0 2.120396 1_445
O77 Si13 1.675424 1_555
O78 S15 1.473964 1_555
O79 Si11 1.653396 1_555
O79 Sc1 2.041716 1_555
O80 Si12 1.673733 1_555
O81 S16 1.499437 1_555
O81 Sc1 2.191822 1_565
O82 S13 1.469044 1_555
O82 Sc1 2.204508 1_565
O83 S14 1.493081 1_555
O84 S7 1.475751 1_555
O85 S8 1.470596 1_555
O86 Si5 1.677952 1_555
O87 Si6 1.666317 1_555
O88 Si7 1.662508 1_555
O89 S9 1.491747 1_555
O90 S10 1.478845 1_555
O91 S11 1.504341 1_555
O92 S12 1.498619 1_555
O93 Si8 1.675610 1_565
O94 Si9 1.683737 1_555
O95 Si10 1.679704 1_555
O96 S6 1.497798 1_545
O96 Sc2 2.295228 1_555
O97 Si4 1.618162 1_545
O97 Sc3 2.036575 1_555
O98 S4 1.477873 1_555
O98 Sc2 2.140114 1_555
O99 Si2 1.596047 1_555
O99 Sc3 1.953787 1_555
O100 S5 1.494647 1_555
O100 Sc2 2.235941 1_555
O101 Si3 1.599852 1_655
O101 Sc3 2.086064 1_555
O102 Si0 1.634289 1_555
O102 Sc4 2.027609 1_555
O103 S2 1.492950 1_555
O103 Sc5 2.314318 1_555
O104 Si1 1.618001 1_555
O104 Sc4 2.074707 1_555
O105 S3 1.485575 1_555
O105 Sc5 2.303568 1_555
O106 S0 1.453762 1_555
O106 Sc4 2.172956 1_555
O107 S1 1.484545 1_555
O107 Sc5 2.136523 1_555
O108 S13 1.486114 1_555
O109 S14 1.487625 1_555
O109 Sc6 2.266604 1_555
O110 Si11 1.663250 1_555
O111 S15 1.474394 1_655
O111 Sc6 2.234363 1_555
O112 Si12 1.642371 1_545
O113 S16 1.507855 1_545
O113 Sc6 2.151021 1_555
O114 S17 1.484297 1_545
O114 Sc7 2.354041 1_555
O115 S18 1.478454 1_545
O116 S19 1.491590 1_555
O116 Sc7 2.196292 1_555
O117 Si13 1.644184 1_555
O118 S20 1.481043 1_555
O118 Sc7 2.248377 1_555
O119 Si14 1.644693 1_655
O120 Si9 1.680656 1_555
O121 Si10 1.644977 1_555
O122 S11 1.496414 1_455
O123 S10 1.497396 1_555
O124 S12 1.504224 1_565
O125 Si8 1.646369 1_565
O126 Si5 1.650013 1_565
O127 Si6 1.685759 1_565
O128 Si7 1.667310 1_555
O129 S9 1.504014 1_555
O130 S8 1.520906 1_455
O131 S7 1.511876 1_555
O132 S0 1.495524 1_565
O132 Sc8 2.239395 1_555
O133 S1 1.477933 1_565
O133 Sc9 2.270808 1_555
O134 Si0 1.629440 1_555
O134 Sc8 2.003247 1_555
O135 S2 1.469980 1_555
O135 Sc9 2.173995 1_555
O136 S3 1.495998 1_455
O136 Sc8 2.216392 1_555
O137 Si1 1.647265 1_555
O137 Sc9 1.976135 1_555
O138 S4 1.476587 1_555
O138 Sc10 2.267517 1_555
O139 Si2 1.638224 1_555
O139 Sc11 2.023808 1_555
O140 Si3 1.643029 1_555
O140 Sc10 1.965554 1_555
O141 S5 1.483238 1_555
O141 Sc11 2.179958 1_555
O142 S6 1.480902 1_555
O142 Sc10 2.103202 1_555
O143 Si4 1.609599 1_555
O143 Sc11 2.016758 1_555
