# generated using pymatgen
data_Na9Ca5Nb7(PO4)18
_symmetry_space_group_name_H-M   'P 1'
_cell_length_a   9.02338682
_cell_length_b   9.01375204
_cell_length_c   22.91751078
_cell_angle_alpha   90.01617348
_cell_angle_beta   90.00645576
_cell_angle_gamma   119.84012662
_symmetry_Int_Tables_number   1
_chemical_formula_structural   Na9Ca5Nb7(PO4)18
_chemical_formula_sum   'Na9 Ca5 Nb7 P18 O72'
_cell_volume   1616.85328997
_cell_formula_units_Z   1
loop_
 _symmetry_equiv_pos_site_id
 _symmetry_equiv_pos_as_xyz
  1  'x, y, z'
loop_
 _atom_site_type_symbol
 _atom_site_label
 _atom_site_symmetry_multiplicity
 _atom_site_fract_x
 _atom_site_fract_y
 _atom_site_fract_z
 _atom_site_occupancy
  Na  Na0  1  0.98283921  0.63689006  0.24491106  1
  Na  Na1  1  0.65136212  0.67908123  0.07807849  1
  Na  Na2  1  0.31897187  0.30570480  0.91178878  1
  Na  Na3  1  0.00031884  0.99909765  0.49817758  1
  Na  Na4  1  0.99571156  0.99365563  0.99013133  1
  Na  Na5  1  0.67978402  0.33544655  0.82044620  1
  Na  Na6  1  0.64915151  0.31721784  0.32522936  1
  Na  Na7  1  0.32906817  0.66744712  0.15534860  1
  Na  Na8  1  0.33387824  0.66629285  0.67289855  1
  Ca  Ca0  1  0.99882182  0.00213264  0.36144110  1
  Ca  Ca1  1  0.99186909  0.99050904  0.85124041  1
  Ca  Ca2  1  0.66524831  0.33322520  0.68004159  1
  Ca  Ca3  1  0.65906600  0.32161326  0.18655445  1
  Ca  Ca4  1  0.32539094  0.67174474  0.01872568  1
  Nb  Nb0  1  0.99973082  0.00009425  0.65215867  1
  Nb  Nb1  1  0.00569628  0.00892521  0.14739916  1
  Nb  Nb2  1  0.67090247  0.32944370  0.98066712  1
  Nb  Nb3  1  0.66778565  0.33438348  0.48111806  1
  Nb  Nb4  1  0.33252941  0.66683006  0.52041953  1
  Nb  Nb5  1  0.33906523  0.66629234  0.31153808  1
  Nb  Nb6  1  0.33295342  0.66979715  0.81466647  1
  P  P0  1  0.28592683  0.99136839  0.25402641  1
  P  P1  1  0.70864888  0.71697662  0.25127922  1
  P  P2  1  0.01040452  0.29665575  0.25346720  1
  P  P3  1  0.29352109  0.30302513  0.75367407  1
  P  P4  1  0.00964483  0.70478753  0.75092889  1
  P  P5  1  0.69644845  0.99067661  0.75147069  1
  P  P6  1  0.96312655  0.32849542  0.58193975  1
  P  P7  1  0.36521332  0.03791917  0.58165757  1
  P  P8  1  0.67175427  0.63580103  0.58184483  1
  P  P9  1  0.95670268  0.63400008  0.08798433  1
  P  P10  1  0.67921689  0.04225985  0.08470108  1
  P  P11  1  0.36927217  0.32429799  0.08297771  1
  P  P12  1  0.62389140  0.65643465  0.92105542  1
  P  P13  1  0.03580281  0.37874477  0.91718868  1
  P  P14  1  0.34573959  0.97060506  0.91738938  1
  P  P15  1  0.61059248  0.95826731  0.41887093  1
  P  P16  1  0.34768749  0.38851060  0.41904439  1
  P  P17  1  0.04133933  0.65239015  0.41779711  1
  O  O0  1  0.19974185  0.00451291  0.30725194  1
  O  O1  1  0.81748777  0.80041878  0.30353248  1
  O  O2  1  0.98587281  0.19412904  0.30677077  1
  O  O3  1  0.21874530  0.21106357  0.80977864  1
  O  O4  1  0.99159316  0.78464544  0.80481739  1
  O  O5  1  0.79660467  0.01205745  0.80496536  1
  O  O6  1  0.80200010  0.97096074  0.69514385  1
  O  O7  1  0.16484005  0.19235717  0.69879536  1
  O  O8  1  0.02702070  0.82906851  0.69485665  1
  O  O9  1  0.79557864  0.82951716  0.19400431  1
  O  O10  1  0.02971537  0.20139178  0.19681739  1
  O  O11  1  0.16772260  0.96840929  0.19760517  1
  O  O12  1  0.90773479  0.37917656  0.63582853  1
  O  O13  1  0.47004134  0.09175863  0.63578659  1
  O  O14  1  0.62132734  0.53046055  0.63585977  1
  O  O15  1  0.87999607  0.54476531  0.14446506  1
  O  O16  1  0.65385173  0.11639356  0.13871581  1
  O  O17  1  0.47912104  0.35408328  0.13531043  1
  O  O18  1  0.46013753  0.29890775  0.02641102  1
  O  O19  1  0.83185875  0.52825601  0.03406931  1
  O  O20  1  0.69509159  0.15862152  0.02904781  1
  O  O21  1  0.46857160  0.16372288  0.52869233  1
  O  O22  1  0.69503421  0.53250765  0.52872013  1
  O  O23  1  0.83730345  0.30448945  0.52869161  1
  O  O24  1  0.54643027  0.66864353  0.97745724  1
  O  O25  1  0.14281957  0.45476583  0.97025034  1
  O  O26  1  0.31960857  0.87124606  0.97156191  1
  O  O27  1  0.50576787  0.84908837  0.47126159  1
  O  O28  1  0.34367104  0.49330445  0.47154033  1
  O  O29  1  0.15265138  0.65618553  0.46977756  1
  O  O30  1  0.12720135  0.63318873  0.36058110  1
  O  O31  1  0.50198959  0.86689564  0.36242462  1
  O  O32  1  0.36552304  0.49784711  0.36268727  1
  O  O33  1  0.13246372  0.49984863  0.86181864  1
  O  O34  1  0.36216750  0.86987323  0.86187891  1
  O  O35  1  0.49775592  0.63509142  0.86718758  1
  O  O36  1  0.02313218  0.80904990  0.42102017  1
  O  O37  1  0.78401662  0.97374870  0.42103089  1
  O  O38  1  0.19082019  0.21484275  0.42079038  1
  O  O39  1  0.00746573  0.20050691  0.90894342  1
  O  O40  1  0.20820428  0.01903631  0.91023719  1
  O  O41  1  0.80418305  0.80021310  0.91402615  1
  O  O42  1  0.97632880  0.16365464  0.58683738  1
  O  O43  1  0.18804578  0.02630587  0.58627964  1
  O  O44  1  0.83667261  0.81283728  0.58640041  1
  O  O45  1  0.95424669  0.81064875  0.08833918  1
  O  O46  1  0.85629854  0.04264278  0.08833656  1
  O  O47  1  0.19119307  0.15246893  0.09072348  1
  O  O48  1  0.66222988  0.13490340  0.74030132  1
  O  O49  1  0.46930309  0.33202664  0.74176434  1
  O  O50  1  0.86513166  0.52667127  0.74054194  1
  O  O51  1  0.67716309  0.53643090  0.24497900  1
  O  O52  1  0.87422095  0.34672133  0.24573089  1
  O  O53  1  0.46813911  0.13209163  0.24814156  1
  O  O54  1  0.62232157  0.47758198  0.92229649  1
  O  O55  1  0.85871441  0.37472279  0.92366662  1
  O  O56  1  0.52334096  0.14683886  0.92196258  1
  O  O57  1  0.61912040  0.13618604  0.42428012  1
  O  O58  1  0.51710248  0.38011670  0.42424230  1
  O  O59  1  0.86324625  0.48334524  0.42511133  1
  O  O60  1  0.33919097  0.47390886  0.07624607  1
  O  O61  1  0.13725033  0.67033620  0.08115189  1
  O  O62  1  0.54130734  0.85681030  0.07745026  1
  O  O63  1  0.33103518  0.85270740  0.56616931  1
  O  O64  1  0.52033273  0.66907004  0.56643392  1
  O  O65  1  0.14745272  0.47962365  0.56646779  1
  O  O66  1  0.28479640  0.81104149  0.25618877  1
  O  O67  1  0.52731027  0.70783226  0.25804189  1
  O  O68  1  0.18772767  0.47550147  0.25728212  1
  O  O69  1  0.29325096  0.47874224  0.75511073  1
  O  O70  1  0.18712541  0.70748849  0.75376013  1
  O  O71  1  0.52245778  0.81335054  0.75507104  1
loop_
_geom_bond_atom_site_label_1
_geom_bond_atom_site_label_2
_geom_bond_distance
_geom_bond_site_symmetry_2
Na0 O52 2.291463 1_555
Na0 O66 2.387052 1_655
Na0 O51 2.437678 1_555
Na0 O15 2.466043 1_555
Na0 O11 2.815879 1_655
Na0 O68 2.879439 1_655
Na0 O1 2.896841 1_555
Na0 O30 2.961014 1_655
Na1 O62 2.266280 1_555
Na1 O45 2.388606 1_555
Na1 O24 2.476626 1_554
Na1 O60 2.484406 1_555
Na1 O19 2.778706 1_555
Na1 O46 2.860550 1_565
Na1 O17 2.861686 1_555
Na1 O9 2.971786 1_555
Na2 O40 2.259839 1_555
Na2 O54 2.393771 1_555
Na2 O39 2.480264 1_555
Na2 O3 2.498332 1_555
Na2 O35 2.774504 1_555
Na2 O56 2.851958 1_555
Na2 O25 2.872552 1_555
Na2 O18 2.933202 1_556
Na3 O36 2.540261 1_555
Na3 O37 2.557870 1_455
Na3 O38 2.560850 1_565
Na3 O43 2.567443 1_565
Na3 O44 2.573422 1_455
Na3 O42 2.587153 1_465
Na4 O41 2.463305 1_555
Na4 O40 2.577933 1_665
Na4 O39 2.598993 1_665
Na4 O45 2.704576 1_556
Na4 O46 2.719491 1_566
Na4 O47 2.821253 1_666
Na5 O50 2.501020 1_555
Na5 O48 2.525735 1_555
Na5 O49 2.607785 1_555
Na5 O55 2.785286 1_555
Na5 O56 2.812520 1_555
Na5 O54 2.831643 1_555
Na6 O53 2.420483 1_555
Na6 O51 2.618351 1_555
Na6 O52 2.641630 1_555
Na6 O57 2.729688 1_555
Na6 O58 2.749962 1_555
Na6 O59 2.886581 1_555
Na7 O61 2.435590 1_555
Na7 O60 2.548497 1_555
Na7 O62 2.552958 1_555
Na7 O66 2.772848 1_555
Na7 O68 2.807886 1_555
Na7 O67 2.867362 1_555
Na8 O70 2.411444 1_555
Na8 O69 2.434612 1_555
Na8 O71 2.439712 1_555
Na8 O64 2.956932 1_555
Na8 O65 2.964832 1_555
Na8 O63 2.975233 1_555
Ca0 O2 2.186517 1_555
Ca0 O1 2.186760 1_545
Ca0 O0 2.188934 1_655
Ca0 O37 2.279176 1_545
Ca0 O38 2.284712 1_655
Ca0 O36 2.307086 1_645
Ca1 O4 2.137625 1_555
Ca1 O5 2.146422 1_565
Ca1 O41 2.234237 1_555
Ca1 O3 2.235495 1_665
Ca1 O39 2.254987 1_665
Ca1 O40 2.281331 1_665
Ca2 O14 2.246126 1_555
Ca2 O13 2.247579 1_555
Ca2 O48 2.248657 1_555
Ca2 O50 2.254827 1_555
Ca2 O12 2.254915 1_555
Ca2 O49 2.260248 1_555
Ca3 O16 2.130298 1_555
Ca3 O17 2.138685 1_555
Ca3 O53 2.225206 1_555
Ca3 O15 2.227452 1_555
Ca3 O52 2.285071 1_555
Ca3 O51 2.291849 1_555
Ca4 O26 2.121131 1_554
Ca4 O25 2.136637 1_554
Ca4 O61 2.215425 1_555
Ca4 O24 2.220198 1_554
Ca4 O62 2.270156 1_555
Ca4 O60 2.270561 1_555
Nb0 O6 1.938312 1_545
Nb0 O8 1.942476 1_645
Nb0 O7 1.947936 1_655
Nb0 O42 2.184063 1_555
Nb0 O44 2.193518 1_545
Nb0 O43 2.196345 1_655
Nb1 O10 1.990973 1_555
Nb1 O47 2.002251 1_555
Nb1 O11 2.031249 1_545
Nb1 O46 2.036999 1_455
Nb1 O9 2.073848 1_445
Nb1 O45 2.101057 1_445
Nb2 O20 1.995793 1_556
Nb2 O55 2.014325 1_555
Nb2 O56 2.027171 1_555
Nb2 O19 2.055928 1_556
Nb2 O18 2.066723 1_556
Nb2 O54 2.085184 1_555
Nb3 O22 2.000416 1_555
Nb3 O23 2.002750 1_555
Nb3 O21 2.008962 1_555
Nb3 O59 2.050805 1_555
Nb3 O58 2.067683 1_555
Nb3 O57 2.073403 1_555
Nb4 O29 1.958363 1_555
Nb4 O27 1.964040 1_555
Nb4 O28 1.966448 1_555
Nb4 O63 1.981945 1_555
Nb4 O65 1.986721 1_555
Nb4 O64 1.987393 1_555
Nb5 O67 1.973914 1_555
Nb5 O68 2.007415 1_555
Nb5 O32 2.024365 1_555
Nb5 O31 2.035643 1_555
Nb5 O66 2.046400 1_555
Nb5 O30 2.107129 1_555
Nb6 O34 2.004572 1_555
Nb6 O33 2.007650 1_555
Nb6 O35 2.054458 1_555
Nb6 O70 2.059121 1_555
Nb6 O71 2.064769 1_555
Nb6 O69 2.083629 1_555
O0 P0 1.482753 1_545
O1 P1 1.492778 1_555
O2 P2 1.480690 1_655
O3 P3 1.496595 1_555
O4 P4 1.478546 1_655
O5 P5 1.477559 1_545
O6 P5 1.665428 1_555
O7 P3 1.664744 1_555
O8 P4 1.660392 1_555
O9 P1 1.605104 1_555
O10 P2 1.612929 1_555
O11 P0 1.622431 1_555
O12 P6 1.486868 1_555
O13 P7 1.487167 1_555
O14 P8 1.487218 1_555
O15 P9 1.499420 1_555
O16 P10 1.477519 1_555
O17 P11 1.492549 1_555
O18 P11 1.609974 1_555
O19 P9 1.623179 1_555
O20 P10 1.612027 1_555
O21 P7 1.605505 1_555
O22 P8 1.608517 1_555
O23 P6 1.606259 1_555
O24 P12 1.499372 1_555
O25 P13 1.490488 1_555
O26 P14 1.479714 1_555
O27 P15 1.542506 1_555
O28 P16 1.540904 1_555
O29 P17 1.547460 1_555
O30 P17 1.575797 1_555
O31 P15 1.583664 1_555
O32 P16 1.583742 1_555
O33 P13 1.617433 1_555
O34 P14 1.611867 1_555
O35 P12 1.624228 1_555
O36 P17 1.502420 1_555
O37 P15 1.501138 1_555
O38 P16 1.500209 1_555
O39 P13 1.507723 1_555
O40 P14 1.515503 1_545
O41 P12 1.501383 1_555
O42 P6 1.552654 1_555
O43 P7 1.552859 1_555
O44 P8 1.551944 1_555
O45 P9 1.603428 1_555
O46 P10 1.598325 1_555
O47 P11 1.592454 1_555
O48 P5 1.500186 1_545
O49 P3 1.498735 1_555
O50 P4 1.500323 1_655
O51 P1 1.513180 1_555
O52 P2 1.515582 1_655
O53 P0 1.501711 1_545
O54 P12 1.605392 1_555
O55 P13 1.587187 1_655
O56 P14 1.602836 1_545
O57 P15 1.571708 1_545
O58 P16 1.572226 1_555
O59 P17 1.579784 1_655
O60 P11 1.510119 1_555
O61 P9 1.501667 1_455
O62 P10 1.516612 1_565
O63 P7 1.579697 1_565
O64 P8 1.577732 1_555
O65 P6 1.579059 1_455
O66 P0 1.621142 1_555
O67 P1 1.604400 1_555
O68 P2 1.612314 1_555
O69 P3 1.585417 1_555
O70 P4 1.590818 1_555
O71 P5 1.590370 1_555
