# generated using pymatgen
data_Ba2NdMgNbO6
_symmetry_space_group_name_H-M   'P 1'
_cell_length_a   6.12345268
_cell_length_b   6.41740526
_cell_length_c   6.38935047
_cell_angle_alpha   59.65450239
_cell_angle_beta   61.36734737
_cell_angle_gamma   61.50400915
_symmetry_Int_Tables_number   1
_chemical_formula_structural   Ba2NdMgNbO6
_chemical_formula_sum   'Ba2 Nd1 Mg1 Nb1 O6'
_cell_volume   180.79830463
_cell_formula_units_Z   1
loop_
 _symmetry_equiv_pos_site_id
 _symmetry_equiv_pos_as_xyz
  1  'x, y, z'
loop_
 _atom_site_type_symbol
 _atom_site_label
 _atom_site_symmetry_multiplicity
 _atom_site_fract_x
 _atom_site_fract_y
 _atom_site_fract_z
 _atom_site_occupancy
  Ba  Ba0  1  0.81505100  0.68914000  0.68075700  1
  Ba  Ba1  1  0.18494900  0.31086000  0.31924300  1
  Nd  Nd0  1  0.00000000  0.00000000  0.00000000  1
  Mg  Mg0  1  0.50000000  0.00000000  0.00000000  1
  Nb  Nb0  1  0.50000000  0.50000000  0.50000000  1
  O  O0  1  0.69054300  0.27247300  0.79003200  1
  O  O1  1  0.75304700  0.72752700  0.20996800  1
  O  O2  1  0.30945700  0.72752700  0.20996800  1
  O  O3  1  0.24695300  0.27247300  0.79003200  1
  O  O4  1  0.28017200  0.77726600  0.66239000  1
  O  O5  1  0.71982800  0.22273400  0.33761000  1
loop_
_geom_bond_atom_site_label_1
_geom_bond_atom_site_label_2
_geom_bond_distance
_geom_bond_site_symmetry_2
Ba0 O0 2.786993 1_555
Ba0 O3 2.787000 1_655
Ba0 Mg0 2.920621 1_566
Ba0 O5 2.933729 1_565
Ba0 O2 3.083779 1_655
Ba0 O1 3.083779 1_555
Ba0 O4 3.097593 1_555
Ba0 O4 3.097599 1_655
Ba0 O2 3.340681 1_556
Ba0 O1 3.340681 1_556
Ba1 O2 2.786993 1_555
Ba1 O1 2.787000 1_455
Ba1 Mg0 2.920621 1_555
Ba1 O4 2.933729 1_545
Ba1 O0 3.083779 1_455
Ba1 O3 3.083779 1_555
Ba1 O5 3.097593 1_555
Ba1 O5 3.097599 1_455
Ba1 O0 3.340681 1_554
Ba1 O3 3.340681 1_554
Nd0 O2 2.313556 1_545
Nd0 O0 2.313556 1_454
Nd0 O1 2.313561 1_445
Nd0 O3 2.313561 1_554
Nd0 O4 2.620752 1_544
Nd0 O5 2.620752 1_455
Mg0 O1 2.072427 1_545
Mg0 O3 2.072427 1_554
Mg0 O0 2.072431 1_554
Mg0 O2 2.072431 1_545
Nb0 O5 2.072672 1_555
Nb0 O4 2.072672 1_555
Nb0 O1 2.154057 1_555
Nb0 O3 2.154057 1_555
Nb0 O0 2.154061 1_555
Nb0 O2 2.154061 1_555
