# generated using pymatgen
data_Zn
_symmetry_space_group_name_H-M   'P 1'
_cell_length_a   5.55722573
_cell_length_b   5.55722573
_cell_length_c   5.55722573
_cell_angle_alpha   60.00000000
_cell_angle_beta   60.00000000
_cell_angle_gamma   60.00000000
_symmetry_Int_Tables_number   1
_chemical_formula_structural   Zn
_chemical_formula_sum   Zn8
_cell_volume   121.35540284
_cell_formula_units_Z   8
loop_
 _symmetry_equiv_pos_site_id
 _symmetry_equiv_pos_as_xyz
  1  'x, y, z'
loop_
 _atom_site_type_symbol
 _atom_site_label
 _atom_site_symmetry_multiplicity
 _atom_site_fract_x
 _atom_site_fract_y
 _atom_site_fract_z
 _atom_site_occupancy
  Zn  Zn0_0  1  0.00000000  0.00000000  0.00000000  1
  Zn  Zn0_1  1  0.00000000  0.00000000  0.50000000  1
  Zn  Zn0_2  1  0.00000000  0.50000000  0.00000000  1
  Zn  Zn0_3  1  0.00000000  0.50000000  0.50000000  1
  Zn  Zn0_4  1  0.50000000  0.00000000  0.00000000  1
  Zn  Zn0_5  1  0.50000000  0.00000000  0.50000000  1
  Zn  Zn0_6  1  0.50000000  0.50000000  0.00000000  1
  Zn  Zn0_7  1  0.50000000  0.50000000  0.50000000  1
loop_
_geom_bond_atom_site_label_1
_geom_bond_atom_site_label_2
_geom_bond_distance
_geom_bond_site_symmetry_2
Zn0_0 Zn0_3 2.778613 1_545
Zn0_0 Zn0_5 2.778613 1_554
Zn0_0 Zn0_1 2.778613 1_555
Zn0_0 Zn0_4 2.778613 1_555
Zn0_0 Zn0_3 2.778613 1_554
Zn0_0 Zn0_2 2.778613 1_545
Zn0_0 Zn0_2 2.778613 1_555
Zn0_0 Zn0_6 2.778613 1_545
Zn0_0 Zn0_5 2.778613 1_455
Zn0_0 Zn0_6 2.778613 1_455
Zn0_0 Zn0_1 2.778613 1_554
Zn0_0 Zn0_4 2.778613 1_455
Zn0_1 Zn0_3 2.778613 1_545
Zn0_1 Zn0_2 2.778613 1_546
Zn0_1 Zn0_7 2.778613 1_545
Zn0_1 Zn0_4 2.778613 1_555
Zn0_1 Zn0_4 2.778613 1_456
Zn0_1 Zn0_5 2.778613 1_555
Zn0_1 Zn0_2 2.778613 1_555
Zn0_1 Zn0_5 2.778613 1_455
Zn0_1 Zn0_3 2.778613 1_555
Zn0_1 Zn0_7 2.778613 1_455
Zn0_2 Zn0_4 2.778613 1_555
Zn0_2 Zn0_3 2.778613 1_554
Zn0_2 Zn0_4 2.778613 1_465
Zn0_2 Zn0_6 2.778613 1_455
Zn0_2 Zn0_7 2.778613 1_554
Zn0_2 Zn0_3 2.778613 1_555
Zn0_2 Zn0_7 2.778613 1_455
Zn0_2 Zn0_6 2.778613 1_555
Zn0_3 Zn0_6 2.778613 1_456
Zn0_3 Zn0_7 2.778613 1_555
Zn0_3 Zn0_5 2.778613 1_555
Zn0_3 Zn0_5 2.778613 1_465
Zn0_3 Zn0_7 2.778613 1_455
Zn0_3 Zn0_6 2.778613 1_555
Zn0_4 Zn0_5 2.778613 1_554
Zn0_4 Zn0_7 2.778613 1_545
Zn0_4 Zn0_5 2.778613 1_555
Zn0_4 Zn0_6 2.778613 1_545
Zn0_4 Zn0_7 2.778613 1_554
Zn0_4 Zn0_6 2.778613 1_555
Zn0_5 Zn0_7 2.778613 1_545
Zn0_5 Zn0_7 2.778613 1_555
Zn0_5 Zn0_6 2.778613 1_546
Zn0_5 Zn0_6 2.778613 1_555
Zn0_6 Zn0_7 2.778613 1_555
Zn0_6 Zn0_7 2.778613 1_554
