# generated using pymatgen
data_Rb3CrF7
_symmetry_space_group_name_H-M   'P 1'
_cell_length_a   8.03979291
_cell_length_b   8.03979291
_cell_length_c   5.81801311
_cell_angle_alpha   90.00000000
_cell_angle_beta   90.00000000
_cell_angle_gamma   90.00000000
_symmetry_Int_Tables_number   1
_chemical_formula_structural   Rb3CrF7
_chemical_formula_sum   'Rb6 Cr2 F14'
_cell_volume   376.06630248
_cell_formula_units_Z   2
loop_
 _symmetry_equiv_pos_site_id
 _symmetry_equiv_pos_as_xyz
  1  'x, y, z'
loop_
 _atom_site_type_symbol
 _atom_site_label
 _atom_site_symmetry_multiplicity
 _atom_site_fract_x
 _atom_site_fract_y
 _atom_site_fract_z
 _atom_site_occupancy
  Rb  Rb0  1  0.19106096  0.69106096  0.50000000  1
  Rb  Rb1  1  0.69106096  0.80893904  0.50000000  1
  Rb  Rb2  1  0.30893904  0.19106096  0.50000000  1
  Rb  Rb3  1  0.80893904  0.30893904  0.50000000  1
  Rb  Rb4  1  0.50000000  0.50000000  -0.00000000  1
  Rb  Rb5  1  -0.00000000  0.00000000  -0.00000000  1
  Cr  Cr0  1  -0.00000000  0.50000000  -0.00000000  1
  Cr  Cr1  1  0.50000000  0.00000000  -0.00000000  1
  F  F0  1  0.38875972  0.88875972  0.77652646  1
  F  F1  1  0.61124028  0.11124028  0.77652646  1
  F  F2  1  0.11124028  0.38875972  0.77652646  1
  F  F3  1  0.88875972  0.61124028  0.77652646  1
  F  F4  1  0.38875972  0.88875972  0.22347354  1
  F  F5  1  0.88875972  0.61124028  0.22347354  1
  F  F6  1  0.11124028  0.38875972  0.22347354  1
  F  F7  1  0.61124028  0.11124028  0.22347354  1
  F  F8  1  -0.00000000  0.00000000  0.50000000  1
  F  F9  1  0.50000000  0.50000000  0.50000000  1
  F  F10  1  0.83621260  0.33621260  -0.00000000  1
  F  F11  1  0.33621260  0.16378740  -0.00000000  1
  F  F12  1  0.66378740  0.83621260  -0.00000000  1
  F  F13  1  0.16378740  0.66378740  -0.00000000  1
loop_
_geom_bond_atom_site_label_1
_geom_bond_atom_site_label_2
_geom_bond_distance
_geom_bond_site_symmetry_2
Cr0 F3 1.813882 1_454
Cr0 F5 1.813882 1_455
Cr0 F6 1.813882 1_555
Cr0 F2 1.813882 1_554
Cr0 F13 1.862260 1_555
Cr0 F10 1.862260 1_455
Cr1 F4 1.813882 1_545
Cr1 F0 1.813882 1_544
Cr1 F7 1.813882 1_555
Cr1 F1 1.813882 1_554
Cr1 F12 1.862260 1_545
Cr1 F11 1.862260 1_555
F0 Rb0 2.764253 1_555
F0 Rb2 2.984496 1_565
F0 Rb1 2.984496 1_555
F1 Rb3 2.764253 1_555
F1 Rb1 2.984496 1_545
F1 Rb2 2.984496 1_555
F2 Rb2 2.764253 1_555
F2 Rb3 2.984496 1_455
F2 Rb0 2.984496 1_555
F3 Rb1 2.764253 1_555
F3 Rb0 2.984496 1_655
F3 Rb3 2.984496 1_555
F4 Rb0 2.764253 1_555
F4 Rb2 2.984496 1_565
F4 Rb1 2.984496 1_555
F5 Rb1 2.764253 1_555
F5 Rb0 2.984496 1_655
F5 Rb3 2.984496 1_555
F6 Rb2 2.764253 1_555
F6 Rb3 2.984496 1_455
F6 Rb0 2.984496 1_555
F7 Rb3 2.764253 1_555
F7 Rb1 2.984496 1_545
F7 Rb2 2.984496 1_555
F8 Rb5 2.909007 1_555
F8 Rb5 2.909007 1_556
F8 Rb0 2.920422 1_545
F8 Rb1 2.920422 1_445
F8 Rb3 2.920422 1_455
F8 Rb2 2.920422 1_555
F9 Rb4 2.909007 1_555
F9 Rb4 2.909007 1_556
F9 Rb3 2.920422 1_555
F9 Rb0 2.920422 1_555
F9 Rb2 2.920422 1_555
F9 Rb1 2.920422 1_555
F10 Rb3 2.925488 1_555
F10 Rb3 2.925488 1_554
F10 Rb5 3.006767 1_655
F10 Rb4 3.006767 1_555
F11 Rb2 2.925488 1_555
F11 Rb2 2.925488 1_554
F11 Rb5 3.006767 1_555
F11 Rb4 3.006767 1_555
F12 Rb1 2.925488 1_555
F12 Rb1 2.925488 1_554
F12 Rb4 3.006767 1_555
F12 Rb5 3.006767 1_665
F13 Rb0 2.925488 1_554
F13 Rb0 2.925488 1_555
F13 Rb4 3.006767 1_555
F13 Rb5 3.006767 1_565
