# generated using pymatgen
data_Dy6FeSb2
_symmetry_space_group_name_H-M   'P 1'
_cell_length_a   8.21508737
_cell_length_b   8.20115786
_cell_length_c   4.17268798
_cell_angle_alpha   90.00000000
_cell_angle_beta   90.00000000
_cell_angle_gamma   119.94392198
_symmetry_Int_Tables_number   1
_chemical_formula_structural   Dy6FeSb2
_chemical_formula_sum   'Dy6 Fe1 Sb2'
_cell_volume   243.60098192
_cell_formula_units_Z   1
loop_
 _symmetry_equiv_pos_site_id
 _symmetry_equiv_pos_as_xyz
  1  'x, y, z'
loop_
 _atom_site_type_symbol
 _atom_site_label
 _atom_site_symmetry_multiplicity
 _atom_site_fract_x
 _atom_site_fract_y
 _atom_site_fract_z
 _atom_site_occupancy
  Dy  Dy0  1  0.23328370  0.99692123  0.00000000  1
  Dy  Dy1  1  0.76671630  0.76363753  0.00000000  1
  Dy  Dy2  1  0.00000000  0.24024556  0.00000000  1
  Dy  Dy3  1  0.59560896  -0.00230190  0.50000000  1
  Dy  Dy4  1  0.40439104  0.40208914  0.50000000  1
  Dy  Dy5  1  -0.00000000  0.59656560  0.50000000  1
  Fe  Fe0  1  0.00000000  0.00609555  0.50000000  1
  Sb  Sb0  1  0.33587124  0.66630977  0.00000000  1
  Sb  Sb1  1  0.66412876  0.33043853  0.00000000  1
loop_
_geom_bond_atom_site_label_1
_geom_bond_atom_site_label_2
_geom_bond_distance
_geom_bond_site_symmetry_2
Dy0 Fe0 2.859232 1_564
Dy0 Fe0 2.859232 1_565
Dy0 Sb0 3.216073 1_555
Dy0 Sb1 3.216256 1_565
Dy1 Fe0 2.859232 1_664
Dy1 Fe0 2.859232 1_665
Dy1 Sb1 3.216073 1_555
Dy1 Sb0 3.216256 1_555
Dy2 Fe0 2.835558 1_555
Dy2 Fe0 2.835558 1_554
Dy2 Sb1 3.193411 1_455
Dy2 Sb0 3.193412 1_555
Dy3 Sb0 3.240804 1_545
Dy3 Sb0 3.240804 1_546
Dy3 Sb1 3.253135 1_556
Dy3 Sb1 3.253135 1_555
Dy3 Fe0 3.288273 1_655
Dy4 Sb1 3.240803 1_556
Dy4 Sb1 3.240803 1_555
Dy4 Sb0 3.253135 1_556
Dy4 Sb0 3.253135 1_555
Dy4 Fe0 3.288273 1_555
Dy5 Sb0 3.273790 1_556
Dy5 Sb0 3.273790 1_555
Dy5 Sb1 3.273790 1_456
Dy5 Sb1 3.273790 1_455
Dy5 Fe0 3.358620 1_565
