# generated using pymatgen
data_Co(WO4)2
_symmetry_space_group_name_H-M   'P 1'
_cell_length_a   5.09084300
_cell_length_b   5.53445595
_cell_length_c   5.80003183
_cell_angle_alpha   107.81190062
_cell_angle_beta   90.41029831
_cell_angle_gamma   116.98645982
_symmetry_Int_Tables_number   1
_chemical_formula_structural   Co(WO4)2
_chemical_formula_sum   'Co1 W2 O8'
_cell_volume   136.57465626
_cell_formula_units_Z   1
loop_
 _symmetry_equiv_pos_site_id
 _symmetry_equiv_pos_as_xyz
  1  'x, y, z'
loop_
 _atom_site_type_symbol
 _atom_site_label
 _atom_site_symmetry_multiplicity
 _atom_site_fract_x
 _atom_site_fract_y
 _atom_site_fract_z
 _atom_site_occupancy
  Co  Co0  1  0.50000000  0.00000000  0.00000000  1
  W  W0  1  0.24646400  0.50869100  0.33437500  1
  W  W1  1  0.75353600  0.49130900  0.66562500  1
  O  O0  1  0.04395200  0.72393700  0.46104600  1
  O  O1  1  0.52759600  0.71076700  0.67617400  1
  O  O2  1  0.48085100  0.75388100  0.17656400  1
  O  O3  1  0.94564000  0.22738700  0.07530700  1
  O  O4  1  0.95604800  0.27606300  0.53895400  1
  O  O5  1  0.47240400  0.28923300  0.32382600  1
  O  O6  1  0.05436000  0.77261300  0.92469300  1
  O  O7  1  0.51914900  0.24611900  0.82343600  1
loop_
_geom_bond_atom_site_label_1
_geom_bond_atom_site_label_2
_geom_bond_distance
_geom_bond_site_symmetry_2
Co0 O7 1.909965 1_554
Co0 O2 1.909965 1_545
Co0 O3 1.994950 1_555
Co0 O6 1.994950 1_544
Co0 O5 2.116198 1_555
Co0 O1 2.116198 1_544
O0 W0 1.900471 1_555
O0 W1 2.117446 1_455
O1 W1 2.006342 1_555
O1 W0 2.092722 1_555
O2 W0 1.846351 1_555
O3 W0 1.843632 1_655
O4 W1 1.900471 1_555
O4 W0 2.117446 1_655
O5 W0 2.006342 1_555
O5 W1 2.092722 1_555
O6 W1 1.843632 1_455
O7 W1 1.846351 1_555
