# generated using pymatgen
data_MgTi2(SnO3)2
_symmetry_space_group_name_H-M   'P 1'
_cell_length_a   7.45539131
_cell_length_b   7.45539156
_cell_length_c   7.45539165
_cell_angle_alpha   40.40228759
_cell_angle_beta   40.40229293
_cell_angle_gamma   40.40229091
_symmetry_Int_Tables_number   1
_chemical_formula_structural   MgTi2(SnO3)2
_chemical_formula_sum   'Mg1 Ti2 Sn2 O6'
_cell_volume   156.97768900
_cell_formula_units_Z   1
loop_
 _symmetry_equiv_pos_site_id
 _symmetry_equiv_pos_as_xyz
  1  'x, y, z'
loop_
 _atom_site_type_symbol
 _atom_site_label
 _atom_site_symmetry_multiplicity
 _atom_site_fract_x
 _atom_site_fract_y
 _atom_site_fract_z
 _atom_site_occupancy
  Mg  Mg0  1  0.50000000  0.50000000  0.50000000  1
  Ti  Ti0  1  0.32816700  0.32816700  0.32816700  1
  Ti  Ti1  1  0.67183300  0.67183300  0.67183300  1
  Sn  Sn0  1  0.11132600  0.11132600  0.11132600  1
  Sn  Sn1  1  0.88867400  0.88867400  0.88867400  1
  O  O0  1  0.05869700  0.69209200  0.41054100  1
  O  O1  1  0.41054100  0.05869700  0.69209200  1
  O  O2  1  0.30790800  0.58945900  0.94130300  1
  O  O3  1  0.69209200  0.41054100  0.05869700  1
  O  O4  1  0.58945900  0.94130300  0.30790800  1
  O  O5  1  0.94130300  0.30790800  0.58945900  1
loop_
_geom_bond_atom_site_label_1
_geom_bond_atom_site_label_2
_geom_bond_distance
_geom_bond_site_symmetry_2
Mg0 O0 2.834002 1_555
Mg0 O5 2.834002 1_555
Mg0 O4 2.834002 1_555
Mg0 O1 2.834002 1_555
Mg0 O2 2.834002 1_555
Mg0 O3 2.834002 1_555
Mg0 Sn1 3.182087 1_545
Mg0 Sn0 3.182087 1_565
Mg0 Sn0 3.182087 1_556
Mg0 Sn1 3.182087 1_554
Mg0 Sn1 3.182088 1_455
Mg0 Sn0 3.182088 1_655
O0 Ti1 1.947956 1_455
O0 Ti0 2.032641 1_555
O0 Sn0 2.194303 1_565
O1 Ti1 1.947956 1_545
O1 Ti0 2.032641 1_555
O1 Sn0 2.194303 1_556
O2 Ti0 1.947956 1_556
O2 Ti1 2.032641 1_555
O2 Sn1 2.194303 1_455
O3 Ti1 1.947956 1_554
O3 Ti0 2.032641 1_555
O3 Sn0 2.194303 1_655
O4 Ti0 1.947956 1_565
O4 Ti1 2.032641 1_555
O4 Sn1 2.194303 1_554
O5 Ti0 1.947956 1_655
O5 Ti1 2.032641 1_555
O5 Sn1 2.194303 1_545
