# generated using pymatgen
data_Ba2MgTl2CuO6
_symmetry_space_group_name_H-M   'P 1'
_cell_length_a   3.84292159
_cell_length_b   3.84292159
_cell_length_c   14.98667059
_cell_angle_alpha   90.11021245
_cell_angle_beta   74.98718486
_cell_angle_gamma   89.84607505
_symmetry_Int_Tables_number   1
_chemical_formula_structural   Ba2MgTl2CuO6
_chemical_formula_sum   'Ba2 Mg1 Tl2 Cu1 O6'
_cell_volume   213.76804390
_cell_formula_units_Z   1
loop_
 _symmetry_equiv_pos_site_id
 _symmetry_equiv_pos_as_xyz
  1  'x, y, z'
loop_
 _atom_site_type_symbol
 _atom_site_label
 _atom_site_symmetry_multiplicity
 _atom_site_fract_x
 _atom_site_fract_y
 _atom_site_fract_z
 _atom_site_occupancy
  Ba  Ba0  1  0.29897212  0.43689028  0.13834609  1
  Ba  Ba1  1  0.57523637  0.43731821  0.86165391  1
  Mg  Mg0  1  0.92558571  0.42558571  0.50000000  1
  Tl  Tl0  1  0.68142514  0.92412433  0.34889509  1
  Tl  Tl1  1  0.27301942  0.03032023  0.65110491  1
  Cu  Cu0  1  0.93747212  0.93747212  0.00000000  1
  O  O0  1  0.71848731  0.93647914  0.19925223  1
  O  O1  1  0.13573036  0.91773853  0.80074777  1
  O  O2  1  0.93715075  0.43731803  -0.00001783  1
  O  O3  1  0.43730021  0.93713293  0.00001783  1
  O  O4  1  0.86711518  0.92235141  0.55681889  1
  O  O5  1  0.47917230  0.42393607  0.44318111  1
loop_
_geom_bond_atom_site_label_1
_geom_bond_atom_site_label_2
_geom_bond_distance
_geom_bond_site_symmetry_2
Ba0 O3 2.770730 1_545
Ba0 O2 2.771262 1_555
Ba0 O3 2.779521 1_555
Ba0 O2 2.779742 1_455
Ba0 O0 2.807630 1_545
Ba0 O0 2.808992 1_555
Ba0 O0 2.900129 1_455
Ba0 O0 2.912464 1_445
Ba1 O2 2.770731 1_456
Ba1 O3 2.771262 1_556
Ba1 O2 2.779521 1_556
Ba1 O3 2.779742 1_546
Ba1 O1 2.807631 1_555
Ba1 O1 2.808987 1_655
Ba1 O1 2.900129 1_645
Ba1 O1 2.912469 1_545
Mg0 O4 2.076609 1_555
Mg0 O5 2.076616 1_655
Mg0 O5 2.103576 1_555
Mg0 O4 2.103583 1_545
Cu0 O2 1.920866 1_565
Cu0 O3 1.920866 1_655
Cu0 O3 1.922056 1_555
Cu0 O2 1.922056 1_555
O0 Tl0 2.210651 1_555
O1 Tl1 2.210652 1_565
O4 Tl1 2.387998 1_565
O4 Tl1 2.396892 1_665
O5 Tl0 2.388003 1_545
O5 Tl0 2.396885 1_555
