# generated using pymatgen
data_MgTi4O8
_symmetry_space_group_name_H-M   'P 1'
_cell_length_a   3.03975600
_cell_length_b   5.04791036
_cell_length_c   10.76516400
_cell_angle_alpha   90.00000000
_cell_angle_beta   90.00000000
_cell_angle_gamma   107.52060414
_symmetry_Int_Tables_number   1
_chemical_formula_structural   MgTi4O8
_chemical_formula_sum   'Mg1 Ti4 O8'
_cell_volume   157.52200730
_cell_formula_units_Z   1
loop_
 _symmetry_equiv_pos_site_id
 _symmetry_equiv_pos_as_xyz
  1  'x, y, z'
loop_
 _atom_site_type_symbol
 _atom_site_label
 _atom_site_symmetry_multiplicity
 _atom_site_fract_x
 _atom_site_fract_y
 _atom_site_fract_z
 _atom_site_occupancy
  Mg  Mg0  1  0.27313600  0.54512700  0.25000000  1
  Ti  Ti0  1  0.87808700  0.75495100  0.03454500  1
  Ti  Ti1  1  0.13539400  0.26951100  0.91149500  1
  Ti  Ti2  1  0.87808700  0.75495100  0.46545500  1
  Ti  Ti3  1  0.13539400  0.26951100  0.58850500  1
  O  O0  1  0.24243600  0.48357000  0.42310600  1
  O  O1  1  0.77571500  0.55005000  0.61113100  1
  O  O2  1  0.77571500  0.55005000  0.88886900  1
  O  O3  1  0.24243600  0.48357000  0.07689400  1
  O  O4  1  0.89747600  0.79374800  0.25000000  1
  O  O5  1  0.07655000  0.15154700  0.75000000  1
  O  O6  1  0.51145400  0.02170700  0.98630600  1
  O  O7  1  0.51145400  0.02170700  0.51369400  1
loop_
_geom_bond_atom_site_label_1
_geom_bond_atom_site_label_2
_geom_bond_distance
_geom_bond_site_symmetry_2
Mg0 O0 1.886926 1_555
Mg0 O3 1.886926 1_555
Mg0 O4 1.934403 1_455
Mg0 O4 1.934626 1_555
O0 Ti2 2.055296 1_555
O0 Ti2 2.055389 1_455
O0 Ti3 2.057212 1_555
O1 Ti2 1.852619 1_555
O1 Ti3 2.047532 1_655
O1 Ti3 2.047852 1_555
O2 Ti0 1.852619 1_556
O2 Ti1 2.047532 1_655
O2 Ti1 2.047852 1_555
O3 Ti0 2.055296 1_555
O3 Ti0 2.055389 1_455
O3 Ti1 2.057212 1_554
O4 Ti2 2.326915 1_555
O4 Ti0 2.326915 1_555
O5 Ti1 1.828908 1_555
O5 Ti3 1.828908 1_555
O6 Ti0 2.056338 1_546
O6 Ti0 2.056371 1_446
O6 Ti1 2.093091 1_555
O6 Ti1 2.093335 1_655
O7 Ti2 2.056338 1_545
O7 Ti2 2.056371 1_445
O7 Ti3 2.093091 1_555
O7 Ti3 2.093335 1_655
