# generated using pymatgen
data_BaSb2
_symmetry_space_group_name_H-M   'P 1'
_cell_length_a   4.42866250
_cell_length_b   11.92156711
_cell_length_c   12.69352549
_cell_angle_alpha   101.41346017
_cell_angle_beta   90.00000000
_cell_angle_gamma   90.00000000
_symmetry_Int_Tables_number   1
_chemical_formula_structural   BaSb2
_chemical_formula_sum   'Ba6 Sb12'
_cell_volume   656.92205035
_cell_formula_units_Z   6
loop_
 _symmetry_equiv_pos_site_id
 _symmetry_equiv_pos_as_xyz
  1  'x, y, z'
loop_
 _atom_site_type_symbol
 _atom_site_label
 _atom_site_symmetry_multiplicity
 _atom_site_fract_x
 _atom_site_fract_y
 _atom_site_fract_z
 _atom_site_occupancy
  Ba  Ba0  1  0.25000000  0.05752971  0.76729697  1
  Ba  Ba1  1  0.75000000  0.94247029  0.23270303  1
  Ba  Ba2  1  0.25000000  0.70973133  0.44345712  1
  Ba  Ba3  1  0.75000000  0.29026867  0.55654288  1
  Ba  Ba4  1  0.25000000  0.37465397  0.08340660  1
  Ba  Ba5  1  0.75000000  0.62534603  0.91659340  1
  Sb  Sb0  1  0.25000000  0.05456931  0.45400266  1
  Sb  Sb1  1  0.75000000  0.94543069  0.54599734  1
  Sb  Sb2  1  0.25000000  0.06911272  0.05209193  1
  Sb  Sb3  1  0.75000000  0.93088728  0.94790807  1
  Sb  Sb4  1  0.25000000  0.41287655  0.77098110  1
  Sb  Sb5  1  0.75000000  0.58712345  0.22901890  1
  Sb  Sb6  1  0.75000000  0.25291306  0.26733225  1
  Sb  Sb7  1  0.25000000  0.74708694  0.73266775  1
  Sb  Sb8  1  0.75000000  0.60423327  0.63535034  1
  Sb  Sb9  1  0.25000000  0.39576673  0.36464966  1
  Sb  Sb10  1  0.75000000  0.29649471  0.85688758  1
  Sb  Sb11  1  0.25000000  0.70350529  0.14311242  1
loop_
_geom_bond_atom_site_label_1
_geom_bond_atom_site_label_2
_geom_bond_distance
_geom_bond_site_symmetry_2
Ba0 Sb2 3.590279 1_556
Ba0 Sb10 3.609736 1_455
Ba0 Sb10 3.609736 1_555
Ba0 Sb1 3.618612 1_545
Ba0 Sb1 3.618612 1_445
Ba0 Sb7 3.639574 1_545
Ba0 Sb3 3.715987 1_545
Ba0 Sb3 3.715987 1_445
Ba0 Sb0 3.969976 1_555
Ba1 Sb3 3.590279 1_554
Ba1 Sb11 3.609736 1_555
Ba1 Sb11 3.609736 1_655
Ba1 Sb0 3.618612 1_565
Ba1 Sb0 3.618612 1_665
Ba1 Sb6 3.639574 1_565
Ba1 Sb2 3.715987 1_565
Ba1 Sb2 3.715987 1_665
Ba1 Sb1 3.969976 1_555
Ba2 Sb5 3.588074 1_455
Ba2 Sb5 3.588074 1_555
Ba2 Sb7 3.609470 1_555
Ba2 Sb1 3.611855 1_455
Ba2 Sb1 3.611855 1_555
Ba2 Sb9 3.678109 1_555
Ba2 Sb8 3.691974 1_455
Ba2 Sb8 3.691974 1_555
Ba2 Sb11 3.798442 1_555
Ba2 Sb0 4.086627 1_565
Ba3 Sb4 3.588074 1_555
Ba3 Sb4 3.588074 1_655
Ba3 Sb6 3.609470 1_555
Ba3 Sb0 3.611855 1_655
Ba3 Sb0 3.611855 1_555
Ba3 Sb8 3.678109 1_555
Ba3 Sb9 3.691974 1_555
Ba3 Sb9 3.691974 1_655
Ba3 Sb10 3.798442 1_555
Ba3 Sb1 4.086627 1_545
Ba4 Sb9 3.528794 1_555
Ba4 Sb2 3.585107 1_555
Ba4 Sb5 3.589234 1_455
Ba4 Sb5 3.589234 1_555
Ba4 Sb10 3.602585 1_554
Ba4 Sb10 3.602585 1_454
Ba4 Sb6 3.715018 1_555
Ba4 Sb6 3.715018 1_455
Ba4 Sb11 3.842937 1_555
Ba4 Sb4 4.080473 1_554
Ba5 Sb8 3.528794 1_555
Ba5 Sb3 3.585107 1_555
Ba5 Sb4 3.589234 1_555
Ba5 Sb4 3.589234 1_655
Ba5 Sb11 3.602585 1_556
Ba5 Sb11 3.602585 1_656
Ba5 Sb7 3.715018 1_655
Ba5 Sb7 3.715018 1_555
Ba5 Sb10 3.842937 1_555
Ba5 Sb5 4.080473 1_556
Sb0 Sb1 2.925929 1_445
Sb0 Sb1 2.925929 1_545
Sb2 Sb3 2.916356 1_444
Sb2 Sb3 2.916356 1_544
Sb6 Sb9 2.914954 1_655
Sb6 Sb9 2.914954 1_555
Sb7 Sb8 2.914954 1_555
Sb7 Sb8 2.914954 1_455
Sb10 Sb4 2.935333 1_555
Sb10 Sb4 2.935333 1_655
Sb11 Sb5 2.935333 1_455
Sb11 Sb5 2.935333 1_555
