# generated using pymatgen
data_Na14Y4Mg4Si5S7O48
_symmetry_space_group_name_H-M   'P 1'
_cell_length_a   18.58514174
_cell_length_b   9.26134162
_cell_length_c   22.99027158
_cell_angle_alpha   89.98372603
_cell_angle_beta   90.45783109
_cell_angle_gamma   119.90288620
_symmetry_Int_Tables_number   1
_chemical_formula_structural   Na14Y4Mg4Si5S7O48
_chemical_formula_sum   'Na42 Y12 Mg12 Si15 S21 O144'
_cell_volume   3430.21117032
_cell_formula_units_Z   3
loop_
 _symmetry_equiv_pos_site_id
 _symmetry_equiv_pos_as_xyz
  1  'x, y, z'
loop_
 _atom_site_type_symbol
 _atom_site_label
 _atom_site_symmetry_multiplicity
 _atom_site_fract_x
 _atom_site_fract_y
 _atom_site_fract_z
 _atom_site_occupancy
  Na  Na0  1  0.80653536  0.99247120  0.25107965  1
  Na  Na1  1  0.18311574  0.34960671  0.25329218  1
  Na  Na2  1  0.68337605  0.35218267  0.25182914  1
  Na  Na3  1  0.00293627  0.65299294  0.24550653  1
  Na  Na4  1  0.51208125  0.65453163  0.24119510  1
  Na  Na5  1  0.31776651  0.61968970  0.75342188  1
  Na  Na6  1  0.01137467  0.36769118  0.74162567  1
  Na  Na7  1  0.50196434  0.37179233  0.74482201  1
  Na  Na8  1  0.18665740  0.02067395  0.75095969  1
  Na  Na9  1  0.66907753  0.99711527  0.75103694  1
  Na  Na10  1  0.14796489  0.32541973  0.58289380  1
  Na  Na11  1  0.65184767  0.32060455  0.58230033  1
  Na  Na12  1  0.32898629  0.98054046  0.59089246  1
  Na  Na13  1  0.83267418  0.99450139  0.58441284  1
  Na  Na14  1  0.15654039  0.98987917  0.07476814  1
  Na  Na15  1  0.64593070  0.96779621  0.07753586  1
  Na  Na16  1  0.33473418  0.67332114  0.07987005  1
  Na  Na17  1  0.82704950  0.67599885  0.08496788  1
  Na  Na18  1  0.48659282  0.68215418  0.91704186  1
  Na  Na19  1  0.99365266  0.68456767  0.91448556  1
  Na  Na20  1  0.34131350  0.03338098  0.91070987  1
  Na  Na21  1  0.83926834  0.02997021  0.91211292  1
  Na  Na22  1  0.16973074  0.28119506  0.91308110  1
  Na  Na23  1  0.66343659  0.28049687  0.91454238  1
  Na  Na24  1  0.49456548  0.30411026  0.41865844  1
  Na  Na25  1  0.98734233  0.29640083  0.43181988  1
  Na  Na26  1  0.16802626  0.05291038  0.42229402  1
  Na  Na27  1  0.66925523  0.05825579  0.41905358  1
  Na  Na28  1  0.34292170  0.64953361  0.41749988  1
  Na  Na29  1  0.83830785  0.64695713  0.41592095  1
  Na  Na30  1  0.01355086  0.02087345  0.50549886  1
  Na  Na31  1  0.51584984  0.01078318  0.50027413  1
  Na  Na32  1  0.01578422  0.02246398  0.99415135  1
  Na  Na33  1  0.51341572  0.00514841  0.99979695  1
  Na  Na34  1  0.32753833  0.33397507  0.82727780  1
  Na  Na35  1  0.81693282  0.32335730  0.83298111  1
  Na  Na36  1  0.32051200  0.31225981  0.33479458  1
  Na  Na37  1  0.81577348  0.31901274  0.33556355  1
  Na  Na38  1  0.16928714  0.66918264  0.16418342  1
  Na  Na39  1  0.65175446  0.64760921  0.16233864  1
  Na  Na40  1  0.15466810  0.65575381  0.66619104  1
  Na  Na41  1  0.65818594  0.66724330  0.67193548  1
  Y  Y0  1  0.00931293  0.01321858  0.64869753  1
  Y  Y1  1  0.50758268  0.99649580  0.65145679  1
  Y  Y2  1  0.00710802  0.00918311  0.14821836  1
  Y  Y3  1  0.50973350  0.00575870  0.14757240  1
  Y  Y4  1  0.82980023  0.32976822  0.68290443  1
  Y  Y5  1  0.33123537  0.32958810  0.18193799  1
  Y  Y6  1  0.16130849  0.65825228  0.01368393  1
  Y  Y7  1  0.65582341  0.65536375  0.01894294  1
  Y  Y8  1  0.15716999  0.65865540  0.52116921  1
  Y  Y9  1  0.66076723  0.66313830  0.51528864  1
  Y  Y10  1  0.17107904  0.67454324  0.31902702  1
  Y  Y11  1  0.66657632  0.66720362  0.81677066  1
  Mg  Mg0  1  0.01066912  0.01528715  0.34975996  1
  Mg  Mg1  1  0.51599581  0.02311942  0.34698134  1
  Mg  Mg2  1  0.01421731  0.00705803  0.84654332  1
  Mg  Mg3  1  0.51312504  0.98903941  0.84405114  1
  Mg  Mg4  1  0.32642026  0.33313360  0.68730073  1
  Mg  Mg5  1  0.81927199  0.31358414  0.18204523  1
  Mg  Mg6  1  0.32727097  0.33246748  0.98610062  1
  Mg  Mg7  1  0.82265534  0.31729956  0.98520822  1
  Mg  Mg8  1  0.32284294  0.33160167  0.48745497  1
  Mg  Mg9  1  0.82757733  0.32542952  0.48864065  1
  Mg  Mg10  1  0.66663326  0.66352628  0.31874726  1
  Mg  Mg11  1  0.17004067  0.67438110  0.81741913  1
  Si  Si0  1  0.14920355  0.99682543  0.25237484  1
  Si  Si1  1  0.65382312  0.99465492  0.25372929  1
  Si  Si2  1  0.15190851  0.31266005  0.75414026  1
  Si  Si3  1  0.65023867  0.30049297  0.75231345  1
  Si  Si4  1  0.49372219  0.68742666  0.75318550  1
  Si  Si5  1  0.97840128  0.32969539  0.58158489  1
  Si  Si6  1  0.19224927  0.04616102  0.58397396  1
  Si  Si7  1  0.68351360  0.03308664  0.57946647  1
  Si  Si8  1  0.47850911  0.62625728  0.08204025  1
  Si  Si9  1  0.18404934  0.33666231  0.08155784  1
  Si  Si10  1  0.69043810  0.34049266  0.08393351  1
  Si  Si11  1  0.16741510  0.96854018  0.91519654  1
  Si  Si12  1  0.66905936  0.97760799  0.91712555  1
  Si  Si13  1  0.16763966  0.36075088  0.41510561  1
  Si  Si14  1  0.66772629  0.36686884  0.41378653  1
  S  S0  1  0.35465069  0.71050112  0.25273450  1
  S  S1  1  0.85299149  0.70595042  0.25236067  1
  S  S2  1  0.99644712  0.29462719  0.25232375  1
  S  S3  1  0.50140787  0.29913917  0.25556970  1
  S  S4  1  0.00169678  0.70376458  0.75553666  1
  S  S5  1  0.35107496  0.99715849  0.75220958  1
  S  S6  1  0.85629698  0.00069211  0.75295738  1
  S  S7  1  0.47481373  0.33224390  0.58208369  1
  S  S8  1  0.33502797  0.62604923  0.58163401  1
  S  S9  1  0.83271642  0.62855756  0.57888756  1
  S  S10  1  0.97528867  0.61582537  0.08450015  1
  S  S11  1  0.33226028  0.03519507  0.07952514  1
  S  S12  1  0.83524477  0.04639378  0.08303616  1
  S  S13  1  0.31600684  0.67011128  0.91462900  1
  S  S14  1  0.82167144  0.67087157  0.91912652  1
  S  S15  1  0.01387580  0.36353701  0.91315676  1
  S  S16  1  0.51128938  0.35593789  0.91528667  1
  S  S17  1  0.32232046  0.97350431  0.41849012  1
  S  S18  1  0.81705425  0.96263126  0.41233879  1
  S  S19  1  0.01232573  0.66697803  0.41368304  1
  S  S20  1  0.51472689  0.66526181  0.41215571  1
  O  O0  1  0.10057002  0.01633761  0.30755058  1
  O  O1  1  0.61042839  0.03068099  0.30892383  1
  O  O2  1  0.40317073  0.80007894  0.30469966  1
  O  O3  1  0.90552174  0.79475245  0.30340533  1
  O  O4  1  0.49046578  0.19667316  0.30759291  1
  O  O5  1  0.98329299  0.19126711  0.30429346  1
  O  O6  1  0.10699453  0.19119655  0.80953243  1
  O  O7  1  0.60308962  0.18621017  0.80865622  1
  O  O8  1  0.47592408  0.76576390  0.81139038  1
  O  O9  1  0.99042349  0.78341138  0.80770800  1
  O  O10  1  0.40372277  0.01661029  0.80336881  1
  O  O11  1  0.90580166  0.00944866  0.80472357  1
  O  O12  1  0.38765783  0.97152674  0.69795998  1
  O  O13  1  0.89292371  0.98143450  0.69881507  1
  O  O14  1  0.09226498  0.23151283  0.69541387  1
  O  O15  1  0.59653456  0.22357343  0.69119818  1
  O  O16  1  0.00959842  0.80272779  0.70298153  1
  O  O17  1  0.51306334  0.81395721  0.69848745  1
  O  O18  1  0.39120415  0.80295597  0.19885052  1
  O  O19  1  0.88975415  0.80718377  0.19860524  1
  O  O20  1  0.00935912  0.21526827  0.20068826  1
  O  O21  1  0.50929410  0.21683875  0.20294887  1
  O  O22  1  0.09420630  0.96865956  0.19209704  1
  O  O23  1  0.59545383  0.95987024  0.19508572  1
  O  O24  1  0.43669272  0.34915296  0.63513056  1
  O  O25  1  0.93839346  0.34923146  0.64208862  1
  O  O26  1  0.24861303  0.13613087  0.64149299  1
  O  O27  1  0.73698557  0.11572221  0.63963349  1
  O  O28  1  0.32793644  0.52880552  0.63379080  1
  O  O29  1  0.82086286  0.52658172  0.63098507  1
  O  O30  1  0.44012257  0.52966056  0.14403431  1
  O  O31  1  0.93740261  0.52218168  0.13817256  1
  O  O32  1  0.31979446  0.11244930  0.13224811  1
  O  O33  1  0.82949899  0.12965857  0.13647784  1
  O  O34  1  0.23505557  0.35868404  0.14314977  1
  O  O35  1  0.74444488  0.36761183  0.14373114  1
  O  O36  1  0.22843498  0.30895499  0.02565923  1
  O  O37  1  0.73322460  0.31679795  0.02600245  1
  O  O38  1  0.42247406  0.52893949  0.02533196  1
  O  O39  1  0.92876734  0.53163087  0.03137957  1
  O  O40  1  0.34165183  0.13317936  0.02727633  1
  O  O41  1  0.84685014  0.14582419  0.03050051  1
  O  O42  1  0.23023216  0.14709183  0.52317764  1
  O  O43  1  0.72787005  0.14454274  0.52212173  1
  O  O44  1  0.34620656  0.55119798  0.52787505  1
  O  O45  1  0.84294439  0.55115409  0.52604992  1
  O  O46  1  0.42876990  0.32648872  0.52832079  1
  O  O47  1  0.92548514  0.31887170  0.52291143  1
  O  O48  1  0.27623829  0.68963474  0.96869139  1
  O  O49  1  0.78390975  0.69777265  0.97190897  1
  O  O50  1  0.06896087  0.43571094  0.96556632  1
  O  O51  1  0.56849522  0.43372389  0.96565822  1
  O  O52  1  0.14936391  0.85577777  0.97565993  1
  O  O53  1  0.65705396  0.86088273  0.97398708  1
  O  O54  1  0.28326809  0.86893580  0.47021936  1
  O  O55  1  0.77923301  0.86197699  0.46604896  1
  O  O56  1  0.15462602  0.45850102  0.46966918  1
  O  O57  1  0.65109671  0.44909259  0.47256149  1
  O  O58  1  0.06991477  0.70354536  0.46366752  1
  O  O59  1  0.56963091  0.70249597  0.46419534  1
  O  O60  1  0.05159886  0.64077767  0.36110579  1
  O  O61  1  0.55529690  0.64079473  0.36115165  1
  O  O62  1  0.26449538  0.89672765  0.36771158  1
  O  O63  1  0.76204989  0.87856515  0.36187440  1
  O  O64  1  0.18218393  0.47346002  0.35587429  1
  O  O65  1  0.68061986  0.48913542  0.35852516  1
  O  O66  1  0.05472285  0.46947574  0.86239959  1
  O  O67  1  0.55080613  0.46138983  0.86342089  1
  O  O68  1  0.17928731  0.86749449  0.86124168  1
  O  O69  1  0.68652814  0.89173880  0.86051319  1
  O  O70  1  0.26101918  0.64445089  0.86421928  1
  O  O71  1  0.76426438  0.63309498  0.86914576  1
  O  O72  1  0.00026525  0.81311752  0.40737573  1
  O  O73  1  0.50018466  0.80930945  0.40628311  1
  O  O74  1  0.40242152  0.97871830  0.40859892  1
  O  O75  1  0.89988832  0.97505851  0.40602482  1
  O  O76  1  0.08166406  0.17687397  0.41228758  1
  O  O77  1  0.58228899  0.18016562  0.41090864  1
  O  O78  1  0.99930440  0.19044904  0.90770090  1
  O  O79  1  0.49870203  0.18565934  0.90898367  1
  O  O80  1  0.08181579  0.98414872  0.91118612  1
  O  O81  1  0.58300032  0.98825422  0.91333535  1
  O  O82  1  0.39751070  0.82522966  0.91045413  1
  O  O83  1  0.90254159  0.82644591  0.90979768  1
  O  O84  1  0.47819068  0.17222373  0.58305557  1
  O  O85  1  0.98045084  0.15118348  0.58252504  1
  O  O86  1  0.09866172  0.02677513  0.58702217  1
  O  O87  1  0.59266358  0.02482281  0.58132631  1
  O  O88  1  0.40481449  0.80176972  0.58516047  1
  O  O89  1  0.90473643  0.79907124  0.58553129  1
  O  O90  1  0.48145352  0.80988255  0.08348654  1
  O  O91  1  0.97805409  0.78290998  0.08644211  1
  O  O92  1  0.40379966  0.00865152  0.08663637  1
  O  O93  1  0.90573251  0.01225299  0.08759567  1
  O  O94  1  0.09184209  0.16327354  0.08337297  1
  O  O95  1  0.59767288  0.17132713  0.08628227  1
  O  O96  1  0.34427292  0.15040296  0.74711464  1
  O  O97  1  0.85300942  0.15974195  0.75153627  1
  O  O98  1  0.24262509  0.32390999  0.74703844  1
  O  O99  1  0.74007111  0.30371500  0.75015326  1
  O  O100  1  0.41482214  0.49999389  0.74269951  1
  O  O101  1  0.92930290  0.53174591  0.75118435  1
  O  O102  1  0.35003431  0.54325629  0.25167070  1
  O  O103  1  0.84993907  0.54152184  0.24757141  1
  O  O104  1  0.42862676  0.32607732  0.25167547  1
  O  O105  1  0.92396084  0.31939953  0.24420088  1
  O  O106  1  0.24019464  0.16882843  0.25032513  1
  O  O107  1  0.74758923  0.16331940  0.24691016  1
  O  O108  1  0.32622875  0.52116440  0.91930084  1
  O  O109  1  0.83642647  0.52716975  0.92513419  1
  O  O110  1  0.43041278  0.34907582  0.92311412  1
  O  O111  1  0.93347586  0.35851375  0.92261377  1
  O  O112  1  0.25259583  0.15360675  0.92063660  1
  O  O113  1  0.75444649  0.16306021  0.92101613  1
  O  O114  1  0.33593697  0.14531868  0.42399540  1
  O  O115  1  0.82755543  0.13223310  0.41720661  1
  O  O116  1  0.25374591  0.34896839  0.42035654  1
  O  O117  1  0.75327398  0.35244640  0.41941093  1
  O  O118  1  0.43380637  0.50959601  0.42102372  1
  O  O119  1  0.93156155  0.51367216  0.42110610  1
  O  O120  1  0.18017332  0.51105639  0.07990735  1
  O  O121  1  0.68563408  0.51427895  0.08057965  1
  O  O122  1  0.06361683  0.65298611  0.08214139  1
  O  O123  1  0.57615683  0.66975957  0.08240179  1
  O  O124  1  0.25496491  0.86638612  0.07632640  1
  O  O125  1  0.75766903  0.88040673  0.07961484  1
  O  O126  1  0.18749573  0.86216353  0.58098775  1
  O  O127  1  0.68057095  0.85186130  0.57780319  1
  O  O128  1  0.25677109  0.63545948  0.57738785  1
  O  O129  1  0.75592778  0.64317308  0.57495428  1
  O  O130  1  0.07634797  0.48138716  0.58228416  1
  O  O131  1  0.56318284  0.47317118  0.57960969  1
  O  O132  1  0.15251124  0.82111292  0.25364401  1
  O  O133  1  0.66233107  0.82492841  0.26030702  1
  O  O134  1  0.26698400  0.67757271  0.25446570  1
  O  O135  1  0.76791264  0.68161017  0.25692385  1
  O  O136  1  0.07344736  0.46236521  0.25728349  1
  O  O137  1  0.57839846  0.46615935  0.25918220  1
  O  O138  1  0.16163594  0.50016595  0.76027963  1
  O  O139  1  0.65894294  0.48511024  0.75479539  1
  O  O140  1  0.07904143  0.69217227  0.75911656  1
  O  O141  1  0.58059134  0.67809902  0.75639253  1
  O  O142  1  0.26619145  0.84832614  0.75698124  1
  O  O143  1  0.76961263  0.85908753  0.75511353  1
loop_
_geom_bond_atom_site_label_1
_geom_bond_atom_site_label_2
_geom_bond_distance
_geom_bond_site_symmetry_2
Na0 O107 2.332284 1_565
Na0 O133 2.344768 1_555
Na0 O135 2.600522 1_555
Na0 O105 2.715175 1_565
Na0 O63 2.728948 1_555
Na0 O33 2.865941 1_565
Na1 O106 2.388552 1_555
Na1 O64 2.626789 1_555
Na1 O134 2.633435 1_555
Na1 O102 2.701117 1_555
Na1 O34 2.703512 1_555
Na1 O136 2.716343 1_555
Na2 O107 2.565157 1_555
Na2 O137 2.647280 1_555
Na2 O135 2.647324 1_555
Na2 O103 2.694372 1_555
Na2 O35 2.714403 1_555
Na2 O65 2.774346 1_555
Na2 O1 2.903109 1_555
Na3 O132 2.421415 1_555
Na3 O103 2.495721 1_455
Na3 O105 2.679246 1_455
Na3 O136 2.684833 1_555
Na3 O31 2.742774 1_455
Na3 O60 2.820872 1_555
Na3 O22 2.831726 1_555
Na4 O133 2.463343 1_555
Na4 O30 2.554852 1_555
Na4 O137 2.620879 1_555
Na4 O104 2.649220 1_555
Na4 O102 2.665905 1_555
Na4 O23 2.679005 1_555
Na4 O61 2.886727 1_555
Na5 O98 2.378727 1_555
Na5 O138 2.544545 1_555
Na5 O100 2.558178 1_555
Na5 O142 2.726583 1_555
Na5 O70 2.817418 1_555
Na5 O8 2.867027 1_555
Na5 O28 2.911508 1_555
Na6 O138 2.460268 1_555
Na6 O97 2.604302 1_455
Na6 O25 2.612484 1_455
Na6 O14 2.626058 1_555
Na6 O140 2.645472 1_555
Na6 O101 2.645678 1_455
Na6 O66 2.907891 1_555
Na7 O100 2.439473 1_555
Na7 O141 2.472775 1_555
Na7 O139 2.569480 1_555
Na7 O96 2.609002 1_555
Na7 O24 2.751908 1_555
Na7 O67 2.856170 1_555
Na7 O15 2.989066 1_555
Na8 O98 2.462882 1_555
Na8 O96 2.554824 1_555
Na8 O142 2.664755 1_545
Na8 O140 2.688871 1_545
Na8 O26 2.760436 1_555
Na8 O68 2.875656 1_545
Na9 O99 2.463545 1_565
Na9 O141 2.570472 1_555
Na9 O143 2.740920 1_555
Na9 O69 2.773715 1_555
Na9 O17 2.790250 1_555
Na9 O27 2.833191 1_565
Na9 O7 2.914534 1_565
Na9 O97 2.969843 1_565
Na10 O130 2.403106 1_555
Na10 O86 2.443945 1_555
Na10 O128 2.562140 1_555
Na10 O85 2.699447 1_455
Na10 O14 2.768346 1_555
Na10 O56 2.856843 1_555
Na11 O87 2.389501 1_555
Na11 O129 2.634025 1_555
Na11 O131 2.652464 1_555
Na11 O15 2.692781 1_555
Na11 O57 2.792073 1_555
Na11 O84 2.807820 1_555
Na11 O29 2.954525 1_555
Na11 O43 2.983069 1_555
Na12 O126 2.298872 1_555
Na12 O84 2.443959 1_565
Na12 O88 2.659727 1_555
Na12 O12 2.702364 1_555
Na12 O128 2.797988 1_555
Na12 O26 2.799262 1_565
Na12 O54 2.928376 1_555
Na13 O85 2.383015 1_565
Na13 O127 2.455443 1_555
Na13 O89 2.736164 1_555
Na13 O129 2.834934 1_555
Na13 O27 2.839424 1_565
Na13 O13 2.876451 1_555
Na13 O55 2.939584 1_555
Na13 O47 2.978110 1_565
Na14 O94 2.448063 1_565
Na14 O52 2.565836 1_554
Na14 O124 2.596219 1_555
Na14 O122 2.716247 1_555
Na14 O36 2.806747 1_565
Na14 O91 2.902438 1_455
Na14 O22 2.911949 1_555
Na14 O32 2.956917 1_565
Na15 O123 2.397129 1_555
Na15 O95 2.467115 1_565
Na15 O125 2.577613 1_555
Na15 O53 2.627504 1_554
Na15 O90 2.655358 1_555
Na15 O23 2.856698 1_555
Na16 O90 2.366388 1_555
Na16 O120 2.491132 1_555
Na16 O92 2.709072 1_565
Na16 O48 2.803061 1_554
Na16 O124 2.835950 1_555
Na16 O38 2.868254 1_555
Na16 O34 2.949214 1_555
Na16 O18 2.953797 1_555
Na17 O121 2.287354 1_555
Na17 O91 2.466887 1_555
Na17 O93 2.701520 1_565
Na17 O49 2.750856 1_554
Na17 O125 2.773592 1_555
Na17 O35 2.828137 1_555
Na17 O19 2.863751 1_555
Na18 O81 2.488386 1_555
Na18 O108 2.584612 1_555
Na18 O8 2.585162 1_555
Na18 O82 2.589016 1_555
Na18 O110 2.723247 1_555
Na18 O38 2.826867 1_556
Na19 O80 2.420245 1_655
Na19 O109 2.547069 1_555
Na19 O83 2.611690 1_555
Na19 O9 2.630402 1_555
Na19 O111 2.653304 1_555
Na19 O52 2.868449 1_655
Na19 O66 2.994624 1_655
Na19 O39 3.004871 1_556
Na20 O112 2.418090 1_555
Na20 O79 2.536799 1_555
Na20 O110 2.556833 1_555
Na20 O82 2.610506 1_545
Na20 O10 2.772198 1_555
Na20 O40 2.833988 1_556
Na20 O68 2.838145 1_545
Na21 O113 2.447240 1_555
Na21 O78 2.581244 1_555
Na21 O111 2.657822 1_555
Na21 O83 2.673881 1_545
Na21 O69 2.725440 1_545
Na21 O11 2.818515 1_555
Na21 O41 2.902393 1_556
Na22 O112 2.368182 1_555
Na22 O80 2.399373 1_545
Na22 O6 2.590232 1_555
Na22 O108 2.639649 1_555
Na22 O36 2.762391 1_556
Na22 O78 2.844938 1_455
Na23 O81 2.350785 1_545
Na23 O113 2.428195 1_555
Na23 O7 2.632025 1_555
Na23 O79 2.733842 1_555
Na23 O37 2.806115 1_556
Na23 O109 2.877390 1_555
Na23 O51 3.006492 1_555
Na23 O71 3.031910 1_555
Na24 O77 2.424498 1_555
Na24 O114 2.559706 1_555
Na24 O74 2.629871 1_545
Na24 O118 2.653957 1_555
Na24 O4 2.727377 1_555
Na24 O57 2.801862 1_555
Na24 O46 2.863003 1_555
Na25 O47 2.455193 1_555
Na25 O76 2.539228 1_655
Na25 O115 2.593437 1_555
Na25 O75 2.648218 1_545
Na25 O119 2.694442 1_555
Na25 O56 2.824997 1_655
Na26 O116 2.388247 1_555
Na26 O76 2.403837 1_555
Na26 O42 2.535664 1_555
Na26 O114 2.794204 1_555
Na26 O72 2.801818 1_545
Na26 O0 2.858263 1_555
Na26 O58 2.973569 1_545
Na27 O117 2.370577 1_555
Na27 O77 2.395145 1_555
Na27 O43 2.555778 1_555
Na27 O115 2.668142 1_555
Na27 O1 2.710878 1_555
Na27 O73 2.835074 1_545
Na28 O116 2.429296 1_555
Na28 O73 2.549164 1_555
Na28 O118 2.592238 1_555
Na28 O74 2.683487 1_555
Na28 O44 2.706284 1_555
Na28 O2 2.900127 1_555
Na28 O64 2.944006 1_555
Na28 O54 3.015969 1_555
Na29 O117 2.376471 1_555
Na29 O119 2.582906 1_555
Na29 O72 2.618722 1_655
Na29 O75 2.670457 1_555
Na29 O45 2.697522 1_555
Na29 O65 2.852128 1_555
Na29 O3 2.910355 1_555
Na29 O55 2.949677 1_555
Na30 O85 2.393676 1_455
Na30 O86 2.425765 1_555
Na30 O76 2.549537 1_555
Na30 O89 2.758670 1_445
Na30 O72 2.893437 1_545
Na30 O75 2.983646 1_445
Na31 O87 2.302125 1_555
Na31 O77 2.512776 1_555
Na31 O84 2.722810 1_555
Na31 O73 2.772435 1_545
Na31 O88 2.809537 1_545
Na31 O74 2.877412 1_545
Na32 O80 2.396266 1_545
Na32 O94 2.454283 1_556
Na32 O78 2.632122 1_455
Na32 O83 2.759224 1_445
Na32 O91 2.895825 1_446
Na32 O93 2.946997 1_456
Na33 O81 2.427182 1_545
Na33 O90 2.504079 1_546
Na33 O95 2.514603 1_556
Na33 O79 2.770074 1_555
Na33 O82 2.826323 1_545
Na33 O92 2.875440 1_556
Na34 O98 2.389367 1_555
Na34 O100 2.517616 1_555
Na34 O96 2.630941 1_555
Na34 O112 2.657646 1_555
Na34 O108 2.743526 1_555
Na34 O110 2.862840 1_555
Na35 O99 2.323231 1_555
Na35 O113 2.442505 1_555
Na35 O97 2.699332 1_555
Na35 O109 2.736956 1_555
Na35 O101 2.768500 1_555
Na35 O111 2.875713 1_555
Na36 O106 2.396269 1_555
Na36 O116 2.446378 1_555
Na36 O114 2.666255 1_555
Na36 O102 2.715504 1_555
Na36 O104 2.740489 1_555
Na36 O118 2.793232 1_555
Na37 O117 2.357067 1_555
Na37 O107 2.444921 1_555
Na37 O115 2.632988 1_555
Na37 O103 2.730510 1_555
Na37 O119 2.795513 1_555
Na37 O105 2.918055 1_555
Na38 O120 2.498580 1_555
Na38 O132 2.599326 1_555
Na38 O122 2.661629 1_555
Na38 O124 2.664700 1_555
Na38 O134 2.722169 1_555
Na38 O136 2.842471 1_555
Na39 O123 2.374739 1_555
Na39 O121 2.499966 1_555
Na39 O137 2.720634 1_555
Na39 O133 2.735254 1_555
Na39 O125 2.822435 1_555
Na39 O135 2.955644 1_555
Na40 O130 2.461902 1_555
Na40 O126 2.591861 1_555
Na40 O138 2.636668 1_555
Na40 O140 2.678522 1_555
Na40 O142 2.842680 1_555
Na40 O128 2.867424 1_555
Na41 O141 2.459545 1_555
Na41 O139 2.548687 1_555
Na41 O127 2.661395 1_555
Na41 O143 2.715182 1_555
Na41 O131 2.762522 1_555
Na41 O129 2.964714 1_555
Mg0 O0 1.934715 1_555
Mg0 O76 2.012242 1_555
Mg0 O5 2.196611 1_455
Mg0 O72 2.222478 1_545
Mg0 O3 2.261527 1_445
Mg0 O75 2.308355 1_445
Mg1 O1 1.937158 1_555
Mg1 O77 1.994749 1_555
Mg1 O4 2.093182 1_555
Mg1 O2 2.293161 1_545
Mg1 O73 2.300190 1_545
Mg1 O74 2.411086 1_545
Mg2 O6 1.922541 1_555
Mg2 O80 2.016876 1_545
Mg2 O9 2.089102 1_445
Mg2 O11 2.235684 1_455
Mg2 O78 2.327101 1_455
Mg2 O83 2.409527 1_445
Mg3 O7 1.941382 1_565
Mg3 O8 1.971009 1_555
Mg3 O81 2.049411 1_555
Mg3 O10 2.358228 1_565
Mg3 O82 2.459673 1_555
Mg3 O79 2.472021 1_565
Mg4 O26 1.968544 1_555
Mg4 O100 2.036113 1_555
Mg4 O98 2.054333 1_555
Mg4 O28 2.178667 1_555
Mg4 O24 2.323094 1_555
Mg4 O96 2.327299 1_555
Mg5 O35 1.906362 1_555
Mg5 O107 2.029142 1_555
Mg5 O33 2.088583 1_555
Mg5 O31 2.318405 1_555
Mg5 O105 2.383607 1_555
Mg5 O103 2.416420 1_555
Mg6 O36 1.968867 1_556
Mg6 O38 2.005100 1_556
Mg6 O112 2.147335 1_555
Mg6 O40 2.204742 1_556
Mg6 O108 2.333388 1_555
Mg6 O110 2.354859 1_555
Mg7 O37 1.912944 1_556
Mg7 O113 1.997814 1_555
Mg7 O41 2.124168 1_556
Mg7 O39 2.240713 1_556
Mg7 O109 2.293252 1_555
Mg7 O111 2.392033 1_555
Mg8 O42 1.909516 1_555
Mg8 O116 2.056398 1_555
Mg8 O44 2.074217 1_555
Mg8 O46 2.196349 1_555
Mg8 O114 2.364296 1_555
Mg8 O118 2.441776 1_555
Mg9 O43 1.938987 1_555
Mg9 O47 2.005685 1_555
Mg9 O45 2.143197 1_555
Mg9 O117 2.193623 1_555
Mg9 O119 2.423215 1_555
Mg9 O115 2.428886 1_555
Mg10 O65 1.981509 1_555
Mg10 O133 2.040166 1_555
Mg10 O63 2.132082 1_555
Mg10 O61 2.207738 1_555
Mg10 O137 2.209629 1_555
Mg10 O135 2.306419 1_555
Mg11 O68 1.983702 1_555
Mg11 O138 2.024844 1_555
Mg11 O70 2.128742 1_555
Mg11 O142 2.210716 1_555
Mg11 O140 2.219361 1_555
Mg11 O66 2.289772 1_555
O0 Si0 1.624819 1_545
O1 Si1 1.629986 1_545
O2 S0 1.471782 1_555
O3 S1 1.479312 1_555
O4 S3 1.477570 1_555
O5 S2 1.474560 1_555
O6 Si2 1.632144 1_555
O7 Si3 1.630525 1_555
O8 Si4 1.635028 1_555
O9 S4 1.478261 1_655
O10 S5 1.476208 1_545
O11 S6 1.475675 1_555
O12 S5 1.499599 1_555
O12 Y1 2.384991 1_555
O13 S6 1.476242 1_565
O13 Y0 2.344795 1_665
O14 Si2 1.662061 1_555
O14 Y0 2.117704 1_555
O15 Si3 1.657435 1_555
O15 Y1 2.121565 1_545
O16 S4 1.479692 1_555
O16 Y0 2.316599 1_565
O17 Si4 1.634070 1_555
O17 Y1 2.050934 1_555
O18 S0 1.470440 1_555
O18 Y3 2.384348 1_565
O19 S1 1.499100 1_555
O19 Y2 2.359989 1_665
O20 S2 1.479158 1_455
O20 Y2 2.240678 1_555
O21 S3 1.476730 1_555
O21 Y3 2.336658 1_555
O22 Si0 1.656796 1_555
O22 Y2 2.087633 1_565
O23 Si1 1.651282 1_555
O23 Y3 2.135152 1_565
O24 S7 1.462308 1_555
O25 Si5 1.634407 1_555
O25 Y4 2.157239 1_555
O26 Si6 1.627421 1_555
O27 Si7 1.645303 1_555
O27 Y4 2.111667 1_555
O28 S8 1.466242 1_555
O29 S9 1.473494 1_555
O29 Y4 2.252172 1_555
O30 Si8 1.649192 1_555
O30 Y5 2.139290 1_555
O31 S10 1.474775 1_555
O32 S11 1.484945 1_555
O32 Y5 2.228327 1_555
O33 S12 1.483361 1_555
O34 Si9 1.652653 1_555
O34 Y5 2.125487 1_555
O35 Si10 1.639301 1_555
O36 Si9 1.620512 1_555
O37 Si10 1.626467 1_555
O38 Si8 1.624722 1_555
O39 S10 1.469181 1_555
O40 S11 1.463448 1_555
O41 S12 1.469286 1_555
O42 Si6 1.637932 1_555
O43 Si7 1.628296 1_555
O44 S8 1.483051 1_555
O45 S9 1.471630 1_555
O46 S7 1.483418 1_555
O47 Si5 1.636275 1_555
O48 S13 1.507265 1_555
O48 Y6 2.265619 1_556
O49 S14 1.488375 1_555
O49 Y7 2.469612 1_556
O50 S15 1.498378 1_555
O50 Y6 2.204832 1_556
O51 S16 1.485783 1_555
O51 Y7 2.235235 1_556
O52 Si11 1.671159 1_555
O52 Y6 2.135626 1_556
O53 Si12 1.640339 1_555
O53 Y7 2.155797 1_556
O54 S17 1.480316 1_555
O54 Y8 2.479704 1_555
O55 S18 1.499240 1_555
O55 Y9 2.348672 1_555
O56 Si13 1.635685 1_555
O56 Y8 2.180196 1_555
O57 Si14 1.656263 1_555
O57 Y9 2.137754 1_555
O58 S19 1.483225 1_555
O58 Y8 2.277686 1_555
O59 S20 1.490436 1_555
O59 Y9 2.228250 1_555
O60 S19 1.497864 1_555
O60 Y10 2.303546 1_555
O61 S20 1.476306 1_555
O62 S17 1.497300 1_555
O62 Y10 2.215729 1_555
O63 S18 1.478251 1_555
O64 Si13 1.655523 1_555
O64 Y10 2.146606 1_555
O65 Si14 1.639283 1_555
O66 S15 1.473602 1_555
O67 S16 1.487682 1_555
O67 Y11 2.315057 1_555
O68 Si11 1.635248 1_555
O69 Si12 1.642136 1_555
O69 Y11 2.167843 1_555
O70 S13 1.477521 1_555
O71 S14 1.479710 1_555
O71 Y11 2.320038 1_555
O72 S19 1.484903 1_555
O73 S20 1.493266 1_555
O74 S17 1.484577 1_555
O75 S18 1.493728 1_555
O76 Si13 1.656117 1_555
O77 Si14 1.666251 1_555
O78 S15 1.491809 1_655
O79 S16 1.481360 1_555
O80 Si11 1.669498 1_555
O81 Si12 1.652411 1_555
O82 S13 1.483263 1_555
O83 S14 1.492226 1_555
O84 S7 1.514419 1_555
O84 Y1 2.508236 1_545
O85 Si5 1.672705 1_555
O85 Y0 2.214499 1_655
O86 Si6 1.659223 1_555
O86 Y0 2.147885 1_555
O87 Si7 1.652541 1_555
O87 Y1 2.189888 1_545
O88 S8 1.493679 1_555
O88 Y1 2.396680 1_555
O89 S9 1.482592 1_555
O89 Y0 2.435776 1_665
O90 Si8 1.674339 1_555
O90 Y3 2.185490 1_565
O91 S10 1.523113 1_555
O91 Y2 2.358261 1_665
O92 S11 1.475570 1_555
O92 Y3 2.418261 1_555
O93 S12 1.495966 1_555
O93 Y2 2.346161 1_655
O94 Si9 1.665660 1_555
O94 Y2 2.129464 1_555
O95 Si10 1.654728 1_555
O95 Y3 2.131841 1_555
O96 S5 1.490815 1_545
O97 S6 1.504743 1_555
O97 Y4 2.412520 1_555
O98 Si2 1.645991 1_555
O99 Si3 1.656019 1_555
O99 Y4 2.206656 1_555
O100 Si4 1.636538 1_555
O101 S4 1.489650 1_655
O101 Y4 2.426788 1_555
O102 S0 1.508169 1_555
O102 Y5 2.431379 1_555
O103 S1 1.499403 1_555
O104 S3 1.494803 1_555
O104 Y5 2.420757 1_555
O105 S2 1.485427 1_555
O106 Si0 1.647679 1_545
O106 Y5 2.254092 1_555
O107 Si1 1.670793 1_545
O108 S13 1.487073 1_555
O109 S14 1.492873 1_555
O110 S16 1.484861 1_555
O111 S15 1.489321 1_655
O112 Si11 1.658634 1_545
O113 Si12 1.660270 1_545
O114 S17 1.486667 1_545
O115 S18 1.487258 1_545
O116 Si13 1.660858 1_555
O117 Si14 1.664585 1_555
O118 S20 1.491544 1_555
O119 S19 1.475500 1_655
O120 Si9 1.652628 1_555
O120 Y6 2.183153 1_555
O121 Si10 1.657555 1_555
O121 Y7 2.174963 1_555
O122 S10 1.501437 1_455
O122 Y6 2.394407 1_555
O123 Si8 1.651249 1_555
O123 Y7 2.137743 1_555
O124 S11 1.507436 1_565
O124 Y6 2.331443 1_555
O125 S12 1.495471 1_565
O125 Y7 2.428646 1_555
O126 Si6 1.663195 1_565
O126 Y8 2.165919 1_555
O127 Si7 1.652249 1_565
O127 Y9 2.146521 1_555
O128 S8 1.502184 1_555
O128 Y8 2.345492 1_555
O129 S9 1.501243 1_555
O129 Y9 2.308857 1_555
O130 Si5 1.654479 1_455
O130 Y8 2.121172 1_555
O131 S7 1.506064 1_555
O131 Y9 2.330497 1_555
O132 Si0 1.659076 1_555
O132 Y10 2.163063 1_555
O133 Si1 1.663138 1_555
O134 S0 1.501604 1_555
O134 Y10 2.318027 1_555
O135 S1 1.486360 1_555
O136 S2 1.501710 1_455
O136 Y10 2.360960 1_555
O137 S3 1.496111 1_555
O138 Si2 1.659802 1_555
O139 Si3 1.636148 1_555
O139 Y11 2.157288 1_555
O140 S4 1.495517 1_555
O141 Si4 1.660296 1_555
O141 Y11 2.148493 1_555
O142 S5 1.495086 1_555
O143 S6 1.487432 1_565
O143 Y11 2.341654 1_555
