# generated using pymatgen
data_MgAg4(RuO3)4
_symmetry_space_group_name_H-M   'P 1'
_cell_length_a   7.23746545
_cell_length_b   7.22837221
_cell_length_c   7.23732442
_cell_angle_alpha   60.04464019
_cell_angle_beta   90.00132188
_cell_angle_gamma   119.96162110
_symmetry_Int_Tables_number   1
_chemical_formula_structural   MgAg4(RuO3)4
_chemical_formula_sum   'Mg1 Ag4 Ru4 O12'
_cell_volume   268.06437059
_cell_formula_units_Z   1
loop_
 _symmetry_equiv_pos_site_id
 _symmetry_equiv_pos_as_xyz
  1  'x, y, z'
loop_
 _atom_site_type_symbol
 _atom_site_label
 _atom_site_symmetry_multiplicity
 _atom_site_fract_x
 _atom_site_fract_y
 _atom_site_fract_z
 _atom_site_occupancy
  Mg  Mg0  1  0.12962900  0.25011600  0.12951100  1
  Ag  Ag0  1  0.58056800  0.55348500  0.97356100  1
  Ag  Ag1  1  0.97461900  0.94880800  0.97465700  1
  Ag  Ag2  1  0.97459200  0.55114600  0.97464200  1
  Ag  Ag3  1  0.97356300  0.94648800  0.58054300  1
  Ru  Ru0  1  0.50030000  0.00064400  0.99898700  1
  Ru  Ru1  1  0.50016300  0.00032800  0.50018900  1
  Ru  Ru2  1  0.50017800  0.49966000  0.50020600  1
  Ru  Ru3  1  0.99900600  0.49933600  0.50032100  1
  O  O0  1  0.82327500  0.24986900  0.42654800  1
  O  O1  1  0.57078200  0.14236300  0.17880800  1
  O  O2  1  0.57078700  0.74962000  0.17881400  1
  O  O3  1  0.82269000  0.25000900  0.82266900  1
  O  O4  1  0.82326600  0.64682100  0.42657100  1
  O  O5  1  0.42591700  0.25002900  0.42585500  1
  O  O6  1  0.57085800  0.74999100  0.57089600  1
  O  O7  1  0.17872200  0.74997800  0.17875200  1
  O  O8  1  0.17880400  0.35764400  0.57079400  1
  O  O9  1  0.42657000  0.25013000  0.82325300  1
  O  O10  1  0.42655300  0.85315500  0.82325800  1
  O  O11  1  0.17879000  0.75038200  0.57079500  1
loop_
_geom_bond_atom_site_label_1
_geom_bond_atom_site_label_2
_geom_bond_distance
_geom_bond_site_symmetry_2
Ag0 O1 2.534598 1_556
Ag0 O2 2.534774 1_556
Ag0 O6 2.545793 1_555
Ag0 Mg0 2.667215 1_556
Ag0 O5 2.675208 1_556
Ag0 O9 2.678575 1_555
Ag0 O10 2.678892 1_555
Ag1 O7 2.535732 1_656
Ag1 O2 2.543798 1_556
Ag1 O8 2.544094 1_665
Ag1 O4 2.672831 1_556
Ag1 O9 2.672934 1_665
Ag1 O3 2.675581 1_565
Ag1 Mg0 2.693540 1_666
Ag2 O7 2.535685 1_656
Ag2 O1 2.543635 1_556
Ag2 O11 2.543914 1_655
Ag2 O0 2.672782 1_556
Ag2 O10 2.672993 1_655
Ag2 O3 2.675275 1_555
Ag2 Mg0 2.693179 1_656
Ag3 O11 2.534455 1_655
Ag3 O8 2.534804 1_665
Ag3 O6 2.545796 1_555
Ag3 Mg0 2.667888 1_665
Ag3 O5 2.675448 1_665
Ag3 O4 2.678433 1_555
Ag3 O0 2.678798 1_565
O0 Ru3 1.955763 1_555
O0 Ru1 1.957817 1_555
O1 Ru0 1.952614 1_554
O1 Ru1 1.953571 1_555
O2 Ru0 1.952612 1_564
O2 Ru2 1.953679 1_555
O3 Ru3 1.955303 1_555
O3 Ru0 1.955465 1_555
O4 Ru3 1.955830 1_555
O4 Ru2 1.957757 1_555
O5 Ru1 1.958313 1_555
O5 Ru2 1.958400 1_555
O6 Ru2 1.948739 1_555
O6 Ru1 1.948865 1_565
O7 Ru3 1.956044 1_455
O7 Ru0 1.956101 1_564
O8 Ru3 1.952431 1_455
O8 Ru2 1.953503 1_555
O9 Ru0 1.955800 1_555
O9 Ru2 1.957623 1_555
O10 Ru0 1.955661 1_565
O10 Ru1 1.957665 1_565
O11 Ru3 1.952435 1_455
O11 Ru1 1.953439 1_565
