# generated using pymatgen
data_MgMn2(BrO2)6
_symmetry_space_group_name_H-M   'P 1'
_cell_length_a   8.71394981
_cell_length_b   8.71394981
_cell_length_c   5.99216679
_cell_angle_alpha   79.73473699
_cell_angle_beta   79.73473699
_cell_angle_gamma   67.37224325
_symmetry_Int_Tables_number   1
_chemical_formula_structural   MgMn2(BrO2)6
_chemical_formula_sum   'Mg1 Mn2 Br6 O12'
_cell_volume   410.23370178
_cell_formula_units_Z   1
loop_
 _symmetry_equiv_pos_site_id
 _symmetry_equiv_pos_as_xyz
  1  'x, y, z'
loop_
 _atom_site_type_symbol
 _atom_site_label
 _atom_site_symmetry_multiplicity
 _atom_site_fract_x
 _atom_site_fract_y
 _atom_site_fract_z
 _atom_site_occupancy
  Mg  Mg0  1  -0.00000000  -0.00000000  0.50000000  1
  Mn  Mn0  1  0.35016671  0.35016671  0.85752244  1
  Mn  Mn1  1  0.64983329  0.64983329  0.14247756  1
  Br  Br0  1  0.93456890  0.29979155  0.70150232  1
  Br  Br1  1  0.29979155  0.93456890  0.70150232  1
  Br  Br2  1  0.06543110  0.70020845  0.29849768  1
  Br  Br3  1  0.70020845  0.06543110  0.29849768  1
  Br  Br4  1  0.35910928  0.35910928  0.47339682  1
  Br  Br5  1  0.64089072  0.64089072  0.52660318  1
  O  O0  1  0.26745106  0.53838727  0.91541463  1
  O  O1  1  0.53838727  0.26745106  0.91541463  1
  O  O2  1  0.73254894  0.46161273  0.08458537  1
  O  O3  1  0.46161273  0.73254894  0.08458537  1
  O  O4  1  0.24152439  0.24152439  0.97359175  1
  O  O5  1  0.75847561  0.75847561  0.02640825  1
  O  O6  1  0.94839411  0.25791707  0.42767829  1
  O  O7  1  0.25791707  0.94839411  0.42767829  1
  O  O8  1  0.05160589  0.74208293  0.57232171  1
  O  O9  1  0.74208293  0.05160589  0.57232171  1
  O  O10  1  0.93515656  0.93515656  0.19140820  1
  O  O11  1  0.06484344  0.06484344  0.80859180  1
loop_
_geom_bond_atom_site_label_1
_geom_bond_atom_site_label_2
_geom_bond_distance
_geom_bond_site_symmetry_2
Mg0 O8 2.094231 1_545
Mg0 O9 2.094231 1_455
Mg0 O7 2.094231 1_545
Mg0 O6 2.094231 1_455
Mg0 O10 2.246843 1_445
Mg0 O11 2.246843 1_555
Mn0 O4 1.580039 1_555
Mn0 O0 1.591834 1_555
Mn0 O1 1.591834 1_555
Mn1 O5 1.580039 1_555
Mn1 O2 1.591834 1_555
Mn1 O3 1.591834 1_555
Br0 O6 1.717263 1_555
Br0 O11 1.973579 1_655
Br1 O7 1.717263 1_555
Br1 O11 1.973579 1_565
Br2 O8 1.717263 1_555
Br2 O10 1.973579 1_455
Br3 O9 1.717263 1_555
Br3 O10 1.973579 1_545
Br4 Mn0 2.277497 1_555
Br5 Mn1 2.277497 1_555
