# generated using pymatgen
data_MgSbS2NCl6
_symmetry_space_group_name_H-M   'P 1'
_cell_length_a   7.41692741
_cell_length_b   8.37909513
_cell_length_c   8.37909474
_cell_angle_alpha   88.80185128
_cell_angle_beta   63.73105367
_cell_angle_gamma   63.73104962
_symmetry_Int_Tables_number   1
_chemical_formula_structural   MgSbS2NCl6
_chemical_formula_sum   'Mg1 Sb1 S2 N1 Cl6'
_cell_volume   408.70079601
_cell_formula_units_Z   1
loop_
 _symmetry_equiv_pos_site_id
 _symmetry_equiv_pos_as_xyz
  1  'x, y, z'
loop_
 _atom_site_type_symbol
 _atom_site_label
 _atom_site_symmetry_multiplicity
 _atom_site_fract_x
 _atom_site_fract_y
 _atom_site_fract_z
 _atom_site_occupancy
  Mg  Mg0  1  0.50000000  0.00000000  0.00000000  1
  Sb  Sb0  1  -0.00000000  0.00000000  0.00000000  1
  S  S0  1  0.50000000  0.62774037  0.37225963  1
  S  S1  1  0.50000000  0.37225963  0.62774037  1
  N  N0  1  0.50000000  0.50000000  0.50000000  1
  Cl  Cl0  1  0.90750327  0.81501965  0.81501965  1
  Cl  Cl1  1  0.00000000  0.77807990  0.22192010  1
  Cl  Cl2  1  0.53754356  0.18498035  0.18498035  1
  Cl  Cl3  1  1.00000000  0.22192010  0.77807990  1
  Cl  Cl4  1  0.09249673  0.18498035  0.18498035  1
  Cl  Cl5  1  0.46245644  0.81501965  0.81501965  1
loop_
_geom_bond_atom_site_label_1
_geom_bond_atom_site_label_2
_geom_bond_distance
_geom_bond_site_symmetry_2
N0 S1 1.497792 1_555
N0 S0 1.497792 1_555
Cl0 Mg0 2.397262 1_566
Cl0 Sb0 2.694142 1_666
Cl1 Sb0 2.602076 1_565
Cl2 Mg0 2.397267 1_555
Cl2 Sb0 2.694136 1_655
Cl3 Sb0 2.602076 1_656
Cl4 Mg0 2.397262 1_555
Cl4 Sb0 2.694142 1_555
Cl5 Mg0 2.397267 1_566
Cl5 Sb0 2.694136 1_566
