# generated using pymatgen
data_MgCo4(AgO2)4
_symmetry_space_group_name_H-M   'P 1'
_cell_length_a   3.05999055
_cell_length_b   3.05999055
_cell_length_c   26.71342551
_cell_angle_alpha   90.20006905
_cell_angle_beta   89.79993095
_cell_angle_gamma   119.69555419
_symmetry_Int_Tables_number   1
_chemical_formula_structural   MgCo4(AgO2)4
_chemical_formula_sum   'Mg1 Co4 Ag4 O8'
_cell_volume   217.28063005
_cell_formula_units_Z   1
loop_
 _symmetry_equiv_pos_site_id
 _symmetry_equiv_pos_as_xyz
  1  'x, y, z'
loop_
 _atom_site_type_symbol
 _atom_site_label
 _atom_site_symmetry_multiplicity
 _atom_site_fract_x
 _atom_site_fract_y
 _atom_site_fract_z
 _atom_site_occupancy
  Mg  Mg0  1  0.00213358  0.99786642  0.81505499  1
  Co  Co0  1  0.33330273  0.66669727  0.13584949  1
  Co  Co1  1  0.66467543  0.33532457  0.90925428  1
  Co  Co2  1  0.66628429  0.33371571  0.60123780  1
  Co  Co3  1  0.33297108  0.66702892  0.36883094  1
  Ag  Ag0  1  -0.00101005  0.00101005  0.01957739  1
  Ag  Ag1  1  0.99523143  0.00476857  0.48491618  1
  Ag  Ag2  1  0.66731046  0.33268954  0.25236036  1
  Ag  Ag3  1  0.33629192  0.66370808  0.72164145  1
  O  O0  1  -0.00030365  0.00030365  0.09815341  1
  O  O1  1  0.99817574  0.00182426  0.93997165  1
  O  O2  1  0.99603114  0.00396886  0.56322516  1
  O  O3  1  0.99873882  0.00126118  0.40635483  1
  O  O4  1  0.66693940  0.33306060  0.17348163  1
  O  O5  1  0.33595850  0.66404150  0.84784082  1
  O  O6  1  0.34038872  0.65961128  0.63841286  1
  O  O7  1  0.66688046  0.33311954  0.33112876  1
loop_
_geom_bond_atom_site_label_1
_geom_bond_atom_site_label_2
_geom_bond_distance
_geom_bond_site_symmetry_2
Mg0 O5 1.973986 1_455
Mg0 O5 1.973986 1_565
Mg0 O5 1.974927 1_555
Co0 O4 2.034939 1_565
Co0 O4 2.034939 1_455
Co0 O4 2.035236 1_555
Co0 O0 2.035850 1_665
Co0 O0 2.035850 1_555
Co0 O0 2.035947 1_565
Co1 O1 1.949291 1_555
Co1 O1 1.950972 1_565
Co1 O1 1.950972 1_455
Co1 O5 2.395934 1_555
Co1 O5 2.421464 1_655
Co1 O5 2.421464 1_545
Co2 O6 1.986616 1_555
Co2 O2 2.015395 1_555
Co2 O6 2.050591 1_655
Co2 O6 2.050591 1_545
Co2 O2 2.052492 1_455
Co2 O2 2.052492 1_565
Co3 O3 2.029499 1_465
Co3 O7 2.030355 1_555
Co3 O3 2.035653 1_565
Co3 O3 2.035653 1_455
Co3 O7 2.038750 1_455
Co3 O7 2.038750 1_565
Ag0 O0 2.099053 1_555
Ag0 O1 2.126564 1_454
Ag1 O2 2.091922 1_555
Ag1 O3 2.098650 1_555
Ag2 O7 2.104166 1_555
Ag2 O4 2.107130 1_555
Ag3 O6 2.223339 1_555
