# generated using pymatgen
data_Na42Ca8Nb16Si33(SO48)3
_symmetry_space_group_name_H-M   'P 1'
_cell_length_a   18.49675289
_cell_length_b   9.25061827
_cell_length_c   22.60647553
_cell_angle_alpha   89.86927984
_cell_angle_beta   90.34297805
_cell_angle_gamma   119.97307516
_symmetry_Int_Tables_number   1
_chemical_formula_structural   Na42Ca8Nb16Si33(SO48)3
_chemical_formula_sum   'Na42 Ca8 Nb16 Si33 S3 O144'
_cell_volume   3350.73115689
_cell_formula_units_Z   1
loop_
 _symmetry_equiv_pos_site_id
 _symmetry_equiv_pos_as_xyz
  1  'x, y, z'
loop_
 _atom_site_type_symbol
 _atom_site_label
 _atom_site_symmetry_multiplicity
 _atom_site_fract_x
 _atom_site_fract_y
 _atom_site_fract_z
 _atom_site_occupancy
  Na  Na0  1  0.31641047  0.98076695  0.25477451  1
  Na  Na1  1  0.81788305  0.98241844  0.25535711  1
  Na  Na2  1  0.17778373  0.38162322  0.25424480  1
  Na  Na3  1  0.67869163  0.38253977  0.25450947  1
  Na  Na4  1  0.00405964  0.63579569  0.26113299  1
  Na  Na5  1  0.50344936  0.63367921  0.25964239  1
  Na  Na6  1  0.31756713  0.65401377  0.75643152  1
  Na  Na7  1  0.81044246  0.64268234  0.75447725  1
  Na  Na8  1  0.00271037  0.37774812  0.75772663  1
  Na  Na9  1  0.51292128  0.37528303  0.75767262  1
  Na  Na10  1  0.17744987  0.97339395  0.75490199  1
  Na  Na11  1  0.67820460  0.97838923  0.75434001  1
  Na  Na12  1  0.14262031  0.32122164  0.58230825  1
  Na  Na13  1  0.64266197  0.31746923  0.59147076  1
  Na  Na14  1  0.01645692  0.71655304  0.58987945  1
  Na  Na15  1  0.51944885  0.72198636  0.59005140  1
  Na  Na16  1  0.34138042  0.96121787  0.58934264  1
  Na  Na17  1  0.84169355  0.96676454  0.59065620  1
  Na  Na18  1  0.34091550  0.72082161  0.08976600  1
  Na  Na19  1  0.84107608  0.72088796  0.09013029  1
  Na  Na20  1  0.01833388  0.31759171  0.08948133  1
  Na  Na21  1  0.51668586  0.31474682  0.08855615  1
  Na  Na22  1  0.48643480  0.66186543  0.91478872  1
  Na  Na23  1  0.98941196  0.65575366  0.91480791  1
  Na  Na24  1  0.34509242  0.02589450  0.91591414  1
  Na  Na25  1  0.84131444  0.02590157  0.91442612  1
  Na  Na26  1  0.66576817  0.30772009  0.91407853  1
  Na  Na27  1  0.48885813  0.32125089  0.41503134  1
  Na  Na28  1  0.34006197  0.65594985  0.41430121  1
  Na  Na29  1  0.84260218  0.65602021  0.41512035  1
  Na  Na30  1  0.00412468  0.00642254  0.50337371  1
  Na  Na31  1  0.50614464  0.00027602  0.50535225  1
  Na  Na32  1  0.01183174  0.01029065  0.00769003  1
  Na  Na33  1  0.50458474  0.99866065  0.00605607  1
  Na  Na34  1  0.32979647  0.33441575  0.83631644  1
  Na  Na35  1  0.83260354  0.33293271  0.83141368  1
  Na  Na36  1  0.32769615  0.32278450  0.33385349  1
  Na  Na37  1  0.83610650  0.32436277  0.33743689  1
  Na  Na38  1  0.16593937  0.66048777  0.17075674  1
  Na  Na39  1  0.66703535  0.66035731  0.17139232  1
  Na  Na40  1  0.16712126  0.68314228  0.67226855  1
  Na  Na41  1  0.66633842  0.66500152  0.67799880  1
  Ca  Ca0  1  0.99933519  0.99730966  0.64549307  1
  Ca  Ca1  1  0.49982556  -0.00001894  0.64648554  1
  Ca  Ca2  1  0.00314159  0.00064434  0.14405212  1
  Ca  Ca3  1  0.50320654  0.00092367  0.14328554  1
  Ca  Ca4  1  0.16483623  0.66270498  0.32273262  1
  Ca  Ca5  1  0.66667325  0.66493056  0.32216692  1
  Ca  Ca6  1  0.16677844  0.66782419  0.82352534  1
  Ca  Ca7  1  0.66634883  0.66750046  0.82116746  1
  Nb  Nb0  1  0.99139780  0.99963723  0.35766075  1
  Nb  Nb1  1  0.49217377  0.99687223  0.35640859  1
  Nb  Nb2  1  0.99305668  0.98826536  0.85619266  1
  Nb  Nb3  1  0.49821048  0.99868019  0.85049931  1
  Nb  Nb4  1  0.34027835  0.33605734  0.68424766  1
  Nb  Nb5  1  0.83276112  0.33342804  0.68803061  1
  Nb  Nb6  1  0.33823969  0.33990946  0.18378379  1
  Nb  Nb7  1  0.83930856  0.34230619  0.18429710  1
  Nb  Nb8  1  0.33019505  0.33203997  0.98103728  1
  Nb  Nb9  1  0.83306311  0.33121962  0.98222617  1
  Nb  Nb10  1  0.33065172  0.33094822  0.48011874  1
  Nb  Nb11  1  0.83429523  0.33086980  0.48009616  1
  Nb  Nb12  1  0.16753741  0.66903277  0.01825337  1
  Nb  Nb13  1  0.66650470  0.66932356  0.02030359  1
  Nb  Nb14  1  0.16385518  0.66427144  0.51667587  1
  Nb  Nb15  1  0.66669876  0.66731148  0.51772366  1
  Si  Si0  1  0.35132249  0.69938183  0.24654973  1
  Si  Si1  1  0.85209951  0.70108982  0.24708218  1
  Si  Si2  1  0.99808210  0.29424155  0.24669716  1
  Si  Si3  1  0.49791006  0.29527330  0.24685456  1
  Si  Si4  1  0.64946681  0.29460689  0.74694815  1
  Si  Si5  1  0.99943600  0.70204036  0.74706787  1
  Si  Si6  1  0.49645582  0.69863437  0.74682422  1
  Si  Si7  1  0.35009674  0.00184792  0.74614140  1
  Si  Si8  1  0.85259438  0.00501117  0.74677834  1
  Si  Si9  1  0.48295842  0.34394704  0.57940868  1
  Si  Si10  1  0.98124700  0.34618797  0.58366976  1
  Si  Si11  1  0.19172783  0.03915043  0.58281777  1
  Si  Si12  1  0.69207015  0.04037799  0.58185090  1
  Si  Si13  1  0.32799705  0.61812666  0.58179636  1
  Si  Si14  1  0.82871748  0.61737345  0.58122730  1
  Si  Si15  1  0.48224094  0.62058087  0.07999321  1
  Si  Si16  1  0.98396579  0.62317357  0.08044326  1
  Si  Si17  1  0.32727798  0.03815962  0.08183470  1
  Si  Si18  1  0.82724810  0.03705584  0.08322432  1
  Si  Si19  1  0.19061115  0.34336801  0.08253504  1
  Si  Si20  1  0.69060804  0.34229563  0.08186905  1
  Si  Si21  1  0.31654345  0.66572235  0.91452119  1
  Si  Si22  1  0.81412396  0.66121672  0.91761101  1
  Si  Si23  1  0.01722979  0.36395202  0.91686649  1
  Si  Si24  1  0.51595302  0.36574201  0.91718358  1
  Si  Si25  1  0.16636102  0.96753681  0.91532944  1
  Si  Si26  1  0.66629556  0.96655251  0.91606769  1
  Si  Si27  1  0.31297987  0.96697692  0.41523332  1
  Si  Si28  1  0.81322043  0.96788583  0.41475808  1
  Si  Si29  1  0.16421788  0.36338585  0.41541525  1
  Si  Si30  1  0.66617135  0.36352960  0.41599681  1
  Si  Si31  1  0.01571611  0.66936013  0.41466843  1
  Si  Si32  1  0.51645721  0.66924873  0.41626473  1
  S  S0  1  0.14883430  0.00862061  0.25138551  1
  S  S1  1  0.64802917  0.00900676  0.25172394  1
  S  S2  1  0.14853370  0.28879738  0.75004228  1
  O  O0  1  0.10603555  0.02771267  0.30357386  1
  O  O1  1  0.60371255  0.02618241  0.30394112  1
  O  O2  1  0.41444094  0.80549425  0.30671613  1
  O  O3  1  0.91417871  0.80355133  0.30694095  1
  O  O4  1  0.48702787  0.16648241  0.30613006  1
  O  O5  1  0.98672334  0.16145345  0.30410643  1
  O  O6  1  0.10245872  0.17992856  0.80089969  1
  O  O7  1  0.59563714  0.16611550  0.80554002  1
  O  O8  1  0.48458451  0.80394059  0.80508298  1
  O  O9  1  0.98938582  0.81067206  0.80584134  1
  O  O10  1  0.41454932  0.02628565  0.80504072  1
  O  O11  1  0.91559791  0.02195409  0.80638053  1
  O  O12  1  0.38869195  0.98096128  0.68655171  1
  O  O13  1  0.89258908  0.98310037  0.68807131  1
  O  O14  1  0.10437674  0.22141291  0.69398530  1
  O  O15  1  0.59870890  0.22268180  0.68723109  1
  O  O16  1  0.01841622  0.81122506  0.68874949  1
  O  O17  1  0.50865982  0.79686875  0.68687932  1
  O  O18  1  0.39457059  0.80167339  0.18850514  1
  O  O19  1  0.89377776  0.80126622  0.18822276  1
  O  O20  1  0.01388995  0.22114833  0.18788165  1
  O  O21  1  0.51433268  0.21956868  0.18906155  1
  O  O22  1  0.10193427  0.98594239  0.19713419  1
  O  O23  1  0.60102259  0.98597597  0.19752058  1
  O  O24  1  0.43372356  0.36406741  0.64037068  1
  O  O25  1  0.93406989  0.36806171  0.64341429  1
  O  O26  1  0.25032697  0.13594589  0.64308305  1
  O  O27  1  0.75080970  0.13462581  0.64217666  1
  O  O28  1  0.31775670  0.49731401  0.64096396  1
  O  O29  1  0.81718309  0.49875571  0.64094497  1
  O  O30  1  0.43309110  0.49941537  0.14066616  1
  O  O31  1  0.93356257  0.50109523  0.14067870  1
  O  O32  1  0.31908734  0.13761136  0.14177615  1
  O  O33  1  0.81942477  0.13743423  0.14233165  1
  O  O34  1  0.24992869  0.36264679  0.14277010  1
  O  O35  1  0.75040661  0.36085128  0.14139851  1
  O  O36  1  0.24686031  0.33698127  0.02829861  1
  O  O37  1  0.74523828  0.33810660  0.02577015  1
  O  O38  1  0.42479644  0.50966908  0.02492691  1
  O  O39  1  0.92485038  0.50916587  0.02572161  1
  O  O40  1  0.33366011  0.15621814  0.02639838  1
  O  O41  1  0.83115349  0.15227676  0.02677766  1
  O  O42  1  0.24760554  0.15857187  0.52856751  1
  O  O43  1  0.74667546  0.16257604  0.52831582  1
  O  O44  1  0.33329750  0.51142504  0.52628117  1
  O  O45  1  0.83561365  0.51539098  0.52552120  1
  O  O46  1  0.42395219  0.33698518  0.52516169  1
  O  O47  1  0.92119718  0.33271980  0.52878220  1
  O  O48  1  0.26354658  0.69549570  0.96932628  1
  O  O49  1  0.76601314  0.69709909  0.97265750  1
  O  O50  1  0.08141418  0.46964185  0.97286321  1
  O  O51  1  0.58356512  0.46961021  0.97288144  1
  O  O52  1  0.15044964  0.82741036  0.96891523  1
  O  O53  1  0.65283981  0.82980735  0.97040281  1
  O  O54  1  0.26323948  0.83272489  0.47051087  1
  O  O55  1  0.76212718  0.82989032  0.46947051  1
  O  O56  1  0.15273889  0.47008797  0.47222721  1
  O  O57  1  0.64968377  0.46855348  0.47111986  1
  O  O58  1  0.08223350  0.69099690  0.47093487  1
  O  O59  1  0.58113269  0.69139600  0.47250582  1
  O  O60  1  0.04527519  0.63309185  0.35414758  1
  O  O61  1  0.54357459  0.61434065  0.35784084  1
  O  O62  1  0.26928108  0.90898963  0.35301666  1
  O  O63  1  0.76964239  0.91020557  0.35239080  1
  O  O64  1  0.19463732  0.47514473  0.35742570  1
  O  O65  1  0.69058161  0.47065444  0.35688797  1
  O  O66  1  0.04279262  0.47276378  0.85808082  1
  O  O67  1  0.54412851  0.47594292  0.85888451  1
  O  O68  1  0.19202339  0.91434142  0.85573099  1
  O  O69  1  0.69560551  0.91569260  0.85773037  1
  O  O70  1  0.27016218  0.62839322  0.85267038  1
  O  O71  1  0.76201634  0.61187702  0.85807380  1
  O  O72  1  0.00729761  0.84026059  0.41202903  1
  O  O73  1  0.50784881  0.83845473  0.41064252  1
  O  O74  1  0.40659208  0.97359224  0.41255151  1
  O  O75  1  0.90501396  0.96970314  0.41305323  1
  O  O76  1  0.07889993  0.18102571  0.40888142  1
  O  O77  1  0.57693525  0.18390379  0.41001512  1
  O  O78  1  0.00832899  0.17712035  0.90995184  1
  O  O79  1  0.51282994  0.18363706  0.91138663  1
  O  O80  1  0.07751457  0.97003394  0.90975141  1
  O  O81  1  0.57874595  0.97237640  0.91124909  1
  O  O82  1  0.40865293  0.84367047  0.91168674  1
  O  O83  1  0.90666004  0.83817571  0.91145486  1
  O  O84  1  0.49098309  0.18075147  0.57733463  1
  O  O85  1  0.99455864  0.18836884  0.58194378  1
  O  O86  1  0.10268117  0.02718422  0.58031610  1
  O  O87  1  0.60114384  0.01926703  0.57966563  1
  O  O88  1  0.40912176  0.79871220  0.57863041  1
  O  O89  1  0.90938706  0.80022037  0.57987528  1
  O  O90  1  0.48457485  0.79358199  0.07923344  1
  O  O91  1  0.98472442  0.79470139  0.07853837  1
  O  O92  1  0.40912564  0.02116969  0.08027115  1
  O  O93  1  0.90966943  0.02269633  0.07989567  1
  O  O94  1  0.09865838  0.19008966  0.07975203  1
  O  O95  1  0.59831895  0.18942861  0.07815635  1
  O  O96  1  0.34797632  0.18333551  0.74571699  1
  O  O97  1  0.85434140  0.18826518  0.74723994  1
  O  O98  1  0.23188072  0.29632192  0.74913510  1
  O  O99  1  0.73975910  0.29174599  0.74613369  1
  O  O100  1  0.40383700  0.51520283  0.74552289  1
  O  O101  1  0.90708146  0.52466028  0.74600800  1
  O  O102  1  0.34885054  0.51314521  0.24648464  1
  O  O103  1  0.84837808  0.51280891  0.24560391  1
  O  O104  1  0.40508821  0.29100021  0.24585672  1
  O  O105  1  0.90531568  0.29130086  0.24548567  1
  O  O106  1  0.23277493  0.16883779  0.24856325  1
  O  O107  1  0.73137224  0.16814863  0.24946231  1
  O  O108  1  0.33810037  0.51570300  0.92752965  1
  O  O109  1  0.83716916  0.51308366  0.92846616  1
  O  O110  1  0.41989139  0.32683099  0.92851742  1
  O  O111  1  0.92033460  0.32619276  0.92888636  1
  O  O112  1  0.24522357  0.15348695  0.92946249  1
  O  O113  1  0.74315152  0.15904390  0.92892825  1
  O  O114  1  0.33776699  0.16091249  0.42731017  1
  O  O115  1  0.83256239  0.15586970  0.42877292  1
  O  O116  1  0.24436881  0.33608918  0.43027798  1
  O  O117  1  0.74595595  0.33902496  0.43001030  1
  O  O118  1  0.42049883  0.51287642  0.42848404  1
  O  O119  1  0.92068216  0.51431296  0.42804673  1
  O  O120  1  0.19041148  0.52250548  0.07715893  1
  O  O121  1  0.69007938  0.52155555  0.07758804  1
  O  O122  1  0.07260319  0.62358313  0.07758867  1
  O  O123  1  0.57185109  0.62243193  0.07751006  1
  O  O124  1  0.24289495  0.85221510  0.07558772  1
  O  O125  1  0.74283003  0.85123281  0.07746014  1
  O  O126  1  0.18715055  0.85677849  0.57706868  1
  O  O127  1  0.68855417  0.85783735  0.57556013  1
  O  O128  1  0.24050350  0.62536689  0.57731762  1
  O  O129  1  0.74133130  0.62644122  0.57574030  1
  O  O130  1  0.07282055  0.52165253  0.57761479  1
  O  O131  1  0.57313202  0.51902106  0.57769204  1
  O  O132  1  0.16321917  0.86613688  0.25624929  1
  O  O133  1  0.66103933  0.86497781  0.25727898  1
  O  O134  1  0.25922260  0.67485696  0.25197192  1
  O  O135  1  0.75929607  0.67455895  0.25189314  1
  O  O136  1  0.07314973  0.48308722  0.25401324  1
  O  O137  1  0.57276357  0.48450840  0.25385072  1
  O  O138  1  0.16079463  0.45783933  0.75596913  1
  O  O139  1  0.66552099  0.47978652  0.75540074  1
  O  O140  1  0.07468315  0.66364818  0.75454925  1
  O  O141  1  0.57260094  0.66528723  0.75483210  1
  O  O142  1  0.25821323  0.84311416  0.75295629  1
  O  O143  1  0.76015467  0.85031955  0.75348382  1
loop_
_geom_bond_atom_site_label_1
_geom_bond_atom_site_label_2
_geom_bond_distance
_geom_bond_site_symmetry_2
Na0 O62 2.360369 1_555
Na0 O134 2.477919 1_555
Na0 O132 2.480574 1_555
Na0 O104 2.502994 1_565
Na1 O63 2.339965 1_555
Na1 O135 2.491444 1_555
Na1 O105 2.492764 1_565
Na1 O133 2.539810 1_555
Na1 O107 2.876400 1_565
Na1 O5 2.917130 1_565
Na1 O33 2.920447 1_565
Na2 O134 2.355291 1_555
Na2 O64 2.453056 1_555
Na2 O136 2.538047 1_555
Na2 O106 2.632291 1_555
Na2 O102 2.771669 1_555
Na2 O34 2.904920 1_555
Na3 O135 2.345159 1_555
Na3 O65 2.427489 1_555
Na3 O137 2.564215 1_555
Na3 O107 2.613256 1_555
Na3 O103 2.751560 1_555
Na3 O35 2.940606 1_555
Na4 O60 2.236719 1_555
Na4 O136 2.337077 1_555
Na4 O103 2.534951 1_455
Na4 O132 2.637088 1_555
Na4 O105 2.792545 1_455
Na4 O3 2.974947 1_455
Na4 O31 3.002908 1_455
Na5 O137 2.309903 1_555
Na5 O61 2.371080 1_555
Na5 O102 2.512840 1_555
Na5 O133 2.616710 1_555
Na5 O104 2.773284 1_555
Na5 O30 2.971308 1_555
Na5 O2 3.002075 1_555
Na6 O70 2.317582 1_555
Na6 O142 2.487718 1_555
Na6 O100 2.511875 1_555
Na6 O138 2.538460 1_555
Na7 O139 2.328331 1_555
Na7 O71 2.476954 1_555
Na7 O143 2.517895 1_555
Na7 O101 2.525637 1_555
Na7 O99 2.835986 1_555
Na7 O29 2.925874 1_555
Na8 O140 2.292252 1_555
Na8 O66 2.409742 1_555
Na8 O97 2.418201 1_455
Na8 O138 2.633849 1_555
Na8 O101 2.727737 1_455
Na8 O25 2.854149 1_455
Na9 O141 2.336820 1_555
Na9 O67 2.427398 1_555
Na9 O139 2.485823 1_555
Na9 O96 2.667126 1_555
Na9 O100 2.902262 1_555
Na10 O142 2.342200 1_555
Na10 O68 2.387632 1_555
Na10 O140 2.526112 1_555
Na10 O98 2.636125 1_565
Na10 O96 2.765681 1_565
Na10 O26 2.909684 1_565
Na10 O16 2.947585 1_555
Na11 O143 2.344448 1_555
Na11 O69 2.464596 1_555
Na11 O99 2.536892 1_565
Na11 O141 2.559647 1_555
Na11 O97 2.845019 1_565
Na11 O27 2.899382 1_565
Na12 O85 2.376443 1_455
Na12 O86 2.436948 1_555
Na12 O128 2.473431 1_555
Na12 O14 2.661718 1_555
Na12 O130 2.739550 1_555
Na12 O56 2.802982 1_555
Na13 O15 2.327295 1_555
Na13 O84 2.453281 1_555
Na13 O87 2.480885 1_555
Na13 O129 2.533285 1_555
Na13 O131 2.759669 1_555
Na14 O16 2.395878 1_555
Na14 O89 2.469362 1_455
Na14 O86 2.503926 1_565
Na14 O130 2.509635 1_555
Na14 O126 2.766219 1_555
Na15 O17 2.336963 1_555
Na15 O87 2.397983 1_565
Na15 O88 2.484941 1_555
Na15 O131 2.541219 1_555
Na15 O127 2.748295 1_555
Na15 O59 2.967385 1_555
Na16 O12 2.333994 1_555
Na16 O88 2.403299 1_555
Na16 O84 2.499311 1_565
Na16 O126 2.527143 1_555
Na16 O128 2.722744 1_555
Na17 O13 2.365030 1_555
Na17 O89 2.435895 1_555
Na17 O127 2.508668 1_555
Na17 O85 2.539531 1_565
Na17 O129 2.762040 1_555
Na18 O18 2.401298 1_555
Na18 O90 2.406321 1_555
Na18 O92 2.419786 1_565
Na18 O120 2.467083 1_555
Na18 O124 2.657159 1_555
Na19 O19 2.382845 1_555
Na19 O91 2.406125 1_555
Na19 O93 2.432951 1_565
Na19 O121 2.475509 1_555
Na19 O125 2.649497 1_555
Na19 O49 2.946494 1_554
Na20 O94 2.324441 1_555
Na20 O20 2.381365 1_555
Na20 O93 2.459168 1_455
Na20 O122 2.500589 1_555
Na20 O120 2.789489 1_555
Na21 O95 2.331015 1_555
Na21 O21 2.427587 1_555
Na21 O92 2.442918 1_555
Na21 O123 2.510521 1_555
Na21 O121 2.807900 1_555
Na22 O108 2.395828 1_555
Na22 O81 2.504526 1_555
Na22 O82 2.705405 1_555
Na22 O110 2.721282 1_555
Na22 O67 2.748452 1_555
Na22 O38 2.809888 1_556
Na22 O8 2.812164 1_555
Na22 O53 2.941544 1_555
Na23 O109 2.462128 1_555
Na23 O80 2.527418 1_655
Na23 O111 2.671402 1_555
Na23 O66 2.679553 1_655
Na23 O83 2.788410 1_555
Na23 O39 2.820298 1_556
Na23 O9 2.847176 1_555
Na23 O52 2.851201 1_655
Na24 O110 2.428094 1_555
Na24 O82 2.493013 1_545
Na24 O112 2.661999 1_555
Na24 O79 2.691719 1_555
Na24 O10 2.822540 1_555
Na24 O68 2.823658 1_545
Na24 O40 2.830409 1_556
Na24 O48 2.910881 1_545
Na25 O111 2.429265 1_555
Na25 O83 2.565132 1_545
Na25 O113 2.676684 1_555
Na25 O69 2.676761 1_545
Na25 O78 2.682457 1_655
Na25 O11 2.818845 1_555
Na25 O41 2.844600 1_556
Na25 O49 2.948737 1_545
Na26 O113 2.451966 1_555
Na26 O79 2.465261 1_555
Na26 O81 2.688623 1_545
Na26 O71 2.773921 1_555
Na26 O7 2.774501 1_555
Na26 O109 2.781818 1_555
Na26 O37 2.856760 1_556
Na26 O51 2.937728 1_555
Na27 O114 2.439867 1_555
Na27 O77 2.520382 1_555
Na27 O118 2.660863 1_555
Na27 O61 2.702714 1_555
Na27 O74 2.787769 1_545
Na27 O46 2.805877 1_555
Na27 O4 2.842253 1_555
Na27 O57 2.868132 1_555
Na28 O118 2.455202 1_555
Na28 O74 2.556773 1_555
Na28 O116 2.605431 1_555
Na28 O64 2.675663 1_555
Na28 O73 2.693700 1_555
Na28 O2 2.800844 1_555
Na28 O44 2.834190 1_555
Na28 O54 2.942932 1_555
Na29 O119 2.403009 1_555
Na29 O75 2.531401 1_555
Na29 O117 2.583183 1_555
Na29 O72 2.646514 1_655
Na29 O65 2.779979 1_555
Na29 O45 2.785495 1_555
Na29 O3 2.795399 1_555
Na29 O55 2.955574 1_555
Na30 O86 2.449358 1_555
Na30 O85 2.516748 1_455
Na30 O89 2.526170 1_445
Na30 O72 2.595446 1_545
Na30 O76 2.621519 1_555
Na30 O75 2.642218 1_445
Na31 O87 2.366087 1_555
Na31 O84 2.449405 1_555
Na31 O88 2.473767 1_545
Na31 O73 2.624601 1_545
Na31 O77 2.653244 1_555
Na31 O74 2.711975 1_545
Na32 O94 2.304681 1_555
Na32 O91 2.406219 1_445
Na32 O93 2.550087 1_455
Na32 O80 2.646648 1_544
Na32 O78 2.711180 1_554
Na32 O83 2.814721 1_444
Na33 O95 2.387270 1_565
Na33 O90 2.400848 1_555
Na33 O92 2.525911 1_565
Na33 O81 2.627767 1_554
Na33 O82 2.679939 1_554
Na33 O79 2.694055 1_564
Na34 O98 2.571260 1_555
Na34 O100 2.571925 1_555
Na34 O96 2.598473 1_555
Na34 O108 2.615814 1_555
Na34 O112 2.662640 1_555
Na34 O110 2.683481 1_555
Na35 O99 2.474069 1_555
Na35 O97 2.476281 1_555
Na35 O101 2.519130 1_555
Na35 O109 2.733482 1_555
Na35 O111 2.747781 1_555
Na35 O113 2.748259 1_555
Na36 O106 2.510374 1_555
Na36 O102 2.541652 1_555
Na36 O104 2.559349 1_555
Na36 O114 2.645775 1_555
Na36 O116 2.715383 1_555
Na36 O118 2.751792 1_555
Na37 O105 2.545435 1_555
Na37 O115 2.565524 1_555
Na37 O119 2.638585 1_555
Na37 O107 2.639369 1_555
Na37 O103 2.644625 1_555
Na37 O117 2.729034 1_555
Na38 O134 2.469753 1_555
Na38 O136 2.528150 1_555
Na38 O122 2.627545 1_555
Na38 O120 2.629135 1_555
Na38 O124 2.701331 1_555
Na38 O132 2.733211 1_555
Na39 O135 2.445649 1_555
Na39 O137 2.520408 1_555
Na39 O121 2.626273 1_555
Na39 O123 2.658692 1_555
Na39 O125 2.671605 1_555
Na39 O133 2.755747 1_555
Na40 O142 2.416652 1_555
Na40 O140 2.478770 1_555
Na40 O126 2.597716 1_555
Na40 O130 2.686841 1_555
Na40 O128 2.738695 1_555
Na40 O138 2.771071 1_555
Na41 O143 2.422305 1_555
Na41 O139 2.440965 1_555
Na41 O141 2.462475 1_555
Na41 O131 2.752944 1_555
Na41 O129 2.816359 1_555
Na41 O127 2.823814 1_555
Ca0 O13 2.145950 1_555
Ca0 O16 2.153892 1_655
Ca0 O14 2.287947 1_665
Ca0 O89 2.290080 1_555
Ca0 O85 2.310493 1_565
Ca0 O86 2.324961 1_665
Ca1 O15 2.159031 1_555
Ca1 O17 2.165189 1_545
Ca1 O12 2.176481 1_545
Ca1 O88 2.344230 1_545
Ca1 O87 2.350386 1_555
Ca1 O84 2.350575 1_555
Ca2 O19 2.186024 1_445
Ca2 O20 2.187170 1_555
Ca2 O22 2.240313 1_545
Ca2 O94 2.287138 1_555
Ca2 O91 2.301585 1_445
Ca2 O93 2.335674 1_455
Ca3 O21 2.189805 1_555
Ca3 O18 2.189834 1_545
Ca3 O23 2.240198 1_545
Ca3 O90 2.289225 1_545
Ca3 O95 2.292949 1_555
Ca3 O92 2.321076 1_555
Ca4 O64 2.207619 1_555
Ca4 O60 2.209680 1_555
Ca4 O62 2.232700 1_555
Ca4 O136 2.283627 1_555
Ca4 O134 2.335808 1_555
Ca4 O132 2.417437 1_555
Ca5 O65 2.196593 1_555
Ca5 O63 2.217211 1_555
Ca5 O61 2.238155 1_555
Ca5 O137 2.295841 1_555
Ca5 O135 2.312210 1_555
Ca5 O133 2.401180 1_555
Ca6 O68 2.210887 1_555
Ca6 O70 2.214651 1_555
Ca6 O66 2.237367 1_555
Ca6 O140 2.288545 1_555
Ca6 O142 2.305440 1_555
Ca6 O138 2.431989 1_555
Ca7 O71 2.232099 1_555
Ca7 O67 2.234104 1_555
Ca7 O69 2.238126 1_555
Ca7 O141 2.278079 1_555
Ca7 O139 2.282748 1_555
Ca7 O143 2.302141 1_555
Nb0 O75 1.943725 1_555
Nb0 O5 1.957988 1_565
Nb0 O3 2.011515 1_555
Nb0 O76 2.012146 1_665
Nb0 O72 2.047295 1_655
Nb0 O0 2.353300 1_665
Nb1 O74 1.960930 1_555
Nb1 O4 1.975477 1_565
Nb1 O2 1.977323 1_555
Nb1 O73 2.036393 1_555
Nb1 O77 2.048546 1_565
Nb1 O1 2.281592 1_565
Nb2 O83 1.959905 1_555
Nb2 O11 1.960388 1_565
Nb2 O9 1.973666 1_555
Nb2 O78 2.030106 1_665
Nb2 O80 2.043172 1_655
Nb2 O6 2.288263 1_665
Nb3 O10 1.972445 1_565
Nb3 O7 1.976192 1_565
Nb3 O8 1.978531 1_555
Nb3 O82 2.087712 1_555
Nb3 O79 2.106925 1_565
Nb3 O81 2.121430 1_555
Nb4 O24 1.900093 1_555
Nb4 O28 1.991380 1_555
Nb4 O26 1.993210 1_555
Nb4 O100 2.022762 1_555
Nb4 O96 2.033929 1_555
Nb4 O98 2.367116 1_555
Nb5 O27 1.989683 1_555
Nb5 O29 1.996070 1_555
Nb5 O25 2.013126 1_555
Nb5 O99 2.048211 1_555
Nb5 O97 2.067649 1_555
Nb5 O101 2.072720 1_555
Nb6 O30 1.905953 1_555
Nb6 O32 1.967503 1_555
Nb6 O34 1.973925 1_555
Nb6 O104 2.058642 1_555
Nb6 O102 2.075708 1_555
Nb6 O106 2.322373 1_555
Nb7 O31 1.903833 1_555
Nb7 O33 1.983584 1_555
Nb7 O35 1.983930 1_555
Nb7 O105 2.044277 1_555
Nb7 O103 2.044381 1_555
Nb7 O107 2.358426 1_555
Nb8 O36 1.899978 1_556
Nb8 O40 1.948538 1_556
Nb8 O38 1.964707 1_556
Nb8 O112 1.987651 1_555
Nb8 O108 2.028709 1_555
Nb8 O110 2.065983 1_555
Nb9 O41 1.920970 1_556
Nb9 O37 1.932566 1_556
Nb9 O39 1.937497 1_556
Nb9 O113 2.022976 1_555
Nb9 O111 2.039732 1_555
Nb9 O109 2.043821 1_555
Nb10 O42 1.914836 1_555
Nb10 O44 1.950497 1_555
Nb10 O116 1.967969 1_555
Nb10 O46 1.975129 1_555
Nb10 O114 2.033209 1_555
Nb10 O118 2.043619 1_555
Nb11 O43 1.931558 1_555
Nb11 O47 1.935671 1_555
Nb11 O115 1.980950 1_555
Nb11 O45 1.983646 1_555
Nb11 O117 2.014514 1_555
Nb11 O119 2.030142 1_555
Nb12 O52 1.985305 1_554
Nb12 O48 2.006214 1_554
Nb12 O50 2.011438 1_554
Nb12 O124 2.030432 1_555
Nb12 O122 2.085046 1_555
Nb12 O120 2.085098 1_555
Nb13 O53 1.975927 1_554
Nb13 O51 2.018258 1_554
Nb13 O125 2.026991 1_555
Nb13 O49 2.040556 1_554
Nb13 O123 2.047336 1_555
Nb13 O121 2.077606 1_555
Nb14 O58 1.939782 1_555
Nb14 O56 1.978743 1_555
Nb14 O54 2.012469 1_555
Nb14 O130 2.067247 1_555
Nb14 O126 2.111457 1_555
Nb14 O128 2.122069 1_555
Nb15 O55 1.982550 1_555
Nb15 O59 1.982778 1_555
Nb15 O57 2.004064 1_555
Nb15 O129 2.065510 1_555
Nb15 O127 2.066771 1_555
Nb15 O131 2.088614 1_555
O0 S0 1.483789 1_555
O1 S1 1.494391 1_555
O2 Si0 1.737408 1_555
O3 Si1 1.716918 1_555
O4 Si3 1.735481 1_555
O5 Si2 1.724963 1_555
O6 S2 1.487026 1_555
O7 Si4 1.727637 1_555
O8 Si6 1.718948 1_555
O9 Si5 1.733623 1_555
O10 Si7 1.719986 1_555
O11 Si8 1.731407 1_555
O12 Si7 1.584992 1_565
O13 Si8 1.585087 1_565
O14 S2 1.464270 1_555
O15 Si4 1.584736 1_555
O16 Si5 1.589551 1_455
O17 Si6 1.583109 1_555
O18 Si0 1.583575 1_555
O19 Si1 1.586320 1_555
O20 Si2 1.586458 1_455
O21 Si3 1.584655 1_555
O22 S0 1.451651 1_565
O23 S1 1.451271 1_565
O24 Si9 1.717210 1_555
O25 Si10 1.678796 1_555
O26 Si11 1.688441 1_555
O27 Si12 1.685707 1_555
O28 Si13 1.690764 1_555
O29 Si14 1.683701 1_555
O30 Si15 1.718678 1_555
O31 Si16 1.718996 1_555
O32 Si17 1.689067 1_555
O33 Si18 1.676561 1_555
O34 Si19 1.696336 1_555
O35 Si20 1.690399 1_555
O36 Si19 1.632884 1_555
O37 Si20 1.638778 1_555
O38 Si15 1.622358 1_555
O39 Si16 1.635763 1_555
O40 Si17 1.626013 1_555
O41 Si18 1.639384 1_555
O42 Si11 1.631213 1_555
O43 Si12 1.621798 1_555
O44 Si13 1.631791 1_555
O45 Si14 1.618562 1_555
O46 Si9 1.616586 1_555
O47 Si10 1.623204 1_555
O48 Si21 1.690458 1_555
O49 Si22 1.661604 1_555
O50 Si23 1.672032 1_555
O51 Si24 1.690757 1_555
O52 Si25 1.688274 1_555
O53 Si26 1.689049 1_555
O54 Si27 1.677916 1_555
O55 Si28 1.689341 1_555
O56 Si29 1.699205 1_555
O57 Si30 1.701724 1_555
O58 Si31 1.705330 1_555
O59 Si32 1.681563 1_555
O60 Si31 1.574072 1_555
O61 Si32 1.587306 1_555
O62 Si27 1.573505 1_555
O63 Si28 1.575545 1_555
O64 Si29 1.589148 1_555
O65 Si30 1.589195 1_555
O66 Si23 1.590190 1_555
O67 Si24 1.587147 1_555
O68 Si25 1.589586 1_555
O69 Si26 1.587690 1_555
O70 Si21 1.581809 1_555
O71 Si22 1.580036 1_555
O72 Si31 1.665111 1_555
O73 Si32 1.655121 1_555
O74 Si27 1.703218 1_555
O75 Si28 1.690217 1_555
O76 Si29 1.642057 1_555
O77 Si30 1.661829 1_555
O78 Si23 1.659881 1_555
O79 Si24 1.661931 1_555
O80 Si25 1.659078 1_555
O81 Si26 1.649911 1_555
O82 Si21 1.677822 1_555
O83 Si22 1.682532 1_555
O84 Si9 1.589845 1_555
O85 Si10 1.597835 1_555
O86 Si11 1.595319 1_555
O87 Si12 1.593750 1_555
O88 Si13 1.594835 1_555
O89 Si14 1.602148 1_555
O90 Si15 1.579299 1_555
O91 Si16 1.580265 1_555
O92 Si17 1.598844 1_555
O93 Si18 1.597264 1_555
O94 Si19 1.580102 1_555
O95 Si20 1.583543 1_555
O96 Si7 1.698811 1_555
O97 Si8 1.679358 1_555
O98 S2 1.508343 1_555
O99 Si4 1.683703 1_555
O100 Si6 1.705897 1_555
O101 Si5 1.676343 1_555
O102 Si0 1.700426 1_555
O103 Si1 1.708763 1_555
O104 Si3 1.697514 1_555
O105 Si2 1.702506 1_555
O106 S0 1.520801 1_555
O107 S1 1.509744 1_555
O108 Si21 1.649549 1_555
O109 Si22 1.643337 1_555
O110 Si24 1.648730 1_555
O111 Si23 1.669692 1_655
O112 Si25 1.636642 1_545
O113 Si26 1.656594 1_545
O114 Si27 1.637725 1_545
O115 Si28 1.622315 1_545
O116 Si29 1.655976 1_555
O117 Si30 1.630317 1_555
O118 Si32 1.660652 1_555
O119 Si31 1.650391 1_655
O120 Si19 1.663148 1_555
O121 Si20 1.665762 1_555
O122 Si16 1.639272 1_455
O123 Si15 1.650300 1_555
O124 Si17 1.652491 1_565
O125 Si18 1.651266 1_565
O126 Si11 1.651774 1_565
O127 Si12 1.663468 1_565
O128 Si13 1.655323 1_555
O129 Si14 1.663752 1_555
O130 Si10 1.666449 1_455
O131 Si9 1.645539 1_555
O132 S0 1.472949 1_565
O133 S1 1.472445 1_565
O134 Si0 1.607724 1_555
O135 Si1 1.612394 1_555
O136 Si2 1.606863 1_455
O137 Si3 1.607261 1_555
O138 S2 1.470007 1_555
O139 Si4 1.597403 1_555
O140 Si5 1.607090 1_455
O141 Si6 1.594505 1_555
O142 Si7 1.605271 1_565
O143 Si8 1.597372 1_565
