# generated using pymatgen
data_U3MnSb5
_symmetry_space_group_name_H-M   'P 1'
_cell_length_a   8.97245615
_cell_length_b   8.97245615
_cell_length_c   6.10408200
_cell_angle_alpha   90.00000000
_cell_angle_beta   90.00000000
_cell_angle_gamma   120.00000108
_symmetry_Int_Tables_number   1
_chemical_formula_structural   U3MnSb5
_chemical_formula_sum   'U6 Mn2 Sb10'
_cell_volume   425.57261590
_cell_formula_units_Z   2
loop_
 _symmetry_equiv_pos_site_id
 _symmetry_equiv_pos_as_xyz
  1  'x, y, z'
loop_
 _atom_site_type_symbol
 _atom_site_label
 _atom_site_symmetry_multiplicity
 _atom_site_fract_x
 _atom_site_fract_y
 _atom_site_fract_z
 _atom_site_occupancy
  U  U0  1  0.39148200  0.00000000  0.75000000  1
  U  U1  1  0.39148200  0.39148200  0.25000000  1
  U  U2  1  0.00000000  0.60851800  0.25000000  1
  U  U3  1  0.00000000  0.39148200  0.75000000  1
  U  U4  1  0.60851800  0.60851800  0.75000000  1
  U  U5  1  0.60851800  0.00000000  0.25000000  1
  Mn  Mn0  1  0.00000000  0.00000000  0.00000000  1
  Mn  Mn1  1  0.00000000  0.00000000  0.50000000  1
  Sb  Sb0  1  0.66666700  0.33333300  0.50000000  1
  Sb  Sb1  1  0.33333300  0.66666700  0.00000000  1
  Sb  Sb2  1  0.75288400  0.00000000  0.75000000  1
  Sb  Sb3  1  0.75288400  0.75288400  0.25000000  1
  Sb  Sb4  1  0.33333300  0.66666700  0.50000000  1
  Sb  Sb5  1  0.66666700  0.33333300  0.00000000  1
  Sb  Sb6  1  0.24711600  0.00000000  0.25000000  1
  Sb  Sb7  1  0.24711600  0.24711600  0.75000000  1
  Sb  Sb8  1  0.00000000  0.75288400  0.75000000  1
  Sb  Sb9  1  0.00000000  0.24711600  0.25000000  1
loop_
_geom_bond_atom_site_label_1
_geom_bond_atom_site_label_2
_geom_bond_distance
_geom_bond_site_symmetry_2
Mn0 Sb7 2.691632 1_554
Mn0 Sb3 2.691632 1_445
Mn0 Sb8 2.691632 1_544
Mn0 Sb9 2.691632 1_555
Mn0 Sb6 2.691632 1_555
Mn0 Sb2 2.691632 1_454
Mn1 Sb7 2.691632 1_555
Mn1 Sb3 2.691632 1_445
Mn1 Sb9 2.691632 1_555
Mn1 Sb8 2.691632 1_545
Mn1 Sb6 2.691632 1_555
Mn1 Sb2 2.691632 1_455
Sb0 Sb5 3.052041 1_556
Sb0 Sb5 3.052041 1_555
Sb0 U3 3.159985 1_655
Sb0 U5 3.159985 1_555
Sb0 U0 3.159987 1_555
Sb0 U2 3.159987 1_655
Sb0 U1 3.159992 1_555
Sb0 U4 3.159992 1_555
Sb1 Sb4 3.052041 1_555
Sb1 Sb4 3.052041 1_554
Sb1 U2 3.159985 1_555
Sb1 U0 3.159985 1_564
Sb1 U3 3.159987 1_554
Sb1 U5 3.159987 1_565
Sb1 U4 3.159992 1_554
Sb1 U1 3.159992 1_555
Sb2 U3 3.076689 1_655
Sb2 U4 3.076689 1_545
Sb2 U0 3.242664 1_555
Sb2 U5 3.315539 1_556
Sb2 U5 3.315539 1_555
Sb3 U2 3.076689 1_655
Sb3 U5 3.076689 1_565
Sb3 U1 3.242664 1_555
Sb3 U4 3.315539 1_555
Sb3 U4 3.315539 1_554
Sb4 U2 3.159985 1_555
Sb4 U0 3.159985 1_565
Sb4 U3 3.159987 1_555
Sb4 U5 3.159987 1_565
Sb4 U1 3.159992 1_555
Sb4 U4 3.159992 1_555
Sb5 U5 3.159985 1_555
Sb5 U3 3.159985 1_654
Sb5 U0 3.159987 1_554
Sb5 U2 3.159987 1_655
Sb5 U4 3.159992 1_554
Sb5 U1 3.159992 1_555
Sb6 U2 3.076689 1_545
Sb6 U1 3.076689 1_555
Sb6 U5 3.242664 1_555
Sb6 U0 3.315539 1_554
Sb6 U0 3.315539 1_555
Sb7 U0 3.076689 1_555
Sb7 U3 3.076689 1_555
Sb7 U4 3.242664 1_555
Sb7 U1 3.315539 1_556
Sb7 U1 3.315539 1_555
Sb8 U0 3.076689 1_565
Sb8 U4 3.076689 1_455
Sb8 U3 3.242664 1_555
Sb8 U2 3.315539 1_555
Sb8 U2 3.315539 1_556
Sb9 U5 3.076689 1_455
Sb9 U1 3.076689 1_555
Sb9 U2 3.242664 1_555
Sb9 U3 3.315539 1_554
Sb9 U3 3.315539 1_555
