# generated using pymatgen
data_MgTi2Al4O10
_symmetry_space_group_name_H-M   'P 1'
_cell_length_a   3.56201702
_cell_length_b   5.34848362
_cell_length_c   10.50217373
_cell_angle_alpha   78.94887982
_cell_angle_beta   90.09343987
_cell_angle_gamma   109.45960688
_symmetry_Int_Tables_number   1
_chemical_formula_structural   MgTi2Al4O10
_chemical_formula_sum   'Mg1 Ti2 Al4 O10'
_cell_volume   184.73435314
_cell_formula_units_Z   1
loop_
 _symmetry_equiv_pos_site_id
 _symmetry_equiv_pos_as_xyz
  1  'x, y, z'
loop_
 _atom_site_type_symbol
 _atom_site_label
 _atom_site_symmetry_multiplicity
 _atom_site_fract_x
 _atom_site_fract_y
 _atom_site_fract_z
 _atom_site_occupancy
  Mg  Mg0  1  0.49362013  0.98734130  0.98476309  1
  Ti  Ti0  1  0.16313415  0.32475950  0.12432736  1
  Ti  Ti1  1  0.86685412  0.74254445  0.55696410  1
  Al  Al0  1  0.15293300  0.30264244  0.43286556  1
  Al  Al1  1  0.14216733  0.28622638  0.72920077  1
  Al  Al2  1  0.86146156  0.72125244  0.27733946  1
  Al  Al3  1  0.81040629  0.62152687  0.89673215  1
  O  O0  1  0.05418115  0.10733140  0.59855389  1
  O  O1  1  0.99743632  0.99624148  0.86362148  1
  O  O2  1  0.28170536  0.56172562  0.26053424  1
  O  O3  1  0.30585579  0.61528577  0.59780589  1
  O  O4  1  0.30546892  0.61121346  0.94452238  1
  O  O5  1  0.66818468  0.33559820  0.05105280  1
  O  O6  1  0.72056971  0.43737962  0.42709778  1
  O  O7  1  0.70788197  0.41791087  0.77022582  1
  O  O8  1  0.96437295  0.92791021  0.11790271  1
  O  O9  1  0.99483757  0.98644300  0.37112053  1
loop_
_geom_bond_atom_site_label_1
_geom_bond_atom_site_label_2
_geom_bond_distance
_geom_bond_site_symmetry_2
Mg0 O5 2.016134 1_566
Mg0 O4 2.025205 1_555
Mg0 O1 2.183757 1_555
Mg0 O1 2.184067 1_455
Mg0 O8 2.246110 1_556
Mg0 O8 2.247005 1_456
Al0 O0 1.817463 1_555
Al0 O9 1.839136 1_445
Al0 O6 1.901917 1_455
Al0 O6 1.903689 1_555
Al0 O2 2.005963 1_555
Al1 O0 1.788410 1_555
Al1 O1 1.815065 1_445
Al1 O3 1.931191 1_555
Al1 O7 1.977407 1_555
Al1 O7 1.979679 1_455
Al2 O8 1.783905 1_555
Al2 O9 1.814542 1_555
Al2 O6 1.900039 1_555
Al2 O2 1.976446 1_555
Al2 O2 1.977240 1_655
Al3 O7 1.836476 1_555
Al3 O4 1.848219 1_655
Al3 O4 1.848275 1_555
Al3 O1 1.850772 1_555
Al3 O5 1.938641 1_556
O0 Ti1 1.975090 1_445
O2 Ti0 2.041412 1_555
O3 Ti1 1.903955 1_555
O3 Ti1 1.920299 1_455
O4 Ti0 2.132285 1_556
O5 Ti0 1.936460 1_555
O5 Ti0 1.936584 1_655
O6 Ti1 2.253906 1_555
O7 Ti1 2.491964 1_555
O8 Ti0 2.016056 1_665
O9 Ti1 2.085540 1_555
