# generated using pymatgen
data_MgFe4(CoO6)2
_symmetry_space_group_name_H-M   'P 1'
_cell_length_a   5.10906839
_cell_length_b   5.10906731
_cell_length_c   8.65090878
_cell_angle_alpha   89.74759946
_cell_angle_beta   89.74758124
_cell_angle_gamma   74.82246425
_symmetry_Int_Tables_number   1
_chemical_formula_structural   MgFe4(CoO6)2
_chemical_formula_sum   'Mg1 Fe4 Co2 O12'
_cell_volume   217.93117351
_cell_formula_units_Z   1
loop_
 _symmetry_equiv_pos_site_id
 _symmetry_equiv_pos_as_xyz
  1  'x, y, z'
loop_
 _atom_site_type_symbol
 _atom_site_label
 _atom_site_symmetry_multiplicity
 _atom_site_fract_x
 _atom_site_fract_y
 _atom_site_fract_z
 _atom_site_occupancy
  Mg  Mg0  1  0.79726704  0.79726714  0.49864967  1
  Fe  Fe0  1  0.08822987  0.08823017  0.31879609  1
  Fe  Fe1  1  0.08768975  0.08768951  0.67960449  1
  Fe  Fe2  1  0.50054620  0.50054610  0.16547112  1
  Fe  Fe3  1  0.50188515  0.50188467  0.83511406  1
  Co  Co0  1  0.92459611  0.92459574  0.00001651  1
  Co  Co1  1  0.46983910  0.46983973  0.50067575  1
  O  O0  1  0.18460681  0.80723708  0.16009088  1
  O  O1  1  0.18566918  0.80794904  0.83984467  1
  O  O2  1  0.18515652  0.80443154  0.50001717  1
  O  O3  1  0.36034317  0.36034319  0.00046883  1
  O  O4  1  0.31689565  0.31689576  0.33890369  1
  O  O5  1  0.31846018  0.31846004  0.66200292  1
  O  O6  1  0.63101627  0.63101599  0.34262458  1
  O  O7  1  0.63256631  0.63256656  0.65769710  1
  O  O8  1  0.70117347  0.70117218  0.00006736  1
  O  O9  1  0.80443151  0.18515654  0.50001732  1
  O  O10  1  0.80723629  0.18460597  0.16009105  1
  O  O11  1  0.80794941  0.18566906  0.83984472  1
loop_
_geom_bond_atom_site_label_1
_geom_bond_atom_site_label_2
_geom_bond_distance
_geom_bond_site_symmetry_2
Mg0 O7 1.913009 1_555
Mg0 O6 1.913829 1_555
Mg0 O9 1.991738 1_565
Mg0 O2 1.991738 1_655
Fe0 O4 1.864995 1_555
Fe0 O0 1.956957 1_545
Fe0 O10 1.956958 1_455
Fe0 O9 2.101471 1_455
Fe0 O2 2.101472 1_545
Fe1 O5 1.878321 1_555
Fe1 O11 1.956754 1_455
Fe1 O1 1.956754 1_545
Fe1 O2 2.095617 1_545
Fe1 O9 2.095617 1_455
Fe2 O3 1.830410 1_555
Fe2 O6 1.867617 1_555
Fe2 O10 1.933524 1_555
Fe2 O0 1.933525 1_555
Fe2 O4 2.109022 1_555
Fe2 O8 2.161728 1_555
Fe3 O3 1.829677 1_556
Fe3 O7 1.860797 1_555
Fe3 O11 1.932375 1_555
Fe3 O1 1.932376 1_555
Fe3 O5 2.117479 1_555
Fe3 O8 2.162894 1_556
Co0 O8 1.813349 1_555
Co0 O1 1.905001 1_654
Co0 O11 1.905001 1_564
Co0 O10 1.906215 1_565
Co0 O0 1.906215 1_655
Co1 O5 1.854260 1_555
Co1 O4 1.875817 1_555
Co1 O6 1.887028 1_555
Co1 O7 1.899845 1_555
Co1 O2 1.932824 1_555
Co1 O9 1.932828 1_555
