# generated using pymatgen
data_Y3TaSiS5O24
_symmetry_space_group_name_H-M   'P 1'
_cell_length_a   9.20295270
_cell_length_b   9.21156679
_cell_length_c   23.68861004
_cell_angle_alpha   90.12684713
_cell_angle_beta   90.30550124
_cell_angle_gamma   119.98085471
_symmetry_Int_Tables_number   1
_chemical_formula_structural   Y3TaSiS5O24
_chemical_formula_sum   'Y9 Ta3 Si3 S15 O72'
_cell_volume   1739.40853333
_cell_formula_units_Z   3
loop_
 _symmetry_equiv_pos_site_id
 _symmetry_equiv_pos_as_xyz
  1  'x, y, z'
loop_
 _atom_site_type_symbol
 _atom_site_label
 _atom_site_symmetry_multiplicity
 _atom_site_fract_x
 _atom_site_fract_y
 _atom_site_fract_z
 _atom_site_occupancy
  Y  Y0  1  0.01078538  0.00268084  0.35315711  1
  Y  Y1  1  0.99354536  0.99725844  0.85937689  1
  Y  Y2  1  0.99848895  0.99895308  0.64885071  1
  Y  Y3  1  0.01137545  0.99629695  0.14247731  1
  Y  Y4  1  0.66830378  0.33352571  0.69015062  1
  Y  Y5  1  0.65857501  0.32506978  0.19092289  1
  Y  Y6  1  0.66596345  0.33195564  0.47519209  1
  Y  Y7  1  0.33713197  0.66314653  0.02218050  1
  Y  Y8  1  0.33323764  0.66647231  0.52390074  1
  Ta  Ta0  1  0.67316181  0.33788801  0.97488260  1
  Ta  Ta1  1  0.33388658  0.67232252  0.31051625  1
  Ta  Ta2  1  0.33060511  0.65652223  0.82016007  1
  Si  Si0  1  0.28970141  0.99665371  0.25072184  1
  Si  Si1  1  0.61881291  0.65812355  0.91928302  1
  Si  Si2  1  0.04162396  0.38167096  0.91882219  1
  S  S0  1  0.69791752  0.70960582  0.25236634  1
  S  S1  1  0.01094690  0.30253892  0.25253780  1
  S  S2  1  0.29246477  0.30408312  0.75198558  1
  S  S3  1  0.01421587  0.70961649  0.75157083  1
  S  S4  1  0.69467221  0.98738259  0.75172592  1
  S  S5  1  0.95503518  0.33099202  0.58318706  1
  S  S6  1  0.37610983  0.04557315  0.58312397  1
  S  S7  1  0.66876269  0.62276908  0.58321712  1
  S  S8  1  0.94345202  0.61307665  0.08086796  1
  S  S9  1  0.67047282  0.05527805  0.08082554  1
  S  S10  1  0.38569455  0.33120320  0.08086437  1
  S  S11  1  0.34621739  0.95900561  0.91686394  1
  S  S12  1  0.61325414  0.94621643  0.41428034  1
  S  S13  1  0.33428569  0.38719788  0.41482602  1
  S  S14  1  0.05212883  0.66376011  0.41423789  1
  O  O0  1  0.20276703  0.01743638  0.30656816  1
  O  O1  1  0.80169168  0.78927668  0.30283223  1
  O  O2  1  0.98008584  0.19615953  0.30244930  1
  O  O3  1  0.21629812  0.19617336  0.80088342  1
  O  O4  1  0.98371350  0.78769098  0.80046851  1
  O  O5  1  0.80666514  0.02116773  0.80023405  1
  O  O6  1  0.76921506  0.95699433  0.70028018  1
  O  O7  1  0.18715897  0.23063865  0.70053433  1
  O  O8  1  0.04064708  0.81347098  0.70019806  1
  O  O9  1  0.76271627  0.81534893  0.20216454  1
  O  O10  1  0.04671734  0.23368472  0.20203539  1
  O  O11  1  0.16861588  0.95361232  0.19582562  1
  O  O12  1  0.87579706  0.35698691  0.63343498  1
  O  O13  1  0.48176195  0.12536053  0.63370264  1
  O  O14  1  0.64413456  0.51859127  0.63355669  1
  O  O15  1  0.86788145  0.51507021  0.13177817  1
  O  O16  1  0.65067418  0.13410242  0.13224153  1
  O  O17  1  0.48475435  0.35444044  0.13266439  1
  O  O18  1  0.47467992  0.31175875  0.03083311  1
  O  O19  1  0.83246399  0.51698282  0.02995001  1
  O  O20  1  0.68489665  0.16320093  0.03024676  1
  O  O21  1  0.45676264  0.14912972  0.53227454  1
  O  O22  1  0.69188447  0.54205626  0.53215809  1
  O  O23  1  0.85005705  0.30661619  0.53206898  1
  O  O24  1  0.53526712  0.69071503  0.97187191  1
  O  O25  1  0.15024962  0.47370233  0.97233625  1
  O  O26  1  0.31525376  0.85840805  0.96705271  1
  O  O27  1  0.53571327  0.84646647  0.46511926  1
  O  O28  1  0.31415302  0.46595181  0.46636733  1
  O  O29  1  0.15375821  0.68950541  0.46545290  1
  O  O30  1  0.14393125  0.64477460  0.36438928  1
  O  O31  1  0.50117005  0.85228901  0.36405572  1
  O  O32  1  0.35339963  0.49430714  0.36483435  1
  O  O33  1  0.14339931  0.51230332  0.86178144  1
  O  O34  1  0.37314813  0.87335534  0.86567721  1
  O  O35  1  0.48819898  0.63426038  0.86238034  1
  O  O36  1  0.02967305  0.80847445  0.40650875  1
  O  O37  1  0.77824995  0.96529742  0.40492708  1
  O  O38  1  0.18474901  0.22148513  0.40827353  1
  O  O39  1  0.01344033  0.20361977  0.90188493  1
  O  O40  1  0.20711608  0.98672766  0.90410801  1
  O  O41  1  0.80110390  0.79882981  0.90194153  1
  O  O42  1  0.97340759  0.18174220  0.59120891  1
  O  O43  1  0.20821473  0.02680961  0.59115929  1
  O  O44  1  0.81820123  0.79079711  0.59117843  1
  O  O45  1  0.94886635  0.77627481  0.08341281  1
  O  O46  1  0.82276131  0.04165114  0.08606181  1
  O  O47  1  0.21848987  0.17808932  0.08517725  1
  O  O48  1  0.67296174  0.13431791  0.74158799  1
  O  O49  1  0.46281402  0.33234457  0.74208751  1
  O  O50  1  0.86875583  0.54000049  0.74154197  1
  O  O51  1  0.67257580  0.54168668  0.24407926  1
  O  O52  1  0.87399636  0.33686883  0.24422660  1
  O  O53  1  0.47824583  0.14529446  0.24293524  1
  O  O54  1  0.62758868  0.48113511  0.93217905  1
  O  O55  1  0.85091988  0.36276648  0.93083802  1
  O  O56  1  0.50207770  0.12790362  0.92604277  1
  O  O57  1  0.62260282  0.11077173  0.41870180  1
  O  O58  1  0.48698349  0.37226977  0.42030838  1
  O  O59  1  0.88734028  0.50855031  0.41865131  1
  O  O60  1  0.36608009  0.47872455  0.07521008  1
  O  O61  1  0.11130756  0.63719180  0.07281700  1
  O  O62  1  0.51989679  0.89093316  0.07365857  1
  O  O63  1  0.35790162  0.87795324  0.57535251  1
  O  O64  1  0.51962467  0.64172784  0.57562860  1
  O  O65  1  0.12256954  0.48037392  0.57567229  1
  O  O66  1  0.31102541  0.82402381  0.26827189  1
  O  O67  1  0.52220046  0.68534447  0.26622236  1
  O  O68  1  0.16756054  0.47400448  0.26671166  1
  O  O69  1  0.30805756  0.47505880  0.76279763  1
  O  O70  1  0.16721679  0.69389600  0.76206138  1
  O  O71  1  0.52491138  0.83823015  0.76279593  1
loop_
_geom_bond_atom_site_label_1
_geom_bond_atom_site_label_2
_geom_bond_distance
_geom_bond_site_symmetry_2
O0 Si0 1.609377 1_545
O0 Y0 2.034575 1_555
O1 S0 1.470808 1_555
O1 Y0 2.274415 1_665
O2 S1 1.472883 1_655
O2 Y0 2.282144 1_655
O3 S2 1.462367 1_555
O3 Y1 2.401515 1_445
O4 S3 1.462627 1_655
O4 Y1 2.343984 1_555
O5 S4 1.464496 1_545
O5 Y1 2.307262 1_545
O6 S4 1.494481 1_555
O6 Y2 2.302206 1_555
O7 S2 1.486904 1_555
O7 Y2 2.308848 1_445
O8 S3 1.493680 1_555
O8 Y2 2.283847 1_455
O9 S0 1.466558 1_555
O9 Y3 2.499397 1_655
O10 S1 1.466755 1_555
O10 Y3 2.479642 1_545
O11 Si0 1.621957 1_555
O11 Y3 2.096911 1_555
O12 S5 1.479337 1_555
O12 Y4 2.261487 1_555
O13 S6 1.480060 1_555
O13 Y4 2.255285 1_555
O14 S7 1.478123 1_555
O14 Y4 2.266897 1_555
O15 S8 1.462667 1_555
O15 Y5 2.325261 1_555
O16 S9 1.474634 1_555
O16 Y5 2.211862 1_555
O17 S10 1.474617 1_555
O17 Y5 2.224262 1_555
O18 S10 1.504447 1_555
O18 Ta0 2.176916 1_554
O19 S8 1.536298 1_555
O19 Ta0 2.031126 1_554
O20 S9 1.522024 1_555
O20 Ta0 2.121920 1_554
O21 S6 1.489572 1_555
O21 Y6 2.273477 1_555
O22 S7 1.489251 1_555
O22 Y6 2.268723 1_555
O23 S5 1.489839 1_555
O23 Y6 2.261061 1_555
O24 Si1 1.572404 1_555
O24 Y7 2.090777 1_556
O25 Si2 1.568367 1_555
O25 Y7 2.089749 1_556
O26 S11 1.448439 1_555
O26 Y7 2.313147 1_556
O27 S12 1.470583 1_555
O27 Y8 2.260596 1_555
O28 S13 1.477879 1_555
O28 Y8 2.227597 1_555
O29 S14 1.472359 1_555
O29 Y8 2.239955 1_555
O30 S14 1.515304 1_555
O30 Ta1 2.081087 1_555
O31 S12 1.522665 1_555
O31 Ta1 2.036174 1_555
O32 S13 1.496916 1_555
O32 Ta1 2.162874 1_555
O33 Si2 1.745090 1_555
O33 Ta2 1.855164 1_555
O34 S11 1.532501 1_555
O34 Ta2 2.123625 1_555
O35 Si1 1.739970 1_555
O35 Ta2 1.851612 1_555
O36 S14 1.459194 1_555
O36 Y0 2.268533 1_565
O37 S12 1.456947 1_555
O37 Y0 2.344257 1_665
O38 S13 1.464675 1_555
O38 Y0 2.251949 1_555
O39 Si2 1.577687 1_555
O39 Y1 2.074287 1_445
O40 S11 1.455408 1_555
O40 Y1 2.272469 1_455
O41 Si1 1.581029 1_555
O41 Y1 2.070296 1_555
O42 S5 1.479181 1_555
O42 Y2 2.268940 1_545
O43 S6 1.479834 1_555
O43 Y2 2.278924 1_445
O44 S7 1.480257 1_555
O44 Y2 2.254016 1_555
O45 S8 1.480123 1_555
O45 Y3 2.282519 1_655
O46 S9 1.472886 1_555
O46 Y3 2.382447 1_645
O47 S10 1.483511 1_555
O47 Y3 2.264373 1_545
O48 S4 1.483499 1_545
O48 Y4 2.223010 1_555
O49 S2 1.475392 1_555
O49 Y4 2.257078 1_555
O50 S3 1.481300 1_655
O50 Y4 2.227504 1_555
O51 S0 1.457102 1_555
O51 Y5 2.305195 1_555
O52 S1 1.457123 1_655
O52 Y5 2.300849 1_555
O53 Si0 1.596766 1_545
O53 Y5 2.073347 1_555
O54 Si1 1.700410 1_555
O54 Ta0 1.869454 1_555
O55 Si2 1.700474 1_655
O55 Ta0 1.860605 1_555
O56 S11 1.513313 1_545
O56 Ta0 2.117996 1_555
O57 S12 1.478148 1_545
O57 Y6 2.295828 1_555
O58 S13 1.483854 1_555
O58 Y6 2.265375 1_555
O59 S14 1.479970 1_655
O59 Y6 2.305931 1_555
O60 S10 1.463846 1_555
O60 Y7 2.234541 1_555
O61 S8 1.460273 1_455
O61 Y7 2.312223 1_555
O62 S9 1.463096 1_565
O62 Y7 2.271218 1_555
O63 S6 1.478467 1_565
O63 Y8 2.208312 1_555
O64 S7 1.477722 1_555
O64 Y8 2.205750 1_555
O65 S5 1.478514 1_455
O65 Y8 2.216887 1_555
O66 Si0 1.747570 1_555
O66 Ta1 1.815546 1_555
O67 S0 1.554843 1_555
O67 Ta1 1.982666 1_555
O68 S1 1.549880 1_555
O68 Ta1 1.984196 1_555
O69 S2 1.529254 1_555
O69 Ta2 2.079398 1_555
O70 S3 1.505181 1_555
O70 Ta2 2.184270 1_555
O71 S4 1.502646 1_555
O71 Ta2 2.211435 1_555
