# generated using pymatgen
data_Na6La3TaSi4(SO12)2
_symmetry_space_group_name_H-M   'P 1'
_cell_length_a   9.58457633
_cell_length_b   9.60144428
_cell_length_c   23.41000798
_cell_angle_alpha   89.84321699
_cell_angle_beta   90.74158074
_cell_angle_gamma   120.03823649
_symmetry_Int_Tables_number   1
_chemical_formula_structural   Na6La3TaSi4(SO12)2
_chemical_formula_sum   'Na18 La9 Ta3 Si12 S6 O72'
_cell_volume   1864.80653272
_cell_formula_units_Z   3
loop_
 _symmetry_equiv_pos_site_id
 _symmetry_equiv_pos_as_xyz
  1  'x, y, z'
loop_
 _atom_site_type_symbol
 _atom_site_label
 _atom_site_symmetry_multiplicity
 _atom_site_fract_x
 _atom_site_fract_y
 _atom_site_fract_z
 _atom_site_occupancy
  Na  Na0  1  0.62537535  0.99976247  0.25386442  1
  Na  Na1  1  0.64695380  0.64352860  0.75696118  1
  Na  Na2  1  0.01815439  0.36882310  0.74234917  1
  Na  Na3  1  0.29808168  0.35343052  0.58170579  1
  Na  Na4  1  0.01527724  0.67645311  0.58948028  1
  Na  Na5  1  0.68296612  0.95706940  0.56820152  1
  Na  Na6  1  0.30484666  0.94854727  0.08449804  1
  Na  Na7  1  0.67190196  0.71637363  0.06955199  1
  Na  Na8  1  0.02249241  0.34360596  0.07670913  1
  Na  Na9  1  0.98201817  0.68322338  0.91419337  1
  Na  Na10  1  0.32576526  0.29295776  0.90997018  1
  Na  Na11  1  0.67328370  0.67842007  0.41591910  1
  Na  Na12  1  0.99785217  0.03717468  0.49504693  1
  Na  Na13  1  0.96529593  0.98852023  0.99341790  1
  Na  Na14  1  0.64651168  0.32634364  0.83112815  1
  Na  Na15  1  0.61263526  0.29223339  0.33634219  1
  Na  Na16  1  0.30657823  0.68530467  0.16886001  1
  Na  Na17  1  0.32227527  0.65026555  0.67006092  1
  La  La0  1  0.02969022  0.01743164  0.35194697  1
  La  La1  1  0.00161336  0.99806946  0.84823348  1
  La  La2  1  0.01039024  0.00149875  0.65356256  1
  La  La3  1  0.00904144  0.98921019  0.14729184  1
  La  La4  1  0.66791463  0.34340117  0.68548697  1
  La  La5  1  0.66139406  0.33316537  0.18416619  1
  La  La6  1  0.33842694  0.67762292  0.00867423  1
  La  La7  1  0.33379328  0.65638417  0.50817815  1
  La  La8  1  0.33459193  0.67648414  0.32384887  1
  Ta  Ta0  1  0.68423960  0.33065145  0.97229833  1
  Ta  Ta1  1  0.67373630  0.33280375  0.48331668  1
  Ta  Ta2  1  0.32379860  0.66040842  0.82609033  1
  Si  Si0  1  0.31265151  0.99158285  0.24540295  1
  Si  Si1  1  0.31190354  0.32931606  0.75565874  1
  Si  Si2  1  0.01471159  0.68988988  0.75243549  1
  Si  Si3  1  0.96321640  0.33158540  0.58573126  1
  Si  Si4  1  0.67442221  0.63503917  0.58049790  1
  Si  Si5  1  0.95427925  0.62607214  0.07623436  1
  Si  Si6  1  0.67627889  0.04769448  0.07945655  1
  Si  Si7  1  0.62880098  0.64816054  0.92055367  1
  Si  Si8  1  0.02983024  0.36621191  0.92117968  1
  Si  Si9  1  0.35071009  0.97595843  0.91870698  1
  Si  Si10  1  0.65051978  0.98678355  0.42113369  1
  Si  Si11  1  0.35344831  0.36019417  0.42590901  1
  S  S0  1  0.69050617  0.69980225  0.25246740  1
  S  S1  1  0.00520510  0.30771359  0.24653368  1
  S  S2  1  0.67189249  0.97854510  0.75056998  1
  S  S3  1  0.37468775  0.04717084  0.57698058  1
  S  S4  1  0.37046734  0.32739285  0.07424079  1
  S  S5  1  0.00000796  0.64786884  0.42284650  1
  O  O0  1  0.19575866  0.98640563  0.29620956  1
  O  O1  1  0.78247431  0.78929407  0.30427884  1
  O  O2  1  0.99880962  0.20643539  0.29569519  1
  O  O3  1  0.21812792  0.22245661  0.81027008  1
  O  O4  1  0.96586545  0.77044752  0.80339970  1
  O  O5  1  0.78388766  0.01022547  0.79930529  1
  O  O6  1  0.74470703  0.95649613  0.69721442  1
  O  O7  1  0.20136118  0.25221432  0.69618158  1
  O  O8  1  0.03872966  0.78788341  0.69145756  1
  O  O9  1  0.77689972  0.78970700  0.19978385  1
  O  O10  1  0.00886007  0.22876766  0.19204785  1
  O  O11  1  0.23073401  0.99187839  0.18197668  1
  O  O12  1  0.88427154  0.33556757  0.64635998  1
  O  O13  1  0.46282675  0.11097586  0.63157897  1
  O  O14  1  0.65195940  0.53992072  0.64040988  1
  O  O15  1  0.85788976  0.52233729  0.13110079  1
  O  O16  1  0.65615181  0.12566844  0.13795043  1
  O  O17  1  0.45860036  0.34144374  0.12837293  1
  O  O18  1  0.46336480  0.32283341  0.02413430  1
  O  O19  1  0.83869363  0.51503763  0.01837777  1
  O  O20  1  0.67702206  0.17176037  0.02505485  1
  O  O21  1  0.47710128  0.14977229  0.52858407  1
  O  O22  1  0.67722944  0.51219047  0.52854678  1
  O  O23  1  0.83514964  0.33006234  0.53434767  1
  O  O24  1  0.56429196  0.67044242  0.98103642  1
  O  O25  1  0.11657245  0.43546763  0.98171884  1
  O  O26  1  0.30893794  0.88501718  0.97946236  1
  O  O27  1  0.56050743  0.87677957  0.47725340  1
  O  O28  1  0.33010534  0.42863582  0.48666236  1
  O  O29  1  0.09091115  0.67494886  0.47720034  1
  O  O30  1  0.08549054  0.63035071  0.37410916  1
  O  O31  1  0.53842772  0.91027962  0.36334211  1
  O  O32  1  0.39000178  0.49691437  0.37650767  1
  O  O33  1  0.14360182  0.50507872  0.87018060  1
  O  O34  1  0.36192213  0.85064896  0.86990158  1
  O  O35  1  0.49446706  0.63566204  0.86874323  1
  O  O36  1  0.95972722  0.77661920  0.41475865  1
  O  O37  1  0.82235451  0.99158342  0.41646932  1
  O  O38  1  0.20396005  0.17890650  0.41887461  1
  O  O39  1  0.00629646  0.19181423  0.91027865  1
  O  O40  1  0.20247866  0.00731843  0.90563682  1
  O  O41  1  0.81298060  0.78927674  0.91090856  1
  O  O42  1  0.97438145  0.16642827  0.57905481  1
  O  O43  1  0.22244759  0.05323487  0.57612606  1
  O  O44  1  0.84783042  0.80614256  0.57938589  1
  O  O45  1  0.95924437  0.80093484  0.07330818  1
  O  O46  1  0.84907364  0.05044030  0.07558616  1
  O  O47  1  0.21043986  0.17568374  0.07397838  1
  O  O48  1  0.64202794  0.11513284  0.74610590  1
  O  O49  1  0.49804564  0.36547020  0.75427979  1
  O  O50  1  0.87044259  0.49931358  0.75114601  1
  O  O51  1  0.66883078  0.53659818  0.25343299  1
  O  O52  1  0.85556352  0.31757022  0.24984791  1
  O  O53  1  0.49428991  0.15000006  0.25434339  1
  O  O54  1  0.62237638  0.46795442  0.92135149  1
  O  O55  1  0.85346984  0.36673530  0.91901625  1
  O  O56  1  0.52064934  0.15271440  0.92073673  1
  O  O57  1  0.67106046  0.16875368  0.43410446  1
  O  O58  1  0.52277432  0.34797747  0.42929711  1
  O  O59  1  0.84004167  0.49200625  0.42611269  1
  O  O60  1  0.34410396  0.46796493  0.07358861  1
  O  O61  1  0.13596442  0.64902611  0.07835122  1
  O  O62  1  0.52301282  0.86350047  0.07685758  1
  O  O63  1  0.33864382  0.87866393  0.57075657  1
  O  O64  1  0.52183847  0.66833109  0.57663213  1
  O  O65  1  0.13948163  0.49859170  0.58138005  1
  O  O66  1  0.33664466  0.83239053  0.24799100  1
  O  O67  1  0.53153624  0.69303078  0.25099340  1
  O  O68  1  0.14984938  0.46967724  0.25005286  1
  O  O69  1  0.32291914  0.51046947  0.76473474  1
  O  O70  1  0.18441559  0.68511027  0.76816213  1
  O  O71  1  0.51805508  0.82317426  0.75970674  1
loop_
_geom_bond_atom_site_label_1
_geom_bond_atom_site_label_2
_geom_bond_distance
_geom_bond_site_symmetry_2
Na0 O53 2.339736 1_565
Na0 O66 2.408053 1_555
Na0 O67 2.614290 1_555
Na0 O31 2.706914 1_555
Na0 O52 2.729716 1_565
Na0 O16 2.925321 1_565
Na1 O49 2.313522 1_555
Na1 O71 2.577142 1_555
Na1 O69 2.711434 1_555
Na1 O4 2.863904 1_555
Na1 O14 2.915897 1_555
Na2 O50 2.324075 1_455
Na2 O12 2.513396 1_455
Na2 O69 2.577552 1_555
Na2 O70 2.695738 1_555
Na2 O7 2.743909 1_555
Na3 O28 2.313674 1_555
Na3 O65 2.524703 1_555
Na3 O43 2.599623 1_555
Na3 O64 2.695909 1_555
Na3 O42 2.696656 1_455
Na3 O7 2.851960 1_555
Na4 O44 2.484236 1_455
Na4 O65 2.532266 1_555
Na4 O8 2.579469 1_555
Na4 O29 2.737628 1_555
Na4 O63 2.752021 1_555
Na5 O27 2.354438 1_555
Na5 O64 2.414162 1_555
Na5 O42 2.504001 1_565
Na5 O44 2.635349 1_555
Na6 O11 2.495618 1_555
Na6 O61 2.499411 1_555
Na6 O26 2.540548 1_554
Na6 O62 2.605978 1_555
Na6 O47 2.757237 1_565
Na6 O45 2.886019 1_455
Na7 O24 2.246413 1_554
Na7 O45 2.450968 1_555
Na7 O62 2.467197 1_555
Na7 O46 2.781184 1_565
Na7 O60 2.841270 1_555
Na8 O25 2.404351 1_554
Na8 O46 2.449864 1_455
Na8 O61 2.567151 1_555
Na8 O60 2.693215 1_555
Na8 O10 2.893418 1_555
Na9 O41 2.305575 1_555
Na9 O55 2.649179 1_555
Na9 O4 2.749553 1_555
Na9 O40 2.759139 1_665
Na9 O19 2.878812 1_556
Na10 O40 2.383717 1_555
Na10 O54 2.485317 1_555
Na10 O3 2.493424 1_555
Na10 O39 2.709678 1_555
Na10 O56 2.805301 1_555
Na10 O18 2.915222 1_556
Na10 O35 3.011554 1_555
Na11 O36 2.416072 1_555
Na11 O32 2.543037 1_555
Na11 O37 2.604080 1_555
Na11 O58 2.769363 1_555
Na11 O1 2.828266 1_555
Na12 O37 2.364720 1_545
Na12 O42 2.400554 1_555
Na12 O38 2.514082 1_655
Na12 O44 2.782541 1_545
Na12 O43 2.797114 1_655
Na12 O36 3.002919 1_545
Na13 O46 2.453397 1_566
Na13 O45 2.573878 1_556
Na13 O41 2.583214 1_555
Na13 O39 2.642635 1_665
Na13 O47 2.825476 1_666
Na13 O40 3.021822 1_665
Na14 O49 2.422337 1_555
Na14 O56 2.582230 1_555
Na14 O54 2.589701 1_555
Na14 O50 2.718253 1_555
Na14 O55 2.728882 1_555
Na14 O48 2.829937 1_555
Na15 O53 2.289889 1_555
Na15 O58 2.505987 1_555
Na15 O57 2.752017 1_555
Na15 O51 2.880813 1_555
Na15 O59 2.926458 1_555
Na15 O52 3.022031 1_555
Na16 O66 2.258786 1_555
Na16 O61 2.574657 1_555
Na16 O68 2.663522 1_555
Na16 O67 2.843355 1_555
Na16 O62 2.900258 1_555
Na17 O69 2.589472 1_555
Na17 O65 2.620719 1_555
Na17 O71 2.734910 1_555
Na17 O70 2.767183 1_555
Na17 O64 2.871652 1_555
La0 O0 2.203490 1_545
La0 O38 2.236370 1_555
La0 O2 2.372645 1_455
La0 O37 2.423646 1_445
La0 O1 2.531091 1_445
La0 O36 2.532292 1_445
La1 O4 2.291057 1_455
La1 O40 2.298406 1_565
La1 O3 2.301977 1_565
La1 O39 2.345563 1_565
La1 O5 2.421073 1_465
La1 O41 2.421628 1_455
La2 O8 2.368328 1_545
La2 O7 2.386443 1_555
La2 O44 2.446043 1_445
La2 O42 2.487082 1_455
La2 O6 2.584337 1_445
La2 O43 2.596843 1_555
La3 O11 2.252956 1_555
La3 O45 2.372185 1_455
La3 O9 2.433263 1_455
La3 O46 2.518848 1_465
La3 O10 2.530899 1_565
La3 O47 2.546796 1_565
La4 O14 2.229583 1_555
La4 O12 2.313121 1_555
La4 O50 2.323306 1_555
La4 O49 2.388373 1_555
La4 O13 2.448696 1_555
La4 O48 2.515278 1_555
La5 O15 2.238905 1_555
La5 O16 2.247748 1_555
La5 O17 2.361905 1_555
La5 O53 2.364180 1_555
La5 O52 2.460439 1_555
La5 O51 2.514876 1_555
La6 O26 2.250280 1_554
La6 O24 2.301246 1_554
La6 O25 2.312826 1_554
La6 O62 2.375771 1_555
La6 O61 2.459201 1_555
La6 O60 2.540730 1_555
La7 O28 2.228193 1_555
La7 O27 2.269931 1_555
La7 O64 2.355602 1_555
La7 O65 2.438036 1_555
La7 O29 2.519507 1_555
La7 O63 2.572766 1_555
La8 O31 2.298828 1_555
La8 O66 2.313359 1_555
La8 O32 2.379591 1_555
La8 O67 2.505771 1_555
La8 O30 2.508380 1_555
La8 O68 2.546009 1_555
O0 Si0 1.628110 1_555
O1 S0 1.485327 1_555
O2 S1 1.486567 1_655
O3 Si1 1.610681 1_555
O4 Si2 1.619538 1_655
O5 S2 1.479769 1_545
O6 S2 1.504640 1_555
O7 Si1 1.670764 1_555
O8 Si2 1.661415 1_555
O9 S0 1.502293 1_555
O10 S1 1.495243 1_555
O11 Si0 1.671272 1_555
O12 Si3 1.626503 1_555
O13 S3 1.476761 1_555
O14 Si4 1.628341 1_555
O15 Si5 1.611757 1_555
O16 Si6 1.621680 1_555
O17 S4 1.482149 1_555
O18 S4 1.495644 1_555
O18 Ta0 2.422133 1_554
O19 Si5 1.727704 1_555
O19 Ta0 1.958224 1_554
O20 Si6 1.739077 1_555
O20 Ta0 1.934873 1_554
O21 S3 1.507370 1_555
O21 Ta1 2.118705 1_555
O22 Si4 1.706329 1_555
O22 Ta1 2.010013 1_555
O23 Si3 1.702274 1_555
O23 Ta1 1.952961 1_555
O24 Si7 1.609217 1_555
O25 Si8 1.600960 1_555
O26 Si9 1.613555 1_555
O27 Si10 1.641739 1_555
O28 Si11 1.632541 1_555
O29 S5 1.480571 1_555
O30 S5 1.471234 1_555
O31 Si10 1.643739 1_555
O32 Si11 1.650805 1_555
O33 Si8 1.720926 1_555
O33 Ta2 1.931694 1_555
O34 Si9 1.704304 1_555
O34 Ta2 1.963205 1_555
O35 Si7 1.717240 1_555
O35 Ta2 2.018612 1_555
O36 S5 1.479089 1_655
O37 Si10 1.629470 1_555
O38 Si11 1.615053 1_555
O39 Si8 1.594543 1_555
O40 Si9 1.618423 1_545
O41 Si7 1.617738 1_555
O42 Si3 1.649895 1_555
O43 S3 1.489035 1_555
O44 Si4 1.652044 1_555
O45 Si5 1.656877 1_555
O46 Si6 1.646798 1_555
O47 S4 1.495789 1_555
O48 S2 1.478858 1_545
O49 Si1 1.638880 1_555
O50 Si2 1.651437 1_655
O51 S0 1.474162 1_555
O52 S1 1.486898 1_655
O53 Si0 1.652095 1_545
O54 Si7 1.700310 1_555
O54 Ta0 2.065821 1_555
O55 Si8 1.692964 1_655
O55 Ta0 1.947861 1_555
O56 Si9 1.663255 1_545
O56 Ta0 2.028469 1_555
O57 Si10 1.685399 1_545
O57 Ta1 1.943609 1_555
O58 Si11 1.685561 1_555
O58 Ta1 1.968920 1_555
O59 S5 1.517039 1_655
O59 Ta1 2.067684 1_555
O60 S4 1.492308 1_555
O61 Si5 1.642259 1_455
O62 Si6 1.639100 1_565
O63 S3 1.482773 1_565
O64 Si4 1.647288 1_555
O65 Si3 1.651420 1_455
O66 Si0 1.656450 1_555
O67 S0 1.492123 1_555
O68 S1 1.478651 1_555
O69 Si1 1.702694 1_555
O69 Ta2 2.033352 1_555
O70 Si2 1.685948 1_555
O70 Ta2 1.987087 1_555
O71 S2 1.499837 1_555
O71 Ta2 2.339323 1_555
