# generated using pymatgen
data_Si2Bi14IrI12
_symmetry_space_group_name_H-M   'P 1'
_cell_length_a   10.57587100
_cell_length_b   10.57587100
_cell_length_c   20.74388700
_cell_angle_alpha   90.00000000
_cell_angle_beta   90.00000000
_cell_angle_gamma   90.00000000
_symmetry_Int_Tables_number   1
_chemical_formula_structural   Si2Bi14IrI12
_chemical_formula_sum   'Si4 Bi28 Ir2 I24'
_cell_volume   2320.18400050
_cell_formula_units_Z   2
loop_
 _symmetry_equiv_pos_site_id
 _symmetry_equiv_pos_as_xyz
  1  'x, y, z'
loop_
 _atom_site_type_symbol
 _atom_site_label
 _atom_site_symmetry_multiplicity
 _atom_site_fract_x
 _atom_site_fract_y
 _atom_site_fract_z
 _atom_site_occupancy
  Si  Si0  1  0.50000000  0.50000000  0.90813600  1
  Si  Si1  1  0.50000000  0.50000000  0.59186400  1
  Si  Si2  1  0.50000000  0.50000000  0.09186400  1
  Si  Si3  1  0.50000000  0.50000000  0.40813600  1
  Bi  Bi0  1  0.30446000  0.41534800  0.81938000  1
  Bi  Bi1  1  0.69554000  0.58465200  0.81938000  1
  Bi  Bi2  1  0.41534800  0.30446000  0.68062000  1
  Bi  Bi3  1  0.41534800  0.69554000  0.81938000  1
  Bi  Bi4  1  0.58465200  0.30446000  0.81938000  1
  Bi  Bi5  1  0.69554000  0.41534800  0.68062000  1
  Bi  Bi6  1  0.30446000  0.58465200  0.68062000  1
  Bi  Bi7  1  0.58465200  0.69554000  0.68062000  1
  Bi  Bi8  1  0.69554000  0.58465200  0.18062000  1
  Bi  Bi9  1  0.30446000  0.41534800  0.18062000  1
  Bi  Bi10  1  0.58465200  0.69554000  0.31938000  1
  Bi  Bi11  1  0.58465200  0.30446000  0.18062000  1
  Bi  Bi12  1  0.41534800  0.69554000  0.18062000  1
  Bi  Bi13  1  0.30446000  0.58465200  0.31938000  1
  Bi  Bi14  1  0.69554000  0.41534800  0.31938000  1
  Bi  Bi15  1  0.41534800  0.30446000  0.31938000  1
  Bi  Bi16  1  0.00000000  0.00000000  0.62971200  1
  Bi  Bi17  1  0.00000000  0.00000000  0.87028800  1
  Bi  Bi18  1  0.00000000  0.00000000  0.37028800  1
  Bi  Bi19  1  0.00000000  0.00000000  0.12971200  1
  Bi  Bi20  1  0.94074600  0.75095800  0.50000000  1
  Bi  Bi21  1  0.05925400  0.24904200  0.50000000  1
  Bi  Bi22  1  0.75095800  0.94074600  0.00000000  1
  Bi  Bi23  1  0.75095800  0.05925400  0.50000000  1
  Bi  Bi24  1  0.24904200  0.94074600  0.50000000  1
  Bi  Bi25  1  0.05925400  0.75095800  0.00000000  1
  Bi  Bi26  1  0.94074600  0.24904200  0.00000000  1
  Bi  Bi27  1  0.24904200  0.05925400  0.00000000  1
  Ir  Ir0  1  0.00000000  0.00000000  0.00000000  1
  Ir  Ir1  1  0.00000000  0.00000000  0.50000000  1
  I  I0  1  0.21539200  0.63038300  0.50000000  1
  I  I1  1  0.78460800  0.36961700  0.50000000  1
  I  I2  1  0.63038300  0.21539200  0.00000000  1
  I  I3  1  0.63038300  0.78460800  0.50000000  1
  I  I4  1  0.36961700  0.21539200  0.50000000  1
  I  I5  1  0.78460800  0.63038300  0.00000000  1
  I  I6  1  0.21539200  0.36961700  0.00000000  1
  I  I7  1  0.36961700  0.78460800  0.00000000  1
  I  I8  1  0.07021100  0.29563000  0.65282100  1
  I  I9  1  0.92978900  0.70437000  0.65282100  1
  I  I10  1  0.29563000  0.07021100  0.84717900  1
  I  I11  1  0.29563000  0.92978900  0.65282100  1
  I  I12  1  0.70437000  0.07021100  0.65282100  1
  I  I13  1  0.92978900  0.29563000  0.84717900  1
  I  I14  1  0.07021100  0.70437000  0.84717900  1
  I  I15  1  0.70437000  0.92978900  0.84717900  1
  I  I16  1  0.92978900  0.70437000  0.34717900  1
  I  I17  1  0.07021100  0.29563000  0.34717900  1
  I  I18  1  0.70437000  0.92978900  0.15282100  1
  I  I19  1  0.70437000  0.07021100  0.34717900  1
  I  I20  1  0.29563000  0.92978900  0.34717900  1
  I  I21  1  0.07021100  0.70437000  0.15282100  1
  I  I22  1  0.92978900  0.29563000  0.15282100  1
  I  I23  1  0.29563000  0.07021100  0.15282100  1
loop_
_geom_bond_atom_site_label_1
_geom_bond_atom_site_label_2
_geom_bond_distance
_geom_bond_site_symmetry_2
Bi0 Si0 2.909977 1_555
Bi1 Si0 2.909977 1_555
Bi2 Si1 2.909977 1_555
Bi3 Si0 2.909977 1_555
Bi4 Si0 2.909977 1_555
Bi5 Si1 2.909977 1_555
Bi6 Si1 2.909977 1_555
Bi7 Si1 2.909977 1_555
Bi8 Si2 2.909977 1_555
Bi9 Si2 2.909977 1_555
Bi10 Si3 2.909977 1_555
Bi11 Si2 2.909977 1_555
Bi12 Si2 2.909977 1_555
Bi13 Si3 2.909977 1_555
Bi14 Si3 2.909977 1_555
Bi15 Si3 2.909977 1_555
Bi16 Ir1 2.690731 1_555
Bi16 I9 3.249069 1_445
Bi16 I12 3.249069 1_455
Bi16 I11 3.249069 1_545
Bi16 I8 3.249069 1_555
Bi17 Ir0 2.690731 1_556
Bi17 I14 3.249069 1_545
Bi17 I15 3.249069 1_445
Bi17 I10 3.249069 1_555
Bi17 I13 3.249069 1_455
Bi18 Ir1 2.690731 1_555
Bi18 I16 3.249069 1_445
Bi18 I19 3.249069 1_455
Bi18 I20 3.249069 1_545
Bi18 I17 3.249069 1_555
Bi19 Ir0 2.690731 1_555
Bi19 I21 3.249069 1_545
Bi19 I23 3.249069 1_555
Bi19 I22 3.249069 1_455
Bi19 I18 3.249069 1_445
Bi20 Ir1 2.707360 1_665
Bi20 I0 3.172211 1_655
Bi20 I9 3.210254 1_555
Bi20 I16 3.210254 1_555
Bi20 I3 3.301595 1_555
Bi21 Ir1 2.707360 1_555
Bi21 I1 3.172211 1_455
Bi21 I8 3.210254 1_555
Bi21 I17 3.210254 1_555
Bi21 I4 3.301595 1_555
Bi22 Ir0 2.707360 1_665
Bi22 I2 3.172211 1_565
Bi22 I15 3.210254 1_554
Bi22 I18 3.210254 1_555
Bi22 I5 3.301595 1_555
Bi23 Ir1 2.707360 1_655
Bi23 I3 3.172211 1_545
Bi23 I12 3.210254 1_555
Bi23 I19 3.210254 1_555
Bi23 I1 3.301595 1_555
Bi24 Ir1 2.707360 1_565
Bi24 I4 3.172211 1_565
Bi24 I11 3.210254 1_555
Bi24 I20 3.210254 1_555
Bi24 I0 3.301595 1_555
Bi25 Ir0 2.707360 1_565
Bi25 I5 3.172211 1_455
Bi25 I14 3.210254 1_554
Bi25 I21 3.210254 1_555
Bi25 I7 3.301595 1_555
Bi26 Ir0 2.707360 1_655
Bi26 I6 3.172211 1_655
Bi26 I13 3.210254 1_554
Bi26 I22 3.210254 1_555
Bi26 I2 3.301595 1_555
Bi27 Ir0 2.707360 1_555
Bi27 I7 3.172211 1_545
Bi27 I10 3.210254 1_554
Bi27 I23 3.210254 1_555
Bi27 I6 3.301595 1_555
