# generated using pymatgen
data_Ba3SiS5
_symmetry_space_group_name_H-M   'P 1'
_cell_length_a   8.65746241
_cell_length_b   9.53740560
_cell_length_c   12.07849023
_cell_angle_alpha   90.00000000
_cell_angle_beta   90.00000000
_cell_angle_gamma   90.00000000
_symmetry_Int_Tables_number   1
_chemical_formula_structural   Ba3SiS5
_chemical_formula_sum   'Ba12 Si4 S20'
_cell_volume   997.31768279
_cell_formula_units_Z   4
loop_
 _symmetry_equiv_pos_site_id
 _symmetry_equiv_pos_as_xyz
  1  'x, y, z'
loop_
 _atom_site_type_symbol
 _atom_site_label
 _atom_site_symmetry_multiplicity
 _atom_site_fract_x
 _atom_site_fract_y
 _atom_site_fract_z
 _atom_site_occupancy
  Ba  Ba0  1  0.88614733  0.75000000  0.47839379  1
  Ba  Ba1  1  0.38614733  0.25000000  0.02160621  1
  Ba  Ba2  1  0.11385267  0.25000000  0.52160621  1
  Ba  Ba3  1  0.61385267  0.75000000  0.97839379  1
  Ba  Ba4  1  0.07692194  0.98059952  0.81801481  1
  Ba  Ba5  1  0.57692194  0.01940048  0.68198519  1
  Ba  Ba6  1  0.92307806  0.48059952  0.18198519  1
  Ba  Ba7  1  0.42307806  0.51940048  0.31801481  1
  Ba  Ba8  1  0.92307806  0.01940048  0.18198519  1
  Ba  Ba9  1  0.42307806  0.98059952  0.31801481  1
  Ba  Ba10  1  0.07692194  0.51940048  0.81801481  1
  Ba  Ba11  1  0.57692194  0.48059952  0.68198519  1
  Si  Si0  1  0.30604481  0.75000000  0.59722469  1
  Si  Si1  1  0.19395519  0.75000000  0.09722469  1
  Si  Si2  1  0.69395519  0.25000000  0.40277531  1
  Si  Si3  1  0.80604481  0.25000000  0.90277531  1
  S  S0  1  0.68294352  0.75000000  0.23436600  1
  S  S1  1  0.18294352  0.25000000  0.26563400  1
  S  S2  1  0.31705648  0.25000000  0.76563400  1
  S  S3  1  0.81705648  0.75000000  0.73436600  1
  S  S4  1  0.98653751  0.75000000  0.00602474  1
  S  S5  1  0.48653751  0.25000000  0.49397526  1
  S  S6  1  0.01346249  0.25000000  0.99397526  1
  S  S7  1  0.51346249  0.75000000  0.50602474  1
  S  S8  1  0.15042808  0.75000000  0.27103895  1
  S  S9  1  0.34957192  0.75000000  0.77103895  1
  S  S10  1  0.84957192  0.25000000  0.72896105  1
  S  S11  1  0.65042808  0.25000000  0.22896105  1
  S  S12  1  0.68518311  0.06610486  0.94459129  1
  S  S13  1  0.18518311  0.93389514  0.55540871  1
  S  S14  1  0.31481689  0.56610486  0.05540871  1
  S  S15  1  0.81481689  0.43389514  0.44459129  1
  S  S16  1  0.31481689  0.93389514  0.05540871  1
  S  S17  1  0.81481689  0.06610486  0.44459129  1
  S  S18  1  0.68518311  0.43389514  0.94459129  1
  S  S19  1  0.18518311  0.56610486  0.55540871  1
loop_
_geom_bond_atom_site_label_1
_geom_bond_atom_site_label_2
_geom_bond_distance
_geom_bond_site_symmetry_2
Ba0 S15 3.104383 1_555
Ba0 S17 3.104383 1_565
Ba0 S3 3.149087 1_555
Ba0 S7 3.243720 1_555
Ba0 S19 3.262480 1_655
Ba0 S13 3.262480 1_655
Ba0 S8 3.392290 1_655
Ba0 S0 3.432575 1_555
Ba1 S16 3.104383 1_545
Ba1 S14 3.104383 1_555
Ba1 S2 3.149087 1_554
Ba1 S6 3.243720 1_554
Ba1 S18 3.262480 1_554
Ba1 S12 3.262480 1_554
Ba1 S11 3.392290 1_555
Ba1 S1 3.432575 1_555
Ba2 S13 3.104383 1_545
Ba2 S19 3.104383 1_555
Ba2 S1 3.149087 1_555
Ba2 S5 3.243720 1_555
Ba2 S15 3.262480 1_455
Ba2 S17 3.262480 1_455
Ba2 S10 3.392290 1_455
Ba2 S2 3.432575 1_555
Ba3 S18 3.104383 1_555
Ba3 S12 3.104383 1_565
Ba3 S0 3.149087 1_556
Ba3 S4 3.243720 1_556
Ba3 S14 3.262480 1_556
Ba3 S16 3.262480 1_556
Ba3 S9 3.392290 1_555
Ba3 S3 3.432575 1_555
Ba4 S4 3.256716 1_456
Ba4 S9 3.275776 1_555
Ba4 S3 3.304438 1_455
Ba4 S13 3.337325 1_555
Ba4 S2 3.365125 1_565
Ba4 S6 3.379440 1_565
Ba4 S10 3.410691 1_465
Ba4 S16 3.558368 1_556
Ba5 S5 3.256716 1_555
Ba5 S10 3.275776 1_555
Ba5 S2 3.304438 1_555
Ba5 S12 3.337325 1_555
Ba5 S3 3.365125 1_545
Ba5 S7 3.379440 1_545
Ba5 S9 3.410691 1_545
Ba5 S17 3.558368 1_555
Ba6 S6 3.256716 1_654
Ba6 S11 3.275776 1_555
Ba6 S1 3.304438 1_655
Ba6 S15 3.337325 1_555
Ba6 S0 3.365125 1_555
Ba6 S4 3.379440 1_555
Ba6 S8 3.410691 1_655
Ba6 S18 3.558368 1_554
Ba7 S7 3.256716 1_555
Ba7 S8 3.275776 1_555
Ba7 S0 3.304438 1_555
Ba7 S14 3.337325 1_555
Ba7 S1 3.365125 1_555
Ba7 S5 3.379440 1_555
Ba7 S11 3.410691 1_555
Ba7 S19 3.558368 1_555
Ba8 S6 3.256716 1_654
Ba8 S11 3.275776 1_555
Ba8 S1 3.304438 1_655
Ba8 S17 3.337325 1_555
Ba8 S0 3.365125 1_545
Ba8 S4 3.379440 1_545
Ba8 S8 3.410691 1_645
Ba8 S12 3.558368 1_554
Ba9 S7 3.256716 1_555
Ba9 S8 3.275776 1_555
Ba9 S0 3.304438 1_555
Ba9 S16 3.337325 1_555
Ba9 S1 3.365125 1_565
Ba9 S5 3.379440 1_565
Ba9 S11 3.410691 1_565
Ba9 S13 3.558368 1_555
Ba10 S4 3.256716 1_456
Ba10 S9 3.275776 1_555
Ba10 S3 3.304438 1_455
Ba10 S19 3.337325 1_555
Ba10 S2 3.365125 1_555
Ba10 S6 3.379440 1_555
Ba10 S10 3.410691 1_455
Ba10 S14 3.558368 1_556
Ba11 S5 3.256716 1_555
Ba11 S10 3.275776 1_555
Ba11 S2 3.304438 1_555
Ba11 S18 3.337325 1_555
Ba11 S3 3.365125 1_555
Ba11 S7 3.379440 1_555
Ba11 S9 3.410691 1_555
Ba11 S15 3.558368 1_555
S4 Si1 2.106658 1_655
S5 Si2 2.106658 1_555
S6 Si3 2.106658 1_455
S7 Si0 2.106658 1_555
S8 Si1 2.132966 1_555
S9 Si0 2.132966 1_555
S10 Si3 2.132966 1_555
S11 Si2 2.132966 1_555
S12 Si3 2.103821 1_555
S13 Si0 2.103821 1_555
S14 Si1 2.103821 1_555
S15 Si2 2.103821 1_555
S16 Si1 2.103821 1_555
S17 Si2 2.103821 1_555
S18 Si3 2.103821 1_555
S19 Si0 2.103821 1_555
