# generated using pymatgen
data_Na5Sc4P5SO24
_symmetry_space_group_name_H-M   'P 1'
_cell_length_a   8.97304071
_cell_length_b   8.99992172
_cell_length_c   22.84321782
_cell_angle_alpha   90.10981641
_cell_angle_beta   89.95919988
_cell_angle_gamma   119.90943883
_symmetry_Int_Tables_number   1
_chemical_formula_structural   Na5Sc4P5SO24
_chemical_formula_sum   'Na15 Sc12 P15 S3 O72'
_cell_volume   1599.04638570
_cell_formula_units_Z   3
loop_
 _symmetry_equiv_pos_site_id
 _symmetry_equiv_pos_as_xyz
  1  'x, y, z'
loop_
 _atom_site_type_symbol
 _atom_site_label
 _atom_site_symmetry_multiplicity
 _atom_site_fract_x
 _atom_site_fract_y
 _atom_site_fract_z
 _atom_site_occupancy
  Na  Na0  1  0.64336195  0.00055979  0.25049504  1
  Na  Na1  1  0.99626735  0.36113032  0.74992543  1
  Na  Na2  1  0.36375292  -0.00052277  0.75031079  1
  Na  Na3  1  0.02859517  0.69799225  0.58264084  1
  Na  Na4  1  0.66705972  0.96950973  0.58393245  1
  Na  Na5  1  0.30303575  0.97231289  0.08150567  1
  Na  Na6  1  0.03047623  0.33460638  0.08371362  1
  Na  Na7  1  0.97517022  0.66641118  0.91675768  1
  Na  Na8  1  0.70282510  0.66996032  0.41794906  1
  Na  Na9  1  0.01686499  0.01582932  0.49969372  1
  Na  Na10  1  0.99686007  0.00665287  0.99861191  1
  Na  Na11  1  0.65653426  0.32682882  0.83432891  1
  Na  Na12  1  0.68141926  0.33902894  0.33331733  1
  Na  Na13  1  0.33665296  0.64962684  0.16767015  1
  Na  Na14  1  0.34429528  0.65411534  0.66664434  1
  Sc  Sc0  1  0.99381945  0.99843670  0.35132267  1
  Sc  Sc1  1  0.00484837  0.01032473  0.85108478  1
  Sc  Sc2  1  0.00337712  0.00399721  0.64954542  1
  Sc  Sc3  1  0.98923643  0.99503116  0.14904716  1
  Sc  Sc4  1  0.66471345  0.34094870  0.68377032  1
  Sc  Sc5  1  0.67332735  0.34854958  0.18450014  1
  Sc  Sc6  1  0.66098874  0.32338313  0.98226061  1
  Sc  Sc7  1  0.66951922  0.32531197  0.48190814  1
  Sc  Sc8  1  0.33478559  0.66460599  0.01770957  1
  Sc  Sc9  1  0.33127359  0.66783466  0.51729844  1
  Sc  Sc10  1  0.32160191  0.66013019  0.31530709  1
  Sc  Sc11  1  0.33612757  0.66881081  0.81576652  1
  P  P0  1  0.70319059  0.70407279  0.25195874  1
  P  P1  1  0.00045825  0.29402188  0.24879182  1
  P  P2  1  0.29433642  0.29493432  0.75022747  1
  P  P3  1  0.99820198  0.70541524  0.75118836  1
  P  P4  1  0.70523367  0.99915086  0.74873571  1
  P  P5  1  0.96249162  0.33362225  0.58472527  1
  P  P6  1  0.37276543  0.04081831  0.58372468  1
  P  P7  1  0.66550848  0.62739354  0.58125290  1
  P  P8  1  0.96055991  0.62918739  0.08089380  1
  P  P9  1  0.66448585  0.03931026  0.08519374  1
  P  P10  1  0.37355276  0.33309883  0.08384679  1
  P  P11  1  0.03825905  0.37171088  0.91681390  1
  P  P12  1  0.33341465  0.96166866  0.91667862  1
  P  P13  1  0.62475360  0.96019468  0.41541377  1
  P  P14  1  0.03735541  0.66788005  0.41762755  1
  S  S0  1  0.29403427  0.00110904  0.24961183  1
  S  S1  1  0.62788479  0.66666974  0.91658574  1
  S  S2  1  0.33205025  0.37253889  0.41655498  1
  O  O0  1  0.20795305  0.02101328  0.30153989  1
  O  O1  1  0.81052483  0.78673028  0.30805008  1
  O  O2  1  0.97437520  0.17572868  0.30175502  1
  O  O3  1  0.21096400  0.17913017  0.80424977  1
  O  O4  1  0.97653299  0.79044651  0.80660720  1
  O  O5  1  0.82389644  0.02869545  0.80155665  1
  O  O6  1  0.78488649  0.97518441  0.69203850  1
  O  O7  1  0.17842046  0.21141823  0.69620651  1
  O  O8  1  0.02809318  0.81704716  0.69595583  1
  O  O9  1  0.79393434  0.82246252  0.19873829  1
  O  O10  1  0.02435181  0.21293412  0.19217285  1
  O  O11  1  0.19361117  0.97844373  0.19509530  1
  O  O12  1  0.88245267  0.36393841  0.64056964  1
  O  O13  1  0.48192283  0.11898676  0.63977633  1
  O  O14  1  0.64229892  0.51628372  0.63543898  1
  O  O15  1  0.87551680  0.51106405  0.13430045  1
  O  O16  1  0.63422357  0.11847995  0.14095334  1
  O  O17  1  0.48349236  0.35767302  0.13835998  1
  O  O18  1  0.45789643  0.30285930  0.02969653  1
  O  O19  1  0.85517362  0.54918728  0.02489751  1
  O  O20  1  0.69696520  0.15764058  0.03175545  1
  O  O21  1  0.46182464  0.15279984  0.53016927  1
  O  O22  1  0.69408368  0.54619549  0.52579983  1
  O  O23  1  0.84425041  0.30384693  0.53140891  1
  O  O24  1  0.54625115  0.68909285  0.96947950  1
  O  O25  1  0.14703979  0.45787186  0.97236253  1
  O  O26  1  0.30857256  0.84937490  0.97154063  1
  O  O27  1  0.54215892  0.84675094  0.47063917  1
  O  O28  1  0.30772732  0.45323598  0.46962279  1
  O  O29  1  0.14110448  0.68812344  0.47410991  1
  O  O30  1  0.12803017  0.64318275  0.36434459  1
  O  O31  1  0.51829746  0.87158426  0.36007025  1
  O  O32  1  0.36008029  0.48209509  0.36423981  1
  O  O33  1  0.12561897  0.48408933  0.86189918  1
  O  O34  1  0.35579703  0.87549441  0.86103149  1
  O  O35  1  0.52383563  0.64456124  0.86386732  1
  O  O36  1  0.01791403  0.82961436  0.41155709  1
  O  O37  1  0.80515527  0.97346583  0.41124086  1
  O  O38  1  0.18073491  0.20015933  0.41012815  1
  O  O39  1  0.01622091  0.19128232  0.91178259  1
  O  O40  1  0.16287668  0.96715982  0.91203141  1
  O  O41  1  0.80352778  0.82005290  0.91182353  1
  O  O42  1  0.97390404  0.16809168  0.58913437  1
  O  O43  1  0.18743785  0.01088714  0.58845859  1
  O  O44  1  0.82991080  0.80732255  0.58789128  1
  O  O45  1  0.99039761  0.81307627  0.08931484  1
  O  O46  1  0.83104659  0.02681469  0.08936405  1
  O  O47  1  0.19239543  0.16910120  0.08936038  1
  O  O48  1  0.68720695  0.16284182  0.74469653  1
  O  O49  1  0.47157016  0.30607926  0.74409616  1
  O  O50  1  0.84283553  0.52150080  0.74553177  1
  O  O51  1  0.68422006  0.52538082  0.24553947  1
  O  O52  1  0.83079076  0.30125989  0.24481999  1
  O  O53  1  0.47068294  0.15348866  0.24561663  1
  O  O54  1  0.65002149  0.51330724  0.92133183  1
  O  O55  1  0.86204861  0.36569715  0.92152144  1
  O  O56  1  0.49211938  0.14167782  0.92160835  1
  O  O57  1  0.64358327  0.13905418  0.42107116  1
  O  O58  1  0.49293636  0.36204174  0.42196551  1
  O  O59  1  0.85244812  0.51062243  0.42129175  1
  O  O60  1  0.34549490  0.48929280  0.07785126  1
  O  O61  1  0.14277541  0.64554794  0.07695504  1
  O  O62  1  0.50131213  0.86200973  0.07674710  1
  O  O63  1  0.35700577  0.85979759  0.57751952  1
  O  O64  1  0.50834594  0.65496856  0.57699604  1
  O  O65  1  0.13946064  0.49833261  0.57718453  1
  O  O66  1  0.31617257  0.84622179  0.25466043  1
  O  O67  1  0.52635517  0.69627626  0.25643934  1
  O  O68  1  0.15916158  0.47371997  0.25569618  1
  O  O69  1  0.30726691  0.47211482  0.75711249  1
  O  O70  1  0.16381853  0.68835910  0.75567901  1
  O  O71  1  0.52199313  0.84219332  0.75550456  1
loop_
_geom_bond_atom_site_label_1
_geom_bond_atom_site_label_2
_geom_bond_distance
_geom_bond_site_symmetry_2
Na0 O52 2.373032 1_555
Na0 O67 2.398786 1_545
Na0 O53 2.536759 1_555
Na0 O66 2.547767 1_545
Na0 O16 2.737099 1_555
Na0 O31 2.753194 1_545
Na0 O9 2.818256 1_545
Na0 O2 2.829613 1_555
Na1 O48 2.440059 1_555
Na1 O50 2.443582 1_555
Na1 O69 2.456099 1_655
Na1 O70 2.556183 1_655
Na1 O12 2.704335 1_555
Na1 O33 2.797641 1_655
Na1 O5 2.851449 1_555
Na1 O7 2.860038 1_655
Na2 O49 2.430928 1_555
Na2 O71 2.457487 1_545
Na2 O70 2.462762 1_545
Na2 O48 2.519224 1_555
Na2 O13 2.743332 1_555
Na2 O34 2.752861 1_545
Na2 O3 2.865759 1_555
Na2 O8 2.893926 1_545
Na3 O44 2.430969 1_455
Na3 O43 2.444444 1_565
Na3 O65 2.452700 1_555
Na3 O63 2.557108 1_555
Na3 O29 2.694161 1_555
Na3 O8 2.800444 1_555
Na3 O22 2.910527 1_455
Na3 O12 2.930966 1_455
Na4 O42 2.425163 1_565
Na4 O63 2.448903 1_555
Na4 O64 2.458677 1_555
Na4 O44 2.530208 1_555
Na4 O6 2.677346 1_555
Na4 O27 2.816503 1_555
Na4 O23 2.874310 1_565
Na4 O13 2.901020 1_565
Na5 O47 2.430336 1_565
Na5 O62 2.433787 1_555
Na5 O45 2.438518 1_455
Na5 O61 2.551268 1_555
Na5 O26 2.753283 1_554
Na5 O11 2.783830 1_555
Na5 O18 2.840807 1_565
Na5 O16 2.916550 1_565
Na6 O46 2.439251 1_455
Na6 O60 2.453957 1_555
Na6 O61 2.461667 1_555
Na6 O47 2.550592 1_555
Na6 O10 2.700115 1_555
Na6 O25 2.764879 1_554
Na6 O15 2.825527 1_455
Na6 O20 2.854057 1_455
Na7 O55 2.372372 1_555
Na7 O40 2.372604 1_655
Na7 O54 2.532343 1_555
Na7 O41 2.534067 1_555
Na7 O19 2.692200 1_556
Na7 O4 2.752203 1_555
Na7 O33 2.878215 1_655
Na7 O26 2.883076 1_655
Na8 O59 2.405276 1_555
Na8 O37 2.414121 1_555
Na8 O36 2.455289 1_655
Na8 O58 2.455811 1_555
Na8 O22 2.690650 1_555
Na8 O1 2.708233 1_555
Na8 O27 2.887286 1_555
Na8 O32 2.938402 1_555
Na9 O43 2.555134 1_555
Na9 O38 2.583850 1_555
Na9 O42 2.591471 1_455
Na9 O36 2.620123 1_545
Na9 O37 2.667766 1_445
Na9 O44 2.695362 1_445
Na10 O39 2.539615 1_655
Na10 O40 2.603499 1_645
Na10 O46 2.609148 1_556
Na10 O41 2.616668 1_545
Na10 O47 2.636024 1_656
Na10 O45 2.691545 1_546
Na11 O56 2.546596 1_555
Na11 O49 2.594672 1_555
Na11 O48 2.615123 1_555
Na11 O55 2.617131 1_555
Na11 O54 2.618167 1_555
Na11 O50 2.658304 1_555
Na12 O59 2.531334 1_555
Na12 O52 2.539010 1_555
Na12 O57 2.603121 1_555
Na12 O51 2.608601 1_555
Na12 O53 2.687224 1_555
Na12 O58 2.710494 1_555
Na13 O60 2.529981 1_555
Na13 O67 2.544522 1_555
Na13 O68 2.565020 1_555
Na13 O61 2.695009 1_555
Na13 O62 2.710135 1_555
Na13 O66 2.724576 1_555
Na14 O64 2.518958 1_555
Na14 O69 2.556058 1_555
Na14 O71 2.612997 1_555
Na14 O65 2.635242 1_555
Na14 O70 2.710102 1_555
Na14 O63 2.718109 1_555
O0 S0 1.473654 1_555
O0 Sc0 2.152866 1_445
O1 P0 1.551236 1_555
O1 Sc0 2.045102 1_555
O2 P1 1.551772 1_655
O2 Sc0 2.035517 1_545
O3 P2 1.547520 1_555
O3 Sc1 2.018559 1_555
O4 P3 1.539608 1_555
O4 Sc1 2.122281 1_665
O5 P4 1.542261 1_545
O5 Sc1 2.052992 1_655
O6 P4 1.544707 1_555
O6 Sc2 2.084317 1_665
O7 P2 1.545385 1_555
O7 Sc2 2.039282 1_555
O8 P3 1.552038 1_455
O8 Sc2 2.093647 1_565
O9 P0 1.553908 1_555
O9 Sc3 2.015273 1_555
O10 P1 1.550275 1_555
O10 Sc3 2.071838 1_445
O11 S0 1.490558 1_565
O11 Sc3 2.183615 1_455
O12 P5 1.552528 1_555
O12 Sc4 2.104479 1_555
O13 P6 1.550764 1_555
O13 Sc4 2.101870 1_555
O14 P7 1.540173 1_555
O14 Sc4 2.018156 1_555
O15 P8 1.547730 1_555
O15 Sc5 2.025565 1_555
O16 P9 1.546864 1_555
O16 Sc5 2.160583 1_555
O17 P10 1.534881 1_555
O17 Sc5 2.039993 1_555
O18 P10 1.542631 1_555
O18 Sc6 2.047322 1_554
O19 P8 1.538834 1_555
O19 Sc6 2.139652 1_554
O20 P9 1.550533 1_555
O20 Sc6 2.023561 1_554
O21 P6 1.533340 1_555
O21 Sc7 2.053579 1_555
O22 P7 1.545065 1_555
O22 Sc7 2.135750 1_555
O23 P5 1.548505 1_555
O23 Sc7 2.019794 1_555
O24 S1 1.477298 1_555
O24 Sc8 2.108025 1_556
O25 P11 1.551568 1_555
O25 Sc8 2.059639 1_556
O26 P12 1.556097 1_555
O26 Sc8 2.080865 1_556
O27 P13 1.559527 1_555
O27 Sc9 2.067523 1_555
O28 S2 1.482884 1_555
O28 Sc9 2.132186 1_555
O29 P14 1.547977 1_555
O29 Sc9 2.057244 1_555
O30 P14 1.539729 1_555
O30 Sc10 2.007151 1_555
O31 P13 1.544304 1_555
O31 Sc10 2.104234 1_555
O32 S2 1.490088 1_555
O32 Sc10 2.120174 1_555
O33 P11 1.556858 1_555
O33 Sc11 2.077148 1_555
O34 P12 1.552054 1_555
O34 Sc11 2.055697 1_555
O35 S1 1.475442 1_555
O35 Sc11 2.112342 1_555
O36 P14 1.556425 1_555
O36 Sc0 2.141156 1_455
O37 P13 1.565477 1_555
O37 Sc0 2.099586 1_555
O38 S2 1.473316 1_555
O38 Sc0 2.206973 1_445
O39 P11 1.538916 1_555
O39 Sc1 2.100249 1_555
O40 P12 1.559175 1_555
O40 Sc1 2.157344 1_565
O41 S1 1.493998 1_555
O41 Sc1 2.245296 1_665
O42 P5 1.546852 1_555
O42 Sc2 2.133817 1_655
O43 P6 1.550093 1_555
O43 Sc2 2.138619 1_555
O44 P7 1.561582 1_555
O44 Sc2 2.187549 1_665
O45 P8 1.550688 1_555
O45 Sc3 2.133543 1_555
O46 P9 1.556689 1_555
O46 Sc3 2.089151 1_545
O47 P10 1.563475 1_555
O47 Sc3 2.189295 1_445
O48 P4 1.563074 1_545
O48 Sc4 2.208788 1_555
O49 P2 1.549023 1_555
O49 Sc4 2.111139 1_555
O50 P3 1.548606 1_555
O50 Sc4 2.142393 1_555
O51 P0 1.537191 1_555
O51 Sc5 2.079195 1_555
O52 P1 1.558653 1_655
O52 Sc5 2.163521 1_555
O53 S0 1.494654 1_555
O53 Sc5 2.271498 1_555
O54 S1 1.493425 1_555
O54 Sc6 2.246241 1_555
O55 P11 1.558508 1_655
O55 Sc6 2.153661 1_555
O56 P12 1.537540 1_545
O56 Sc6 2.100731 1_555
O57 P13 1.537678 1_545
O57 Sc7 2.097127 1_555
O58 S2 1.498199 1_555
O58 Sc7 2.240975 1_555
O59 P14 1.556090 1_655
O59 Sc7 2.160710 1_555
O60 P10 1.553049 1_555
O60 Sc8 2.132091 1_555
O61 P8 1.569345 1_455
O61 Sc8 2.128919 1_555
O62 P9 1.548064 1_565
O62 Sc8 2.134043 1_555
O63 P6 1.569612 1_565
O63 Sc9 2.126973 1_555
O64 P7 1.552125 1_555
O64 Sc9 2.141202 1_555
O65 P5 1.549774 1_455
O65 Sc9 2.132400 1_555
O66 S0 1.507555 1_565
O66 Sc10 2.194757 1_555
O67 P0 1.556259 1_555
O67 Sc10 2.166047 1_555
O68 P1 1.539783 1_555
O68 Sc10 2.085379 1_555
O69 P2 1.547752 1_555
O69 Sc11 2.128439 1_555
O70 P3 1.571720 1_455
O70 Sc11 2.140261 1_555
O71 P4 1.551462 1_555
O71 Sc11 2.126272 1_555
