# generated using pymatgen
data_Sn2IF3
_symmetry_space_group_name_H-M   'P 1'
_cell_length_a   7.39768602
_cell_length_b   7.39768602
_cell_length_c   9.35353400
_cell_angle_alpha   90.00000000
_cell_angle_beta   90.00000000
_cell_angle_gamma   145.66205601
_symmetry_Int_Tables_number   1
_chemical_formula_structural   Sn2IF3
_chemical_formula_sum   'Sn4 I2 F6'
_cell_volume   288.73726349
_cell_formula_units_Z   2
loop_
 _symmetry_equiv_pos_site_id
 _symmetry_equiv_pos_as_xyz
  1  'x, y, z'
loop_
 _atom_site_type_symbol
 _atom_site_label
 _atom_site_symmetry_multiplicity
 _atom_site_fract_x
 _atom_site_fract_y
 _atom_site_fract_z
 _atom_site_occupancy
  Sn  Sn0  1  0.34264400  0.62232600  0.45785500  1
  Sn  Sn1  1  0.37767400  0.65735600  0.04214500  1
  Sn  Sn2  1  0.62232600  0.34264400  0.54214500  1
  Sn  Sn3  1  0.65735600  0.37767400  0.95785500  1
  I  I0  1  0.99345200  0.00654800  0.75000000  1
  I  I1  1  0.00654800  0.99345200  0.25000000  1
  F  F0  1  0.29261800  0.70738200  0.25000000  1
  F  F1  1  0.70738200  0.29261800  0.75000000  1
  F  F2  1  0.78807900  0.20565100  0.45966200  1
  F  F3  1  0.20565100  0.78807900  0.54033800  1
  F  F4  1  0.79434900  0.21192100  0.04033800  1
  F  F5  1  0.21192100  0.79434900  0.95966200  1
loop_
_geom_bond_atom_site_label_1
_geom_bond_atom_site_label_2
_geom_bond_distance
_geom_bond_site_symmetry_2
F0 Sn0 2.167316 1_555
F0 Sn1 2.167316 1_555
F1 Sn3 2.167316 1_555
F1 Sn2 2.167316 1_555
F2 Sn2 2.275520 1_555
F2 Sn0 2.334196 1_655
F2 Sn0 2.448889 1_545
F3 Sn0 2.275520 1_555
F3 Sn2 2.334196 1_565
F3 Sn2 2.448889 1_455
F4 Sn3 2.275520 1_554
F4 Sn1 2.334196 1_545
F4 Sn1 2.448889 1_655
F5 Sn1 2.275520 1_556
F5 Sn3 2.334196 1_455
F5 Sn3 2.448889 1_565
