# generated using pymatgen
data_Na2NbAlSi2SO12
_symmetry_space_group_name_H-M   'P 1'
_cell_length_a   8.84015823
_cell_length_b   8.84015794
_cell_length_c   22.31662286
_cell_angle_alpha   88.39226628
_cell_angle_beta   91.60773375
_cell_angle_gamma   119.74938085
_symmetry_Int_Tables_number   1
_chemical_formula_structural   Na2NbAlSi2SO12
_chemical_formula_sum   'Na12 Nb6 Al6 Si12 S6 O72'
_cell_volume   1513.35842976
_cell_formula_units_Z   6
loop_
 _symmetry_equiv_pos_site_id
 _symmetry_equiv_pos_as_xyz
  1  'x, y, z'
loop_
 _atom_site_type_symbol
 _atom_site_label
 _atom_site_symmetry_multiplicity
 _atom_site_fract_x
 _atom_site_fract_y
 _atom_site_fract_z
 _atom_site_occupancy
  Na  Na0  1  0.98846387  0.62427557  0.24996210  1
  Na  Na1  1  0.37572443  0.01153613  0.74996210  1
  Na  Na2  1  0.65513087  0.95760857  0.58329510  1
  Na  Na3  1  0.04239143  0.34486913  0.08329510  1
  Na  Na4  1  0.32179687  0.29094257  0.91662910  1
  Na  Na5  1  0.70905743  0.67820313  0.41662910  1
  Na  Na6  1  0.01453957  0.99465152  0.49425981  1
  Na  Na7  1  0.00534848  0.98546043  0.99425981  1
  Na  Na8  1  0.68120657  0.32798452  0.82759281  1
  Na  Na9  1  0.67201548  0.31879343  0.32759281  1
  Na  Na10  1  0.34787257  0.66131852  0.16092681  1
  Na  Na11  1  0.33868148  0.65212743  0.66092681  1
  Nb  Nb0  1  0.99686945  0.00065818  0.64462705  1
  Nb  Nb1  1  0.99934182  0.00313055  0.14462705  1
  Nb  Nb2  1  0.66353645  0.33399118  0.97796005  1
  Nb  Nb3  1  0.66600882  0.33646355  0.47796005  1
  Nb  Nb4  1  0.33020245  0.66732518  0.31129405  1
  Nb  Nb5  1  0.33267482  0.66979755  0.81129405  1
  Al  Al0  1  0.96893950  0.98390637  0.35420511  1
  Al  Al1  1  0.01609363  0.03106050  0.85420511  1
  Al  Al2  1  0.63560650  0.31723937  0.68753811  1
  Al  Al3  1  0.68276063  0.36439350  0.18753811  1
  Al  Al4  1  0.30227250  0.65057337  0.02087211  1
  Al  Al5  1  0.34942663  0.69772750  0.52087211  1
  Si  Si0  1  0.70842428  0.70720095  0.25228142  1
  Si  Si1  1  0.98429082  0.27652220  0.25175407  1
  Si  Si2  1  0.29279905  0.29157572  0.75228142  1
  Si  Si3  1  0.72347780  0.01570918  0.75175407  1
  Si  Si4  1  0.37509128  0.04053395  0.58561442  1
  Si  Si5  1  0.65095782  0.60985520  0.58508707  1
  Si  Si6  1  0.95946605  0.62490872  0.08561442  1
  Si  Si7  1  0.39014480  0.34904218  0.08508707  1
  Si  Si8  1  0.04175728  0.37386795  0.91894842  1
  Si  Si9  1  0.31762382  0.94318920  0.91842107  1
  Si  Si10  1  0.62613205  0.95824272  0.41894842  1
  Si  Si11  1  0.05681080  0.68237618  0.41842107  1
  S  S0  1  0.29420782  0.01142391  0.25172923  1
  S  S1  1  0.98857609  0.70579218  0.75172923  1
  S  S2  1  0.96087482  0.34475691  0.58506223  1
  S  S3  1  0.65524309  0.03912518  0.08506223  1
  S  S4  1  0.62754082  0.67809091  0.91839623  1
  S  S5  1  0.32190909  0.37245918  0.41839623  1
  O  O0  1  0.21179832  0.02814672  0.30467011  1
  O  O1  1  0.83061159  0.78977235  0.31129993  1
  O  O2  1  0.97703341  0.15753940  0.30832100  1
  O  O3  1  0.21022765  0.16938841  0.81129993  1
  O  O4  1  0.97185328  0.78820168  0.80467011  1
  O  O5  1  0.84246060  0.02296659  0.80832100  1
  O  O6  1  0.80028112  0.97568180  0.68995980  1
  O  O7  1  0.16427059  0.18782862  0.69375588  1
  O  O8  1  0.02332840  0.81976971  0.69640103  1
  O  O9  1  0.81217138  0.83572941  0.19375588  1
  O  O10  1  0.02431820  0.19971887  0.18995980  1
  O  O11  1  0.18023029  0.97667160  0.19640103  1
  O  O12  1  0.87846532  0.36147972  0.63800311  1
  O  O13  1  0.49727859  0.12310535  0.64463293  1
  O  O14  1  0.64370041  0.49087240  0.64165400  1
  O  O15  1  0.87689465  0.50272141  0.14463293  1
  O  O16  1  0.63852028  0.12153468  0.13800311  1
  O  O17  1  0.50912760  0.35629959  0.14165400  1
  O  O18  1  0.46694812  0.30901480  0.02329280  1
  O  O19  1  0.83093759  0.52116162  0.02708888  1
  O  O20  1  0.68999540  0.15310271  0.02973403  1
  O  O21  1  0.47883838  0.16906241  0.52708888  1
  O  O22  1  0.69098520  0.53305187  0.52329280  1
  O  O23  1  0.84689729  0.31000460  0.52973403  1
  O  O24  1  0.54513132  0.69481372  0.97133711  1
  O  O25  1  0.16394459  0.45643935  0.97796693  1
  O  O26  1  0.31036641  0.82420640  0.97498800  1
  O  O27  1  0.54356065  0.83605541  0.47796693  1
  O  O28  1  0.30518628  0.45486868  0.47133711  1
  O  O29  1  0.17579360  0.68963359  0.47498800  1
  O  O30  1  0.13361412  0.64234880  0.35662680  1
  O  O31  1  0.49760359  0.85449562  0.36042288  1
  O  O32  1  0.35666140  0.48643671  0.36306803  1
  O  O33  1  0.14550438  0.50239641  0.86042288  1
  O  O34  1  0.35765120  0.86638587  0.85662680  1
  O  O35  1  0.51356329  0.64333860  0.86306803  1
  O  O36  1  0.03186255  0.85222927  0.40864372  1
  O  O37  1  0.81566461  0.97430371  0.41067559  1
  O  O38  1  0.17558230  0.19782445  0.40985497  1
  O  O39  1  0.02569629  0.18433539  0.91067559  1
  O  O40  1  0.14777073  0.96813745  0.90864372  1
  O  O41  1  0.80217555  0.82441770  0.90985497  1
  O  O42  1  0.96813030  0.17551132  0.58718791  1
  O  O43  1  0.18117888  0.02360593  0.58923053  1
  O  O44  1  0.82378082  0.81310622  0.59118076  1
  O  O45  1  0.97639407  0.81882112  0.08923053  1
  O  O46  1  0.82448868  0.03186970  0.08718791  1
  O  O47  1  0.18689378  0.17621918  0.09118076  1
  O  O48  1  0.69852955  0.18556227  0.74197672  1
  O  O49  1  0.48233161  0.30763671  0.74400859  1
  O  O50  1  0.84224930  0.53115745  0.74318797  1
  O  O51  1  0.69236329  0.51766839  0.24400859  1
  O  O52  1  0.81443773  0.30147045  0.24197672  1
  O  O53  1  0.46884255  0.15775070  0.24318797  1
  O  O54  1  0.63479730  0.50884432  0.92052091  1
  O  O55  1  0.84784588  0.35693893  0.92256353  1
  O  O56  1  0.49044782  0.14643922  0.92451376  1
  O  O57  1  0.64306107  0.15215412  0.42256353  1
  O  O58  1  0.49115568  0.36520270  0.42052091  1
  O  O59  1  0.85356078  0.50955218  0.42451376  1
  O  O60  1  0.36519555  0.51889627  0.07531072  1
  O  O61  1  0.14899761  0.64097071  0.07734259  1
  O  O62  1  0.50891530  0.86449145  0.07652197  1
  O  O63  1  0.35902929  0.85100239  0.57734259  1
  O  O64  1  0.48110373  0.63480445  0.57531072  1
  O  O65  1  0.13550855  0.49108470  0.57652197  1
  O  O66  1  0.30146330  0.84217832  0.25385491  1
  O  O67  1  0.51451188  0.69027293  0.25589753  1
  O  O68  1  0.15711382  0.47977322  0.25784776  1
  O  O69  1  0.30972707  0.48548812  0.75589753  1
  O  O70  1  0.15782168  0.69853670  0.75385491  1
  O  O71  1  0.52022678  0.84288618  0.75784776  1
loop_
_geom_bond_atom_site_label_1
_geom_bond_atom_site_label_2
_geom_bond_distance
_geom_bond_site_symmetry_2
Na0 O51 2.301495 1_555
Na0 O68 2.397552 1_655
Na0 O66 2.465886 1_655
Na0 O52 2.489608 1_555
Na0 O15 2.571493 1_555
Na0 O30 2.642874 1_655
Na0 O1 2.864796 1_555
Na0 O11 2.944662 1_655
Na1 O49 2.301494 1_555
Na1 O71 2.397552 1_545
Na1 O70 2.465886 1_545
Na1 O48 2.489608 1_555
Na1 O13 2.571493 1_555
Na1 O34 2.642874 1_545
Na1 O3 2.864796 1_555
Na1 O8 2.944662 1_545
Na2 O63 2.301503 1_555
Na2 O44 2.397552 1_555
Na2 O42 2.465886 1_565
Na2 O64 2.489599 1_555
Na2 O27 2.571472 1_555
Na2 O6 2.642874 1_555
Na2 O13 2.864796 1_565
Na2 O23 2.944662 1_565
Na3 O61 2.301503 1_555
Na3 O47 2.397552 1_555
Na3 O46 2.465886 1_455
Na3 O60 2.489599 1_555
Na3 O25 2.571472 1_554
Na3 O10 2.642874 1_555
Na3 O15 2.864796 1_455
Na3 O20 2.944662 1_455
Na4 O39 2.301495 1_555
Na4 O56 2.397567 1_555
Na4 O54 2.465890 1_555
Na4 O40 2.489608 1_545
Na4 O3 2.571493 1_555
Na4 O18 2.642859 1_556
Na4 O25 2.864796 1_555
Na4 O35 2.944662 1_555
Na5 O37 2.301494 1_555
Na5 O59 2.397567 1_555
Na5 O58 2.465890 1_555
Na5 O36 2.489608 1_655
Na5 O1 2.571493 1_555
Na5 O22 2.642859 1_555
Na5 O27 2.864796 1_555
Na5 O32 2.944662 1_555
Na6 O36 2.366854 1_555
Na6 O37 2.474591 1_455
Na6 O43 2.491707 1_565
Na6 O38 2.494751 1_565
Na6 O44 2.724294 1_455
Na6 O42 2.812500 1_465
Na7 O40 2.366854 1_555
Na7 O39 2.474591 1_565
Na7 O45 2.491707 1_456
Na7 O41 2.494751 1_455
Na7 O47 2.724294 1_566
Na7 O46 2.812500 1_466
Na8 O48 2.366854 1_555
Na8 O49 2.474591 1_555
Na8 O55 2.491707 1_555
Na8 O50 2.494751 1_555
Na8 O56 2.724294 1_555
Na8 O54 2.812500 1_555
Na9 O52 2.366854 1_555
Na9 O51 2.474591 1_555
Na9 O57 2.491707 1_555
Na9 O53 2.494751 1_555
Na9 O59 2.724294 1_555
Na9 O58 2.812500 1_555
Na10 O60 2.366854 1_555
Na10 O61 2.474591 1_555
Na10 O67 2.491707 1_555
Na10 O62 2.494751 1_555
Na10 O68 2.724294 1_555
Na10 O66 2.812500 1_555
Na11 O64 2.366854 1_555
Na11 O63 2.474591 1_555
Na11 O69 2.491707 1_555
Na11 O65 2.494751 1_555
Na11 O71 2.724294 1_555
Na11 O70 2.812500 1_555
Nb0 O7 1.926273 1_655
Nb0 O6 1.948782 1_545
Nb0 O43 1.998783 1_655
Nb0 O44 2.000930 1_545
Nb0 O8 2.049176 1_645
Nb0 O42 2.087398 1_555
Nb1 O9 1.926273 1_545
Nb1 O10 1.948782 1_655
Nb1 O45 1.998783 1_545
Nb1 O47 2.000930 1_655
Nb1 O11 2.049176 1_645
Nb1 O46 2.087398 1_555
Nb2 O19 1.926273 1_556
Nb2 O18 1.948782 1_556
Nb2 O55 1.998783 1_555
Nb2 O56 2.000930 1_555
Nb2 O20 2.049176 1_556
Nb2 O54 2.087398 1_555
Nb3 O21 1.926273 1_555
Nb3 O22 1.948782 1_555
Nb3 O57 1.998783 1_555
Nb3 O59 2.000930 1_555
Nb3 O23 2.049176 1_555
Nb3 O58 2.087398 1_555
Nb4 O31 1.926273 1_555
Nb4 O30 1.948782 1_555
Nb4 O67 1.998783 1_555
Nb4 O68 2.000930 1_555
Nb4 O32 2.049176 1_555
Nb4 O66 2.087398 1_555
Nb5 O33 1.926273 1_555
Nb5 O34 1.948782 1_555
Nb5 O69 1.998783 1_555
Nb5 O71 2.000930 1_555
Nb5 O35 2.049176 1_555
Nb5 O70 2.087398 1_555
Al0 O2 1.793495 1_565
Al0 O1 1.816925 1_555
Al0 O37 1.845808 1_555
Al0 O36 1.914597 1_655
Al0 O38 2.243146 1_665
Al0 O0 2.293436 1_665
Al1 O5 1.793495 1_455
Al1 O3 1.816925 1_555
Al1 O39 1.845808 1_555
Al1 O40 1.914597 1_545
Al1 O41 2.243146 1_445
Al1 O4 2.293436 1_445
Al2 O14 1.793495 1_555
Al2 O13 1.816925 1_555
Al2 O49 1.845808 1_555
Al2 O48 1.914597 1_555
Al2 O50 2.243146 1_555
Al2 O12 2.293436 1_555
Al3 O17 1.793495 1_555
Al3 O15 1.816925 1_555
Al3 O51 1.845808 1_555
Al3 O52 1.914597 1_555
Al3 O53 2.243146 1_555
Al3 O16 2.293436 1_555
Al4 O26 1.793495 1_554
Al4 O25 1.816925 1_554
Al4 O61 1.845808 1_555
Al4 O60 1.914597 1_555
Al4 O62 2.243146 1_555
Al4 O24 2.293436 1_554
Al5 O29 1.793495 1_555
Al5 O27 1.816925 1_555
Al5 O63 1.845808 1_555
Al5 O64 1.914597 1_555
Al5 O65 2.243146 1_555
Al5 O28 2.293436 1_555
O0 S0 1.453759 1_555
O1 Si0 1.620474 1_555
O2 Si1 1.602228 1_555
O3 Si2 1.620474 1_555
O4 S1 1.453759 1_555
O5 Si3 1.602228 1_555
O6 Si3 1.675196 1_565
O7 Si2 1.669666 1_555
O8 S1 1.509456 1_455
O9 Si0 1.669666 1_555
O10 Si1 1.675196 1_455
O11 S0 1.509456 1_565
O12 S2 1.453759 1_555
O13 Si4 1.620474 1_555
O14 Si5 1.602228 1_555
O15 Si6 1.620474 1_555
O16 S3 1.453759 1_555
O17 Si7 1.602228 1_555
O18 Si7 1.675196 1_555
O19 Si6 1.669666 1_555
O20 S3 1.509456 1_555
O21 Si4 1.669666 1_555
O22 Si5 1.675196 1_555
O23 S2 1.509456 1_555
O24 S4 1.453759 1_555
O25 Si8 1.620474 1_555
O26 Si9 1.602228 1_555
O27 Si10 1.620474 1_555
O28 S5 1.453759 1_555
O29 Si11 1.602228 1_555
O30 Si11 1.675196 1_555
O31 Si10 1.669666 1_555
O32 S5 1.509456 1_555
O33 Si8 1.669666 1_555
O34 Si9 1.675196 1_555
O35 S4 1.509456 1_555
O36 Si11 1.630459 1_555
O37 Si10 1.625219 1_555
O38 S5 1.453879 1_555
O39 Si8 1.625219 1_555
O40 Si9 1.630459 1_555
O41 S4 1.453879 1_555
O42 S2 1.528376 1_555
O43 Si4 1.649227 1_555
O44 Si5 1.690799 1_555
O45 Si6 1.649227 1_555
O46 S3 1.528376 1_555
O47 Si7 1.690799 1_555
O48 Si3 1.630459 1_555
O49 Si2 1.625219 1_555
O50 S1 1.453879 1_555
O51 Si0 1.625219 1_555
O52 Si1 1.630459 1_555
O53 S0 1.453879 1_555
O54 S4 1.528390 1_555
O55 Si8 1.649212 1_655
O56 Si9 1.690795 1_545
O57 Si10 1.649212 1_545
O58 S5 1.528390 1_555
O59 Si11 1.690795 1_655
O60 Si7 1.630471 1_555
O61 Si6 1.625204 1_455
O62 S3 1.453874 1_565
O63 Si4 1.625204 1_565
O64 Si5 1.630471 1_555
O65 S2 1.453874 1_455
O66 S0 1.528376 1_565
O67 Si0 1.649227 1_555
O68 Si1 1.690799 1_455
O69 Si2 1.649227 1_555
O70 S1 1.528376 1_455
O71 Si3 1.690799 1_565
