# generated using pymatgen
data_Na5LaNb3Si5PO24
_symmetry_space_group_name_H-M   'P 1'
_cell_length_a   9.17376354
_cell_length_b   9.20393159
_cell_length_c   22.85159377
_cell_angle_alpha   90.01695553
_cell_angle_beta   90.02454103
_cell_angle_gamma   119.90545451
_symmetry_Int_Tables_number   1
_chemical_formula_structural   Na5LaNb3Si5PO24
_chemical_formula_sum   'Na15 La3 Nb9 Si15 P3 O72'
_cell_volume   1672.55690233
_cell_formula_units_Z   3
loop_
 _symmetry_equiv_pos_site_id
 _symmetry_equiv_pos_as_xyz
  1  'x, y, z'
loop_
 _atom_site_type_symbol
 _atom_site_label
 _atom_site_symmetry_multiplicity
 _atom_site_fract_x
 _atom_site_fract_y
 _atom_site_fract_z
 _atom_site_occupancy
  Na  Na0  1  0.99353001  0.63425592  0.24343821  1
  Na  Na1  1  0.62985272  0.62250297  0.74871466  1
  Na  Na2  1  0.99239177  0.36879084  0.74833037  1
  Na  Na3  1  0.37505332  0.00759028  0.75058430  1
  Na  Na4  1  0.31706309  0.97178908  0.08218989  1
  Na  Na5  1  0.65983166  0.68641139  0.08326167  1
  Na  Na6  1  0.96746068  0.29305845  0.41654435  1
  Na  Na7  1  0.32462886  0.03309821  0.41519653  1
  Na  Na8  1  0.70641660  0.67509655  0.41689251  1
  Na  Na9  1  0.00090659  0.99983843  0.50374138  1
  Na  Na10  1  0.99883299  0.00824692  0.99593381  1
  Na  Na11  1  0.66604936  0.33397011  0.83513938  1
  Na  Na12  1  0.64832462  0.31688746  0.32564900  1
  Na  Na13  1  0.33266511  0.65562497  0.16580338  1
  Na  Na14  1  0.33172109  0.66171302  0.66475537  1
  La  La0  1  0.00273159  0.00472475  0.34953160  1
  La  La1  1  0.66786189  0.33645076  0.67909396  1
  La  La2  1  0.65995650  0.32272582  0.17488585  1
  Nb  Nb0  1  0.00032221  0.99928555  0.85800241  1
  Nb  Nb1  1  0.99461215  0.99919118  0.64621013  1
  Nb  Nb2  1  0.00554151  0.00443599  0.14589017  1
  Nb  Nb3  1  0.66698458  0.33165026  0.97825264  1
  Nb  Nb4  1  0.67165532  0.33657716  0.48413211  1
  Nb  Nb5  1  0.32904780  0.66313026  0.01395382  1
  Nb  Nb6  1  0.33369333  0.66409688  0.52103371  1
  Nb  Nb7  1  0.33750878  0.67084942  0.31295442  1
  Nb  Nb8  1  0.33258677  0.66567625  0.81563386  1
  Si  Si0  1  0.30248697  0.99416433  0.25214386  1
  Si  Si1  1  0.27817767  0.28705739  0.75261361  1
  Si  Si2  1  0.00960175  0.72178781  0.75233958  1
  Si  Si3  1  0.71029013  0.99056022  0.75333233  1
  Si  Si4  1  0.97218767  0.33113813  0.58427178  1
  Si  Si5  1  0.66994183  0.64083790  0.58414692  1
  Si  Si6  1  0.96881953  0.63218860  0.08278452  1
  Si  Si7  1  0.66540242  0.02962737  0.07895771  1
  Si  Si8  1  0.36679109  0.33756547  0.07983025  1
  Si  Si9  1  0.62507047  0.66353262  0.91620566  1
  Si  Si10  1  0.03789789  0.37399708  0.91516846  1
  Si  Si11  1  0.33720697  0.96190272  0.91596535  1
  Si  Si12  1  0.61307198  0.95944922  0.41939106  1
  Si  Si13  1  0.34551273  0.38708653  0.41853904  1
  Si  Si14  1  0.04174688  0.65526156  0.41822557  1
  P  P0  1  0.69581541  0.70426944  0.24951550  1
  P  P1  1  0.01219530  0.30743591  0.25035466  1
  P  P2  1  0.36135969  0.02978624  0.58153670  1
  O  O0  1  0.22558841  0.00422747  0.31411896  1
  O  O1  1  0.78551513  0.77421009  0.30789016  1
  O  O2  1  0.98735553  0.22219436  0.30944246  1
  O  O3  1  0.17851731  0.16931498  0.80863513  1
  O  O4  1  0.99097054  0.82142077  0.80841241  1
  O  O5  1  0.83040621  0.01034189  0.80852186  1
  O  O6  1  0.80618834  0.96915312  0.69386082  1
  O  O7  1  0.16112222  0.19205526  0.69382702  1
  O  O8  1  0.03220570  0.83938479  0.69376205  1
  O  O9  1  0.79783933  0.82395588  0.19662816  1
  O  O10  1  0.01961876  0.19461255  0.19905470  1
  O  O11  1  0.16794302  0.97647590  0.19618013  1
  O  O12  1  0.91589176  0.37194566  0.64531697  1
  O  O13  1  0.45469914  0.08497409  0.63940196  1
  O  O14  1  0.62527105  0.54382591  0.64523357  1
  O  O15  1  0.92050585  0.54593342  0.14531049  1
  O  O16  1  0.59311658  0.07254375  0.13560952  1
  O  O17  1  0.47893142  0.40120822  0.13737459  1
  O  O18  1  0.46601243  0.29515401  0.02785512  1
  O  O19  1  0.82625772  0.52626052  0.03160529  1
  O  O20  1  0.69584976  0.16617461  0.02648691  1
  O  O21  1  0.46821527  0.15647254  0.53054647  1
  O  O22  1  0.68943693  0.52400617  0.52974838  1
  O  O23  1  0.83522105  0.30760632  0.52943276  1
  O  O24  1  0.52867283  0.68817028  0.97156540  1
  O  O25  1  0.16272635  0.47680874  0.96914709  1
  O  O26  1  0.31324848  0.84346621  0.97207113  1
  O  O27  1  0.51064998  0.83784577  0.47243355  1
  O  O28  1  0.32795678  0.48944768  0.47284049  1
  O  O29  1  0.16403985  0.67526291  0.47154862  1
  O  O30  1  0.13226823  0.63017332  0.35784061  1
  O  O31  1  0.49534412  0.86177793  0.35946862  1
  O  O32  1  0.36748730  0.50528105  0.35990167  1
  O  O33  1  0.13380197  0.49485518  0.85710712  1
  O  O34  1  0.36029281  0.86338816  0.85819374  1
  O  O35  1  0.50293029  0.63889839  0.85822314  1
  O  O36  1  0.01229191  0.81331321  0.41983256  1
  O  O37  1  0.79821529  0.98230206  0.42022759  1
  O  O38  1  0.18128623  0.20385854  0.42096908  1
  O  O39  1  0.02034981  0.18942601  0.91016019  1
  O  O40  1  0.16938774  0.98003863  0.90988475  1
  O  O41  1  0.81045080  0.83090408  0.90975161  1
  O  O42  1  0.98118090  0.15796722  0.58753075  1
  O  O43  1  0.19038363  0.02365212  0.58426541  1
  O  O44  1  0.84618832  0.82021233  0.58762482  1
  O  O45  1  0.97866665  0.82133898  0.09018414  1
  O  O46  1  0.83598436  0.01370668  0.09076069  1
  O  O47  1  0.18452847  0.15944914  0.09148503  1
  O  O48  1  0.68811307  0.15327414  0.75204568  1
  O  O49  1  0.46268435  0.30599971  0.75242860  1
  O  O50  1  0.84530687  0.53735722  0.75246679  1
  O  O51  1  0.68366599  0.53598117  0.24404717  1
  O  O52  1  0.87001290  0.34442652  0.24429841  1
  O  O53  1  0.48621810  0.14992627  0.24820596  1
  O  O54  1  0.64079007  0.49481721  0.92509597  1
  O  O55  1  0.85491671  0.36163892  0.92458802  1
  O  O56  1  0.50643048  0.14663767  0.92367676  1
  O  O57  1  0.62297916  0.14338208  0.42454922  1
  O  O58  1  0.51762367  0.37295740  0.42474865  1
  O  O59  1  0.85579159  0.48007011  0.42515258  1
  O  O60  1  0.33587533  0.49371911  0.06569862  1
  O  O61  1  0.16140617  0.67493118  0.06871526  1
  O  O62  1  0.51077839  0.83855677  0.06570748  1
  O  O63  1  0.33758484  0.85505746  0.56919075  1
  O  O64  1  0.51173360  0.66893909  0.56998782  1
  O  O65  1  0.15500864  0.49354150  0.57018425  1
  O  O66  1  0.29367515  0.80692053  0.25330813  1
  O  O67  1  0.52130069  0.69659260  0.25267603  1
  O  O68  1  0.18324684  0.47743160  0.25141639  1
  O  O69  1  0.29261922  0.47415501  0.75686187  1
  O  O70  1  0.18327493  0.70820255  0.75661508  1
  O  O71  1  0.52517637  0.81653687  0.75665576  1
loop_
_geom_bond_atom_site_label_1
_geom_bond_atom_site_label_2
_geom_bond_distance
_geom_bond_site_symmetry_2
Na0 O52 2.320839 1_555
Na0 O15 2.364839 1_555
Na0 O66 2.407060 1_655
Na0 O51 2.516948 1_555
Na0 O68 2.765956 1_655
Na0 O30 2.915587 1_655
Na0 O11 2.936929 1_655
Na1 O71 2.419586 1_555
Na1 O50 2.464259 1_555
Na1 O14 2.467091 1_555
Na1 O49 2.527977 1_555
Na1 O69 2.694170 1_555
Na1 O35 2.796103 1_555
Na2 O69 2.429049 1_655
Na2 O12 2.460429 1_555
Na2 O48 2.492556 1_555
Na2 O50 2.514786 1_555
Na2 O70 2.721359 1_655
Na2 O33 2.775358 1_655
Na3 O70 2.423560 1_545
Na3 O49 2.447402 1_555
Na3 O48 2.491400 1_555
Na3 O13 2.641971 1_555
Na3 O71 2.724482 1_545
Na3 O34 2.765826 1_545
Na4 O61 2.389111 1_555
Na4 O16 2.533453 1_565
Na4 O47 2.569174 1_565
Na4 O62 2.641385 1_555
Na4 O45 2.702253 1_455
Na4 O26 2.772243 1_554
Na4 O18 2.866215 1_565
Na4 O11 2.953029 1_555
Na5 O62 2.429148 1_555
Na5 O45 2.549493 1_555
Na5 O17 2.614116 1_555
Na5 O46 2.619299 1_565
Na5 O60 2.623269 1_555
Na5 O24 2.824846 1_554
Na5 O19 2.853360 1_555
Na5 O9 2.883370 1_555
Na6 O59 2.410194 1_555
Na6 O38 2.477454 1_655
Na6 O37 2.484054 1_545
Na6 O2 2.562587 1_555
Na6 O57 2.752756 1_555
Na6 O23 2.882503 1_555
Na7 O57 2.407546 1_555
Na7 O0 2.447103 1_555
Na7 O38 2.505510 1_555
Na7 O36 2.556177 1_545
Na7 O58 2.728343 1_555
Na7 O21 2.911430 1_555
Na8 O36 2.436592 1_655
Na8 O58 2.441948 1_555
Na8 O37 2.516989 1_555
Na8 O1 2.627931 1_555
Na8 O59 2.754669 1_555
Na8 O22 2.897497 1_555
Na8 O32 2.992653 1_555
Na9 O43 2.464254 1_565
Na9 O42 2.465436 1_465
Na9 O44 2.467101 1_455
Na9 O38 2.597766 1_565
Na9 O36 2.609948 1_555
Na9 O37 2.612120 1_455
Na10 O39 2.517065 1_655
Na10 O41 2.590715 1_545
Na10 O40 2.605653 1_645
Na10 O46 2.647184 1_556
Na10 O47 2.690249 1_656
Na10 O45 2.705094 1_546
Na11 O49 2.576234 1_555
Na11 O56 2.587959 1_555
Na11 O50 2.590901 1_555
Na11 O48 2.597416 1_555
Na11 O55 2.607996 1_555
Na11 O54 2.609930 1_555
Na12 O53 2.328567 1_555
Na12 O51 2.645664 1_555
Na12 O52 2.673126 1_555
Na12 O57 2.710040 1_555
Na12 O58 2.729643 1_555
Na12 O59 2.862217 1_555
Na13 O68 2.481684 1_555
Na13 O67 2.534503 1_555
Na13 O66 2.561474 1_555
Na13 O60 2.737914 1_555
Na13 O61 2.774488 1_555
Na13 O62 2.828232 1_555
Na14 O69 2.631372 1_555
Na14 O70 2.650841 1_555
Na14 O71 2.657784 1_555
Na14 O65 2.680886 1_555
Na14 O64 2.704613 1_555
Na14 O63 2.800994 1_555
La0 O0 2.201215 1_555
La0 O2 2.268908 1_455
La0 O1 2.271380 1_445
La0 O38 2.389472 1_555
La0 O37 2.406086 1_445
La0 O36 2.418232 1_545
La1 O14 2.266851 1_555
La1 O12 2.267206 1_555
La1 O13 2.342641 1_555
La1 O50 2.423791 1_555
La1 O49 2.430374 1_555
La1 O48 2.443305 1_555
La2 O16 2.252595 1_555
La2 O17 2.282483 1_555
La2 O53 2.313710 1_555
La2 O15 2.344404 1_555
La2 O52 2.425418 1_555
La2 O51 2.443323 1_555
Nb0 O4 1.957103 1_455
Nb0 O3 1.961046 1_565
Nb0 O5 1.968590 1_465
Nb0 O40 2.028553 1_555
Nb0 O41 2.036009 1_455
Nb0 O39 2.048160 1_565
Nb1 O6 1.943012 1_555
Nb1 O7 1.990481 1_665
Nb1 O8 1.992371 1_655
Nb1 O44 2.029891 1_555
Nb1 O42 2.032090 1_565
Nb1 O43 2.208866 1_665
Nb2 O47 1.985990 1_555
Nb2 O11 1.996875 1_545
Nb2 O45 2.026167 1_445
Nb2 O46 2.035831 1_455
Nb2 O10 2.080782 1_555
Nb2 O9 2.140373 1_445
Nb3 O20 2.001882 1_556
Nb3 O55 2.019874 1_555
Nb3 O56 2.029948 1_555
Nb3 O54 2.036981 1_555
Nb3 O18 2.044811 1_556
Nb3 O19 2.053577 1_556
Nb4 O23 1.947320 1_555
Nb4 O22 1.951236 1_555
Nb4 O59 2.047596 1_555
Nb4 O21 2.067318 1_555
Nb4 O58 2.102550 1_555
Nb4 O57 2.102709 1_555
Nb5 O25 1.925049 1_554
Nb5 O24 1.981387 1_554
Nb5 O60 1.982872 1_555
Nb5 O26 1.983094 1_554
Nb5 O62 2.024381 1_555
Nb5 O61 2.027571 1_555
Nb6 O28 1.927197 1_555
Nb6 O27 1.959604 1_555
Nb6 O64 1.961356 1_555
Nb6 O65 1.962016 1_555
Nb6 O29 1.967133 1_555
Nb6 O63 2.058560 1_555
Nb7 O31 1.942889 1_555
Nb7 O32 1.991832 1_555
Nb7 O30 2.009057 1_555
Nb7 O66 2.022546 1_555
Nb7 O67 2.097658 1_555
Nb7 O68 2.152689 1_555
Nb8 O35 1.957757 1_555
Nb8 O33 1.959353 1_555
Nb8 O34 1.964543 1_555
Nb8 O70 2.093244 1_555
Nb8 O69 2.097418 1_555
Nb8 O71 2.103054 1_555
O0 Si0 1.605576 1_545
O1 P0 1.530134 1_555
O2 P1 1.520939 1_655
O3 Si1 1.631872 1_555
O4 Si2 1.633332 1_655
O5 Si3 1.623742 1_545
O6 Si3 1.683275 1_555
O7 Si1 1.668570 1_555
O8 Si2 1.668416 1_555
O9 P0 1.588641 1_555
O10 P1 1.589675 1_555
O11 Si0 1.727304 1_555
O12 Si4 1.596082 1_555
O13 P2 1.518111 1_555
O14 Si5 1.596926 1_555
O15 Si6 1.587002 1_555
O16 Si7 1.591647 1_555
O17 Si8 1.590006 1_555
O18 Si8 1.657260 1_555
O19 Si6 1.659919 1_555
O20 Si7 1.657208 1_555
O21 P2 1.593821 1_555
O22 Si5 1.710182 1_555
O23 Si4 1.709748 1_555
O24 Si9 1.623139 1_555
O25 Si10 1.626618 1_555
O26 Si11 1.625591 1_555
O27 Si12 1.599336 1_555
O28 Si13 1.613718 1_555
O29 Si14 1.603141 1_555
O30 Si14 1.684939 1_555
O31 Si12 1.696906 1_555
O32 Si13 1.673909 1_555
O33 Si10 1.672665 1_555
O34 Si11 1.673578 1_555
O35 Si9 1.675628 1_555
O36 Si14 1.606996 1_555
O37 Si12 1.604095 1_555
O38 Si13 1.607338 1_555
O39 Si10 1.628510 1_555
O40 Si11 1.635057 1_555
O41 Si9 1.635552 1_555
O42 Si4 1.638263 1_555
O43 P2 1.542412 1_555
O44 Si5 1.638369 1_555
O45 Si6 1.706041 1_555
O46 Si7 1.664745 1_555
O47 Si8 1.679750 1_555
O48 Si3 1.609011 1_545
O49 Si1 1.612802 1_555
O50 Si2 1.613070 1_655
O51 P0 1.501633 1_555
O52 P1 1.509659 1_655
O53 Si0 1.579569 1_545
O54 Si9 1.642209 1_555
O55 Si10 1.639205 1_655
O56 Si11 1.643049 1_545
O57 Si12 1.653643 1_545
O58 Si13 1.653646 1_555
O59 Si14 1.671147 1_655
O60 Si8 1.630028 1_555
O61 Si6 1.639215 1_455
O62 Si7 1.645709 1_565
O63 P2 1.537326 1_565
O64 Si5 1.628497 1_555
O65 Si4 1.628420 1_455
O66 Si0 1.684753 1_555
O67 P0 1.568623 1_555
O68 P1 1.569321 1_555
O69 Si1 1.662762 1_555
O70 Si2 1.661957 1_555
O71 Si3 1.656209 1_555
