# generated using pymatgen
data_VAsRh
_symmetry_space_group_name_H-M   'P 1'
_cell_length_a   3.90609910
_cell_length_b   6.11944637
_cell_length_c   7.30921004
_cell_angle_alpha   89.99494697
_cell_angle_beta   90.00000000
_cell_angle_gamma   90.00000000
_symmetry_Int_Tables_number   1
_chemical_formula_structural   VAsRh
_chemical_formula_sum   'V4 As4 Rh4'
_cell_volume   174.71324513
_cell_formula_units_Z   4
loop_
 _symmetry_equiv_pos_site_id
 _symmetry_equiv_pos_as_xyz
  1  'x, y, z'
loop_
 _atom_site_type_symbol
 _atom_site_label
 _atom_site_symmetry_multiplicity
 _atom_site_fract_x
 _atom_site_fract_y
 _atom_site_fract_z
 _atom_site_occupancy
  V  V0  1  0.25000000  0.46807060  0.81745531  1
  V  V1  1  0.25000000  0.96806453  0.68255828  1
  V  V2  1  0.75000000  0.53192940  0.18254469  1
  V  V3  1  0.75000000  0.03193547  0.31744172  1
  As  As0  1  0.75000000  0.24607811  0.61920654  1
  As  As1  1  0.25000000  0.25389481  0.11924498  1
  As  As2  1  0.75000000  0.74610519  0.88075502  1
  As  As3  1  0.25000000  0.75392189  0.38079346  1
  Rh  Rh0  1  0.25000000  0.34922488  0.43796030  1
  Rh  Rh1  1  0.25000000  0.84926791  0.06205231  1
  Rh  Rh2  1  0.75000000  0.15073209  0.93794769  1
  Rh  Rh3  1  0.75000000  0.65077512  0.56203970  1
loop_
_geom_bond_atom_site_label_1
_geom_bond_atom_site_label_2
_geom_bond_distance
_geom_bond_site_symmetry_2
As0 Rh2 2.401647 1_555
As0 Rh0 2.442883 1_555
As0 Rh0 2.442883 1_655
As0 Rh3 2.511488 1_555
As0 V3 2.565676 1_555
As0 V1 2.631172 1_545
As0 V1 2.631172 1_645
As0 V0 2.785663 1_655
As0 V0 2.785663 1_555
As1 Rh0 2.401540 1_555
As1 Rh2 2.443171 1_454
As1 Rh2 2.443171 1_554
As1 Rh1 2.511169 1_545
As1 V0 2.565737 1_554
As1 V2 2.631241 1_555
As1 V2 2.631241 1_455
As1 V3 2.785241 1_455
As1 V3 2.785241 1_555
As2 Rh3 2.401540 1_555
As2 Rh1 2.443171 1_656
As2 Rh1 2.443171 1_556
As2 Rh2 2.511169 1_565
As2 V2 2.565737 1_556
As2 V0 2.631241 1_655
As2 V0 2.631241 1_555
As2 V1 2.785241 1_555
As2 V1 2.785241 1_655
As3 Rh1 2.401647 1_555
As3 Rh3 2.442883 1_455
As3 Rh3 2.442883 1_555
As3 Rh0 2.511488 1_555
As3 V1 2.565676 1_555
As3 V3 2.631172 1_565
As3 V3 2.631172 1_465
As3 V2 2.785663 1_455
As3 V2 2.785663 1_555
Rh0 V0 2.867628 1_555
Rh0 V3 2.891475 1_555
Rh0 V3 2.891475 1_455
Rh0 V2 2.923925 1_555
Rh0 V2 2.923925 1_455
Rh0 V1 2.938719 1_545
Rh1 V1 2.867421 1_554
Rh1 V2 2.891514 1_555
Rh1 V2 2.891514 1_455
Rh1 V3 2.923842 1_565
Rh1 V3 2.923842 1_465
Rh1 V0 2.939144 1_554
Rh2 V3 2.867421 1_556
Rh2 V0 2.891514 1_555
Rh2 V0 2.891514 1_655
Rh2 V1 2.923842 1_545
Rh2 V1 2.923842 1_645
Rh2 V2 2.939144 1_556
Rh3 V2 2.867628 1_555
Rh3 V1 2.891475 1_655
Rh3 V1 2.891475 1_555
Rh3 V0 2.923925 1_655
Rh3 V0 2.923925 1_555
Rh3 V3 2.938719 1_565
