# generated using pymatgen
data_V3Sn
_symmetry_space_group_name_H-M   'P 1'
_cell_length_a   5.72160057
_cell_length_b   5.71907111
_cell_length_c   4.53117701
_cell_angle_alpha   90.00000000
_cell_angle_beta   90.00000000
_cell_angle_gamma   121.51187832
_symmetry_Int_Tables_number   1
_chemical_formula_structural   V3Sn
_chemical_formula_sum   'V6 Sn2'
_cell_volume   126.40511857
_cell_formula_units_Z   2
loop_
 _symmetry_equiv_pos_site_id
 _symmetry_equiv_pos_as_xyz
  1  'x, y, z'
loop_
 _atom_site_type_symbol
 _atom_site_label
 _atom_site_symmetry_multiplicity
 _atom_site_fract_x
 _atom_site_fract_y
 _atom_site_fract_z
 _atom_site_occupancy
  V  V0  1  0.14541078  0.28949223  0.75000000  1
  V  V1  1  0.83606247  0.16401764  0.25000000  1
  V  V2  1  0.85459435  0.71050445  0.25000000  1
  V  V3  1  0.16391406  0.83596385  0.75000000  1
  V  V4  1  0.70997436  0.85432065  0.75000000  1
  V  V5  1  0.29001616  0.14566798  0.25000000  1
  Sn  Sn0  1  0.66615725  0.33386931  0.75000000  1
  Sn  Sn1  1  0.33387256  0.66616487  0.25000000  1
loop_
_geom_bond_atom_site_label_1
_geom_bond_atom_site_label_2
_geom_bond_distance
_geom_bond_site_symmetry_2
V0 V4 2.432968 1_445
V0 V3 2.650633 1_545
V0 V5 2.684292 1_556
V0 V5 2.684292 1_555
V0 V1 2.729999 1_455
V0 V1 2.729999 1_456
V0 V3 3.071302 1_555
V0 V4 3.156154 1_555
V1 V2 2.650636 1_545
V1 V5 2.653701 1_655
V1 V4 2.730330 1_545
V1 V4 2.730330 1_544
V1 V5 3.070711 1_555
V1 V2 3.071307 1_555
V2 V5 2.432904 1_665
V2 V4 2.684310 1_554
V2 V4 2.684310 1_555
V2 V3 2.729922 1_654
V2 V3 2.729922 1_655
V2 V5 3.156217 1_555
V3 V4 2.653644 1_455
V3 V5 2.730344 1_565
V3 V5 2.730344 1_566
V3 V4 3.070771 1_555
Sn0 V3 2.794218 1_655
Sn0 V3 2.795071 1_545
Sn0 V1 2.829961 1_556
Sn0 V1 2.829961 1_555
Sn0 V4 2.853477 1_555
Sn0 V0 2.855061 1_555
Sn0 V4 2.881547 1_545
Sn0 V0 2.882881 1_655
Sn0 V5 2.915748 1_556
Sn0 V5 2.915748 1_555
Sn0 V2 2.916739 1_555
Sn0 V2 2.916739 1_556
Sn1 V1 2.794514 1_455
Sn1 V1 2.794775 1_565
Sn1 V3 2.829963 1_555
Sn1 V3 2.829963 1_554
Sn1 V5 2.853634 1_555
Sn1 V2 2.855018 1_555
Sn1 V5 2.881419 1_565
Sn1 V2 2.882896 1_455
Sn1 V4 2.915630 1_555
Sn1 V4 2.915630 1_554
Sn1 V0 2.916854 1_555
Sn1 V0 2.916854 1_554
