# generated using pymatgen
data_MgMn6(OF)6
_symmetry_space_group_name_H-M   'P 1'
_cell_length_a   5.27664373
_cell_length_b   14.62573339
_cell_length_c   3.06999424
_cell_angle_alpha   89.97230497
_cell_angle_beta   90.03182896
_cell_angle_gamma   98.78061336
_symmetry_Int_Tables_number   1
_chemical_formula_structural   MgMn6(OF)6
_chemical_formula_sum   'Mg1 Mn6 O6 F6'
_cell_volume   234.14933501
_cell_formula_units_Z   1
loop_
 _symmetry_equiv_pos_site_id
 _symmetry_equiv_pos_as_xyz
  1  'x, y, z'
loop_
 _atom_site_type_symbol
 _atom_site_label
 _atom_site_symmetry_multiplicity
 _atom_site_fract_x
 _atom_site_fract_y
 _atom_site_fract_z
 _atom_site_occupancy
  Mg  Mg0  1  0.58099862  0.00645202  0.01265825  1
  Mn  Mn0  1  0.09626241  0.97960102  0.01198637  1
  Mn  Mn1  1  0.99172847  0.34448966  0.01019015  1
  Mn  Mn2  1  0.94919313  0.65995634  0.00974127  1
  Mn  Mn3  1  0.48868215  0.19462653  0.51122999  1
  Mn  Mn4  1  0.48086072  0.49934945  0.50976998  1
  Mn  Mn5  1  0.44590773  0.80697193  0.51106538  1
  O  O0  1  0.33926157  0.94483623  0.51215210  1
  O  O1  1  0.36551080  0.10954000  0.01154570  1
  O  O2  1  0.23958418  0.75744926  0.01078877  1
  O  O3  1  0.30238262  0.43302970  0.00967745  1
  O  O4  1  0.68267239  0.25288915  0.01108185  1
  O  O5  1  0.64667854  0.56927641  0.00976182  1
  F  F0  1  0.15390047  0.27107268  0.50999262  1
  F  F1  1  0.11636455  0.59930518  0.50722114  1
  F  F2  1  0.73523016  0.88890545  0.01313878  1
  F  F3  1  0.83639368  0.04384300  0.51288219  1
  F  F4  1  0.83034956  0.40968416  0.51025662  1
  F  F5  1  0.77359425  0.72872083  0.51319256  1
loop_
_geom_bond_atom_site_label_1
_geom_bond_atom_site_label_2
_geom_bond_distance
_geom_bond_site_symmetry_2
Mg0 O1 2.022268 1_555
Mg0 O0 2.107252 1_545
Mg0 O0 2.109117 1_544
Mn0 O0 2.111043 1_555
Mn0 O0 2.111696 1_554
Mn0 O1 2.192228 1_565
Mn1 O3 1.927660 1_655
Mn1 O4 1.946095 1_555
Mn2 O5 1.913289 1_555
Mn2 O2 1.927193 1_655
Mn3 O4 1.965187 1_556
Mn3 O4 1.966142 1_555
Mn3 O1 2.019436 1_555
Mn3 O1 2.020543 1_556
Mn4 O5 1.973450 1_556
Mn4 O5 1.973476 1_555
Mn4 O3 1.975954 1_556
Mn4 O3 1.976311 1_555
Mn5 O2 1.955383 1_556
Mn5 O2 1.956316 1_555
Mn5 O0 2.174590 1_555
F0 Mn1 2.125346 1_455
F0 Mn1 2.127657 1_456
F0 Mn3 2.230184 1_555
F1 Mn2 2.033128 1_455
F1 Mn2 2.046156 1_456
F1 Mn4 2.587439 1_555
F2 Mg0 2.011252 1_565
F2 Mn0 2.148780 1_655
F2 Mn5 2.354927 1_555
F2 Mn5 2.362861 1_554
F3 Mg0 2.060524 1_556
F3 Mg0 2.060827 1_555
F3 Mn0 2.345317 1_646
F3 Mn0 2.350503 1_645
F4 Mn1 2.057895 1_556
F4 Mn1 2.059592 1_555
F4 Mn4 2.420534 1_555
F5 Mn2 2.115488 1_556
F5 Mn2 2.132250 1_555
F5 Mn5 2.214443 1_555
