# generated using pymatgen
data_As2PbO6
_symmetry_space_group_name_H-M   'P 1'
_cell_length_a   4.89408167
_cell_length_b   4.89408145
_cell_length_c   5.51676445
_cell_angle_alpha   90.00000000
_cell_angle_beta   90.00000000
_cell_angle_gamma   120.00000144
_symmetry_Int_Tables_number   1
_chemical_formula_structural   As2PbO6
_chemical_formula_sum   'As2 Pb1 O6'
_cell_volume   114.43463048
_cell_formula_units_Z   1
loop_
 _symmetry_equiv_pos_site_id
 _symmetry_equiv_pos_as_xyz
  1  'x, y, z'
loop_
 _atom_site_type_symbol
 _atom_site_label
 _atom_site_symmetry_multiplicity
 _atom_site_fract_x
 _atom_site_fract_y
 _atom_site_fract_z
 _atom_site_occupancy
  As  As0  1  0.66666700  0.33333300  0.50000000  1
  As  As1  1  0.33333300  0.66666700  0.50000000  1
  Pb  Pb0  1  0.00000000  -0.00000000  -0.00000000  1
  O  O0  1  0.38425550  0.38425550  0.68791971  1
  O  O1  1  0.61574450  -0.00000000  0.68791971  1
  O  O2  1  -0.00000000  0.61574450  0.68791971  1
  O  O3  1  0.38425550  -0.00000000  0.31208029  1
  O  O4  1  0.00000000  0.38425550  0.31208029  1
  O  O5  1  0.61574450  0.61574450  0.31208029  1
loop_
_geom_bond_atom_site_label_1
_geom_bond_atom_site_label_2
_geom_bond_distance
_geom_bond_site_symmetry_2
As0 O1 1.841641 1_555
As0 O4 1.841641 1_655
As0 O3 1.841642 1_555
As0 O2 1.841642 1_655
As0 O5 1.841645 1_555
As0 O0 1.841645 1_555
As1 O3 1.841641 1_565
As1 O2 1.841641 1_555
As1 O1 1.841642 1_565
As1 O4 1.841642 1_555
As1 O0 1.841645 1_555
As1 O5 1.841645 1_555
O0 Pb0 2.549653 1_556
O1 Pb0 2.549653 1_656
O2 Pb0 2.549653 1_566
O3 Pb0 2.549653 1_555
O4 Pb0 2.549653 1_555
O5 Pb0 2.549653 1_665
