# generated using pymatgen
data_MgBe2(CoO2)4
_symmetry_space_group_name_H-M   'P 1'
_cell_length_a   5.66222402
_cell_length_b   6.05499644
_cell_length_c   5.56898492
_cell_angle_alpha   62.62148067
_cell_angle_beta   90.00000000
_cell_angle_gamma   117.87643251
_symmetry_Int_Tables_number   1
_chemical_formula_structural   MgBe2(CoO2)4
_chemical_formula_sum   'Mg1 Be2 Co4 O8'
_cell_volume   144.13781063
_cell_formula_units_Z   1
loop_
 _symmetry_equiv_pos_site_id
 _symmetry_equiv_pos_as_xyz
  1  'x, y, z'
loop_
 _atom_site_type_symbol
 _atom_site_label
 _atom_site_symmetry_multiplicity
 _atom_site_fract_x
 _atom_site_fract_y
 _atom_site_fract_z
 _atom_site_occupancy
  Mg  Mg0  1  0.22114800  0.44229800  0.77885200  1
  Be  Be0  1  0.95936500  0.91873000  0.04063500  1
  Be  Be1  1  0.28623100  0.57246200  0.21376900  1
  Co  Co0  1  0.62776800  0.25553500  0.11168100  1
  Co  Co1  1  0.62776800  0.25553500  0.63278400  1
  Co  Co2  1  0.72265200  0.90752100  0.54623900  1
  Co  Co3  1  0.18487000  0.90752100  0.54623900  1
  O  O0  1  0.92275200  0.31920600  0.34039800  1
  O  O1  1  0.83775500  0.16369600  0.91815100  1
  O  O2  1  0.87980600  0.75961300  0.38509200  1
  O  O3  1  0.39645500  0.31920600  0.34039800  1
  O  O4  1  0.37931900  0.75863500  0.38519600  1
  O  O5  1  0.32594200  0.16369600  0.91815100  1
  O  O6  1  0.87980600  0.75961300  0.85529500  1
  O  O7  1  0.37931900  0.75863500  0.85616900  1
loop_
_geom_bond_atom_site_label_1
_geom_bond_atom_site_label_2
_geom_bond_distance
_geom_bond_site_symmetry_2
Mg0 O1 1.879365 1_455
Mg0 O5 1.879378 1_555
Mg0 O7 1.952099 1_555
Mg0 O4 1.952107 1_555
Be0 O2 1.644771 1_555
Be0 O6 1.644771 1_554
Be0 O1 1.778781 1_564
Be0 O5 1.778786 1_664
Be1 O4 1.701219 1_555
Be1 O7 1.701219 1_554
Be1 O0 1.771636 1_455
Be1 O3 1.771641 1_555
Co0 O1 2.013462 1_554
Co0 O5 2.013462 1_554
Co0 O0 2.100062 1_555
Co0 O3 2.100062 1_555
Co0 O4 2.275634 1_545
Co0 O6 2.304287 1_554
Co1 O5 2.013455 1_555
Co1 O1 2.013455 1_555
Co1 O0 2.100055 1_555
Co1 O3 2.100055 1_555
Co1 O7 2.275634 1_545
Co1 O2 2.304287 1_555
Co2 O0 1.882109 1_565
Co2 O2 1.970709 1_555
Co2 O6 1.970713 1_555
Co2 O4 2.121565 1_555
Co2 O7 2.121568 1_555
Co3 O3 1.882109 1_565
Co3 O2 1.970717 1_455
Co3 O6 1.970721 1_455
Co3 O4 2.121573 1_555
Co3 O7 2.121576 1_555
