# generated using pymatgen
data_KH3F4
_symmetry_space_group_name_H-M   'P 1'
_cell_length_a   5.72979755
_cell_length_b   5.72979763
_cell_length_c   5.72979714
_cell_angle_alpha   80.48559094
_cell_angle_beta   80.48559364
_cell_angle_gamma   80.48559446
_symmetry_Int_Tables_number   1
_chemical_formula_structural   KH3F4
_chemical_formula_sum   'K2 H6 F8'
_cell_volume   181.12267912
_cell_formula_units_Z   2
loop_
 _symmetry_equiv_pos_site_id
 _symmetry_equiv_pos_as_xyz
  1  'x, y, z'
loop_
 _atom_site_type_symbol
 _atom_site_label
 _atom_site_symmetry_multiplicity
 _atom_site_fract_x
 _atom_site_fract_y
 _atom_site_fract_z
 _atom_site_occupancy
  K  K0  1  0.50000000  0.50000000  0.50000000  1
  K  K1  1  0.00000000  -0.00000000  -0.00000000  1
  H  H0  1  0.94030826  0.75000000  0.55969174  1
  H  H1  1  0.75000000  0.55969174  0.94030826  1
  H  H2  1  0.25000000  0.44030826  0.05969174  1
  H  H3  1  0.44030826  0.05969174  0.25000000  1
  H  H4  1  0.55969174  0.94030826  0.75000000  1
  H  H5  1  0.05969174  0.25000000  0.44030826  1
  F  F0  1  0.25000000  0.57339097  0.92660903  1
  F  F1  1  0.42660903  0.07339097  0.75000000  1
  F  F2  1  0.75000000  0.42660903  0.07339097  1
  F  F3  1  0.07339097  0.75000000  0.42660903  1
  F  F4  1  0.75000000  0.75000000  0.75000000  1
  F  F5  1  0.25000000  0.25000000  0.25000000  1
  F  F6  1  0.92660903  0.25000000  0.57339097  1
  F  F7  1  0.57339097  0.92660903  0.25000000  1
loop_
_geom_bond_atom_site_label_1
_geom_bond_atom_site_label_2
_geom_bond_distance
_geom_bond_site_symmetry_2
F0 H2 0.985240 1_556
F0 K0 2.680836 1_555
F0 K1 2.680836 1_566
F1 H4 0.985241 1_545
F1 K0 2.680836 1_555
F1 K1 2.680836 1_556
F2 H1 0.985240 1_554
F2 K0 2.680836 1_555
F2 K1 2.680836 1_655
F3 H0 0.985240 1_455
F3 K1 2.680836 1_565
F3 K0 2.680836 1_555
F4 H1 1.408894 1_555
F4 H0 1.408894 1_555
F4 H4 1.408894 1_555
F4 K0 2.861951 1_555
F4 K1 2.861951 1_666
F5 H2 1.408894 1_555
F5 H5 1.408894 1_555
F5 H3 1.408894 1_555
F5 K1 2.861951 1_555
F5 K0 2.861951 1_555
F6 H5 0.985240 1_655
F6 K1 2.680836 1_656
F6 K0 2.680836 1_555
F7 H3 0.985241 1_565
F7 K0 2.680836 1_555
F7 K1 2.680836 1_665
