# generated using pymatgen
data_K3B12H12I
_symmetry_space_group_name_H-M   'P 1'
_cell_length_a   7.06628335
_cell_length_b   7.06628335
_cell_length_c   7.06628344
_cell_angle_alpha   93.83155968
_cell_angle_beta   93.83155968
_cell_angle_gamma   93.83155785
_symmetry_Int_Tables_number   1
_chemical_formula_structural   K3B12H12I
_chemical_formula_sum   'K3 B12 H12 I1'
_cell_volume   350.35890996
_cell_formula_units_Z   1
loop_
 _symmetry_equiv_pos_site_id
 _symmetry_equiv_pos_as_xyz
  1  'x, y, z'
loop_
 _atom_site_type_symbol
 _atom_site_label
 _atom_site_symmetry_multiplicity
 _atom_site_fract_x
 _atom_site_fract_y
 _atom_site_fract_z
 _atom_site_occupancy
  K  K0  1  0.50000000  0.50000000  0.00000000  1
  K  K1  1  0.00000000  0.50000000  0.50000000  1
  K  K2  1  0.50000000  0.00000000  0.50000000  1
  B  B0  1  0.12092300  0.84200100  0.12092300  1
  B  B1  1  0.87907700  0.15799900  0.87907700  1
  B  B2  1  0.15799900  0.87907700  0.87907700  1
  B  B3  1  0.87907700  0.87907700  0.15799900  1
  B  B4  1  0.06081400  0.06081400  0.23282900  1
  B  B5  1  0.23282900  0.06081400  0.06081400  1
  B  B6  1  0.06081400  0.23282900  0.06081400  1
  B  B7  1  0.93918600  0.76717100  0.93918600  1
  B  B8  1  0.93918600  0.93918600  0.76717100  1
  B  B9  1  0.76717100  0.93918600  0.93918600  1
  B  B10  1  0.12092300  0.12092300  0.84200100  1
  B  B11  1  0.84200100  0.12092300  0.12092300  1
  H  H0  1  0.79225500  0.79225500  0.26977800  1
  H  H1  1  0.26977800  0.79225500  0.79225500  1
  H  H2  1  0.79225500  0.26977800  0.79225500  1
  H  H3  1  0.20774500  0.73022200  0.20774500  1
  H  H4  1  0.89559500  0.89559500  0.60174400  1
  H  H5  1  0.60174400  0.89559500  0.89559500  1
  H  H6  1  0.89559500  0.60174400  0.89559500  1
  H  H7  1  0.10440500  0.39825600  0.10440500  1
  H  H8  1  0.10440500  0.10440500  0.39825600  1
  H  H9  1  0.39825600  0.10440500  0.10440500  1
  H  H10  1  0.20774500  0.20774500  0.73022200  1
  H  H11  1  0.73022200  0.20774500  0.20774500  1
  I  I0  1  0.50000000  0.50000000  0.50000000  1
loop_
_geom_bond_atom_site_label_1
_geom_bond_atom_site_label_2
_geom_bond_distance
_geom_bond_site_symmetry_2
B0 H3 1.206603 1_555
B1 H2 1.206603 1_555
B2 H1 1.206603 1_555
B3 H0 1.206603 1_555
B4 H8 1.203033 1_555
B5 H9 1.203033 1_555
B6 H7 1.203033 1_555
B7 H6 1.203033 1_555
B8 H4 1.203033 1_555
B9 H5 1.203033 1_555
B10 H10 1.206603 1_555
B11 H11 1.206603 1_555
H0 K1 3.098609 1_655
H0 K2 3.098609 1_565
H1 K0 3.098609 1_556
H1 K2 3.098609 1_565
H2 K0 3.098609 1_556
H2 K1 3.098609 1_655
H3 K0 3.098609 1_555
H3 K1 3.098609 1_555
H4 K1 2.992202 1_655
H4 K2 2.992202 1_565
H5 K0 2.992202 1_556
H5 K2 2.992202 1_565
H6 K0 2.992202 1_556
H6 K1 2.992202 1_655
H7 K0 2.992202 1_555
H7 K1 2.992202 1_555
H8 K1 2.992202 1_555
H8 K2 2.992202 1_555
H9 K0 2.992202 1_555
H9 K2 2.992202 1_555
H10 K1 3.098609 1_555
H10 K2 3.098609 1_555
H11 K0 3.098609 1_555
H11 K2 3.098609 1_555
I0 K1 3.533142 1_655
I0 K2 3.533142 1_555
I0 K2 3.533142 1_565
I0 K1 3.533142 1_555
I0 K0 3.533142 1_555
I0 K0 3.533142 1_556
