# generated using pymatgen
data_Na2LaNbSi(PO6)2
_symmetry_space_group_name_H-M   'P 1'
_cell_length_a   9.28298748
_cell_length_b   9.28298714
_cell_length_c   23.00354425
_cell_angle_alpha   90.54180141
_cell_angle_beta   89.45819860
_cell_angle_gamma   119.20465274
_symmetry_Int_Tables_number   1
_chemical_formula_structural   Na2LaNbSi(PO6)2
_chemical_formula_sum   'Na12 La6 Nb6 Si6 P12 O72'
_cell_volume   1730.21444225
_cell_formula_units_Z   6
loop_
 _symmetry_equiv_pos_site_id
 _symmetry_equiv_pos_as_xyz
  1  'x, y, z'
loop_
 _atom_site_type_symbol
 _atom_site_label
 _atom_site_symmetry_multiplicity
 _atom_site_fract_x
 _atom_site_fract_y
 _atom_site_fract_z
 _atom_site_occupancy
  Na  Na0  1  0.97913087  0.64544527  0.23976322  1
  Na  Na1  1  0.35455473  0.02086913  0.73976322  1
  Na  Na2  1  0.64339941  0.97288539  0.58166387  1
  Na  Na3  1  0.02711461  0.35660059  0.08166387  1
  Na  Na4  1  0.00830544  0.69361740  0.91326265  1
  Na  Na5  1  0.30638260  0.99169456  0.41326265  1
  Na  Na6  1  0.98748311  0.97796337  0.50268292  1
  Na  Na7  1  0.02203663  0.01251689  0.00268292  1
  Na  Na8  1  0.67759310  0.31557776  0.83784943  1
  Na  Na9  1  0.68442224  0.32240690  0.33784943  1
  Na  Na10  1  0.36743455  0.70092846  0.17005113  1
  Na  Na11  1  0.29907154  0.63256545  0.67005113  1
  La  La0  1  0.98606885  0.00796452  0.35442021  1
  La  La1  1  0.99203548  0.01393115  0.85442021  1
  La  La2  1  0.67892872  0.34673976  0.68749836  1
  La  La3  1  0.65326024  0.32107128  0.18749836  1
  La  La4  1  0.34455919  0.67769893  0.02086022  1
  La  La5  1  0.32230107  0.65544081  0.52086022  1
  Nb  Nb0  1  0.00172846  0.99731000  0.64873561  1
  Nb  Nb1  1  0.00269000  0.99827154  0.14873561  1
  Nb  Nb2  1  0.65966342  0.33011212  0.98219871  1
  Nb  Nb3  1  0.66988788  0.34033658  0.48219871  1
  Nb  Nb4  1  0.32546023  0.65101554  0.31551100  1
  Nb  Nb5  1  0.34898446  0.67453977  0.81551100  1
  Si  Si0  1  0.02004289  0.31094769  0.24767909  1
  Si  Si1  1  0.68905231  0.97995711  0.74767909  1
  Si  Si2  1  0.36594604  0.05209462  0.58565052  1
  Si  Si3  1  0.94790538  0.63405396  0.08565052  1
  Si  Si4  1  0.35074036  0.97432356  0.91677937  1
  Si  Si5  1  0.02567644  0.64925964  0.41677937  1
  P  P0  1  0.27910044  0.97165189  0.25349793  1
  P  P1  1  0.69579034  0.72378914  0.24784378  1
  P  P2  1  0.27621086  0.30420966  0.74784378  1
  P  P3  1  0.02834811  0.72089956  0.75349793  1
  P  P4  1  0.94899707  0.30069386  0.58155966  1
  P  P5  1  0.69627089  0.64592602  0.58269498  1
  P  P6  1  0.69930614  0.05100293  0.08155966  1
  P  P7  1  0.35407398  0.30372911  0.08269498  1
  P  P8  1  0.61913596  0.63621688  0.91527936  1
  P  P9  1  0.02802725  0.39021739  0.92057174  1
  P  P10  1  0.60978261  0.97197275  0.42057174  1
  P  P11  1  0.36378312  0.38086404  0.41527936  1
  O  O0  1  0.20552932  0.98200618  0.31081300  1
  O  O1  1  0.80269650  0.78493338  0.30118422  1
  O  O2  1  0.99510371  0.21144845  0.30541312  1
  O  O3  1  0.21506662  0.19730350  0.80118422  1
  O  O4  1  0.01799382  0.79447068  0.81081300  1
  O  O5  1  0.78855155  0.00489629  0.80541312  1
  O  O6  1  0.79826864  0.96585888  0.68984878  1
  O  O7  1  0.15477095  0.19700912  0.69495201  1
  O  O8  1  0.03702314  0.84249487  0.70106113  1
  O  O9  1  0.80299088  0.84522905  0.19495201  1
  O  O10  1  0.03414112  0.20173136  0.18984878  1
  O  O11  1  0.15750513  0.96297686  0.20106113  1
  O  O12  1  0.87818476  0.32008799  0.63842161  1
  O  O13  1  0.46378171  0.12956850  0.64442453  1
  O  O14  1  0.66366046  0.55073574  0.63802925  1
  O  O15  1  0.87043150  0.53621829  0.14442453  1
  O  O16  1  0.67991201  0.12181524  0.13842161  1
  O  O17  1  0.44926426  0.33633954  0.13802925  1
  O  O18  1  0.46281608  0.29322731  0.02945661  1
  O  O19  1  0.81826506  0.52087198  0.02889582  1
  O  O20  1  0.70365288  0.16933689  0.02997097  1
  O  O21  1  0.47912802  0.18173494  0.52889582  1
  O  O22  1  0.70677269  0.53718392  0.52945661  1
  O  O23  1  0.83066311  0.29634712  0.52997097  1
  O  O24  1  0.55480872  0.66977232  0.97050918  1
  O  O25  1  0.10752787  0.45753975  0.97893417  1
  O  O26  1  0.30465439  0.85156356  0.96975230  1
  O  O27  1  0.54246025  0.89247213  0.47893417  1
  O  O28  1  0.33022768  0.44519128  0.47050918  1
  O  O29  1  0.14843644  0.69534561  0.46975230  1
  O  O30  1  0.13853912  0.62873991  0.35860256  1
  O  O31  1  0.49152070  0.86277064  0.36909900  1
  O  O32  1  0.37163426  0.49824859  0.36223042  1
  O  O33  1  0.13722936  0.50847930  0.86909900  1
  O  O34  1  0.37126009  0.86146088  0.85860256  1
  O  O35  1  0.50175141  0.62836574  0.86223042  1
  O  O36  1  0.99723208  0.80502243  0.40938705  1
  O  O37  1  0.78710721  0.00836152  0.41500609  1
  O  O38  1  0.23456948  0.20120438  0.40493276  1
  O  O39  1  0.99163848  0.21289279  0.91500609  1
  O  O40  1  0.19497757  0.00276792  0.90938705  1
  O  O41  1  0.79879562  0.76543052  0.90493276  1
  O  O42  1  0.93886785  0.12565788  0.58135932  1
  O  O43  1  0.17938418  0.03822677  0.59225478  1
  O  O44  1  0.86768995  0.80941930  0.58720973  1
  O  O45  1  0.96177323  0.82061582  0.09225478  1
  O  O46  1  0.87434212  0.06113215  0.08135932  1
  O  O47  1  0.19058070  0.13231005  0.08720973  1
  O  O48  1  0.63173631  0.11789988  0.74435818  1
  O  O49  1  0.45124115  0.33807622  0.73651899  1
  O  O50  1  0.88626489  0.54707684  0.74617433  1
  O  O51  1  0.66192378  0.54875885  0.23651899  1
  O  O52  1  0.88210012  0.36826369  0.24435818  1
  O  O53  1  0.45292316  0.11373511  0.24617433  1
  O  O54  1  0.61232383  0.46346200  0.91956041  1
  O  O55  1  0.85757891  0.39314936  0.91998433  1
  O  O56  1  0.52812676  0.14798891  0.92567108  1
  O  O57  1  0.60685064  0.14242109  0.41998433  1
  O  O58  1  0.53653800  0.38767617  0.41956041  1
  O  O59  1  0.85201109  0.47187324  0.42567108  1
  O  O60  1  0.30449061  0.43470408  0.07203445  1
  O  O61  1  0.12860066  0.65028114  0.08016164  1
  O  O62  1  0.56324744  0.87400993  0.07587482  1
  O  O63  1  0.34971886  0.87139934  0.58016164  1
  O  O64  1  0.56529592  0.69550939  0.57203445  1
  O  O65  1  0.12599007  0.43675256  0.57587482  1
  O  O66  1  0.27739575  0.80101977  0.25063963  1
  O  O67  1  0.53077358  0.72823587  0.25492855  1
  O  O68  1  0.20486796  0.48931357  0.25629145  1
  O  O69  1  0.27176413  0.46922642  0.75492855  1
  O  O70  1  0.19898023  0.72260425  0.75063963  1
  O  O71  1  0.51068643  0.79513204  0.75629145  1
loop_
_geom_bond_atom_site_label_1
_geom_bond_atom_site_label_2
_geom_bond_distance
_geom_bond_site_symmetry_2
Na0 O52 2.277023 1_555
Na0 O15 2.420219 1_555
Na0 O66 2.432819 1_655
Na0 O51 2.627880 1_555
Na0 O11 2.735279 1_655
Na0 O1 2.889066 1_555
Na1 O48 2.277023 1_555
Na1 O13 2.420219 1_555
Na1 O70 2.432819 1_545
Na1 O49 2.627880 1_555
Na1 O8 2.735279 1_545
Na1 O3 2.889066 1_555
Na2 O64 2.318443 1_555
Na2 O42 2.395474 1_565
Na2 O63 2.411613 1_555
Na2 O27 2.519054 1_555
Na3 O60 2.318443 1_555
Na3 O46 2.395474 1_455
Na3 O61 2.411613 1_555
Na3 O25 2.519054 1_554
Na4 O41 2.353375 1_455
Na4 O55 2.440717 1_455
Na4 O4 2.528677 1_555
Na4 O40 2.528967 1_565
Na4 O33 2.714650 1_555
Na4 O26 2.738939 1_555
Na5 O38 2.353375 1_565
Na5 O57 2.440717 1_565
Na5 O0 2.528677 1_555
Na5 O36 2.528967 1_455
Na5 O31 2.714650 1_555
Na5 O29 2.738939 1_555
Na6 O44 2.405013 1_555
Na6 O42 2.429069 1_565
Na6 O43 2.609031 1_665
Na6 O36 2.695250 1_555
Na6 O37 2.863788 1_565
Na7 O47 2.405013 1_555
Na7 O46 2.429069 1_455
Na7 O45 2.609031 1_445
Na7 O40 2.695250 1_554
Na7 O39 2.863788 1_454
Na8 O55 2.395791 1_555
Na8 O56 2.515281 1_555
Na8 O54 2.554627 1_555
Na8 O48 2.711858 1_555
Na8 O50 2.960393 1_555
Na9 O57 2.395791 1_555
Na9 O59 2.515281 1_555
Na9 O58 2.554627 1_555
Na9 O52 2.711858 1_555
Na9 O53 2.960393 1_555
Na10 O66 2.386327 1_555
Na10 O67 2.418072 1_555
Na10 O68 2.682547 1_555
Na10 O62 2.778523 1_555
Na10 O61 2.909182 1_555
Na11 O70 2.386327 1_555
Na11 O69 2.418072 1_555
Na11 O71 2.682547 1_555
Na11 O65 2.778523 1_555
Na11 O63 2.909182 1_555
La0 O2 2.174832 1_555
La0 O1 2.288249 1_545
La0 O37 2.304670 1_555
La0 O36 2.323076 1_545
La0 O0 2.377088 1_645
La0 O38 2.421275 1_655
La1 O5 2.174832 1_555
La1 O3 2.288249 1_655
La1 O39 2.304670 1_555
La1 O40 2.323076 1_655
La1 O4 2.377088 1_645
La1 O41 2.421275 1_545
La2 O13 2.259501 1_555
La2 O12 2.271317 1_555
La2 O14 2.281853 1_555
La2 O50 2.343829 1_555
La2 O49 2.352915 1_555
La2 O48 2.355630 1_555
La3 O15 2.259501 1_555
La3 O16 2.271317 1_555
La3 O17 2.281853 1_555
La3 O53 2.343829 1_555
La3 O51 2.352915 1_555
La3 O52 2.355630 1_555
La4 O26 2.179889 1_554
La4 O24 2.291735 1_554
La4 O61 2.324127 1_555
La4 O62 2.332062 1_555
La4 O25 2.358612 1_554
La4 O60 2.415689 1_555
La5 O29 2.179889 1_555
La5 O28 2.291735 1_555
La5 O63 2.324127 1_555
La5 O65 2.332062 1_555
La5 O27 2.358612 1_555
La5 O64 2.415689 1_555
Nb0 O43 1.977284 1_565
Nb0 O6 1.995056 1_455
Nb0 O7 2.001601 1_565
Nb0 O8 2.030084 1_555
Nb0 O44 2.112411 1_455
Nb0 O42 2.211953 1_465
Nb1 O45 1.977284 1_455
Nb1 O10 1.995056 1_565
Nb1 O9 2.001601 1_455
Nb1 O11 2.030084 1_555
Nb1 O47 2.112411 1_565
Nb1 O46 2.211953 1_465
Nb2 O19 1.976630 1_556
Nb2 O18 1.999264 1_556
Nb2 O56 2.003508 1_555
Nb2 O20 2.058187 1_556
Nb2 O54 2.092427 1_555
Nb2 O55 2.164036 1_555
Nb3 O21 1.976630 1_555
Nb3 O22 1.999264 1_555
Nb3 O59 2.003508 1_555
Nb3 O23 2.058187 1_555
Nb3 O58 2.092427 1_555
Nb3 O57 2.164036 1_555
Nb4 O30 1.912439 1_555
Nb4 O68 1.926787 1_555
Nb4 O32 1.995133 1_555
Nb4 O67 2.173465 1_555
Nb4 O31 2.189293 1_555
Nb4 O66 2.241243 1_555
Nb5 O34 1.912439 1_555
Nb5 O71 1.926787 1_555
Nb5 O35 1.995133 1_555
Nb5 O69 2.173465 1_555
Nb5 O33 2.189293 1_555
Nb5 O70 2.241243 1_555
O0 P0 1.502870 1_555
O1 P1 1.507576 1_555
O2 Si0 1.574565 1_655
O3 P2 1.507576 1_555
O4 P3 1.502870 1_555
O5 Si1 1.574565 1_545
O6 Si1 1.707459 1_555
O7 P2 1.627820 1_555
O8 P3 1.634260 1_555
O9 P1 1.627820 1_555
O10 Si0 1.707459 1_555
O11 P0 1.634260 1_555
O12 P4 1.506728 1_555
O13 Si2 1.592932 1_555
O14 P5 1.498551 1_555
O15 Si3 1.592932 1_555
O16 P6 1.506728 1_555
O17 P7 1.498551 1_555
O18 P7 1.612052 1_555
O19 Si3 1.739697 1_555
O20 P6 1.611558 1_555
O21 Si2 1.739697 1_555
O22 P5 1.612052 1_555
O23 P4 1.611558 1_555
O24 P8 1.492456 1_555
O25 P9 1.513414 1_555
O26 Si4 1.583417 1_555
O27 P10 1.513414 1_555
O28 P11 1.492456 1_555
O29 Si5 1.583417 1_555
O30 Si5 1.757372 1_555
O31 P10 1.597090 1_555
O32 P11 1.621062 1_555
O33 P9 1.597090 1_555
O34 Si4 1.757372 1_555
O35 P8 1.621062 1_555
O36 Si5 1.602334 1_655
O37 P10 1.514714 1_545
O38 P11 1.524010 1_555
O39 P9 1.514713 1_655
O40 Si4 1.602334 1_545
O41 P8 1.524010 1_555
O42 P4 1.581073 1_555
O43 Si2 1.678329 1_555
O44 P5 1.577890 1_555
O45 Si3 1.678329 1_555
O46 P6 1.581073 1_555
O47 P7 1.577890 1_555
O48 Si1 1.611258 1_545
O49 P2 1.517153 1_555
O50 P3 1.514559 1_655
O51 P1 1.517153 1_555
O52 Si0 1.611258 1_655
O53 P0 1.514559 1_545
O54 P8 1.577782 1_555
O55 P9 1.595913 1_655
O56 Si4 1.661898 1_545
O57 P10 1.595913 1_545
O58 P11 1.577782 1_555
O59 Si5 1.661898 1_655
O60 P7 1.517944 1_555
O61 Si3 1.613089 1_455
O62 P6 1.511899 1_565
O63 Si2 1.613088 1_565
O64 P5 1.517944 1_555
O65 P4 1.511899 1_455
O66 P0 1.577068 1_555
O67 P1 1.559385 1_555
O68 Si0 1.718282 1_555
O69 P2 1.559385 1_555
O70 P3 1.577068 1_555
O71 Si1 1.718282 1_555
