# generated using pymatgen
data_Na10Y2Nb6Si11SO48
_symmetry_space_group_name_H-M   'P 1'
_cell_length_a   18.30848659
_cell_length_b   9.15123747
_cell_length_c   22.89369301
_cell_angle_alpha   89.95585167
_cell_angle_beta   90.18884395
_cell_angle_gamma   119.97393475
_symmetry_Int_Tables_number   1
_chemical_formula_structural   Na10Y2Nb6Si11SO48
_chemical_formula_sum   'Na30 Y6 Nb18 Si33 S3 O144'
_cell_volume   3322.69275959
_cell_formula_units_Z   3
loop_
 _symmetry_equiv_pos_site_id
 _symmetry_equiv_pos_as_xyz
  1  'x, y, z'
loop_
 _atom_site_type_symbol
 _atom_site_label
 _atom_site_symmetry_multiplicity
 _atom_site_fract_x
 _atom_site_fract_y
 _atom_site_fract_z
 _atom_site_occupancy
  Na  Na0  1  0.31709463  0.99007575  0.25295142  1
  Na  Na1  1  0.81869166  0.99102173  0.25255674  1
  Na  Na2  1  0.81687086  0.64137064  0.74753973  1
  Na  Na3  1  0.18378730  0.98660074  0.74948118  1
  Na  Na4  1  0.68024633  0.00126065  0.74878607  1
  Na  Na5  1  0.01927743  0.71124067  0.58470639  1
  Na  Na6  1  0.83378263  0.96038656  0.58413935  1
  Na  Na7  1  0.64813032  0.96790462  0.08265001  1
  Na  Na8  1  0.33601494  0.71069484  0.08594107  1
  Na  Na9  1  0.83730533  0.71106195  0.08777249  1
  Na  Na10  1  0.01940711  0.32672421  0.08634610  1
  Na  Na11  1  0.51563965  0.32372055  0.08638779  1
  Na  Na12  1  0.98686214  0.65693088  0.91445504  1
  Na  Na13  1  0.34738965  0.03247999  0.91377768  1
  Na  Na14  1  0.48671407  0.31939191  0.41646670  1
  Na  Na15  1  0.98793250  0.32063482  0.41611305  1
  Na  Na16  1  0.34130146  0.65714366  0.41651035  1
  Na  Na17  1  0.84243053  0.65785185  0.41648657  1
  Na  Na18  1  0.01298240  0.01369483  0.50354117  1
  Na  Na19  1  0.50721750  0.00036452  0.50539220  1
  Na  Na20  1  0.00892545  0.01278696  0.00282739  1
  Na  Na21  1  0.50335337  0.99862635  0.99768546  1
  Na  Na22  1  0.33848817  0.35879568  0.83342456  1
  Na  Na23  1  0.83676274  0.32507332  0.83323759  1
  Na  Na24  1  0.32922356  0.33462026  0.33294896  1
  Na  Na25  1  0.83016971  0.33656194  0.33294938  1
  Na  Na26  1  0.16120488  0.65041620  0.17224048  1
  Na  Na27  1  0.66248784  0.64005661  0.17476698  1
  Na  Na28  1  0.17294905  0.66841324  0.66905100  1
  Na  Na29  1  0.65592814  0.64641570  0.66341190  1
  Y  Y0  1  -0.00015498  0.00307105  0.64526783  1
  Y  Y1  1  0.00442487  0.00084164  0.14487048  1
  Y  Y2  1  0.49857000  0.00239016  0.14697077  1
  Y  Y3  1  0.16311443  0.65398860  0.31812690  1
  Y  Y4  1  0.66374279  0.65590428  0.31782620  1
  Y  Y5  1  0.16967158  0.66711281  0.81640267  1
  Nb  Nb0  1  0.99351351  0.99635681  0.35523703  1
  Nb  Nb1  1  0.49239360  0.99662426  0.35489482  1
  Nb  Nb2  1  0.99142231  0.99154038  0.85679759  1
  Nb  Nb3  1  0.49977075  0.99751357  0.85410943  1
  Nb  Nb4  1  0.49967698  0.00162568  0.64519386  1
  Nb  Nb5  1  0.34195118  0.33664020  0.68421108  1
  Nb  Nb6  1  0.83524973  0.33710124  0.68749167  1
  Nb  Nb7  1  0.33914594  0.34555978  0.18571740  1
  Nb  Nb8  1  0.84089459  0.34915946  0.18600088  1
  Nb  Nb9  1  0.33317169  0.33796960  0.97843796  1
  Nb  Nb10  1  0.82962296  0.32245282  0.97636803  1
  Nb  Nb11  1  0.33315033  0.33311979  0.48366504  1
  Nb  Nb12  1  0.82855098  0.32662588  0.48231256  1
  Nb  Nb13  1  0.16756721  0.67025311  0.01893694  1
  Nb  Nb14  1  0.66709033  0.66629934  0.01860581  1
  Nb  Nb15  1  0.16962541  0.66827111  0.52155656  1
  Nb  Nb16  1  0.66201964  0.66164763  0.52065110  1
  Nb  Nb17  1  0.66083702  0.66097881  0.81313015  1
  Si  Si0  1  0.35104287  0.69821734  0.24780983  1
  Si  Si1  1  0.85260764  0.70260768  0.24712775  1
  Si  Si2  1  0.99831452  0.29567208  0.24682253  1
  Si  Si3  1  0.49767458  0.29865971  0.24743105  1
  Si  Si4  1  0.64208695  0.28868943  0.74953049  1
  Si  Si5  1  0.99931729  0.70352062  0.74897262  1
  Si  Si6  1  0.49629896  0.71058405  0.74966414  1
  Si  Si7  1  0.35739248  0.00439214  0.74882369  1
  Si  Si8  1  0.85127865  0.00088071  0.74981877  1
  Si  Si9  1  0.48144958  0.33278286  0.58155985  1
  Si  Si10  1  0.98016860  0.34251020  0.58213329  1
  Si  Si11  1  0.19181429  0.04150486  0.58475017  1
  Si  Si12  1  0.68684754  0.04024217  0.58587546  1
  Si  Si13  1  0.33341446  0.62219372  0.58489839  1
  Si  Si14  1  0.82770056  0.61738320  0.58282754  1
  Si  Si15  1  0.48151418  0.61955684  0.08130973  1
  Si  Si16  1  0.97955614  0.61851367  0.07768394  1
  Si  Si17  1  0.32833129  0.04392390  0.08188549  1
  Si  Si18  1  0.82946246  0.04316401  0.08377667  1
  Si  Si19  1  0.19210669  0.34004720  0.08149767  1
  Si  Si20  1  0.69310951  0.34056373  0.08141554  1
  Si  Si21  1  0.31645365  0.66917090  0.91780054  1
  Si  Si22  1  0.80794762  0.66005926  0.91516103  1
  Si  Si23  1  0.02075470  0.37152990  0.91810333  1
  Si  Si24  1  0.52109181  0.37377328  0.91711291  1
  Si  Si25  1  0.16634459  0.96454713  0.91541188  1
  Si  Si26  1  0.66412466  0.95311003  0.91589010  1
  Si  Si27  1  0.31054055  0.96549121  0.41536061  1
  Si  Si28  1  0.81048666  0.96162112  0.41662308  1
  Si  Si29  1  0.16686811  0.36859808  0.41926092  1
  Si  Si30  1  0.66568907  0.36821311  0.41814083  1
  Si  Si31  1  0.01853038  0.66779685  0.42041671  1
  Si  Si32  1  0.51845017  0.66968186  0.41843117  1
  S  S0  1  0.14929541  0.00901339  0.25238036  1
  S  S1  1  0.64926408  0.00942971  0.25047459  1
  S  S2  1  0.14853674  0.28691395  0.75190538  1
  O  O0  1  0.10344430  0.02236731  0.30395795  1
  O  O1  1  0.60128781  0.02058454  0.30098741  1
  O  O2  1  0.41416962  0.80661646  0.30633965  1
  O  O3  1  0.91469150  0.80706146  0.30616111  1
  O  O4  1  0.48824398  0.16726957  0.30452803  1
  O  O5  1  0.98787328  0.16656673  0.30484134  1
  O  O6  1  0.10282124  0.17910642  0.80348026  1
  O  O7  1  0.59598722  0.16391217  0.80602622  1
  O  O8  1  0.48551396  0.80614157  0.80748950  1
  O  O9  1  0.98679932  0.80784373  0.80650406  1
  O  O10  1  0.41337795  0.02398930  0.80890419  1
  O  O11  1  0.91581877  0.02292065  0.80528094  1
  O  O12  1  0.41165224  0.99080282  0.69366921  1
  O  O13  1  0.88268235  0.95493444  0.69090156  1
  O  O14  1  0.10086592  0.21136387  0.69783343  1
  O  O15  1  0.58581776  0.19618874  0.69163945  1
  O  O16  1  0.00987470  0.80912088  0.69043456  1
  O  O17  1  0.51683395  0.83838383  0.69425087  1
  O  O18  1  0.39407752  0.79914603  0.18862706  1
  O  O19  1  0.89533392  0.80402477  0.18822418  1
  O  O20  1  0.00529529  0.21085255  0.18745096  1
  O  O21  1  0.50727268  0.21879331  0.18738590  1
  O  O22  1  0.10247928  0.98871993  0.19798025  1
  O  O23  1  0.60471735  0.99100829  0.19454731  1
  O  O24  1  0.43215172  0.35801177  0.63875728  1
  O  O25  1  0.92836576  0.36215272  0.63994027  1
  O  O26  1  0.24760421  0.13655766  0.64438868  1
  O  O27  1  0.74776316  0.13278739  0.64372214  1
  O  O28  1  0.32111944  0.49674557  0.64062864  1
  O  O29  1  0.81911745  0.50375414  0.64235661  1
  O  O30  1  0.43416616  0.50086462  0.14069169  1
  O  O31  1  0.93164696  0.49604439  0.13760942  1
  O  O32  1  0.32008535  0.13850575  0.14166909  1
  O  O33  1  0.81478312  0.13201146  0.14234797  1
  O  O34  1  0.25294675  0.36210570  0.13950817  1
  O  O35  1  0.75355306  0.36554021  0.13917510  1
  O  O36  1  0.24441818  0.32676212  0.02597653  1
  O  O37  1  0.74178876  0.32282494  0.02438180  1
  O  O38  1  0.42089001  0.51589405  0.02731279  1
  O  O39  1  0.91923197  0.51682879  0.02215148  1
  O  O40  1  0.34222748  0.16326219  0.02504866  1
  O  O41  1  0.83565271  0.16204317  0.02793142  1
  O  O42  1  0.24670486  0.16579644  0.53058586  1
  O  O43  1  0.73808398  0.15824221  0.52952295  1
  O  O44  1  0.34680913  0.53292892  0.52681675  1
  O  O45  1  0.83631336  0.51603295  0.52703636  1
  O  O46  1  0.42583112  0.31563528  0.52387761  1
  O  O47  1  0.92132867  0.32723309  0.52585893  1
  O  O48  1  0.26649519  0.69829586  0.97449652  1
  O  O49  1  0.76402629  0.68920530  0.97387344  1
  O  O50  1  0.08160131  0.46381882  0.97642362  1
  O  O51  1  0.58097944  0.47031167  0.97530339  1
  O  O52  1  0.15004498  0.82664310  0.96964272  1
  O  O53  1  0.65383397  0.83580102  0.97460866  1
  O  O54  1  0.26218321  0.82862898  0.46912080  1
  O  O55  1  0.76478441  0.83187597  0.47235727  1
  O  O56  1  0.14832499  0.46718629  0.47378796  1
  O  O57  1  0.64831449  0.46810582  0.47307078  1
  O  O58  1  0.08005829  0.69607861  0.47788709  1
  O  O59  1  0.58211129  0.69638116  0.47494958  1
  O  O60  1  0.05057644  0.60629572  0.36602921  1
  O  O61  1  0.55080411  0.60910635  0.36428443  1
  O  O62  1  0.26408448  0.90264618  0.35411295  1
  O  O63  1  0.76327746  0.89995056  0.35552529  1
  O  O64  1  0.19802039  0.49192737  0.36397124  1
  O  O65  1  0.69695983  0.49204756  0.36321464  1
  O  O66  1  0.05425176  0.49808888  0.86409803  1
  O  O67  1  0.57099989  0.49834369  0.86130446  1
  O  O68  1  0.19170050  0.90394180  0.85704108  1
  O  O69  1  0.67564315  0.85742172  0.85905470  1
  O  O70  1  0.26206271  0.62836541  0.86011887  1
  O  O71  1  0.75079514  0.64130204  0.85775134  1
  O  O72  1  0.00846356  0.83688133  0.40948329  1
  O  O73  1  0.50914095  0.83926456  0.40946521  1
  O  O74  1  0.40603686  0.97525512  0.41041905  1
  O  O75  1  0.90639494  0.97463167  0.41050938  1
  O  O76  1  0.07857973  0.18763743  0.40884817  1
  O  O77  1  0.57740867  0.18756330  0.40864408  1
  O  O78  1  0.01198758  0.18398393  0.90814869  1
  O  O79  1  0.51209457  0.18783202  0.90988452  1
  O  O80  1  0.07722270  0.96826596  0.90958065  1
  O  O81  1  0.58070293  0.97268452  0.90941909  1
  O  O82  1  0.40737579  0.84936562  0.91362680  1
  O  O83  1  0.90359361  0.83084550  0.90873910  1
  O  O84  1  0.49020377  0.16530692  0.58909052  1
  O  O85  1  0.98140183  0.16888074  0.58269975  1
  O  O86  1  0.09757522  0.01207161  0.58249962  1
  O  O87  1  0.59420640  0.02160201  0.59071941  1
  O  O88  1  0.41662082  0.80969107  0.59328395  1
  O  O89  1  0.91237215  0.80067743  0.58186043  1
  O  O90  1  0.49408834  0.80615304  0.08237938  1
  O  O91  1  0.98339873  0.79665631  0.07995857  1
  O  O92  1  0.41095849  0.02049102  0.08197636  1
  O  O93  1  0.91178984  0.02302745  0.08190404  1
  O  O94  1  0.09776522  0.18386884  0.08067390  1
  O  O95  1  0.60122761  0.17385228  0.08231302  1
  O  O96  1  0.34872534  0.17787579  0.74270307  1
  O  O97  1  0.83971245  0.16808940  0.74630289  1
  O  O98  1  0.23174536  0.29045133  0.74978850  1
  O  O99  1  0.73642612  0.30698064  0.74335771  1
  O  O100  1  0.41338140  0.52265878  0.74213894  1
  O  O101  1  0.90759924  0.52030134  0.74632574  1
  O  O102  1  0.34513301  0.51121929  0.24528896  1
  O  O103  1  0.84616244  0.51401643  0.24445223  1
  O  O104  1  0.40352994  0.28805076  0.24646143  1
  O  O105  1  0.90418646  0.28887717  0.24527838  1
  O  O106  1  0.23372930  0.16682067  0.24989918  1
  O  O107  1  0.73361940  0.16739603  0.24946603  1
  O  O108  1  0.33344854  0.51169698  0.92861185  1
  O  O109  1  0.82615474  0.50276938  0.92042272  1
  O  O110  1  0.42594661  0.34545977  0.92197653  1
  O  O111  1  0.92488115  0.34355717  0.92853106  1
  O  O112  1  0.24879379  0.14968994  0.92867594  1
  O  O113  1  0.74877650  0.13967297  0.92227555  1
  O  O114  1  0.33520703  0.16147475  0.42701629  1
  O  O115  1  0.83442957  0.15760306  0.42799213  1
  O  O116  1  0.24755982  0.34113227  0.43227621  1
  O  O117  1  0.74556870  0.33834106  0.42990612  1
  O  O118  1  0.42217455  0.51090960  0.42922693  1
  O  O119  1  0.92038722  0.50992510  0.42993152  1
  O  O120  1  0.18885816  0.51763991  0.07734677  1
  O  O121  1  0.68616806  0.51363477  0.07696119  1
  O  O122  1  0.07006708  0.62253514  0.07605249  1
  O  O123  1  0.57350089  0.62823218  0.07779167  1
  O  O124  1  0.24384280  0.85446659  0.07565301  1
  O  O125  1  0.74302681  0.85546213  0.07653746  1
  O  O126  1  0.18519574  0.85574223  0.57655251  1
  O  O127  1  0.68446649  0.85864888  0.57724142  1
  O  O128  1  0.24815209  0.63745821  0.57508484  1
  O  O129  1  0.74503102  0.64217208  0.57731670  1
  O  O130  1  0.07163209  0.51693282  0.57889416  1
  O  O131  1  0.57347097  0.50603706  0.57738059  1
  O  O132  1  0.16284937  0.86345126  0.25643590  1
  O  O133  1  0.66256835  0.86356389  0.25482144  1
  O  O134  1  0.26288553  0.69531864  0.25268282  1
  O  O135  1  0.76342261  0.69589080  0.25221962  1
  O  O136  1  0.07462054  0.48432741  0.25191524  1
  O  O137  1  0.57469820  0.48619735  0.25241344  1
  O  O138  1  0.16130550  0.45752556  0.75570801  1
  O  O139  1  0.65698075  0.48165312  0.75678597  1
  O  O140  1  0.08171428  0.68575243  0.75347902  1
  O  O141  1  0.58272856  0.69552052  0.75815480  1
  O  O142  1  0.26318339  0.84581042  0.74732462  1
  O  O143  1  0.75681411  0.83461592  0.76196119  1
loop_
_geom_bond_atom_site_label_1
_geom_bond_atom_site_label_2
_geom_bond_distance
_geom_bond_site_symmetry_2
Na0 O134 2.363464 1_555
Na0 O104 2.377213 1_565
Na0 O132 2.460819 1_555
Na0 O62 2.486326 1_555
Na0 O106 2.723308 1_565
Na0 O32 2.874002 1_565
Na0 O4 2.957001 1_565
Na1 O135 2.363806 1_555
Na1 O105 2.376002 1_565
Na1 O133 2.490586 1_555
Na1 O63 2.539441 1_555
Na1 O107 2.747207 1_565
Na1 O33 2.849882 1_565
Na1 O5 2.935004 1_565
Na2 O101 2.413883 1_555
Na2 O143 2.528163 1_555
Na2 O139 2.545350 1_555
Na2 O99 2.653035 1_555
Na2 O29 2.728255 1_555
Na2 O71 2.801631 1_555
Na2 O13 2.813706 1_555
Na3 O142 2.376425 1_555
Na3 O140 2.437269 1_555
Na3 O98 2.462360 1_565
Na3 O68 2.600209 1_555
Na3 O96 2.632110 1_565
Na3 O26 2.729153 1_565
Na4 O99 2.454699 1_555
Na4 O141 2.464157 1_545
Na4 O97 2.530841 1_555
Na4 O143 2.552334 1_545
Na4 O27 2.700128 1_555
Na4 O69 2.828086 1_545
Na4 O17 2.872955 1_545
Na4 O7 2.936540 1_555
Na5 O86 2.386071 1_565
Na5 O130 2.408864 1_555
Na5 O89 2.470789 1_455
Na5 O16 2.617439 1_555
Na5 O126 2.645894 1_555
Na5 O58 2.722268 1_555
Na6 O85 2.407044 1_565
Na6 O127 2.412331 1_555
Na6 O89 2.512172 1_555
Na6 O129 2.532929 1_555
Na6 O13 2.609226 1_555
Na6 O55 2.833151 1_555
Na7 O125 2.425940 1_555
Na7 O95 2.430334 1_565
Na7 O90 2.444096 1_555
Na7 O123 2.701344 1_555
Na7 O23 2.724178 1_555
Na7 O53 2.779003 1_554
Na8 O120 2.379004 1_555
Na8 O92 2.458005 1_565
Na8 O18 2.537413 1_555
Na8 O90 2.573084 1_555
Na8 O124 2.617193 1_555
Na8 O48 2.824386 1_554
Na9 O91 2.389416 1_555
Na9 O121 2.446027 1_555
Na9 O93 2.477602 1_565
Na9 O19 2.494980 1_555
Na9 O125 2.658469 1_555
Na9 O49 2.889464 1_554
Na9 O35 2.982541 1_555
Na10 O94 2.378976 1_555
Na10 O122 2.394888 1_555
Na10 O93 2.478702 1_455
Na10 O20 2.505038 1_555
Na10 O120 2.703218 1_555
Na10 O50 2.791073 1_554
Na10 O31 2.977055 1_455
Na11 O123 2.444836 1_555
Na11 O92 2.463461 1_555
Na11 O21 2.478664 1_555
Na11 O95 2.548267 1_555
Na11 O121 2.719690 1_555
Na11 O51 2.847711 1_554
Na12 O80 2.481480 1_655
Na12 O111 2.522872 1_555
Na12 O109 2.553590 1_555
Na12 O66 2.601597 1_655
Na12 O83 2.701305 1_555
Na12 O39 2.772179 1_556
Na12 O9 2.830438 1_555
Na12 O52 2.876816 1_655
Na13 O82 2.419335 1_545
Na13 O110 2.487989 1_555
Na13 O112 2.542576 1_555
Na13 O79 2.615383 1_555
Na13 O10 2.709867 1_555
Na13 O68 2.797043 1_545
Na13 O40 2.837232 1_556
Na13 O48 2.993267 1_545
Na14 O114 2.416506 1_555
Na14 O77 2.499714 1_555
Na14 O118 2.574029 1_555
Na14 O61 2.594030 1_555
Na14 O46 2.696325 1_555
Na14 O74 2.733155 1_545
Na14 O57 2.870398 1_555
Na14 O4 2.924220 1_555
Na15 O115 2.452140 1_555
Na15 O76 2.506737 1_655
Na15 O60 2.544033 1_655
Na15 O119 2.602683 1_555
Na15 O75 2.747193 1_545
Na15 O47 2.810199 1_555
Na15 O56 2.864846 1_655
Na15 O5 2.912250 1_555
Na16 O118 2.458539 1_555
Na16 O74 2.540011 1_555
Na16 O116 2.545983 1_555
Na16 O64 2.575486 1_555
Na16 O73 2.670548 1_555
Na16 O44 2.790694 1_555
Na16 O2 2.864590 1_555
Na16 O54 2.880533 1_555
Na17 O119 2.427227 1_555
Na17 O75 2.530251 1_555
Na17 O117 2.570924 1_555
Na17 O65 2.612768 1_555
Na17 O72 2.641366 1_655
Na17 O45 2.820260 1_555
Na17 O3 2.864588 1_555
Na17 O55 2.910394 1_555
Na18 O86 2.381384 1_555
Na18 O85 2.542959 1_455
Na18 O76 2.603357 1_555
Na18 O89 2.614658 1_445
Na18 O72 2.670626 1_545
Na18 O75 2.783688 1_445
Na19 O87 2.461917 1_555
Na19 O84 2.554464 1_555
Na19 O88 2.639954 1_545
Na19 O73 2.656130 1_545
Na19 O77 2.702816 1_555
Na19 O74 2.785828 1_545
Na20 O94 2.390319 1_555
Na20 O91 2.514934 1_445
Na20 O93 2.576221 1_455
Na20 O80 2.610505 1_544
Na20 O78 2.657750 1_554
Na20 O83 2.810838 1_444
Na21 O82 2.498064 1_555
Na21 O81 2.549664 1_555
Na21 O90 2.566926 1_556
Na21 O95 2.578128 1_566
Na21 O79 2.604595 1_565
Na21 O92 2.643058 1_566
Na22 O100 2.540837 1_555
Na22 O98 2.575370 1_555
Na22 O108 2.617301 1_555
Na22 O110 2.619578 1_555
Na22 O96 2.721751 1_555
Na22 O112 2.826834 1_555
Na23 O97 2.471939 1_555
Na23 O101 2.555230 1_555
Na23 O113 2.629456 1_555
Na23 O109 2.643701 1_555
Na23 O111 2.663747 1_555
Na23 O99 2.703290 1_555
Na24 O102 2.500521 1_555
Na24 O106 2.515892 1_555
Na24 O104 2.559543 1_555
Na24 O114 2.706848 1_555
Na24 O116 2.742548 1_555
Na24 O118 2.755814 1_555
Na25 O103 2.520195 1_555
Na25 O107 2.534175 1_555
Na25 O105 2.581758 1_555
Na25 O117 2.715582 1_555
Na25 O119 2.745486 1_555
Na25 O115 2.746561 1_555
Na26 O136 2.399484 1_555
Na26 O134 2.498050 1_555
Na26 O120 2.660515 1_555
Na26 O122 2.692544 1_555
Na26 O132 2.731991 1_555
Na26 O124 2.803261 1_555
Na27 O137 2.340826 1_555
Na27 O135 2.420024 1_555
Na27 O121 2.655508 1_555
Na27 O123 2.719443 1_555
Na27 O133 2.746857 1_555
Na27 O125 2.868439 1_555
Na28 O142 2.425081 1_555
Na28 O140 2.614936 1_555
Na28 O128 2.648388 1_555
Na28 O130 2.651886 1_555
Na28 O126 2.662123 1_555
Na28 O138 2.700288 1_555
Na29 O131 2.419724 1_555
Na29 O129 2.575340 1_555
Na29 O139 2.620541 1_555
Na29 O127 2.631314 1_555
Na29 O141 2.706482 1_555
Na29 O143 2.875411 1_555
Nb0 O3 1.959618 1_555
Nb0 O75 1.969987 1_555
Nb0 O5 1.981204 1_565
Nb0 O72 2.034988 1_655
Nb0 O76 2.064640 1_665
Nb0 O0 2.241012 1_665
Nb1 O2 1.953049 1_555
Nb1 O74 1.964117 1_555
Nb1 O4 1.972108 1_565
Nb1 O73 2.040689 1_555
Nb1 O77 2.064737 1_565
Nb1 O1 2.263840 1_565
Nb2 O11 1.943022 1_565
Nb2 O83 1.951762 1_555
Nb2 O78 1.990731 1_665
Nb2 O9 2.004744 1_555
Nb2 O80 2.072354 1_655
Nb2 O6 2.260766 1_665
Nb3 O8 1.954115 1_555
Nb3 O7 1.990870 1_565
Nb3 O10 2.000836 1_565
Nb3 O81 2.043078 1_555
Nb3 O82 2.068079 1_555
Nb3 O79 2.079324 1_565
Nb4 O12 1.921146 1_545
Nb4 O15 1.993515 1_555
Nb4 O17 2.013856 1_545
Nb4 O88 2.032789 1_545
Nb4 O84 2.044166 1_555
Nb4 O87 2.069242 1_555
Nb5 O24 1.880595 1_555
Nb5 O28 1.959924 1_555
Nb5 O26 1.999844 1_555
Nb5 O96 2.023713 1_555
Nb5 O100 2.033332 1_555
Nb5 O98 2.381286 1_555
Nb6 O25 1.940459 1_555
Nb6 O29 1.981535 1_555
Nb6 O27 2.016284 1_555
Nb6 O101 2.037704 1_555
Nb6 O97 2.081827 1_555
Nb6 O99 2.121734 1_555
Nb7 O30 1.909963 1_555
Nb7 O34 1.964750 1_555
Nb7 O102 2.001595 1_555
Nb7 O32 2.017150 1_555
Nb7 O104 2.051424 1_555
Nb7 O106 2.328095 1_555
Nb8 O31 1.890258 1_555
Nb8 O103 1.983148 1_555
Nb8 O35 1.989159 1_555
Nb8 O105 2.028790 1_555
Nb8 O33 2.055923 1_555
Nb8 O107 2.342234 1_555
Nb9 O36 1.918433 1_556
Nb9 O108 1.953958 1_555
Nb9 O38 1.964798 1_556
Nb9 O40 1.995838 1_556
Nb9 O112 1.996210 1_555
Nb9 O110 2.111558 1_555
Nb10 O41 1.928465 1_556
Nb10 O37 1.952289 1_556
Nb10 O111 1.988477 1_555
Nb10 O39 2.007444 1_556
Nb10 O113 2.009856 1_555
Nb10 O109 2.113827 1_555
Nb11 O42 1.894875 1_555
Nb11 O44 1.981454 1_555
Nb11 O116 1.986856 1_555
Nb11 O46 2.003292 1_555
Nb11 O114 2.052615 1_555
Nb11 O118 2.053641 1_555
Nb12 O43 1.935195 1_555
Nb12 O45 1.956668 1_555
Nb12 O47 1.964341 1_555
Nb12 O117 1.977298 1_555
Nb12 O115 2.029974 1_555
Nb12 O119 2.066610 1_555
Nb13 O52 1.969416 1_554
Nb13 O48 1.982120 1_554
Nb13 O50 2.003757 1_554
Nb13 O124 2.029061 1_555
Nb13 O122 2.079085 1_555
Nb13 O120 2.104340 1_555
Nb14 O53 1.962573 1_554
Nb14 O51 1.962684 1_554
Nb14 O49 1.970371 1_554
Nb14 O125 2.067629 1_555
Nb14 O123 2.076412 1_555
Nb14 O121 2.083328 1_555
Nb15 O54 1.998020 1_555
Nb15 O56 2.004374 1_555
Nb15 O128 2.010271 1_555
Nb15 O126 2.030281 1_555
Nb15 O58 2.039388 1_555
Nb15 O130 2.095216 1_555
Nb16 O59 1.946831 1_555
Nb16 O57 1.985845 1_555
Nb16 O131 2.011739 1_555
Nb16 O55 2.066757 1_555
Nb16 O129 2.069262 1_555
Nb16 O127 2.087405 1_555
Nb17 O67 1.923578 1_555
Nb17 O69 1.981086 1_555
Nb17 O71 2.018300 1_555
Nb17 O141 2.041618 1_555
Nb17 O143 2.050769 1_555
Nb17 O139 2.061271 1_555
O0 S0 1.491036 1_555
O1 S1 1.488540 1_555
O2 Si0 1.720918 1_555
O3 Si1 1.714189 1_555
O4 Si3 1.725059 1_555
O5 Si2 1.723453 1_555
O6 S2 1.499212 1_555
O7 Si4 1.652580 1_555
O8 Si6 1.652958 1_555
O9 Si5 1.709174 1_555
O10 Si7 1.667968 1_555
O11 Si8 1.673775 1_555
O12 Si7 1.651870 1_565
O13 Si8 1.604449 1_565
O13 Y0 2.226367 1_665
O14 S2 1.470854 1_555
O14 Y0 2.229023 1_555
O15 Si4 1.629648 1_555
O16 Si5 1.606336 1_455
O16 Y0 2.138864 1_565
O17 Si6 1.637079 1_555
O18 Si0 1.608605 1_555
O18 Y2 2.117225 1_565
O19 Si1 1.603551 1_555
O19 Y1 2.152695 1_665
O20 Si2 1.602574 1_455
O20 Y1 2.148549 1_555
O21 Si3 1.608170 1_555
O21 Y2 2.118928 1_555
O22 S0 1.467822 1_565
O22 Y1 2.213120 1_565
O23 S1 1.479541 1_565
O23 Y2 2.272034 1_565
O24 Si9 1.673050 1_555
O25 Si10 1.691819 1_555
O26 Si11 1.664023 1_555
O27 Si12 1.662264 1_555
O28 Si13 1.654647 1_555
O29 Si14 1.673099 1_555
O30 Si15 1.686439 1_555
O31 Si16 1.711983 1_555
O32 Si17 1.667021 1_555
O33 Si18 1.659443 1_555
O34 Si19 1.676683 1_555
O35 Si20 1.662381 1_555
O36 Si19 1.634723 1_555
O37 Si20 1.636494 1_555
O38 Si15 1.612670 1_555
O39 Si16 1.633299 1_555
O40 Si17 1.634898 1_555
O41 Si18 1.645156 1_555
O42 Si11 1.644751 1_555
O43 Si12 1.644414 1_555
O44 Si13 1.643029 1_555
O45 Si14 1.632723 1_555
O46 Si9 1.623947 1_555
O47 Si10 1.637219 1_555
O48 Si21 1.686521 1_555
O49 Si22 1.657251 1_555
O50 Si23 1.669968 1_555
O51 Si24 1.667849 1_555
O52 Si25 1.687256 1_555
O53 Si26 1.671046 1_555
O54 Si27 1.662560 1_555
O55 Si28 1.658301 1_555
O56 Si29 1.672761 1_555
O57 Si30 1.677273 1_555
O58 Si31 1.663272 1_555
O59 Si32 1.672838 1_555
O60 Si31 1.595991 1_555
O60 Y3 2.180369 1_555
O61 Si32 1.590231 1_555
O61 Y4 2.172361 1_555
O62 Si27 1.588995 1_555
O62 Y3 2.250269 1_555
O63 Si28 1.589943 1_555
O63 Y4 2.231474 1_555
O64 Si29 1.600201 1_555
O64 Y3 2.156306 1_555
O65 Si30 1.596083 1_555
O65 Y4 2.145393 1_555
O66 Si23 1.593480 1_555
O66 Y5 2.190174 1_555
O67 Si24 1.652729 1_555
O68 Si25 1.603546 1_555
O68 Y5 2.202853 1_555
O69 Si26 1.640853 1_555
O70 Si21 1.579703 1_555
O70 Y5 2.139232 1_555
O71 Si22 1.632058 1_555
O72 Si31 1.665809 1_555
O73 Si32 1.656237 1_555
O74 Si27 1.709634 1_555
O75 Si28 1.705804 1_555
O76 Si29 1.653904 1_555
O77 Si30 1.649533 1_555
O78 Si23 1.657832 1_555
O79 Si24 1.634049 1_555
O80 Si25 1.653912 1_555
O81 Si26 1.630522 1_555
O82 Si21 1.660528 1_555
O83 Si22 1.672543 1_555
O84 Si9 1.627627 1_555
O85 Si10 1.600366 1_555
O85 Y0 2.230167 1_655
O86 Si11 1.608475 1_555
O86 Y0 2.267777 1_555
O87 Si12 1.621829 1_555
O88 Si13 1.639635 1_555
O89 Si14 1.618379 1_555
O89 Y0 2.264382 1_665
O90 Si15 1.605203 1_555
O90 Y2 2.296604 1_565
O91 Si16 1.597124 1_555
O91 Y1 2.264916 1_665
O92 Si17 1.630525 1_555
O92 Y2 2.250283 1_555
O93 Si18 1.608009 1_555
O93 Y1 2.307202 1_655
O94 Si19 1.599867 1_555
O94 Y1 2.244660 1_555
O95 Si20 1.610456 1_555
O95 Y2 2.292097 1_555
O96 Si7 1.678241 1_555
O97 Si8 1.648090 1_555
O98 S2 1.508451 1_555
O99 Si4 1.656479 1_555
O100 Si6 1.637644 1_555
O101 Si5 1.679554 1_555
O102 Si0 1.660891 1_555
O103 Si1 1.671178 1_555
O104 Si3 1.677324 1_555
O105 Si2 1.693384 1_555
O106 S0 1.499402 1_555
O107 S1 1.498277 1_555
O108 Si21 1.637612 1_555
O109 Si22 1.635970 1_555
O110 Si24 1.632242 1_555
O111 Si23 1.660508 1_655
O112 Si25 1.638199 1_545
O113 Si26 1.641084 1_545
O114 Si27 1.637802 1_545
O115 Si28 1.640386 1_545
O116 Si29 1.643933 1_555
O117 Si30 1.637950 1_555
O118 Si32 1.649974 1_555
O119 Si31 1.664794 1_655
O120 Si19 1.658351 1_555
O121 Si20 1.654028 1_555
O122 Si16 1.639591 1_455
O123 Si15 1.648149 1_555
O124 Si17 1.654759 1_565
O125 Si18 1.662791 1_565
O126 Si11 1.653564 1_565
O127 Si12 1.652460 1_565
O128 Si13 1.649944 1_555
O129 Si14 1.643167 1_555
O130 Si10 1.639294 1_455
O131 Si9 1.641078 1_555
O132 S0 1.474644 1_565
O132 Y3 2.382032 1_555
O133 S1 1.474988 1_565
O133 Y4 2.393474 1_555
O134 Si0 1.605190 1_555
O134 Y3 2.247517 1_555
O135 Si1 1.607638 1_555
O135 Y4 2.251744 1_555
O136 Si2 1.592208 1_455
O136 Y3 2.192544 1_555
O137 Si3 1.589959 1_555
O137 Y4 2.184018 1_555
O138 S2 1.461259 1_555
O138 Y5 2.311289 1_555
O139 Si4 1.655056 1_555
O140 Si5 1.599030 1_455
O140 Y5 2.226291 1_555
O141 Si6 1.666329 1_555
O142 Si7 1.606486 1_565
O142 Y5 2.307095 1_555
O143 Si8 1.660304 1_565
