# generated using pymatgen
data_PuCo3
_symmetry_space_group_name_H-M   'P 1'
_cell_length_a   8.56196700
_cell_length_b   8.56196700
_cell_length_c   8.56196730
_cell_angle_alpha   32.23889243
_cell_angle_beta   32.23889243
_cell_angle_gamma   32.23889612
_symmetry_Int_Tables_number   1
_chemical_formula_structural   PuCo3
_chemical_formula_sum   'Pu3 Co9'
_cell_volume   158.75497203
_cell_formula_units_Z   3
loop_
 _symmetry_equiv_pos_site_id
 _symmetry_equiv_pos_as_xyz
  1  'x, y, z'
loop_
 _atom_site_type_symbol
 _atom_site_label
 _atom_site_symmetry_multiplicity
 _atom_site_fract_x
 _atom_site_fract_y
 _atom_site_fract_z
 _atom_site_occupancy
  Pu  Pu0  1  0.00000000  0.00000000  0.00000000  1
  Pu  Pu1  1  0.14639800  0.14639800  0.14639800  1
  Pu  Pu2  1  0.85360200  0.85360200  0.85360200  1
  Co  Co0  1  0.50000000  0.50000000  0.50000000  1
  Co  Co1  1  0.33319600  0.33319600  0.33319600  1
  Co  Co2  1  0.66680400  0.66680400  0.66680400  1
  Co  Co3  1  0.08489500  0.58157700  0.58157700  1
  Co  Co4  1  0.58157700  0.58157700  0.08489500  1
  Co  Co5  1  0.58157700  0.08489500  0.58157700  1
  Co  Co6  1  0.41842300  0.91510500  0.41842300  1
  Co  Co7  1  0.91510500  0.41842300  0.41842300  1
  Co  Co8  1  0.41842300  0.41842300  0.91510500  1
loop_
_geom_bond_atom_site_label_1
_geom_bond_atom_site_label_2
_geom_bond_distance
_geom_bond_site_symmetry_2
Co0 Co7 2.456402 1_555
Co0 Co6 2.456402 1_555
Co0 Co5 2.456402 1_555
Co0 Co3 2.456402 1_555
Co0 Co8 2.456402 1_555
Co0 Co4 2.456402 1_555
Co0 Pu1 2.788843 1_556
Co0 Pu2 2.788843 1_554
Co0 Pu2 2.788844 1_545
Co0 Pu1 2.788844 1_565
Co0 Pu2 2.788844 1_455
Co0 Pu1 2.788844 1_655
Co1 Co4 2.432908 1_555
Co1 Co5 2.432909 1_555
Co1 Co3 2.432909 1_555
Co1 Co7 2.437654 1_455
Co1 Co6 2.437654 1_545
Co1 Co8 2.437654 1_554
Co1 Pu0 2.744899 1_556
Co1 Pu0 2.744899 1_655
Co1 Pu0 2.744899 1_565
Co1 Co2 2.744905 1_554
Co1 Co2 2.744906 1_545
Co1 Co2 2.744906 1_455
Co2 Co8 2.432908 1_555
Co2 Co7 2.432909 1_555
Co2 Co6 2.432909 1_555
Co2 Co3 2.437654 1_655
Co2 Co5 2.437654 1_565
Co2 Co4 2.437654 1_556
Co2 Pu0 2.744899 1_665
Co2 Pu0 2.744899 1_656
Co2 Pu0 2.744899 1_566
Co3 Co4 2.361376 1_555
Co3 Co5 2.361376 1_555
Co3 Co4 2.392926 1_456
Co3 Co5 2.392926 1_465
Co3 Pu1 2.837962 1_565
Co3 Pu1 2.837963 1_556
Co3 Pu2 2.888320 1_455
Co3 Pu0 3.114132 1_556
Co3 Pu0 3.114132 1_565
Co4 Co5 2.361376 1_555
Co4 Co5 2.392926 1_564
Co4 Pu1 2.837963 1_565
Co4 Pu1 2.837963 1_655
Co4 Pu2 2.888320 1_554
Co4 Pu0 3.114132 1_565
Co4 Pu0 3.114132 1_655
Co5 Pu1 2.837962 1_655
Co5 Pu1 2.837963 1_556
Co5 Pu2 2.888320 1_545
Co5 Pu0 3.114132 1_556
Co5 Pu0 3.114132 1_655
Co6 Co8 2.361376 1_555
Co6 Co7 2.361376 1_555
Co6 Co8 2.392926 1_564
Co6 Co7 2.392926 1_465
Co6 Pu2 2.837962 1_455
Co6 Pu2 2.837963 1_554
Co6 Pu1 2.888320 1_565
Co6 Pu0 3.114132 1_665
Co6 Pu0 3.114132 1_566
Co7 Co8 2.361376 1_555
Co7 Co8 2.392926 1_654
Co7 Pu2 2.837962 1_545
Co7 Pu2 2.837963 1_554
Co7 Pu1 2.888320 1_655
Co7 Pu0 3.114132 1_665
Co7 Pu0 3.114132 1_656
Co8 Pu2 2.837963 1_545
Co8 Pu2 2.837963 1_455
Co8 Pu1 2.888320 1_556
Co8 Pu0 3.114132 1_566
Co8 Pu0 3.114132 1_656
