# generated using pymatgen
data_Na5Ga3Si3Ge(SO8)3
_symmetry_space_group_name_H-M   'P 1'
_cell_length_a   8.79878534
_cell_length_b   8.74860680
_cell_length_c   22.04702233
_cell_angle_alpha   91.25776334
_cell_angle_beta   90.51953408
_cell_angle_gamma   120.20158257
_symmetry_Int_Tables_number   1
_chemical_formula_structural   Na5Ga3Si3Ge(SO8)3
_chemical_formula_sum   'Na15 Ga9 Si9 Ge3 S9 O72'
_cell_volume   1466.00054350
_cell_formula_units_Z   3
loop_
 _symmetry_equiv_pos_site_id
 _symmetry_equiv_pos_as_xyz
  1  'x, y, z'
loop_
 _atom_site_type_symbol
 _atom_site_label
 _atom_site_symmetry_multiplicity
 _atom_site_fract_x
 _atom_site_fract_y
 _atom_site_fract_z
 _atom_site_occupancy
  Na  Na0  1  0.63976109  0.00233136  0.25465385  1
  Na  Na1  1  0.00256957  0.62628925  0.24859787  1
  Na  Na2  1  0.63264155  0.63629538  0.74554673  1
  Na  Na3  1  0.36637784  0.01033389  0.75513459  1
  Na  Na4  1  0.66714517  0.95707107  0.58545931  1
  Na  Na5  1  0.97080144  0.67704859  0.92111536  1
  Na  Na6  1  0.70017015  0.02592803  0.91352442  1
  Na  Na7  1  0.96767633  0.30488479  0.41069066  1
  Na  Na8  1  0.70501938  0.68046314  0.42261780  1
  Na  Na9  1  0.00898040  0.98666497  0.50246487  1
  Na  Na10  1  0.01023477  0.99451772  -0.00008170  1
  Na  Na11  1  0.65369175  0.32647491  0.83206643  1
  Na  Na12  1  0.65933017  0.32398177  0.33291004  1
  Na  Na13  1  0.31411729  0.64190824  0.16126809  1
  Na  Na14  1  0.32387630  0.64052207  0.66560612  1
  Ga  Ga0  1  0.98823858  0.99771596  0.35427943  1
  Ga  Ga1  1  0.00745517  0.01214534  0.85225460  1
  Ga  Ga2  1  0.98445453  0.99299573  0.65239385  1
  Ga  Ga3  1  0.00631359  0.00200400  0.14348938  1
  Ga  Ga4  1  0.64777968  0.33226332  0.68868602  1
  Ga  Ga5  1  0.69567814  0.34199717  0.18073388  1
  Ga  Ga6  1  0.32909406  0.68491146  0.01676102  1
  Ga  Ga7  1  0.34575878  0.67836075  0.51680527  1
  Ga  Ga8  1  0.31506888  0.65937156  0.31945637  1
  Si  Si0  1  0.00885289  0.28897565  0.24938260  1
  Si  Si1  1  0.27726293  0.28959497  0.75054636  1
  Si  Si2  1  0.71214036  0.00972904  0.75066317  1
  Si  Si3  1  0.66558608  0.62260020  0.58466601  1
  Si  Si4  1  0.96551413  0.62954687  0.08330729  1
  Si  Si5  1  0.62028220  0.66730522  0.92010699  1
  Si  Si6  1  0.33258193  0.96214118  0.91717922  1
  Si  Si7  1  0.61890278  0.96122223  0.41757505  1
  Si  Si8  1  0.04729655  0.67469300  0.41818789  1
  Ge  Ge0  1  0.64948229  0.34812964  0.98026898  1
  Ge  Ge1  1  0.68568958  0.34628673  0.48055628  1
  Ge  Ge2  1  0.36434593  0.67745492  0.81397461  1
  S  S0  1  0.29260544  0.00657085  0.24927622  1
  S  S1  1  0.70154147  0.70101237  0.24883145  1
  S  S2  1  0.00225052  0.70487465  0.75049370  1
  S  S3  1  0.96067487  0.33870123  0.58341553  1
  S  S4  1  0.37499979  0.04622186  0.58154515  1
  S  S5  1  0.66687848  0.04257292  0.08273273  1
  S  S6  1  0.38105764  0.33355091  0.08488468  1
  S  S7  1  0.04953575  0.38147137  0.91725960  1
  S  S8  1  0.33626417  0.37360266  0.41709202  1
  O  O0  1  0.21272504  0.02879844  0.30477982  1
  O  O1  1  0.81312731  0.77531765  0.30597849  1
  O  O2  1  0.96706724  0.17016318  0.31051078  1
  O  O3  1  0.20245016  0.15798208  0.80656628  1
  O  O4  1  0.96672605  0.77971382  0.80596782  1
  O  O5  1  0.82211791  0.03087583  0.81253796  1
  O  O6  1  0.77777547  0.94955568  0.69026627  1
  O  O7  1  0.16410640  0.19860927  0.68810070  1
  O  O8  1  0.03490172  0.81713759  0.69711186  1
  O  O9  1  0.78741802  0.81323210  0.19698435  1
  O  O10  1  0.02749451  0.18847967  0.19011733  1
  O  O11  1  0.17846156  0.96802047  0.19482307  1
  O  O12  1  0.87137266  0.35826662  0.63571570  1
  O  O13  1  0.48449801  0.12236503  0.63828635  1
  O  O14  1  0.64376102  0.50988859  0.64431977  1
  O  O15  1  0.88553271  0.52299094  0.14585194  1
  O  O16  1  0.63976812  0.12166477  0.14019111  1
  O  O17  1  0.49132351  0.35235527  0.13873954  1
  O  O18  1  0.45463019  0.29709690  0.02739768  1
  O  O19  1  0.83042940  0.52521433  0.02271368  1
  O  O20  1  0.68541653  0.15032912  0.02941694  1
  O  O21  1  0.46499304  0.15427802  0.52816296  1
  O  O22  1  0.68966906  0.52679745  0.52159822  1
  O  O23  1  0.84698961  0.30156566  0.52467536  1
  O  O24  1  0.52509141  0.70052486  0.97637930  1
  O  O25  1  0.15216472  0.45848657  0.97337859  1
  O  O26  1  0.28136007  0.83292999  0.97315828  1
  O  O27  1  0.54778933  0.83688557  0.47586264  1
  O  O28  1  0.30320378  0.45178506  0.47162349  1
  O  O29  1  0.16537339  0.69203716  0.47653331  1
  O  O30  1  0.10782933  0.61448888  0.35636336  1
  O  O31  1  0.50366511  0.87085434  0.35483364  1
  O  O32  1  0.37137334  0.48603569  0.36344855  1
  O  O33  1  0.12789463  0.49257913  0.86371714  1
  O  O34  1  0.37803093  0.87396971  0.85595107  1
  O  O35  1  0.50848831  0.62741225  0.85519447  1
  O  O36  1  0.01642041  0.84252772  0.40969222  1
  O  O37  1  0.82040514  0.99418997  0.41211632  1
  O  O38  1  0.17884654  0.19676808  0.40962043  1
  O  O39  1  0.02401703  0.20105636  0.91262680  1
  O  O40  1  0.16134641  0.98252098  0.90854813  1
  O  O41  1  0.81756396  0.83964381  0.91355566  1
  O  O42  1  0.97223405  0.17552929  0.58414586  1
  O  O43  1  0.20161639  0.02899168  0.58559961  1
  O  O44  1  0.84528209  0.82262751  0.58717241  1
  O  O45  1  0.97703197  0.82397173  0.08779027  1
  O  O46  1  0.82801461  0.03049843  0.08666923  1
  O  O47  1  0.20442351  0.17376295  0.08648694  1
  O  O48  1  0.68114904  0.17698892  0.74185630  1
  O  O49  1  0.48195822  0.32610671  0.74640592  1
  O  O50  1  0.84513141  0.52708169  0.74285661  1
  O  O51  1  0.67967920  0.52106135  0.24300516  1
  O  O52  1  0.82629247  0.30808411  0.24538703  1
  O  O53  1  0.47034271  0.16452270  0.24360439  1
  O  O54  1  0.64545530  0.49051015  0.92274591  1
  O  O55  1  0.86807276  0.36004654  0.92055355  1
  O  O56  1  0.52533696  0.15343187  0.92757975  1
  O  O57  1  0.64010566  0.16136870  0.42696243  1
  O  O58  1  0.49572229  0.35662872  0.42284023  1
  O  O59  1  0.84275390  0.49505764  0.42403161  1
  O  O60  1  0.37064880  0.49392376  0.07985646  1
  O  O61  1  0.15524403  0.64044086  0.07656558  1
  O  O62  1  0.50877680  0.86476301  0.07989721  1
  O  O63  1  0.36103045  0.86862477  0.57775088  1
  O  O64  1  0.49085454  0.64679960  0.57782173  1
  O  O65  1  0.13347834  0.49696187  0.57734609  1
  O  O66  1  0.31517369  0.84681222  0.25249289  1
  O  O67  1  0.52964985  0.69036086  0.25532255  1
  O  O68  1  0.18042881  0.49158222  0.25488889  1
  O  O69  1  0.29803833  0.49011478  0.75824108  1
  O  O70  1  0.16264977  0.69142889  0.75706582  1
  O  O71  1  0.50852358  0.82788396  0.75526148  1
loop_
_geom_bond_atom_site_label_1
_geom_bond_atom_site_label_2
_geom_bond_distance
_geom_bond_site_symmetry_2
Na0 O52 2.346005 1_555
Na0 O67 2.393668 1_545
Na0 O66 2.468864 1_545
Na0 O31 2.531587 1_545
Na0 O53 2.536046 1_555
Na0 O2 2.751047 1_555
Na0 O16 2.752073 1_555
Na0 O9 2.853317 1_545
Na1 O68 2.390796 1_555
Na1 O52 2.409516 1_455
Na1 O15 2.437212 1_455
Na1 O66 2.438138 1_555
Na1 O51 2.508289 1_455
Na1 O30 2.565234 1_555
Na1 O1 2.868973 1_455
Na1 O11 2.876229 1_555
Na2 O49 2.346345 1_555
Na2 O71 2.424471 1_555
Na2 O50 2.491752 1_555
Na2 O14 2.493539 1_555
Na2 O69 2.573749 1_555
Na2 O35 2.648386 1_555
Na2 O6 2.698293 1_555
Na2 O4 2.852118 1_555
Na3 O48 2.419287 1_555
Na3 O49 2.429692 1_555
Na3 O70 2.444176 1_545
Na3 O71 2.474011 1_545
Na3 O34 2.570896 1_545
Na3 O3 2.621934 1_555
Na3 O13 2.794983 1_555
Na3 O8 2.806684 1_545
Na4 O64 2.354076 1_555
Na4 O44 2.386884 1_555
Na4 O42 2.387835 1_565
Na4 O63 2.402360 1_555
Na4 O6 2.514234 1_555
Na4 O27 2.603529 1_555
Na4 O13 2.885909 1_565
Na4 O23 2.966610 1_565
Na5 O40 2.358553 1_655
Na5 O41 2.409378 1_555
Na5 O55 2.446377 1_555
Na5 O54 2.482664 1_555
Na5 O26 2.601606 1_655
Na5 O19 2.614855 1_556
Na5 O4 2.717289 1_555
Na5 O33 2.881461 1_655
Na6 O41 2.327361 1_545
Na6 O56 2.329513 1_555
Na6 O39 2.465211 1_655
Na6 O5 2.472063 1_555
Na6 O55 2.526301 1_555
Na6 O34 2.735348 1_545
Na6 O20 2.784935 1_556
Na6 O24 2.863137 1_545
Na7 O37 2.351442 1_545
Na7 O59 2.426310 1_555
Na7 O38 2.472959 1_655
Na7 O2 2.479224 1_555
Na7 O57 2.531804 1_555
Na7 O30 2.664689 1_655
Na7 O23 2.732092 1_555
Na7 O28 2.864804 1_655
Na8 O36 2.392122 1_655
Na8 O37 2.417898 1_555
Na8 O59 2.465750 1_555
Na8 O58 2.483850 1_555
Na8 O22 2.557167 1_555
Na8 O27 2.651092 1_555
Na8 O1 2.747763 1_555
Na8 O32 2.832399 1_555
Na9 O43 2.377361 1_565
Na9 O44 2.389281 1_455
Na9 O36 2.397949 1_555
Na9 O42 2.548530 1_465
Na9 O37 2.604004 1_455
Na9 O38 2.694284 1_565
Na10 O45 2.400695 1_455
Na10 O41 2.419171 1_454
Na10 O40 2.452857 1_554
Na10 O47 2.476882 1_565
Na10 O46 2.620056 1_465
Na10 O39 2.630569 1_564
Na11 O49 2.406868 1_555
Na11 O48 2.436529 1_555
Na11 O54 2.458224 1_555
Na11 O56 2.542555 1_555
Na11 O55 2.607875 1_555
Na11 O50 2.650129 1_555
Na12 O53 2.464563 1_555
Na12 O52 2.479139 1_555
Na12 O57 2.499196 1_555
Na12 O59 2.501930 1_555
Na12 O58 2.554509 1_555
Na12 O51 2.603760 1_555
Na13 O61 2.318436 1_555
Na13 O60 2.388982 1_555
Na13 O68 2.445486 1_555
Na13 O62 2.608214 1_555
Na13 O66 2.661442 1_555
Na13 O67 2.675320 1_555
Na14 O69 2.404096 1_555
Na14 O64 2.425355 1_555
Na14 O65 2.426332 1_555
Na14 O71 2.520653 1_555
Na14 O70 2.631498 1_555
Na14 O63 2.714001 1_555
Ga0 O2 1.893505 1_565
Ga0 O37 1.948766 1_555
Ga0 O36 1.950214 1_655
Ga0 O1 2.038826 1_555
Ga0 O38 2.065238 1_665
Ga0 O0 2.162892 1_665
Ga1 O3 1.863215 1_555
Ga1 O5 1.924100 1_455
Ga1 O40 1.943629 1_545
Ga1 O39 2.044974 1_555
Ga1 O4 2.115149 1_445
Ga1 O41 2.118808 1_445
Ga2 O7 1.846268 1_665
Ga2 O6 1.869436 1_555
Ga2 O44 1.956126 1_555
Ga2 O8 2.069242 1_655
Ga2 O42 2.258544 1_565
Ga2 O43 2.320510 1_665
Ga3 O10 1.835760 1_555
Ga3 O45 1.872656 1_445
Ga3 O11 2.024923 1_545
Ga3 O47 2.088829 1_555
Ga3 O46 2.112854 1_455
Ga3 O9 2.180481 1_445
Ga4 O14 1.869287 1_555
Ga4 O49 1.925790 1_555
Ga4 O48 1.941818 1_555
Ga4 O13 1.974337 1_555
Ga4 O50 2.059609 1_555
Ga4 O12 2.211131 1_555
Ga5 O15 1.817907 1_555
Ga5 O16 1.928462 1_555
Ga5 O52 1.942291 1_555
Ga5 O17 2.058130 1_555
Ga5 O51 2.118899 1_555
Ga5 O53 2.304389 1_555
Ga6 O26 1.836287 1_554
Ga6 O24 1.892486 1_554
Ga6 O61 1.920956 1_555
Ga6 O25 2.012347 1_554
Ga6 O62 2.067372 1_555
Ga6 O60 2.359669 1_555
Ga7 O29 1.868669 1_555
Ga7 O27 1.871329 1_555
Ga7 O64 1.963563 1_555
Ga7 O28 2.054627 1_555
Ga7 O63 2.065846 1_555
Ga7 O65 2.223680 1_555
Ga8 O30 1.860602 1_555
Ga8 O31 1.899853 1_555
Ga8 O68 1.926848 1_555
Ga8 O32 2.073026 1_555
Ga8 O66 2.230128 1_555
Ga8 O67 2.277669 1_555
Ge0 O19 1.799560 1_556
Ge0 O54 1.809463 1_555
Ge0 O56 1.860681 1_555
Ge0 O18 1.871068 1_556
Ge0 O20 2.212513 1_556
Ge0 O55 2.300777 1_555
Ge1 O22 1.787449 1_555
Ge1 O57 1.851724 1_555
Ge1 O59 1.857328 1_555
Ge1 O23 1.914103 1_555
Ge1 O21 2.127619 1_555
Ge1 O58 2.130691 1_555
Ge2 O35 1.783613 1_555
Ge2 O71 1.855202 1_555
Ge2 O69 1.863596 1_555
Ge2 O34 1.883236 1_555
Ge2 O33 2.209273 1_555
Ge2 O70 2.218844 1_555
O0 S0 1.473733 1_555
O1 S1 1.507792 1_555
O2 Si0 1.648603 1_655
O3 Si1 1.612179 1_555
O4 S2 1.483201 1_655
O5 Si2 1.617528 1_555
O6 Si2 1.634862 1_565
O7 Si1 1.627884 1_555
O8 S2 1.485012 1_555
O9 S1 1.469698 1_555
O10 Si0 1.614218 1_555
O11 S0 1.477588 1_565
O12 S3 1.455795 1_555
O13 S4 1.494249 1_555
O14 Si3 1.615528 1_555
O15 Si4 1.636980 1_555
O16 S5 1.507810 1_555
O17 S6 1.479219 1_555
O18 S6 1.527077 1_555
O19 Si4 1.690175 1_555
O20 S5 1.481362 1_555
O21 S4 1.489443 1_555
O22 Si3 1.677384 1_555
O23 S3 1.553820 1_555
O24 Si5 1.604079 1_555
O25 S7 1.459869 1_555
O26 Si6 1.600909 1_555
O27 Si7 1.617819 1_555
O28 S8 1.472513 1_555
O29 Si8 1.601772 1_555
O30 Si8 1.637949 1_555
O31 Si7 1.639085 1_555
O32 S8 1.487843 1_555
O33 S7 1.484774 1_555
O34 Si6 1.688665 1_555
O35 Si5 1.656700 1_555
O36 Si8 1.636256 1_555
O37 Si7 1.652885 1_555
O38 S8 1.472346 1_555
O39 S7 1.479216 1_555
O40 Si6 1.613875 1_555
O41 Si5 1.639585 1_555
O42 S3 1.481718 1_555
O43 S4 1.459369 1_555
O44 Si3 1.666063 1_555
O45 Si4 1.652957 1_555
O46 S5 1.475705 1_555
O47 S6 1.479257 1_555
O48 Si2 1.632862 1_555
O49 Si1 1.667234 1_555
O50 S2 1.476413 1_655
O51 S1 1.489289 1_555
O52 Si0 1.698289 1_655
O53 S0 1.485864 1_555
O54 Si5 1.671270 1_555
O55 S7 1.513709 1_655
O56 Si6 1.688261 1_545
O57 Si7 1.672837 1_545
O58 S8 1.487900 1_555
O59 Si8 1.700856 1_655
O60 S6 1.457779 1_555
O61 Si4 1.631899 1_455
O62 S5 1.475103 1_565
O63 S4 1.496043 1_565
O64 Si3 1.660101 1_555
O65 S3 1.463062 1_455
O66 S0 1.510382 1_565
O67 S1 1.476261 1_555
O68 Si0 1.652479 1_555
O69 Si1 1.674335 1_555
O70 S2 1.480108 1_555
O71 Si2 1.701113 1_565
