# generated using pymatgen
data_MgSc2Nb2O8
_symmetry_space_group_name_H-M   'P 1'
_cell_length_a   5.30879407
_cell_length_b   5.27658190
_cell_length_c   6.21653386
_cell_angle_alpha   85.80716966
_cell_angle_beta   96.43507752
_cell_angle_gamma   104.29236248
_symmetry_Int_Tables_number   1
_chemical_formula_structural   MgSc2Nb2O8
_chemical_formula_sum   'Mg1 Sc2 Nb2 O8'
_cell_volume   167.49942975
_cell_formula_units_Z   1
loop_
 _symmetry_equiv_pos_site_id
 _symmetry_equiv_pos_as_xyz
  1  'x, y, z'
loop_
 _atom_site_type_symbol
 _atom_site_label
 _atom_site_symmetry_multiplicity
 _atom_site_fract_x
 _atom_site_fract_y
 _atom_site_fract_z
 _atom_site_occupancy
  Mg  Mg0  1  0.66952520  0.90293066  0.33787687  1
  Sc  Sc0  1  0.50948036  0.79219545  0.80746397  1
  Sc  Sc1  1  0.42901135  0.30104034  0.42593837  1
  Nb  Nb0  1  -0.00098630  0.28917043  0.85489487  1
  Nb  Nb1  1  0.02298738  0.70001291  0.10187258  1
  O  O0  1  0.75205156  0.52976296  0.84521760  1
  O  O1  1  0.20745154  0.94367770  0.88096445  1
  O  O2  1  0.78128242  0.00100266  0.04853420  1
  O  O3  1  0.30019898  0.93142487  0.33070488  1
  O  O4  1  0.70749288  0.08069910  0.61236920  1
  O  O5  1  0.24031179  0.42836585  0.13738350  1
  O  O6  1  0.25195646  0.44937127  0.65184386  1
  O  O7  1  0.75423637  0.56284581  0.31910267  1
loop_
_geom_bond_atom_site_label_1
_geom_bond_atom_site_label_2
_geom_bond_distance
_geom_bond_site_symmetry_2
Mg0 O2 1.951065 1_565
Mg0 O7 1.968980 1_555
Mg0 O4 1.973795 1_565
Mg0 O3 1.998455 1_555
Nb0 O6 1.942814 1_555
Nb0 O0 2.031529 1_455
Nb0 O2 2.067277 1_456
Nb0 O5 2.117574 1_556
Nb0 O4 2.181097 1_455
Nb0 O1 2.342378 1_545
Nb1 O1 1.979792 1_554
Nb1 O5 2.036546 1_555
Nb1 O7 2.040142 1_455
Nb1 O0 2.116290 1_454
Nb1 O3 2.139602 1_555
Nb1 O2 2.261115 1_465
O0 Sc0 2.096690 1_555
O1 Sc0 2.066156 1_555
O2 Sc0 2.124536 1_544
O3 Sc1 2.010326 1_565
O4 Sc0 2.029551 1_545
O4 Sc1 2.268957 1_555
O5 Sc1 2.103793 1_555
O6 Sc1 2.070781 1_555
O6 Sc0 2.194450 1_555
O7 Sc1 2.067774 1_555
