# generated using pymatgen
data_LiVPO5
_symmetry_space_group_name_H-M   'P 1'
_cell_length_a   10.46496700
_cell_length_b   4.97630100
_cell_length_c   7.22255703
_cell_angle_alpha   70.20623019
_cell_angle_beta   90.00000000
_cell_angle_gamma   90.00000000
_symmetry_Int_Tables_number   1
_chemical_formula_structural   LiVPO5
_chemical_formula_sum   'Li4 V4 P4 O20'
_cell_volume   353.90530679
_cell_formula_units_Z   4
loop_
 _symmetry_equiv_pos_site_id
 _symmetry_equiv_pos_as_xyz
  1  'x, y, z'
loop_
 _atom_site_type_symbol
 _atom_site_label
 _atom_site_symmetry_multiplicity
 _atom_site_fract_x
 _atom_site_fract_y
 _atom_site_fract_z
 _atom_site_occupancy
  Li  Li0  1  0.89488500  0.03744200  0.83588000  1
  Li  Li1  1  0.39488500  0.96255800  0.66412000  1
  Li  Li2  1  0.60511500  0.03744200  0.33588000  1
  Li  Li3  1  0.10511500  0.96255800  0.16412000  1
  V  V0  1  0.07764900  0.57971800  0.82003900  1
  V  V1  1  0.57764900  0.42028200  0.67996100  1
  V  V2  1  0.42235100  0.57971800  0.32003900  1
  V  V3  1  0.92235100  0.42028200  0.17996100  1
  P  P0  1  0.64996100  0.80201700  0.97264600  1
  P  P1  1  0.85003900  0.80201700  0.47264600  1
  P  P2  1  0.14996100  0.19798300  0.52735400  1
  P  P3  1  0.35003900  0.19798300  0.02735400  1
  O  O0  1  0.72289000  0.64459300  0.53438400  1
  O  O1  1  0.42711000  0.20022600  0.84440000  1
  O  O2  1  0.04090100  0.73366000  0.99917000  1
  O  O3  1  0.57035600  0.67509600  0.84202900  1
  O  O4  1  0.69049500  0.11648200  0.84801900  1
  O  O5  1  0.92711000  0.79977400  0.65560000  1
  O  O6  1  0.19049500  0.88351800  0.65198100  1
  O  O7  1  0.22289000  0.35540700  0.96561600  1
  O  O8  1  0.45909900  0.73366000  0.49917000  1
  O  O9  1  0.07035600  0.32490400  0.65797100  1
  O  O10  1  0.92964400  0.67509600  0.34202900  1
  O  O11  1  0.54090100  0.26634000  0.50083000  1
  O  O12  1  0.77711000  0.64459300  0.03438400  1
  O  O13  1  0.80950500  0.11648200  0.34801900  1
  O  O14  1  0.07289000  0.20022600  0.34440000  1
  O  O15  1  0.30950500  0.88351800  0.15198100  1
  O  O16  1  0.42964400  0.32490400  0.15797100  1
  O  O17  1  0.95909900  0.26634000  0.00083000  1
  O  O18  1  0.57289000  0.79977400  0.15560000  1
  O  O19  1  0.27711000  0.35540700  0.46561600  1
loop_
_geom_bond_atom_site_label_1
_geom_bond_atom_site_label_2
_geom_bond_distance
_geom_bond_site_symmetry_2
Li0 O17 2.021750 1_556
Li0 O5 2.061778 1_545
Li0 O4 2.181923 1_555
Li0 O2 2.191722 1_645
Li0 O12 2.344805 1_546
Li0 O9 2.413404 1_655
Li1 O8 2.021750 1_555
Li1 O1 2.061778 1_565
Li1 O6 2.181923 1_555
Li1 O11 2.191722 1_565
Li1 O19 2.344805 1_565
Li1 O3 2.413404 1_555
Li2 O11 2.021750 1_555
Li2 O18 2.061778 1_545
Li2 O13 2.181923 1_555
Li2 O8 2.191722 1_545
Li2 O0 2.344805 1_545
Li2 O16 2.413404 1_555
Li3 O2 2.021750 1_554
Li3 O14 2.061778 1_565
Li3 O15 2.181923 1_555
Li3 O17 2.191722 1_465
Li3 O7 2.344805 1_564
Li3 O10 2.413404 1_455
O0 P1 1.531820 1_555
O0 V1 1.966431 1_555
O1 P3 1.544907 1_556
O1 V1 2.052005 1_555
O2 V0 1.754957 1_555
O2 V3 2.072916 1_456
O3 P0 1.544810 1_555
O3 V1 1.997291 1_555
O4 P0 1.576387 1_545
O4 V1 1.977536 1_555
O5 P1 1.544907 1_555
O5 V0 2.052005 1_655
O6 P2 1.576387 1_565
O6 V0 1.977536 1_555
O7 P3 1.531820 1_556
O7 V0 1.966431 1_555
O8 V2 1.754957 1_555
O8 V1 2.072916 1_555
O9 P2 1.544810 1_555
O9 V0 1.997291 1_555
O10 P1 1.544810 1_555
O10 V3 1.997291 1_555
O11 V1 1.754957 1_555
O11 V2 2.072916 1_555
O12 P0 1.531820 1_554
O12 V3 1.966431 1_555
O13 P1 1.576387 1_545
O13 V3 1.977536 1_555
O14 P2 1.544907 1_555
O14 V3 2.052005 1_455
O15 P3 1.576387 1_565
O15 V2 1.977536 1_555
O16 P3 1.544810 1_555
O16 V2 1.997291 1_555
O17 V3 1.754957 1_555
O17 V0 2.072916 1_654
O18 P0 1.544907 1_554
O18 V2 2.052005 1_555
O19 P2 1.531820 1_555
O19 V2 1.966431 1_555
