# generated using pymatgen
data_MgCrP2S7
_symmetry_space_group_name_H-M   'P 1'
_cell_length_a   6.86225201
_cell_length_b   6.77336749
_cell_length_c   6.95271996
_cell_angle_alpha   90.21237543
_cell_angle_beta   91.82086272
_cell_angle_gamma   85.00075441
_symmetry_Int_Tables_number   1
_chemical_formula_structural   MgCrP2S7
_chemical_formula_sum   'Mg1 Cr1 P2 S7'
_cell_volume   321.77420329
_cell_formula_units_Z   1
loop_
 _symmetry_equiv_pos_site_id
 _symmetry_equiv_pos_as_xyz
  1  'x, y, z'
loop_
 _atom_site_type_symbol
 _atom_site_label
 _atom_site_symmetry_multiplicity
 _atom_site_fract_x
 _atom_site_fract_y
 _atom_site_fract_z
 _atom_site_occupancy
  Mg  Mg0  1  0.28894951  0.95198498  0.03618496  1
  Cr  Cr0  1  0.50650334  0.50869722  0.98498927  1
  P  P0  1  0.05195360  0.61912700  0.08913002  1
  P  P1  1  0.65881679  0.07879891  0.88835976  1
  S  S0  1  0.18096000  0.50329864  0.84483166  1
  S  S1  1  0.51427885  0.82808542  0.78984252  1
  S  S2  1  0.31606428  0.64115599  0.25420281  1
  S  S3  1  0.95110496  0.91951306  0.08368307  1
  S  S4  1  0.61327521  0.32545355  0.71404326  1
  S  S5  1  0.83373944  0.46965268  0.18766447  1
  S  S6  1  0.51635303  0.19039754  0.13706819  1
loop_
_geom_bond_atom_site_label_1
_geom_bond_atom_site_label_2
_geom_bond_distance
_geom_bond_site_symmetry_2
Mg0 S3 2.381251 1_455
Mg0 S6 2.428197 1_565
Mg0 S1 2.441357 1_554
Mg0 S2 2.588884 1_555
Cr0 S4 2.353294 1_555
Cr0 S6 2.399523 1_556
Cr0 S0 2.411877 1_555
Cr0 S2 2.440276 1_556
Cr0 S1 2.563249 1_555
Cr0 S5 2.606992 1_556
P0 S5 2.017740 1_455
P0 S0 2.061283 1_554
P0 S3 2.091307 1_455
P0 S2 2.130243 1_555
P1 S4 2.063412 1_555
P1 S6 2.118067 1_556
P1 S1 2.139745 1_545
P1 S3 2.547926 1_546
