# generated using pymatgen
data_NiBi
_symmetry_space_group_name_H-M   'P 1'
_cell_length_a   3.59129551
_cell_length_b   3.59129551
_cell_length_c   7.24702700
_cell_angle_alpha   90.00000000
_cell_angle_beta   90.00000000
_cell_angle_gamma   119.99999093
_symmetry_Int_Tables_number   1
_chemical_formula_structural   NiBi
_chemical_formula_sum   'Ni2 Bi2'
_cell_volume   80.94552334
_cell_formula_units_Z   2
loop_
 _symmetry_equiv_pos_site_id
 _symmetry_equiv_pos_as_xyz
  1  'x, y, z'
loop_
 _atom_site_type_symbol
 _atom_site_label
 _atom_site_symmetry_multiplicity
 _atom_site_fract_x
 _atom_site_fract_y
 _atom_site_fract_z
 _atom_site_occupancy
  Ni  Ni0  1  0.66666700  0.33333300  0.75000000  1
  Ni  Ni1  1  0.33333300  0.66666700  0.25000000  1
  Bi  Bi0  1  0.00000000  0.00000000  0.50000000  1
  Bi  Bi1  1  0.00000000  0.00000000  0.00000000  1
loop_
_geom_bond_atom_site_label_1
_geom_bond_atom_site_label_2
_geom_bond_distance
_geom_bond_site_symmetry_2
Bi0 Ni0 2.753468 1_455
Bi0 Ni1 2.753468 1_545
Bi0 Ni0 2.753471 1_445
Bi0 Ni1 2.753471 1_555
Bi0 Ni0 2.753471 1_555
Bi0 Ni1 2.753471 1_445
Bi1 Ni0 2.753468 1_454
Bi1 Ni1 2.753468 1_545
Bi1 Ni0 2.753471 1_444
Bi1 Ni1 2.753471 1_555
Bi1 Ni1 2.753471 1_445
Bi1 Ni0 2.753471 1_554
