# generated using pymatgen
data_MgFe2(BiO3)2
_symmetry_space_group_name_H-M   'P 1'
_cell_length_a   5.68397003
_cell_length_b   5.64977420
_cell_length_c   6.45571482
_cell_angle_alpha   64.12517888
_cell_angle_beta   62.55301502
_cell_angle_gamma   59.97571008
_symmetry_Int_Tables_number   1
_chemical_formula_structural   MgFe2(BiO3)2
_chemical_formula_sum   'Mg1 Fe2 Bi2 O6'
_cell_volume   153.47170854
_cell_formula_units_Z   1
loop_
 _symmetry_equiv_pos_site_id
 _symmetry_equiv_pos_as_xyz
  1  'x, y, z'
loop_
 _atom_site_type_symbol
 _atom_site_label
 _atom_site_symmetry_multiplicity
 _atom_site_fract_x
 _atom_site_fract_y
 _atom_site_fract_z
 _atom_site_occupancy
  Mg  Mg0  1  0.62158355  0.64896470  0.08162500  1
  Fe  Fe0  1  0.20989751  0.23671812  0.31499249  1
  Fe  Fe1  1  0.80663868  0.80853188  0.56262287  1
  Bi  Bi0  1  0.44526007  0.45469421  0.64246560  1
  Bi  Bi1  1  0.97613009  0.00285923  0.01182698  1
  O  O0  1  0.85785602  0.24350699  0.31551273  1
  O  O1  1  0.20341730  0.58363688  0.33161258  1
  O  O2  1  0.55808883  0.88652549  0.30574617  1
  O  O3  1  0.43793271  0.01186670  0.81477479  1
  O  O4  1  0.99585870  0.72111184  0.83324979  1
  O  O5  1  0.69762155  0.43805997  0.84132398  1
loop_
_geom_bond_atom_site_label_1
_geom_bond_atom_site_label_2
_geom_bond_distance
_geom_bond_site_symmetry_2
Mg0 O4 2.101344 1_554
Mg0 O5 2.119701 1_554
Mg0 O3 2.166619 1_564
Mg0 O2 2.180342 1_555
Mg0 O0 2.258904 1_555
Mg0 O1 2.282986 1_555
Fe0 O2 1.977511 1_545
Fe0 O0 1.980547 1_455
Fe0 O1 1.990523 1_555
Fe1 O3 2.107027 1_565
Fe1 O1 2.147202 1_655
Fe1 O4 2.213700 1_555
Fe1 O5 2.232795 1_555
Fe1 O0 2.352671 1_565
Fe1 O2 2.416404 1_555
Bi0 O3 2.265172 1_555
Bi0 O5 2.274161 1_555
Bi0 O4 2.275437 1_455
Bi0 O0 2.492652 1_555
Bi0 O1 2.590817 1_555
Bi0 O2 2.596280 1_555
Bi1 O5 2.260997 1_554
Bi1 O4 2.275825 1_544
Bi1 O3 2.347294 1_654
Bi1 O2 2.448763 1_545
Bi1 O0 2.518111 1_555
Bi1 O1 2.582542 1_645
