# generated using pymatgen
data_MgMnV4O12
_symmetry_space_group_name_H-M   'P 1'
_cell_length_a   6.89813056
_cell_length_b   6.89814532
_cell_length_c   5.94052518
_cell_angle_alpha   74.59725945
_cell_angle_beta   105.40270911
_cell_angle_gamma   96.22207894
_symmetry_Int_Tables_number   1
_chemical_formula_structural   MgMnV4O12
_chemical_formula_sum   'Mg1 Mn1 V4 O12'
_cell_volume   262.51677557
_cell_formula_units_Z   1
loop_
 _symmetry_equiv_pos_site_id
 _symmetry_equiv_pos_as_xyz
  1  'x, y, z'
loop_
 _atom_site_type_symbol
 _atom_site_label
 _atom_site_symmetry_multiplicity
 _atom_site_fract_x
 _atom_site_fract_y
 _atom_site_fract_z
 _atom_site_occupancy
  Mg  Mg0  1  0.08789200  0.08789000  0.75000100  1
  Mn  Mn0  1  0.91225300  0.91225900  0.24999900  1
  V  V0  1  0.20745300  0.61263300  0.75548100  1
  V  V1  1  0.38314500  0.78958600  0.25173300  1
  V  V2  1  0.61263300  0.20745300  0.74451900  1
  V  V3  1  0.78958600  0.38314600  0.24826500  1
  O  O0  1  0.04193700  0.80437500  0.64479400  1
  O  O1  1  0.09164200  0.38439600  0.77442900  1
  O  O2  1  0.19270900  0.95659000  0.13003200  1
  O  O3  1  0.36378500  0.64922100  0.54747900  1
  O  O4  1  0.38439900  0.09164200  0.72557600  1
  O  O5  1  0.35357300  0.62851500  0.05032300  1
  O  O6  1  0.64923000  0.36378900  0.95251800  1
  O  O7  1  0.61006600  0.90831000  0.27255200  1
  O  O8  1  0.62851400  0.35357300  0.44967400  1
  O  O9  1  0.80437200  0.04193400  0.85520400  1
  O  O10  1  0.90830400  0.61006400  0.22745200  1
  O  O11  1  0.95659500  0.19271500  0.36996700  1
loop_
_geom_bond_atom_site_label_1
_geom_bond_atom_site_label_2
_geom_bond_distance
_geom_bond_site_symmetry_2
Mg0 O4 2.085505 1_555
Mg0 O1 2.085510 1_555
Mg0 O2 2.151392 1_546
Mg0 O11 2.151409 1_455
Mg0 O0 2.173851 1_545
Mg0 O9 2.173868 1_455
Mn0 O7 2.120859 1_555
Mn0 O10 2.120907 1_555
Mn0 O2 2.198307 1_655
Mn0 O11 2.198312 1_565
Mn0 O9 2.226457 1_564
Mn0 O0 2.226469 1_655
O0 V0 1.718125 1_555
O1 V0 1.676497 1_555
O2 V1 1.719485 1_555
O3 V1 1.798603 1_555
O3 V0 1.799063 1_555
O4 V2 1.676478 1_555
O5 V1 1.798639 1_555
O5 V0 1.798880 1_554
O6 V3 1.798586 1_556
O6 V2 1.799065 1_555
O7 V1 1.676114 1_555
O8 V3 1.798637 1_555
O8 V2 1.798893 1_555
O9 V2 1.718122 1_555
O10 V3 1.676083 1_555
O11 V3 1.719482 1_555
