# generated using pymatgen
data_K(BH)6
_symmetry_space_group_name_H-M   'P 1'
_cell_length_a   7.45122014
_cell_length_b   7.45122014
_cell_length_c   7.45122014
_cell_angle_alpha   60.00000000
_cell_angle_beta   60.00000000
_cell_angle_gamma   60.00000000
_symmetry_Int_Tables_number   1
_chemical_formula_structural   K(BH)6
_chemical_formula_sum   'K2 B12 H12'
_cell_volume   292.52782745
_cell_formula_units_Z   2
loop_
 _symmetry_equiv_pos_site_id
 _symmetry_equiv_pos_as_xyz
  1  'x, y, z'
loop_
 _atom_site_type_symbol
 _atom_site_label
 _atom_site_symmetry_multiplicity
 _atom_site_fract_x
 _atom_site_fract_y
 _atom_site_fract_z
 _atom_site_occupancy
  K  K0  1  0.75000000  0.75000000  0.75000000  1
  K  K1  1  0.25000000  0.25000000  0.25000000  1
  B  B0  1  0.94721950  0.77956934  0.05278050  1
  B  B1  1  0.77956934  0.94721950  0.22043066  1
  B  B2  1  0.77956934  0.22043066  0.05278050  1
  B  B3  1  0.77956934  0.05278050  0.94721950  1
  B  B4  1  0.22043066  0.77956934  0.94721950  1
  B  B5  1  0.05278050  0.94721950  0.77956934  1
  B  B6  1  0.05278050  0.77956934  0.22043066  1
  B  B7  1  0.22043066  0.94721950  0.05278050  1
  B  B8  1  0.94721950  0.05278050  0.22043066  1
  B  B9  1  0.05278050  0.22043066  0.94721950  1
  B  B10  1  0.22043066  0.05278050  0.77956934  1
  B  B11  1  0.94721950  0.22043066  0.77956934  1
  H  H0  1  0.62396803  0.90712999  0.37603197  1
  H  H1  1  0.90712999  0.62396803  0.09287001  1
  H  H2  1  0.62396803  0.37603197  0.09287001  1
  H  H3  1  0.62396803  0.09287001  0.90712999  1
  H  H4  1  0.37603197  0.62396803  0.90712999  1
  H  H5  1  0.09287001  0.90712999  0.62396803  1
  H  H6  1  0.09287001  0.62396803  0.37603197  1
  H  H7  1  0.37603197  0.90712999  0.09287001  1
  H  H8  1  0.90712999  0.09287001  0.37603197  1
  H  H9  1  0.09287001  0.37603197  0.90712999  1
  H  H10  1  0.37603197  0.09287001  0.62396803  1
  H  H11  1  0.90712999  0.37603197  0.62396803  1
loop_
_geom_bond_atom_site_label_1
_geom_bond_atom_site_label_2
_geom_bond_distance
_geom_bond_site_symmetry_2
B0 H1 1.197282 1_555
B1 H0 1.197282 1_555
B2 H2 1.197282 1_555
B3 H3 1.197282 1_555
B4 H4 1.197282 1_555
B5 H5 1.197282 1_555
B6 H6 1.197282 1_555
B7 H7 1.197282 1_555
B8 H8 1.197282 1_555
B9 H9 1.197282 1_555
B10 H10 1.197282 1_555
B11 H11 1.197282 1_555
H0 K0 2.876141 1_555
H0 K1 2.876141 1_565
H1 K1 2.876141 1_655
H1 K0 2.876141 1_554
H2 K1 2.876141 1_555
H2 K0 2.876141 1_554
H3 K1 2.876141 1_556
H3 K0 2.876141 1_545
H4 K0 2.876141 1_555
H4 K1 2.876141 1_556
H5 K1 2.876141 1_565
H5 K0 2.876141 1_455
H6 K0 2.876141 1_455
H6 K1 2.876141 1_555
H7 K1 2.876141 1_565
H7 K0 2.876141 1_554
H8 K1 2.876141 1_655
H8 K0 2.876141 1_545
H9 K1 2.876141 1_556
H9 K0 2.876141 1_455
H10 K0 2.876141 1_545
H10 K1 2.876141 1_555
H11 K1 2.876141 1_655
H11 K0 2.876141 1_555
