# generated using pymatgen
data_MgFe6(OF)6
_symmetry_space_group_name_H-M   'P 1'
_cell_length_a   5.02643809
_cell_length_b   14.34814472
_cell_length_c   3.07824200
_cell_angle_alpha   90.00000000
_cell_angle_beta   90.00000000
_cell_angle_gamma   91.26862677
_symmetry_Int_Tables_number   1
_chemical_formula_structural   MgFe6(OF)6
_chemical_formula_sum   'Mg1 Fe6 O6 F6'
_cell_volume   221.94858444
_cell_formula_units_Z   1
loop_
 _symmetry_equiv_pos_site_id
 _symmetry_equiv_pos_as_xyz
  1  'x, y, z'
loop_
 _atom_site_type_symbol
 _atom_site_label
 _atom_site_symmetry_multiplicity
 _atom_site_fract_x
 _atom_site_fract_y
 _atom_site_fract_z
 _atom_site_occupancy
  Mg  Mg0  1  0.50000000  0.00000000  0.00000000  1
  Fe  Fe0  1  0.00000000  0.00000000  0.00000000  1
  Fe  Fe1  1  0.04188500  0.34043200  0.00000000  1
  Fe  Fe2  1  0.95811500  0.65956800  0.00000000  1
  Fe  Fe3  1  0.59699900  0.18488300  0.50000000  1
  Fe  Fe4  1  0.50000000  0.50000000  0.50000000  1
  Fe  Fe5  1  0.40300100  0.81511700  0.50000000  1
  O  O0  1  0.25011300  0.94819600  0.50000000  1
  O  O1  1  0.23124900  0.75546600  0.00000000  1
  O  O2  1  0.32103500  0.43462200  0.00000000  1
  O  O3  1  0.67896500  0.56537800  0.00000000  1
  O  O4  1  0.76875100  0.24453400  0.00000000  1
  O  O5  1  0.74988700  0.05180400  0.50000000  1
  F  F0  1  0.23842900  0.27503900  0.50000000  1
  F  F1  1  0.15710700  0.59538300  0.50000000  1
  F  F2  1  0.32619700  0.12148900  0.00000000  1
  F  F3  1  0.67380300  0.87851100  0.00000000  1
  F  F4  1  0.84289300  0.40461700  0.50000000  1
  F  F5  1  0.76157100  0.72496100  0.50000000  1
loop_
_geom_bond_atom_site_label_1
_geom_bond_atom_site_label_2
_geom_bond_distance
_geom_bond_site_symmetry_2
Mg0 O0 2.111321 1_544
Mg0 O0 2.111321 1_545
Mg0 O5 2.111321 1_555
Mg0 O5 2.111321 1_554
Fe0 O0 2.131490 1_544
Fe0 O0 2.131490 1_545
Fe0 O5 2.131490 1_455
Fe0 O5 2.131490 1_454
Fe1 O4 1.922094 1_455
Fe1 O2 1.926455 1_555
Fe2 O1 1.922094 1_655
Fe2 O3 1.926455 1_555
Fe3 O4 1.952946 1_555
Fe3 O4 1.952946 1_556
Fe3 O5 2.074003 1_555
Fe4 O2 2.005162 1_556
Fe4 O2 2.005162 1_555
Fe4 O3 2.005162 1_556
Fe4 O3 2.005162 1_555
Fe5 O1 1.952946 1_555
Fe5 O1 1.952946 1_556
Fe5 O0 2.074003 1_555
F0 Fe1 2.065494 1_555
F0 Fe1 2.065494 1_556
F0 Fe3 2.241641 1_555
F1 Fe2 2.063552 1_456
F1 Fe2 2.063552 1_455
F1 Fe4 2.224407 1_555
F2 Mg0 1.967020 1_555
F2 Fe3 2.234771 1_555
F2 Fe3 2.234771 1_554
F2 Fe0 2.366497 1_555
F3 Mg0 1.967020 1_565
F3 Fe5 2.234771 1_554
F3 Fe5 2.234771 1_555
F3 Fe0 2.366497 1_665
F4 Fe1 2.063552 1_655
F4 Fe1 2.063552 1_656
F4 Fe4 2.224407 1_555
F5 Fe2 2.065494 1_556
F5 Fe2 2.065494 1_555
F5 Fe5 2.241641 1_555
