# generated using pymatgen
data_MgTe4MoW3S4
_symmetry_space_group_name_H-M   'P 1'
_cell_length_a   3.36188300
_cell_length_b   3.36566149
_cell_length_c   43.84679903
_cell_angle_alpha   89.99636174
_cell_angle_beta   90.00000000
_cell_angle_gamma   119.96287952
_symmetry_Int_Tables_number   1
_chemical_formula_structural   MgTe4MoW3S4
_chemical_formula_sum   'Mg1 Te4 Mo1 W3 S4'
_cell_volume   429.81728796
_cell_formula_units_Z   1
loop_
 _symmetry_equiv_pos_site_id
 _symmetry_equiv_pos_as_xyz
  1  'x, y, z'
loop_
 _atom_site_type_symbol
 _atom_site_label
 _atom_site_symmetry_multiplicity
 _atom_site_fract_x
 _atom_site_fract_y
 _atom_site_fract_z
 _atom_site_occupancy
  Mg  Mg0  1  0.00004300  0.00008600  0.36857900  1
  Te  Te0  1  0.33328900  0.66657900  0.70133200  1
  Te  Te1  1  0.66672000  0.33343900  0.05059400  1
  Te  Te2  1  0.66664400  0.33328700  0.13722900  1
  Te  Te3  1  0.33337200  0.66674400  0.61464100  1
  Mo  Mo0  1  0.66657500  0.33314900  0.27666200  1
  W  W0  1  0.33345400  0.66690900  0.09390700  1
  W  W1  1  0.33340500  0.66681000  0.47679800  1
  W  W2  1  0.66661700  0.33323500  0.65798800  1
  S  S0  1  0.33329000  0.66658200  0.31175300  1
  S  S1  1  0.66670500  0.33340800  0.44215600  1
  S  S2  1  0.66663400  0.33326700  0.51126600  1
  S  S3  1  0.33325200  0.66650400  0.24257700  1
loop_
_geom_bond_atom_site_label_1
_geom_bond_atom_site_label_2
_geom_bond_distance
_geom_bond_site_symmetry_2
Mg0 S0 3.159085 1_545
Mg0 S0 3.159088 1_445
Mg0 S0 3.159799 1_555
Te0 W2 2.717068 1_455
Te0 W2 2.717068 1_555
Te0 W2 2.718444 1_565
Te1 W0 2.716247 1_655
Te1 W0 2.716251 1_555
Te1 W0 2.717231 1_545
Te2 W0 2.716582 1_655
Te2 W0 2.716586 1_555
Te2 W0 2.717389 1_545
Te3 W2 2.717231 1_555
Te3 W2 2.717233 1_455
Te3 W2 2.718391 1_565
Mo0 S3 2.450251 1_655
Mo0 S3 2.450254 1_555
Mo0 S3 2.452036 1_545
Mo0 S0 2.477577 1_655
Mo0 S0 2.477584 1_555
Mo0 S0 2.478815 1_545
S1 W1 2.465364 1_655
S1 W1 2.465369 1_555
S1 W1 2.466716 1_545
S2 W1 2.460746 1_655
S2 W1 2.460749 1_555
S2 W1 2.461876 1_545
