# generated using pymatgen
data_NaCa3Ta(SO4)6
_symmetry_space_group_name_H-M   'P 1'
_cell_length_a   9.13071965
_cell_length_b   9.13071933
_cell_length_c   23.90983931
_cell_angle_alpha   90.00000000
_cell_angle_beta   90.00000000
_cell_angle_gamma   120.00000119
_symmetry_Int_Tables_number   1
_chemical_formula_structural   NaCa3Ta(SO4)6
_chemical_formula_sum   'Na3 Ca9 Ta3 S18 O72'
_cell_volume   1726.30403419
_cell_formula_units_Z   3
loop_
 _symmetry_equiv_pos_site_id
 _symmetry_equiv_pos_as_xyz
  1  'x, y, z'
loop_
 _atom_site_type_symbol
 _atom_site_label
 _atom_site_symmetry_multiplicity
 _atom_site_fract_x
 _atom_site_fract_y
 _atom_site_fract_z
 _atom_site_occupancy
  Na  Na0  1  0.00000000  -0.00000000  0.00623998  1
  Na  Na1  1  0.66666700  0.33333300  0.83754986  1
  Na  Na2  1  0.66666700  0.33333300  0.31850584  1
  Ca  Ca0  1  0.00000000  -0.00000000  0.35282219  1
  Ca  Ca1  1  0.00000000  -0.00000000  0.85986858  1
  Ca  Ca2  1  0.00000000  -0.00000000  0.15431394  1
  Ca  Ca3  1  0.66666700  0.33333300  0.67848953  1
  Ca  Ca4  1  0.66666700  0.33333300  0.18243365  1
  Ca  Ca5  1  0.66666700  0.33333300  0.98466206  1
  Ca  Ca6  1  0.66666700  0.33333300  0.48608967  1
  Ca  Ca7  1  0.33333300  0.66666700  0.30584894  1
  Ca  Ca8  1  0.33333300  0.66666700  0.80601371  1
  Ta  Ta0  1  0.00000000  -0.00000000  0.64856999  1
  Ta  Ta1  1  0.33333300  0.66666700  0.02012092  1
  Ta  Ta2  1  0.33333300  0.66666700  0.51417366  1
  S  S0  1  0.30306925  0.01056477  0.25161042  1
  S  S1  1  0.70749552  0.69693075  0.25161042  1
  S  S2  1  0.98943523  0.29250448  0.25161042  1
  S  S3  1  0.28459248  0.27948317  0.74787028  1
  S  S4  1  0.99489069  0.71540752  0.74787028  1
  S  S5  1  0.72051683  0.00510931  0.74787028  1
  S  S6  1  0.97997925  0.33356012  0.58393107  1
  S  S7  1  0.35358187  0.02002075  0.58393107  1
  S  S8  1  0.66643988  0.64641813  0.58393107  1
  S  S9  1  0.97543878  0.63759012  0.07848657  1
  S  S10  1  0.66215234  0.02456122  0.07848657  1
  S  S11  1  0.36240988  0.33784766  0.07848657  1
  S  S12  1  0.61593040  0.66664724  0.91863067  1
  S  S13  1  0.05071584  0.38406960  0.91863067  1
  S  S14  1  0.33335276  0.94928416  0.91863067  1
  S  S15  1  0.61937658  0.95533474  0.41816659  1
  S  S16  1  0.33595715  0.38062342  0.41816659  1
  S  S17  1  0.04466526  0.66404285  0.41816659  1
  O  O0  1  0.21876062  0.02882903  0.30214332  1
  O  O1  1  0.81006841  0.78123938  0.30214332  1
  O  O2  1  0.97117097  0.18993159  0.30214332  1
  O  O3  1  0.20579495  0.18025867  0.79797129  1
  O  O4  1  0.97446372  0.79420505  0.79797129  1
  O  O5  1  0.81974133  0.02553628  0.79797129  1
  O  O6  1  0.82336542  0.99827154  0.69590966  1
  O  O7  1  0.17490612  0.17663458  0.69590966  1
  O  O8  1  0.00172846  0.82509388  0.69590966  1
  O  O9  1  0.78985433  0.79117631  0.19992621  1
  O  O10  1  0.00132198  0.21014567  0.19992621  1
  O  O11  1  0.20882369  0.99867802  0.19992621  1
  O  O12  1  0.91272499  0.37568897  0.63286249  1
  O  O13  1  0.46296498  0.08727501  0.63286249  1
  O  O14  1  0.62431103  0.53703502  0.63286249  1
  O  O15  1  0.91369871  0.53582880  0.12871782  1
  O  O16  1  0.62213109  0.08630129  0.12871782  1
  O  O17  1  0.46417120  0.37786891  0.12871782  1
  O  O18  1  0.44374043  0.31545253  0.02907472  1
  O  O19  1  0.87171310  0.55625957  0.02907472  1
  O  O20  1  0.68454747  0.12828690  0.02907472  1
  O  O21  1  0.41649781  0.13230996  0.53580185  1
  O  O22  1  0.71581314  0.58350219  0.53580185  1
  O  O23  1  0.86769004  0.28418686  0.53580185  1
  O  O24  1  0.51477407  0.67213775  0.96883221  1
  O  O25  1  0.15736268  0.48522593  0.96883221  1
  O  O26  1  0.32786225  0.84263732  0.96883221  1
  O  O27  1  0.51135364  0.84109339  0.47245242  1
  O  O28  1  0.32973875  0.48864636  0.47245242  1
  O  O29  1  0.15890661  0.67026125  0.47245242  1
  O  O30  1  0.12636203  0.64219194  0.37015112  1
  O  O31  1  0.51582891  0.87363797  0.37015112  1
  O  O32  1  0.35780806  0.48417109  0.37015112  1
  O  O33  1  0.13131411  0.47490100  0.86707079  1
  O  O34  1  0.34358589  0.86868589  0.86707079  1
  O  O35  1  0.52509900  0.65641411  0.86707079  1
  O  O36  1  0.04449263  0.82224745  0.42139532  1
  O  O37  1  0.77775482  0.95550737  0.42139532  1
  O  O38  1  0.17775255  0.22224518  0.42139532  1
  O  O39  1  0.04255872  0.21820944  0.92204037  1
  O  O40  1  0.17565072  0.95744128  0.92204037  1
  O  O41  1  0.78179056  0.82434928  0.92204037  1
  O  O42  1  0.00524461  0.18318474  0.59921151  1
  O  O43  1  0.17794013  0.99475539  0.59921151  1
  O  O44  1  0.81681526  0.82205987  0.59921151  1
  O  O45  1  0.01055631  0.81209301  0.08305921  1
  O  O46  1  0.80153670  0.98944369  0.08305921  1
  O  O47  1  0.18790699  0.19846330  0.08305921  1
  O  O48  1  0.70298955  0.15522915  0.73938793  1
  O  O49  1  0.45224061  0.29701045  0.73938793  1
  O  O50  1  0.84477085  0.54775939  0.73938793  1
  O  O51  1  0.68869288  0.52491909  0.24846584  1
  O  O52  1  0.83622721  0.31130712  0.24846584  1
  O  O53  1  0.47508091  0.16377279  0.24846584  1
  O  O54  1  0.63454037  0.51583871  0.92336484  1
  O  O55  1  0.88129934  0.36545963  0.92336484  1
  O  O56  1  0.48416129  0.11870066  0.92336484  1
  O  O57  1  0.63310490  0.11951612  0.42924788  1
  O  O58  1  0.48641222  0.36689510  0.42924788  1
  O  O59  1  0.88048388  0.51358778  0.42924788  1
  O  O60  1  0.34691667  0.49877362  0.06526387  1
  O  O61  1  0.15185595  0.65308333  0.06526387  1
  O  O62  1  0.50122638  0.84814405  0.06526387  1
  O  O63  1  0.32420385  0.84637721  0.57049097  1
  O  O64  1  0.52217236  0.67579615  0.57049097  1
  O  O65  1  0.15362279  0.47782764  0.57049097  1
  O  O66  1  0.31819193  0.85853161  0.25575027  1
  O  O67  1  0.54033868  0.68180807  0.25575027  1
  O  O68  1  0.14146839  0.45966132  0.25575027  1
  O  O69  1  0.28667605  0.43990518  0.74636698  1
  O  O70  1  0.15322813  0.71332395  0.74636698  1
  O  O71  1  0.56009482  0.84677187  0.74636698  1
loop_
_geom_bond_atom_site_label_1
_geom_bond_atom_site_label_2
_geom_bond_distance
_geom_bond_site_symmetry_2
Na0 O47 2.547936 1_555
Na0 O45 2.547936 1_545
Na0 O46 2.547936 1_445
Na0 O39 2.720190 1_554
Na0 O41 2.720190 1_444
Na0 O40 2.720190 1_544
Na1 O56 2.749866 1_555
Na1 O54 2.749866 1_555
Na1 O55 2.749866 1_555
Na1 O50 2.966898 1_555
Na1 O49 2.966898 1_555
Na1 O48 2.966898 1_555
Na2 O51 2.356521 1_555
Na2 O53 2.356521 1_555
Na2 O52 2.356521 1_555
Ca0 O1 2.236415 1_445
Ca0 O2 2.236415 1_455
Ca0 O0 2.236415 1_555
Ca0 O38 2.479262 1_555
Ca0 O36 2.479262 1_545
Ca0 O37 2.479262 1_445
Ca1 O4 2.310271 1_445
Ca1 O3 2.310271 1_555
Ca1 O5 2.310271 1_455
Ca1 O39 2.357159 1_555
Ca1 O41 2.357159 1_445
Ca1 O40 2.357159 1_545
Ca2 O9 2.201834 1_445
Ca2 O10 2.201834 1_555
Ca2 O11 2.201835 1_545
Ca2 O47 2.453760 1_555
Ca2 O45 2.453760 1_545
Ca2 O46 2.453760 1_445
Ca3 O50 2.326811 1_555
Ca3 O49 2.326811 1_555
Ca3 O48 2.326811 1_555
Ca3 O13 2.349132 1_555
Ca3 O14 2.349132 1_555
Ca3 O12 2.349132 1_555
Ca4 O51 2.289415 1_555
Ca4 O53 2.289415 1_555
Ca4 O52 2.289415 1_555
Ca4 O16 2.446485 1_555
Ca4 O15 2.446485 1_555
Ca4 O17 2.446485 1_555
Ca5 O19 2.228261 1_556
Ca5 O20 2.228261 1_556
Ca5 O18 2.228261 1_556
Ca5 O56 2.345163 1_555
Ca5 O54 2.345163 1_555
Ca5 O55 2.345163 1_555
Ca6 O57 2.270288 1_555
Ca6 O59 2.270289 1_555
Ca6 O58 2.270289 1_555
Ca6 O23 2.409735 1_555
Ca6 O21 2.409735 1_555
Ca6 O22 2.409735 1_555
Ca7 O68 2.182928 1_555
Ca7 O66 2.182928 1_555
Ca7 O67 2.182928 1_555
Ca7 O31 2.358539 1_555
Ca7 O32 2.358539 1_555
Ca7 O30 2.358539 1_555
Ca8 O34 2.317273 1_555
Ca8 O33 2.317273 1_555
Ca8 O35 2.317273 1_555
Ca8 O69 2.370713 1_555
Ca8 O71 2.370713 1_555
Ca8 O70 2.370713 1_555
O0 S0 1.486138 1_555
O1 S1 1.486138 1_555
O2 S2 1.486138 1_555
O3 S3 1.456574 1_555
O4 S4 1.456574 1_555
O5 S5 1.456575 1_555
O6 S5 1.577303 1_565
O6 Ta0 1.963946 1_665
O7 S3 1.577303 1_555
O7 Ta0 1.963946 1_555
O8 S4 1.577303 1_455
O8 Ta0 1.963946 1_565
O9 S1 1.478513 1_555
O10 S2 1.478513 1_455
O11 S0 1.478513 1_565
O12 S6 1.459467 1_555
O13 S7 1.459467 1_555
O14 S8 1.459467 1_555
O15 S9 1.449061 1_555
O16 S10 1.449061 1_555
O17 S11 1.449061 1_555
O18 S11 1.463183 1_555
O19 S9 1.463183 1_555
O20 S10 1.463183 1_555
O21 S7 1.454812 1_555
O22 S8 1.454812 1_555
O23 S6 1.454812 1_555
O24 S12 1.530574 1_555
O24 Ta1 2.041612 1_556
O25 S13 1.530574 1_555
O25 Ta1 2.041611 1_556
O26 S14 1.530574 1_555
O26 Ta1 2.041611 1_556
O27 S15 1.648266 1_555
O27 Ta2 1.893395 1_555
O28 S16 1.648266 1_555
O28 Ta2 1.893395 1_555
O29 S17 1.648266 1_555
O29 Ta2 1.893395 1_555
O30 S17 1.436341 1_555
O31 S15 1.436341 1_555
O32 S16 1.436341 1_555
O33 S13 1.462476 1_555
O34 S14 1.462476 1_555
O35 S12 1.462476 1_555
O36 S17 1.447371 1_555
O37 S15 1.447380 1_555
O38 S16 1.447375 1_555
O39 S13 1.480836 1_555
O40 S14 1.480827 1_555
O41 S12 1.480832 1_555
O42 S6 1.545534 1_455
O42 Ta0 2.027949 1_555
O43 S7 1.545542 1_565
O43 Ta0 2.027949 1_565
O44 S8 1.545539 1_555
O44 Ta0 2.027949 1_665
O45 S9 1.463759 1_455
O46 S10 1.463750 1_565
O47 S11 1.463756 1_555
O48 S5 1.471371 1_555
O49 S3 1.471380 1_555
O50 S4 1.471376 1_555
O51 S1 1.494068 1_555
O52 S2 1.494059 1_555
O53 S0 1.494064 1_555
O54 S12 1.473693 1_555
O55 S13 1.473675 1_655
O56 S14 1.473682 1_545
O57 S15 1.464679 1_545
O58 S16 1.464697 1_555
O59 S17 1.464687 1_655
O60 S11 1.576983 1_555
O60 Ta1 1.928882 1_555
O61 S9 1.576965 1_455
O61 Ta1 1.928882 1_555
O62 S10 1.576973 1_565
O62 Ta1 1.928882 1_555
O63 S7 1.504561 1_565
O63 Ta2 2.156244 1_555
O64 S8 1.504579 1_555
O64 Ta2 2.156244 1_555
O65 S6 1.504568 1_455
O65 Ta2 2.156244 1_555
O66 S0 1.465458 1_565
O67 S1 1.465467 1_555
O68 S2 1.465463 1_455
O69 S3 1.455793 1_555
O70 S4 1.455784 1_455
O71 S5 1.455789 1_565
