# generated using pymatgen
data_La6CuSb15
_symmetry_space_group_name_H-M   'P 1'
_cell_length_a   12.73978606
_cell_length_b   12.73978606
_cell_length_c   4.31431943
_cell_angle_alpha   80.29621244
_cell_angle_beta   80.29621244
_cell_angle_gamma   101.42758599
_symmetry_Int_Tables_number   1
_chemical_formula_structural   La6CuSb15
_chemical_formula_sum   'La6 Cu1 Sb15'
_cell_volume   661.57785242
_cell_formula_units_Z   1
loop_
 _symmetry_equiv_pos_site_id
 _symmetry_equiv_pos_as_xyz
  1  'x, y, z'
loop_
 _atom_site_type_symbol
 _atom_site_label
 _atom_site_symmetry_multiplicity
 _atom_site_fract_x
 _atom_site_fract_y
 _atom_site_fract_z
 _atom_site_occupancy
  La  La0  1  0.32569731  0.67558297  0.93159327  1
  La  La1  1  0.67558297  0.32569731  0.93159327  1
  La  La2  1  0.26806874  0.00447563  0.79742389  1
  La  La3  1  0.72558206  0.99683532  0.07208042  1
  La  La4  1  0.99683532  0.72558206  0.07208042  1
  La  La5  1  0.00447563  0.26806874  0.79742389  1
  Cu  Cu0  1  0.26322932  0.26322932  0.67532972  1
  Sb  Sb0  1  0.40247301  0.40247301  0.03056091  1
  Sb  Sb1  1  0.59372077  0.59372077  0.83706343  1
  Sb  Sb2  1  0.46545677  0.24483190  0.57607521  1
  Sb  Sb3  1  0.54356442  0.75196431  0.28505171  1
  Sb  Sb4  1  0.75196431  0.54356442  0.28505171  1
  Sb  Sb5  1  0.24483190  0.46545677  0.57607521  1
  Sb  Sb6  1  0.51063370  0.91424477  0.71861002  1
  Sb  Sb7  1  0.48517390  0.08082127  0.14980497  1
  Sb  Sb8  1  0.08082127  0.48517390  0.14980497  1
  Sb  Sb9  1  0.91424477  0.51063370  0.71861002  1
  Sb  Sb10  1  0.15817736  0.15817736  0.27712878  1
  Sb  Sb11  1  0.85870040  0.85870040  0.57500696  1
  Sb  Sb12  1  0.19957535  0.79905640  0.43418527  1
  Sb  Sb13  1  0.79905640  0.19957535  0.43418527  1
  Sb  Sb14  1  0.99273430  0.99273430  0.94256167  1
loop_
_geom_bond_atom_site_label_1
_geom_bond_atom_site_label_2
_geom_bond_distance
_geom_bond_site_symmetry_2
La0 Sb12 3.269139 1_555
La0 Sb12 3.276384 1_556
La0 Sb6 3.336117 1_555
La0 Sb5 3.375053 1_556
La0 Sb5 3.376994 1_555
La0 Sb8 3.427001 1_556
La0 Sb3 3.439910 1_556
La0 Sb3 3.440378 1_555
La0 Sb1 3.741424 1_555
La0 Sb0 3.772728 1_556
La1 Sb13 3.269139 1_555
La1 Sb13 3.276384 1_556
La1 Sb9 3.336117 1_555
La1 Sb2 3.375053 1_556
La1 Sb2 3.376994 1_555
La1 Sb7 3.427001 1_556
La1 Sb4 3.439910 1_556
La1 Sb4 3.440378 1_555
La1 Sb1 3.741424 1_555
La1 Sb0 3.772728 1_556
La2 Sb12 3.317321 1_545
La2 Sb12 3.319721 1_546
La2 Sb10 3.390715 1_555
La2 Sb10 3.398996 1_556
La2 Sb14 3.426152 1_445
La2 Sb7 3.428894 1_556
La2 Sb2 3.430071 1_555
La2 Sb7 3.437356 1_555
La2 Sb6 3.488794 1_545
La3 Sb13 3.298961 1_565
La3 Sb13 3.301307 1_564
La3 Sb14 3.367152 1_554
La3 Sb3 3.376724 1_555
La3 Sb6 3.417636 1_555
La3 Sb7 3.422130 1_565
La3 Sb6 3.426139 1_554
La3 Sb11 3.435236 1_554
La3 Sb11 3.437564 1_555
La4 Sb12 3.298961 1_655
La4 Sb12 3.301307 1_654
La4 Sb14 3.367152 1_554
La4 Sb4 3.376724 1_555
La4 Sb9 3.417636 1_555
La4 Sb8 3.422130 1_655
La4 Sb9 3.426139 1_554
La4 Sb11 3.435236 1_554
La4 Sb11 3.437564 1_555
La5 Sb13 3.317321 1_455
La5 Sb13 3.319721 1_456
La5 Sb10 3.390715 1_555
La5 Sb10 3.398996 1_556
La5 Sb14 3.426152 1_445
La5 Sb8 3.428894 1_556
La5 Sb5 3.430071 1_555
La5 Sb8 3.437356 1_555
La5 Sb9 3.488794 1_455
Cu0 Sb5 2.603268 1_555
Cu0 Sb2 2.603268 1_555
Cu0 Sb10 2.696446 1_556
Cu0 Sb10 2.715535 1_555
Cu0 Sb0 3.037849 1_556
Cu0 Sb0 3.075351 1_555
Cu0 La2 3.264059 1_555
Cu0 La5 3.264059 1_555
Sb0 Sb1 2.974202 1_554
Sb0 Sb2 3.146114 1_555
Sb0 Sb5 3.146114 1_555
Sb0 Sb5 3.155561 1_554
Sb0 Sb2 3.155561 1_554
Sb1 Sb3 3.090185 1_555
Sb1 Sb4 3.090185 1_555
Sb1 Sb4 3.100924 1_556
Sb1 Sb3 3.100924 1_556
Sb2 Sb7 3.026342 1_555
Sb2 Sb7 3.038074 1_556
Sb3 Sb6 3.054803 1_555
Sb3 Sb6 3.067335 1_554
Sb4 Sb9 3.054803 1_555
Sb4 Sb9 3.067335 1_554
Sb5 Sb8 3.026342 1_555
Sb5 Sb8 3.038074 1_556
Sb6 Sb7 3.068610 1_565
Sb6 Sb7 3.077286 1_566
Sb8 Sb9 3.068610 1_455
Sb8 Sb9 3.077286 1_454
Sb10 Sb14 3.355474 1_444
Sb10 Sb14 3.359589 1_445
Sb11 Sb14 2.996652 1_554
Sb11 Sb14 3.002727 1_555
