# generated using pymatgen
data_BaLaMgMn2O6
_symmetry_space_group_name_H-M   'P 1'
_cell_length_a   3.92928211
_cell_length_b   3.92928211
_cell_length_c   11.37929957
_cell_angle_alpha   90.00000000
_cell_angle_beta   90.00000000
_cell_angle_gamma   90.00000000
_symmetry_Int_Tables_number   1
_chemical_formula_structural   BaLaMgMn2O6
_chemical_formula_sum   'Ba1 La1 Mg1 Mn2 O6'
_cell_volume   175.68794078
_cell_formula_units_Z   1
loop_
 _symmetry_equiv_pos_site_id
 _symmetry_equiv_pos_as_xyz
  1  'x, y, z'
loop_
 _atom_site_type_symbol
 _atom_site_label
 _atom_site_symmetry_multiplicity
 _atom_site_fract_x
 _atom_site_fract_y
 _atom_site_fract_z
 _atom_site_occupancy
  Ba  Ba0  1  0.00000000  -0.00000000  0.91744087  1
  La  La0  1  0.00000000  -0.00000000  0.57778115  1
  Mg  Mg0  1  -0.00000000  -0.00000000  0.25288743  1
  Mn  Mn0  1  0.50000100  0.50000100  0.73807132  1
  Mn  Mn1  1  0.50000100  0.50000100  0.33712165  1
  O  O0  1  0.00000000  0.50000100  0.71101394  1
  O  O1  1  0.50000100  0.00000000  0.71101394  1
  O  O2  1  -0.00000000  0.50000100  0.28106474  1
  O  O3  1  0.50000100  0.00000000  0.28106474  1
  O  O4  1  0.50000100  0.50000100  0.92190786  1
  O  O5  1  0.50000100  0.50000100  0.52063437  1
loop_
_geom_bond_atom_site_label_1
_geom_bond_atom_site_label_2
_geom_bond_distance
_geom_bond_site_symmetry_2
Ba0 O4 2.778881 1_445
Ba0 O4 2.778887 1_545
Ba0 O4 2.778887 1_455
Ba0 O4 2.778893 1_555
Ba0 O1 3.062282 1_455
Ba0 O0 3.062282 1_545
Ba0 O1 3.062287 1_555
Ba0 O0 3.062287 1_555
La0 O0 2.481601 1_545
La0 O1 2.481601 1_455
La0 O0 2.481608 1_555
La0 O1 2.481608 1_555
La0 O5 2.853502 1_445
La0 O5 2.853508 1_545
La0 O5 2.853508 1_455
La0 O5 2.853513 1_555
Mg0 O2 1.990630 1_545
Mg0 O3 1.990630 1_455
Mg0 O2 1.990638 1_555
Mg0 O3 1.990638 1_555
Mn0 O0 1.988617 1_655
Mn0 O1 1.988617 1_565
Mn0 O1 1.988625 1_555
Mn0 O0 1.988625 1_555
Mn0 O4 2.091931 1_555
Mn0 O5 2.474280 1_555
Mn1 O2 2.065599 1_655
Mn1 O3 2.065599 1_565
Mn1 O3 2.065607 1_555
Mn1 O2 2.065607 1_555
Mn1 O5 2.088246 1_555
