# generated using pymatgen
data_HgBr2
_symmetry_space_group_name_H-M   'P 1'
_cell_length_a   7.06446162
_cell_length_b   7.06446327
_cell_length_c   6.53091721
_cell_angle_alpha   90.00000000
_cell_angle_beta   90.00000000
_cell_angle_gamma   120.00000194
_symmetry_Int_Tables_number   1
_chemical_formula_structural   HgBr2
_chemical_formula_sum   'Hg3 Br6'
_cell_volume   282.26890815
_cell_formula_units_Z   3
loop_
 _symmetry_equiv_pos_site_id
 _symmetry_equiv_pos_as_xyz
  1  'x, y, z'
loop_
 _atom_site_type_symbol
 _atom_site_label
 _atom_site_symmetry_multiplicity
 _atom_site_fract_x
 _atom_site_fract_y
 _atom_site_fract_z
 _atom_site_occupancy
  Hg  Hg0  1  0.33333300  0.66666700  0.47959779  1
  Hg  Hg1  1  0.00000000  0.00000000  0.47699539  1
  Hg  Hg2  1  0.66666700  0.33333300  0.47625658  1
  Br  Br0  1  0.00109701  0.33407842  0.23398462  1
  Br  Br1  1  0.99948550  0.66654824  0.72143213  1
  Br  Br2  1  0.33345176  0.33293726  0.72143213  1
  Br  Br3  1  0.33298141  0.99890299  0.23398462  1
  Br  Br4  1  0.66706274  0.00051450  0.72143213  1
  Br  Br5  1  0.66592158  0.66701859  0.23398462  1
loop_
_geom_bond_atom_site_label_1
_geom_bond_atom_site_label_2
_geom_bond_distance
_geom_bond_site_symmetry_2
Br0 Hg1 2.840881 1_555
Br0 Hg2 2.841277 1_455
Br0 Hg0 2.843880 1_555
Br1 Hg0 2.838103 1_655
Br1 Hg1 2.844126 1_665
Br1 Hg2 2.845799 1_555
Br2 Hg0 2.838109 1_555
Br2 Hg1 2.844126 1_555
Br2 Hg2 2.845802 1_555
Br3 Hg1 2.840880 1_565
Br3 Hg2 2.841280 1_565
Br3 Hg0 2.843877 1_555
Br4 Hg0 2.838106 1_545
Br4 Hg1 2.844126 1_655
Br4 Hg2 2.845796 1_555
Br5 Hg1 2.840880 1_665
Br5 Hg2 2.841283 1_555
Br5 Hg0 2.843883 1_555
