# generated using pymatgen
data_MgTi4O8
_symmetry_space_group_name_H-M   'P 1'
_cell_length_a   4.89149535
_cell_length_b   4.94037572
_cell_length_c   5.75244500
_cell_angle_alpha   90.00000000
_cell_angle_beta   90.00000000
_cell_angle_gamma   91.45256627
_symmetry_Int_Tables_number   1
_chemical_formula_structural   MgTi4O8
_chemical_formula_sum   'Mg1 Ti4 O8'
_cell_volume   138.96790705
_cell_formula_units_Z   1
loop_
 _symmetry_equiv_pos_site_id
 _symmetry_equiv_pos_as_xyz
  1  'x, y, z'
loop_
 _atom_site_type_symbol
 _atom_site_label
 _atom_site_symmetry_multiplicity
 _atom_site_fract_x
 _atom_site_fract_y
 _atom_site_fract_z
 _atom_site_occupancy
  Mg  Mg0  1  0.00000000  0.75000000  0.40408000  1
  Ti  Ti0  1  0.50000000  0.75000000  0.32936100  1
  Ti  Ti1  1  0.00000000  0.25000000  0.12494000  1
  Ti  Ti2  1  0.50000000  0.25000000  0.67127800  1
  Ti  Ti3  1  0.00000000  0.75000000  0.87090200  1
  O  O0  1  0.73807700  0.06915600  0.36936800  1
  O  O1  1  0.22325100  0.91243000  0.13456100  1
  O  O2  1  0.77674900  0.58757000  0.13456100  1
  O  O3  1  0.26192300  0.43084400  0.36936800  1
  O  O4  1  0.72785500  0.58538500  0.61788100  1
  O  O5  1  0.23512900  0.41156000  0.86838600  1
  O  O6  1  0.76487100  0.08844000  0.86838600  1
  O  O7  1  0.27214500  0.91461500  0.61788100  1
loop_
_geom_bond_atom_site_label_1
_geom_bond_atom_site_label_2
_geom_bond_distance
_geom_bond_site_symmetry_2
Mg0 O7 1.972610 1_555
Mg0 O4 1.972610 1_455
Mg0 O1 2.048359 1_555
Mg0 O2 2.048359 1_455
Mg0 O3 2.066372 1_555
Mg0 O0 2.066372 1_465
O0 Ti0 1.949922 1_545
O0 Ti1 2.087740 1_655
O0 Ti2 2.285467 1_555
O1 Ti0 1.946090 1_555
O1 Ti1 2.017232 1_565
O1 Ti3 2.022964 1_554
O2 Ti0 1.946090 1_555
O2 Ti1 2.017232 1_655
O2 Ti3 2.022964 1_654
O3 Ti0 1.949922 1_555
O3 Ti1 2.087740 1_555
O3 Ti2 2.285467 1_555
O4 Ti2 1.997087 1_555
O4 Ti3 2.120622 1_655
O4 Ti0 2.168908 1_555
O5 Ti2 1.911476 1_555
O5 Ti1 2.022710 1_556
O5 Ti3 2.053330 1_555
O6 Ti2 1.911476 1_555
O6 Ti1 2.022710 1_656
O6 Ti3 2.053330 1_645
O7 Ti2 1.997087 1_565
O7 Ti3 2.120622 1_555
O7 Ti0 2.168908 1_555
