# generated using pymatgen
data_Nd2MgCuO4
_symmetry_space_group_name_H-M   'P 1'
_cell_length_a   3.80978609
_cell_length_b   3.80978549
_cell_length_c   9.74353047
_cell_angle_alpha   101.27413250
_cell_angle_beta   101.27412051
_cell_angle_gamma   89.99999628
_symmetry_Int_Tables_number   1
_chemical_formula_structural   Nd2MgCuO4
_chemical_formula_sum   'Nd2 Mg1 Cu1 O4'
_cell_volume   135.90933828
_cell_formula_units_Z   1
loop_
 _symmetry_equiv_pos_site_id
 _symmetry_equiv_pos_as_xyz
  1  'x, y, z'
loop_
 _atom_site_type_symbol
 _atom_site_label
 _atom_site_symmetry_multiplicity
 _atom_site_fract_x
 _atom_site_fract_y
 _atom_site_fract_z
 _atom_site_occupancy
  Nd  Nd0  1  0.68800245  0.68800245  0.37600491  1
  Nd  Nd1  1  0.31199755  0.31199755  0.62399509  1
  Mg  Mg0  1  0.50000000  0.50000000  -0.00000000  1
  Cu  Cu0  1  -0.00000000  0.00000000  -0.00000000  1
  O  O0  1  0.80986679  0.80986679  0.61973259  1
  O  O1  1  0.19013321  0.19013321  0.38026741  1
  O  O2  1  -0.00000000  0.50000000  -0.00000000  1
  O  O3  1  0.50000000  0.00000000  -0.00000000  1
loop_
_geom_bond_atom_site_label_1
_geom_bond_atom_site_label_2
_geom_bond_distance
_geom_bond_site_symmetry_2
Nd0 O0 2.282197 1_555
Nd0 O1 2.694218 1_665
Nd0 O1 2.694221 1_565
Nd0 O1 2.694221 1_655
Nd0 O1 2.694224 1_555
Nd1 O1 2.282197 1_555
Nd1 O0 2.694218 1_445
Nd1 O0 2.694221 1_545
Nd1 O0 2.694221 1_455
Nd1 O0 2.694224 1_555
Mg0 O3 1.904893 1_565
Mg0 O3 1.904893 1_555
Mg0 O2 1.904893 1_555
Mg0 O2 1.904893 1_655
Cu0 O2 1.904893 1_555
Cu0 O2 1.904893 1_545
Cu0 O3 1.904893 1_555
Cu0 O3 1.904893 1_455
