# generated using pymatgen
data_Cu2H6C3(BrN3)2
_symmetry_space_group_name_H-M   'P 1'
_cell_length_a   3.81106937
_cell_length_b   7.58406388
_cell_length_c   16.26300586
_cell_angle_alpha   90.00000000
_cell_angle_beta   90.00000000
_cell_angle_gamma   98.22951496
_symmetry_Int_Tables_number   1
_chemical_formula_structural   Cu2H6C3(BrN3)2
_chemical_formula_sum   'Cu4 H12 C6 Br4 N12'
_cell_volume   465.21571629
_cell_formula_units_Z   2
loop_
 _symmetry_equiv_pos_site_id
 _symmetry_equiv_pos_as_xyz
  1  'x, y, z'
loop_
 _atom_site_type_symbol
 _atom_site_label
 _atom_site_symmetry_multiplicity
 _atom_site_fract_x
 _atom_site_fract_y
 _atom_site_fract_z
 _atom_site_occupancy
  Cu  Cu0  1  0.67826798  0.52554252  0.93034301  1
  Cu  Cu1  1  0.32173202  0.47445748  0.06965699  1
  Cu  Cu2  1  0.32173202  0.47445748  0.43034301  1
  Cu  Cu3  1  0.67826798  0.52554252  0.56965699  1
  H  H0  1  0.89777435  0.36801436  0.80370543  1
  H  H1  1  0.10222565  0.63198564  0.19629457  1
  H  H2  1  0.10222565  0.63198564  0.30370543  1
  H  H3  1  0.89777435  0.36801436  0.69629457  1
  H  H4  1  0.51138349  0.83514421  0.94430021  1
  H  H5  1  0.48861651  0.16485579  0.05569979  1
  H  H6  1  0.48861651  0.16485579  0.44430021  1
  H  H7  1  0.51138349  0.83514421  0.55569979  1
  H  H8  1  0.37779739  0.01063965  0.88809406  1
  H  H9  1  0.62220261  0.98936035  0.11190594  1
  H  H10  1  0.62220261  0.98936035  0.38809406  1
  H  H11  1  0.37779739  0.01063965  0.61190594  1
  C  C0  1  0.71197615  0.57849665  0.75000000  1
  C  C1  1  0.28802385  0.42150335  0.25000000  1
  C  C2  1  0.53825898  0.81397866  0.81940723  1
  C  C3  1  0.46174102  0.18602134  0.18059277  1
  C  C4  1  0.46174102  0.18602134  0.31940723  1
  C  C5  1  0.53825898  0.81397866  0.68059277  1
  Br  Br0  1  0.87461249  0.69825459  0.44370668  1
  Br  Br1  1  0.12538751  0.30174541  0.55629332  1
  Br  Br2  1  0.12538751  0.30174541  0.94370668  1
  Br  Br3  1  0.87461249  0.69825459  0.05629332  1
  N  N0  1  0.65419994  0.65242563  0.82365060  1
  N  N1  1  0.34580006  0.34757437  0.17634940  1
  N  N2  1  0.34580006  0.34757437  0.32365060  1
  N  N3  1  0.65419994  0.65242563  0.67634940  1
  N  N4  1  0.47867739  0.89473948  0.88992040  1
  N  N5  1  0.52132261  0.10526052  0.11007960  1
  N  N6  1  0.52132261  0.10526052  0.38992040  1
  N  N7  1  0.47867739  0.89473948  0.61007960  1
  N  N8  1  0.82745208  0.42042534  0.75000000  1
  N  N9  1  0.17254792  0.57957466  0.25000000  1
  N  N10  1  0.47867633  0.89833582  0.75000000  1
  N  N11  1  0.52132367  0.10166418  0.25000000  1
loop_
_geom_bond_atom_site_label_1
_geom_bond_atom_site_label_2
_geom_bond_distance
_geom_bond_site_symmetry_2
Cu0 N0 1.992584 1_555
Cu1 N1 1.992584 1_555
Cu2 N2 1.992584 1_555
Cu3 N3 1.992584 1_555
H0 N8 1.011517 1_555
H1 N9 1.011517 1_555
H2 N9 1.011517 1_555
H3 N8 1.011517 1_555
H4 N4 1.008995 1_555
H5 N5 1.008995 1_555
H6 N6 1.008995 1_555
H7 N7 1.008995 1_555
H8 N4 1.008993 1_545
H9 N5 1.008993 1_565
H10 N6 1.008993 1_565
H11 N7 1.008993 1_545
C0 N8 1.334874 1_555
C0 N0 1.353834 1_555
C0 N3 1.353834 1_555
C1 N9 1.334874 1_555
C1 N1 1.353834 1_555
C1 N2 1.353834 1_555
C2 N10 1.332884 1_555
C2 N4 1.334757 1_555
C2 N0 1.362414 1_555
C3 N11 1.332884 1_555
C3 N5 1.334757 1_555
C3 N1 1.362414 1_555
C4 N11 1.332884 1_555
C4 N6 1.334757 1_555
C4 N2 1.362414 1_555
C5 N10 1.332884 1_555
C5 N7 1.334757 1_555
C5 N3 1.362414 1_555
Br0 Cu3 2.488116 1_555
Br0 Cu2 2.518719 1_555
Br0 Cu2 2.580626 1_655
Br1 Cu2 2.488116 1_555
Br1 Cu3 2.518719 1_555
Br1 Cu3 2.580626 1_455
Br2 Cu1 2.488116 1_556
Br2 Cu0 2.518719 1_555
Br2 Cu0 2.580626 1_455
Br3 Cu0 2.488116 1_554
Br3 Cu1 2.518719 1_555
Br3 Cu1 2.580626 1_655
