# generated using pymatgen
data_Na14Mg2Si9Ge6(SO16)3
_symmetry_space_group_name_H-M   'P 1'
_cell_length_a   17.62785187
_cell_length_b   8.89471935
_cell_length_c   21.76809918
_cell_angle_alpha   90.53715928
_cell_angle_beta   89.63839012
_cell_angle_gamma   120.19127581
_symmetry_Int_Tables_number   1
_chemical_formula_structural   Na14Mg2Si9Ge6(SO16)3
_chemical_formula_sum   'Na42 Mg6 Si27 Ge18 S9 O144'
_cell_volume   2950.00433494
_cell_formula_units_Z   3
loop_
 _symmetry_equiv_pos_site_id
 _symmetry_equiv_pos_as_xyz
  1  'x, y, z'
loop_
 _atom_site_type_symbol
 _atom_site_label
 _atom_site_symmetry_multiplicity
 _atom_site_fract_x
 _atom_site_fract_y
 _atom_site_fract_z
 _atom_site_occupancy
  Na  Na0  1  0.31217445  0.00521089  0.24623764  1
  Na  Na1  1  0.81483246  0.01317060  0.24861509  1
  Na  Na2  1  0.18896004  0.36989125  0.25341946  1
  Na  Na3  1  0.69063429  0.36731104  0.25013458  1
  Na  Na4  1  0.99238109  0.61906604  0.25389044  1
  Na  Na5  1  0.49549934  0.62849214  0.24867713  1
  Na  Na6  1  0.31486464  0.61768304  0.74341953  1
  Na  Na7  1  0.81311992  0.62168259  0.74264467  1
  Na  Na8  1  0.99452475  0.35703363  0.74418692  1
  Na  Na9  1  0.49407277  0.37063624  0.74964287  1
  Na  Na10  1  0.19100115  0.01723598  0.74586301  1
  Na  Na11  1  0.69055557  0.00926670  0.75016714  1
  Na  Na12  1  0.15443496  0.33836928  0.58420772  1
  Na  Na13  1  0.65610260  0.34657837  0.57925844  1
  Na  Na14  1  0.01331987  0.69513766  0.58086558  1
  Na  Na15  1  0.51463885  0.69393604  0.57546226  1
  Na  Na16  1  0.33086091  0.96800566  0.58472086  1
  Na  Na17  1  0.83109874  0.95801919  0.57510042  1
  Na  Na18  1  0.15548469  0.96551143  0.08477824  1
  Na  Na19  1  0.65554131  0.97147193  0.08750897  1
  Na  Na20  1  0.33261613  0.70107151  0.08455542  1
  Na  Na21  1  0.83048723  0.69350642  0.08770280  1
  Na  Na22  1  0.01400943  0.33157790  0.07984719  1
  Na  Na23  1  0.51516944  0.33235521  0.08548408  1
  Na  Na24  1  0.98459853  0.67014069  0.91810452  1
  Na  Na25  1  0.34980913  0.03340472  0.91439556  1
  Na  Na26  1  0.16479907  0.29943226  0.91722176  1
  Na  Na27  1  0.48646446  0.30205750  0.41813598  1
  Na  Na28  1  0.66868397  0.03086307  0.41587983  1
  Na  Na29  1  0.84903733  0.67034812  0.41977758  1
  Na  Na30  1  0.00170298  0.00208961  0.49580997  1
  Na  Na31  1  0.49467316  0.98871449  0.49572822  1
  Na  Na32  1  0.99276049  0.99987192  0.99682349  1
  Na  Na33  1  0.50797563  0.00857059  0.99914761  1
  Na  Na34  1  0.33810117  0.34158416  0.82890164  1
  Na  Na35  1  0.82612267  0.31957047  0.83285313  1
  Na  Na36  1  0.32684318  0.33357062  0.33339312  1
  Na  Na37  1  0.83674190  0.33104699  0.33079947  1
  Na  Na38  1  0.17110786  0.67536776  0.16807344  1
  Na  Na39  1  0.66876242  0.67336407  0.16764131  1
  Na  Na40  1  0.16771978  0.66309231  0.66306051  1
  Na  Na41  1  0.67252620  0.66794312  0.66516226  1
  Mg  Mg0  1  0.32797986  0.33358994  0.68861721  1
  Mg  Mg1  1  0.83544591  0.33388305  0.68449363  1
  Mg  Mg2  1  0.33453109  0.33475602  0.18629331  1
  Mg  Mg3  1  0.82707943  0.32168375  0.18960941  1
  Mg  Mg4  1  0.16512326  0.67318706  0.01498759  1
  Mg  Mg5  1  0.67167596  0.66522910  0.51161143  1
  Si  Si0  1  0.14012581  0.00236331  0.25053820  1
  Si  Si1  1  0.63868441  0.99052673  0.25274934  1
  Si  Si2  1  0.35624488  0.71711997  0.25125317  1
  Si  Si3  1  0.85021816  0.70666176  0.25350692  1
  Si  Si4  1  0.00379142  0.29416528  0.25493665  1
  Si  Si5  1  0.13865235  0.28520135  0.75361389  1
  Si  Si6  1  0.64393205  0.28582365  0.74772406  1
  Si  Si7  1  0.50382829  0.71690329  0.75595502  1
  Si  Si8  1  0.35170164  0.99303386  0.75371701  1
  Si  Si9  1  0.85624037  0.99547644  0.75141975  1
  Si  Si10  1  0.98010743  0.34112260  0.58147294  1
  Si  Si11  1  0.18938812  0.04755689  0.58473287  1
  Si  Si12  1  0.33430814  0.62676583  0.58297119  1
  Si  Si13  1  0.83233179  0.62463915  0.58591514  1
  Si  Si14  1  0.47924752  0.61863615  0.08076093  1
  Si  Si15  1  0.33272330  0.03243549  0.08716165  1
  Si  Si16  1  0.83437834  0.04158977  0.08225674  1
  Si  Si17  1  0.68954304  0.33111037  0.08456351  1
  Si  Si18  1  0.80835119  0.65983658  0.91558351  1
  Si  Si19  1  0.01777978  0.37505081  0.91937967  1
  Si  Si20  1  0.52771164  0.37756482  0.91442933  1
  Si  Si21  1  0.16631802  0.96382306  0.91751868  1
  Si  Si22  1  0.30863522  0.95642705  0.41615905  1
  Si  Si23  1  0.82150902  0.97522614  0.41870762  1
  Si  Si24  1  0.66501558  0.37143913  0.41627245  1
  Si  Si25  1  0.02889136  0.67926164  0.41457687  1
  Si  Si26  1  0.51797961  0.66002284  0.41958327  1
  Ge  Ge0  1  0.99616605  0.99082214  0.35163092  1
  Ge  Ge1  1  0.49730523  0.97929697  0.35918789  1
  Ge  Ge2  1  0.99613490  0.01300335  0.85863471  1
  Ge  Ge3  1  0.50503573  0.01877139  0.84713030  1
  Ge  Ge4  1  0.99624145  0.01622627  0.64022069  1
  Ge  Ge5  1  0.49374023  0.97709594  0.65636673  1
  Ge  Ge6  1  0.99030489  0.00637501  0.15938885  1
  Ge  Ge7  1  0.49748542  0.98027919  0.14292756  1
  Ge  Ge8  1  0.34845169  0.32121099  0.98050152  1
  Ge  Ge9  1  0.82806116  0.31900060  0.97789786  1
  Ge  Ge10  1  0.32730180  0.33613659  0.47734606  1
  Ge  Ge11  1  0.84947058  0.35752752  0.47309772  1
  Ge  Ge12  1  0.66904768  0.65183753  0.02081878  1
  Ge  Ge13  1  0.16904053  0.68348192  0.51968571  1
  Ge  Ge14  1  0.16612910  0.68507230  0.30921559  1
  Ge  Ge15  1  0.67346217  0.68643553  0.32158564  1
  Ge  Ge16  1  0.16468831  0.66669851  0.81603712  1
  Ge  Ge17  1  0.66632760  0.64920445  0.80916079  1
  S  S0  1  0.50112613  0.28772262  0.25019629  1
  S  S1  1  0.00224372  0.71376029  0.75175911  1
  S  S2  1  0.47926103  0.33104277  0.58480623  1
  S  S3  1  0.68377073  0.03982557  0.58426261  1
  S  S4  1  0.97879960  0.62579342  0.08397037  1
  S  S5  1  0.18708828  0.33049694  0.08194838  1
  S  S6  1  0.31579340  0.66632777  0.91654931  1
  S  S7  1  0.66519265  0.95574674  0.91644668  1
  S  S8  1  0.16704840  0.37874190  0.41667622  1
  O  O0  1  0.09438025  0.03675961  0.30937797  1
  O  O1  1  0.59303925  0.02846775  0.31133337  1
  O  O2  1  0.42079898  0.81259203  0.30850196  1
  O  O3  1  0.91512040  0.79703217  0.31155747  1
  O  O4  1  0.48756568  0.18316419  0.30532617  1
  O  O5  1  0.98354446  0.15499219  0.30855995  1
  O  O6  1  0.09412873  0.15802320  0.81271274  1
  O  O7  1  0.60161622  0.16347240  0.80835630  1
  O  O8  1  0.48295065  0.81553700  0.81217130  1
  O  O9  1  0.98991881  0.79313741  0.80788214  1
  O  O10  1  0.41335137  0.02733083  0.81449202  1
  O  O11  1  0.92027831  0.02998533  0.80944256  1
  O  O12  1  0.39317673  0.94634683  0.69228161  1
  O  O13  1  0.89712889  0.95237671  0.68877693  1
  O  O14  1  0.07689321  0.20277815  0.69103296  1
  O  O15  1  0.57530706  0.19115281  0.68840365  1
  O  O16  1  0.01696560  0.81798253  0.69607085  1
  O  O17  1  0.52630434  0.83720182  0.69235391  1
  O  O18  1  0.39553070  0.83879705  0.18794747  1
  O  O19  1  0.89010167  0.83473049  0.19084497  1
  O  O20  1  0.02691961  0.21915899  0.18940952  1
  O  O21  1  0.51413578  0.20635012  0.19323131  1
  O  O22  1  0.07520286  0.96166752  0.18746413  1
  O  O23  1  0.57758954  0.95193371  0.18914214  1
  O  O24  1  0.43710977  0.35168748  0.64022299  1
  O  O25  1  0.94887803  0.38542775  0.64490467  1
  O  O26  1  0.24845021  0.11320755  0.64511252  1
  O  O27  1  0.73694114  0.11915925  0.63991113  1
  O  O28  1  0.31421462  0.51683684  0.64459154  1
  O  O29  1  0.81541222  0.50802395  0.64558940  1
  O  O30  1  0.44553877  0.50582102  0.14181428  1
  O  O31  1  0.93725680  0.52218674  0.13840803  1
  O  O32  1  0.31139200  0.11866721  0.14399601  1
  O  O33  1  0.81402247  0.11327261  0.14339837  1
  O  O34  1  0.24012506  0.35836233  0.13705164  1
  O  O35  1  0.74932821  0.38461499  0.14387554  1
  O  O36  1  0.22870953  0.30621456  0.02509339  1
  O  O37  1  0.73303039  0.28477029  0.02406166  1
  O  O38  1  0.40784440  0.52356857  0.02254417  1
  O  O39  1  0.92502991  0.54662896  0.02667669  1
  O  O40  1  0.35525499  0.15597872  0.02287075  1
  O  O41  1  0.85810265  0.17597162  0.02305577  1
  O  O42  1  0.23356695  0.18287211  0.52584602  1
  O  O43  1  0.72287046  0.14368233  0.52865714  1
  O  O44  1  0.35769670  0.53725999  0.52418838  1
  O  O45  1  0.85257481  0.53565389  0.52334026  1
  O  O46  1  0.42469802  0.30042248  0.52826340  1
  O  O47  1  0.91085931  0.29497490  0.52469090  1
  O  O48  1  0.27396991  0.69176194  0.97141547  1
  O  O49  1  0.76737853  0.70078761  0.97673305  1
  O  O50  1  0.07886849  0.45180885  0.97848971  1
  O  O51  1  0.58350323  0.46419261  0.97644408  1
  O  O52  1  0.14585537  0.84896843  0.97752200  1
  O  O53  1  0.65462142  0.85570398  0.97261674  1
  O  O54  1  0.26838378  0.83516726  0.47712456  1
  O  O55  1  0.78186368  0.85167221  0.47691140  1
  O  O56  1  0.15733775  0.46109699  0.47353421  1
  O  O57  1  0.63908485  0.43685109  0.47717159  1
  O  O58  1  0.08431281  0.69948260  0.47671717  1
  O  O59  1  0.57656380  0.70133481  0.47969825  1
  O  O60  1  0.06903494  0.63527663  0.35347105  1
  O  O61  1  0.56436582  0.62179579  0.35795359  1
  O  O62  1  0.24904790  0.87067287  0.35427599  1
  O  O63  1  0.75455486  0.88906264  0.35754649  1
  O  O64  1  0.18095343  0.48257543  0.36077085  1
  O  O65  1  0.68633368  0.50605687  0.35659807  1
  O  O66  1  0.06426805  0.50955256  0.85867488  1
  O  O67  1  0.56758104  0.49603517  0.85321541  1
  O  O68  1  0.18996912  0.87557167  0.85703261  1
  O  O69  1  0.67850375  0.87720575  0.86017800  1
  O  O70  1  0.25946763  0.63786134  0.85995659  1
  O  O71  1  0.74843119  0.62712599  0.85413637  1
  O  O72  1  0.01521517  0.84856372  0.41018480  1
  O  O73  1  0.51038917  0.83633671  0.41232558  1
  O  O74  1  0.40959204  0.99000886  0.40815951  1
  O  O75  1  0.91707062  0.98619022  0.40946574  1
  O  O76  1  0.08951894  0.20391692  0.41366534  1
  O  O77  1  0.57727846  0.17499581  0.40659338  1
  O  O78  1  0.01014883  0.18372596  0.91232482  1
  O  O79  1  0.51040155  0.17314294  0.91005164  1
  O  O80  1  0.07863928  0.98166364  0.90785260  1
  O  O81  1  0.58613275  0.97514661  0.91287780  1
  O  O82  1  0.40272681  0.82698754  0.91242498  1
  O  O83  1  0.90965318  0.82914751  0.90804097  1
  O  O84  1  0.48855823  0.17227128  0.58708870  1
  O  O85  1  0.98758244  0.16127793  0.58397220  1
  O  O86  1  0.09042522  0.02680138  0.59141561  1
  O  O87  1  0.59461561  0.02780707  0.58864210  1
  O  O88  1  0.42644951  0.82928864  0.58944350  1
  O  O89  1  0.92560922  0.82076261  0.58872378  1
  O  O90  1  0.48641243  0.81215342  0.08361336  1
  O  O91  1  0.98905512  0.80348347  0.08597808  1
  O  O92  1  0.42589575  0.02711131  0.08939786  1
  O  O93  1  0.92631972  0.02149023  0.08936269  1
  O  O94  1  0.09915927  0.16775875  0.08454449  1
  O  O95  1  0.59066271  0.15436598  0.09052075  1
  O  O96  1  0.34480235  0.16429881  0.74981548  1
  O  O97  1  0.84491095  0.16378706  0.74680586  1
  O  O98  1  0.23566288  0.31264092  0.75129690  1
  O  O99  1  0.74004494  0.31003682  0.74632447  1
  O  O100  1  0.42001157  0.52697178  0.74911107  1
  O  O101  1  0.92530839  0.53680770  0.74875439  1
  O  O102  1  0.34514604  0.52616895  0.24602355  1
  O  O103  1  0.84372291  0.52224001  0.24769282  1
  O  O104  1  0.42272546  0.30786247  0.24641346  1
  O  O105  1  0.92038502  0.31738324  0.24692190  1
  O  O106  1  0.23695709  0.16984991  0.24754077  1
  O  O107  1  0.73491783  0.15858515  0.25010318  1
  O  O108  1  0.32110431  0.50673162  0.91876038  1
  O  O109  1  0.82243791  0.49035196  0.92578007  1
  O  O110  1  0.42664861  0.34989725  0.91968886  1
  O  O111  1  0.92081166  0.36324288  0.92201777  1
  O  O112  1  0.25622880  0.16596269  0.92456373  1
  O  O113  1  0.74696588  0.13449934  0.91918566  1
  O  O114  1  0.32162980  0.15384529  0.42633154  1
  O  O115  1  0.82244726  0.16188482  0.42319995  1
  O  O116  1  0.24944672  0.36431124  0.41990649  1
  O  O117  1  0.75434688  0.35441008  0.42244976  1
  O  O118  1  0.42042536  0.47738091  0.42186500  1
  O  O119  1  0.92891542  0.50708174  0.41809277  1
  O  O120  1  0.17563669  0.48416981  0.07769692  1
  O  O121  1  0.67467454  0.50099850  0.07614359  1
  O  O122  1  0.06695391  0.64280644  0.07959012  1
  O  O123  1  0.57962562  0.65331711  0.06894544  1
  O  O124  1  0.25023014  0.83726150  0.07806300  1
  O  O125  1  0.74750630  0.84457506  0.07248192  1
  O  O126  1  0.17505390  0.84879780  0.57605239  1
  O  O127  1  0.67087286  0.86190734  0.58057835  1
  O  O128  1  0.24854077  0.65239282  0.57319687  1
  O  O129  1  0.74846622  0.65269364  0.58020217  1
  O  O130  1  0.08088519  0.50719824  0.57053838  1
  O  O131  1  0.56660112  0.48919826  0.58094313  1
  O  O132  1  0.14662127  0.82179004  0.25139561  1
  O  O133  1  0.64488692  0.80935121  0.25831783  1
  O  O134  1  0.25822048  0.70029983  0.25734316  1
  O  O135  1  0.75324374  0.69564561  0.25803761  1
  O  O136  1  0.09588175  0.48537699  0.25841608  1
  O  O137  1  0.58156334  0.46278259  0.25257542  1
  O  O138  1  0.14671014  0.48216463  0.76080870  1
  O  O139  1  0.64760492  0.47577064  0.75064679  1
  O  O140  1  0.08505809  0.70034910  0.75514399  1
  O  O141  1  0.59496074  0.70711923  0.76025334  1
  O  O142  1  0.25424056  0.80939215  0.75854794  1
  O  O143  1  0.75832413  0.81685000  0.75791544  1
loop_
_geom_bond_atom_site_label_1
_geom_bond_atom_site_label_2
_geom_bond_distance
_geom_bond_site_symmetry_2
Na0 O134 2.394479 1_545
Na0 O104 2.401687 1_555
Na0 O106 2.419722 1_555
Na0 O32 2.455284 1_555
Na0 O132 2.530148 1_545
Na0 O62 2.623288 1_545
Na0 O18 2.844108 1_545
Na0 O4 2.967967 1_555
Na1 O107 2.343017 1_555
Na1 O105 2.392159 1_555
Na1 O33 2.467833 1_555
Na1 O135 2.474162 1_545
Na1 O63 2.609197 1_545
Na1 O133 2.615850 1_545
Na1 O19 2.814362 1_545
Na1 O5 2.895460 1_555
Na2 O106 2.325230 1_555
Na2 O136 2.334509 1_555
Na2 O102 2.384905 1_555
Na2 O134 2.553969 1_555
Na2 O64 2.565057 1_555
Na2 O34 2.701839 1_555
Na2 O20 2.839297 1_555
Na2 O0 2.849000 1_555
Na3 O103 2.333165 1_555
Na3 O107 2.348148 1_555
Na3 O137 2.461849 1_555
Na3 O35 2.502143 1_555
Na3 O135 2.554961 1_555
Na3 O65 2.633982 1_555
Na4 O103 2.315044 1_555
Na4 O105 2.324610 1_555
Na4 O132 2.390792 1_655
Na4 O60 2.525993 1_655
Na4 O136 2.634209 1_655
Na4 O31 2.674730 1_555
Na4 O3 2.836535 1_555
Na5 O133 2.303585 1_555
Na5 O102 2.330476 1_555
Na5 O104 2.469814 1_555
Na5 O30 2.527679 1_555
Na5 O137 2.595072 1_555
Na5 O61 2.692119 1_555
Na5 O23 2.812347 1_555
Na5 O2 2.866788 1_555
Na6 O28 2.320907 1_555
Na6 O98 2.352900 1_555
Na6 O100 2.368712 1_555
Na6 O142 2.444600 1_555
Na6 O138 2.604510 1_555
Na6 O70 2.749110 1_555
Na6 O12 2.770134 1_555
Na7 O29 2.342472 1_555
Na7 O143 2.393473 1_555
Na7 O99 2.400254 1_555
Na7 O101 2.450615 1_555
Na7 O139 2.533145 1_555
Na7 O71 2.685372 1_555
Na7 O13 2.807435 1_555
Na8 O97 2.313859 1_555
Na8 O138 2.359699 1_655
Na8 O25 2.370350 1_555
Na8 O101 2.452213 1_555
Na8 O140 2.649234 1_655
Na8 O14 2.698577 1_655
Na8 O66 2.803688 1_655
Na8 O11 2.901338 1_555
Na9 O96 2.331316 1_555
Na9 O100 2.337657 1_555
Na9 O139 2.377947 1_555
Na9 O67 2.557802 1_555
Na9 O24 2.561720 1_555
Na9 O141 2.610080 1_555
Na9 O15 2.934555 1_555
Na9 O10 3.004542 1_555
Na10 O98 2.335072 1_555
Na10 O96 2.345826 1_555
Na10 O26 2.387834 1_555
Na10 O140 2.486920 1_545
Na10 O142 2.612081 1_545
Na10 O68 2.734560 1_545
Na10 O16 2.874899 1_545
Na10 O6 2.947384 1_555
Na11 O97 2.352873 1_555
Na11 O141 2.358396 1_545
Na11 O99 2.362419 1_555
Na11 O143 2.539507 1_545
Na11 O27 2.568986 1_555
Na11 O69 2.637228 1_545
Na11 O17 2.803998 1_545
Na11 O7 2.837079 1_555
Na12 O86 2.416359 1_555
Na12 O128 2.440961 1_555
Na12 O130 2.448682 1_555
Na12 O85 2.544102 1_455
Na12 O56 2.643834 1_555
Na12 O14 2.661720 1_555
Na12 O42 2.712551 1_555
Na12 O28 2.773343 1_555
Na13 O129 2.367619 1_555
Na13 O57 2.440736 1_555
Na13 O131 2.472083 1_555
Na13 O87 2.484553 1_555
Na13 O84 2.559057 1_555
Na13 O15 2.760987 1_555
Na13 O43 2.817487 1_555
Na13 O29 2.826610 1_555
Na14 O89 2.323606 1_455
Na14 O126 2.467202 1_555
Na14 O130 2.501130 1_555
Na14 O86 2.561514 1_565
Na14 O58 2.573833 1_555
Na14 O16 2.714249 1_555
Na14 O45 2.752860 1_455
Na14 O25 2.779767 1_455
Na15 O59 2.333042 1_555
Na15 O127 2.385740 1_555
Na15 O88 2.414203 1_555
Na15 O131 2.419253 1_555
Na15 O87 2.582087 1_565
Na15 O44 2.640789 1_555
Na15 O17 2.796949 1_555
Na16 O126 2.403567 1_555
Na16 O128 2.437968 1_555
Na16 O84 2.439582 1_565
Na16 O88 2.543204 1_555
Na16 O54 2.601275 1_555
Na16 O12 2.641911 1_555
Na16 O26 2.708836 1_565
Na16 O46 2.848207 1_565
Na17 O55 2.318676 1_555
Na17 O129 2.352543 1_555
Na17 O85 2.428851 1_565
Na17 O127 2.508314 1_555
Na17 O89 2.532350 1_555
Na17 O13 2.752824 1_555
Na17 O47 2.822694 1_565
Na18 O94 2.453311 1_565
Na18 O124 2.454003 1_555
Na18 O122 2.485563 1_555
Na18 O52 2.517372 1_554
Na18 O91 2.536144 1_455
Na18 O22 2.629306 1_555
Na18 O32 2.704974 1_565
Na18 O36 2.942138 1_565
Na19 O95 2.413927 1_565
Na19 O125 2.415753 1_555
Na19 O123 2.477686 1_555
Na19 O23 2.557656 1_555
Na19 O90 2.579846 1_555
Na19 O53 2.692759 1_554
Na19 O33 2.710310 1_565
Na19 O37 2.785481 1_565
Na20 O124 2.317706 1_555
Na20 O90 2.373231 1_555
Na20 O120 2.456036 1_555
Na20 O92 2.515038 1_565
Na20 O18 2.531689 1_555
Na20 O48 2.661469 1_554
Na20 O38 2.848983 1_555
Na20 O34 2.880859 1_555
Na21 O121 2.410339 1_555
Na21 O91 2.453726 1_555
Na21 O125 2.458948 1_555
Na21 O19 2.524367 1_555
Na21 O93 2.531387 1_565
Na21 O35 2.679216 1_555
Na21 O49 2.680714 1_554
Na21 O39 2.894538 1_555
Na22 O93 2.399636 1_455
Na22 O122 2.436425 1_555
Na22 O120 2.464162 1_555
Na22 O50 2.470125 1_554
Na22 O94 2.567337 1_555
Na22 O20 2.649558 1_555
Na22 O41 2.679943 1_455
Na22 O31 2.928279 1_455
Na23 O92 2.358095 1_555
Na23 O121 2.440026 1_555
Na23 O123 2.514454 1_555
Na23 O95 2.532495 1_555
Na23 O21 2.604964 1_555
Na23 O51 2.656212 1_554
Na23 O30 2.690935 1_555
Na23 O40 2.797463 1_555
Na24 O111 2.374706 1_555
Na24 O83 2.383782 1_555
Na24 O80 2.421319 1_655
Na24 O109 2.481493 1_555
Na24 O39 2.598531 1_556
Na24 O9 2.627861 1_555
Na24 O66 2.765186 1_655
Na24 O52 2.782734 1_655
Na25 O110 2.435897 1_555
Na25 O82 2.442045 1_545
Na25 O10 2.452519 1_555
Na25 O79 2.455137 1_555
Na25 O112 2.471271 1_555
Na25 O40 2.573507 1_556
Na25 O68 2.739019 1_545
Na25 O48 2.919939 1_545
Na26 O78 2.383733 1_555
Na26 O108 2.425488 1_555
Na26 O112 2.442084 1_555
Na26 O80 2.452084 1_545
Na26 O6 2.591445 1_555
Na26 O36 2.597905 1_556
Na26 O50 2.813490 1_555
Na26 O70 2.896876 1_555
Na27 O118 2.369809 1_555
Na27 O77 2.390079 1_555
Na27 O74 2.407659 1_545
Na27 O114 2.521488 1_555
Na27 O46 2.623810 1_555
Na27 O57 2.664119 1_555
Na27 O4 2.668394 1_555
Na27 O61 2.794529 1_555
Na28 O115 2.356975 1_555
Na28 O73 2.435223 1_545
Na28 O117 2.491380 1_555
Na28 O77 2.523346 1_555
Na28 O43 2.639224 1_555
Na28 O1 2.639420 1_555
Na28 O63 2.713028 1_545
Na28 O59 2.901497 1_545
Na29 O117 2.443503 1_555
Na29 O75 2.449647 1_555
Na29 O119 2.479502 1_555
Na29 O72 2.542762 1_655
Na29 O45 2.578558 1_555
Na29 O3 2.621293 1_555
Na29 O55 2.723007 1_555
Na29 O65 2.837190 1_555
Na30 O75 2.365722 1_445
Na30 O72 2.381060 1_545
Na30 O76 2.459003 1_555
Na30 O85 2.459141 1_455
Na30 O89 2.518391 1_445
Na30 O86 2.551922 1_555
Na31 O73 2.352662 1_555
Na31 O88 2.434509 1_555
Na31 O74 2.436597 1_555
Na31 O77 2.495689 1_565
Na31 O87 2.594444 1_565
Na31 O84 2.597269 1_565
Na32 O93 2.378232 1_566
Na32 O78 2.386774 1_665
Na32 O83 2.435251 1_555
Na32 O80 2.504519 1_655
Na32 O94 2.562963 1_666
Na32 O91 2.601782 1_556
Na33 O95 2.418592 1_556
Na33 O81 2.425287 1_545
Na33 O79 2.428024 1_555
Na33 O90 2.441498 1_546
Na33 O92 2.485617 1_556
Na33 O82 2.566656 1_545
Na34 O100 2.334113 1_555
Na34 O96 2.366055 1_555
Na34 O98 2.396584 1_555
Na34 O110 2.503521 1_555
Na34 O108 2.540688 1_555
Na34 O112 2.571956 1_555
Na35 O99 2.400223 1_555
Na35 O113 2.429665 1_555
Na35 O97 2.437877 1_555
Na35 O111 2.465540 1_555
Na35 O109 2.538425 1_555
Na35 O101 2.601919 1_555
Na36 O106 2.406131 1_555
Na36 O116 2.411607 1_555
Na36 O118 2.436823 1_555
Na36 O102 2.480600 1_555
Na36 O114 2.562699 1_555
Na36 O104 2.614224 1_555
Na37 O105 2.380044 1_555
Na37 O107 2.424986 1_555
Na37 O103 2.454455 1_555
Na37 O115 2.458076 1_555
Na37 O119 2.475254 1_555
Na37 O117 2.528289 1_555
Na38 O132 2.384012 1_555
Na38 O124 2.419995 1_555
Na38 O134 2.422911 1_555
Na38 O136 2.501450 1_555
Na38 O122 2.581489 1_555
Na38 O120 2.615492 1_555
Na39 O135 2.421147 1_555
Na39 O133 2.448072 1_555
Na39 O137 2.534302 1_555
Na39 O121 2.535589 1_555
Na39 O125 2.536444 1_555
Na39 O123 2.621086 1_555
Na40 O128 2.441945 1_555
Na40 O126 2.484588 1_555
Na40 O130 2.484733 1_555
Na40 O142 2.516576 1_555
Na40 O140 2.586000 1_555
Na40 O138 2.590235 1_555
Na41 O129 2.318929 1_555
Na41 O139 2.423126 1_555
Na41 O143 2.468189 1_555
Na41 O131 2.525464 1_555
Na41 O127 2.545252 1_555
Na41 O141 2.589523 1_555
Mg0 O26 1.980592 1_555
Mg0 O28 2.015939 1_555
Mg0 O98 2.053383 1_555
Mg0 O100 2.121911 1_555
Mg0 O24 2.121918 1_555
Mg0 O96 2.149827 1_555
Mg1 O29 1.954390 1_555
Mg1 O25 2.003678 1_555
Mg1 O27 2.062934 1_555
Mg1 O99 2.074301 1_555
Mg1 O97 2.109970 1_555
Mg1 O101 2.197462 1_555
Mg2 O32 1.972673 1_555
Mg2 O30 2.022590 1_555
Mg2 O102 2.065293 1_555
Mg2 O34 2.083439 1_555
Mg2 O106 2.087514 1_555
Mg2 O104 2.143021 1_555
Mg3 O35 1.995553 1_555
Mg3 O33 2.010002 1_555
Mg3 O107 2.028877 1_555
Mg3 O103 2.074358 1_555
Mg3 O105 2.086455 1_555
Mg3 O31 2.172814 1_555
Mg4 O52 1.945927 1_554
Mg4 O50 1.948094 1_554
Mg4 O124 2.012990 1_555
Mg4 O48 2.066295 1_554
Mg4 O122 2.133398 1_555
Mg4 O120 2.254767 1_555
Mg5 O57 1.954896 1_555
Mg5 O55 1.964366 1_555
Mg5 O59 1.989281 1_555
Mg5 O129 2.062655 1_555
Mg5 O131 2.291775 1_555
Mg5 O127 2.299963 1_555
Ge0 O3 1.812155 1_555
Ge0 O0 1.812675 1_665
Ge0 O5 1.848226 1_565
Ge0 O75 1.857882 1_555
Ge0 O72 1.949739 1_655
Ge0 O76 2.228692 1_665
Ge1 O2 1.792110 1_555
Ge1 O73 1.825933 1_555
Ge1 O1 1.835314 1_565
Ge1 O77 1.897061 1_565
Ge1 O74 1.913545 1_555
Ge1 O4 2.246752 1_565
Ge2 O11 1.783760 1_555
Ge2 O78 1.823722 1_655
Ge2 O6 1.846188 1_655
Ge2 O83 1.913084 1_545
Ge2 O80 1.942626 1_645
Ge2 O9 2.191483 1_545
Ge3 O7 1.750945 1_555
Ge3 O10 1.806082 1_555
Ge3 O8 1.807930 1_545
Ge3 O79 1.898971 1_555
Ge3 O81 2.199253 1_545
Ge3 O82 2.258667 1_545
Ge4 O85 1.848557 1_555
Ge4 O13 1.866069 1_545
Ge4 O14 1.900207 1_655
Ge4 O89 1.906160 1_545
Ge4 O86 1.927829 1_655
Ge4 O16 2.326913 1_645
Ge5 O17 1.798299 1_555
Ge5 O12 1.824120 1_555
Ge5 O15 1.847483 1_565
Ge5 O88 1.917065 1_555
Ge5 O87 2.170609 1_565
Ge5 O84 2.346633 1_565
Ge6 O20 1.783050 1_655
Ge6 O19 1.792154 1_545
Ge6 O22 1.840113 1_645
Ge6 O93 1.947292 1_555
Ge6 O94 2.372969 1_655
Ge6 O91 2.391093 1_545
Ge7 O23 1.857497 1_555
Ge7 O18 1.870897 1_555
Ge7 O90 1.901288 1_555
Ge7 O92 1.918401 1_565
Ge7 O95 1.961734 1_565
Ge7 O21 2.167450 1_565
Ge8 O40 1.796971 1_556
Ge8 O38 1.805345 1_556
Ge8 O110 1.829520 1_555
Ge8 O112 1.941137 1_555
Ge8 O36 2.260278 1_556
Ge8 O108 2.368874 1_555
Ge9 O37 1.838553 1_556
Ge9 O41 1.890201 1_556
Ge9 O111 1.909043 1_555
Ge9 O109 1.950813 1_555
Ge9 O113 1.998587 1_555
Ge9 O39 2.156483 1_556
Ge10 O42 1.855450 1_555
Ge10 O44 1.880358 1_555
Ge10 O118 1.913335 1_555
Ge10 O114 1.917499 1_555
Ge10 O116 1.970575 1_555
Ge10 O46 2.203695 1_555
Ge11 O119 1.816438 1_555
Ge11 O47 1.837001 1_555
Ge11 O115 1.890053 1_555
Ge11 O45 1.894856 1_555
Ge11 O117 2.001010 1_555
Ge11 O43 2.408476 1_555
Ge12 O49 1.828344 1_554
Ge12 O121 1.850932 1_555
Ge12 O51 1.857282 1_554
Ge12 O123 1.892680 1_555
Ge12 O125 1.927517 1_555
Ge12 O53 2.226356 1_554
Ge13 O58 1.832973 1_555
Ge13 O54 1.836302 1_555
Ge13 O126 1.868150 1_555
Ge13 O130 1.912844 1_555
Ge13 O128 1.952870 1_555
Ge13 O56 2.125903 1_555
Ge14 O60 1.810636 1_555
Ge14 O62 1.839768 1_555
Ge14 O132 1.906825 1_555
Ge14 O136 1.918190 1_555
Ge14 O134 1.920229 1_555
Ge14 O64 2.255418 1_555
Ge15 O63 1.816850 1_555
Ge15 O61 1.879618 1_555
Ge15 O65 1.896778 1_555
Ge15 O135 1.939039 1_555
Ge15 O133 1.984103 1_555
Ge15 O137 2.360472 1_555
Ge16 O66 1.861119 1_555
Ge16 O68 1.894159 1_555
Ge16 O142 1.912768 1_555
Ge16 O138 1.919507 1_555
Ge16 O70 2.055971 1_555
Ge16 O140 2.066522 1_555
Ge17 O71 1.843674 1_555
Ge17 O67 1.850404 1_555
Ge17 O139 1.888777 1_555
Ge17 O141 1.913232 1_555
Ge17 O143 1.916772 1_555
Ge17 O69 2.217020 1_555
O0 Si0 1.616217 1_555
O1 Si1 1.624714 1_545
O2 Si2 1.610964 1_555
O3 Si3 1.620532 1_555
O4 S0 1.468318 1_555
O5 Si4 1.612387 1_655
O6 Si5 1.634693 1_555
O7 Si6 1.637316 1_555
O8 Si7 1.643641 1_555
O9 S1 1.474103 1_655
O10 Si8 1.643608 1_545
O11 Si9 1.620505 1_545
O12 Si8 1.666747 1_555
O13 Si9 1.667824 1_555
O14 Si5 1.666049 1_555
O15 Si6 1.677708 1_555
O16 S1 1.473552 1_555
O17 Si7 1.677246 1_555
O18 Si2 1.676907 1_555
O19 Si3 1.692344 1_555
O20 Si4 1.701273 1_555
O21 S0 1.503541 1_555
O22 Si0 1.708740 1_565
O23 Si1 1.683129 1_555
O24 S2 1.470642 1_555
O25 Si10 1.601042 1_555
O26 Si11 1.594954 1_555
O27 S3 1.475441 1_555
O28 Si12 1.597194 1_555
O29 Si13 1.600459 1_555
O30 Si14 1.594248 1_555
O31 S4 1.456205 1_555
O32 Si15 1.589564 1_555
O33 Si16 1.585830 1_555
O34 S5 1.466225 1_555
O35 Si17 1.582824 1_555
O36 S5 1.503190 1_555
O37 Si17 1.669415 1_555
O38 Si14 1.683699 1_555
O39 S4 1.508925 1_555
O40 Si15 1.704908 1_555
O41 Si16 1.668429 1_555
O42 Si11 1.664891 1_555
O43 S3 1.470918 1_555
O44 Si12 1.656963 1_555
O45 Si13 1.693204 1_555
O46 S2 1.503136 1_555
O47 Si10 1.640716 1_555
O48 S6 1.474019 1_555
O49 Si18 1.633880 1_555
O50 Si19 1.594664 1_555
O51 Si20 1.618141 1_555
O52 Si21 1.590053 1_555
O53 S7 1.473886 1_555
O54 Si22 1.634996 1_555
O55 Si23 1.594952 1_555
O56 S8 1.484660 1_555
O57 Si24 1.596937 1_555
O58 Si25 1.628473 1_555
O59 Si26 1.593831 1_555
O60 Si25 1.637058 1_555
O61 Si26 1.685601 1_555
O62 Si22 1.640889 1_555
O63 Si23 1.686366 1_555
O64 S8 1.477721 1_555
O65 Si24 1.683088 1_555
O66 Si19 1.696735 1_555
O67 Si20 1.627751 1_555
O68 Si21 1.681209 1_555
O69 S7 1.479387 1_555
O70 S6 1.524571 1_555
O71 Si18 1.640403 1_555
O72 Si25 1.644114 1_555
O73 Si26 1.648719 1_555
O74 Si22 1.658046 1_555
O75 Si23 1.648799 1_555
O76 S8 1.466943 1_555
O77 Si24 1.663937 1_555
O78 Si19 1.644037 1_555
O79 Si20 1.687424 1_555
O80 Si21 1.646119 1_555
O81 S7 1.490497 1_555
O82 S6 1.482121 1_555
O83 Si18 1.667302 1_555
O84 S2 1.502638 1_555
O85 Si10 1.671223 1_555
O86 Si11 1.664907 1_555
O87 S3 1.523091 1_555
O88 Si12 1.719988 1_555
O89 Si13 1.692590 1_555
O90 Si14 1.661944 1_555
O91 S4 1.498002 1_555
O92 Si15 1.667774 1_555
O93 Si16 1.725619 1_555
O94 S5 1.498268 1_555
O95 Si17 1.664756 1_555
O96 Si8 1.591071 1_545
O97 Si9 1.610899 1_545
O98 Si5 1.601832 1_555
O99 Si6 1.596970 1_555
O100 Si7 1.595874 1_555
O101 S1 1.474156 1_655
O102 Si2 1.611963 1_555
O103 Si3 1.589767 1_555
O104 S0 1.483109 1_555
O105 Si4 1.595024 1_655
O106 Si0 1.606251 1_555
O107 Si1 1.601715 1_545
O108 S6 1.470117 1_555
O109 Si18 1.663435 1_555
O110 Si20 1.674663 1_555
O111 Si19 1.659662 1_655
O112 Si21 1.702943 1_545
O113 S7 1.517749 1_545
O114 Si22 1.665461 1_545
O115 Si23 1.653999 1_545
O116 S8 1.523209 1_555
O117 Si24 1.662443 1_555
O118 Si26 1.670180 1_555
O119 Si25 1.656232 1_655
O120 S5 1.482497 1_555
O121 Si17 1.670294 1_555
O122 S4 1.486171 1_455
O123 Si14 1.654998 1_555
O124 Si15 1.620415 1_565
O125 Si16 1.661114 1_565
O126 Si11 1.664358 1_565
O127 S3 1.482734 1_565
O128 Si12 1.653676 1_555
O129 Si13 1.623962 1_555
O130 Si10 1.660290 1_455
O131 S2 1.476026 1_555
O132 Si0 1.666952 1_565
O133 Si1 1.674707 1_555
O134 Si2 1.662308 1_555
O135 Si3 1.664672 1_555
O136 Si4 1.660084 1_555
O137 S0 1.488822 1_555
O138 Si5 1.690806 1_555
O139 Si6 1.658539 1_555
O140 S1 1.525602 1_555
O141 Si7 1.655214 1_555
O142 Si8 1.676080 1_555
O143 Si9 1.663286 1_555
