# generated using pymatgen
data_Cu6PbO8
_symmetry_space_group_name_H-M   'P 1'
_cell_length_a   6.10140521
_cell_length_b   6.10140521
_cell_length_c   6.10140521
_cell_angle_alpha   60.00000000
_cell_angle_beta   60.00000000
_cell_angle_gamma   60.00000000
_symmetry_Int_Tables_number   1
_chemical_formula_structural   Cu6PbO8
_chemical_formula_sum   'Cu6 Pb1 O8'
_cell_volume   160.61074930
_cell_formula_units_Z   1
loop_
 _symmetry_equiv_pos_site_id
 _symmetry_equiv_pos_as_xyz
  1  'x, y, z'
loop_
 _atom_site_type_symbol
 _atom_site_label
 _atom_site_symmetry_multiplicity
 _atom_site_fract_x
 _atom_site_fract_y
 _atom_site_fract_z
 _atom_site_occupancy
  Cu  Cu0  1  0.00000000  0.50000000  0.00000000  1
  Cu  Cu1  1  0.50000000  0.50000000  0.00000000  1
  Cu  Cu2  1  0.00000000  0.50000000  0.50000000  1
  Cu  Cu3  1  0.50000000  0.00000000  0.50000000  1
  Cu  Cu4  1  0.00000000  0.00000000  0.50000000  1
  Cu  Cu5  1  0.50000000  0.00000000  0.00000000  1
  Pb  Pb0  1  0.00000000  0.00000000  0.00000000  1
  O  O0  1  0.75000000  0.75000000  0.75000000  1
  O  O1  1  0.25151800  0.25151800  0.74848200  1
  O  O2  1  0.25151800  0.74848200  0.74848200  1
  O  O3  1  0.74848200  0.25151800  0.25151800  1
  O  O4  1  0.25151800  0.74848200  0.25151800  1
  O  O5  1  0.74848200  0.25151800  0.74848200  1
  O  O6  1  0.25000000  0.25000000  0.25000000  1
  O  O7  1  0.74848200  0.74848200  0.25151800  1
loop_
_geom_bond_atom_site_label_1
_geom_bond_atom_site_label_2
_geom_bond_distance
_geom_bond_site_symmetry_2
Cu0 O6 2.157173 1_555
Cu0 O0 2.157173 1_454
Cu0 O7 2.157212 1_455
Cu0 O1 2.157212 1_554
Cu0 O2 2.157212 1_554
Cu0 O3 2.157212 1_455
Cu1 O6 2.157173 1_555
Cu1 O0 2.157173 1_554
Cu1 O3 2.157212 1_555
Cu1 O4 2.157212 1_555
Cu1 O5 2.157212 1_554
Cu1 O2 2.157212 1_554
Cu2 O6 2.157173 1_555
Cu2 O0 2.157173 1_455
Cu2 O7 2.157212 1_455
Cu2 O4 2.157212 1_555
Cu2 O1 2.157212 1_555
Cu2 O5 2.157212 1_455
Cu3 O6 2.157173 1_555
Cu3 O0 2.157173 1_545
Cu3 O3 2.157212 1_555
Cu3 O2 2.157212 1_545
Cu3 O1 2.157212 1_555
Cu3 O7 2.157212 1_545
Cu4 O6 2.157173 1_555
Cu4 O0 2.157173 1_445
Cu4 O2 2.157212 1_545
Cu4 O5 2.157212 1_455
Cu4 O4 2.157212 1_545
Cu4 O3 2.157212 1_455
Cu5 O6 2.157173 1_555
Cu5 O0 2.157173 1_544
Cu5 O1 2.157212 1_554
Cu5 O5 2.157212 1_554
Cu5 O7 2.157212 1_545
Cu5 O4 2.157212 1_545
O1 Pb0 2.170271 1_556
O2 Pb0 2.170271 1_566
O3 Pb0 2.170271 1_655
O4 Pb0 2.170271 1_565
O5 Pb0 2.170271 1_656
O7 Pb0 2.170271 1_665
