# generated using pymatgen
data_Bi4Te7Pb
_symmetry_space_group_name_H-M   'P 1'
_cell_length_a   4.44984566
_cell_length_b   4.44984566
_cell_length_c   25.15890227
_cell_angle_alpha   90.00000000
_cell_angle_beta   90.00000000
_cell_angle_gamma   120.00000537
_symmetry_Int_Tables_number   1
_chemical_formula_structural   Bi4Te7Pb
_chemical_formula_sum   'Bi4 Te7 Pb1'
_cell_volume   431.43183939
_cell_formula_units_Z   1
loop_
 _symmetry_equiv_pos_site_id
 _symmetry_equiv_pos_as_xyz
  1  'x, y, z'
loop_
 _atom_site_type_symbol
 _atom_site_label
 _atom_site_symmetry_multiplicity
 _atom_site_fract_x
 _atom_site_fract_y
 _atom_site_fract_z
 _atom_site_occupancy
  Bi  Bi0  1  0.33333300  0.66666700  0.84079120  1
  Bi  Bi1  1  0.66666700  0.33333300  0.41902361  1
  Bi  Bi2  1  0.66666700  0.33333300  0.15920880  1
  Bi  Bi3  1  0.33333300  0.66666700  0.58097639  1
  Te  Te0  1  0.66666700  0.33333300  0.64841146  1
  Te  Te1  1  0.33333300  0.66666700  0.07815913  1
  Te  Te2  1  0.00000000  0.00000000  0.22614773  1
  Te  Te3  1  0.33333300  0.66666700  0.35158854  1
  Te  Te4  1  0.66666700  0.33333300  0.92184087  1
  Te  Te5  1  0.00000000  0.00000000  0.50000000  1
  Te  Te6  1  -0.00000000  -0.00000000  0.77385227  1
  Pb  Pb0  1  0.00000000  0.00000000  -0.00000000  1
loop_
_geom_bond_atom_site_label_1
_geom_bond_atom_site_label_2
_geom_bond_distance
_geom_bond_site_symmetry_2
Bi0 Te6 3.071903 1_565
Bi0 Te6 3.071906 1_665
Bi0 Te6 3.071906 1_555
Bi0 Te4 3.279996 1_455
Bi0 Te4 3.279996 1_565
Bi0 Te4 3.280002 1_555
Bi1 Te3 3.078764 1_545
Bi1 Te3 3.078764 1_655
Bi1 Te3 3.078770 1_555
Bi1 Te5 3.278850 1_655
Bi1 Te5 3.278853 1_665
Bi1 Te5 3.278853 1_555
Bi2 Te2 3.071903 1_655
Bi2 Te2 3.071906 1_665
Bi2 Te2 3.071906 1_555
Bi2 Te1 3.279996 1_545
Bi2 Te1 3.279996 1_655
Bi2 Te1 3.280002 1_555
Bi3 Te0 3.078764 1_565
Bi3 Te0 3.078764 1_455
Bi3 Te0 3.078770 1_555
Bi3 Te5 3.278850 1_565
Bi3 Te5 3.278853 1_665
Bi3 Te5 3.278853 1_555
Pb0 Te4 3.235287 1_454
Pb0 Te1 3.235287 1_545
Pb0 Te4 3.235290 1_554
Pb0 Te4 3.235290 1_444
Pb0 Te1 3.235290 1_555
Pb0 Te1 3.235290 1_445
