# generated using pymatgen
data_Bi3B5O12
_symmetry_space_group_name_H-M   'P 1'
_cell_length_a   6.55314361
_cell_length_b   7.75645181
_cell_length_c   18.47917474
_cell_angle_alpha   90.00000000
_cell_angle_beta   90.00000000
_cell_angle_gamma   90.00000000
_symmetry_Int_Tables_number   1
_chemical_formula_structural   Bi3B5O12
_chemical_formula_sum   'Bi12 B20 O48'
_cell_volume   939.28060827
_cell_formula_units_Z   4
loop_
 _symmetry_equiv_pos_site_id
 _symmetry_equiv_pos_as_xyz
  1  'x, y, z'
loop_
 _atom_site_type_symbol
 _atom_site_label
 _atom_site_symmetry_multiplicity
 _atom_site_fract_x
 _atom_site_fract_y
 _atom_site_fract_z
 _atom_site_occupancy
  Bi  Bi0  1  0.48485543  0.51571522  0.40330412  1
  Bi  Bi1  1  0.98485543  0.98428478  0.09669588  1
  Bi  Bi2  1  0.51514457  0.01571522  0.59669588  1
  Bi  Bi3  1  0.01514457  0.48428478  0.90330412  1
  Bi  Bi4  1  0.51514457  0.48428478  0.59669588  1
  Bi  Bi5  1  0.01514457  0.01571522  0.90330412  1
  Bi  Bi6  1  0.48485543  0.98428478  0.40330412  1
  Bi  Bi7  1  0.98485543  0.51571522  0.09669588  1
  Bi  Bi8  1  0.03668717  0.75000000  0.31441207  1
  Bi  Bi9  1  0.53668717  0.75000000  0.18558793  1
  Bi  Bi10  1  0.96331283  0.25000000  0.68558793  1
  Bi  Bi11  1  0.46331283  0.25000000  0.81441207  1
  B  B0  1  0.93236210  0.75000000  0.61047820  1
  B  B1  1  0.43236210  0.75000000  0.88952180  1
  B  B2  1  0.06763790  0.25000000  0.38952180  1
  B  B3  1  0.56763790  0.25000000  0.11047820  1
  B  B4  1  0.12520381  0.40426904  0.26901017  1
  B  B5  1  0.62520381  0.09573096  0.23098983  1
  B  B6  1  0.87479619  0.90426904  0.73098983  1
  B  B7  1  0.37479619  0.59573096  0.76901017  1
  B  B8  1  0.87479619  0.59573096  0.73098983  1
  B  B9  1  0.37479619  0.90426904  0.76901017  1
  B  B10  1  0.12520381  0.09573096  0.26901017  1
  B  B11  1  0.62520381  0.40426904  0.23098983  1
  B  B12  1  0.83076129  0.75000000  0.48067072  1
  B  B13  1  0.33076129  0.75000000  0.01932928  1
  B  B14  1  0.16923871  0.25000000  0.51932928  1
  B  B15  1  0.66923871  0.25000000  0.98067072  1
  B  B16  1  0.20317666  0.75000000  0.51155307  1
  B  B17  1  0.70317666  0.75000000  0.98844693  1
  B  B18  1  0.79682334  0.25000000  0.48844693  1
  B  B19  1  0.29682334  0.25000000  0.01155307  1
  O  O0  1  0.77449944  0.75000000  0.55265783  1
  O  O1  1  0.27449944  0.75000000  0.94734217  1
  O  O2  1  0.22550056  0.25000000  0.44734217  1
  O  O3  1  0.72550056  0.25000000  0.05265783  1
  O  O4  1  0.88700755  0.75000000  0.76855490  1
  O  O5  1  0.38700755  0.75000000  0.73144510  1
  O  O6  1  0.11299245  0.25000000  0.23144510  1
  O  O7  1  0.61299245  0.25000000  0.26855490  1
  O  O8  1  0.13454109  0.75000000  0.58588309  1
  O  O9  1  0.63454109  0.75000000  0.91411691  1
  O  O10  1  0.86545891  0.25000000  0.41411691  1
  O  O11  1  0.36545891  0.25000000  0.08588309  1
  O  O12  1  0.02828455  0.75000000  0.45949827  1
  O  O13  1  0.52828455  0.75000000  0.04050173  1
  O  O14  1  0.97171545  0.25000000  0.54050173  1
  O  O15  1  0.47171545  0.25000000  0.95949827  1
  O  O16  1  0.11597414  0.40625426  0.34349814  1
  O  O17  1  0.61597414  0.09374574  0.15650186  1
  O  O18  1  0.88402586  0.90625426  0.65650186  1
  O  O19  1  0.38402586  0.59374574  0.84349814  1
  O  O20  1  0.88402586  0.59374574  0.65650186  1
  O  O21  1  0.38402586  0.90625426  0.84349814  1
  O  O22  1  0.11597414  0.09374574  0.34349814  1
  O  O23  1  0.61597414  0.40625426  0.15650186  1
  O  O24  1  0.14346469  0.55559151  0.23340653  1
  O  O25  1  0.64346469  0.94440849  0.26659347  1
  O  O26  1  0.85653531  0.05559151  0.76659347  1
  O  O27  1  0.35653531  0.44440849  0.73340653  1
  O  O28  1  0.85653531  0.44440849  0.76659347  1
  O  O29  1  0.35653531  0.05559151  0.73340653  1
  O  O30  1  0.14346469  0.94440849  0.23340653  1
  O  O31  1  0.64346469  0.55559151  0.26659347  1
  O  O32  1  0.67483866  0.40799085  0.50052934  1
  O  O33  1  0.17483866  0.09200915  0.99947066  1
  O  O34  1  0.32516134  0.90799085  0.49947066  1
  O  O35  1  0.82516134  0.59200915  0.00052934  1
  O  O36  1  0.32516134  0.59200915  0.49947066  1
  O  O37  1  0.82516134  0.90799085  0.00052934  1
  O  O38  1  0.67483866  0.09200915  0.50052934  1
  O  O39  1  0.17483866  0.40799085  0.99947066  1
  O  O40  1  0.33953523  0.75000000  0.35208995  1
  O  O41  1  0.83953523  0.75000000  0.14791005  1
  O  O42  1  0.66046477  0.25000000  0.64791005  1
  O  O43  1  0.16046477  0.25000000  0.85208995  1
  O  O44  1  0.68487875  0.75000000  0.42592436  1
  O  O45  1  0.18487875  0.75000000  0.07407564  1
  O  O46  1  0.31512125  0.25000000  0.57407564  1
  O  O47  1  0.81512125  0.25000000  0.92592436  1
loop_
_geom_bond_atom_site_label_1
_geom_bond_atom_site_label_2
_geom_bond_distance
_geom_bond_site_symmetry_2
Bi0 O36 2.145544 1_555
Bi0 O40 2.259387 1_555
Bi0 O44 2.279289 1_555
Bi0 O32 2.340101 1_555
Bi0 O31 2.749216 1_555
Bi0 O16 2.790293 1_555
Bi0 O2 2.792598 1_555
Bi1 O37 2.145544 1_555
Bi1 O41 2.259387 1_555
Bi1 O45 2.279289 1_655
Bi1 O33 2.340101 1_664
Bi1 O30 2.749216 1_655
Bi1 O17 2.790293 1_565
Bi1 O3 2.792598 1_565
Bi2 O38 2.145544 1_555
Bi2 O42 2.259387 1_555
Bi2 O46 2.279289 1_555
Bi2 O34 2.340101 1_545
Bi2 O29 2.749216 1_555
Bi2 O18 2.790293 1_545
Bi2 O0 2.792598 1_545
Bi3 O39 2.145544 1_555
Bi3 O43 2.259387 1_555
Bi3 O47 2.279289 1_455
Bi3 O35 2.340101 1_456
Bi3 O28 2.749216 1_455
Bi3 O19 2.790293 1_555
Bi3 O1 2.792598 1_555
Bi4 O32 2.145544 1_555
Bi4 O42 2.259387 1_555
Bi4 O46 2.279289 1_555
Bi4 O36 2.340101 1_555
Bi4 O27 2.749216 1_555
Bi4 O20 2.790293 1_555
Bi4 O0 2.792598 1_555
Bi5 O33 2.145544 1_555
Bi5 O43 2.259387 1_555
Bi5 O47 2.279289 1_455
Bi5 O37 2.340101 1_446
Bi5 O26 2.749216 1_455
Bi5 O21 2.790293 1_545
Bi5 O1 2.792598 1_545
Bi6 O34 2.145544 1_555
Bi6 O40 2.259387 1_555
Bi6 O44 2.279289 1_555
Bi6 O38 2.340101 1_565
Bi6 O25 2.749216 1_555
Bi6 O22 2.790293 1_565
Bi6 O2 2.792598 1_565
Bi7 O35 2.145544 1_555
Bi7 O41 2.259387 1_555
Bi7 O45 2.279289 1_655
Bi7 O39 2.340101 1_654
Bi7 O24 2.749216 1_655
Bi7 O23 2.790293 1_555
Bi7 O3 2.792598 1_555
Bi8 O40 2.103197 1_555
Bi8 O24 2.237007 1_555
Bi8 O30 2.237007 1_555
Bi8 O12 2.681639 1_555
Bi8 O22 2.769066 1_565
Bi8 O16 2.769066 1_555
Bi9 O41 2.103197 1_555
Bi9 O31 2.237007 1_555
Bi9 O25 2.237007 1_555
Bi9 O13 2.681639 1_555
Bi9 O17 2.769066 1_565
Bi9 O23 2.769066 1_555
Bi10 O42 2.103197 1_555
Bi10 O28 2.237007 1_555
Bi10 O26 2.237007 1_555
Bi10 O14 2.681639 1_555
Bi10 O18 2.769066 1_545
Bi10 O20 2.769066 1_555
Bi11 O43 2.103197 1_555
Bi11 O29 2.237007 1_555
Bi11 O27 2.237007 1_555
Bi11 O15 2.681639 1_555
Bi11 O19 2.769066 1_555
Bi11 O21 2.769066 1_545
B0 O8 1.400696 1_655
B0 O0 1.487218 1_555
B0 O20 1.514114 1_555
B0 O18 1.514114 1_555
B1 O9 1.400696 1_555
B1 O1 1.487218 1_555
B1 O19 1.514114 1_555
B1 O21 1.514114 1_555
B2 O10 1.400696 1_455
B2 O2 1.487218 1_555
B2 O22 1.514114 1_555
B2 O16 1.514114 1_555
B3 O11 1.400696 1_555
B3 O3 1.487218 1_555
B3 O17 1.514114 1_555
B3 O23 1.514114 1_555
B4 O24 1.350858 1_555
B4 O16 1.377890 1_555
B4 O6 1.385670 1_555
B5 O25 1.350858 1_545
B5 O17 1.377890 1_555
B5 O7 1.385670 1_555
B6 O26 1.350858 1_565
B6 O18 1.377890 1_555
B6 O4 1.385670 1_555
B7 O27 1.350858 1_555
B7 O19 1.377890 1_555
B7 O5 1.385670 1_555
B8 O28 1.350858 1_555
B8 O20 1.377890 1_555
B8 O4 1.385670 1_555
B9 O29 1.350858 1_565
B9 O21 1.377890 1_555
B9 O5 1.385670 1_555
B10 O30 1.350858 1_545
B10 O22 1.377890 1_555
B10 O6 1.385670 1_555
B11 O31 1.350858 1_555
B11 O23 1.377890 1_555
B11 O7 1.385670 1_555
B12 O12 1.352236 1_655
B12 O0 1.380410 1_555
B12 O44 1.391900 1_555
B13 O13 1.352236 1_555
B13 O1 1.380410 1_554
B13 O45 1.391900 1_555
B14 O14 1.352236 1_455
B14 O2 1.380410 1_555
B14 O46 1.391900 1_555
B15 O15 1.352236 1_555
B15 O3 1.380410 1_556
B15 O47 1.391900 1_555
B16 O8 1.445324 1_555
B16 O34 1.480064 1_555
B16 O36 1.480064 1_555
B16 O12 1.496275 1_555
B17 O9 1.445324 1_555
B17 O37 1.480064 1_556
B17 O35 1.480064 1_556
B17 O13 1.496275 1_556
B18 O10 1.445324 1_555
B18 O32 1.480064 1_555
B18 O38 1.480064 1_555
B18 O14 1.496275 1_555
B19 O11 1.445324 1_555
B19 O33 1.480064 1_554
B19 O39 1.480064 1_554
B19 O15 1.496275 1_554
