# generated using pymatgen
data_Na3Ca2Ta10Si3(P5O24)3
_symmetry_space_group_name_H-M   'P 1'
_cell_length_a   8.85103286
_cell_length_b   8.84988713
_cell_length_c   22.86740741
_cell_angle_alpha   89.88667973
_cell_angle_beta   89.98377708
_cell_angle_gamma   120.02379919
_symmetry_Int_Tables_number   1
_chemical_formula_structural   Na3Ca2Ta10Si3(P5O24)3
_chemical_formula_sum   'Na3 Ca2 Ta10 Si3 P15 O72'
_cell_volume   1550.86404100
_cell_formula_units_Z   1
loop_
 _symmetry_equiv_pos_site_id
 _symmetry_equiv_pos_as_xyz
  1  'x, y, z'
loop_
 _atom_site_type_symbol
 _atom_site_label
 _atom_site_symmetry_multiplicity
 _atom_site_fract_x
 _atom_site_fract_y
 _atom_site_fract_z
 _atom_site_occupancy
  Na  Na0  1  0.00136964  0.00171791  0.00336374  1
  Na  Na1  1  0.66737460  0.33425599  0.84001411  1
  Na  Na2  1  0.66736840  0.33408944  0.34155601  1
  Ca  Ca0  1  0.66818504  0.33400401  0.97868483  1
  Ca  Ca1  1  0.66797886  0.33502717  0.47811157  1
  Ta  Ta0  1  0.99409002  0.99784185  0.35879322  1
  Ta  Ta1  1  0.99816182  0.99559296  0.85570533  1
  Ta  Ta2  1  0.00101779  0.99667384  0.64591341  1
  Ta  Ta3  1  0.99755348  0.00076130  0.15052211  1
  Ta  Ta4  1  0.66857093  0.33543144  0.68450428  1
  Ta  Ta5  1  0.66800277  0.33489681  0.18752053  1
  Ta  Ta6  1  0.33315881  0.66558541  0.02475023  1
  Ta  Ta7  1  0.33198215  0.66627945  0.52136557  1
  Ta  Ta8  1  0.33249736  0.66540539  0.30695456  1
  Ta  Ta9  1  0.33205760  0.66583060  0.80760169  1
  Si  Si0  1  0.71605409  0.71048338  0.25271192  1
  Si  Si1  1  0.99386802  0.28312665  0.25219578  1
  Si  Si2  1  0.99270733  0.70757732  0.75088397  1
  P  P0  1  0.28667100  0.00561871  0.25196375  1
  P  P1  1  0.28805711  0.28191993  0.75068963  1
  P  P2  1  0.71733131  0.00557438  0.75084636  1
  P  P3  1  0.96038300  0.33329395  0.58335924  1
  P  P4  1  0.37507132  0.04020459  0.58323126  1
  P  P5  1  0.66499359  0.62673835  0.58318257  1
  P  P6  1  0.95872637  0.62945174  0.08328591  1
  P  P7  1  0.67034860  0.04173843  0.08310576  1
  P  P8  1  0.37142486  0.32813957  0.08286120  1
  P  P9  1  0.61772698  0.67361066  0.91456576  1
  P  P10  1  0.05617022  0.38159017  0.91449595  1
  P  P11  1  0.32770289  0.94461114  0.91438659  1
  P  P12  1  0.61642215  0.94578278  0.41415582  1
  P  P13  1  0.32758557  0.38212745  0.41394171  1
  P  P14  1  0.05543580  0.67421942  0.41392145  1
  O  O0  1  0.20547731  0.04052077  0.30577168  1
  O  O1  1  0.84290960  0.80022151  0.30885222  1
  O  O2  1  0.96236539  0.15776184  0.30839878  1
  O  O3  1  0.20018552  0.16658937  0.80572289  1
  O  O4  1  0.96345734  0.80335653  0.80820358  1
  O  O5  1  0.83390652  0.03783212  0.80589432  1
  O  O6  1  0.80375030  0.97652371  0.69790797  1
  O  O7  1  0.17110743  0.19901014  0.69769140  1
  O  O8  1  0.02291037  0.83387777  0.69602603  1
  O  O9  1  0.80962710  0.83087115  0.19550278  1
  O  O10  1  0.02734326  0.19398727  0.19512305  1
  O  O11  1  0.17271634  0.97449019  0.19727052  1
  O  O12  1  0.86526460  0.36472112  0.63771776  1
  O  O13  1  0.49702923  0.13237442  0.63789612  1
  O  O14  1  0.63478735  0.50179165  0.63779612  1
  O  O15  1  0.86552513  0.50571639  0.13664514  1
  O  O16  1  0.63937516  0.13184196  0.13631785  1
  O  O17  1  0.49250236  0.35857112  0.13628791  1
  O  O18  1  0.43299544  0.28694124  0.02735783  1
  O  O19  1  0.85378011  0.57002797  0.02821819  1
  O  O20  1  0.71531911  0.14566572  0.02764154  1
  O  O21  1  0.43697391  0.15008113  0.52990971  1
  O  O22  1  0.71667300  0.56681726  0.53039025  1
  O  O23  1  0.85008140  0.28438224  0.53027301  1
  O  O24  1  0.52881505  0.69296297  0.97066622  1
  O  O25  1  0.16457815  0.47116639  0.97049402  1
  O  O26  1  0.30621488  0.83580352  0.97056473  1
  O  O27  1  0.52592451  0.83648178  0.47101756  1
  O  O28  1  0.30900681  0.47348119  0.47062892  1
  O  O29  1  0.16380032  0.68999328  0.47080349  1
  O  O30  1  0.15534284  0.66390128  0.36032067  1
  O  O31  1  0.50717302  0.84707614  0.36055164  1
  O  O32  1  0.33825052  0.49400524  0.36017126  1
  O  O33  1  0.15793324  0.48894083  0.85966961  1
  O  O34  1  0.33401959  0.84379748  0.85976613  1
  O  O35  1  0.51252516  0.66777088  0.85990204  1
  O  O36  1  0.05165760  0.84751509  0.40819830  1
  O  O37  1  0.79573686  0.95107352  0.40889873  1
  O  O38  1  0.15715236  0.20318668  0.40767317  1
  O  O39  1  0.04633851  0.19969282  0.90877601  1
  O  O40  1  0.15510124  0.95613651  0.90870080  1
  O  O41  1  0.80047753  0.84893061  0.90932798  1
  O  O42  1  0.99198807  0.18343408  0.60272832  1
  O  O43  1  0.19138582  0.01136462  0.60068522  1
  O  O44  1  0.81534483  0.81117643  0.60146373  1
  O  O45  1  0.99909046  0.81719154  0.09751680  1
  O  O46  1  0.82207223  0.00469285  0.09641132  1
  O  O47  1  0.18444373  0.17640288  0.09618744  1
  O  O48  1  0.69328601  0.16565878  0.74161038  1
  O  O49  1  0.46913352  0.29868258  0.74158787  1
  O  O50  1  0.82085814  0.51530953  0.74079751  1
  O  O51  1  0.69037214  0.51685450  0.23941580  1
  O  O52  1  0.82070204  0.29985277  0.23914101  1
  O  O53  1  0.46938610  0.16660340  0.23974800  1
  O  O54  1  0.64210245  0.51791902  0.91375885  1
  O  O55  1  0.87812921  0.36247872  0.91318304  1
  O  O56  1  0.48514397  0.12370215  0.91317708  1
  O  O57  1  0.63989171  0.12527647  0.41463903  1
  O  O58  1  0.48742463  0.36484223  0.41420765  1
  O  O59  1  0.87698848  0.51622590  0.41440176  1
  O  O60  1  0.35638355  0.49732355  0.07391756  1
  O  O61  1  0.14067905  0.64048314  0.07419364  1
  O  O62  1  0.50185091  0.85768758  0.07381385  1
  O  O63  1  0.35612476  0.85706927  0.57504322  1
  O  O64  1  0.49838839  0.64067631  0.57515246  1
  O  O65  1  0.14139429  0.50049559  0.57528146  1
  O  O66  1  0.30934230  0.84576536  0.26024048  1
  O  O67  1  0.52632171  0.69240641  0.26102036  1
  O  O68  1  0.15977534  0.47685657  0.26094876  1
  O  O69  1  0.31398509  0.46618852  0.76065124  1
  O  O70  1  0.16324674  0.68617934  0.76095525  1
  O  O71  1  0.53593739  0.84277295  0.76069314  1
loop_
_geom_bond_atom_site_label_1
_geom_bond_atom_site_label_2
_geom_bond_distance
_geom_bond_site_symmetry_2
Na0 O47 2.651282 1_555
Na0 O46 2.662072 1_455
Na0 O39 2.682024 1_554
Na0 O41 2.687314 1_444
Na0 O40 2.692798 1_544
Na0 O45 2.693675 1_445
Na1 O56 2.418943 1_555
Na1 O55 2.424624 1_555
Na1 O54 2.431090 1_555
Na1 O50 2.714045 1_555
Na1 O49 2.774167 1_555
Na1 O48 2.774502 1_555
Na2 O58 2.409334 1_555
Na2 O57 2.409341 1_555
Na2 O59 2.415571 1_555
Na2 O51 2.787156 1_555
Na2 O52 2.798393 1_555
Na2 O53 2.846827 1_555
Ca0 O18 2.207910 1_556
Ca0 O20 2.212288 1_556
Ca0 O19 2.218378 1_556
Ca0 O54 2.296393 1_555
Ca0 O55 2.299651 1_555
Ca0 O56 2.308152 1_555
Ca1 O21 2.214608 1_555
Ca1 O23 2.223384 1_555
Ca1 O22 2.224426 1_555
Ca1 O59 2.266461 1_555
Ca1 O57 2.272293 1_555
Ca1 O58 2.276124 1_555
O0 P0 1.532645 1_555
O0 Ta0 2.098350 1_445
O1 Si0 1.628497 1_555
O1 Ta0 1.954558 1_555
O2 Si1 1.626352 1_555
O2 Ta0 1.949685 1_545
O3 P1 1.558963 1_555
O3 Ta1 2.019385 1_445
O4 Si2 1.651480 1_555
O4 Ta1 1.911319 1_555
O5 P2 1.561443 1_555
O5 Ta1 2.023336 1_545
O6 P2 1.521226 1_565
O6 Ta2 2.044619 1_655
O7 P1 1.524076 1_555
O7 Ta2 2.046090 1_545
O8 Si2 1.609263 1_455
O8 Ta2 1.923383 1_555
O9 Si0 1.625839 1_555
O9 Ta3 1.890902 1_565
O10 Si1 1.628240 1_455
O10 Ta3 1.894670 1_455
O11 P0 1.543195 1_565
O11 Ta3 1.990269 1_465
O12 P3 1.601994 1_555
O12 Ta4 1.946530 1_555
O13 P4 1.586457 1_555
O13 Ta4 1.987115 1_555
O14 P5 1.597615 1_555
O14 Ta4 1.957634 1_555
O15 P6 1.568007 1_555
O15 Ta5 2.010558 1_555
O16 P7 1.553732 1_555
O16 Ta5 2.053589 1_555
O17 P8 1.557830 1_555
O17 Ta5 2.038410 1_555
O18 P8 1.497033 1_555
O19 P6 1.496513 1_555
O20 P7 1.497248 1_555
O21 P4 1.481308 1_555
O22 P5 1.480807 1_555
O23 P3 1.481219 1_555
O24 P9 1.558710 1_555
O24 Ta6 2.040830 1_556
O25 P10 1.559612 1_555
O25 Ta6 2.041198 1_556
O26 P11 1.557380 1_555
O26 Ta6 2.052746 1_556
O27 P12 1.577045 1_555
O27 Ta7 1.986354 1_555
O28 P13 1.580537 1_555
O28 Ta7 1.989839 1_555
O29 P14 1.580761 1_555
O29 Ta7 1.977224 1_555
O30 P14 1.540549 1_555
O30 Ta8 1.981416 1_555
O31 P12 1.536318 1_555
O31 Ta8 1.999687 1_555
O32 P13 1.550066 1_555
O32 Ta8 1.963272 1_555
O33 P10 1.556930 1_555
O33 Ta9 1.954676 1_555
O34 P11 1.553540 1_555
O34 Ta9 1.970758 1_555
O35 P9 1.544345 1_555
O35 Ta9 1.988921 1_555
O36 P14 1.555909 1_555
O36 Ta0 1.994650 1_455
O37 P12 1.568789 1_555
O37 Ta0 1.958617 1_555
O38 P13 1.553826 1_555
O38 Ta0 2.004782 1_445
O39 P10 1.573753 1_555
O39 Ta1 2.038480 1_445
O40 P11 1.586562 1_555
O40 Ta1 2.001190 1_455
O41 P9 1.589260 1_555
O41 Ta1 1.992378 1_555
O42 P3 1.549957 1_555
O42 Ta2 1.959376 1_645
O43 P4 1.565780 1_555
O43 Ta2 1.924814 1_545
O44 P5 1.561812 1_555
O44 Ta2 1.933036 1_655
O45 P6 1.549914 1_555
O45 Ta3 2.034327 1_565
O46 P7 1.563297 1_555
O46 Ta3 1.999926 1_555
O47 P8 1.552151 1_555
O47 Ta3 2.028385 1_455
O48 P2 1.548418 1_555
O48 Ta4 2.081314 1_555
O49 P1 1.547829 1_555
O49 Ta4 2.085247 1_555
O50 Si2 1.635176 1_555
O50 Ta4 1.967205 1_555
O51 Si0 1.640981 1_555
O51 Ta5 1.931114 1_555
O52 Si1 1.639304 1_555
O52 Ta5 1.932663 1_555
O53 P0 1.554237 1_555
O53 Ta5 2.026492 1_555
O54 P9 1.497648 1_555
O55 P10 1.498708 1_655
O56 P11 1.498084 1_545
O57 P12 1.495479 1_545
O58 P13 1.497165 1_555
O59 P14 1.496569 1_655
O60 P8 1.581017 1_555
O60 Ta6 1.955408 1_555
O61 P6 1.577582 1_455
O61 Ta6 1.961959 1_555
O62 P7 1.578937 1_565
O62 Ta6 1.961298 1_555
O63 P4 1.555368 1_565
O63 Ta7 2.012598 1_555
O64 P5 1.550984 1_555
O64 Ta7 2.016777 1_555
O65 P3 1.554626 1_455
O65 Ta7 2.008287 1_555
O66 P0 1.536380 1_565
O66 Ta8 2.012860 1_555
O67 Si0 1.616379 1_555
O67 Ta8 1.921271 1_555
O68 Si1 1.618009 1_455
O68 Ta8 1.919196 1_555
O69 P1 1.546257 1_555
O69 Ta9 2.006159 1_555
O70 Si2 1.628930 1_455
O70 Ta9 1.916282 1_555
O71 P2 1.545280 1_565
O71 Ta9 2.005887 1_555
