# generated using pymatgen
data_MoO3
_symmetry_space_group_name_H-M   'P 1'
_cell_length_a   3.68131324
_cell_length_b   3.91874061
_cell_length_c   14.22907650
_cell_angle_alpha   90.00000000
_cell_angle_beta   90.00000000
_cell_angle_gamma   90.00000000
_symmetry_Int_Tables_number   1
_chemical_formula_structural   MoO3
_chemical_formula_sum   'Mo4 O12'
_cell_volume   205.27024686
_cell_formula_units_Z   4
loop_
 _symmetry_equiv_pos_site_id
 _symmetry_equiv_pos_as_xyz
  1  'x, y, z'
loop_
 _atom_site_type_symbol
 _atom_site_label
 _atom_site_symmetry_multiplicity
 _atom_site_fract_x
 _atom_site_fract_y
 _atom_site_fract_z
 _atom_site_occupancy
  Mo  Mo0  1  0.25000100  0.42300961  0.60205717  1
  Mo  Mo1  1  0.75000000  0.57699039  0.39794283  1
  Mo  Mo2  1  0.75000000  0.92300961  0.89794283  1
  Mo  Mo3  1  0.25000100  0.07699039  0.10205717  1
  O  O0  1  0.25000100  0.46632673  0.71834359  1
  O  O1  1  0.75000000  0.53367227  0.28165741  1
  O  O2  1  0.75000000  0.96632673  0.78165741  1
  O  O3  1  0.25000100  0.03367327  0.21834359  1
  O  O4  1  0.25000100  0.49853619  0.43558467  1
  O  O5  1  0.75000000  0.50146381  0.56441633  1
  O  O6  1  0.75000000  0.99853619  0.06441633  1
  O  O7  1  0.25000100  0.00146381  0.93558367  1
  O  O8  1  0.25000100  0.98268220  0.58709074  1
  O  O9  1  0.75000000  0.48268220  0.91290826  1
  O  O10  1  0.75000000  0.01731780  0.41290826  1
  O  O11  1  0.25000100  0.51731780  0.08709074  1
loop_
_geom_bond_atom_site_label_1
_geom_bond_atom_site_label_2
_geom_bond_distance
_geom_bond_site_symmetry_2
Mo0 O0 1.663333 1_555
Mo0 O8 1.738621 1_545
Mo0 O5 1.941490 1_555
Mo0 O5 1.941497 1_455
Mo0 O8 2.203526 1_555
Mo0 O4 2.387169 1_555
Mo1 O1 1.663319 1_555
Mo1 O10 1.738619 1_565
Mo1 O4 1.941494 1_555
Mo1 O4 1.941501 1_655
Mo1 O10 2.203525 1_555
Mo1 O5 2.387183 1_555
Mo2 O2 1.663319 1_555
Mo2 O9 1.738619 1_555
Mo2 O7 1.941490 1_565
Mo2 O7 1.941497 1_665
Mo2 O9 2.203525 1_565
Mo2 O6 2.387183 1_556
Mo3 O3 1.663333 1_555
Mo3 O11 1.738621 1_555
Mo3 O6 1.941490 1_545
Mo3 O6 1.941497 1_445
Mo3 O11 2.203526 1_545
Mo3 O7 2.387183 1_554
