# generated using pymatgen
data_K2NaAlH6
_symmetry_space_group_name_H-M   'P 1'
_cell_length_a   5.67670012
_cell_length_b   5.67670012
_cell_length_c   5.67670012
_cell_angle_alpha   60.00000000
_cell_angle_beta   60.00000000
_cell_angle_gamma   60.00000000
_symmetry_Int_Tables_number   1
_chemical_formula_structural   K2NaAlH6
_chemical_formula_sum   'K2 Na1 Al1 H6'
_cell_volume   129.35191423
_cell_formula_units_Z   1
loop_
 _symmetry_equiv_pos_site_id
 _symmetry_equiv_pos_as_xyz
  1  'x, y, z'
loop_
 _atom_site_type_symbol
 _atom_site_label
 _atom_site_symmetry_multiplicity
 _atom_site_fract_x
 _atom_site_fract_y
 _atom_site_fract_z
 _atom_site_occupancy
  K  K0  1  0.25000000  0.25000000  0.25000000  1
  K  K1  1  0.75000000  0.75000000  0.75000000  1
  Na  Na0  1  0.50000000  0.50000000  0.50000000  1
  Al  Al0  1  0.00000000  -0.00000000  -0.00000000  1
  H  H0  1  0.21952502  0.78047498  0.21952502  1
  H  H1  1  0.21952502  0.78047498  0.78047498  1
  H  H2  1  0.78047498  0.21952502  0.78047498  1
  H  H3  1  0.78047498  0.21952502  0.21952502  1
  H  H4  1  0.78047498  0.78047498  0.21952502  1
  H  H5  1  0.21952502  0.21952502  0.78047498  1
loop_
_geom_bond_atom_site_label_1
_geom_bond_atom_site_label_2
_geom_bond_distance
_geom_bond_site_symmetry_2
Al0 H4 1.762361 1_445
Al0 H1 1.762361 1_544
Al0 H2 1.762361 1_454
Al0 H5 1.762361 1_554
Al0 H0 1.762361 1_545
Al0 H3 1.762361 1_455
H0 Na0 2.251672 1_555
H0 K0 2.848875 1_565
H0 K1 2.848875 1_554
H0 K1 2.848875 1_455
H0 K0 2.848875 1_555
H1 Na0 2.251672 1_555
H1 K1 2.848875 1_555
H1 K1 2.848875 1_455
H1 K0 2.848875 1_556
H1 K0 2.848875 1_565
H2 Na0 2.251672 1_555
H2 K1 2.848875 1_555
H2 K0 2.848875 1_556
H2 K0 2.848875 1_655
H2 K1 2.848875 1_545
H3 Na0 2.251672 1_555
H3 K0 2.848875 1_655
H3 K1 2.848875 1_554
H3 K1 2.848875 1_545
H3 K0 2.848875 1_555
H4 Na0 2.251672 1_555
H4 K1 2.848875 1_555
H4 K0 2.848875 1_655
H4 K0 2.848875 1_565
H4 K1 2.848875 1_554
H5 Na0 2.251672 1_555
H5 K0 2.848875 1_556
H5 K1 2.848875 1_545
H5 K1 2.848875 1_455
H5 K0 2.848875 1_555
