# generated using pymatgen
data_NaLaAlP(SO6)2
_symmetry_space_group_name_H-M   'P 1'
_cell_length_a   8.86495804
_cell_length_b   8.77041883
_cell_length_c   23.46637664
_cell_angle_alpha   90.27566551
_cell_angle_beta   89.58288333
_cell_angle_gamma   119.67326737
_symmetry_Int_Tables_number   1
_chemical_formula_structural   NaLaAlP(SO6)2
_chemical_formula_sum   'Na6 La6 Al6 P6 S12 O72'
_cell_volume   1585.19328357
_cell_formula_units_Z   6
loop_
 _symmetry_equiv_pos_site_id
 _symmetry_equiv_pos_as_xyz
  1  'x, y, z'
loop_
 _atom_site_type_symbol
 _atom_site_label
 _atom_site_symmetry_multiplicity
 _atom_site_fract_x
 _atom_site_fract_y
 _atom_site_fract_z
 _atom_site_occupancy
  Na  Na0  1  0.99242165  0.99378052  0.50043665  1
  Na  Na1  1  0.00657469  0.98594238  0.00077414  1
  Na  Na2  1  0.64874440  0.29065663  0.82294490  1
  Na  Na3  1  0.65464410  0.30891215  0.34583266  1
  Na  Na4  1  0.30967374  0.67664287  0.16463810  1
  Na  Na5  1  0.34587327  0.67090586  0.65171470  1
  La  La0  1  0.99462216  0.00106841  0.84833827  1
  La  La1  1  0.00897195  0.99250765  0.15062631  1
  La  La2  1  0.66194116  0.33167622  0.18960896  1
  La  La3  1  0.66302809  0.32846768  0.97661726  1
  La  La4  1  0.33531737  0.68377020  0.33354332  1
  La  La5  1  0.33773673  0.67650879  0.79912202  1
  Al  Al0  1  0.99079026  0.99213373  0.35802267  1
  Al  Al1  1  0.97673322  0.98917416  0.64193873  1
  Al  Al2  1  0.66379634  0.33130517  0.67453178  1
  Al  Al3  1  0.67680999  0.33712864  0.49127667  1
  Al  Al4  1  0.32456747  0.67685302  0.01591452  1
  Al  Al5  1  0.39956274  0.68916176  0.51637012  1
  P  P0  1  0.29296887  0.01349063  0.26576758  1
  P  P1  1  0.71686827  0.02713221  0.73412210  1
  P  P2  1  0.67200609  0.61861940  0.58299711  1
  P  P3  1  0.98933986  0.63794364  0.07863415  1
  P  P4  1  0.31596579  0.94399824  0.91755542  1
  P  P5  1  0.65707913  0.99207988  0.42353432  1
  S  S0  1  0.71130416  0.70549294  0.26447935  1
  S  S1  1  0.99331722  0.28588798  0.26412030  1
  S  S2  1  0.29836064  0.27412201  0.73038419  1
  S  S3  1  0.97270676  0.69349262  0.73207697  1
  S  S4  1  0.95874693  0.33294951  0.58374429  1
  S  S5  1  0.38305542  0.03777874  0.57936013  1
  S  S6  1  0.64936433  0.00163408  0.07941615  1
  S  S7  1  0.35292790  0.35380283  0.07835385  1
  S  S8  1  0.61853351  0.68559121  0.92078337  1
  S  S9  1  0.06455552  0.38137048  0.91968701  1
  S  S10  1  0.34617145  0.36653888  0.42816391  1
  S  S11  1  0.01468565  0.66265697  0.42474991  1
  O  O0  1  0.17468171  0.00389336  0.31673916  1
  O  O1  1  0.80897078  0.81720892  0.31374849  1
  O  O2  1  0.99611687  0.18180168  0.31363480  1
  O  O3  1  0.23225950  0.19257442  0.78720825  1
  O  O4  1  0.95938144  0.76342299  0.78849816  1
  O  O5  1  0.80116510  0.04471701  0.79333659  1
  O  O6  1  0.82662484  0.00783553  0.68702081  1
  O  O7  1  0.18272455  0.16730884  0.68370673  1
  O  O8  1  0.99587679  0.81637496  0.68566407  1
  O  O9  1  0.78838869  0.78847825  0.20927119  1
  O  O10  1  0.98523344  0.20118287  0.20868068  1
  O  O11  1  0.21857823  0.01994472  0.20718650  1
  O  O12  1  0.86969604  0.35754072  0.63425333  1
  O  O13  1  0.48876138  0.11373236  0.63178500  1
  O  O14  1  0.63146139  0.49754588  0.63505409  1
  O  O15  1  0.90063936  0.54696563  0.13594205  1
  O  O16  1  0.63713368  0.08605758  0.13320940  1
  O  O17  1  0.44345920  0.36038670  0.13238198  1
  O  O18  1  0.43108814  0.30900758  0.03003860  1
  O  O19  1  0.87125250  0.54361005  0.02813972  1
  O  O20  1  0.68199442  0.11620717  0.02998903  1
  O  O21  1  0.47005091  0.15691268  0.53066290  1
  O  O22  1  0.70077479  0.52983515  0.53099652  1
  O  O23  1  0.84996472  0.30525229  0.53270449  1
  O  O24  1  0.50892429  0.66420549  0.97128273  1
  O  O25  1  0.15357009  0.48796256  0.97042106  1
  O  O26  1  0.33289656  0.85104151  0.97107567  1
  O  O27  1  0.55690914  0.84412187  0.46915342  1
  O  O28  1  0.32174900  0.47747557  0.47357047  1
  O  O29  1  0.14794745  0.69933834  0.46817605  1
  O  O30  1  0.05862159  0.61265446  0.36911885  1
  O  O31  1  0.55047596  0.94405592  0.36858314  1
  O  O32  1  0.38786853  0.45954487  0.37306015  1
  O  O33  1  0.16200941  0.45319574  0.86609661  1
  O  O34  1  0.30097364  0.84547497  0.86132125  1
  O  O35  1  0.54167142  0.69806957  0.86668119  1
  O  O36  1  0.99844918  0.82478405  0.41608646  1
  O  O37  1  0.83525799  0.00206936  0.41219975  1
  O  O38  1  0.18197521  0.19720420  0.42407518  1
  O  O39  1  0.04193168  0.20402045  0.92821277  1
  O  O40  1  0.15154061  0.96102534  0.92300965  1
  O  O41  1  0.78861010  0.84733417  0.92789045  1
  O  O42  1  0.97654101  0.16994592  0.58972019  1
  O  O43  1  0.20451725  0.01008906  0.58601555  1
  O  O44  1  0.83161777  0.80735977  0.59138308  1
  O  O45  1  0.03014071  0.83053082  0.07763288  1
  O  O46  1  0.79140477  0.96106765  0.08211633  1
  O  O47  1  0.16716038  0.21804926  0.08121542  1
  O  O48  1  0.69753921  0.19180597  0.72668594  1
  O  O49  1  0.47360991  0.29166732  0.72531497  1
  O  O50  1  0.81158741  0.52231217  0.72628316  1
  O  O51  1  0.71226325  0.53780236  0.26839629  1
  O  O52  1  0.83556832  0.30394963  0.26843615  1
  O  O53  1  0.47359965  0.17972857  0.26917202  1
  O  O54  1  0.64602310  0.53265091  0.91453016  1
  O  O55  1  0.89179321  0.36741638  0.91211219  1
  O  O56  1  0.47898009  0.12764534  0.90964880  1
  O  O57  1  0.67886821  0.16910388  0.44329396  1
  O  O58  1  0.49365254  0.33840775  0.44182073  1
  O  O59  1  0.84148103  0.51301553  0.43981551  1
  O  O60  1  0.36750671  0.52654547  0.06994181  1
  O  O61  1  0.16317972  0.63857905  0.07287480  1
  O  O62  1  0.48158062  0.83801956  0.07295532  1
  O  O63  1  0.37153261  0.86078781  0.56819164  1
  O  O64  1  0.50980415  0.64432296  0.57231790  1
  O  O65  1  0.13356802  0.48690913  0.57742654  1
  O  O66  1  0.31077825  0.84685472  0.26277617  1
  O  O67  1  0.53184435  0.67363775  0.26435532  1
  O  O68  1  0.15174532  0.45981632  0.26324262  1
  O  O69  1  0.31389860  0.45038785  0.72925114  1
  O  O70  1  0.12615120  0.66798566  0.73075471  1
  O  O71  1  0.53463549  0.86105156  0.73226941  1
loop_
_geom_bond_atom_site_label_1
_geom_bond_atom_site_label_2
_geom_bond_distance
_geom_bond_site_symmetry_2
Na0 O36 2.483209 1_555
Na0 O38 2.497265 1_665
Na0 O37 2.525381 1_565
Na0 O44 2.634703 1_555
Na0 O42 2.641325 1_565
Na0 O43 2.715621 1_665
Na1 O40 2.295526 1_554
Na1 O45 2.337844 1_555
Na1 O41 2.416398 1_454
Na1 O39 2.466940 1_564
Na1 O47 2.620441 1_565
Na1 O46 2.620794 1_455
Na2 O56 2.510311 1_555
Na2 O48 2.525741 1_555
Na2 O49 2.779372 1_555
Na2 O55 2.844255 1_555
Na2 O50 2.906843 1_555
Na2 O54 3.021609 1_555
Na3 O53 2.306029 1_555
Na3 O52 2.428770 1_555
Na3 O51 2.568889 1_555
Na3 O57 2.659912 1_555
Na3 O58 2.736900 1_555
Na3 O59 2.809141 1_555
Na3 O31 2.908766 1_545
Na4 O61 2.457529 1_555
Na4 O62 2.607757 1_555
Na4 O66 2.735866 1_555
Na4 O60 2.749068 1_555
Na4 O68 2.879169 1_555
Na5 O64 2.435050 1_555
Na5 O65 2.489764 1_555
Na5 O63 2.513265 1_555
Na5 O71 2.531266 1_555
Na5 O69 2.571961 1_555
Na5 O70 2.670836 1_555
La0 O5 2.332516 1_555
La0 O40 2.377811 1_645
La0 O4 2.397309 1_545
La0 O3 2.406793 1_655
La0 O39 2.469344 1_655
La0 O41 2.484906 1_545
La1 O11 2.205080 1_565
La1 O45 2.285430 1_555
La1 O9 2.332323 1_455
La1 O10 2.367045 1_465
La1 O47 2.404932 1_565
La1 O46 2.427954 1_455
La2 O15 2.378449 1_555
La2 O53 2.413518 1_555
La2 O16 2.438900 1_555
La2 O51 2.463089 1_555
La2 O17 2.478333 1_555
La2 O52 2.503268 1_555
La3 O19 2.234162 1_556
La3 O20 2.323337 1_556
La3 O56 2.323635 1_555
La3 O18 2.333545 1_556
La3 O54 2.376533 1_555
La3 O55 2.407304 1_555
La4 O66 2.277516 1_555
La4 O31 2.284533 1_555
La4 O30 2.358619 1_555
La4 O67 2.406229 1_555
La4 O32 2.423878 1_555
La4 O68 2.463920 1_555
La5 O34 2.209773 1_555
La5 O71 2.305397 1_555
La5 O35 2.349025 1_555
La5 O33 2.388700 1_555
La5 O70 2.449806 1_555
La5 O69 2.494954 1_555
Al0 O0 1.848832 1_665
Al0 O1 1.895195 1_555
Al0 O37 1.901926 1_565
Al0 O2 1.947438 1_565
Al0 O36 2.033377 1_555
Al0 O38 2.345879 1_665
Al1 O6 1.763581 1_565
Al1 O44 1.891575 1_555
Al1 O8 1.910650 1_555
Al1 O7 1.980598 1_665
Al1 O42 2.009127 1_565
Al1 O43 2.330314 1_665
Al2 O48 1.861799 1_555
Al2 O14 1.869976 1_555
Al2 O49 1.943704 1_555
Al2 O50 1.956572 1_555
Al2 O12 1.959376 1_555
Al2 O13 2.031699 1_555
Al3 O22 1.844619 1_555
Al3 O57 1.857460 1_555
Al3 O59 1.931735 1_555
Al3 O23 1.956719 1_555
Al3 O21 1.957808 1_555
Al3 O58 2.007224 1_555
Al4 O26 1.830061 1_554
Al4 O61 1.856658 1_555
Al4 O25 1.924108 1_554
Al4 O62 1.946282 1_555
Al4 O24 1.983350 1_554
Al4 O60 2.002507 1_555
Al5 O27 1.770711 1_555
Al5 O64 1.799331 1_555
Al5 O28 1.911953 1_555
Al5 O63 2.038282 1_555
O0 P0 1.559707 1_555
O1 S0 1.486641 1_555
O2 S1 1.488992 1_555
O3 S2 1.488572 1_555
O4 S3 1.484835 1_555
O5 P1 1.553067 1_555
O6 P1 1.530558 1_555
O7 S2 1.477798 1_555
O8 S3 1.476070 1_555
O9 S0 1.476092 1_555
O10 S1 1.479492 1_555
O11 P0 1.542327 1_555
O12 S4 1.492335 1_555
O13 S5 1.492031 1_555
O14 P2 1.541826 1_555
O15 P3 1.561154 1_555
O16 S6 1.490629 1_555
O17 S7 1.491002 1_555
O18 S7 1.474350 1_555
O19 P3 1.528237 1_555
O20 S6 1.468759 1_555
O21 S5 1.480941 1_555
O22 P2 1.530808 1_555
O23 S4 1.485122 1_555
O24 S8 1.479386 1_555
O25 S9 1.478719 1_555
O26 P4 1.548642 1_555
O27 P5 1.573869 1_555
O28 S10 1.524502 1_555
O29 S11 1.475011 1_555
O30 S11 1.484740 1_555
O31 P5 1.533534 1_555
O32 S10 1.476052 1_555
O33 S9 1.475685 1_555
O34 P4 1.543881 1_555
O35 S8 1.475079 1_555
O36 S11 1.513195 1_655
O37 P5 1.559001 1_545
O38 S10 1.481176 1_555
O39 S9 1.480934 1_555
O40 P4 1.541417 1_555
O41 S8 1.482260 1_555
O42 S4 1.521139 1_555
O43 S5 1.484794 1_555
O44 P2 1.569336 1_555
O45 P3 1.542629 1_455
O46 S6 1.470062 1_565
O47 S7 1.480514 1_555
O48 P1 1.547120 1_555
O49 S2 1.487353 1_555
O50 S3 1.479952 1_555
O51 S0 1.478249 1_555
O52 S1 1.485965 1_555
O53 P0 1.544472 1_555
O54 S8 1.483702 1_555
O55 S9 1.486720 1_655
O56 P4 1.552875 1_545
O57 P5 1.536312 1_545
O58 S10 1.482951 1_555
O59 S11 1.485390 1_655
O60 S7 1.469562 1_555
O61 P3 1.543277 1_455
O62 S6 1.477297 1_565
O63 S5 1.525840 1_565
O64 P2 1.583651 1_555
O65 S4 1.474353 1_455
O66 P0 1.546946 1_565
O67 S0 1.472760 1_555
O68 S1 1.475984 1_455
O69 S2 1.482927 1_555
O70 S3 1.483906 1_455
O71 P1 1.550465 1_565
