# generated using pymatgen
data_TlAgSe2
_symmetry_space_group_name_H-M   'P 1'
_cell_length_a   10.48623757
_cell_length_b   10.48623757
_cell_length_c   7.43070400
_cell_angle_alpha   90.00000000
_cell_angle_beta   90.00000000
_cell_angle_gamma   119.99999728
_symmetry_Int_Tables_number   1
_chemical_formula_structural   TlAgSe2
_chemical_formula_sum   'Tl6 Ag6 Se12'
_cell_volume   707.61982265
_cell_formula_units_Z   6
loop_
 _symmetry_equiv_pos_site_id
 _symmetry_equiv_pos_as_xyz
  1  'x, y, z'
loop_
 _atom_site_type_symbol
 _atom_site_label
 _atom_site_symmetry_multiplicity
 _atom_site_fract_x
 _atom_site_fract_y
 _atom_site_fract_z
 _atom_site_occupancy
  Tl  Tl0  1  0.00000000  0.00000000  0.25000000  1
  Tl  Tl1  1  0.00000000  0.00000000  0.75000000  1
  Tl  Tl2  1  0.33333300  0.66666700  0.25000000  1
  Tl  Tl3  1  0.33333300  0.66666700  0.75000000  1
  Tl  Tl4  1  0.66666700  0.33333300  0.75000000  1
  Tl  Tl5  1  0.66666700  0.33333300  0.25000000  1
  Ag  Ag0  1  0.29053600  0.29053600  0.75000000  1
  Ag  Ag1  1  0.00000000  0.29053600  0.25000000  1
  Ag  Ag2  1  0.70946400  0.70946400  0.25000000  1
  Ag  Ag3  1  0.00000000  0.70946400  0.75000000  1
  Ag  Ag4  1  0.70946400  0.00000000  0.75000000  1
  Ag  Ag5  1  0.29053600  0.00000000  0.25000000  1
  Se  Se0  1  0.40594200  0.20297100  0.50000000  1
  Se  Se1  1  0.79702900  0.59405800  0.50000000  1
  Se  Se2  1  0.79702900  0.20297100  0.50000000  1
  Se  Se3  1  0.59405800  0.79702900  0.50000000  1
  Se  Se4  1  0.20297100  0.40594200  0.50000000  1
  Se  Se5  1  0.20297100  0.79702900  0.50000000  1
  Se  Se6  1  0.40594200  0.20297100  0.00000000  1
  Se  Se7  1  0.79702900  0.59405800  0.00000000  1
  Se  Se8  1  0.20297100  0.79702900  0.00000000  1
  Se  Se9  1  0.59405800  0.79702900  0.00000000  1
  Se  Se10  1  0.20297100  0.40594200  0.00000000  1
  Se  Se11  1  0.79702900  0.20297100  0.00000000  1
loop_
_geom_bond_atom_site_label_1
_geom_bond_atom_site_label_2
_geom_bond_distance
_geom_bond_site_symmetry_2
Ag0 Se0 2.621038 1_555
Ag0 Se4 2.621038 1_555
Ag0 Se6 2.621038 1_556
Ag0 Se10 2.621038 1_556
Ag0 Tl1 3.046630 1_555
Ag1 Se2 2.621038 1_455
Ag1 Se11 2.621038 1_455
Ag1 Se10 2.621038 1_555
Ag1 Se4 2.621038 1_555
Ag1 Tl0 3.046630 1_555
Ag2 Se9 2.621038 1_555
Ag2 Se3 2.621038 1_555
Ag2 Se7 2.621038 1_555
Ag2 Se1 2.621038 1_555
Ag2 Tl0 3.046630 1_665
Ag3 Se8 2.621038 1_556
Ag3 Se5 2.621038 1_555
Ag3 Se7 2.621038 1_456
Ag3 Se1 2.621038 1_455
Ag3 Tl1 3.046630 1_565
Ag4 Se2 2.621038 1_555
Ag4 Se11 2.621038 1_556
Ag4 Se9 2.621038 1_546
Ag4 Se3 2.621038 1_545
Ag4 Tl1 3.046630 1_655
Ag5 Se8 2.621038 1_545
Ag5 Se5 2.621038 1_545
Ag5 Se6 2.621038 1_555
Ag5 Se0 2.621038 1_555
Ag5 Tl0 3.046630 1_555
Se0 Tl5 3.009506 1_555
Se0 Tl4 3.009506 1_555
Se1 Tl5 3.009506 1_555
Se1 Tl4 3.009506 1_555
Se2 Tl4 3.009499 1_555
Se2 Tl5 3.009499 1_555
Se3 Tl3 3.009506 1_555
Se3 Tl2 3.009506 1_555
Se4 Tl2 3.009506 1_555
Se4 Tl3 3.009506 1_555
Se5 Tl2 3.009499 1_555
Se5 Tl3 3.009499 1_555
Se6 Tl4 3.009506 1_554
Se6 Tl5 3.009506 1_555
Se7 Tl4 3.009506 1_554
Se7 Tl5 3.009506 1_555
Se8 Tl3 3.009499 1_554
Se8 Tl2 3.009499 1_555
Se9 Tl3 3.009506 1_554
Se9 Tl2 3.009506 1_555
Se10 Tl2 3.009506 1_555
Se10 Tl3 3.009506 1_554
Se11 Tl5 3.009499 1_555
Se11 Tl4 3.009499 1_554
