# generated using pymatgen
data_MgNi(TeO3)4
_symmetry_space_group_name_H-M   'P 1'
_cell_length_a   5.78637407
_cell_length_b   11.38127597
_cell_length_c   10.10031756
_cell_angle_alpha   27.65446260
_cell_angle_beta   50.08221024
_cell_angle_gamma   55.49523520
_symmetry_Int_Tables_number   1
_chemical_formula_structural   MgNi(TeO3)4
_chemical_formula_sum   'Mg1 Ni1 Te4 O12'
_cell_volume   236.78252793
_cell_formula_units_Z   1
loop_
 _symmetry_equiv_pos_site_id
 _symmetry_equiv_pos_as_xyz
  1  'x, y, z'
loop_
 _atom_site_type_symbol
 _atom_site_label
 _atom_site_symmetry_multiplicity
 _atom_site_fract_x
 _atom_site_fract_y
 _atom_site_fract_z
 _atom_site_occupancy
  Mg  Mg0  1  0.16228589  0.49039944  0.20849391  1
  Ni  Ni0  1  0.31605743  0.00044360  0.29188065  1
  Te  Te0  1  0.98735917  0.99858428  0.97799123  1
  Te  Te1  1  0.98284352  0.50103404  0.98285895  1
  Te  Te2  1  0.53941863  0.98535121  0.48643292  1
  Te  Te3  1  0.42984670  0.50640729  0.48384630  1
  O  O0  1  0.33008850  0.31594545  0.11108102  1
  O  O1  1  0.24075664  0.14929558  0.59701833  1
  O  O2  1  0.08995292  0.29885118  0.75289681  1
  O  O3  1  0.91828550  0.18445852  0.21754691  1
  O  O4  1  0.33209618  0.82178758  0.10919090  1
  O  O5  1  0.77560204  0.39989931  0.32302589  1
  O  O6  1  0.17607675  0.66165319  0.59990692  1
  O  O7  1  0.61630244  0.15374354  0.90159228  1
  O  O8  1  0.12533538  0.79552291  0.73764375  1
  O  O9  1  0.90239392  0.70344564  0.20175506  1
  O  O10  1  0.71875453  0.87550522  0.35130094  1
  O  O11  1  0.59441585  0.64576703  0.91233623  1
loop_
_geom_bond_atom_site_label_1
_geom_bond_atom_site_label_2
_geom_bond_distance
_geom_bond_site_symmetry_2
Mg0 O9 1.962983 1_455
Mg0 O1 1.994569 1_555
Mg0 O11 2.089686 1_554
Mg0 O5 2.141006 1_455
Mg0 O0 2.429734 1_555
Mg0 O8 2.434948 1_554
Ni0 O7 2.015603 1_554
Ni0 O3 2.053881 1_455
Ni0 O6 2.062960 1_545
Ni0 O10 2.083465 1_545
Ni0 O0 2.181486 1_555
Ni0 O8 2.205813 1_545
O0 Te1 1.965511 1_454
O0 Te2 2.336039 1_545
O1 Te0 1.953120 1_445
O1 Te2 2.297216 1_545
O2 Te3 1.966075 1_555
O2 Te0 2.000597 1_445
O3 Te1 1.999668 1_554
O3 Te2 2.098038 1_545
O4 Te0 1.976192 1_454
O4 Te3 1.976848 1_555
O5 Te1 1.959036 1_554
O5 Te3 2.163431 1_555
O6 Te1 1.947353 1_455
O6 Te3 2.274419 1_555
O7 Te0 1.934031 1_545
O7 Te3 2.451885 1_555
O8 Te1 1.962649 1_455
O8 Te2 2.279919 1_555
O9 Te0 1.904980 1_554
O9 Te3 2.500636 1_555
O10 Te0 2.045420 1_554
O10 Te2 2.058648 1_555
O11 Te1 2.013437 1_555
O11 Te2 2.110483 1_555
