# generated using pymatgen
data_Na4Ta3GaSi5SO24
_symmetry_space_group_name_H-M   'P 1'
_cell_length_a   8.91060100
_cell_length_b   8.89976387
_cell_length_c   22.63857437
_cell_angle_alpha   89.64248944
_cell_angle_beta   90.75983029
_cell_angle_gamma   119.67696876
_symmetry_Int_Tables_number   1
_chemical_formula_structural   Na4Ta3GaSi5SO24
_chemical_formula_sum   'Na12 Ta9 Ga3 Si15 S3 O72'
_cell_volume   1559.66542440
_cell_formula_units_Z   3
loop_
 _symmetry_equiv_pos_site_id
 _symmetry_equiv_pos_as_xyz
  1  'x, y, z'
loop_
 _atom_site_type_symbol
 _atom_site_label
 _atom_site_symmetry_multiplicity
 _atom_site_fract_x
 _atom_site_fract_y
 _atom_site_fract_z
 _atom_site_occupancy
  Na  Na0  1  0.63521323  0.62767011  0.74693951  1
  Na  Na1  1  0.99224777  0.36275238  0.74887927  1
  Na  Na2  1  0.37294835  0.00745183  0.74713618  1
  Na  Na3  1  0.66362089  0.69116563  0.08377754  1
  Na  Na4  1  0.02767444  0.33723267  0.08382903  1
  Na  Na5  1  0.32643677  0.02874982  0.41620225  1
  Na  Na6  1  0.99322075  0.99595006  0.49578642  1
  Na  Na7  1  0.00567252  0.99797080  0.99649006  1
  Na  Na8  1  0.66677440  0.33293750  0.83348518  1
  Na  Na9  1  0.68001922  0.33737752  0.32925737  1
  Na  Na10  1  0.33048851  0.66998089  0.16758745  1
  Na  Na11  1  0.33856517  0.67065456  0.66316075  1
  Ta  Ta0  1  0.99874460  0.00039761  0.85527665  1
  Ta  Ta1  1  0.00137640  0.99210233  0.64461293  1
  Ta  Ta2  1  0.00761047  0.01051846  0.14564151  1
  Ta  Ta3  1  0.66615745  0.33388081  0.97795511  1
  Ta  Ta4  1  0.66201243  0.34046137  0.47701731  1
  Ta  Ta5  1  0.33274704  0.66940148  0.02001782  1
  Ta  Ta6  1  0.34536725  0.67858719  0.51864989  1
  Ta  Ta7  1  0.32271604  0.65641994  0.31493885  1
  Ta  Ta8  1  0.33374934  0.66685405  0.81462982  1
  Ga  Ga0  1  0.98972180  0.01366303  0.35905893  1
  Ga  Ga1  1  0.64901244  0.32839338  0.68661506  1
  Ga  Ga2  1  0.68361915  0.33207358  0.18009998  1
  Si  Si0  1  0.98989077  0.28832180  0.25208303  1
  Si  Si1  1  0.28812844  0.28737571  0.74952319  1
  Si  Si2  1  0.99516058  0.70509434  0.75013979  1
  Si  Si3  1  0.71171019  0.00400865  0.74792960  1
  Si  Si4  1  0.38139590  0.04751035  0.58479670  1
  Si  Si5  1  0.66458900  0.61873604  0.58581604  1
  Si  Si6  1  0.95557007  0.62231405  0.08460471  1
  Si  Si7  1  0.65958134  0.04569502  0.08511457  1
  Si  Si8  1  0.38829541  0.33166217  0.08630372  1
  Si  Si9  1  0.62534812  0.66776090  0.91764321  1
  Si  Si10  1  0.04201385  0.37634067  0.91697933  1
  Si  Si11  1  0.33434207  0.95910427  0.91631177  1
  Si  Si12  1  0.62880805  0.95730566  0.41422920  1
  Si  Si13  1  0.32521655  0.37536027  0.41747472  1
  Si  Si14  1  0.03931727  0.66938114  0.41602160  1
  S  S0  1  0.29199380  0.00317914  0.25180310  1
  S  S1  1  0.71237831  0.71053853  0.25113969  1
  S  S2  1  0.95614982  0.33500304  0.58400191  1
  O  O0  1  0.21119142  0.02239654  0.30428719  1
  O  O1  1  0.82038444  0.79212969  0.30311820  1
  O  O2  1  0.97152302  0.16586034  0.30675075  1
  O  O3  1  0.19485672  0.16223005  0.80637114  1
  O  O4  1  0.96398406  0.80064127  0.80606878  1
  O  O5  1  0.83531257  0.03410860  0.80603639  1
  O  O6  1  0.80302662  0.96359989  0.69254248  1
  O  O7  1  0.15862453  0.19893282  0.69268126  1
  O  O8  1  0.03868810  0.83737081  0.69330701  1
  O  O9  1  0.79388349  0.81871885  0.19563798  1
  O  O10  1  0.02578401  0.19622035  0.19226565  1
  O  O11  1  0.17660276  0.97272767  0.19730478  1
  O  O12  1  0.88315090  0.36280113  0.63833441  1
  O  O13  1  0.49497350  0.12422944  0.64456591  1
  O  O14  1  0.63705823  0.50865429  0.64547075  1
  O  O15  1  0.87949531  0.50065505  0.14112800  1
  O  O16  1  0.62611124  0.12346460  0.14296493  1
  O  O17  1  0.51080762  0.37547311  0.14360462  1
  O  O18  1  0.47016441  0.30042905  0.02650576  1
  O  O19  1  0.83015386  0.53616280  0.02642552  1
  O  O20  1  0.70826833  0.17104594  0.02707838  1
  O  O21  1  0.47289476  0.16495313  0.52550188  1
  O  O22  1  0.69685115  0.52761756  0.52766841  1
  O  O23  1  0.84596028  0.30680908  0.53090928  1
  O  O24  1  0.53285486  0.69507538  0.97546825  1
  O  O25  1  0.16332430  0.46667548  0.97546931  1
  O  O26  1  0.30455440  0.83327389  0.97319098  1
  O  O27  1  0.52987958  0.83571285  0.47262231  1
  O  O28  1  0.30279247  0.47249291  0.47428330  1
  O  O29  1  0.16864358  0.70075702  0.47270863  1
  O  O30  1  0.13586929  0.63388399  0.35914863  1
  O  O31  1  0.49297553  0.86472888  0.35842784  1
  O  O32  1  0.36627981  0.50258480  0.35945508  1
  O  O33  1  0.13460176  0.49734519  0.85810653  1
  O  O34  1  0.36246820  0.86698575  0.85756146  1
  O  O35  1  0.50407601  0.63762688  0.85824952  1
  O  O36  1  0.03224308  0.84433884  0.40513450  1
  O  O37  1  0.81283524  0.96975611  0.41219716  1
  O  O38  1  0.17079069  0.18047254  0.41023213  1
  O  O39  1  0.02633754  0.18757379  0.90944328  1
  O  O40  1  0.16113739  0.97402071  0.90955524  1
  O  O41  1  0.81315519  0.83896722  0.90966683  1
  O  O42  1  0.97289400  0.17596184  0.58882180  1
  O  O43  1  0.18752807  0.02988487  0.59043696  1
  O  O44  1  0.83531470  0.81539272  0.59031229  1
  O  O45  1  0.97081306  0.81303934  0.09346913  1
  O  O46  1  0.83487600  0.01993164  0.09310766  1
  O  O47  1  0.18709075  0.16413268  0.09225438  1
  O  O48  1  0.69391254  0.17601236  0.74281434  1
  O  O49  1  0.47924818  0.30903998  0.74636697  1
  O  O50  1  0.82977045  0.51486657  0.74240908  1
  O  O51  1  0.68834182  0.53573048  0.24395479  1
  O  O52  1  0.82204828  0.31306580  0.24362172  1
  O  O53  1  0.46248535  0.15695951  0.24349696  1
  O  O54  1  0.64063671  0.49424605  0.92322966  1
  O  O55  1  0.85358987  0.35986205  0.92371425  1
  O  O56  1  0.50615329  0.14630426  0.92359845  1
  O  O57  1  0.63539601  0.14307924  0.42557969  1
  O  O58  1  0.50202613  0.35779356  0.42360407  1
  O  O59  1  0.85501987  0.49229099  0.42515654  1
  O  O60  1  0.35500521  0.49813551  0.07660457  1
  O  O61  1  0.14654599  0.64043553  0.07519941  1
  O  O62  1  0.50189777  0.84661733  0.07613283  1
  O  O63  1  0.35071605  0.84994244  0.57583903  1
  O  O64  1  0.49277521  0.64014454  0.57609531  1
  O  O65  1  0.13060853  0.48853170  0.57667424  1
  O  O66  1  0.30683192  0.84126012  0.25424520  1
  O  O67  1  0.53763776  0.70012885  0.25482406  1
  O  O68  1  0.17279588  0.48227073  0.25632175  1
  O  O69  1  0.30556771  0.48006559  0.75649031  1
  O  O70  1  0.17334264  0.69345098  0.75615910  1
  O  O71  1  0.52092102  0.82851272  0.75638729  1
loop_
_geom_bond_atom_site_label_1
_geom_bond_atom_site_label_2
_geom_bond_distance
_geom_bond_site_symmetry_2
Na0 O50 2.398590 1_555
Na0 O49 2.463843 1_555
Na0 O71 2.467995 1_555
Na0 O14 2.539196 1_555
Na0 O69 2.567644 1_555
Na0 O35 2.811864 1_555
Na0 O4 2.863551 1_555
Na0 O6 2.875213 1_555
Na1 O48 2.337963 1_555
Na1 O50 2.425471 1_555
Na1 O69 2.453039 1_655
Na1 O70 2.566974 1_655
Na1 O12 2.672787 1_555
Na1 O33 2.758175 1_655
Na1 O5 2.852237 1_555
Na1 O7 2.855795 1_655
Na2 O49 2.363063 1_555
Na2 O70 2.468873 1_545
Na2 O48 2.489313 1_555
Na2 O71 2.527098 1_545
Na2 O13 2.563618 1_555
Na2 O34 2.769920 1_545
Na2 O8 2.847787 1_545
Na2 O3 2.908275 1_555
Na3 O45 2.400904 1_555
Na3 O60 2.419401 1_555
Na3 O62 2.446461 1_555
Na3 O46 2.551914 1_565
Na3 O24 2.708203 1_554
Na3 O9 2.775238 1_555
Na3 O17 2.792033 1_555
Na3 O19 2.809128 1_555
Na4 O61 2.368605 1_555
Na4 O46 2.483587 1_455
Na4 O60 2.541346 1_555
Na4 O47 2.565846 1_555
Na4 O25 2.733207 1_554
Na4 O15 2.740784 1_455
Na4 O10 2.746499 1_555
Na4 O20 2.774319 1_455
Na5 O36 2.314253 1_545
Na5 O38 2.369012 1_555
Na5 O57 2.423397 1_555
Na5 O58 2.552223 1_555
Na5 O0 2.711482 1_555
Na5 O21 2.771354 1_555
Na5 O29 2.840986 1_545
Na5 O31 2.874719 1_545
Na6 O37 2.402634 1_555
Na6 O38 2.533828 1_665
Na6 O36 2.582874 1_655
Na6 O44 2.634257 1_555
Na6 O43 2.659365 1_665
Na6 O42 2.715695 1_565
Na7 O40 2.491529 1_555
Na7 O41 2.519952 1_455
Na7 O39 2.534772 1_565
Na7 O47 2.660836 1_566
Na7 O45 2.663107 1_456
Na7 O46 2.743493 1_466
Na8 O49 2.508585 1_555
Na8 O55 2.553788 1_555
Na8 O48 2.570160 1_555
Na8 O54 2.573519 1_555
Na8 O56 2.578799 1_555
Na8 O50 2.586760 1_555
Na9 O52 2.397574 1_555
Na9 O51 2.585081 1_555
Na9 O59 2.620008 1_555
Na9 O53 2.638557 1_555
Na9 O57 2.682979 1_555
Na9 O58 2.736878 1_555
Na10 O68 2.551301 1_555
Na10 O66 2.565778 1_555
Na10 O61 2.572796 1_555
Na10 O62 2.599296 1_555
Na10 O67 2.607462 1_555
Na10 O60 2.647882 1_555
Na11 O63 2.502171 1_555
Na11 O64 2.508955 1_555
Na11 O71 2.598822 1_555
Na11 O65 2.619851 1_555
Na11 O69 2.627844 1_555
Na11 O70 2.650365 1_555
Ga0 O2 1.858952 1_555
Ga0 O37 1.875815 1_545
Ga0 O38 1.936302 1_655
Ga0 O36 2.009416 1_645
Ga0 O1 2.191441 1_545
Ga0 O0 2.312953 1_655
Ga1 O14 1.897522 1_555
Ga1 O13 1.899740 1_555
Ga1 O49 1.985217 1_555
Ga1 O48 2.029813 1_555
Ga1 O50 2.066193 1_555
Ga1 O12 2.250515 1_555
Ga2 O16 1.866061 1_555
Ga2 O15 1.872706 1_555
Ga2 O17 1.937568 1_555
Ga2 O52 1.942836 1_555
Ga2 O51 2.309152 1_555
Ga2 O53 2.318957 1_555
O0 S0 1.451395 1_555
O1 S1 1.458351 1_555
O2 Si0 1.599431 1_555
O3 Si1 1.637482 1_555
O3 Ta0 1.973076 1_455
O4 Si2 1.630977 1_555
O4 Ta0 1.991920 1_565
O5 Si3 1.639824 1_555
O5 Ta0 1.959282 1_555
O6 Si3 1.638930 1_565
O6 Ta1 1.992218 1_655
O7 Si1 1.637352 1_555
O7 Ta1 1.991578 1_545
O8 Si2 1.653444 1_455
O8 Ta1 1.909652 1_555
O9 S1 1.532924 1_555
O9 Ta2 2.153078 1_665
O10 Si0 1.700855 1_455
O10 Ta2 1.903670 1_555
O11 S0 1.532130 1_565
O11 Ta2 2.049005 1_565
O12 S2 1.477024 1_555
O13 Si4 1.616243 1_555
O14 Si5 1.611871 1_555
O15 Si6 1.596296 1_555
O16 Si7 1.584060 1_555
O17 Si8 1.604298 1_555
O18 Si8 1.635156 1_555
O18 Ta3 1.969427 1_554
O19 Si6 1.642130 1_555
O19 Ta3 1.989359 1_554
O20 Si7 1.636019 1_555
O20 Ta3 1.996238 1_554
O21 Si4 1.651298 1_555
O21 Ta4 1.976241 1_555
O22 Si5 1.651457 1_555
O22 Ta4 1.920410 1_555
O23 S2 1.483297 1_555
O23 Ta4 2.166401 1_555
O24 Si9 1.637989 1_555
O24 Ta5 1.972339 1_556
O25 Si10 1.637957 1_555
O25 Ta5 1.958719 1_556
O26 Si11 1.636873 1_555
O26 Ta5 1.910588 1_556
O27 Si12 1.662553 1_555
O27 Ta6 1.869489 1_555
O28 Si13 1.622623 1_555
O28 Ta6 1.959807 1_555
O29 Si14 1.642999 1_555
O29 Ta6 1.965200 1_555
O30 Si14 1.673705 1_555
O30 Ta7 1.877472 1_555
O31 Si12 1.650630 1_555
O31 Ta7 1.976354 1_555
O32 Si13 1.650785 1_555
O32 Ta7 1.881329 1_555
O33 Si10 1.657772 1_555
O33 Ta8 1.941772 1_555
O34 Si11 1.652212 1_555
O34 Ta8 1.935503 1_555
O35 Si9 1.651227 1_555
O35 Ta8 1.922032 1_555
O36 Si14 1.606616 1_555
O37 Si12 1.589129 1_555
O38 Si13 1.600912 1_555
O39 Si10 1.625277 1_555
O39 Ta0 1.987725 1_455
O40 Si11 1.618437 1_555
O40 Ta0 1.986075 1_465
O41 Si9 1.623092 1_555
O41 Ta0 1.998570 1_565
O42 S2 1.498120 1_555
O42 Ta1 2.171196 1_645
O43 Si4 1.662037 1_555
O43 Ta1 1.966001 1_545
O44 Si5 1.658146 1_555
O44 Ta1 1.961004 1_655
O45 Si6 1.647773 1_555
O45 Ta2 2.009079 1_665
O46 Si7 1.694617 1_555
O46 Ta2 1.966815 1_655
O47 Si8 1.677028 1_555
O47 Ta2 1.937286 1_555
O48 Si3 1.618511 1_555
O49 Si1 1.618759 1_555
O50 Si2 1.610886 1_555
O51 S1 1.471384 1_555
O52 Si0 1.624790 1_555
O53 S0 1.470340 1_555
O54 Si9 1.620079 1_555
O54 Ta3 1.978732 1_555
O55 Si10 1.620613 1_655
O55 Ta3 2.004767 1_555
O56 Si11 1.617944 1_545
O56 Ta3 1.989001 1_555
O57 Si12 1.646756 1_545
O57 Ta4 2.025769 1_555
O58 Si13 1.662427 1_555
O58 Ta4 1.920396 1_555
O59 Si14 1.632668 1_655
O59 Ta4 1.973479 1_555
O60 Si8 1.661526 1_555
O60 Ta5 2.066862 1_555
O61 Si6 1.644562 1_455
O61 Ta5 2.001820 1_555
O62 Si7 1.639046 1_565
O62 Ta5 1.998341 1_555
O63 Si4 1.653634 1_565
O63 Ta6 1.988766 1_555
O64 Si5 1.645589 1_555
O64 Ta6 1.981844 1_555
O65 S2 1.487204 1_455
O65 Ta6 2.254393 1_555
O66 S0 1.511494 1_565
O66 Ta7 2.193464 1_555
O67 S1 1.516718 1_555
O67 Ta7 2.235125 1_555
O68 Si0 1.690297 1_455
O68 Ta7 1.968784 1_555
O69 Si1 1.651888 1_555
O69 Ta8 2.040610 1_555
O70 Si2 1.645335 1_455
O70 Ta8 2.032752 1_555
O71 Si3 1.655862 1_565
O71 Ta8 2.061223 1_555
