# generated using pymatgen
data_Na10Ca6Ti2Si3(S3O16)3
_symmetry_space_group_name_H-M   'P 1'
_cell_length_a   18.52287422
_cell_length_b   9.29905127
_cell_length_c   23.13625266
_cell_angle_alpha   90.06144778
_cell_angle_beta   90.13616911
_cell_angle_gamma   120.28360649
_symmetry_Int_Tables_number   1
_chemical_formula_structural   Na10Ca6Ti2Si3(S3O16)3
_chemical_formula_sum   'Na30 Ca18 Ti6 Si9 S27 O144'
_cell_volume   3441.27757370
_cell_formula_units_Z   3
loop_
 _symmetry_equiv_pos_site_id
 _symmetry_equiv_pos_as_xyz
  1  'x, y, z'
loop_
 _atom_site_type_symbol
 _atom_site_label
 _atom_site_symmetry_multiplicity
 _atom_site_fract_x
 _atom_site_fract_y
 _atom_site_fract_z
 _atom_site_occupancy
  Na  Na0  1  0.31355260  0.99662313  0.24928097  1
  Na  Na1  1  0.18652606  0.35818525  0.25045443  1
  Na  Na2  1  0.49021185  0.63500854  0.25366910  1
  Na  Na3  1  0.30999815  0.61403854  0.73397841  1
  Na  Na4  1  0.81392973  0.63292834  0.74737711  1
  Na  Na5  1  0.99553451  0.33768718  0.75291547  1
  Na  Na6  1  0.18222451  0.02296035  0.75321175  1
  Na  Na7  1  0.68696932  0.01492857  0.75107461  1
  Na  Na8  1  0.16899709  0.35544969  0.59005318  1
  Na  Na9  1  0.83168288  0.68489758  0.08681886  1
  Na  Na10  1  0.48630986  0.66123415  0.91687474  1
  Na  Na11  1  0.35621146  0.04685817  0.91576510  1
  Na  Na12  1  0.85138064  0.02938515  0.92008798  1
  Na  Na13  1  0.65771577  0.30171756  0.91573896  1
  Na  Na14  1  0.98420431  0.30869592  0.41577270  1
  Na  Na15  1  0.15663810  0.01415766  0.41309484  1
  Na  Na16  1  0.35169342  0.67116753  0.42212122  1
  Na  Na17  1  0.85494549  0.66511157  0.41467532  1
  Na  Na18  1  0.99470936  0.95999365  0.50351646  1
  Na  Na19  1  0.50633644  0.00041262  0.50402456  1
  Na  Na20  1  0.01298915  0.03006900  0.00303190  1
  Na  Na21  1  0.50454637  0.03106779  0.00383042  1
  Na  Na22  1  0.32910375  0.33341199  0.83461215  1
  Na  Na23  1  0.83069521  0.32791206  0.82953135  1
  Na  Na24  1  0.33000111  0.32948106  0.32939028  1
  Na  Na25  1  0.83192705  0.33473649  0.33511902  1
  Na  Na26  1  0.16181000  0.66207761  0.16534090  1
  Na  Na27  1  0.68092635  0.69904599  0.16117109  1
  Na  Na28  1  0.17648527  0.67131161  0.66121726  1
  Na  Na29  1  0.66412373  0.66048826  0.66431171  1
  Ca  Ca0  1  0.00005831  0.99556960  0.34563960  1
  Ca  Ca1  1  0.50408097  0.00728876  0.35147333  1
  Ca  Ca2  1  0.00392489  0.00546678  0.85181807  1
  Ca  Ca3  1  0.50159758  0.00767825  0.84651998  1
  Ca  Ca4  1  0.33797688  0.33835296  0.67929087  1
  Ca  Ca5  1  0.83054268  0.32969243  0.67899874  1
  Ca  Ca6  1  0.32951187  0.32941513  0.17929236  1
  Ca  Ca7  1  0.83347988  0.32156429  0.18139814  1
  Ca  Ca8  1  0.33463606  0.33461377  0.98689596  1
  Ca  Ca9  1  0.83588504  0.31272897  0.99453695  1
  Ca  Ca10  1  0.34188021  0.35382563  0.49185661  1
  Ca  Ca11  1  0.83351457  0.33531492  0.48684687  1
  Ca  Ca12  1  0.16401799  0.65960697  0.01801556  1
  Ca  Ca13  1  0.66464978  0.66853134  0.02101007  1
  Ca  Ca14  1  0.16815338  0.67754575  0.52031841  1
  Ca  Ca15  1  0.66468290  0.66847124  0.51789947  1
  Ca  Ca16  1  0.67035099  0.66949401  0.31278459  1
  Ca  Ca17  1  0.16427512  0.65367627  0.81544931  1
  Ti  Ti0  1  0.99254076  0.00736244  0.65721005  1
  Ti  Ti1  1  0.50315670  0.01661133  0.64682717  1
  Ti  Ti2  1  0.00176047  0.99451896  0.15026598  1
  Ti  Ti3  1  0.49137119  0.98577529  0.15401415  1
  Ti  Ti4  1  0.15692134  0.67860811  0.30767533  1
  Ti  Ti5  1  0.65837742  0.63618070  0.80865771  1
  Si  Si0  1  0.14678551  0.00049758  0.25215569  1
  Si  Si1  1  0.34703196  0.70081716  0.25516926  1
  Si  Si2  1  0.14960642  0.29598125  0.74801378  1
  Si  Si3  1  0.64699107  0.29398254  0.75135482  1
  Si  Si4  1  0.84601013  0.99375027  0.75658577  1
  Si  Si5  1  0.33838619  0.65350273  0.58710977  1
  Si  Si6  1  0.83891815  0.02292852  0.08428461  1
  Si  Si7  1  0.51772550  0.37210987  0.91469646  1
  Si  Si8  1  0.01697100  0.66386652  0.41407763  1
  S  S0  1  0.64182312  0.99568805  0.24600849  1
  S  S1  1  0.85089278  0.70390589  0.24562335  1
  S  S2  1  0.00483169  0.30394760  0.25282641  1
  S  S3  1  0.50229357  0.29256424  0.24491635  1
  S  S4  1  0.00140310  0.71445921  0.74576235  1
  S  S5  1  0.50550975  0.70715063  0.75252749  1
  S  S6  1  0.35154342  0.99544174  0.74739437  1
  S  S7  1  0.48949067  0.32592892  0.58652660  1
  S  S8  1  0.98495434  0.31480611  0.58624183  1
  S  S9  1  0.17254815  0.03079684  0.58630963  1
  S  S10  1  0.67324277  0.02456114  0.58815384  1
  S  S11  1  0.84012131  0.65735142  0.58583293  1
  S  S12  1  0.48545522  0.65671220  0.08837088  1
  S  S13  1  0.98628466  0.64921663  0.08765061  1
  S  S14  1  0.34026493  0.02285352  0.08620584  1
  S  S15  1  0.17380692  0.32245312  0.08855263  1
  S  S16  1  0.67422903  0.31778938  0.08466056  1
  S  S17  1  0.31828177  0.66669068  0.91593258  1
  S  S18  1  0.80823302  0.65783458  0.91236462  1
  S  S19  1  0.01071983  0.36112192  0.91535931  1
  S  S20  1  0.16900576  0.96641188  0.91645250  1
  S  S21  1  0.66775267  0.95956973  0.91163869  1
  S  S22  1  0.30906598  0.95826762  0.40985952  1
  S  S23  1  0.81734491  0.96823279  0.41725939  1
  S  S24  1  0.16791028  0.37643999  0.41387959  1
  S  S25  1  0.66903801  0.37236514  0.41801768  1
  S  S26  1  0.51343101  0.66338847  0.41314597  1
  O  O0  1  0.11899635  0.04313041  0.31244842  1
  O  O1  1  0.60571133  0.00850389  0.30063368  1
  O  O2  1  0.40421001  0.78368905  0.31103613  1
  O  O3  1  0.89171393  0.77867224  0.30152290  1
  O  O4  1  0.49400669  0.20108643  0.29843926  1
  O  O5  1  0.99392117  0.21896194  0.30867590  1
  O  O6  1  0.10668219  0.17510612  0.80154739  1
  O  O7  1  0.61864062  0.19323329  0.81107771  1
  O  O8  1  0.49179799  0.77008549  0.80791789  1
  O  O9  1  0.98557149  0.77854783  0.79930713  1
  O  O10  1  0.39116183  0.00707759  0.80406208  1
  O  O11  1  0.89981628  0.02470564  0.81419571  1
  O  O12  1  0.40367516  0.98786419  0.69970688  1
  O  O13  1  0.90494688  0.97637465  0.70044410  1
  O  O14  1  0.08210533  0.17912172  0.69116418  1
  O  O15  1  0.58169341  0.18150706  0.69757090  1
  O  O16  1  0.00663278  0.82132722  0.69521877  1
  O  O17  1  0.51741731  0.82198275  0.70419522  1
  O  O18  1  0.40822944  0.83943896  0.19855885  1
  O  O19  1  0.90335404  0.81379201  0.19620306  1
  O  O20  1  0.01597115  0.21035480  0.20464895  1
  O  O21  1  0.50714868  0.19567251  0.19413158  1
  O  O22  1  0.08230564  0.98456619  0.19885650  1
  O  O23  1  0.58566063  0.99038869  0.19649743  1
  O  O24  1  0.44813468  0.33891809  0.63822842  1
  O  O25  1  0.94539910  0.33769921  0.63781384  1
  O  O26  1  0.22282277  0.11507152  0.63856523  1
  O  O27  1  0.72081599  0.09712915  0.64200829  1
  O  O28  1  0.32551040  0.53329773  0.64148903  1
  O  O29  1  0.83185373  0.55550716  0.63717262  1
  O  O30  1  0.44325109  0.55314850  0.13927663  1
  O  O31  1  0.94505032  0.55042845  0.13892668  1
  O  O32  1  0.33180201  0.10664067  0.13761304  1
  O  O33  1  0.82725368  0.12743435  0.13429763  1
  O  O34  1  0.22188597  0.34671787  0.14234512  1
  O  O35  1  0.73339745  0.34406650  0.13195630  1
  O  O36  1  0.21569561  0.30117213  0.03775349  1
  O  O37  1  0.70760854  0.29448159  0.02851944  1
  O  O38  1  0.43659507  0.58413356  0.03461020  1
  O  O39  1  0.93420980  0.57535579  0.03508260  1
  O  O40  1  0.35171855  0.11990067  0.03268736  1
  O  O41  1  0.85778350  0.11067283  0.02056785  1
  O  O42  1  0.21562272  0.13207346  0.53352413  1
  O  O43  1  0.71517890  0.12936602  0.53741910  1
  O  O44  1  0.35729187  0.59029857  0.52569613  1
  O  O45  1  0.84913424  0.57912555  0.53189826  1
  O  O46  1  0.44035679  0.30114609  0.53344238  1
  O  O47  1  0.93717321  0.29797124  0.53281183  1
  O  O48  1  0.27203771  0.68225413  0.96491535  1
  O  O49  1  0.77061099  0.67742434  0.96562042  1
  O  O50  1  0.06162954  0.46181766  0.96451490  1
  O  O51  1  0.57736307  0.46501563  0.96816880  1
  O  O52  1  0.16765824  0.86436957  0.96566639  1
  O  O53  1  0.66395033  0.86517793  0.96343177  1
  O  O54  1  0.27139393  0.85702935  0.46157365  1
  O  O55  1  0.77479390  0.86614081  0.46833956  1
  O  O56  1  0.16442858  0.45896135  0.46740310  1
  O  O57  1  0.66506481  0.45914767  0.47010399  1
  O  O58  1  0.07752703  0.69168982  0.46699974  1
  O  O59  1  0.56266070  0.66429348  0.46317037  1
  O  O60  1  0.07640908  0.65579355  0.35552786  1
  O  O61  1  0.55389176  0.66102211  0.35776757  1
  O  O62  1  0.25811046  0.86662272  0.35634041  1
  O  O63  1  0.77070264  0.88697255  0.36370626  1
  O  O64  1  0.17603445  0.47797796  0.36160465  1
  O  O65  1  0.67402315  0.46780452  0.36506088  1
  O  O66  1  0.05020404  0.44186828  0.85937239  1
  O  O67  1  0.57652858  0.49760776  0.85633181  1
  O  O68  1  0.17352427  0.88959791  0.86053678  1
  O  O69  1  0.67502218  0.87739203  0.85811664  1
  O  O70  1  0.27545666  0.65580690  0.86028182  1
  O  O71  1  0.75605636  0.65022284  0.85968884  1
  O  O72  1  0.00202650  0.82268557  0.41119640  1
  O  O73  1  0.50379493  0.81382730  0.41720072  1
  O  O74  1  0.39459414  0.98453236  0.40547291  1
  O  O75  1  0.90301001  0.98791045  0.41564244  1
  O  O76  1  0.08942337  0.20984429  0.41181061  1
  O  O77  1  0.59558615  0.20192188  0.41710465  1
  O  O78  1  0.00204536  0.19267181  0.91990727  1
  O  O79  1  0.50277099  0.18309093  0.91184027  1
  O  O80  1  0.09482801  0.98583170  0.91927105  1
  O  O81  1  0.58947045  0.96968931  0.91113454  1
  O  O82  1  0.40400203  0.81838054  0.91632386  1
  O  O83  1  0.89308182  0.80454803  0.90799387  1
  O  O84  1  0.49668403  0.16906780  0.59152864  1
  O  O85  1  0.98846639  0.15562299  0.59210434  1
  O  O86  1  0.09000815  0.02575421  0.58915833  1
  O  O87  1  0.58848649  0.01272486  0.59304165  1
  O  O88  1  0.42404036  0.84281933  0.60447501  1
  O  O89  1  0.91844444  0.82491862  0.59139161  1
  O  O90  1  0.49120904  0.82596997  0.09629294  1
  O  O91  1  0.99166032  0.81919589  0.09328499  1
  O  O92  1  0.41965808  0.01243444  0.09288199  1
  O  O93  1  0.92699930  0.00993741  0.10386923  1
  O  O94  1  0.08941120  0.16546665  0.09374209  1
  O  O95  1  0.59001808  0.16566786  0.09407251  1
  O  O96  1  0.33724945  0.13733651  0.74182911  1
  O  O97  1  0.83589765  0.15510912  0.74461830  1
  O  O98  1  0.24352060  0.32250061  0.74377659  1
  O  O99  1  0.74338774  0.34509915  0.74040087  1
  O  O100  1  0.43404224  0.53781379  0.74403438  1
  O  O101  1  0.93151128  0.54073519  0.73806909  1
  O  O102  1  0.33724277  0.51915955  0.24432597  1
  O  O103  1  0.84176057  0.53799849  0.24089858  1
  O  O104  1  0.42578110  0.30724317  0.23966689  1
  O  O105  1  0.93639754  0.33727446  0.24459693  1
  O  O106  1  0.24337882  0.14266945  0.24174180  1
  O  O107  1  0.72628276  0.13789419  0.24065623  1
  O  O108  1  0.32791904  0.51764171  0.92103819  1
  O  O109  1  0.80936919  0.49897674  0.91264073  1
  O  O110  1  0.42810650  0.36782729  0.91237532  1
  O  O111  1  0.92542069  0.34163279  0.91609995  1
  O  O112  1  0.24864967  0.13269410  0.91950456  1
  O  O113  1  0.74232398  0.13243884  0.91410090  1
  O  O114  1  0.30987999  0.11917244  0.41239509  1
  O  O115  1  0.82786425  0.13778324  0.42116945  1
  O  O116  1  0.24235629  0.35213058  0.41533536  1
  O  O117  1  0.74867204  0.36584909  0.41922682  1
  O  O118  1  0.42726519  0.51180408  0.41355494  1
  O  O119  1  0.92773357  0.48838344  0.41133622  1
  O  O120  1  0.16053551  0.46587371  0.08224643  1
  O  O121  1  0.66647292  0.46879301  0.08244871  1
  O  O122  1  0.07155237  0.67638976  0.08241686  1
  O  O123  1  0.57057161  0.68520301  0.08462820  1
  O  O124  1  0.26761874  0.85256041  0.08247827  1
  O  O125  1  0.76596544  0.82726074  0.08444170  1
  O  O126  1  0.15982981  0.86171204  0.58365809  1
  O  O127  1  0.65896899  0.85406916  0.58201058  1
  O  O128  1  0.25366563  0.66517847  0.58493636  1
  O  O129  1  0.76605006  0.67840692  0.58269223  1
  O  O130  1  0.07246757  0.45476995  0.58230235  1
  O  O131  1  0.57476676  0.47122892  0.58308080  1
  O  O132  1  0.15058663  0.82031765  0.25598492  1
  O  O133  1  0.63991011  0.83298404  0.24278622  1
  O  O134  1  0.25661068  0.69622313  0.25408066  1
  O  O135  1  0.76846077  0.69462632  0.24192936  1
  O  O136  1  0.08874148  0.47025005  0.25497461  1
  O  O137  1  0.57644380  0.46212396  0.24466866  1
  O  O138  1  0.14921233  0.47168498  0.74376499  1
  O  O139  1  0.65085127  0.48106500  0.75619930  1
  O  O140  1  0.08221554  0.71537584  0.74761956  1
  O  O141  1  0.58683373  0.70366595  0.75600198  1
  O  O142  1  0.26838620  0.83665668  0.74480071  1
  O  O143  1  0.75457163  0.81591911  0.75602720  1
loop_
_geom_bond_atom_site_label_1
_geom_bond_atom_site_label_2
_geom_bond_distance
_geom_bond_site_symmetry_2
Na0 O106 2.311751 1_565
Na0 O134 2.440849 1_555
Na0 O104 2.581039 1_565
Na0 O132 2.614451 1_555
Na0 O62 2.723554 1_555
Na0 O32 2.738032 1_565
Na1 O102 2.417043 1_555
Na1 O136 2.506363 1_555
Na1 O34 2.602735 1_555
Na1 O106 2.700863 1_555
Na1 O134 2.730699 1_555
Na1 O64 2.847167 1_555
Na1 O0 2.920037 1_555
Na1 O20 2.931574 1_555
Na2 O133 2.448903 1_555
Na2 O102 2.480651 1_555
Na2 O61 2.635890 1_555
Na2 O104 2.673274 1_555
Na2 O30 2.767232 1_555
Na2 O137 2.787454 1_555
Na2 O2 2.904866 1_555
Na3 O28 2.332879 1_555
Na3 O98 2.356505 1_555
Na3 O142 2.559556 1_555
Na3 O138 2.588635 1_555
Na3 O100 2.734252 1_555
Na4 O99 2.316911 1_555
Na4 O143 2.455962 1_555
Na4 O139 2.619487 1_555
Na4 O29 2.714916 1_555
Na4 O101 2.722096 1_555
Na4 O71 2.848383 1_555
Na4 O13 2.967652 1_555
Na4 O9 3.003572 1_555
Na5 O138 2.475167 1_655
Na5 O97 2.568302 1_555
Na5 O66 2.650286 1_655
Na5 O101 2.710578 1_555
Na5 O25 2.818230 1_555
Na5 O11 2.905288 1_555
Na6 O98 2.430698 1_555
Na6 O140 2.506702 1_545
Na6 O96 2.523901 1_555
Na6 O6 2.685314 1_555
Na6 O68 2.745296 1_545
Na6 O26 2.774815 1_555
Na6 O142 2.894077 1_545
Na7 O97 2.388926 1_555
Na7 O141 2.533423 1_545
Na7 O27 2.621669 1_555
Na7 O143 2.709748 1_545
Na7 O99 2.710444 1_555
Na7 O69 2.746264 1_545
Na7 O7 2.897958 1_555
Na7 O17 2.924962 1_545
Na8 O130 2.397179 1_555
Na8 O128 2.492988 1_555
Na8 O86 2.648815 1_555
Na8 O28 2.774838 1_555
Na8 O14 2.848851 1_555
Na8 O85 2.893297 1_455
Na8 O42 2.929155 1_555
Na8 O56 3.012123 1_555
Na9 O125 2.205098 1_555
Na9 O91 2.574486 1_555
Na9 O93 2.649645 1_565
Na9 O121 2.684963 1_555
Na9 O19 2.824249 1_555
Na9 O39 2.834815 1_555
Na9 O35 2.940542 1_555
Na9 O49 3.008750 1_554
Na10 O110 2.376871 1_555
Na10 O81 2.523980 1_555
Na10 O108 2.539747 1_555
Na10 O82 2.589756 1_555
Na10 O8 2.700468 1_555
Na10 O38 2.851701 1_556
Na11 O79 2.348537 1_555
Na11 O112 2.493720 1_555
Na11 O110 2.584626 1_555
Na11 O82 2.682289 1_545
Na11 O10 2.735406 1_555
Na11 O40 2.800038 1_556
Na12 O78 2.412496 1_655
Na12 O41 2.427820 1_556
Na12 O111 2.511027 1_555
Na12 O83 2.583569 1_545
Na12 O11 2.618903 1_555
Na12 O113 2.639970 1_555
Na13 O109 2.462740 1_555
Na13 O79 2.503501 1_555
Na13 O7 2.579744 1_555
Na13 O81 2.684124 1_545
Na13 O113 2.724635 1_555
Na13 O37 2.778267 1_556
Na13 O51 2.876916 1_555
Na14 O119 2.378917 1_555
Na14 O115 2.507560 1_555
Na14 O76 2.541528 1_655
Na14 O75 2.575934 1_545
Na14 O5 2.649043 1_555
Na14 O47 2.832923 1_555
Na15 O0 2.482760 1_555
Na15 O114 2.493090 1_555
Na15 O72 2.496047 1_545
Na15 O76 2.673410 1_555
Na15 O116 2.714317 1_555
Na15 O58 2.877420 1_545
Na15 O42 2.988329 1_555
Na16 O73 2.437760 1_555
Na16 O118 2.507531 1_555
Na16 O44 2.529826 1_555
Na16 O116 2.620207 1_555
Na16 O74 2.634320 1_555
Na16 O2 2.763615 1_555
Na16 O54 2.937411 1_555
Na17 O72 2.356023 1_655
Na17 O117 2.471240 1_555
Na17 O119 2.599887 1_555
Na17 O75 2.666071 1_555
Na17 O3 2.778769 1_555
Na17 O45 2.815252 1_555
Na18 O89 2.436460 1_555
Na18 O86 2.511587 1_665
Na18 O72 2.526060 1_655
Na18 O75 2.741394 1_555
Na18 O85 2.780083 1_565
Na18 O76 2.982438 1_665
Na19 O87 2.525681 1_555
Na19 O84 2.620690 1_555
Na19 O73 2.637718 1_545
Na19 O77 2.681037 1_555
Na19 O88 2.764703 1_545
Na19 O74 3.028752 1_545
Na20 O94 2.485204 1_555
Na20 O78 2.517852 1_554
Na20 O80 2.619891 1_544
Na20 O91 2.755521 1_445
Na20 O93 2.780781 1_455
Na21 O95 2.532272 1_555
Na21 O92 2.547290 1_555
Na21 O79 2.565589 1_554
Na21 O82 2.781646 1_544
Na21 O90 2.794798 1_545
Na21 O81 2.884199 1_544
Na22 O110 2.468485 1_555
Na22 O98 2.600285 1_555
Na22 O112 2.603593 1_555
Na22 O108 2.639030 1_555
Na22 O100 2.843305 1_555
Na22 O96 2.868094 1_555
Na23 O97 2.569292 1_555
Na23 O113 2.614163 1_555
Na23 O111 2.619794 1_555
Na23 O109 2.648510 1_555
Na23 O99 2.671855 1_555
Na23 O101 2.860443 1_555
Na24 O102 2.602396 1_555
Na24 O118 2.609152 1_555
Na24 O106 2.621108 1_555
Na24 O114 2.632091 1_555
Na24 O116 2.644451 1_555
Na24 O104 2.808215 1_555
Na25 O119 2.392205 1_555
Na25 O117 2.590669 1_555
Na25 O115 2.682000 1_555
Na25 O103 2.832193 1_555
Na25 O105 2.846879 1_555
Na25 O107 2.883533 1_555
Na26 O122 2.589069 1_555
Na26 O134 2.611257 1_555
Na26 O136 2.626920 1_555
Na26 O132 2.628792 1_555
Na26 O120 2.640871 1_555
Na26 O124 2.679166 1_555
Na27 O125 2.275486 1_555
Na27 O135 2.484884 1_555
Na27 O133 2.578788 1_555
Na27 O123 2.654793 1_555
Na27 O121 2.717462 1_555
Na27 O137 2.838637 1_555
Na28 O128 2.292539 1_555
Na28 O142 2.517864 1_555
Na28 O138 2.532803 1_555
Na28 O126 2.646707 1_555
Na28 O130 2.676367 1_555
Na28 O140 2.819483 1_555
Na29 O131 2.531635 1_555
Na29 O129 2.618868 1_555
Na29 O143 2.633033 1_555
Na29 O139 2.638222 1_555
Na29 O127 2.656149 1_555
Na29 O141 2.702469 1_555
Ca0 O0 2.159841 1_565
Ca0 O72 2.224964 1_555
Ca0 O3 2.245175 1_455
Ca0 O5 2.302420 1_465
Ca0 O76 2.389348 1_565
Ca0 O75 2.396781 1_455
Ca1 O2 2.174624 1_545
Ca1 O1 2.217323 1_555
Ca1 O4 2.265145 1_555
Ca1 O74 2.301795 1_545
Ca1 O77 2.311327 1_555
Ca1 O73 2.354832 1_545
Ca2 O6 2.109553 1_555
Ca2 O11 2.201969 1_455
Ca2 O9 2.305052 1_445
Ca2 O83 2.354652 1_445
Ca2 O78 2.359844 1_555
Ca2 O80 2.366890 1_545
Ca3 O7 2.142070 1_555
Ca3 O79 2.214479 1_555
Ca3 O10 2.264579 1_555
Ca3 O8 2.302717 1_545
Ca3 O81 2.361860 1_545
Ca3 O82 2.405280 1_545
Ca4 O28 2.128171 1_555
Ca4 O98 2.249785 1_555
Ca4 O24 2.250420 1_555
Ca4 O26 2.295232 1_555
Ca4 O100 2.345849 1_555
Ca4 O96 2.359732 1_555
Ca5 O99 2.211009 1_555
Ca5 O27 2.257194 1_555
Ca5 O97 2.262154 1_555
Ca5 O25 2.299925 1_555
Ca5 O29 2.302063 1_555
Ca5 O101 2.344629 1_555
Ca6 O106 2.206961 1_555
Ca6 O34 2.246444 1_555
Ca6 O102 2.266306 1_555
Ca6 O30 2.284046 1_555
Ca6 O32 2.303847 1_555
Ca6 O104 2.352231 1_555
Ca7 O33 2.060304 1_555
Ca7 O35 2.273891 1_555
Ca7 O107 2.310195 1_555
Ca7 O31 2.311716 1_555
Ca7 O105 2.344959 1_555
Ca7 O103 2.377183 1_555
Ca8 O108 2.334981 1_555
Ca8 O112 2.336481 1_555
Ca8 O110 2.354055 1_555
Ca8 O36 2.378461 1_556
Ca8 O38 2.394614 1_556
Ca8 O40 2.418508 1_556
Ca9 O41 2.197169 1_556
Ca9 O39 2.379549 1_556
Ca9 O111 2.383648 1_555
Ca9 O37 2.427982 1_556
Ca9 O113 2.514961 1_555
Ca9 O109 2.773354 1_555
Ca10 O44 2.211804 1_555
Ca10 O46 2.320945 1_555
Ca10 O118 2.370112 1_555
Ca10 O42 2.408741 1_555
Ca10 O116 2.547178 1_555
Ca10 O114 2.678492 1_555
Ca11 O117 2.331781 1_555
Ca11 O115 2.343786 1_555
Ca11 O47 2.366791 1_555
Ca11 O43 2.371602 1_555
Ca11 O119 2.374524 1_555
Ca11 O45 2.375352 1_555
Ca12 O52 2.230000 1_554
Ca12 O50 2.231083 1_554
Ca12 O48 2.268097 1_554
Ca12 O120 2.312372 1_555
Ca12 O122 2.336477 1_555
Ca12 O124 2.373664 1_555
Ca13 O51 2.142402 1_554
Ca13 O125 2.245622 1_555
Ca13 O53 2.268853 1_554
Ca13 O49 2.312964 1_554
Ca13 O123 2.347616 1_555
Ca13 O121 2.353770 1_555
Ca14 O58 2.137788 1_555
Ca14 O128 2.220355 1_555
Ca14 O54 2.255665 1_555
Ca14 O126 2.316503 1_555
Ca14 O56 2.342642 1_555
Ca14 O130 2.409314 1_555
Ca15 O57 2.240775 1_555
Ca15 O55 2.255636 1_555
Ca15 O59 2.256202 1_555
Ca15 O131 2.312834 1_555
Ca15 O127 2.317221 1_555
Ca15 O129 2.364848 1_555
Ca16 O65 2.262339 1_555
Ca16 O63 2.264108 1_555
Ca16 O61 2.362653 1_555
Ca16 O135 2.373000 1_555
Ca16 O137 2.413557 1_555
Ca16 O133 2.473365 1_555
Ca17 O66 2.278979 1_555
Ca17 O138 2.282123 1_555
Ca17 O70 2.294794 1_555
Ca17 O68 2.354923 1_555
Ca17 O140 2.443860 1_555
Ca17 O142 2.448957 1_555
O0 Si0 1.605004 1_555
O1 S0 1.463886 1_545
O2 Si1 1.598264 1_555
O3 S1 1.480192 1_555
O4 S3 1.466999 1_555
O5 S2 1.475599 1_655
O6 Si2 1.592469 1_555
O7 Si3 1.603994 1_555
O8 S5 1.482958 1_555
O9 S4 1.467058 1_655
O10 S6 1.477905 1_545
O11 Si4 1.598825 1_545
O12 S6 1.492722 1_555
O12 Ti1 2.116213 1_565
O13 Si4 1.757618 1_555
O13 Ti0 1.803567 1_565
O14 Si2 1.758674 1_555
O14 Ti0 1.799753 1_455
O15 Si3 1.679121 1_555
O15 Ti1 1.893164 1_555
O16 S4 1.506777 1_555
O16 Ti0 2.071659 1_465
O17 S5 1.485105 1_555
O17 Ti1 2.364888 1_565
O18 Ti3 1.783961 1_555
O18 Si1 1.788577 1_555
O19 S1 1.517272 1_555
O19 Ti2 2.049372 1_655
O20 S2 1.490839 1_555
O20 Ti2 2.267356 1_545
O21 S3 1.510098 1_555
O21 Ti3 2.043557 1_545
O22 Si0 1.668299 1_565
O22 Ti2 1.905193 1_555
O23 S0 1.529482 1_555
O23 Ti3 1.983539 1_555
O24 S7 1.459322 1_555
O25 S8 1.471986 1_555
O26 S9 1.483105 1_555
O27 S10 1.475673 1_555
O28 Si5 1.620126 1_555
O29 S11 1.479276 1_555
O30 S12 1.474186 1_555
O31 S13 1.460701 1_555
O32 S14 1.472520 1_555
O33 Si6 1.593907 1_555
O34 S15 1.477971 1_555
O35 S16 1.477113 1_555
O36 S15 1.476892 1_555
O37 S16 1.501582 1_555
O38 S12 1.482727 1_555
O39 S13 1.485198 1_555
O40 S14 1.484301 1_555
O41 Si6 1.636612 1_555
O42 S9 1.504746 1_555
O43 S10 1.474553 1_555
O44 Si5 1.641684 1_555
O45 S11 1.495213 1_555
O46 S7 1.473886 1_555
O47 S8 1.480058 1_555
O48 S17 1.472505 1_555
O49 S18 1.472620 1_555
O50 S19 1.470203 1_555
O51 Si7 1.589303 1_555
O52 S20 1.475147 1_555
O53 S21 1.466846 1_555
O54 S22 1.465802 1_555
O55 S23 1.473541 1_555
O56 S24 1.474700 1_555
O57 S25 1.472112 1_555
O58 Si8 1.588833 1_555
O59 S26 1.469126 1_555
O60 Si8 1.772847 1_555
O60 Ti4 1.784384 1_555
O61 S26 1.491608 1_555
O62 S22 1.526847 1_555
O62 Ti4 2.125615 1_555
O63 S23 1.478868 1_555
O64 S24 1.495641 1_555
O64 Ti4 2.414938 1_555
O65 S25 1.489148 1_555
O66 S19 1.493082 1_555
O67 Si7 1.760702 1_555
O67 Ti5 1.793387 1_555
O68 S20 1.499887 1_555
O69 S21 1.496002 1_555
O69 Ti5 2.393956 1_555
O70 S17 1.486997 1_555
O71 S18 1.532827 1_555
O71 Ti5 2.106138 1_555
O72 Si8 1.635435 1_555
O73 S26 1.499772 1_555
O74 S22 1.479968 1_555
O75 S23 1.503383 1_555
O76 S24 1.497940 1_555
O77 S25 1.479372 1_555
O78 S19 1.495718 1_555
O79 Si7 1.636828 1_555
O80 S20 1.474905 1_555
O81 S21 1.499688 1_555
O82 S17 1.500634 1_555
O83 S18 1.476516 1_555
O84 S7 1.534647 1_555
O84 Ti1 1.958495 1_555
O85 S8 1.520291 1_555
O85 Ti0 2.069845 1_555
O86 S9 1.507379 1_555
O86 Ti0 2.338855 1_455
O87 S10 1.521899 1_555
O87 Ti1 2.028506 1_555
O88 Si5 1.719385 1_555
O88 Ti1 1.822272 1_565
O89 S11 1.505997 1_555
O89 Ti0 2.171864 1_565
O90 S12 1.533733 1_555
O90 Ti3 1.995739 1_555
O91 S13 1.538216 1_555
O91 Ti2 2.029183 1_655
O92 S14 1.529226 1_555
O92 Ti3 2.037230 1_545
O93 Si6 1.754177 1_555
O93 Ti2 1.812182 1_645
O94 S15 1.512917 1_555
O94 Ti2 2.069948 1_545
O95 S16 1.502801 1_555
O95 Ti3 2.234862 1_545
O96 S6 1.476575 1_545
O97 Si4 1.627056 1_545
O98 Si2 1.632391 1_555
O99 Si3 1.620107 1_555
O100 S5 1.471848 1_555
O101 S4 1.485397 1_655
O102 Si1 1.624596 1_555
O103 S1 1.468702 1_555
O104 S3 1.495410 1_555
O105 S2 1.460917 1_655
O106 Si0 1.619924 1_555
O107 S0 1.458172 1_545
O108 S17 1.488839 1_555
O109 S18 1.487971 1_555
O110 Si7 1.641028 1_555
O111 S19 1.496942 1_655
O112 S20 1.506944 1_545
O113 S21 1.501758 1_545
O114 S22 1.489806 1_545
O115 S23 1.490561 1_545
O116 S24 1.505966 1_555
O117 S25 1.506712 1_555
O118 S26 1.505142 1_555
O119 Si8 1.636446 1_655
O120 S15 1.480308 1_555
O121 S16 1.482764 1_555
O122 S13 1.473599 1_455
O123 S12 1.463824 1_555
O124 S14 1.475073 1_565
O125 Si6 1.630017 1_565
O126 S9 1.468884 1_565
O127 S10 1.476557 1_565
O128 Si5 1.627389 1_555
O129 S11 1.482068 1_555
O130 S8 1.484263 1_455
O131 S7 1.474892 1_555
O132 Si0 1.714462 1_565
O132 Ti4 1.827337 1_555
O133 S0 1.497209 1_555
O134 Si1 1.653861 1_555
O134 Ti4 2.163407 1_555
O135 S1 1.487476 1_555
O136 S2 1.544345 1_555
O136 Ti4 2.086955 1_555
O137 S3 1.479354 1_555
O138 Si2 1.640623 1_555
O139 Si3 1.708298 1_555
O139 Ti5 1.834589 1_555
O140 S4 1.493114 1_555
O141 S5 1.524885 1_555
O141 Ti5 2.113485 1_555
O142 S6 1.503966 1_555
O143 Si4 1.666870 1_555
O143 Ti5 2.112387 1_555
