# generated using pymatgen
data_LiMoPO5
_symmetry_space_group_name_H-M   'P 1'
_cell_length_a   6.52369800
_cell_length_b   10.78757400
_cell_length_c   13.15335700
_cell_angle_alpha   90.00000000
_cell_angle_beta   90.00000000
_cell_angle_gamma   90.00000000
_symmetry_Int_Tables_number   1
_chemical_formula_structural   LiMoPO5
_chemical_formula_sum   'Li8 Mo8 P8 O40'
_cell_volume   925.66585377
_cell_formula_units_Z   8
loop_
 _symmetry_equiv_pos_site_id
 _symmetry_equiv_pos_as_xyz
  1  'x, y, z'
loop_
 _atom_site_type_symbol
 _atom_site_label
 _atom_site_symmetry_multiplicity
 _atom_site_fract_x
 _atom_site_fract_y
 _atom_site_fract_z
 _atom_site_occupancy
  Li  Li0  1  0.00194400  0.03104000  0.09633700  1
  Li  Li1  1  0.26343100  0.77369400  0.24585400  1
  Li  Li2  1  0.76343100  0.27369400  0.25414600  1
  Li  Li3  1  0.50194400  0.53104000  0.40366300  1
  Li  Li4  1  0.49805600  0.03104000  0.59633700  1
  Li  Li5  1  0.23656900  0.77369400  0.74585400  1
  Li  Li6  1  0.73656900  0.27369400  0.75414600  1
  Li  Li7  1  0.99805600  0.53104000  0.90366300  1
  Mo  Mo0  1  0.01590300  0.51296600  0.13081700  1
  Mo  Mo1  1  0.26433200  0.25978000  0.23690900  1
  Mo  Mo2  1  0.76433200  0.75978000  0.26309100  1
  Mo  Mo3  1  0.51590300  0.01296600  0.36918300  1
  Mo  Mo4  1  0.48409700  0.51296600  0.63081700  1
  Mo  Mo5  1  0.23566800  0.25978000  0.73690900  1
  Mo  Mo6  1  0.73566800  0.75978000  0.76309100  1
  Mo  Mo7  1  0.98409700  0.01296600  0.86918300  1
  P  P0  1  0.16103000  0.26914300  0.98970000  1
  P  P1  1  0.47949900  0.01049200  0.81397800  1
  P  P2  1  0.97949900  0.51049200  0.68602200  1
  P  P3  1  0.66103000  0.76914300  0.51030000  1
  P  P4  1  0.33897000  0.26914300  0.48970000  1
  P  P5  1  0.02050100  0.01049200  0.31397800  1
  P  P6  1  0.52050100  0.51049200  0.18602200  1
  P  P7  1  0.83897000  0.76914300  0.01030000  1
  O  O0  1  0.04176100  0.11440200  0.23065700  1
  O  O1  1  0.00772400  0.15752000  0.98694800  1
  O  O2  1  0.69446400  0.75231600  0.91780300  1
  O  O3  1  0.29739900  0.99991900  0.88608600  1
  O  O4  1  0.29073600  0.27736000  0.89227900  1
  O  O5  1  0.67411500  0.03639800  0.87553400  1
  O  O6  1  0.98359300  0.86595600  0.78163800  1
  O  O7  1  0.02749200  0.13762200  0.77275800  1
  O  O8  1  0.96142800  0.89437600  0.99912300  1
  O  O9  1  0.99227600  0.65752000  0.01305200  1
  O  O10  1  0.30553600  0.25231600  0.08219700  1
  O  O11  1  0.70260100  0.49991900  0.11391400  1
  O  O12  1  0.70926400  0.77736000  0.10772100  1
  O  O13  1  0.32588500  0.53639800  0.12446600  1
  O  O14  1  0.01640700  0.36595600  0.21836200  1
  O  O15  1  0.03857200  0.39437600  0.00087700  1
  O  O16  1  0.97250800  0.63762200  0.22724200  1
  O  O17  1  0.50432600  0.38878100  0.25117600  1
  O  O18  1  0.00432600  0.88878100  0.24882400  1
  O  O19  1  0.47250800  0.13762200  0.27275800  1
  O  O20  1  0.54176100  0.61440200  0.26934300  1
  O  O21  1  0.51640700  0.86595600  0.28163800  1
  O  O22  1  0.82588500  0.03639800  0.37553400  1
  O  O23  1  0.20926400  0.27736000  0.39227900  1
  O  O24  1  0.20260100  0.99991900  0.38608600  1
  O  O25  1  0.80553600  0.75231600  0.41780300  1
  O  O26  1  0.49227600  0.15752000  0.48694800  1
  O  O27  1  0.46142800  0.39437600  0.50087700  1
  O  O28  1  0.53857200  0.89437600  0.49912300  1
  O  O29  1  0.50772400  0.65752000  0.51305200  1
  O  O30  1  0.19446400  0.25231600  0.58219700  1
  O  O31  1  0.79739900  0.49991900  0.61391400  1
  O  O32  1  0.79073600  0.77736000  0.60772100  1
  O  O33  1  0.17411500  0.53639800  0.62446600  1
  O  O34  1  0.48359300  0.36595600  0.71836200  1
  O  O35  1  0.45823900  0.11440200  0.73065700  1
  O  O36  1  0.52749200  0.63762200  0.72724200  1
  O  O37  1  0.99567400  0.38878100  0.75117600  1
  O  O38  1  0.49567400  0.88878100  0.74882400  1
  O  O39  1  0.95823900  0.61440200  0.76934300  1
loop_
_geom_bond_atom_site_label_1
_geom_bond_atom_site_label_2
_geom_bond_distance
_geom_bond_site_symmetry_2
Li0 O8 1.969363 1_444
Li0 O1 1.983250 1_554
Li0 O0 1.999401 1_555
Li0 O18 2.525515 1_545
Li1 O21 1.983872 1_555
Li1 O18 2.097633 1_555
Li1 O16 2.411768 1_455
Li1 O20 2.518964 1_555
Li2 O14 1.983872 1_655
Li2 O17 2.097633 1_555
Li2 O19 2.411768 1_555
Li2 O0 2.518964 1_655
Li3 O27 1.969363 1_555
Li3 O29 1.983250 1_555
Li3 O20 1.999401 1_555
Li3 O17 2.525515 1_555
Li4 O28 1.969363 1_545
Li4 O26 1.983250 1_555
Li4 O35 1.999401 1_555
Li4 O38 2.525515 1_545
Li5 O6 1.983872 1_455
Li5 O38 2.097633 1_555
Li5 O36 2.411768 1_555
Li5 O39 2.518964 1_455
Li6 O34 1.983872 1_555
Li6 O37 2.097633 1_555
Li6 O7 2.411768 1_655
Li6 O35 2.518964 1_555
Li7 O15 1.969363 1_656
Li7 O9 1.983250 1_556
Li7 O39 1.999401 1_555
Li7 O37 2.525515 1_555
Mo0 O16 1.870047 1_455
Mo0 O14 1.959849 1_555
Mo0 O13 2.039677 1_555
Mo0 O11 2.060756 1_455
Mo0 O15 2.140014 1_555
Mo0 O9 2.203375 1_455
Mo1 O19 1.950201 1_555
Mo1 O14 1.996837 1_555
Mo1 O10 2.054237 1_555
Mo1 O23 2.083621 1_555
Mo1 O17 2.103103 1_555
Mo1 O0 2.138812 1_555
Mo2 O16 1.950201 1_555
Mo2 O21 1.996837 1_555
Mo2 O25 2.054237 1_555
Mo2 O12 2.083621 1_555
Mo2 O18 2.103103 1_655
Mo2 O20 2.138812 1_555
Mo3 O19 1.870047 1_555
Mo3 O21 1.959849 1_545
Mo3 O22 2.039677 1_555
Mo3 O24 2.060756 1_545
Mo3 O28 2.140014 1_545
Mo3 O26 2.203375 1_555
Mo4 O36 1.870047 1_555
Mo4 O34 1.959849 1_555
Mo4 O33 2.039677 1_555
Mo4 O31 2.060756 1_555
Mo4 O27 2.140014 1_555
Mo4 O29 2.203375 1_555
Mo5 O7 1.950201 1_555
Mo5 O34 1.996837 1_555
Mo5 O30 2.054237 1_555
Mo5 O4 2.083621 1_555
Mo5 O37 2.103103 1_455
Mo5 O35 2.138812 1_555
Mo6 O36 1.950201 1_555
Mo6 O6 1.996837 1_555
Mo6 O2 2.054237 1_555
Mo6 O32 2.083621 1_555
Mo6 O38 2.103103 1_555
Mo6 O39 2.138812 1_555
Mo7 O7 1.870047 1_655
Mo7 O6 1.959849 1_545
Mo7 O5 2.039677 1_555
Mo7 O3 2.060756 1_645
Mo7 O8 2.140014 1_545
Mo7 O1 2.203375 1_655
O0 P5 1.573799 1_555
O1 P0 1.565730 1_555
O2 P7 1.549802 1_556
O3 P1 1.524418 1_565
O4 P0 1.538138 1_555
O5 P1 1.531531 1_555
O8 P7 1.576361 1_556
O9 P7 1.565730 1_555
O10 P0 1.549802 1_554
O11 P6 1.524418 1_555
O12 P7 1.538138 1_555
O13 P6 1.531531 1_555
O15 P0 1.576361 1_554
O17 P6 1.571450 1_555
O18 P5 1.571450 1_565
O20 P6 1.573799 1_555
O22 P5 1.531531 1_655
O23 P4 1.538138 1_555
O24 P5 1.524418 1_565
O25 P3 1.549802 1_555
O26 P4 1.565730 1_555
O27 P4 1.576361 1_555
O28 P3 1.576361 1_555
O29 P3 1.565730 1_555
O30 P4 1.549802 1_555
O31 P2 1.524418 1_555
O32 P3 1.538138 1_555
O33 P2 1.531531 1_455
O35 P1 1.573799 1_555
O37 P2 1.571450 1_555
O38 P1 1.571450 1_565
O39 P2 1.573799 1_555
