# generated using pymatgen
data_K2PdCl4
_symmetry_space_group_name_H-M   'P 1'
_cell_length_a   4.09634545
_cell_length_b   7.05764687
_cell_length_c   7.05764687
_cell_angle_alpha   90.00000000
_cell_angle_beta   90.00000000
_cell_angle_gamma   90.00000000
_symmetry_Int_Tables_number   1
_chemical_formula_structural   K2PdCl4
_chemical_formula_sum   'K2 Pd1 Cl4'
_cell_volume   204.04052078
_cell_formula_units_Z   1
loop_
 _symmetry_equiv_pos_site_id
 _symmetry_equiv_pos_as_xyz
  1  'x, y, z'
loop_
 _atom_site_type_symbol
 _atom_site_label
 _atom_site_symmetry_multiplicity
 _atom_site_fract_x
 _atom_site_fract_y
 _atom_site_fract_z
 _atom_site_occupancy
  K  K0  1  0.50000000  0.50000000  0.00000000  1
  K  K1  1  0.50000000  0.00000000  0.50000000  1
  Pd  Pd0  1  -0.00000000  0.00000000  -0.00000000  1
  Cl  Cl0  1  0.00000000  0.23222437  0.76777563  1
  Cl  Cl1  1  0.00000000  0.23222437  0.23222437  1
  Cl  Cl2  1  -0.00000000  0.76777563  0.76777563  1
  Cl  Cl3  1  -0.00000000  0.76777563  0.23222437  1
loop_
_geom_bond_atom_site_label_1
_geom_bond_atom_site_label_2
_geom_bond_distance
_geom_bond_site_symmetry_2
Cl0 Pd0 2.317836 1_556
Cl0 K1 3.233077 1_555
Cl0 K0 3.233077 1_556
Cl0 K0 3.233077 1_456
Cl0 K1 3.233077 1_455
Cl1 Pd0 2.317836 1_555
Cl1 K1 3.233077 1_555
Cl1 K0 3.233077 1_555
Cl1 K1 3.233077 1_455
Cl1 K0 3.233077 1_455
Cl2 Pd0 2.317836 1_566
Cl2 K0 3.233077 1_556
Cl2 K0 3.233077 1_456
Cl2 K1 3.233077 1_465
Cl2 K1 3.233077 1_565
Cl3 Pd0 2.317836 1_565
Cl3 K1 3.233077 1_465
Cl3 K1 3.233077 1_565
Cl3 K0 3.233077 1_555
Cl3 K0 3.233077 1_455
