# generated using pymatgen
data_Na9Ca5TaSi3(SO6)6
_symmetry_space_group_name_H-M   'P 1'
_cell_length_a   9.41162954
_cell_length_b   9.36278992
_cell_length_c   23.44866185
_cell_angle_alpha   89.62052145
_cell_angle_beta   90.00000000
_cell_angle_gamma   120.17270611
_symmetry_Int_Tables_number   1
_chemical_formula_structural   Na9Ca5TaSi3(SO6)6
_chemical_formula_sum   'Na18 Ca10 Ta2 Si6 S12 O72'
_cell_volume   1786.27210659
_cell_formula_units_Z   2
loop_
 _symmetry_equiv_pos_site_id
 _symmetry_equiv_pos_as_xyz
  1  'x, y, z'
loop_
 _atom_site_type_symbol
 _atom_site_label
 _atom_site_symmetry_multiplicity
 _atom_site_fract_x
 _atom_site_fract_y
 _atom_site_fract_z
 _atom_site_occupancy
  Na  Na0  1  0.64913029  -0.00216048  0.23737462  1
  Na  Na1  1  0.37281336  0.33371034  0.25140123  1
  Na  Na2  1  0.99185491  0.66638743  0.24453692  1
  Na  Na3  1  0.67453252  0.66638743  0.74453692  1
  Na  Na4  1  0.96089698  0.33371034  0.75140123  1
  Na  Na5  1  0.34870923  -0.00216048  0.73737462  1
  Na  Na6  1  0.30631542  0.33751058  0.56897715  1
  Na  Na7  1  0.03119617  0.33751058  0.06897715  1
  Na  Na8  1  0.95843761  0.65637043  0.90410219  1
  Na  Na9  1  0.72350558  0.05449594  0.90354311  1
  Na  Na10  1  0.33098935  0.05449594  0.40354311  1
  Na  Na11  1  0.69793182  0.65637043  0.40410219  1
  Na  Na12  1  0.01134791  0.03356550  0.50002696  1
  Na  Na13  1  0.02221759  0.03356550  0.00002696  1
  Na  Na14  1  0.69046581  0.33337422  0.82716639  1
  Na  Na15  1  0.64290941  0.33337422  0.32716639  1
  Na  Na16  1  0.35754381  0.69899528  0.15604133  1
  Na  Na17  1  0.34145047  0.69899528  0.65604133  1
  Ca  Ca0  1  0.00960556  0.00940033  0.34777384  1
  Ca  Ca1  1  -0.00020523  0.00940033  0.84777384  1
  Ca  Ca2  1  0.98137070  0.97702881  0.65485293  1
  Ca  Ca3  1  0.99565810  0.97702881  0.15485293  1
  Ca  Ca4  1  0.67600029  0.33284592  0.67942282  1
  Ca  Ca5  1  0.65684663  0.33284592  0.17942282  1
  Ca  Ca6  1  0.66224222  0.33451393  0.98073930  1
  Ca  Ca7  1  0.67227271  0.33451393  0.48073930  1
  Ca  Ca8  1  0.33371556  0.66107725  0.01726028  1
  Ca  Ca9  1  0.32736069  0.66107725  0.51726028  1
  Ta  Ta0  1  0.33466360  0.65501091  0.31748230  1
  Ta  Ta1  1  0.32034632  0.65501091  0.81748230  1
  Si  Si0  1  0.30756807  0.99254420  0.25633488  1
  Si  Si1  1  0.69506785  0.69761454  0.25818613  1
  Si  Si2  1  0.00254669  0.69761454  0.75818613  1
  Si  Si3  1  0.68497613  0.99254420  0.75633488  1
  Si  Si4  1  0.03252965  0.36296142  0.92297578  1
  Si  Si5  1  0.33043077  0.36296142  0.42297578  1
  S  S0  1  0.01085552  0.31600057  0.24995013  1
  S  S1  1  0.30514505  0.31600057  0.74995013  1
  S  S2  1  0.97799263  0.33030610  0.58674736  1
  S  S3  1  0.35684037  0.03367176  0.58275961  1
  S  S4  1  0.66612695  0.63824431  0.58249511  1
  S  S5  1  0.97211836  0.63824431  0.08249511  1
  S  S6  1  0.67683239  0.03367176  0.08275961  1
  S  S7  1  0.35231447  0.33030610  0.08674736  1
  S  S8  1  0.62325160  0.66331290  0.91313351  1
  S  S9  1  0.33647580  0.95327889  0.91351713  1
  S  S10  1  0.61680208  0.95327889  0.41351713  1
  S  S11  1  0.04006030  0.66331290  0.41313351  1
  O  O0  1  0.24835413  0.05107126  0.31222412  1
  O  O1  1  0.79569200  0.76570505  0.31700054  1
  O  O2  1  0.97764726  0.20797570  0.29958087  1
  O  O3  1  0.23032844  0.20797570  0.79958087  1
  O  O4  1  0.97001304  0.76570505  0.81700054  1
  O  O5  1  0.80271713  0.05107126  0.81222412  1
  O  O6  1  0.76299056  0.93319024  0.70627939  1
  O  O7  1  0.20257237  0.25400338  0.69844594  1
  O  O8  1  0.07192502  0.83616145  0.70753191  1
  O  O9  1  0.76423643  0.83616145  0.20753191  1
  O  O10  1  0.05143101  0.25400338  0.19844594  1
  O  O11  1  0.17019968  0.93319024  0.20627939  1
  O  O12  1  0.89637716  0.32407973  0.64157404  1
  O  O13  1  0.44503888  0.11604571  0.63607778  1
  O  O14  1  0.66423866  0.54841857  0.63540719  1
  O  O15  1  0.88418091  0.54841857  0.13540719  1
  O  O16  1  0.67100783  0.11604571  0.13607778  1
  O  O17  1  0.42770357  0.32407973  0.14157404  1
  O  O18  1  0.45054759  0.33148372  0.03750743  1
  O  O19  1  0.87895579  0.54504332  0.03136517  1
  O  O20  1  0.67399178  0.12786698  0.03171086  1
  O  O21  1  0.45387620  0.12786698  0.53171086  1
  O  O22  1  0.66608853  0.54504332  0.53136517  1
  O  O23  1  0.88093712  0.33148372  0.53750743  1
  O  O24  1  0.53943054  0.67500302  0.96397248  1
  O  O25  1  0.11719873  0.45088163  0.98207127  1
  O  O26  1  0.32693483  0.86296580  0.96582201  1
  O  O27  1  0.53602996  0.86296580  0.46582201  1
  O  O28  1  0.33368190  0.45088163  0.48207127  1
  O  O29  1  0.13557148  0.67500302  0.46397248  1
  O  O30  1  0.13274623  0.65996689  0.36049775  1
  O  O31  1  0.51059196  0.85233597  0.36261167  1
  O  O32  1  0.32515726  0.49116740  0.36893063  1
  O  O33  1  0.16600914  0.49116740  0.86893063  1
  O  O34  1  0.34174302  0.85233597  0.86261167  1
  O  O35  1  0.52721966  0.65996689  0.86049775  1
  O  O36  1  0.02167898  0.81119710  0.41059926  1
  O  O37  1  0.77936550  0.97028944  0.40827116  1
  O  O38  1  0.17198087  0.17735824  0.41960051  1
  O  O39  1  0.00537737  0.17735824  0.91960051  1
  O  O40  1  0.19092394  0.97028944  0.90827116  1
  O  O41  1  0.78951812  0.81119710  0.91059926  1
  O  O42  1  0.00298351  0.18494655  0.58284954  1
  O  O43  1  0.19823690  0.03372923  0.58118765  1
  O  O44  1  0.81279357  0.80544695  0.58050278  1
  O  O45  1  0.99265338  0.80544695  0.08050278  1
  O  O46  1  0.83549233  0.03372923  0.08118765  1
  O  O47  1  0.18196304  0.18494655  0.08284954  1
  O  O48  1  0.63937712  0.13697432  0.74347756  1
  O  O49  1  0.47425526  0.34883572  0.74159321  1
  O  O50  1  0.84619369  0.51365487  0.74550421  1
  O  O51  1  0.66746218  0.51365487  0.24550421  1
  O  O52  1  0.87458147  0.34883572  0.24159321  1
  O  O53  1  0.49759820  0.13697432  0.24347756  1
  O  O54  1  0.63710372  0.51252318  0.91278124  1
  O  O55  1  0.85827119  0.36291423  0.91084794  1
  O  O56  1  0.49255971  0.11349758  0.91004243  1
  O  O57  1  0.62093887  0.11349758  0.41004243  1
  O  O58  1  0.50464404  0.36291423  0.41084794  1
  O  O59  1  0.87542045  0.51252318  0.41278124  1
  O  O60  1  0.33732633  0.48257594  0.08741144  1
  O  O61  1  0.13619301  0.64776990  0.08419750  1
  O  O62  1  0.53374902  0.86324531  0.08247200  1
  O  O63  1  0.32949529  0.86324531  0.58247200  1
  O  O64  1  0.51157589  0.64776990  0.58419750  1
  O  O65  1  0.14524861  0.48257594  0.58741144  1
  O  O66  1  0.32148305  0.81886665  0.26935348  1
  O  O67  1  0.49623697  0.65920597  0.26879461  1
  O  O68  1  0.16347719  0.48550895  0.26176842  1
  O  O69  1  0.32203077  0.48550895  0.76176842  1
  O  O70  1  0.16296800  0.65920597  0.76879461  1
  O  O71  1  0.49738259  0.81886665  0.76935348  1
loop_
_geom_bond_atom_site_label_1
_geom_bond_atom_site_label_2
_geom_bond_distance
_geom_bond_site_symmetry_2
Na0 O9 2.370075 1_545
Na0 O53 2.370956 1_555
Na0 O16 2.577850 1_555
Na0 O66 2.769203 1_545
Na0 O67 2.837038 1_545
Na0 O52 2.882139 1_555
Na1 O51 2.418319 1_555
Na1 O17 2.637629 1_555
Na1 O53 2.643080 1_555
Na1 O0 2.691302 1_555
Na1 O67 2.694653 1_555
Na2 O11 2.370181 1_655
Na2 O52 2.601297 1_555
Na2 O51 2.641501 1_555
Na2 O66 2.749575 1_655
Na2 O15 2.776223 1_555
Na2 O68 2.894992 1_655
Na2 O1 2.984468 1_555
Na2 O30 3.038675 1_655
Na3 O6 2.370181 1_555
Na3 O49 2.601295 1_555
Na3 O50 2.641510 1_555
Na3 O71 2.749583 1_555
Na3 O14 2.776225 1_555
Na3 O69 2.895000 1_555
Na3 O4 2.984468 1_555
Na3 O35 3.038679 1_555
Na4 O50 2.418312 1_555
Na4 O12 2.637627 1_555
Na4 O48 2.643073 1_555
Na4 O5 2.691302 1_555
Na4 O70 2.694652 1_655
Na5 O8 2.370075 1_545
Na5 O48 2.370965 1_555
Na5 O13 2.577851 1_555
Na5 O71 2.769195 1_545
Na5 O70 2.837039 1_545
Na5 O49 2.882138 1_555
Na6 O28 2.245511 1_555
Na6 O42 2.488173 1_555
Na6 O43 2.507458 1_555
Na6 O65 2.531204 1_555
Na6 O64 2.582722 1_555
Na7 O25 2.245509 1_554
Na7 O47 2.488164 1_555
Na7 O46 2.507459 1_455
Na7 O60 2.531188 1_555
Na7 O61 2.582725 1_555
Na8 O4 2.256425 1_555
Na8 O55 2.419382 1_555
Na8 O54 2.627462 1_555
Na8 O41 2.640381 1_555
Na8 O40 2.641030 1_655
Na9 O5 2.273093 1_555
Na9 O39 2.332574 1_655
Na9 O56 2.502186 1_555
Na9 O55 2.510277 1_555
Na9 O41 2.649548 1_545
Na10 O0 2.273090 1_555
Na10 O38 2.332566 1_555
Na10 O57 2.502205 1_555
Na10 O58 2.510278 1_555
Na10 O36 2.649542 1_545
Na11 O1 2.256426 1_555
Na11 O58 2.419379 1_555
Na11 O59 2.627478 1_555
Na11 O36 2.640390 1_655
Na11 O37 2.641027 1_555
Na12 O38 2.361165 1_555
Na12 O42 2.436261 1_555
Na12 O43 2.590944 1_555
Na12 O44 2.747609 1_445
Na12 O37 2.909251 1_445
Na12 O36 3.000449 1_545
Na13 O39 2.361165 1_554
Na13 O47 2.436261 1_555
Na13 O46 2.590944 1_455
Na13 O45 2.747609 1_445
Na13 O40 2.909251 1_544
Na13 O41 3.000449 1_444
Na14 O55 2.447278 1_555
Na14 O50 2.476758 1_555
Na14 O48 2.573434 1_555
Na14 O56 2.752539 1_555
Na14 O54 2.826189 1_555
Na14 O49 2.912106 1_555
Na15 O58 2.447278 1_555
Na15 O51 2.476758 1_555
Na15 O53 2.573434 1_555
Na15 O57 2.752539 1_555
Na15 O59 2.826189 1_555
Na15 O52 2.912106 1_555
Na16 O62 2.343583 1_555
Na16 O60 2.527341 1_555
Na16 O61 2.532665 1_555
Na17 O63 2.343583 1_555
Na17 O65 2.527341 1_555
Na17 O64 2.532665 1_555
Ca0 O0 2.238437 1_555
Ca0 O1 2.276884 1_445
Ca0 O38 2.294423 1_555
Ca0 O2 2.314844 1_455
Ca0 O36 2.408870 1_545
Ca0 O37 2.457142 1_445
Ca1 O5 2.238437 1_455
Ca1 O4 2.276884 1_445
Ca1 O39 2.294423 1_555
Ca1 O3 2.314844 1_555
Ca1 O41 2.408870 1_445
Ca1 O40 2.457142 1_545
Ca2 O6 2.234361 1_555
Ca2 O8 2.258334 1_655
Ca2 O44 2.369074 1_555
Ca2 O42 2.498006 1_665
Ca2 O43 2.515983 1_665
Ca2 O7 2.590786 1_665
Ca3 O11 2.234361 1_655
Ca3 O9 2.258334 1_555
Ca3 O45 2.369074 1_555
Ca3 O47 2.498006 1_665
Ca3 O46 2.515983 1_565
Ca3 O10 2.590786 1_665
Ca4 O48 2.250802 1_555
Ca4 O50 2.267500 1_555
Ca4 O12 2.295299 1_555
Ca4 O14 2.312635 1_555
Ca4 O13 2.338886 1_555
Ca4 O49 2.457949 1_555
Ca5 O53 2.250802 1_555
Ca5 O51 2.267500 1_555
Ca5 O17 2.295299 1_555
Ca5 O15 2.312635 1_555
Ca5 O16 2.338886 1_555
Ca5 O52 2.457949 1_555
Ca6 O20 2.317029 1_556
Ca6 O19 2.333311 1_556
Ca6 O55 2.379390 1_555
Ca6 O18 2.384330 1_556
Ca6 O54 2.394633 1_555
Ca6 O56 2.510802 1_555
Ca7 O21 2.317029 1_555
Ca7 O22 2.333311 1_555
Ca7 O58 2.379390 1_555
Ca7 O23 2.384330 1_555
Ca7 O59 2.394633 1_555
Ca7 O57 2.510802 1_555
Ca8 O25 2.167183 1_554
Ca8 O24 2.251875 1_554
Ca8 O26 2.263395 1_554
Ca8 O60 2.349646 1_555
Ca8 O61 2.387389 1_555
Ca8 O62 2.433445 1_555
Ca9 O28 2.167183 1_555
Ca9 O29 2.251875 1_555
Ca9 O27 2.263395 1_555
Ca9 O65 2.349646 1_555
Ca9 O64 2.387389 1_555
Ca9 O63 2.433445 1_555
O0 Si0 1.626296 1_545
O1 Si1 1.615556 1_555
O2 S0 1.463442 1_655
O3 S1 1.463442 1_555
O4 Si2 1.615556 1_655
O5 Si3 1.626296 1_545
O6 Si3 1.626158 1_555
O7 S1 1.474258 1_555
O8 Si2 1.627272 1_555
O9 Si1 1.627272 1_555
O10 S0 1.474258 1_555
O11 Si0 1.626158 1_555
O12 S2 1.483315 1_555
O13 S3 1.488692 1_555
O14 S4 1.489350 1_555
O15 S5 1.489350 1_555
O16 S6 1.488692 1_555
O17 S7 1.483315 1_555
O18 S7 1.475667 1_555
O19 S5 1.487427 1_555
O20 S6 1.490336 1_555
O21 S3 1.490336 1_555
O22 S4 1.487427 1_555
O23 S2 1.475667 1_555
O24 S8 1.464231 1_555
O25 Si4 1.608895 1_555
O26 S9 1.461938 1_555
O27 S10 1.461938 1_555
O28 Si5 1.608895 1_555
O29 S11 1.464231 1_555
O30 S11 1.520941 1_555
O30 Ta0 2.172604 1_555
O31 S10 1.543555 1_555
O31 Ta0 2.055627 1_555
O32 Si5 1.757582 1_555
O32 Ta0 1.911588 1_555
O33 Si4 1.757582 1_555
O33 Ta1 1.911588 1_555
O34 S9 1.543555 1_555
O34 Ta1 2.055627 1_555
O35 S8 1.520941 1_555
O35 Ta1 2.172604 1_555
O36 S11 1.479965 1_555
O37 S10 1.461558 1_555
O38 Si5 1.626900 1_555
O39 Si4 1.626904 1_555
O40 S9 1.461548 1_555
O41 S8 1.479970 1_555
O42 S2 1.496443 1_455
O43 S3 1.493442 1_555
O44 S4 1.478228 1_555
O45 S5 1.478231 1_555
O46 S6 1.493433 1_555
O47 S7 1.496449 1_555
O48 Si3 1.637581 1_545
O49 S1 1.474265 1_555
O50 Si2 1.636904 1_655
O51 Si1 1.636907 1_555
O52 S0 1.474255 1_655
O53 Si0 1.637588 1_545
O54 S8 1.481706 1_555
O55 Si4 1.664311 1_655
O56 S9 1.482611 1_545
O57 S10 1.482602 1_545
O58 Si5 1.664329 1_555
O59 S11 1.481696 1_655
O60 S7 1.501709 1_555
O61 S5 1.501912 1_455
O62 S6 1.483169 1_565
O63 S3 1.483162 1_565
O64 S4 1.501930 1_555
O65 S2 1.501698 1_455
O66 Si0 1.721063 1_555
O66 Ta0 1.952180 1_555
O67 Si1 1.736492 1_555
O67 Ta0 1.885930 1_555
O68 S0 1.540496 1_555
O68 Ta0 2.068413 1_555
O69 S1 1.540499 1_555
O69 Ta1 2.068413 1_555
O70 Si2 1.736482 1_555
O70 Ta1 1.885930 1_555
O71 Si3 1.721068 1_555
O71 Ta1 1.952179 1_555
