# generated using pymatgen
data_Na3MgNi2SbO6
_symmetry_space_group_name_H-M   'P 1'
_cell_length_a   6.17688303
_cell_length_b   6.17688352
_cell_length_c   5.74510091
_cell_angle_alpha   89.59522468
_cell_angle_beta   89.59522737
_cell_angle_gamma   118.47270118
_symmetry_Int_Tables_number   1
_chemical_formula_structural   Na3MgNi2SbO6
_chemical_formula_sum   'Na3 Mg1 Ni2 Sb1 O6'
_cell_volume   192.66632507
_cell_formula_units_Z   1
loop_
 _symmetry_equiv_pos_site_id
 _symmetry_equiv_pos_as_xyz
  1  'x, y, z'
loop_
 _atom_site_type_symbol
 _atom_site_label
 _atom_site_symmetry_multiplicity
 _atom_site_fract_x
 _atom_site_fract_y
 _atom_site_fract_z
 _atom_site_occupancy
  Na  Na0  1  0.30385916  0.30385816  0.31072099  1
  Na  Na1  1  0.30078442  0.86447248  0.56440956  1
  Na  Na2  1  0.86447148  0.30078542  0.56440956  1
  Mg  Mg0  1  0.77649563  0.77649563  0.52161066  1
  Ni  Ni0  1  0.42434622  0.79405641  0.10478934  1
  Ni  Ni1  1  0.79405641  0.42434622  0.10478934  1
  Sb  Sb0  1  0.94282731  0.94282731  0.94557912  1
  O  O0  1  0.11892179  0.56750273  0.25968044  1
  O  O1  1  0.07985974  0.07985874  0.61772791  1
  O  O2  1  0.66202783  0.66202783  0.21278654  1
  O  O3  1  0.56750173  0.11892179  0.25968044  1
  O  O4  1  0.62412565  0.89072063  0.79666754  1
  O  O5  1  0.89072063  0.62412565  0.79666754  1
loop_
_geom_bond_atom_site_label_1
_geom_bond_atom_site_label_2
_geom_bond_distance
_geom_bond_site_symmetry_2
Na0 O1 2.246205 1_555
Na0 O2 2.324579 1_555
Na0 O3 2.411348 1_555
Na0 O0 2.411364 1_555
Na0 Sb0 3.120470 1_444
Na1 O1 2.336013 1_565
Na1 O4 2.351105 1_555
Na1 O3 2.387650 1_565
Na1 O0 2.408339 1_555
Na1 O5 2.595958 1_455
Na2 O1 2.336034 1_655
Na2 O5 2.351098 1_555
Na2 O0 2.387652 1_655
Na2 O3 2.408340 1_555
Na2 O4 2.595962 1_545
Mg0 O2 1.925229 1_555
Mg0 O1 2.002198 1_665
Mg0 O5 2.123354 1_555
Mg0 O4 2.123354 1_555
Ni0 O0 1.936688 1_555
Ni0 O3 1.986185 1_565
Ni0 O4 2.065077 1_554
Ni0 O2 2.086331 1_555
Ni1 O3 1.936689 1_555
Ni1 O0 1.986185 1_655
Ni1 O5 2.065077 1_554
Ni1 O2 2.086331 1_555
O1 Sb0 2.062144 1_445
O2 Sb0 2.330175 1_554
O4 Sb0 2.033315 1_555
O5 Sb0 2.033315 1_555
