# generated using pymatgen
data_Na6TaIn3Si2(PO6)4
_symmetry_space_group_name_H-M   'P 1'
_cell_length_a   9.13174861
_cell_length_b   9.14822544
_cell_length_c   22.45387935
_cell_angle_alpha   90.04522534
_cell_angle_beta   89.86462818
_cell_angle_gamma   120.18112638
_symmetry_Int_Tables_number   1
_chemical_formula_structural   Na6TaIn3Si2(PO6)4
_chemical_formula_sum   'Na18 Ta3 In9 Si6 P12 O72'
_cell_volume   1621.49649625
_cell_formula_units_Z   3
loop_
 _symmetry_equiv_pos_site_id
 _symmetry_equiv_pos_as_xyz
  1  'x, y, z'
loop_
 _atom_site_type_symbol
 _atom_site_label
 _atom_site_symmetry_multiplicity
 _atom_site_fract_x
 _atom_site_fract_y
 _atom_site_fract_z
 _atom_site_occupancy
  Na  Na0  1  0.99498695  0.98534885  0.50314297  1
  Na  Na1  1  0.96754370  0.98595003  0.99356985  1
  Na  Na2  1  0.66188802  0.33624880  0.82723593  1
  Na  Na3  1  0.65948715  0.33717433  0.32702619  1
  Na  Na4  1  0.33499966  0.65255632  0.16122383  1
  Na  Na5  1  0.33200693  0.66354242  0.66527989  1
  Na  Na6  1  0.65076473  0.01249263  0.24402948  1
  Na  Na7  1  0.99795972  0.34682064  0.74457445  1
  Na  Na8  1  0.36005812  0.01053137  0.75086162  1
  Na  Na9  1  0.30063625  0.33231172  0.58942967  1
  Na  Na10  1  0.66540572  0.96638713  0.58373950  1
  Na  Na11  1  0.28883701  0.95454590  0.08275082  1
  Na  Na12  1  0.04144518  0.33934024  0.07957130  1
  Na  Na13  1  0.98830724  0.68540374  0.91549168  1
  Na  Na14  1  0.31616254  0.28886769  0.91240921  1
  Na  Na15  1  0.95902404  0.28768865  0.41549556  1
  Na  Na16  1  0.33438834  0.04022928  0.41049647  1
  Na  Na17  1  0.70487389  0.67778177  0.41823635  1
  Ta  Ta0  1  0.66649372  0.33255323  0.97775670  1
  Ta  Ta1  1  0.33104863  0.67087189  0.31235418  1
  Ta  Ta2  1  0.33963915  0.66537220  0.81876832  1
  In  In0  1  0.00172946  0.00027288  0.34547701  1
  In  In1  1  0.99687709  0.99902314  0.85031755  1
  In  In2  1  0.99747413  0.99443622  0.65280007  1
  In  In3  1  0.99810841  0.99309776  0.14904890  1
  In  In4  1  0.67026525  0.34325772  0.68240754  1
  In  In5  1  0.66121825  0.33803341  0.18605257  1
  In  In6  1  0.66703323  0.33421590  0.48217546  1
  In  In7  1  0.34313460  0.66974670  0.01566202  1
  In  In8  1  0.33186494  0.66925057  0.51749660  1
  Si  Si0  1  0.30072097  0.00142640  0.24995360  1
  Si  Si1  1  0.30249787  0.30474702  0.74991090  1
  Si  Si2  1  0.63218633  0.66784703  0.92064887  1
  Si  Si3  1  0.03641498  0.37112369  0.92010987  1
  Si  Si4  1  0.33644843  0.96134259  0.91994594  1
  Si  Si5  1  0.63211816  0.96334565  0.41771718  1
  P  P0  1  0.69587380  0.70139605  0.25387865  1
  P  P1  1  0.00415093  0.30398009  0.24927295  1
  P  P2  1  0.00837307  0.69861979  0.75289724  1
  P  P3  1  0.69469176  0.99399347  0.74737826  1
  P  P4  1  0.96740130  0.33067438  0.58280671  1
  P  P5  1  0.36459697  0.03367116  0.58293809  1
  P  P6  1  0.66853208  0.63585835  0.57912894  1
  P  P7  1  0.95617586  0.62523616  0.08249606  1
  P  P8  1  0.66856603  0.04351868  0.08549086  1
  P  P9  1  0.37082761  0.33219937  0.08256778  1
  P  P10  1  0.33174437  0.37544171  0.41740622  1
  P  P11  1  0.03973656  0.66641574  0.41627008  1
  O  O0  1  0.22042282  0.02175671  0.31190905  1
  O  O1  1  0.78719411  0.77447783  0.31353038  1
  O  O2  1  0.96901289  0.19152198  0.30530166  1
  O  O3  1  0.21669455  0.18516490  0.80769111  1
  O  O4  1  0.98164953  0.77088947  0.81077575  1
  O  O5  1  0.81805602  0.02584989  0.79817174  1
  O  O6  1  0.75932099  0.96392473  0.68737619  1
  O  O7  1  0.18016288  0.22996908  0.69070088  1
  O  O8  1  0.03854043  0.81387584  0.69870284  1
  O  O9  1  0.77645773  0.82932644  0.20226774  1
  O  O10  1  0.03274611  0.22600154  0.19245790  1
  O  O11  1  0.19105328  0.96958134  0.18957800  1
  O  O12  1  0.87988257  0.34260094  0.63997848  1
  O  O13  1  0.47537914  0.12261804  0.63808461  1
  O  O14  1  0.64632921  0.51799969  0.63092876  1
  O  O15  1  0.86994952  0.51856653  0.13754350  1
  O  O16  1  0.65488927  0.12143449  0.14449649  1
  O  O17  1  0.46779765  0.34411940  0.13895628  1
  O  O18  1  0.47460692  0.32586933  0.02671101  1
  O  O19  1  0.85048070  0.52625902  0.02540154  1
  O  O20  1  0.67819762  0.16495996  0.03282476  1
  O  O21  1  0.44524451  0.13789320  0.52470812  1
  O  O22  1  0.68664649  0.56241161  0.51852916  1
  O  O23  1  0.86601210  0.31684775  0.52529668  1
  O  O24  1  0.56330606  0.70445033  0.98037737  1
  O  O25  1  0.14400879  0.44700130  0.98025300  1
  O  O26  1  0.29433196  0.84998050  0.97967094  1
  O  O27  1  0.55753010  0.85459459  0.47857611  1
  O  O28  1  0.30502470  0.44421387  0.47672791  1
  O  O29  1  0.14315308  0.69202987  0.47261558  1
  O  O30  1  0.13994926  0.65139633  0.36183072  1
  O  O31  1  0.50268723  0.84988901  0.36158942  1
  O  O32  1  0.33933690  0.49237527  0.36544910  1
  O  O33  1  0.13936019  0.50474911  0.86330285  1
  O  O34  1  0.36216939  0.86333351  0.86176965  1
  O  O35  1  0.49957760  0.63768779  0.86430387  1
  O  O36  1  0.01601899  0.82136324  0.41145849  1
  O  O37  1  0.82247326  0.98946955  0.41109634  1
  O  O38  1  0.17860389  0.19435449  0.41185155  1
  O  O39  1  0.01313247  0.18689996  0.91090244  1
  O  O40  1  0.18033049  0.99528566  0.91165488  1
  O  O41  1  0.82586313  0.81022868  0.90942700  1
  O  O42  1  0.97674411  0.16448009  0.58342462  1
  O  O43  1  0.18943051  0.02188106  0.58694407  1
  O  O44  1  0.82364820  0.81658129  0.58487071  1
  O  O45  1  0.97141373  0.80189083  0.08124476  1
  O  O46  1  0.83735777  0.04120136  0.08211167  1
  O  O47  1  0.19646639  0.16332098  0.07958025  1
  O  O48  1  0.67074113  0.15094925  0.74516044  1
  O  O49  1  0.48837183  0.32127347  0.74505734  1
  O  O50  1  0.86434264  0.51202182  0.74631242  1
  O  O51  1  0.67402243  0.52585421  0.24658435  1
  O  O52  1  0.85075920  0.33017669  0.24573845  1
  O  O53  1  0.49851589  0.15290685  0.24858139  1
  O  O54  1  0.62911477  0.48253527  0.92390678  1
  O  O55  1  0.85409643  0.37121014  0.92362097  1
  O  O56  1  0.51211494  0.14901162  0.92574501  1
  O  O57  1  0.63690242  0.14579516  0.41592802  1
  O  O58  1  0.50109680  0.37283435  0.41529046  1
  O  O59  1  0.86539322  0.49991324  0.41572802  1
  O  O60  1  0.33962754  0.48330851  0.08147549  1
  O  O61  1  0.13525213  0.64426558  0.08066253  1
  O  O62  1  0.50512982  0.86990144  0.08137345  1
  O  O63  1  0.35287840  0.85869820  0.58152228  1
  O  O64  1  0.50362791  0.64812246  0.58145020  1
  O  O65  1  0.15057252  0.48430076  0.58185316  1
  O  O66  1  0.31906753  0.82558966  0.25786812  1
  O  O67  1  0.51267859  0.68037648  0.25922603  1
  O  O68  1  0.16830628  0.47975974  0.25932690  1
  O  O69  1  0.31471804  0.49177147  0.76007208  1
  O  O70  1  0.17794373  0.69171410  0.75717889  1
  O  O71  1  0.51409442  0.83700773  0.75834843  1
loop_
_geom_bond_atom_site_label_1
_geom_bond_atom_site_label_2
_geom_bond_distance
_geom_bond_site_symmetry_2
Na0 O44 2.400289 1_555
Na0 O43 2.494646 1_665
Na0 O42 2.496216 1_565
Na0 O36 2.609311 1_655
Na0 O37 2.613437 1_555
Na0 O38 2.726834 1_665
Na1 O41 2.396501 1_555
Na1 O46 2.492546 1_566
Na1 O39 2.496101 1_665
Na1 O45 2.603349 1_556
Na1 O40 2.642451 1_655
Na1 O47 2.708558 1_666
Na2 O49 2.393627 1_555
Na2 O50 2.510962 1_555
Na2 O48 2.531521 1_555
Na2 O54 2.643334 1_555
Na2 O55 2.705415 1_555
Na2 O56 2.708003 1_555
Na3 O53 2.370858 1_555
Na3 O51 2.456194 1_555
Na3 O52 2.546272 1_555
Na3 O58 2.566346 1_555
Na3 O57 2.594814 1_555
Na3 O59 2.630050 1_555
Na4 O60 2.380460 1_555
Na4 O62 2.543278 1_555
Na4 O61 2.545846 1_555
Na4 O67 2.672164 1_555
Na4 O68 2.690445 1_555
Na4 O66 2.731411 1_555
Na5 O65 2.494208 1_555
Na5 O64 2.495396 1_555
Na5 O63 2.534200 1_555
Na5 O70 2.579474 1_555
Na5 O69 2.603608 1_555
Na5 O71 2.647305 1_555
Na6 O53 2.321251 1_555
Na6 O16 2.440254 1_555
Na6 O52 2.539006 1_555
Na6 O9 2.632639 1_545
Na6 O66 2.642686 1_545
Na6 O67 2.661777 1_545
Na6 O2 2.872381 1_555
Na6 O31 2.995996 1_545
Na7 O50 2.372366 1_555
Na7 O69 2.528588 1_655
Na7 O12 2.578748 1_555
Na7 O48 2.599211 1_555
Na7 O7 2.674166 1_655
Na7 O70 2.742839 1_655
Na7 O5 2.813386 1_555
Na7 O33 2.999362 1_655
Na8 O48 2.459615 1_555
Na8 O49 2.474231 1_555
Na8 O70 2.532786 1_545
Na8 O71 2.602587 1_545
Na8 O13 2.734709 1_555
Na8 O8 2.816097 1_545
Na8 O3 2.826003 1_555
Na8 O34 2.836723 1_545
Na9 O65 2.399447 1_555
Na9 O43 2.489912 1_555
Na9 O7 2.492695 1_555
Na9 O64 2.535673 1_555
Na9 O42 2.561072 1_455
Na9 O28 2.723203 1_555
Na9 O14 2.887694 1_555
Na10 O44 2.440969 1_555
Na10 O6 2.485977 1_555
Na10 O42 2.487302 1_565
Na10 O63 2.508291 1_555
Na10 O64 2.517453 1_555
Na10 O27 2.566399 1_555
Na11 O47 2.446367 1_565
Na11 O61 2.454318 1_555
Na11 O62 2.457476 1_555
Na11 O45 2.506734 1_455
Na11 O26 2.513744 1_554
Na11 O11 2.585110 1_555
Na12 O60 2.354865 1_555
Na12 O46 2.409221 1_455
Na12 O25 2.426231 1_554
Na12 O61 2.472490 1_555
Na12 O47 2.624671 1_555
Na12 O10 2.725191 1_555
Na13 O41 2.286353 1_555
Na13 O40 2.473906 1_655
Na13 O4 2.489013 1_555
Na13 O55 2.500969 1_555
Na13 O26 2.817465 1_655
Na13 O19 2.818301 1_556
Na13 O54 2.848806 1_555
Na13 O33 2.879000 1_655
Na14 O40 2.324339 1_545
Na14 O39 2.435906 1_555
Na14 O54 2.506892 1_555
Na14 O3 2.528625 1_555
Na14 O56 2.689534 1_555
Na14 O18 2.884229 1_556
Na14 O35 2.962760 1_555
Na14 O25 3.025993 1_555
Na15 O37 2.363733 1_545
Na15 O59 2.483837 1_555
Na15 O38 2.544979 1_655
Na15 O57 2.549192 1_555
Na15 O2 2.642070 1_555
Na15 O23 2.662320 1_555
Na16 O0 2.417731 1_555
Na16 O57 2.428541 1_555
Na16 O38 2.455443 1_555
Na16 O36 2.570704 1_545
Na16 O58 2.632534 1_555
Na16 O21 2.738414 1_555
Na17 O58 2.455675 1_555
Na17 O22 2.457300 1_555
Na17 O36 2.463175 1_655
Na17 O1 2.490258 1_555
Na17 O37 2.496086 1_555
Na17 O59 2.682759 1_555
Na17 O27 2.904934 1_555
In0 O0 2.047787 1_555
In0 O2 2.119770 1_455
In0 O1 2.134198 1_445
In0 O37 2.164806 1_445
In0 O38 2.259679 1_555
In0 O36 2.260592 1_545
In1 O3 2.098041 1_665
In1 O41 2.113102 1_555
In1 O5 2.123708 1_565
In1 O39 2.137155 1_665
In1 O40 2.184731 1_655
In1 O4 2.206615 1_555
In2 O7 2.130643 1_665
In2 O8 2.135128 1_655
In2 O6 2.189116 1_555
In2 O43 2.206385 1_665
In2 O44 2.214527 1_555
In2 O42 2.276754 1_565
In3 O11 2.089936 1_655
In3 O9 2.170656 1_555
In3 O10 2.215930 1_665
In3 O45 2.237377 1_555
In3 O46 2.295318 1_565
In3 O47 2.300749 1_665
In4 O14 2.072382 1_555
In4 O49 2.105184 1_555
In4 O12 2.138846 1_555
In4 O13 2.150628 1_555
In4 O50 2.200197 1_555
In4 O48 2.256575 1_555
In5 O17 2.085400 1_555
In5 O15 2.091647 1_555
In5 O53 2.123871 1_555
In5 O51 2.146716 1_555
In5 O16 2.163914 1_555
In5 O52 2.221093 1_555
In6 O23 2.136153 1_555
In6 O21 2.139113 1_555
In6 O22 2.162977 1_555
In6 O57 2.186460 1_555
In6 O59 2.243867 1_555
In6 O58 2.286102 1_555
In7 O24 2.030242 1_554
In7 O26 2.076759 1_554
In7 O25 2.090356 1_554
In7 O62 2.236221 1_555
In7 O60 2.245586 1_555
In7 O61 2.308828 1_555
In8 O27 2.089466 1_555
In8 O29 2.097204 1_555
In8 O28 2.151045 1_555
In8 O63 2.184088 1_555
In8 O65 2.206313 1_555
In8 O64 2.208067 1_555
O0 Si0 1.624632 1_555
O1 P0 1.542630 1_555
O2 P1 1.553162 1_655
O3 Si1 1.621571 1_555
O4 P2 1.531332 1_655
O5 P3 1.526504 1_545
O6 P3 1.548556 1_555
O7 Si1 1.649455 1_555
O8 P2 1.541686 1_555
O9 P0 1.544780 1_555
O10 P1 1.545580 1_555
O11 Si0 1.624212 1_565
O12 P4 1.543110 1_555
O13 P5 1.547723 1_555
O14 P6 1.528888 1_555
O15 P7 1.524713 1_555
O16 P8 1.538272 1_555
O17 P9 1.518919 1_555
O18 P9 1.588689 1_555
O18 Ta0 2.041007 1_554
O19 P7 1.587528 1_555
O19 Ta0 2.029643 1_554
O20 P8 1.594921 1_555
O20 Ta0 2.014784 1_554
O21 P5 1.566001 1_555
O22 P6 1.561913 1_555
O23 P4 1.558324 1_555
O24 Si2 1.585400 1_555
O25 Si3 1.609328 1_555
O26 Si4 1.609347 1_555
O27 Si5 1.624036 1_555
O28 P10 1.543073 1_555
O29 P11 1.526465 1_555
O30 P11 1.572067 1_555
O30 Ta1 1.997434 1_555
O31 Si5 1.683472 1_555
O31 Ta1 1.945575 1_555
O32 P10 1.561153 1_555
O32 Ta1 2.054570 1_555
O33 Si3 1.687131 1_555
O33 Ta2 1.948220 1_555
O34 Si4 1.665502 1_555
O34 Ta2 1.969227 1_555
O35 Si2 1.677473 1_555
O35 Ta2 1.903166 1_555
O36 P11 1.541723 1_555
O37 Si5 1.637667 1_555
O38 P10 1.544906 1_555
O39 Si3 1.602383 1_555
O40 Si4 1.615535 1_555
O41 Si2 1.603185 1_555
O42 P4 1.565087 1_555
O43 P5 1.550559 1_555
O44 P6 1.549928 1_555
O45 P7 1.551066 1_555
O46 P8 1.553804 1_555
O47 P9 1.566367 1_555
O48 P3 1.558188 1_545
O49 Si1 1.629992 1_555
O50 P2 1.552026 1_655
O51 P0 1.524168 1_555
O52 P1 1.537488 1_655
O53 Si0 1.633045 1_555
O54 Si2 1.682993 1_555
O54 Ta0 1.984079 1_555
O55 Si3 1.666964 1_655
O55 Ta0 1.979692 1_555
O56 Si4 1.664115 1_545
O56 Ta0 1.948143 1_555
O57 Si5 1.648078 1_545
O58 P10 1.559224 1_555
O59 P11 1.554579 1_655
O60 P9 1.545590 1_555
O61 P7 1.555505 1_455
O62 P8 1.541311 1_565
O63 P5 1.549963 1_565
O64 P6 1.566021 1_555
O65 P4 1.552320 1_455
O66 Si0 1.708446 1_565
O66 Ta1 1.916022 1_555
O67 P0 1.589216 1_555
O67 Ta1 2.006841 1_555
O68 P1 1.568832 1_555
O68 Ta1 2.018799 1_555
O69 Si1 1.673130 1_555
O69 Ta2 1.986380 1_555
O70 P2 1.584325 1_555
O70 Ta2 2.125729 1_555
O71 P3 1.568496 1_555
O71 Ta2 2.078921 1_555
