# generated using pymatgen
data_BaReH9
_symmetry_space_group_name_H-M   'P 1'
_cell_length_a   5.22523196
_cell_length_b   5.22524386
_cell_length_c   9.69046833
_cell_angle_alpha   90.00004243
_cell_angle_beta   89.99985552
_cell_angle_gamma   119.99981592
_symmetry_Int_Tables_number   1
_chemical_formula_structural   BaReH9
_chemical_formula_sum   'Ba2 Re2 H18'
_cell_volume   229.13336979
_cell_formula_units_Z   2
loop_
 _symmetry_equiv_pos_site_id
 _symmetry_equiv_pos_as_xyz
  1  'x, y, z'
loop_
 _atom_site_type_symbol
 _atom_site_label
 _atom_site_symmetry_multiplicity
 _atom_site_fract_x
 _atom_site_fract_y
 _atom_site_fract_z
 _atom_site_occupancy
  Ba  Ba0  1  0.00000171  -0.00000606  -0.00000126  1
  Ba  Ba1  1  0.00000123  -0.00000361  0.49999910  1
  Re  Re0  1  0.33330543  0.66662783  0.24999473  1
  Re  Re1  1  0.66669262  0.33336998  0.74999854  1
  H  H0  1  0.46676337  0.53318940  0.37363993  1
  H  H1  1  0.46675792  0.93352938  0.37363847  1
  H  H2  1  0.06640825  0.53318734  0.37364140  1
  H  H3  1  0.93358847  0.46681132  0.87363932  1
  H  H4  1  0.14970365  0.29942209  0.25000004  1
  H  H5  1  0.85029119  0.14976300  0.75000064  1
  H  H6  1  0.29948489  0.14976139  0.75000042  1
  H  H7  1  0.70051490  0.85023621  0.25000005  1
  H  H8  1  0.14970125  0.85024170  0.25000061  1
  H  H9  1  0.85030268  0.70058702  0.75000089  1
  H  H10  1  0.46675672  0.93352593  0.12636287  1
  H  H11  1  0.53323662  0.46681108  0.62636033  1
  H  H12  1  0.93358912  0.46681069  0.62636078  1
  H  H13  1  0.06641071  0.53318847  0.12636045  1
  H  H14  1  0.46676239  0.53319073  0.12636092  1
  H  H15  1  0.53324462  0.06647247  0.87363768  1
  H  H16  1  0.53323826  0.46681177  0.87364052  1
  H  H17  1  0.53324400  0.06647187  0.62636258  1
loop_
_geom_bond_atom_site_label_1
_geom_bond_atom_site_label_2
_geom_bond_distance
_geom_bond_site_symmetry_2
Ba0 H9 2.775728 1_444
Ba0 H4 2.775804 1_555
Ba0 H8 2.775860 1_545
Ba0 H5 2.775890 1_454
Ba0 H6 2.775896 1_554
Ba0 H7 2.775929 1_445
Ba0 H16 2.900819 1_444
Ba0 H3 2.900831 1_444
Ba0 H14 2.900871 1_555
Ba0 H13 2.900904 1_555
Ba0 H10 2.900933 1_545
Ba0 H15 2.900960 1_454
Ba0 H15 2.900990 1_554
Ba0 H13 2.900997 1_545
Ba0 H10 2.901032 1_445
Ba0 H3 2.901056 1_454
Ba0 H14 2.901066 1_445
Ba0 H16 2.901069 1_554
Ba1 H9 2.775766 1_445
Ba1 H4 2.775779 1_555
Ba1 H8 2.775834 1_545
Ba1 H5 2.775908 1_455
Ba1 H7 2.775915 1_445
Ba1 H6 2.775928 1_555
Ba1 H11 2.900839 1_445
Ba1 H0 2.900847 1_555
Ba1 H12 2.900857 1_445
Ba1 H2 2.900875 1_555
Ba1 H1 2.900918 1_545
Ba1 H17 2.900956 1_455
Ba1 H2 2.900990 1_545
Ba1 H17 2.901010 1_555
Ba1 H1 2.901017 1_445
Ba1 H12 2.901045 1_455
Ba1 H0 2.901061 1_445
Ba1 H11 2.901077 1_555
H0 Re0 1.701268 1_555
H1 Re0 1.701277 1_555
H2 Re0 1.701279 1_555
H3 Re1 1.701238 1_555
H4 Re0 1.661680 1_555
H5 Re1 1.661673 1_555
H6 Re1 1.661685 1_555
H7 Re0 1.661693 1_555
H8 Re0 1.661729 1_555
H9 Re1 1.661731 1_555
H10 Re0 1.701184 1_555
H11 Re1 1.701223 1_555
H12 Re1 1.701216 1_555
H13 Re0 1.701190 1_555
H14 Re0 1.701180 1_555
H15 Re1 1.701232 1_555
H16 Re1 1.701242 1_555
H17 Re1 1.701213 1_555
