# generated using pymatgen
data_Li4Cu(PO4)2
_symmetry_space_group_name_H-M   'P 1'
_cell_length_a   5.24729200
_cell_length_b   6.38317086
_cell_length_c   9.94556536
_cell_angle_alpha   90.43582648
_cell_angle_beta   90.30012893
_cell_angle_gamma   90.45566595
_symmetry_Int_Tables_number   1
_chemical_formula_structural   Li4Cu(PO4)2
_chemical_formula_sum   'Li8 Cu2 P4 O16'
_cell_volume   333.09551216
_cell_formula_units_Z   2
loop_
 _symmetry_equiv_pos_site_id
 _symmetry_equiv_pos_as_xyz
  1  'x, y, z'
loop_
 _atom_site_type_symbol
 _atom_site_label
 _atom_site_symmetry_multiplicity
 _atom_site_fract_x
 _atom_site_fract_y
 _atom_site_fract_z
 _atom_site_occupancy
  Li  Li0  1  0.31795600  0.76298300  0.50875400  1
  Li  Li1  1  0.67148700  0.24649400  0.74852300  1
  Li  Li2  1  0.32599100  0.24328700  0.99610400  1
  Li  Li3  1  0.67047600  0.24256900  0.24964900  1
  Li  Li4  1  0.32318700  0.24094200  0.50277200  1
  Li  Li5  1  0.84307200  0.49024100  0.99565400  1
  Li  Li6  1  0.68407800  0.75337700  0.74597400  1
  Li  Li7  1  0.84218500  0.49718500  0.50867600  1
  Cu  Cu0  1  0.32166700  0.76736800  0.99049900  1
  Cu  Cu1  1  0.67743700  0.74747900  0.26039000  1
  P  P0  1  0.82268900  0.00176600  0.50002900  1
  P  P1  1  0.18475700  0.49371400  0.24922100  1
  P  P2  1  0.18059300  0.49714900  0.75083500  1
  P  P3  1  0.81974400  0.00470500  0.99012900  1
  O  O0  1  0.10444300  0.00082400  0.03411300  1
  O  O1  1  0.32134700  0.70456500  0.80120700  1
  O  O2  1  0.10640100  0.00257900  0.53376300  1
  O  O3  1  0.18308500  0.49634100  0.09135300  1
  O  O4  1  0.31647200  0.69806900  0.30360500  1
  O  O5  1  0.89763500  0.49603400  0.29824100  1
  O  O6  1  0.69229800  0.20067500  0.05299000  1
  O  O7  1  0.32166400  0.30263300  0.30333400  1
  O  O8  1  0.69191600  0.79346500  0.04890700  1
  O  O9  1  0.78636800  0.00007600  0.83869100  1
  O  O10  1  0.78724000  0.00250100  0.34168200  1
  O  O11  1  0.18826300  0.50279700  0.59440100  1
  O  O12  1  0.32497200  0.30920200  0.80664200  1
  O  O13  1  0.69004400  0.20407600  0.55186600  1
  O  O14  1  0.89773400  0.50082100  0.79885700  1
  O  O15  1  0.68886000  0.79756000  0.55053000  1
loop_
_geom_bond_atom_site_label_1
_geom_bond_atom_site_label_2
_geom_bond_distance
_geom_bond_site_symmetry_2
Li0 O2 1.912403 1_565
Li0 O11 1.989126 1_555
Li0 O15 1.998124 1_555
Li0 O4 2.078844 1_555
Li1 O9 1.916394 1_555
Li1 O12 1.954352 1_555
Li1 O13 1.975490 1_555
Li1 O14 2.060639 1_555
Li2 O12 1.933820 1_555
Li2 O0 1.968395 1_556
Li2 O3 2.017987 1_556
Li2 O6 2.021851 1_556
Li3 O10 1.895214 1_555
Li3 O7 1.949468 1_555
Li3 O6 1.976104 1_555
Li3 O5 2.055085 1_555
Li4 O2 1.920228 1_555
Li4 O13 1.999634 1_555
Li4 O7 2.025157 1_555
Li4 O11 2.031728 1_555
Li5 O14 1.981230 1_555
Li5 O3 2.017703 1_656
Li5 O6 2.089257 1_556
Li5 O8 2.160813 1_556
Li6 O9 1.891411 1_565
Li6 O15 1.966538 1_555
Li6 O1 2.006420 1_555
Li6 O14 2.041540 1_555
Li7 O11 2.002053 1_655
Li7 O13 2.077116 1_555
Li7 O5 2.114498 1_555
Li7 O15 2.124306 1_555
Cu0 O1 1.921829 1_555
Cu0 O0 1.931427 1_566
Cu0 O8 2.030084 1_556
Cu0 O3 2.131167 1_556
Cu1 O10 1.896235 1_565
Cu1 O4 1.967958 1_555
Cu1 O5 2.021626 1_555
Cu1 O8 2.127580 1_555
O0 P3 1.554868 1_454
O1 P2 1.587406 1_555
O2 P0 1.524301 1_455
O3 P1 1.570283 1_555
O4 P1 1.562943 1_555
O5 P1 1.586105 1_655
O6 P3 1.551981 1_554
O7 P1 1.520946 1_555
O8 P3 1.616009 1_564
O9 P3 1.515411 1_555
O10 P0 1.584876 1_555
O11 P2 1.557240 1_555
O12 P2 1.530187 1_555
O13 P0 1.557508 1_555
O14 P2 1.561873 1_655
O15 P0 1.563191 1_565
