# generated using pymatgen
data_Na14Ca4Zr4Si7S5O48
_symmetry_space_group_name_H-M   'P 1'
_cell_length_a   18.80128937
_cell_length_b   9.39938172
_cell_length_c   22.76727128
_cell_angle_alpha   89.92573344
_cell_angle_beta   89.94381857
_cell_angle_gamma   119.95750954
_symmetry_Int_Tables_number   1
_chemical_formula_structural   Na14Ca4Zr4Si7S5O48
_chemical_formula_sum   'Na42 Ca12 Zr12 Si21 S15 O144'
_cell_volume   3485.88610191
_cell_formula_units_Z   3
loop_
 _symmetry_equiv_pos_site_id
 _symmetry_equiv_pos_as_xyz
  1  'x, y, z'
loop_
 _atom_site_type_symbol
 _atom_site_label
 _atom_site_symmetry_multiplicity
 _atom_site_fract_x
 _atom_site_fract_y
 _atom_site_fract_z
 _atom_site_occupancy
  Na  Na0  1  0.80429016  0.98030520  0.26042492  1
  Na  Na1  1  0.18400108  0.34598888  0.25885448  1
  Na  Na2  1  0.69537701  0.36453959  0.25477818  1
  Na  Na3  1  0.99003380  0.64633919  0.23995161  1
  Na  Na4  1  0.49752857  0.64737343  0.25019362  1
  Na  Na5  1  0.30491861  0.62730716  0.73981491  1
  Na  Na6  1  0.99735969  0.34586337  0.74159628  1
  Na  Na7  1  0.49572433  0.34189525  0.73286043  1
  Na  Na8  1  0.19283805  0.02156602  0.74669457  1
  Na  Na9  1  0.68641367  0.02202963  0.75061855  1
  Na  Na10  1  0.14663044  0.32646434  0.58922073  1
  Na  Na11  1  0.66291730  0.33465915  0.57716042  1
  Na  Na12  1  0.34320278  0.00548509  0.57476316  1
  Na  Na13  1  0.83785747  0.99084972  0.57653655  1
  Na  Na14  1  0.16052809  0.99304656  0.08659455  1
  Na  Na15  1  0.64733739  0.96407367  0.09756491  1
  Na  Na16  1  0.33649527  0.68274532  0.09045435  1
  Na  Na17  1  0.84072994  0.68381986  0.08351788  1
  Na  Na18  1  0.48366253  0.68089031  0.93132795  1
  Na  Na19  1  0.96775209  0.66623746  0.92802564  1
  Na  Na20  1  0.35662041  0.04594593  0.91491098  1
  Na  Na21  1  0.84634141  0.02931990  0.90483969  1
  Na  Na22  1  0.16771538  0.28220536  0.91433032  1
  Na  Na23  1  0.67480052  0.28300979  0.90437585  1
  Na  Na24  1  0.47013533  0.27332773  0.43004037  1
  Na  Na25  1  0.97312133  0.26919213  0.43134117  1
  Na  Na26  1  0.17099311  0.06625075  0.40397286  1
  Na  Na27  1  0.67840494  0.04200085  0.41111193  1
  Na  Na28  1  0.34938675  0.66626669  0.40492144  1
  Na  Na29  1  0.85152500  0.68185771  0.41963680  1
  Na  Na30  1  0.99122444  0.99535945  0.49688316  1
  Na  Na31  1  0.50311747  0.00069718  0.50039862  1
  Na  Na32  1  0.99716036  0.99759917  0.00348145  1
  Na  Na33  1  0.50039862  0.00065798  0.00492796  1
  Na  Na34  1  0.32489311  0.31843501  0.81770704  1
  Na  Na35  1  0.81712643  0.33266520  0.82916375  1
  Na  Na36  1  0.31903123  0.30421972  0.33338136  1
  Na  Na37  1  0.82197110  0.30505194  0.32811482  1
  Na  Na38  1  0.16823753  0.67756864  0.17130256  1
  Na  Na39  1  0.66098609  0.66180288  0.17535783  1
  Na  Na40  1  0.15866245  0.65643243  0.67198390  1
  Na  Na41  1  0.66768266  0.65732477  0.66293699  1
  Ca  Ca0  1  0.99968616  0.99863189  0.35132425  1
  Ca  Ca1  1  0.49672187  0.99323756  0.34805312  1
  Ca  Ca2  1  0.99623301  0.00024532  0.84741112  1
  Ca  Ca3  1  0.50437866  0.00930816  0.84781062  1
  Ca  Ca4  1  0.33938051  0.33492411  0.67759751  1
  Ca  Ca5  1  0.83790531  0.33894845  0.17994010  1
  Ca  Ca6  1  0.33504554  0.32971838  0.99442106  1
  Ca  Ca7  1  0.83093979  0.33335689  0.98285073  1
  Ca  Ca8  1  0.33094739  0.32934406  0.48339897  1
  Ca  Ca9  1  0.83341057  0.33422123  0.49001967  1
  Ca  Ca10  1  0.66923948  0.67592739  0.31414760  1
  Ca  Ca11  1  0.16700864  0.66222565  0.81112022  1
  Zr  Zr0  1  0.99188014  0.00135739  0.65322720  1
  Zr  Zr1  1  0.50480613  0.01900214  0.65268329  1
  Zr  Zr2  1  0.00365460  0.99083694  0.15265850  1
  Zr  Zr3  1  0.49246954  0.98413027  0.15320956  1
  Zr  Zr4  1  0.83123539  0.33607126  0.67673473  1
  Zr  Zr5  1  0.33050258  0.32635091  0.17647253  1
  Zr  Zr6  1  0.16784369  0.66757894  0.02681734  1
  Zr  Zr7  1  0.66419484  0.66993033  0.01701496  1
  Zr  Zr8  1  0.16424772  0.65923698  0.51690290  1
  Zr  Zr9  1  0.67353893  0.68155483  0.52304518  1
  Zr  Zr10  1  0.17937948  0.67874679  0.31311480  1
  Zr  Zr11  1  0.67917045  0.68175329  0.81174716  1
  Si  Si0  1  0.15519413  -0.00028296  0.25272625  1
  Si  Si1  1  0.65060613  0.00354376  0.25146431  1
  Si  Si2  1  0.34695268  0.67967451  0.25274911  1
  Si  Si3  1  0.84718477  0.69370067  0.25159033  1
  Si  Si4  1  0.15159196  0.29594702  0.75332954  1
  Si  Si5  1  0.65644093  0.31360372  0.75329281  1
  Si  Si6  1  0.34783345  0.99773250  0.75440823  1
  Si  Si7  1  0.84785914  0.01666521  0.75432351  1
  Si  Si8  1  0.48935692  0.33121187  0.58184702  1
  Si  Si9  1  0.98908911  0.34009819  0.58538814  1
  Si  Si10  1  0.67803904  0.02870572  0.58236659  1
  Si  Si11  1  0.83955579  0.64552101  0.57459643  1
  Si  Si12  1  0.48818004  0.64027655  0.08243975  1
  Si  Si13  1  0.98625096  0.64776021  0.08184591  1
  Si  Si14  1  0.34043292  0.03440656  0.07343914  1
  Si  Si15  1  0.17794592  0.32612837  0.07923929  1
  Si  Si16  1  0.81506311  0.66791227  0.92049326  1
  Si  Si17  1  0.66395988  0.96023986  0.91492744  1
  Si  Si18  1  0.31555607  0.96381688  0.42135580  1
  Si  Si19  1  0.81717634  0.97469967  0.41456198  1
  Si  Si20  1  0.16656121  0.37153909  0.41547301  1
  S  S0  1  0.00359444  0.30098666  0.25166902  1
  S  S1  1  0.49466476  0.29397446  0.24937698  1
  S  S2  1  0.99553580  0.69572425  0.75051501  1
  S  S3  1  0.50109630  0.70202219  0.75389058  1
  S  S4  1  0.17554950  0.02121075  0.58428257  1
  S  S5  1  0.33154574  0.64838657  0.58300386  1
  S  S6  1  0.83172969  0.01631957  0.08049841  1
  S  S7  1  0.67510360  0.32911339  0.08221288  1
  S  S8  1  0.31386221  0.66176096  0.91852256  1
  S  S9  1  0.02299201  0.37550949  0.91911264  1
  S  S10  1  0.52147767  0.38153010  0.91403944  1
  S  S11  1  0.16794308  0.96145124  0.91662406  1
  S  S12  1  0.66478752  0.36909642  0.41638612  1
  S  S13  1  0.02368601  0.66466645  0.41345776  1
  S  S14  1  0.52053671  0.66748119  0.41861481  1
  O  O0  1  0.12521460  0.04932634  0.31168347  1
  O  O1  1  0.61476699  0.03544038  0.31210936  1
  O  O2  1  0.39720998  0.75311856  0.31264424  1
  O  O3  1  0.89846853  0.77992148  0.31065862  1
  O  O4  1  0.48496652  0.21187215  0.30617233  1
  O  O5  1  0.99862651  0.22116803  0.30783740  1
  O  O6  1  0.11852036  0.20188500  0.81625061  1
  O  O7  1  0.62639784  0.20751624  0.81345858  1
  O  O8  1  0.49447440  0.76857789  0.81094904  1
  O  O9  1  0.98841434  0.75977334  0.80797781  1
  O  O10  1  0.39149155  0.00727463  0.81725846  1
  O  O11  1  0.89624926  0.03986595  0.81497305  1
  O  O12  1  0.40680669  0.98760221  0.70054040  1
  O  O13  1  0.90178169  0.00114992  0.69948064  1
  O  O14  1  0.09219035  0.16785657  0.69984671  1
  O  O15  1  0.59023021  0.20392981  0.70023000  1
  O  O16  1  -0.00254144  0.80316121  0.70191999  1
  O  O17  1  0.51013597  0.81669845  0.70553955  1
  O  O18  1  0.39874461  0.80052082  0.19631907  1
  O  O19  1  0.90345332  0.81429925  0.19384458  1
  O  O20  1  0.01192718  0.20533107  0.20225040  1
  O  O21  1  0.49587188  0.18988011  0.20030100  1
  O  O22  1  0.09080244  0.97617415  0.19770137  1
  O  O23  1  0.59376761  0.01411614  0.19515925  1
  O  O24  1  0.45502676  0.35935171  0.64305808  1
  O  O25  1  0.93952250  0.35383676  0.64275241  1
  O  O26  1  0.22833628  0.09848091  0.63651609  1
  O  O27  1  0.74529198  0.13112445  0.63579489  1
  O  O28  1  0.32085033  0.54901661  0.63660235  1
  O  O29  1  0.82469031  0.50297152  0.62396184  1
  O  O30  1  0.43408592  0.52074755  0.13710936  1
  O  O31  1  0.95275938  0.54940876  0.14251336  1
  O  O32  1  0.32222151  0.14471383  0.12127839  1
  O  O33  1  0.82035257  0.09662638  0.13291661  1
  O  O34  1  0.24633341  0.35939901  0.13152225  1
  O  O35  1  0.72818776  0.35458179  0.13386717  1
  O  O36  1  0.20794103  0.28198867  0.01886049  1
  O  O37  1  0.71132940  0.30098018  0.02892907  1
  O  O38  1  0.43794005  0.57966615  0.02148072  1
  O  O39  1  0.92718725  0.56763146  0.02524844  1
  O  O40  1  0.35307514  0.11266704  0.00890178  1
  O  O41  1  0.83719480  0.10409326  0.02633682  1
  O  O42  1  0.21287756  0.12535167  0.53190715  1
  O  O43  1  0.70640718  0.13927341  0.52352154  1
  O  O44  1  0.33695804  0.56783596  0.53006378  1
  O  O45  1  0.85196655  0.59019838  0.51069167  1
  O  O46  1  0.42517206  0.28523595  0.52756371  1
  O  O47  1  0.93637854  0.29805978  0.52597508  1
  O  O48  1  0.26542919  0.66450575  0.97064956  1
  O  O49  1  0.76063578  0.66122630  0.97951622  1
  O  O50  1  0.07765522  0.48461791  0.96738559  1
  O  O51  1  0.56920155  0.47640886  0.96705482  1
  O  O52  1  0.17243626  0.86666856  0.96815722  1
  O  O53  1  0.66350613  0.84818275  0.97316155  1
  O  O54  1  0.26201968  0.86292591  0.48095763  1
  O  O55  1  0.75877986  0.85748690  0.47151379  1
  O  O56  1  0.16740115  0.48245432  0.47422447  1
  O  O57  1  0.66733818  0.47043099  0.46783733  1
  O  O58  1  0.07156997  0.66148095  0.46618331  1
  O  O59  1  0.57327194  0.66487994  0.46708161  1
  O  O60  1  0.06795347  0.66161527  0.35955988  1
  O  O61  1  0.55261122  0.65019858  0.36132840  1
  O  O62  1  0.26027412  0.84810802  0.36450369  1
  O  O63  1  0.76750912  0.89205009  0.35447973  1
  O  O64  1  0.16385770  0.47603275  0.35738621  1
  O  O65  1  0.66190990  0.44849288  0.36092740  1
  O  O66  1  0.05647848  0.45749424  0.86222914  1
  O  O67  1  0.56655211  0.46960671  0.86030257  1
  O  O68  1  0.16760211  0.87817241  0.86157681  1
  O  O69  1  0.66113234  0.84946578  0.85741949  1
  O  O70  1  0.26946858  0.65518425  0.86423932  1
  O  O71  1  0.75986612  0.67337188  0.86364950  1
  O  O72  1  0.02143033  0.81885955  0.41734781  1
  O  O73  1  0.51966697  0.82474046  0.42260756  1
  O  O74  1  0.40478896  0.97432785  0.42353970  1
  O  O75  1  0.90444922  0.97700704  0.42220718  1
  O  O76  1  0.08597087  0.19192424  0.42298520  1
  O  O77  1  0.58863247  0.20539565  0.42266317  1
  O  O78  1  0.02147881  0.21615980  0.92376312  1
  O  O79  1  0.51401113  0.21721153  0.91805740  1
  O  O80  1  0.09088522  0.96891213  0.92280869  1
  O  O81  1  0.58159100  0.97571961  0.92239179  1
  O  O82  1  0.39600189  0.81289016  0.92178813  1
  O  O83  1  0.90458933  0.83554616  0.92282849  1
  O  O84  1  0.49854157  0.16000707  0.58716630  1
  O  O85  1  0.00471202  0.18038554  0.59534939  1
  O  O86  1  0.09264548  0.00114063  0.59195464  1
  O  O87  1  0.58609950  -0.00766234  0.60028118  1
  O  O88  1  0.40386797  0.81694058  0.58789394  1
  O  O89  1  0.91377626  0.83205345  0.59173582  1
  O  O90  1  0.50246786  0.82937621  0.09310802  1
  O  O91  1  0.99903124  0.83828529  0.08609502  1
  O  O92  1  0.41465449  -0.00288861  0.09001725  1
  O  O93  1  0.90412828  -0.00706722  0.08613216  1
  O  O94  1  0.08705160  0.17568842  0.09645947  1
  O  O95  1  0.59168977  0.18350909  0.08954298  1
  O  O96  1  0.34106503  0.16414040  0.74672721  1
  O  O97  1  0.83718578  0.17875988  0.74475015  1
  O  O98  1  0.24680041  0.33914068  0.74380722  1
  O  O99  1  0.74695094  0.33786682  0.73776371  1
  O  O100  1  0.42619418  0.53995521  0.74565345  1
  O  O101  1  0.92517249  0.52625848  0.74346052  1
  O  O102  1  0.33588781  0.49580703  0.24264276  1
  O  O103  1  0.83907873  0.51179622  0.24689335  1
  O  O104  1  0.42468373  0.32475114  0.24129739  1
  O  O105  1  0.92867602  0.31371875  0.24425043  1
  O  O106  1  0.24601687  0.15516909  0.23610068  1
  O  O107  1  0.74616628  0.14956877  0.24389281  1
  O  O108  1  0.32275448  0.51314772  0.92017432  1
  O  O109  1  0.82030620  0.50053824  0.91367012  1
  O  O110  1  0.43989359  0.37025856  0.91414438  1
  O  O111  1  0.93951628  0.35076915  0.92585169  1
  O  O112  1  0.24148223  0.12952413  0.91576192  1
  O  O113  1  0.74970347  0.13482732  0.91293235  1
  O  O114  1  0.32034773  0.14103498  0.41454857  1
  O  O115  1  0.82770712  0.15876563  0.41786336  1
  O  O116  1  0.25297474  0.37060326  0.41270112  1
  O  O117  1  0.73936082  0.35284680  0.41527423  1
  O  O118  1  0.43602866  0.52665629  0.42501870  1
  O  O119  1  0.94143745  0.51800375  0.41403554  1
  O  O120  1  0.17677049  0.50239074  0.07744707  1
  O  O121  1  0.66753461  0.47977528  0.07710921  1
  O  O122  1  0.08326624  0.68854566  0.07219944  1
  O  O123  1  0.58282737  0.66661209  0.08197865  1
  O  O124  1  0.25525041  0.84756761  0.07703950  1
  O  O125  1  0.75599707  0.84473095  0.07974889  1
  O  O126  1  0.16811540  0.85589236  0.57811229  1
  O  O127  1  0.67674451  0.85101741  0.58027861  1
  O  O128  1  0.25566133  0.66740427  0.58151142  1
  O  O129  1  0.75386976  0.65829885  0.57829019  1
  O  O130  1  0.08434113  0.50213533  0.58306406  1
  O  O131  1  0.58425430  0.48035795  0.57096532  1
  O  O132  1  0.15256943  0.82079207  0.25466461  1
  O  O133  1  0.64101637  0.82084066  0.24466716  1
  O  O134  1  0.25305570  0.65656064  0.25088218  1
  O  O135  1  0.75633145  0.67629907  0.24453215  1
  O  O136  1  0.07786599  0.46986682  0.24922911  1
  O  O137  1  0.57260251  0.45379043  0.24661899  1
  O  O138  1  0.14542774  0.46408925  0.74538982  1
  O  O139  1  0.65307706  0.48641761  0.75429847  1
  O  O140  1  0.07348620  0.69002663  0.74698469  1
  O  O141  1  0.57499472  0.68080444  0.75163756  1
  O  O142  1  0.25674913  0.83382481  0.74499665  1
  O  O143  1  0.75359800  0.85274972  0.75141515  1
loop_
_geom_bond_atom_site_label_1
_geom_bond_atom_site_label_2
_geom_bond_distance
_geom_bond_site_symmetry_2
Na0 O63 2.274072 1_555
Na0 O107 2.367008 1_565
Na0 O135 2.557183 1_555
Na0 O133 2.684591 1_555
Na0 O105 2.846354 1_565
Na1 O102 2.500898 1_555
Na1 O134 2.540317 1_555
Na1 O106 2.633372 1_555
Na1 O64 2.671645 1_555
Na1 O0 2.711897 1_555
Na1 O136 2.776044 1_555
Na2 O103 2.347603 1_555
Na2 O135 2.568753 1_555
Na2 O107 2.642704 1_555
Na2 O65 2.712387 1_555
Na2 O137 2.828605 1_555
Na2 O35 2.832365 1_555
Na2 O1 2.978741 1_555
Na3 O31 2.369205 1_555
Na3 O103 2.468475 1_555
Na3 O132 2.671774 1_655
Na3 O105 2.740782 1_555
Na3 O22 2.872077 1_655
Na3 O136 2.873744 1_655
Na4 O133 2.357541 1_555
Na4 O104 2.639473 1_555
Na4 O102 2.640582 1_555
Na4 O61 2.730048 1_555
Na4 O137 2.806219 1_555
Na4 O30 2.839744 1_555
Na4 O2 2.904762 1_555
Na5 O98 2.362625 1_555
Na5 O142 2.521557 1_555
Na5 O28 2.525148 1_555
Na5 O138 2.601122 1_555
Na5 O100 2.785830 1_555
Na5 O70 2.951323 1_555
Na6 O138 2.429689 1_655
Na6 O25 2.517571 1_555
Na6 O97 2.610838 1_555
Na6 O101 2.649020 1_555
Na6 O140 2.811686 1_655
Na6 O66 2.954362 1_655
Na6 O13 2.973766 1_555
Na6 O11 3.032793 1_555
Na7 O24 2.218150 1_555
Na7 O96 2.547791 1_555
Na7 O139 2.612811 1_555
Na7 O100 2.773200 1_555
Na7 O15 2.773415 1_555
Na7 O141 2.795506 1_555
Na8 O96 2.415074 1_555
Na8 O142 2.584017 1_545
Na8 O26 2.602041 1_555
Na8 O98 2.630341 1_555
Na8 O140 2.786153 1_545
Na8 O68 2.869251 1_545
Na9 O97 2.460033 1_555
Na9 O143 2.476850 1_545
Na9 O99 2.610879 1_555
Na9 O27 2.822193 1_555
Na9 O141 2.822275 1_545
Na9 O69 2.826099 1_545
Na9 O7 2.885796 1_555
Na10 O85 2.316059 1_555
Na10 O130 2.459393 1_555
Na10 O86 2.698920 1_555
Na10 O128 2.817739 1_555
Na10 O14 2.841660 1_555
Na10 O56 2.928001 1_555
Na11 O131 2.470916 1_555
Na11 O129 2.642677 1_555
Na11 O43 2.652595 1_555
Na11 O84 2.688612 1_555
Na11 O57 2.777770 1_555
Na11 O87 2.840601 1_555
Na11 O29 2.845043 1_555
Na12 O46 2.527113 1_555
Na12 O84 2.546611 1_555
Na12 O88 2.559110 1_545
Na12 O54 2.580238 1_545
Na12 O128 2.757787 1_545
Na12 O126 2.862834 1_545
Na13 O89 2.551925 1_555
Na13 O127 2.633134 1_555
Na13 O129 2.708430 1_555
Na13 O85 2.760718 1_665
Na13 O55 2.766316 1_555
Na13 O47 2.782035 1_565
Na13 O27 2.979792 1_565
Na13 O13 3.029834 1_565
Na14 O122 2.502076 1_555
Na14 O91 2.631446 1_455
Na14 O94 2.697202 1_565
Na14 O124 2.742419 1_555
Na14 O32 2.752649 1_565
Na14 O22 2.815562 1_555
Na14 O36 2.849091 1_565
Na14 O52 3.000831 1_554
Na15 O90 2.364069 1_555
Na15 O123 2.455806 1_555
Na15 O23 2.577636 1_565
Na15 O95 2.745305 1_565
Na15 O125 2.807977 1_555
Na15 O33 2.956622 1_565
Na16 O92 2.560073 1_565
Na16 O120 2.626491 1_555
Na16 O18 2.668905 1_555
Na16 O124 2.681375 1_555
Na16 O90 2.710355 1_555
Na16 O34 2.798034 1_555
Na16 O38 2.980956 1_555
Na16 O48 3.005692 1_554
Na17 O93 2.531382 1_565
Na17 O91 2.579632 1_555
Na17 O125 2.690569 1_555
Na17 O39 2.714293 1_555
Na17 O49 2.758315 1_554
Na17 O19 2.788101 1_555
Na17 O121 2.840338 1_555
Na17 O35 2.968906 1_555
Na18 O38 2.243156 1_556
Na18 O81 2.452145 1_555
Na18 O82 2.518956 1_555
Na18 O108 2.634671 1_555
Na18 O110 2.638019 1_555
Na18 O8 2.838626 1_555
Na19 O39 2.371850 1_556
Na19 O83 2.417439 1_555
Na19 O109 2.430750 1_555
Na19 O80 2.624535 1_655
Na19 O111 2.739533 1_555
Na19 O9 2.836306 1_555
Na20 O40 2.240965 1_556
Na20 O10 2.396285 1_555
Na20 O79 2.568335 1_555
Na20 O110 2.641446 1_555
Na20 O82 2.643973 1_545
Na20 O112 2.646130 1_555
Na21 O11 2.231434 1_555
Na21 O113 2.473452 1_555
Na21 O83 2.583679 1_545
Na21 O111 2.673186 1_555
Na21 O41 2.880968 1_556
Na21 O78 2.888215 1_655
Na22 O6 2.392241 1_555
Na22 O112 2.443748 1_555
Na22 O36 2.498161 1_556
Na22 O78 2.506945 1_555
Na22 O80 2.558359 1_545
Na22 O108 2.628440 1_555
Na23 O7 2.231346 1_555
Na23 O113 2.433090 1_555
Na23 O109 2.474930 1_555
Na23 O81 2.553856 1_545
Na23 O79 2.783658 1_555
Na23 O37 2.903587 1_556
Na24 O46 2.397613 1_555
Na24 O74 2.445974 1_545
Na24 O114 2.471300 1_555
Na24 O77 2.611460 1_555
Na24 O118 2.760152 1_555
Na24 O4 2.920300 1_555
Na25 O47 2.319214 1_555
Na25 O75 2.390274 1_545
Na25 O115 2.411330 1_555
Na25 O76 2.569800 1_655
Na25 O119 2.714576 1_555
Na25 O5 2.925235 1_555
Na26 O0 2.246936 1_555
Na26 O76 2.454348 1_555
Na26 O116 2.489450 1_555
Na26 O114 2.543171 1_555
Na26 O72 2.621677 1_545
Na27 O115 2.456067 1_555
Na27 O1 2.539275 1_555
Na27 O117 2.552615 1_555
Na27 O73 2.656334 1_545
Na27 O43 2.681587 1_555
Na27 O77 2.804589 1_555
Na27 O63 2.968867 1_545
Na28 O2 2.268797 1_555
Na28 O116 2.450988 1_555
Na28 O74 2.576990 1_555
Na28 O118 2.592244 1_555
Na28 O73 2.805682 1_555
Na28 O44 2.967183 1_555
Na29 O45 2.245549 1_555
Na29 O75 2.435867 1_555
Na29 O3 2.638544 1_555
Na29 O117 2.740185 1_555
Na29 O72 2.785070 1_655
Na29 O119 2.801110 1_555
Na30 O75 2.303737 1_555
Na30 O76 2.473165 1_665
Na30 O89 2.625460 1_555
Na30 O72 2.701942 1_655
Na30 O85 2.772247 1_665
Na30 O86 2.868636 1_665
Na31 O74 2.467999 1_545
Na31 O84 2.507609 1_555
Na31 O77 2.513028 1_555
Na31 O73 2.547424 1_545
Na31 O88 2.682978 1_545
Na31 O87 2.782184 1_555
Na32 O91 2.413869 1_555
Na32 O83 2.467182 1_554
Na32 O93 2.553229 1_565
Na32 O78 2.602707 1_664
Na32 O80 2.649681 1_654
Na32 O94 2.707441 1_665
Na33 O81 2.503837 1_544
Na33 O92 2.508576 1_555
Na33 O90 2.584239 1_545
Na33 O95 2.584574 1_555
Na33 O82 2.665828 1_544
Na33 O79 2.754750 1_554
Na34 O96 2.291890 1_555
Na34 O98 2.305166 1_555
Na34 O100 2.584262 1_555
Na34 O112 2.792468 1_555
Na34 O110 2.948415 1_555
Na34 O108 2.979593 1_555
Na35 O109 2.471625 1_555
Na35 O99 2.478506 1_555
Na35 O113 2.516753 1_555
Na35 O97 2.545421 1_555
Na35 O101 2.745244 1_555
Na36 O114 2.408083 1_555
Na36 O116 2.442433 1_555
Na36 O106 2.616468 1_555
Na36 O102 2.651459 1_555
Na36 O104 2.826003 1_555
Na36 O118 2.998321 1_555
Na37 O107 2.403400 1_555
Na37 O115 2.493732 1_555
Na37 O103 2.581576 1_555
Na37 O117 2.691669 1_555
Na37 O105 2.739702 1_555
Na37 O119 2.899455 1_555
Na38 O132 2.429562 1_555
Na38 O134 2.486748 1_555
Na38 O136 2.553089 1_555
Na38 O124 2.684939 1_555
Na38 O120 2.752315 1_555
Na38 O122 2.797300 1_555
Na39 O133 2.330469 1_555
Na39 O135 2.339772 1_555
Na39 O137 2.440906 1_555
Na39 O123 2.598745 1_555
Na39 O125 2.792989 1_555
Na39 O121 2.857582 1_555
Na40 O138 2.380252 1_555
Na40 O142 2.426221 1_555
Na40 O140 2.465988 1_555
Na40 O130 2.478622 1_555
Na40 O128 2.717279 1_555
Na40 O126 2.787504 1_555
Na41 O129 2.513741 1_555
Na41 O139 2.555830 1_555
Na41 O127 2.562392 1_555
Na41 O131 2.649816 1_555
Na41 O143 2.663427 1_555
Na41 O141 2.746299 1_555
Ca0 O3 2.192271 1_555
Ca0 O5 2.322102 1_565
Ca0 O75 2.341338 1_555
Ca0 O0 2.341625 1_665
Ca0 O76 2.379866 1_665
Ca0 O72 2.442633 1_655
Ca1 O1 2.206606 1_565
Ca1 O2 2.243812 1_555
Ca1 O4 2.372788 1_565
Ca1 O74 2.378946 1_555
Ca1 O73 2.500484 1_555
Ca1 O77 2.534014 1_565
Ca2 O11 2.217886 1_555
Ca2 O6 2.241183 1_655
Ca2 O9 2.368590 1_545
Ca2 O83 2.374226 1_545
Ca2 O78 2.532687 1_655
Ca2 O80 2.593931 1_645
Ca3 O10 2.225153 1_555
Ca3 O7 2.251606 1_555
Ca3 O8 2.333088 1_545
Ca3 O81 2.356160 1_545
Ca3 O79 2.462645 1_555
Ca3 O82 2.573968 1_545
Ca4 O24 2.212749 1_555
Ca4 O96 2.258171 1_555
Ca4 O98 2.316798 1_555
Ca4 O26 2.355425 1_555
Ca4 O100 2.376987 1_555
Ca4 O28 2.395405 1_555
Ca5 O103 2.221334 1_555
Ca5 O31 2.242355 1_555
Ca5 O107 2.277197 1_555
Ca5 O105 2.349623 1_555
Ca5 O35 2.384061 1_555
Ca5 O33 2.387303 1_555
Ca6 O40 2.252768 1_556
Ca6 O38 2.260195 1_556
Ca6 O36 2.268853 1_556
Ca6 O108 2.504907 1_555
Ca6 O112 2.559585 1_555
Ca6 O110 2.571476 1_555
Ca7 O39 2.254905 1_556
Ca7 O109 2.301744 1_555
Ca7 O113 2.348395 1_555
Ca7 O111 2.353434 1_555
Ca7 O37 2.358277 1_556
Ca7 O41 2.426025 1_556
Ca8 O46 2.248831 1_555
Ca8 O114 2.298971 1_555
Ca8 O118 2.332076 1_555
Ca8 O116 2.336904 1_555
Ca8 O42 2.358543 1_555
Ca8 O44 2.433115 1_555
Ca9 O47 2.278822 1_555
Ca9 O115 2.293649 1_555
Ca9 O43 2.294373 1_555
Ca9 O45 2.301547 1_555
Ca9 O117 2.523416 1_555
Ca9 O119 2.565792 1_555
Ca10 O63 2.154810 1_555
Ca10 O135 2.276508 1_555
Ca10 O133 2.314545 1_555
Ca10 O65 2.328704 1_555
Ca10 O61 2.342146 1_555
Ca10 O137 2.499893 1_555
Ca11 O142 2.232828 1_555
Ca11 O138 2.264127 1_555
Ca11 O70 2.304258 1_555
Ca11 O66 2.317591 1_555
Ca11 O68 2.328771 1_555
Ca11 O140 2.398988 1_555
O0 Si0 1.612304 1_555
O1 Si1 1.628288 1_555
O2 Si2 1.606998 1_555
O3 Si3 1.618636 1_555
O4 S1 1.468757 1_555
O5 S0 1.460896 1_655
O6 Si4 1.632914 1_555
O7 Si5 1.619314 1_555
O8 S3 1.474449 1_555
O9 S2 1.474494 1_555
O10 Si6 1.630482 1_545
O11 Si7 1.608434 1_555
O12 Si6 1.686901 1_555
O12 Zr1 2.030093 1_565
O13 Si7 1.659455 1_555
O13 Zr0 1.992905 1_555
O14 Si4 1.686152 1_555
O14 Zr0 2.047712 1_455
O15 Si5 1.672238 1_555
O15 Zr1 1.998214 1_555
O16 S2 1.485166 1_455
O16 Zr0 2.213704 1_465
O17 S3 1.488667 1_555
O17 Zr1 2.293168 1_565
O18 Si2 1.666776 1_555
O18 Zr3 2.000476 1_555
O19 Si3 1.711242 1_555
O19 Zr2 2.013028 1_655
O20 S0 1.497263 1_555
O20 Zr2 2.248728 1_545
O21 S1 1.493722 1_555
O21 Zr3 2.185313 1_545
O22 Si0 1.679343 1_565
O22 Zr2 1.995937 1_555
O23 Si1 1.703988 1_555
O23 Zr3 2.021641 1_545
O24 Si8 1.611957 1_555
O25 Si9 1.645931 1_555
O25 Zr4 2.104413 1_555
O26 S4 1.487068 1_555
O27 Si10 1.672003 1_555
O27 Zr4 2.022263 1_555
O28 S5 1.486916 1_555
O29 Si11 1.660738 1_555
O29 Zr4 2.026805 1_555
O30 Si12 1.642729 1_555
O30 Zr5 2.091177 1_555
O31 Si13 1.603909 1_555
O32 Si14 1.653864 1_555
O32 Zr5 2.063637 1_555
O33 S6 1.484207 1_555
O34 Si15 1.664425 1_555
O34 Zr5 2.035041 1_555
O35 S7 1.483533 1_555
O36 Si15 1.616629 1_555
O37 S7 1.478030 1_555
O38 Si12 1.615597 1_555
O39 Si13 1.621989 1_555
O40 Si14 1.605757 1_555
O41 S6 1.457473 1_555
O42 S4 1.477117 1_555
O43 Si10 1.612717 1_555
O44 S5 1.454447 1_555
O45 Si11 1.601300 1_555
O46 Si8 1.629081 1_555
O47 Si9 1.606524 1_555
O48 S8 1.503249 1_555
O48 Zr6 2.247399 1_556
O49 Si16 1.670250 1_555
O49 Zr7 2.041719 1_556
O50 S9 1.506118 1_555
O50 Zr6 2.182154 1_556
O51 S10 1.504342 1_555
O51 Zr7 2.134739 1_556
O52 S11 1.500016 1_555
O52 Zr6 2.263814 1_556
O53 Si17 1.689574 1_555
O53 Zr7 1.954877 1_556
O54 Si18 1.671676 1_555
O54 Zr8 2.047553 1_555
O55 Si19 1.698811 1_555
O55 Zr9 2.005983 1_555
O56 Si20 1.692201 1_555
O56 Zr8 1.952229 1_555
O57 S12 1.496360 1_555
O57 Zr9 2.303725 1_555
O58 S13 1.510414 1_555
O58 Zr8 2.100153 1_555
O59 S14 1.492499 1_555
O59 Zr9 2.216285 1_555
O60 S13 1.490383 1_555
O60 Zr10 2.278424 1_555
O61 S14 1.479180 1_555
O62 Si18 1.678054 1_555
O62 Zr10 1.951019 1_555
O63 Si19 1.620936 1_555
O64 Si20 1.662175 1_555
O64 Zr10 2.042233 1_555
O65 S12 1.480588 1_555
O66 S9 1.476051 1_555
O67 S10 1.481559 1_555
O67 Zr11 2.335495 1_555
O68 S11 1.476826 1_555
O69 Si17 1.658190 1_555
O69 Zr11 2.053966 1_555
O70 S8 1.475997 1_555
O71 Si16 1.676351 1_555
O71 Zr11 1.956285 1_555
O72 S13 1.473731 1_555
O73 S14 1.489266 1_555
O74 Si18 1.631419 1_555
O75 Si19 1.639561 1_555
O76 Si20 1.618426 1_555
O77 S12 1.495599 1_555
O78 S9 1.487419 1_555
O79 S10 1.482094 1_555
O80 S11 1.491584 1_555
O81 Si17 1.634909 1_555
O82 S8 1.489272 1_555
O83 Si16 1.634121 1_555
O84 Si8 1.706205 1_555
O84 Zr1 2.036313 1_555
O85 Si9 1.682541 1_455
O85 Zr0 2.052907 1_455
O86 S4 1.483700 1_555
O86 Zr0 2.352431 1_455
O87 Si10 1.636864 1_555
O87 Zr1 2.049886 1_555
O88 S5 1.490168 1_555
O88 Zr1 2.407816 1_565
O89 Si11 1.653155 1_555
O89 Zr0 2.079595 1_565
O90 Si12 1.677728 1_555
O90 Zr3 2.073956 1_555
O91 Si13 1.686673 1_555
O91 Zr2 2.059528 1_655
O92 Si14 1.643746 1_555
O92 Zr3 2.099329 1_545
O93 S6 1.488861 1_555
O93 Zr2 2.416246 1_645
O94 Si15 1.630190 1_555
O94 Zr2 2.093798 1_545
O95 S7 1.488531 1_555
O95 Zr3 2.364164 1_545
O96 Si6 1.640550 1_545
O97 Si7 1.647324 1_555
O97 Zr4 2.180919 1_555
O98 Si4 1.639902 1_555
O99 Si5 1.638241 1_555
O99 Zr4 2.112932 1_555
O100 S3 1.482452 1_555
O101 S2 1.486507 1_555
O101 Zr4 2.341347 1_555
O102 Si2 1.650785 1_555
O102 Zr5 2.159226 1_555
O103 Si3 1.642652 1_555
O104 S1 1.493031 1_555
O104 Zr5 2.312055 1_555
O105 S0 1.481777 1_655
O106 Si0 1.643031 1_555
O106 Zr5 2.095857 1_555
O107 Si1 1.636313 1_555
O108 S8 1.487862 1_555
O109 Si16 1.632278 1_555
O110 S10 1.483822 1_555
O111 S9 1.475037 1_655
O112 S11 1.492039 1_545
O113 Si17 1.628320 1_545
O114 Si18 1.629803 1_545
O115 Si19 1.642065 1_545
O116 Si20 1.630257 1_555
O117 S12 1.484451 1_555
O118 S14 1.482044 1_555
O119 S13 1.470625 1_655
O120 Si15 1.668350 1_555
O120 Zr6 2.005906 1_555
O121 S7 1.496678 1_555
O121 Zr7 2.275163 1_555
O122 Si13 1.680138 1_455
O122 Zr6 1.986279 1_555
O123 Si12 1.669733 1_555
O123 Zr7 2.115814 1_555
O124 Si14 1.687066 1_565
O124 Zr6 2.025397 1_555
O125 S6 1.528242 1_565
O125 Zr7 2.212980 1_555
O126 S4 1.495842 1_565
O126 Zr8 2.288381 1_555
O127 Si10 1.658885 1_565
O127 Zr9 2.036757 1_555
O128 S5 1.524282 1_555
O128 Zr8 2.235398 1_555
O129 Si11 1.676259 1_555
O129 Zr9 2.059999 1_555
O130 Si9 1.674873 1_455
O130 Zr8 2.116773 1_555
O131 Si8 1.646273 1_555
O131 Zr9 2.098845 1_555
O132 Si0 1.658221 1_565
O132 Zr10 2.115753 1_555
O133 Si1 1.642278 1_565
O134 Si2 1.668146 1_555
O134 Zr10 2.062817 1_555
O135 Si3 1.640718 1_555
O136 S0 1.502872 1_555
O136 Zr10 2.425581 1_555
O137 S1 1.486230 1_555
O138 Si4 1.651092 1_555
O139 Si5 1.657018 1_555
O139 Zr11 2.104836 1_555
O140 S2 1.495120 1_455
O141 S3 1.499806 1_555
O141 Zr11 2.386852 1_555
O142 Si6 1.648864 1_555
O143 Si7 1.671070 1_565
O143 Zr11 2.042667 1_555
