# generated using pymatgen
data_Nb2Co4O9
_symmetry_space_group_name_H-M   'P 1'
_cell_length_a   5.12398163
_cell_length_b   5.11253278
_cell_length_c   14.19652479
_cell_angle_alpha   89.99934236
_cell_angle_beta   90.86098500
_cell_angle_gamma   60.38098844
_symmetry_Int_Tables_number   1
_chemical_formula_structural   Nb2Co4O9
_chemical_formula_sum   'Nb4 Co8 O18'
_cell_volume   323.25551027
_cell_formula_units_Z   2
loop_
 _symmetry_equiv_pos_site_id
 _symmetry_equiv_pos_as_xyz
  1  'x, y, z'
loop_
 _atom_site_type_symbol
 _atom_site_label
 _atom_site_symmetry_multiplicity
 _atom_site_fract_x
 _atom_site_fract_y
 _atom_site_fract_z
 _atom_site_occupancy
  Nb  Nb0  1  0.00085082  -0.00270452  0.64200900  1
  Nb  Nb1  1  0.00306597  0.00288814  0.85829066  1
  Nb  Nb2  1  -0.01780254  0.00606495  0.35792595  1
  Nb  Nb3  1  0.01459381  0.00153757  0.14399273  1
  Co  Co0  1  0.32603460  0.33457069  0.51003925  1
  Co  Co1  1  0.67921121  0.66703047  0.98712050  1
  Co  Co2  1  0.34047831  0.33064918  0.80847815  1
  Co  Co3  1  0.66247594  0.66870064  0.18198160  1
  Co  Co4  1  0.65516122  0.67009018  0.48862107  1
  Co  Co5  1  0.34600550  0.32870651  0.01252131  1
  Co  Co6  1  0.66618821  0.66605513  0.69133749  1
  Co  Co7  1  0.32484023  0.34283018  0.30619473  1
  O  O0  1  0.69751619  0.30588425  0.24905613  1
  O  O1  1  0.97977654  0.70746198  0.24849141  1
  O  O2  1  0.28456116  0.00199670  0.25247971  1
  O  O3  1  0.29597122  0.70541345  0.75072977  1
  O  O4  1  0.00233044  0.29418833  0.75012323  1
  O  O5  1  0.70896578  0.99759295  0.75045198  1
  O  O6  1  0.34589196  0.98035872  0.58406742  1
  O  O7  1  0.66917350  0.34617462  0.58406795  1
  O  O8  1  0.97864072  0.67237319  0.58263167  1
  O  O9  1  0.33642204  0.01767570  0.91672369  1
  O  O10  1  0.03291195  0.65077942  0.91808919  1
  O  O11  1  0.66365506  0.32420647  0.91881096  1
  O  O12  1  0.64097177  0.02207902  0.41684936  1
  O  O13  1  0.31577852  0.65662824  0.41611316  1
  O  O14  1  0.00993345  0.32794542  0.41752012  1
  O  O15  1  0.67728890  0.97234280  0.08797687  1
  O  O16  1  0.99743448  0.33613377  0.07980777  1
  O  O17  1  0.36167103  0.66434888  0.08749619  1
loop_
_geom_bond_atom_site_label_1
_geom_bond_atom_site_label_2
_geom_bond_distance
_geom_bond_site_symmetry_2
Nb0 O8 1.914952 1_445
Nb0 O6 1.924129 1_545
Nb0 O7 1.925606 1_455
Nb0 O3 2.143613 1_545
Nb0 O4 2.161211 1_555
Nb0 O5 2.161923 1_445
Nb1 O11 1.918944 1_455
Nb1 O9 1.922646 1_555
Nb1 O10 1.925776 1_545
Nb1 O4 2.137819 1_555
Nb1 O5 2.141594 1_445
Nb1 O3 2.170235 1_545
Nb2 O12 1.914662 1_455
Nb2 O14 1.916152 1_555
Nb2 O13 1.932541 1_545
Nb2 O0 2.142016 1_455
Nb2 O2 2.163227 1_555
Nb2 O1 2.182327 1_445
Nb3 O16 1.900836 1_455
Nb3 O17 1.946878 1_545
Nb3 O15 1.963552 1_445
Nb3 O2 2.055421 1_555
Nb3 O1 2.183142 1_445
Nb3 O0 2.204417 1_455
Co0 O6 2.051554 1_545
Co0 O8 2.056620 1_455
Co0 O7 2.060822 1_555
Co0 O14 2.083269 1_555
Co0 O13 2.098608 1_555
Co0 O12 2.103001 1_555
Co1 O9 2.032827 1_565
Co1 O11 2.038271 1_555
Co1 O10 2.038746 1_655
Co1 O16 2.112092 1_556
Co1 O15 2.114692 1_556
Co1 O17 2.184000 1_556
Co2 O3 1.989371 1_555
Co2 O4 1.999824 1_555
Co2 O5 2.002961 1_545
Co2 O9 2.226200 1_555
Co2 O11 2.250516 1_555
Co2 O10 2.260085 1_555
Co3 O1 1.961251 1_555
Co3 O0 2.011290 1_555
Co3 O17 2.036463 1_555
Co3 O15 2.077525 1_555
Co3 O2 2.109904 1_565
Co3 O16 2.265168 1_555
Co4 O12 2.037219 1_565
Co4 O13 2.037871 1_555
Co4 O14 2.072504 1_655
Co4 O6 2.107928 1_555
Co4 O7 2.112616 1_555
Co4 O8 2.116912 1_555
Co5 O16 2.021930 1_455
Co5 O17 2.053674 1_555
Co5 O15 2.058314 1_545
Co5 O10 2.099154 1_554
Co5 O11 2.108941 1_554
Co5 O9 2.110880 1_554
Co6 O5 1.996772 1_555
Co6 O4 1.999392 1_655
Co6 O3 2.005176 1_555
Co6 O6 2.216475 1_555
Co6 O7 2.229323 1_555
Co6 O8 2.251937 1_555
Co7 O1 1.992699 1_455
Co7 O2 2.002817 1_555
Co7 O0 2.007538 1_555
Co7 O13 2.222517 1_555
Co7 O12 2.253574 1_555
Co7 O14 2.303302 1_555
