# generated using pymatgen
data_RbMgMn4O8
_symmetry_space_group_name_H-M   'P 1'
_cell_length_a   7.53949299
_cell_length_b   7.65812974
_cell_length_c   7.53949299
_cell_angle_alpha   92.22374476
_cell_angle_beta   156.09404159
_cell_angle_gamma   92.61687805
_symmetry_Int_Tables_number   1
_chemical_formula_structural   RbMgMn4O8
_chemical_formula_sum   'Rb1 Mg1 Mn4 O8'
_cell_volume   172.69983767
_cell_formula_units_Z   1
loop_
 _symmetry_equiv_pos_site_id
 _symmetry_equiv_pos_as_xyz
  1  'x, y, z'
loop_
 _atom_site_type_symbol
 _atom_site_label
 _atom_site_symmetry_multiplicity
 _atom_site_fract_x
 _atom_site_fract_y
 _atom_site_fract_z
 _atom_site_occupancy
  Rb  Rb0  1  0.50000000  0.00000000  0.50000000  1
  Mg  Mg0  1  0.00000000  0.50000000  0.50000000  1
  Mn  Mn0  1  0.81391200  0.16096600  0.34705400  1
  Mn  Mn1  1  0.33748000  0.50471700  0.16723500  1
  Mn  Mn2  1  0.66252000  0.49528300  0.83276500  1
  Mn  Mn3  1  0.18608800  0.83903400  0.65294600  1
  O  O0  1  0.81522800  0.35144100  0.53621300  1
  O  O1  1  0.80654800  0.97029700  0.16374700  1
  O  O2  1  0.52566200  0.65917200  0.13350800  1
  O  O3  1  0.15720400  0.36908600  0.21188200  1
  O  O4  1  0.84279600  0.63091400  0.78811800  1
  O  O5  1  0.47433800  0.34082800  0.86649200  1
  O  O6  1  0.19345200  0.02970300  0.83625300  1
  O  O7  1  0.18477200  0.64855900  0.46378700  1
loop_
_geom_bond_atom_site_label_1
_geom_bond_atom_site_label_2
_geom_bond_distance
_geom_bond_site_symmetry_2
Mg0 O7 1.970885 1_555
Mg0 O0 1.970885 1_455
Mg0 O2 2.121773 1_556
Mg0 O5 2.121773 1_454
Mg0 O2 2.121778 1_455
Mg0 O5 2.121778 1_555
Mn0 O1 1.934142 1_545
Mn0 O0 1.993278 1_555
Mn0 O6 2.013770 1_554
Mn0 O6 2.013775 1_655
Mn0 O5 2.308256 1_554
Mn0 O5 2.308261 1_655
Mn1 O3 1.942763 1_555
Mn1 O2 2.001624 1_555
Mn1 O4 2.016388 1_454
Mn1 O4 2.016393 1_555
Mn1 O0 2.099778 1_454
Mn1 O0 2.099783 1_555
Mn2 O4 1.942763 1_555
Mn2 O5 2.001624 1_555
Mn2 O3 2.016388 1_656
Mn2 O3 2.016393 1_555
Mn2 O7 2.099778 1_656
Mn2 O7 2.099783 1_555
Mn3 O6 1.934142 1_565
Mn3 O7 1.993278 1_555
Mn3 O1 2.013770 1_556
Mn3 O1 2.013775 1_455
Mn3 O2 2.308256 1_556
Mn3 O2 2.308261 1_455
O0 Rb0 3.337516 1_555
O1 Rb0 3.070071 1_564
O1 Rb0 3.070074 1_665
O3 Rb0 3.204046 1_555
O3 Rb0 3.204046 1_454
O4 Rb0 3.204046 1_666
O4 Rb0 3.204046 1_565
O6 Rb0 3.070071 1_556
O6 Rb0 3.070074 1_455
O7 Rb0 3.337516 1_565
