# generated using pymatgen
data_MgTe4Mo3WS4
_symmetry_space_group_name_H-M   'P 1'
_cell_length_a   3.36566461
_cell_length_b   3.36585871
_cell_length_c   43.29631544
_cell_angle_alpha   90.00418055
_cell_angle_beta   90.10072666
_cell_angle_gamma   120.00233599
_symmetry_Int_Tables_number   1
_chemical_formula_structural   MgTe4Mo3WS4
_chemical_formula_sum   'Mg1 Te4 Mo3 W1 S4'
_cell_volume   424.75366151
_cell_formula_units_Z   1
loop_
 _symmetry_equiv_pos_site_id
 _symmetry_equiv_pos_as_xyz
  1  'x, y, z'
loop_
 _atom_site_type_symbol
 _atom_site_label
 _atom_site_symmetry_multiplicity
 _atom_site_fract_x
 _atom_site_fract_y
 _atom_site_fract_z
 _atom_site_occupancy
  Mg  Mg0  1  0.33110900  0.66552200  0.37463800  1
  Te  Te0  1  0.33452000  0.66729700  0.70125500  1
  Te  Te1  1  0.66516600  0.33258700  0.05022100  1
  Te  Te2  1  0.66814000  0.33415100  0.13743000  1
  Te  Te3  1  0.33159300  0.66572800  0.61407700  1
  Mo  Mo0  1  0.33328900  0.66666800  0.09383100  1
  Mo  Mo1  1  0.66617700  0.33312000  0.27812400  1
  Mo  Mo2  1  0.66642900  0.33321400  0.65767600  1
  W  W0  1  0.33082600  0.66535800  0.47691000  1
  S  S0  1  0.33385300  0.66700800  0.31290500  1
  S  S1  1  0.66309700  0.33146800  0.44182100  1
  S  S2  1  0.66529600  0.33263200  0.51168800  1
  S  S3  1  0.33193700  0.66596100  0.24359100  1
loop_
_geom_bond_atom_site_label_1
_geom_bond_atom_site_label_2
_geom_bond_distance
_geom_bond_site_symmetry_2
Mg0 S0 2.672840 1_555
Mo0 Te2 2.708697 1_455
Mo0 Te2 2.709302 1_555
Mo0 Te1 2.709321 1_555
Mo0 Te2 2.709363 1_565
Mo0 Te1 2.709402 1_565
Mo0 Te1 2.709634 1_455
Mo1 S3 2.451676 1_555
Mo1 S3 2.451696 1_545
Mo1 S3 2.452134 1_655
Mo1 S0 2.458194 1_655
Mo1 S0 2.458455 1_545
Mo1 S0 2.458545 1_555
Mo2 Te0 2.708456 1_555
Mo2 Te0 2.708461 1_545
Mo2 Te0 2.708634 1_655
Mo2 Te3 2.708728 1_655
Mo2 Te3 2.709265 1_555
Mo2 Te3 2.709369 1_545
S1 W0 2.466486 1_655
S1 W0 2.466628 1_555
S1 W0 2.466653 1_545
S2 W0 2.458104 1_655
S2 W0 2.458416 1_555
S2 W0 2.458436 1_545
