# generated using pymatgen
data_MgSc2Mn4O10
_symmetry_space_group_name_H-M   'P 1'
_cell_length_a   5.53062970
_cell_length_b   5.52985171
_cell_length_c   10.05822105
_cell_angle_alpha   90.95960619
_cell_angle_beta   90.95180885
_cell_angle_gamma   41.88440738
_symmetry_Int_Tables_number   1
_chemical_formula_structural   MgSc2Mn4O10
_chemical_formula_sum   'Mg1 Sc2 Mn4 O10'
_cell_volume   205.34105506
_cell_formula_units_Z   1
loop_
 _symmetry_equiv_pos_site_id
 _symmetry_equiv_pos_as_xyz
  1  'x, y, z'
loop_
 _atom_site_type_symbol
 _atom_site_label
 _atom_site_symmetry_multiplicity
 _atom_site_fract_x
 _atom_site_fract_y
 _atom_site_fract_z
 _atom_site_occupancy
  Mg  Mg0  1  0.50454300  0.50409900  0.75375800  1
  Sc  Sc0  1  0.20456500  0.20488600  0.25144800  1
  Sc  Sc1  1  0.79443100  0.79409900  0.74989700  1
  Mn  Mn0  1  0.13971400  0.13943900  0.55372700  1
  Mn  Mn1  1  0.14383700  0.14376900  0.94624100  1
  Mn  Mn2  1  0.87254100  0.87294300  0.06690200  1
  Mn  Mn3  1  0.87199400  0.87266200  0.43699600  1
  O  O0  1  0.06201200  0.06201500  0.11368800  1
  O  O1  1  0.05623500  0.05570600  0.38301400  1
  O  O2  1  0.29995600  0.30008500  0.45532200  1
  O  O3  1  0.30115900  0.30153400  0.05197700  1
  O  O4  1  0.78482000  0.78531300  0.26232000  1
  O  O5  1  0.95279400  0.95322500  0.61444000  1
  O  O6  1  0.64634200  0.64594100  0.60088900  1
  O  O7  1  0.25656800  0.25622100  0.74628000  1
  O  O8  1  0.96658700  0.96628700  0.86177600  1
  O  O9  1  0.65440100  0.65428000  0.90132800  1
loop_
_geom_bond_atom_site_label_1
_geom_bond_atom_site_label_2
_geom_bond_distance
_geom_bond_site_symmetry_2
Mg0 O9 2.126609 1_555
Mg0 O6 2.142619 1_555
Mg0 O8 2.292433 1_545
Mg0 O8 2.292716 1_455
Mg0 O5 2.473231 1_545
Mg0 O5 2.476591 1_455
Mg0 O7 2.560803 1_555
Mn0 O1 1.908200 1_555
Mn0 O2 1.945534 1_555
Mn0 O5 2.032014 1_445
Mn0 O6 2.033282 1_455
Mn0 O6 2.033966 1_545
Mn0 O7 2.263546 1_555
Mn1 O0 1.897690 1_556
Mn1 O3 1.928127 1_556
Mn1 O8 2.005739 1_445
Mn1 O9 2.030926 1_455
Mn1 O9 2.031010 1_545
Mn1 O7 2.341234 1_555
Mn2 O0 2.002793 1_665
Mn2 O3 2.114032 1_655
Mn2 O3 2.114276 1_565
Mn2 O4 2.178818 1_555
Mn2 O8 2.294531 1_554
Mn3 O5 1.956241 1_555
Mn3 O4 1.960294 1_555
Mn3 O1 1.982475 1_665
Mn3 O2 2.121372 1_565
Mn3 O2 2.123128 1_655
O0 Sc0 2.005050 1_555
O1 Sc0 2.045726 1_555
O2 Sc0 2.258741 1_555
O3 Sc0 2.256772 1_555
O4 Sc0 2.145705 1_565
O4 Sc0 2.145971 1_655
O5 Sc1 2.150594 1_555
O6 Sc1 2.122626 1_555
O7 Sc1 2.015135 1_455
O7 Sc1 2.015251 1_545
O8 Sc1 2.087563 1_555
O9 Sc1 2.118425 1_555
