# generated using pymatgen
data_Na12Ca2Nb4(SiO4)9
_symmetry_space_group_name_H-M   'P 1'
_cell_length_a   9.28399667
_cell_length_b   9.28399633
_cell_length_c   22.53100024
_cell_angle_alpha   90.00000000
_cell_angle_beta   90.00000000
_cell_angle_gamma   120.00000116
_symmetry_Int_Tables_number   1
_chemical_formula_structural   Na12Ca2Nb4(SiO4)9
_chemical_formula_sum   'Na24 Ca4 Nb8 Si18 O72'
_cell_volume   1681.82589545
_cell_formula_units_Z   2
loop_
 _symmetry_equiv_pos_site_id
 _symmetry_equiv_pos_as_xyz
  1  'x, y, z'
loop_
 _atom_site_type_symbol
 _atom_site_label
 _atom_site_symmetry_multiplicity
 _atom_site_fract_x
 _atom_site_fract_y
 _atom_site_fract_z
 _atom_site_occupancy
  Na  Na0  1  0.64740338  0.02505926  0.24341284  1
  Na  Na1  1  0.37765588  0.35259662  0.24341284  1
  Na  Na2  1  0.97494074  0.62234412  0.24341284  1
  Na  Na3  1  0.64740338  0.62234412  0.74341284  1
  Na  Na4  1  0.97494074  0.35259662  0.74341284  1
  Na  Na5  1  0.37765588  0.02505926  0.74341284  1
  Na  Na6  1  0.31542913  0.33586702  0.58780281  1
  Na  Na7  1  0.02043889  0.68457087  0.58780281  1
  Na  Na8  1  0.66413298  0.97956111  0.58780281  1
  Na  Na9  1  0.31542913  0.97956111  0.08780281  1
  Na  Na10  1  0.66413298  0.68457087  0.08780281  1
  Na  Na11  1  0.02043889  0.33586702  0.08780281  1
  Na  Na12  1  0.96283951  0.68233704  0.90777154  1
  Na  Na13  1  0.71949653  0.03716049  0.90777154  1
  Na  Na14  1  0.31766296  0.28050347  0.90777154  1
  Na  Na15  1  0.96283951  0.28050347  0.40777154  1
  Na  Na16  1  0.31766296  0.03716049  0.40777154  1
  Na  Na17  1  0.71949653  0.68233704  0.40777154  1
  Na  Na18  1  0.00000000  -0.00000000  0.49731558  1
  Na  Na19  1  0.00000000  -0.00000000  0.99731558  1
  Na  Na20  1  0.66666700  0.33333300  0.81943396  1
  Na  Na21  1  0.66666700  0.33333300  0.31943396  1
  Na  Na22  1  0.33333300  0.66666700  0.16852407  1
  Na  Na23  1  0.33333300  0.66666700  0.66852407  1
  Ca  Ca0  1  0.00000000  -0.00000000  0.35415837  1
  Ca  Ca1  1  0.00000000  -0.00000000  0.85415837  1
  Ca  Ca2  1  0.66666700  0.33333300  0.67781284  1
  Ca  Ca3  1  0.66666700  0.33333300  0.17781284  1
  Nb  Nb0  1  0.00000000  -0.00000000  0.65123015  1
  Nb  Nb1  1  0.00000000  -0.00000000  0.15123015  1
  Nb  Nb2  1  0.66666700  0.33333300  0.98064137  1
  Nb  Nb3  1  0.66666700  0.33333300  0.48064137  1
  Nb  Nb4  1  0.33333300  0.66666700  0.01822964  1
  Nb  Nb5  1  0.33333300  0.66666700  0.51822964  1
  Nb  Nb6  1  0.33333300  0.66666700  0.31059703  1
  Nb  Nb7  1  0.33333300  0.66666700  0.81059703  1
  Si  Si0  1  0.29580117  0.99373253  0.25397387  1
  Si  Si1  1  0.69793136  0.70419883  0.25397387  1
  Si  Si2  1  0.00626747  0.30206864  0.25397387  1
  Si  Si3  1  0.29580117  0.30206864  0.75397387  1
  Si  Si4  1  0.00626747  0.70419883  0.75397387  1
  Si  Si5  1  0.69793136  0.99373253  0.75397387  1
  Si  Si6  1  0.97023549  0.33224585  0.58370574  1
  Si  Si7  1  0.36201137  0.02976451  0.58370574  1
  Si  Si8  1  0.66775415  0.63798863  0.58370574  1
  Si  Si9  1  0.97023549  0.63798863  0.08370574  1
  Si  Si10  1  0.66775415  0.02976451  0.08370574  1
  Si  Si11  1  0.36201137  0.33224585  0.08370574  1
  Si  Si12  1  0.61470756  0.65137448  0.91723479  1
  Si  Si13  1  0.03666592  0.38529244  0.91723479  1
  Si  Si14  1  0.34862552  0.96333408  0.91723479  1
  Si  Si15  1  0.61470756  0.96333408  0.41723479  1
  Si  Si16  1  0.34862552  0.38529244  0.41723479  1
  Si  Si17  1  0.03666592  0.65137448  0.41723479  1
  O  O0  1  0.22115331  0.01774615  0.31434876  1
  O  O1  1  0.79659284  0.77884669  0.31434876  1
  O  O2  1  0.98225385  0.20340716  0.31434876  1
  O  O3  1  0.22115331  0.20340716  0.81434876  1
  O  O4  1  0.98225385  0.77884669  0.81434876  1
  O  O5  1  0.79659284  0.01774615  0.81434876  1
  O  O6  1  0.81051023  0.97881092  0.69561254  1
  O  O7  1  0.16830069  0.18948977  0.69561254  1
  O  O8  1  0.02118908  0.83169931  0.69561254  1
  O  O9  1  0.81051023  0.83169931  0.19561254  1
  O  O10  1  0.02118908  0.18948977  0.19561254  1
  O  O11  1  0.16830069  0.97881092  0.19561254  1
  O  O12  1  0.91711337  0.39032121  0.64191494  1
  O  O13  1  0.47320884  0.08288663  0.64191494  1
  O  O14  1  0.60967879  0.52679116  0.64191494  1
  O  O15  1  0.91711337  0.52679116  0.14191494  1
  O  O16  1  0.60967879  0.08288663  0.14191494  1
  O  O17  1  0.47320884  0.39032121  0.14191494  1
  O  O18  1  0.47228000  0.30755780  0.02826517  1
  O  O19  1  0.83527880  0.52772000  0.02826517  1
  O  O20  1  0.69244220  0.16472120  0.02826517  1
  O  O21  1  0.47228000  0.16472120  0.52826517  1
  O  O22  1  0.69244220  0.52772000  0.52826517  1
  O  O23  1  0.83527880  0.30755780  0.52826517  1
  O  O24  1  0.49934857  0.64484079  0.97365473  1
  O  O25  1  0.14549122  0.50065143  0.97365473  1
  O  O26  1  0.35515921  0.85450878  0.97365473  1
  O  O27  1  0.49934857  0.85450878  0.47365473  1
  O  O28  1  0.35515921  0.50065143  0.47365473  1
  O  O29  1  0.14549122  0.64484079  0.47365473  1
  O  O30  1  0.13694432  0.63678594  0.35777979  1
  O  O31  1  0.49984062  0.86305568  0.35777979  1
  O  O32  1  0.36321406  0.50015938  0.35777979  1
  O  O33  1  0.13694432  0.50015938  0.85777979  1
  O  O34  1  0.36321406  0.86305568  0.85777979  1
  O  O35  1  0.49984062  0.63678594  0.85777979  1
  O  O36  1  0.01884678  0.81354564  0.42296751  1
  O  O37  1  0.79469886  0.98115322  0.42296751  1
  O  O38  1  0.18645436  0.20530114  0.42296751  1
  O  O39  1  0.01884678  0.20530114  0.92296751  1
  O  O40  1  0.18645436  0.98115322  0.92296751  1
  O  O41  1  0.79469886  0.81354564  0.92296751  1
  O  O42  1  0.96953096  0.15422859  0.58854018  1
  O  O43  1  0.18469763  0.03046904  0.58854018  1
  O  O44  1  0.84577141  0.81530237  0.58854018  1
  O  O45  1  0.96953096  0.81530237  0.08854018  1
  O  O46  1  0.84577141  0.03046904  0.08854018  1
  O  O47  1  0.18469763  0.15422859  0.08854018  1
  O  O48  1  0.66711802  0.14692932  0.74527987  1
  O  O49  1  0.47981230  0.33288198  0.74527987  1
  O  O50  1  0.85307068  0.52018770  0.74527987  1
  O  O51  1  0.66711802  0.52018770  0.24527987  1
  O  O52  1  0.85307068  0.33288198  0.24527987  1
  O  O53  1  0.47981230  0.14692932  0.24527987  1
  O  O54  1  0.62402778  0.47745303  0.92119570  1
  O  O55  1  0.85342626  0.37597222  0.92119570  1
  O  O56  1  0.52254697  0.14657374  0.92119570  1
  O  O57  1  0.62402778  0.14657374  0.42119570  1
  O  O58  1  0.52254697  0.37597222  0.42119570  1
  O  O59  1  0.85342626  0.47745303  0.42119570  1
  O  O60  1  0.31319496  0.47931192  0.07167833  1
  O  O61  1  0.16611595  0.68680504  0.07167833  1
  O  O62  1  0.52068808  0.83388405  0.07167833  1
  O  O63  1  0.31319496  0.83388405  0.57167833  1
  O  O64  1  0.52068808  0.68680504  0.57167833  1
  O  O65  1  0.16611595  0.47931192  0.57167833  1
  O  O66  1  0.28743910  0.80892889  0.25221322  1
  O  O67  1  0.52148879  0.71256090  0.25221322  1
  O  O68  1  0.19107111  0.47851121  0.25221322  1
  O  O69  1  0.28743910  0.47851121  0.75221322  1
  O  O70  1  0.19107111  0.71256090  0.75221322  1
  O  O71  1  0.52148879  0.80892889  0.75221322  1
loop_
_geom_bond_atom_site_label_1
_geom_bond_atom_site_label_2
_geom_bond_distance
_geom_bond_site_symmetry_2
Na0 O53 2.337355 1_555
Na0 O16 2.414250 1_555
Na0 O52 2.521512 1_555
Na0 O67 2.536039 1_545
Na1 O51 2.337362 1_555
Na1 O17 2.414253 1_555
Na1 O53 2.521519 1_555
Na1 O68 2.536048 1_555
Na2 O52 2.337363 1_555
Na2 O15 2.414252 1_555
Na2 O51 2.521511 1_555
Na2 O66 2.536041 1_655
Na3 O49 2.337362 1_555
Na3 O14 2.414253 1_555
Na3 O50 2.521519 1_555
Na3 O71 2.536048 1_555
Na4 O50 2.337355 1_555
Na4 O12 2.414250 1_555
Na4 O48 2.521512 1_555
Na4 O69 2.536040 1_655
Na5 O48 2.337363 1_555
Na5 O13 2.414252 1_555
Na5 O49 2.521511 1_555
Na5 O70 2.536040 1_545
Na6 O65 2.381854 1_555
Na6 O43 2.463965 1_555
Na6 O14 2.692378 1_555
Na6 O42 2.782302 1_455
Na6 O7 2.785077 1_555
Na6 O64 2.858308 1_555
Na6 O28 2.920058 1_555
Na6 O21 2.959466 1_555
Na7 O63 2.381838 1_555
Na7 O44 2.463973 1_455
Na7 O12 2.692378 1_455
Na7 O43 2.782302 1_565
Na7 O8 2.785079 1_555
Na7 O65 2.858293 1_555
Na7 O29 2.920050 1_555
Na7 O22 2.959466 1_455
Na8 O64 2.381838 1_555
Na8 O42 2.463966 1_565
Na8 O13 2.692378 1_565
Na8 O44 2.782294 1_555
Na8 O6 2.785074 1_555
Na8 O63 2.858310 1_555
Na8 O27 2.920056 1_555
Na8 O23 2.959466 1_565
Na9 O61 2.381838 1_555
Na9 O47 2.463973 1_565
Na9 O16 2.692378 1_565
Na9 O45 2.782302 1_455
Na9 O11 2.785079 1_555
Na9 O62 2.858293 1_555
Na9 O26 2.920050 1_554
Na9 O18 2.959466 1_565
Na10 O62 2.381854 1_555
Na10 O45 2.463965 1_555
Na10 O17 2.692378 1_555
Na10 O46 2.782302 1_565
Na10 O9 2.785077 1_555
Na10 O60 2.858308 1_555
Na10 O24 2.920059 1_554
Na10 O19 2.959466 1_555
Na11 O60 2.381838 1_555
Na11 O46 2.463966 1_455
Na11 O15 2.692378 1_455
Na11 O47 2.782294 1_555
Na11 O10 2.785074 1_555
Na11 O61 2.858310 1_555
Na11 O25 2.920056 1_554
Na11 O20 2.959466 1_455
Na12 O4 2.259301 1_555
Na12 O41 2.437089 1_555
Na12 O55 2.514775 1_555
Na12 O40 2.522703 1_655
Na12 O54 2.760566 1_555
Na13 O5 2.259304 1_555
Na13 O39 2.437097 1_655
Na13 O56 2.514758 1_555
Na13 O41 2.522709 1_545
Na13 O55 2.760564 1_555
Na14 O3 2.259302 1_555
Na14 O40 2.437097 1_545
Na14 O54 2.514772 1_555
Na14 O39 2.522700 1_555
Na14 O56 2.760581 1_555
Na15 O2 2.259304 1_555
Na15 O37 2.437096 1_545
Na15 O59 2.514758 1_555
Na15 O38 2.522709 1_655
Na15 O57 2.760564 1_555
Na16 O0 2.259301 1_555
Na16 O38 2.437089 1_555
Na16 O57 2.514775 1_555
Na16 O36 2.522703 1_545
Na16 O58 2.760566 1_555
Na17 O1 2.259302 1_555
Na17 O36 2.437097 1_655
Na17 O58 2.514772 1_555
Na17 O37 2.522700 1_555
Na17 O59 2.760581 1_555
Na18 O38 2.477113 1_555
Na18 O36 2.477113 1_545
Na18 O37 2.477113 1_445
Na18 O44 2.599974 1_445
Na18 O42 2.599974 1_455
Na18 O43 2.599974 1_555
Na19 O39 2.477113 1_555
Na19 O41 2.477113 1_445
Na19 O40 2.477113 1_545
Na19 O45 2.599974 1_446
Na19 O47 2.599974 1_556
Na19 O46 2.599974 1_456
Na20 O48 2.406990 1_555
Na20 O50 2.406990 1_555
Na20 O49 2.406990 1_555
Na20 O54 2.780926 1_555
Na20 O56 2.780926 1_555
Na20 O55 2.780926 1_555
Na21 O51 2.406990 1_555
Na21 O53 2.406990 1_555
Na21 O52 2.406990 1_555
Na21 O58 2.780926 1_555
Na21 O57 2.780926 1_555
Na21 O59 2.780926 1_555
Na22 O68 2.458492 1_555
Na22 O66 2.458492 1_555
Na22 O67 2.458492 1_555
Na22 O60 2.737981 1_555
Na22 O62 2.737981 1_555
Na22 O61 2.737981 1_555
Na23 O69 2.458492 1_555
Na23 O71 2.458492 1_555
Na23 O70 2.458492 1_555
Na23 O65 2.737981 1_555
Na23 O64 2.737981 1_555
Na23 O63 2.737981 1_555
Ca0 O1 2.170015 1_445
Ca0 O2 2.170015 1_455
Ca0 O0 2.170015 1_555
Ca0 O38 2.394485 1_555
Ca0 O36 2.394485 1_545
Ca0 O37 2.394485 1_445
Ca1 O4 2.170015 1_445
Ca1 O3 2.170015 1_555
Ca1 O5 2.170015 1_455
Ca1 O39 2.394485 1_555
Ca1 O41 2.394485 1_445
Ca1 O40 2.394485 1_545
Ca2 O13 2.260578 1_555
Ca2 O14 2.260578 1_555
Ca2 O12 2.260578 1_555
Ca2 O48 2.304961 1_555
Ca2 O50 2.304961 1_555
Ca2 O49 2.304961 1_555
Ca3 O16 2.260578 1_555
Ca3 O15 2.260578 1_555
Ca3 O17 2.260578 1_555
Ca3 O51 2.304961 1_555
Ca3 O53 2.304961 1_555
Ca3 O52 2.304961 1_555
Nb0 O7 1.946137 1_555
Nb0 O8 1.946137 1_545
Nb0 O6 1.946137 1_445
Nb0 O44 2.128458 1_445
Nb0 O42 2.128458 1_455
Nb0 O43 2.128458 1_555
Nb1 O10 1.946137 1_555
Nb1 O9 1.946137 1_445
Nb1 O11 1.946137 1_545
Nb1 O45 2.128458 1_445
Nb1 O47 2.128458 1_555
Nb1 O46 2.128458 1_455
Nb2 O19 2.008398 1_556
Nb2 O20 2.008398 1_556
Nb2 O18 2.008398 1_556
Nb2 O54 2.066533 1_555
Nb2 O56 2.066533 1_555
Nb2 O55 2.066533 1_555
Nb3 O22 2.008398 1_555
Nb3 O21 2.008398 1_555
Nb3 O23 2.008398 1_555
Nb3 O58 2.066533 1_555
Nb3 O57 2.066533 1_555
Nb3 O59 2.066533 1_555
Nb4 O26 1.933287 1_554
Nb4 O25 1.933288 1_554
Nb4 O24 1.933288 1_554
Nb4 O60 2.045850 1_555
Nb4 O62 2.045850 1_555
Nb4 O61 2.045850 1_555
Nb5 O27 1.933287 1_555
Nb5 O28 1.933288 1_555
Nb5 O29 1.933288 1_555
Nb5 O65 2.045850 1_555
Nb5 O64 2.045850 1_555
Nb5 O63 2.045850 1_555
Nb6 O31 2.006391 1_555
Nb6 O32 2.006391 1_555
Nb6 O30 2.006391 1_555
Nb6 O68 2.054043 1_555
Nb6 O66 2.054043 1_555
Nb6 O67 2.054043 1_555
Nb7 O34 2.006391 1_555
Nb7 O33 2.006391 1_555
Nb7 O35 2.006391 1_555
Nb7 O69 2.054043 1_555
Nb7 O71 2.054043 1_555
Nb7 O70 2.054043 1_555
O0 Si0 1.592148 1_545
O1 Si1 1.592148 1_555
O2 Si2 1.592148 1_655
O3 Si3 1.592148 1_555
O4 Si4 1.592148 1_655
O5 Si5 1.592148 1_545
O6 Si5 1.727846 1_555
O7 Si3 1.727846 1_555
O8 Si4 1.727846 1_555
O9 Si1 1.727846 1_555
O10 Si2 1.727846 1_555
O11 Si0 1.727846 1_555
O12 Si6 1.587423 1_555
O13 Si7 1.587423 1_555
O14 Si8 1.587423 1_555
O15 Si9 1.587423 1_555
O16 Si10 1.587423 1_555
O17 Si11 1.587423 1_555
O18 Si11 1.701628 1_555
O19 Si9 1.701628 1_555
O20 Si10 1.701628 1_555
O21 Si7 1.701628 1_555
O22 Si8 1.701628 1_555
O23 Si6 1.701628 1_555
O24 Si12 1.643680 1_555
O25 Si13 1.643680 1_555
O26 Si14 1.643680 1_555
O27 Si15 1.643680 1_555
O28 Si16 1.643680 1_555
O29 Si17 1.643680 1_555
O30 Si17 1.675006 1_555
O31 Si15 1.675006 1_555
O32 Si16 1.675006 1_555
O33 Si13 1.675006 1_555
O34 Si14 1.675006 1_555
O35 Si12 1.675006 1_555
O36 Si17 1.599983 1_555
O37 Si15 1.599993 1_555
O38 Si16 1.599989 1_555
O39 Si13 1.599993 1_555
O40 Si14 1.599984 1_555
O41 Si12 1.599989 1_555
O42 Si6 1.653044 1_555
O43 Si7 1.653053 1_555
O44 Si8 1.653048 1_555
O45 Si9 1.653053 1_555
O46 Si10 1.653044 1_555
O47 Si11 1.653048 1_555
O48 Si5 1.596858 1_545
O49 Si3 1.596867 1_555
O50 Si4 1.596864 1_655
O51 Si1 1.596867 1_555
O52 Si2 1.596858 1_655
O53 Si0 1.596864 1_545
O54 Si12 1.662041 1_555
O55 Si13 1.662022 1_655
O56 Si14 1.662031 1_545
O57 Si15 1.662022 1_545
O58 Si16 1.662041 1_555
O59 Si17 1.662031 1_655
O60 Si11 1.661879 1_555
O61 Si9 1.661862 1_455
O62 Si10 1.661867 1_565
O63 Si7 1.661861 1_565
O64 Si8 1.661879 1_555
O65 Si6 1.661867 1_455
O66 Si0 1.678716 1_555
O67 Si1 1.678725 1_555
O68 Si2 1.678720 1_555
O69 Si3 1.678725 1_555
O70 Si4 1.678716 1_555
O71 Si5 1.678720 1_555
