# generated using pymatgen
data_Ba6MgNb2Ir(ClO6)2
_symmetry_space_group_name_H-M   'P 1'
_cell_length_a   6.26235503
_cell_length_b   6.27718520
_cell_length_c   15.27593834
_cell_angle_alpha   83.05690976
_cell_angle_beta   96.71760454
_cell_angle_gamma   123.24605224
_symmetry_Int_Tables_number   1
_chemical_formula_structural   Ba6MgNb2Ir(ClO6)2
_chemical_formula_sum   'Ba6 Mg1 Nb2 Ir1 Cl2 O12'
_cell_volume   497.59615839
_cell_formula_units_Z   1
loop_
 _symmetry_equiv_pos_site_id
 _symmetry_equiv_pos_as_xyz
  1  'x, y, z'
loop_
 _atom_site_type_symbol
 _atom_site_label
 _atom_site_symmetry_multiplicity
 _atom_site_fract_x
 _atom_site_fract_y
 _atom_site_fract_z
 _atom_site_occupancy
  Ba  Ba0  1  0.27809600  0.73188400  0.36146000  1
  Ba  Ba1  1  0.40482200  0.58390500  0.77749300  1
  Ba  Ba2  1  0.72190400  0.26811600  0.63854000  1
  Ba  Ba3  1  0.73969400  0.24949900  0.89566100  1
  Ba  Ba4  1  0.26030600  0.75050100  0.10433900  1
  Ba  Ba5  1  0.59517800  0.41609500  0.22250700  1
  Mg  Mg0  1  0.50000000  0.50000000  0.00000000  1
  Nb  Nb0  1  0.08251500  0.90388700  0.81951000  1
  Nb  Nb1  1  0.91748500  0.09611300  0.18049000  1
  Ir  Ir0  1  0.00000000  0.00000000  0.00000000  1
  Cl  Cl0  1  0.67156400  0.32784500  0.42694900  1
  Cl  Cl1  1  0.32843600  0.67215500  0.57305100  1
  O  O0  1  0.28254600  0.21936700  0.91893100  1
  O  O1  1  0.37848900  0.11785500  0.75107100  1
  O  O2  1  0.10989800  0.38116100  0.25142700  1
  O  O3  1  0.89010200  0.61883900  0.74857300  1
  O  O4  1  0.90680400  0.08998400  0.77169600  1
  O  O5  1  0.71745400  0.78063300  0.08106900  1
  O  O6  1  0.09319600  0.91001600  0.22830400  1
  O  O7  1  0.22800800  0.29601500  0.08545700  1
  O  O8  1  0.74744500  0.24879500  0.10100100  1
  O  O9  1  0.77199200  0.70398500  0.91454300  1
  O  O10  1  0.62151100  0.88214500  0.24892900  1
  O  O11  1  0.25255500  0.75120500  0.89899900  1
loop_
_geom_bond_atom_site_label_1
_geom_bond_atom_site_label_2
_geom_bond_distance
_geom_bond_site_symmetry_2
Ba0 O10 2.591994 1_555
Ba0 O2 2.592181 1_555
Ba0 O6 2.654671 1_555
Ba0 Cl1 3.207120 1_555
Ba0 Cl0 3.359769 1_565
Ba0 Cl0 3.401955 1_455
Ba1 O11 2.727752 1_555
Ba1 O9 2.755565 1_555
Ba1 O0 2.785899 1_555
Ba1 O1 2.913671 1_555
Ba1 O4 2.957472 1_455
Ba1 O4 3.004839 1_565
Ba1 O3 3.006447 1_555
Ba1 Cl1 3.132392 1_555
Ba1 O3 3.324419 1_455
Ba1 O1 3.418687 1_565
Ba2 O1 2.591994 1_555
Ba2 O3 2.592181 1_555
Ba2 O4 2.654671 1_555
Ba2 Cl0 3.207120 1_555
Ba2 Cl1 3.359769 1_545
Ba2 Cl1 3.401955 1_655
Ba3 O4 2.784749 1_555
Ba3 O9 2.795658 1_555
Ba3 O1 2.810858 1_555
Ba3 O0 2.825950 1_555
Ba3 O3 2.855194 1_555
Ba3 O11 2.937330 1_545
Ba3 O11 3.024219 1_655
Ba3 Ir0 3.039497 1_656
Ba3 O8 3.130960 1_556
Ba4 O6 2.784749 1_555
Ba4 O7 2.795658 1_555
Ba4 O10 2.810858 1_555
Ba4 O5 2.825950 1_555
Ba4 O2 2.855194 1_555
Ba4 O8 2.937330 1_565
Ba4 O8 3.024219 1_455
Ba4 Ir0 3.039497 1_565
Ba4 O11 3.130960 1_554
Ba5 O8 2.727752 1_555
Ba5 O7 2.755565 1_555
Ba5 O5 2.785899 1_555
Ba5 O10 2.913671 1_555
Ba5 O6 2.957472 1_655
Ba5 O6 3.004839 1_545
Ba5 O2 3.006447 1_555
Ba5 Cl0 3.132392 1_555
Ba5 O2 3.324419 1_655
Ba5 O10 3.418687 1_545
Mg0 O7 1.992400 1_555
Mg0 O9 1.992400 1_554
Mg0 O0 1.998459 1_554
Mg0 O5 1.998459 1_555
Nb0 O3 1.904478 1_455
Nb0 O1 1.927861 1_565
Nb0 O11 2.015458 1_555
Nb0 O4 2.030764 1_465
Nb0 O9 2.237868 1_455
Nb0 O0 2.315062 1_565
Nb1 O2 1.904478 1_655
Nb1 O10 1.927861 1_545
Nb1 O8 2.015458 1_555
Nb1 O6 2.030764 1_645
Nb1 O7 2.237868 1_655
Nb1 O5 2.315062 1_545
Ir0 O0 1.997352 1_554
Ir0 O5 1.997352 1_445
Ir0 O9 2.106392 1_444
Ir0 O7 2.106392 1_555
