# generated using pymatgen
data_Mg(WO2)2
_symmetry_space_group_name_H-M   'P 1'
_cell_length_a   6.10263581
_cell_length_b   6.10263581
_cell_length_c   6.10263581
_cell_angle_alpha   128.85838464
_cell_angle_beta   110.09677006
_cell_angle_gamma   91.66155902
_symmetry_Int_Tables_number   1
_chemical_formula_structural   Mg(WO2)2
_chemical_formula_sum   'Mg2 W4 O8'
_cell_volume   156.63283548
_cell_formula_units_Z   2
loop_
 _symmetry_equiv_pos_site_id
 _symmetry_equiv_pos_as_xyz
  1  'x, y, z'
loop_
 _atom_site_type_symbol
 _atom_site_label
 _atom_site_symmetry_multiplicity
 _atom_site_fract_x
 _atom_site_fract_y
 _atom_site_fract_z
 _atom_site_occupancy
  Mg  Mg0  1  0.00000000  0.50000000  0.50000000  1
  Mg  Mg1  1  0.50000000  0.50000000  0.00000000  1
  W  W0  1  0.06637685  0.81637685  0.25000000  1
  W  W1  1  0.93362315  0.18362315  0.75000000  1
  W  W2  1  0.50000000  0.00000000  0.00000000  1
  W  W3  1  0.50000000  0.50000000  0.50000000  1
  O  O0  1  0.74148430  0.23585164  0.99436735  1
  O  O1  1  0.74224093  0.25879585  0.48344508  1
  O  O2  1  0.74148430  0.74711695  0.50563265  1
  O  O3  1  0.27535077  0.25879585  0.01655492  1
  O  O4  1  0.72464923  0.74120415  0.98344508  1
  O  O5  1  0.25775907  0.74120415  0.51655492  1
  O  O6  1  0.25851570  0.25288305  0.49436735  1
  O  O7  1  0.25851570  0.76414836  0.00563265  1
loop_
_geom_bond_atom_site_label_1
_geom_bond_atom_site_label_2
_geom_bond_distance
_geom_bond_site_symmetry_2
Mg0 O5 2.054557 1_555
Mg0 O1 2.054557 1_455
Mg0 O7 2.207836 1_556
Mg0 O0 2.207836 1_454
Mg0 O2 2.207836 1_455
Mg0 O6 2.207836 1_555
Mg1 O3 2.054557 1_555
Mg1 O4 2.054557 1_554
Mg1 O2 2.207836 1_555
Mg1 O6 2.207836 1_554
Mg1 O0 2.207836 1_554
Mg1 O7 2.207836 1_555
O0 W2 2.053890 1_556
O0 W1 2.080220 1_555
O1 W1 1.970402 1_555
O1 W3 2.098703 1_555
O1 W2 2.098703 1_555
O2 W3 2.053890 1_555
O2 W1 2.080220 1_565
O3 W1 1.970402 1_454
O3 W3 2.098703 1_555
O3 W2 2.098703 1_555
O4 W0 1.970402 1_656
O4 W3 2.098703 1_555
O4 W2 2.098703 1_566
O5 W0 1.970402 1_555
O5 W2 2.098703 1_566
O5 W3 2.098703 1_555
O6 W3 2.053890 1_555
O6 W0 2.080220 1_545
O7 W2 2.053890 1_565
O7 W0 2.080220 1_555
