# generated using pymatgen
data_Li9Cr3P8O29
_symmetry_space_group_name_H-M   'P 1'
_cell_length_a   9.82302595
_cell_length_b   9.82302595
_cell_length_c   13.76693300
_cell_angle_alpha   90.00000000
_cell_angle_beta   90.00000000
_cell_angle_gamma   119.99999966
_symmetry_Int_Tables_number   1
_chemical_formula_structural   Li9Cr3P8O29
_chemical_formula_sum   'Li18 Cr6 P16 O58'
_cell_volume   1150.42527505
_cell_formula_units_Z   2
loop_
 _symmetry_equiv_pos_site_id
 _symmetry_equiv_pos_as_xyz
  1  'x, y, z'
loop_
 _atom_site_type_symbol
 _atom_site_label
 _atom_site_symmetry_multiplicity
 _atom_site_fract_x
 _atom_site_fract_y
 _atom_site_fract_z
 _atom_site_occupancy
  Li  Li0  1  0.76403700  0.10036700  0.06345200  1
  Li  Li1  1  0.33633100  0.10036700  0.56345200  1
  Li  Li2  1  0.76403700  0.66366900  0.56345200  1
  Li  Li3  1  0.00000000  0.00000000  0.50000000  1
  Li  Li4  1  0.89963300  0.23596300  0.56345200  1
  Li  Li5  1  0.33333300  0.66666700  0.61979500  1
  Li  Li6  1  0.10036700  0.76403700  0.43654800  1
  Li  Li7  1  0.66366900  0.76403700  0.93654800  1
  Li  Li8  1  0.33633100  0.23596300  0.06345200  1
  Li  Li9  1  0.66666700  0.33333300  0.38020500  1
  Li  Li10  1  0.89963300  0.66366900  0.06345200  1
  Li  Li11  1  0.33333300  0.66666700  0.11979500  1
  Li  Li12  1  0.66366900  0.89963300  0.43654800  1
  Li  Li13  1  0.23596300  0.33633100  0.43654800  1
  Li  Li14  1  0.00000000  0.00000000  0.00000000  1
  Li  Li15  1  0.23596300  0.89963300  0.93654800  1
  Li  Li16  1  0.66666700  0.33333300  0.88020500  1
  Li  Li17  1  0.10036700  0.33633100  0.93654800  1
  Cr  Cr0  1  0.43334700  0.43334700  0.25000000  1
  Cr  Cr1  1  0.00000000  0.43334700  0.75000000  1
  Cr  Cr2  1  0.56665300  0.00000000  0.25000000  1
  Cr  Cr3  1  0.56665300  0.56665300  0.75000000  1
  Cr  Cr4  1  0.00000000  0.56665300  0.25000000  1
  Cr  Cr5  1  0.43334700  0.00000000  0.75000000  1
  P  P0  1  0.91013200  0.22740500  0.34406800  1
  P  P1  1  0.31727300  0.22740500  0.84406800  1
  P  P2  1  0.91013200  0.68272700  0.84406800  1
  P  P3  1  0.68272700  0.77259500  0.15593200  1
  P  P4  1  0.22740500  0.31727300  0.65593200  1
  P  P5  1  0.08986800  0.77259500  0.65593200  1
  P  P6  1  0.66666700  0.33333300  0.62487600  1
  P  P7  1  0.66666700  0.33333300  0.12487600  1
  P  P8  1  0.33333300  0.66666700  0.37512400  1
  P  P9  1  0.77259500  0.68272700  0.34406800  1
  P  P10  1  0.68272700  0.91013200  0.65593200  1
  P  P11  1  0.77259500  0.08986800  0.84406800  1
  P  P12  1  0.22740500  0.91013200  0.15593200  1
  P  P13  1  0.31727300  0.08986800  0.34406800  1
  P  P14  1  0.08986800  0.31727300  0.15593200  1
  P  P15  1  0.33333300  0.66666700  0.87512400  1
  O  O0  1  0.66666700  0.33333300  0.01477500  1
  O  O1  1  0.21362800  0.21362800  0.75000000  1
  O  O2  1  0.07837200  0.74747500  0.15570600  1
  O  O3  1  0.07837200  0.33089700  0.65570600  1
  O  O4  1  0.48832500  0.67745200  0.83693700  1
  O  O5  1  0.00000000  0.78637200  0.75000000  1
  O  O6  1  0.22780700  0.00218100  0.06679000  1
  O  O7  1  0.18912700  0.51167500  0.83693700  1
  O  O8  1  0.77437400  0.77219300  0.06679000  1
  O  O9  1  0.92162800  0.66910300  0.34429400  1
  O  O10  1  0.89218200  0.51859800  0.83373100  1
  O  O11  1  0.66666700  0.33333300  0.51477500  1
  O  O12  1  0.00000000  0.21362800  0.25000000  1
  O  O13  1  0.99781900  0.22562600  0.06679000  1
  O  O14  1  0.62641600  0.51859800  0.33373100  1
  O  O15  1  0.77437400  0.00218100  0.56679000  1
  O  O16  1  0.37358400  0.48140200  0.66626900  1
  O  O17  1  0.51859800  0.89218200  0.66626900  1
  O  O18  1  0.51167500  0.18912700  0.66306300  1
  O  O19  1  0.99781900  0.77219300  0.56679000  1
  O  O20  1  0.21362800  0.00000000  0.25000000  1
  O  O21  1  0.22562600  0.99781900  0.43321000  1
  O  O22  1  0.22780700  0.22562600  0.56679000  1
  O  O23  1  0.22562600  0.22780700  0.93321000  1
  O  O24  1  0.48140200  0.10781800  0.33373100  1
  O  O25  1  0.32254800  0.81087300  0.83693700  1
  O  O26  1  0.51167500  0.32254800  0.16306300  1
  O  O27  1  0.10781800  0.62641600  0.66626900  1
  O  O28  1  0.48832500  0.81087300  0.33693700  1
  O  O29  1  0.00218100  0.77437400  0.93321000  1
  O  O30  1  0.74747500  0.07837200  0.34429400  1
  O  O31  1  0.48140200  0.37358400  0.83373100  1
  O  O32  1  0.62641600  0.10781800  0.83373100  1
  O  O33  1  0.67745200  0.48832500  0.66306300  1
  O  O34  1  0.77219300  0.99781900  0.93321000  1
  O  O35  1  0.37358400  0.89218200  0.16626900  1
  O  O36  1  0.74747500  0.66910300  0.84429400  1
  O  O37  1  0.67745200  0.18912700  0.16306300  1
  O  O38  1  0.78637200  0.00000000  0.75000000  1
  O  O39  1  0.18912700  0.67745200  0.33693700  1
  O  O40  1  0.66910300  0.74747500  0.65570600  1
  O  O41  1  0.81087300  0.32254800  0.66306300  1
  O  O42  1  0.51859800  0.62641600  0.16626900  1
  O  O43  1  0.00218100  0.22780700  0.43321000  1
  O  O44  1  0.92162800  0.25252500  0.84429400  1
  O  O45  1  0.33089700  0.07837200  0.84429400  1
  O  O46  1  0.33333300  0.66666700  0.48522500  1
  O  O47  1  0.10781800  0.48140200  0.16626900  1
  O  O48  1  0.81087300  0.48832500  0.16306300  1
  O  O49  1  0.33333300  0.66666700  0.98522500  1
  O  O50  1  0.32254800  0.51167500  0.33693700  1
  O  O51  1  0.77219300  0.77437400  0.43321000  1
  O  O52  1  0.89218200  0.37358400  0.33373100  1
  O  O53  1  0.66910300  0.92162800  0.15570600  1
  O  O54  1  0.25252500  0.33089700  0.15570600  1
  O  O55  1  0.33089700  0.25252500  0.34429400  1
  O  O56  1  0.25252500  0.92162800  0.65570600  1
  O  O57  1  0.78637200  0.78637200  0.25000000  1
loop_
_geom_bond_atom_site_label_1
_geom_bond_atom_site_label_2
_geom_bond_distance
_geom_bond_site_symmetry_2
Li0 O53 1.981929 1_545
Li0 O13 1.991010 1_555
Li0 O37 2.026259 1_555
Li0 O34 2.077693 1_544
Li1 O56 1.981928 1_545
Li1 O22 1.991018 1_555
Li1 O18 2.026253 1_555
Li1 O21 2.077695 1_545
Li2 O40 1.981935 1_555
Li2 O19 1.991009 1_555
Li2 O33 2.026253 1_555
Li2 O51 2.077698 1_555
Li3 O15 2.409466 1_455
Li3 O21 2.409466 1_545
Li3 O19 2.409466 1_445
Li3 O43 2.409466 1_555
Li3 O51 2.409467 1_445
Li3 O22 2.409467 1_555
Li4 O3 1.981929 1_655
Li4 O15 1.991010 1_555
Li4 O41 2.026259 1_555
Li4 O43 2.077693 1_655
Li5 O46 1.852616 1_555
Li5 O27 2.144083 1_555
Li5 O17 2.144086 1_555
Li5 O16 2.144092 1_555
Li6 O9 1.981929 1_455
Li6 O21 1.991010 1_555
Li6 O39 2.026259 1_555
Li6 O19 2.077693 1_455
Li7 O36 1.981935 1_555
Li7 O34 1.991009 1_555
Li7 O4 2.026253 1_555
Li7 O8 2.077698 1_556
Li8 O54 1.981935 1_555
Li8 O6 1.991009 1_555
Li8 O26 2.026253 1_555
Li8 O23 2.077698 1_554
Li9 O11 1.852616 1_555
Li9 O52 2.144083 1_555
Li9 O24 2.144086 1_555
Li9 O14 2.144092 1_555
Li10 O2 1.981928 1_655
Li10 O8 1.991018 1_555
Li10 O48 2.026253 1_555
Li10 O29 2.077695 1_654
Li11 O49 1.852616 1_554
Li11 O35 2.144083 1_555
Li11 O47 2.144086 1_555
Li11 O42 2.144092 1_555
Li12 O30 1.981928 1_565
Li12 O51 1.991018 1_555
Li12 O28 2.026253 1_555
Li12 O15 2.077695 1_565
Li13 O55 1.981935 1_555
Li13 O43 1.991009 1_555
Li13 O50 2.026253 1_555
Li13 O22 2.077698 1_555
Li14 O29 2.409466 1_544
Li14 O13 2.409466 1_455
Li14 O34 2.409466 1_444
Li14 O6 2.409466 1_555
Li14 O8 2.409467 1_445
Li14 O23 2.409467 1_554
Li15 O45 1.981929 1_565
Li15 O29 1.991010 1_555
Li15 O25 2.026259 1_555
Li15 O6 2.077693 1_566
Li16 O0 1.852616 1_556
Li16 O32 2.144083 1_555
Li16 O10 2.144086 1_555
Li16 O31 2.144092 1_555
Li17 O44 1.981928 1_455
Li17 O23 1.991018 1_555
Li17 O7 2.026253 1_555
Li17 O13 2.077695 1_456
Cr0 O42 2.009637 1_555
Cr0 O14 2.009637 1_555
Cr0 O26 2.011582 1_555
Cr0 O50 2.011582 1_555
Cr0 O54 2.016275 1_555
Cr0 O55 2.016275 1_555
Cr1 O10 2.009637 1_455
Cr1 O27 2.009637 1_555
Cr1 O7 2.011582 1_555
Cr1 O41 2.011582 1_455
Cr1 O3 2.016275 1_555
Cr1 O44 2.016275 1_455
Cr2 O24 2.009637 1_555
Cr2 O35 2.009637 1_545
Cr2 O28 2.011582 1_545
Cr2 O37 2.011582 1_555
Cr2 O53 2.016275 1_545
Cr2 O30 2.016275 1_555
Cr3 O31 2.009637 1_555
Cr3 O16 2.009637 1_555
Cr3 O33 2.011582 1_555
Cr3 O4 2.011582 1_555
Cr3 O36 2.016275 1_555
Cr3 O40 2.016275 1_555
Cr4 O47 2.009637 1_555
Cr4 O52 2.009637 1_455
Cr4 O48 2.011582 1_455
Cr4 O39 2.011582 1_555
Cr4 O9 2.016275 1_455
Cr4 O2 2.016275 1_555
Cr5 O17 2.009637 1_545
Cr5 O32 2.009637 1_555
Cr5 O18 2.011582 1_555
Cr5 O25 2.011582 1_545
Cr5 O45 2.016275 1_555
Cr5 O56 2.016275 1_545
O0 P7 1.515753 1_555
O1 P1 1.610643 1_555
O1 P4 1.610643 1_555
O2 P12 1.535254 1_555
O3 P4 1.535254 1_555
O4 P15 1.563421 1_555
O5 P5 1.610643 1_555
O5 P2 1.610643 1_455
O6 P12 1.523178 1_545
O7 P15 1.563417 1_555
O8 P3 1.523178 1_555
O9 P9 1.535254 1_555
O10 P2 1.538309 1_555
O11 P6 1.515753 1_555
O12 P0 1.610643 1_455
O12 P14 1.610643 1_555
O13 P14 1.523178 1_655
O14 P9 1.538309 1_555
O15 P10 1.523178 1_545
O16 P4 1.538309 1_555
O17 P10 1.538309 1_555
O18 P6 1.563417 1_555
O19 P5 1.523178 1_655
O20 P12 1.610643 1_545
O20 P13 1.610643 1_555
O21 P13 1.523178 1_565
O22 P4 1.523178 1_555
O23 P1 1.523178 1_555
O24 P13 1.538309 1_555
O25 P15 1.563412 1_555
O26 P7 1.563421 1_555
O27 P5 1.538309 1_555
O28 P8 1.563417 1_555
O29 P2 1.523178 1_455
O30 P0 1.535254 1_555
O31 P1 1.538309 1_555
O32 P11 1.538309 1_555
O33 P6 1.563421 1_555
O34 P11 1.523178 1_565
O35 P12 1.538309 1_555
O36 P2 1.535254 1_555
O37 P7 1.563412 1_555
O38 P11 1.610643 1_555
O38 P10 1.610643 1_545
O39 P8 1.563412 1_555
O40 P10 1.535254 1_555
O41 P6 1.563412 1_555
O42 P3 1.538309 1_555
O43 P0 1.523178 1_455
O44 P11 1.535254 1_555
O45 P1 1.535254 1_555
O46 P8 1.515753 1_555
O47 P14 1.538309 1_555
O48 P7 1.563417 1_555
O49 P15 1.515753 1_555
O50 P8 1.563421 1_555
O51 P9 1.523178 1_555
O52 P0 1.538309 1_555
O53 P3 1.535254 1_555
O54 P14 1.535254 1_555
O55 P13 1.535254 1_555
O56 P5 1.535254 1_555
O57 P9 1.610643 1_555
O57 P3 1.610643 1_555
