# generated using pymatgen
data_BaLaMgNiRuO6
_symmetry_space_group_name_H-M   'P 1'
_cell_length_a   6.34965131
_cell_length_b   5.83686232
_cell_length_c   5.90764843
_cell_angle_alpha   60.55019086
_cell_angle_beta   59.01747813
_cell_angle_gamma   58.46437666
_symmetry_Int_Tables_number   1
_chemical_formula_structural   BaLaMgNiRuO6
_chemical_formula_sum   'Ba1 La1 Mg1 Ni1 Ru1 O6'
_cell_volume   152.39704939
_cell_formula_units_Z   1
loop_
 _symmetry_equiv_pos_site_id
 _symmetry_equiv_pos_as_xyz
  1  'x, y, z'
loop_
 _atom_site_type_symbol
 _atom_site_label
 _atom_site_symmetry_multiplicity
 _atom_site_fract_x
 _atom_site_fract_y
 _atom_site_fract_z
 _atom_site_occupancy
  Ba  Ba0  1  0.65276041  0.77559354  0.77317372  1
  La  La0  1  0.32166693  0.23393338  0.22312572  1
  Mg  Mg0  1  0.29904333  0.57192464  0.55023838  1
  Ni  Ni0  1  0.77984524  0.39254181  0.41353384  1
  Ru  Ru0  1  0.95095922  0.01951415  0.01656393  1
  O  O0  1  0.17252970  0.26757243  0.69044112  1
  O  O1  1  0.16787183  0.89556511  0.25659999  1
  O  O2  1  0.21331443  0.68862826  0.86022650  1
  O  O3  1  0.65997339  0.32497181  0.21625103  1
  O  O4  1  0.71593585  0.19184517  0.79676065  1
  O  O5  1  0.70895666  0.79267270  0.28641614  1
loop_
_geom_bond_atom_site_label_1
_geom_bond_atom_site_label_2
_geom_bond_distance
_geom_bond_site_symmetry_2
Ba0 O3 2.645602 1_556
Ba0 O5 2.665560 1_555
Ba0 O4 2.737382 1_565
Ba0 O2 2.838237 1_555
Ba0 O0 2.962745 1_565
Ba0 O1 2.963852 1_556
Ba0 O0 3.074279 1_655
Ba0 O4 3.154471 1_555
Ba0 O1 3.243366 1_655
Ba0 O3 3.276233 1_565
Ba0 O5 3.283131 1_556
La0 O3 2.445704 1_555
La0 O2 2.475244 1_554
La0 O4 2.478938 1_554
La0 O5 2.488993 1_545
La0 O0 2.490761 1_555
La0 O1 2.515561 1_545
La0 Ni0 2.768854 1_455
Mg0 O0 1.961652 1_555
Mg0 O1 1.972517 1_555
Mg0 O2 1.981522 1_555
Mg0 O3 2.430752 1_555
Ni0 O4 1.898953 1_555
Ni0 O5 1.935165 1_555
Ni0 O3 1.942306 1_555
O0 Ru0 2.093983 1_456
O1 Ru0 2.095460 1_465
O2 Ru0 2.040249 1_466
O3 Ru0 2.088651 1_555
O4 Ru0 2.016293 1_556
O5 Ru0 2.046067 1_565
