# generated using pymatgen
data_SiPt3
_symmetry_space_group_name_H-M   'P 1'
_cell_length_a   5.56096385
_cell_length_b   5.64928911
_cell_length_c   7.57504311
_cell_angle_alpha   90.00000000
_cell_angle_beta   90.00000000
_cell_angle_gamma   90.00000000
_symmetry_Int_Tables_number   1
_chemical_formula_structural   SiPt3
_chemical_formula_sum   'Si4 Pt12'
_cell_volume   237.97371015
_cell_formula_units_Z   4
loop_
 _symmetry_equiv_pos_site_id
 _symmetry_equiv_pos_as_xyz
  1  'x, y, z'
loop_
 _atom_site_type_symbol
 _atom_site_label
 _atom_site_symmetry_multiplicity
 _atom_site_fract_x
 _atom_site_fract_y
 _atom_site_fract_z
 _atom_site_occupancy
  Si  Si0  1  0.49976590  0.08486699  0.75000000  1
  Si  Si1  1  -0.00023410  0.41513301  0.25000000  1
  Si  Si2  1  0.00023410  0.58486699  0.75000000  1
  Si  Si3  1  0.50023410  0.91513301  0.25000000  1
  Pt  Pt0  1  0.31326564  0.18074838  0.04744968  1
  Pt  Pt1  1  0.81326564  0.31925162  0.95255032  1
  Pt  Pt2  1  0.18673436  0.68074838  0.45255032  1
  Pt  Pt3  1  0.68673436  0.81925162  0.54744968  1
  Pt  Pt4  1  0.68673436  0.81925162  0.95255032  1
  Pt  Pt5  1  0.18673436  0.68074838  0.04744968  1
  Pt  Pt6  1  0.81326564  0.31925162  0.54744968  1
  Pt  Pt7  1  0.31326564  0.18074838  0.45255032  1
  Pt  Pt8  1  0.07724721  0.99501128  0.75000000  1
  Pt  Pt9  1  0.57724721  0.50498872  0.25000000  1
  Pt  Pt10  1  0.42275279  0.49501128  0.75000000  1
  Pt  Pt11  1  0.92275279  0.00498872  0.25000000  1
loop_
_geom_bond_atom_site_label_1
_geom_bond_atom_site_label_2
_geom_bond_distance
_geom_bond_site_symmetry_2
Pt0 Si3 2.384702 1_545
Pt0 Si0 2.538878 1_554
Pt0 Si1 2.673336 1_555
Pt1 Si2 2.384702 1_655
Pt1 Si1 2.538878 1_656
Pt1 Si0 2.673336 1_555
Pt2 Si1 2.384702 1_555
Pt2 Si2 2.538878 1_555
Pt2 Si3 2.673336 1_555
Pt3 Si0 2.384702 1_565
Pt3 Si3 2.538878 1_555
Pt3 Si2 2.673336 1_655
Pt4 Si0 2.384702 1_565
Pt4 Si3 2.538878 1_556
Pt4 Si2 2.673336 1_655
Pt5 Si1 2.384702 1_555
Pt5 Si2 2.538878 1_554
Pt5 Si3 2.673336 1_555
Pt6 Si2 2.384702 1_655
Pt6 Si1 2.538878 1_655
Pt6 Si0 2.673336 1_555
Pt7 Si3 2.384702 1_545
Pt7 Si0 2.538878 1_555
Pt7 Si1 2.673336 1_555
Pt8 Si2 2.356271 1_555
Pt8 Si0 2.403820 1_565
Pt9 Si3 2.356271 1_555
Pt9 Si1 2.403820 1_655
Pt10 Si0 2.356271 1_555
Pt10 Si2 2.403820 1_555
Pt11 Si1 2.356271 1_655
Pt11 Si3 2.403820 1_545
