# generated using pymatgen
data_Ba2MgMn2O6
_symmetry_space_group_name_H-M   'P 1'
_cell_length_a   5.45472535
_cell_length_b   5.78209434
_cell_length_c   6.00338419
_cell_angle_alpha   117.98741128
_cell_angle_beta   85.21747369
_cell_angle_gamma   107.56803437
_symmetry_Int_Tables_number   1
_chemical_formula_structural   Ba2MgMn2O6
_chemical_formula_sum   'Ba2 Mg1 Mn2 O6'
_cell_volume   159.02065766
_cell_formula_units_Z   1
loop_
 _symmetry_equiv_pos_site_id
 _symmetry_equiv_pos_as_xyz
  1  'x, y, z'
loop_
 _atom_site_type_symbol
 _atom_site_label
 _atom_site_symmetry_multiplicity
 _atom_site_fract_x
 _atom_site_fract_y
 _atom_site_fract_z
 _atom_site_occupancy
  Ba  Ba0  1  0.38659283  0.22412496  0.60444514  1
  Ba  Ba1  1  0.75460900  0.69645669  0.35716936  1
  Mg  Mg0  1  0.98616980  0.53957943  0.77423074  1
  Mn  Mn0  1  0.50900224  0.98668218  0.96090816  1
  Mn  Mn1  1  0.01923375  0.09294773  0.07306485  1
  O  O0  1  0.30115875  0.75383663  0.64791541  1
  O  O1  1  0.18621271  0.85706249  0.12452911  1
  O  O2  1  0.37197401  0.29055979  0.07831739  1
  O  O3  1  0.83374101  0.24497893  0.41409665  1
  O  O4  1  0.85228936  0.22680565  0.89658375  1
  O  O5  1  0.71952055  0.74321553  0.90207245  1
loop_
_geom_bond_atom_site_label_1
_geom_bond_atom_site_label_2
_geom_bond_distance
_geom_bond_site_symmetry_2
Ba0 O3 2.599321 1_555
Ba0 O2 2.683660 1_556
Ba0 O1 2.717654 1_545
Ba0 O0 2.749613 1_545
Ba0 O5 2.777835 1_555
Ba1 O2 2.569999 1_555
Ba1 O1 2.775746 1_655
Ba1 O5 2.895848 1_554
Ba1 O0 2.916611 1_555
Ba1 O3 2.922850 1_565
Ba1 O3 2.942772 1_555
Ba1 O4 2.980647 1_554
Ba1 O5 3.147640 1_555
Ba1 O4 3.186740 1_565
Ba1 O0 3.431007 1_655
Mg0 O5 2.022507 1_555
Mg0 O3 2.062887 1_555
Mg0 O0 2.107473 1_655
Mg0 O1 2.129129 1_656
Mg0 O4 2.168760 1_555
Mn0 O2 1.919719 1_566
Mn0 O0 1.920443 1_555
Mn0 O5 1.966393 1_555
Mn0 O1 2.057349 1_556
Mn0 O4 2.096755 1_565
Mn1 O2 1.912548 1_555
Mn1 O4 1.976562 1_454
Mn1 O1 1.994410 1_545
Mn1 O5 2.037538 1_444
Mn1 O3 2.119077 1_455
