# generated using pymatgen
data_Na3Ca3TiPS5O24
_symmetry_space_group_name_H-M   'P 1'
_cell_length_a   9.13668322
_cell_length_b   9.11849475
_cell_length_c   23.55564840
_cell_angle_alpha   89.97496502
_cell_angle_beta   89.94450741
_cell_angle_gamma   120.49628777
_symmetry_Int_Tables_number   1
_chemical_formula_structural   Na3Ca3TiPS5O24
_chemical_formula_sum   'Na9 Ca9 Ti3 P3 S15 O72'
_cell_volume   1690.99876064
_cell_formula_units_Z   3
loop_
 _symmetry_equiv_pos_site_id
 _symmetry_equiv_pos_as_xyz
  1  'x, y, z'
loop_
 _atom_site_type_symbol
 _atom_site_label
 _atom_site_symmetry_multiplicity
 _atom_site_fract_x
 _atom_site_fract_y
 _atom_site_fract_z
 _atom_site_occupancy
  Na  Na0  1  0.36010334  0.35880999  0.25207441  1
  Na  Na1  1  0.03501282  0.70078115  0.58339434  1
  Na  Na2  1  0.29784070  0.96266691  0.07794665  1
  Na  Na3  1  0.98922359  0.00461226  0.49941907  1
  Na  Na4  1  0.99487091  0.00690052  0.99293382  1
  Na  Na5  1  0.66127308  0.33133820  0.82913969  1
  Na  Na6  1  0.68070696  0.32846263  0.33555342  1
  Na  Na7  1  0.33074758  0.66419858  0.17028877  1
  Na  Na8  1  0.36222186  0.66306278  0.66903434  1
  Ca  Ca0  1  0.99394010  0.99335281  0.35236210  1
  Ca  Ca1  1  0.00200671  0.00192216  0.85159394  1
  Ca  Ca2  1  0.99375767  0.00847115  0.65111510  1
  Ca  Ca3  1  0.98640449  0.99600055  0.14628411  1
  Ca  Ca4  1  0.65932075  0.32984529  0.68753058  1
  Ca  Ca5  1  0.68013716  0.33887497  0.18440153  1
  Ca  Ca6  1  0.33445612  0.65762791  0.01571961  1
  Ca  Ca7  1  0.34454522  0.66566018  0.51570145  1
  Ca  Ca8  1  0.33455017  0.67799647  0.32315453  1
  Ti  Ti0  1  0.67257743  0.32904834  0.97175643  1
  Ti  Ti1  1  0.66237834  0.34051710  0.48544047  1
  Ti  Ti2  1  0.31907215  0.66984310  0.82209523  1
  P  P0  1  0.67014047  0.62494236  0.58256391  1
  P  P1  1  0.03417151  0.37739169  0.91751280  1
  P  P2  1  0.34200255  0.96408604  0.92009521  1
  S  S0  1  0.29779810  0.99918769  0.24724727  1
  S  S1  1  0.69190697  0.69504404  0.25041386  1
  S  S2  1  0.00603492  0.30224349  0.25102097  1
  S  S3  1  0.30109677  0.31906922  0.75476457  1
  S  S4  1  0.01335837  0.69861033  0.75275003  1
  S  S5  1  0.68193132  0.98382437  0.75508643  1
  S  S6  1  0.94937050  0.33260671  0.57954990  1
  S  S7  1  0.37410495  0.04393271  0.57991030  1
  S  S8  1  0.95677320  0.62474070  0.07744062  1
  S  S9  1  0.66835980  0.05148096  0.07694582  1
  S  S10  1  0.38251242  0.33063212  0.08068869  1
  S  S11  1  0.62258292  0.65224191  0.91698639  1
  S  S12  1  0.63960359  0.98825306  0.42043227  1
  S  S13  1  0.34546418  0.36029056  0.41836530  1
  S  S14  1  0.01715889  0.65467077  0.42291857  1
  O  O0  1  0.20651076  0.01482530  0.29678411  1
  O  O1  1  0.79037058  0.77987032  0.30159911  1
  O  O2  1  0.99119188  0.20233309  0.30213064  1
  O  O3  1  0.21561891  0.20796043  0.80324378  1
  O  O4  1  0.99018581  0.78748577  0.80017174  1
  O  O5  1  0.79207998  0.00837652  0.80347089  1
  O  O6  1  0.74962547  0.95483666  0.70157840  1
  O  O7  1  0.20393505  0.24943200  0.70136555  1
  O  O8  1  0.04473901  0.79201419  0.69820502  1
  O  O9  1  0.77495594  0.79098764  0.19828722  1
  O  O10  1  0.02222248  0.21903495  0.19906640  1
  O  O11  1  0.20542482  0.98479623  0.19348612  1
  O  O12  1  0.87260122  0.34810762  0.63214637  1
  O  O13  1  0.46817301  0.11813272  0.63227801  1
  O  O14  1  0.66140076  0.52751562  0.63546989  1
  O  O15  1  0.87950713  0.53613542  0.13071415  1
  O  O16  1  0.65225820  0.12985754  0.12930872  1
  O  O17  1  0.46759225  0.34156054  0.13532073  1
  O  O18  1  0.48258519  0.32083290  0.03141065  1
  O  O19  1  0.85257988  0.52563586  0.02731290  1
  O  O20  1  0.67818297  0.15834543  0.02600706  1
  O  O21  1  0.47418249  0.15000801  0.52911836  1
  O  O22  1  0.67228284  0.50802908  0.52912709  1
  O  O23  1  0.84061435  0.32054602  0.52898554  1
  O  O24  1  0.55327598  0.67695119  0.96944875  1
  O  O25  1  0.13292899  0.45211458  0.97073436  1
  O  O26  1  0.32249125  0.87182352  0.97538502  1
  O  O27  1  0.55416557  0.87885969  0.46947969  1
  O  O28  1  0.32228366  0.44906190  0.46618555  1
  O  O29  1  0.11940303  0.67723573  0.47396645  1
  O  O30  1  0.09208306  0.62621818  0.37149141  1
  O  O31  1  0.54064519  0.91638365  0.36759442  1
  O  O32  1  0.37657264  0.45643503  0.36445918  1
  O  O33  1  0.13358981  0.50259940  0.86508623  1
  O  O34  1  0.36362215  0.86042094  0.86830594  1
  O  O35  1  0.51111279  0.62702876  0.86703365  1
  O  O36  1  0.99259009  0.80166804  0.41692177  1
  O  O37  1  0.81215768  0.01228147  0.41585219  1
  O  O38  1  0.19848401  0.18625416  0.41489984  1
  O  O39  1  0.99468463  0.19752037  0.90704233  1
  O  O40  1  0.19849480  0.99694750  0.90892187  1
  O  O41  1  0.79636124  0.79487021  0.90918576  1
  O  O42  1  0.96661735  0.18012338  0.57899197  1
  O  O43  1  0.20599724  0.03348859  0.57984635  1
  O  O44  1  0.84381305  0.79371109  0.57729640  1
  O  O45  1  0.97357923  0.79727319  0.07646156  1
  O  O46  1  0.82175517  0.03671950  0.07652229  1
  O  O47  1  0.21353646  0.16712337  0.07952688  1
  O  O48  1  0.65705831  0.13183638  0.75023520  1
  O  O49  1  0.47471276  0.34513959  0.75040923  1
  O  O50  1  0.86878096  0.52264864  0.74954986  1
  O  O51  1  0.66780748  0.51980308  0.24878459  1
  O  O52  1  0.85673510  0.32471038  0.24865938  1
  O  O53  1  0.46724072  0.16030010  0.24656309  1
  O  O54  1  0.63206264  0.48866374  0.92292866  1
  O  O55  1  0.85414076  0.37119412  0.92407672  1
  O  O56  1  0.51671108  0.14644172  0.92459280  1
  O  O57  1  0.65509079  0.15994921  0.42856063  1
  O  O58  1  0.50301787  0.34602768  0.42842464  1
  O  O59  1  0.84270246  0.49510778  0.42967185  1
  O  O60  1  0.35844954  0.47788894  0.07749823  1
  O  O61  1  0.13256898  0.65287347  0.07609268  1
  O  O62  1  0.51162230  0.88167638  0.07425927  1
  O  O63  1  0.34429435  0.86861852  0.57435108  1
  O  O64  1  0.51678439  0.64665128  0.57689545  1
  O  O65  1  0.11728367  0.49116429  0.57389945  1
  O  O66  1  0.31942477  0.84926242  0.25195371  1
  O  O67  1  0.51711016  0.67188816  0.25309871  1
  O  O68  1  0.16703624  0.47232449  0.25397581  1
  O  O69  1  0.31653952  0.49188276  0.76436405  1
  O  O70  1  0.17440837  0.68780960  0.76398786  1
  O  O71  1  0.50846618  0.82508821  0.76497223  1
loop_
_geom_bond_atom_site_label_1
_geom_bond_atom_site_label_2
_geom_bond_distance
_geom_bond_site_symmetry_2
Na0 O51 2.423956 1_555
Na0 O68 2.457266 1_555
Na0 O53 2.459659 1_555
Na0 O67 2.460060 1_555
Na0 O32 2.773110 1_555
Na0 O0 2.905780 1_555
Na0 O17 2.950394 1_555
Na0 O10 2.954510 1_555
Na1 O44 2.300719 1_455
Na1 O65 2.393067 1_555
Na1 O63 2.445794 1_555
Na1 O43 2.615445 1_565
Na1 O29 2.729380 1_555
Na1 O8 2.818042 1_555
Na2 O47 2.351160 1_565
Na2 O62 2.414946 1_555
Na2 O61 2.435707 1_555
Na2 O45 2.553116 1_455
Na2 O26 2.600683 1_554
Na2 O11 2.886138 1_555
Na3 O44 2.495519 1_545
Na3 O42 2.540600 1_555
Na3 O37 2.572530 1_555
Na3 O43 2.657003 1_655
Na3 O38 2.671735 1_655
Na3 O36 2.694920 1_545
Na4 O46 2.623651 1_556
Na4 O39 2.667324 1_555
Na4 O45 2.679819 1_546
Na4 O47 2.708237 1_656
Na4 O41 2.714858 1_545
Na4 O40 2.747757 1_645
Na5 O49 2.565987 1_555
Na5 O48 2.587928 1_555
Na5 O50 2.604982 1_555
Na5 O56 2.715399 1_555
Na5 O54 2.720346 1_555
Na5 O55 2.756214 1_555
Na6 O52 2.612844 1_555
Na6 O57 2.616627 1_555
Na6 O59 2.672353 1_555
Na6 O51 2.727924 1_555
Na6 O53 2.743117 1_555
Na6 O58 2.775697 1_555
Na7 O68 2.553349 1_555
Na7 O67 2.567996 1_555
Na7 O66 2.595866 1_555
Na7 O61 2.833862 1_555
Na7 O60 2.857667 1_555
Na7 O62 2.905690 1_555
Na8 O64 2.633650 1_555
Na8 O69 2.643296 1_555
Na8 O71 2.660892 1_555
Na8 O70 2.895576 1_555
Na8 O63 2.970365 1_555
Na8 O65 2.989913 1_555
Ca0 O1 2.238338 1_555
Ca0 O2 2.253571 1_565
Ca0 O0 2.265671 1_665
Ca0 O37 2.304645 1_565
Ca0 O36 2.311633 1_555
Ca0 O38 2.329765 1_665
Ca1 O3 2.215445 1_555
Ca1 O39 2.239307 1_455
Ca1 O5 2.255222 1_455
Ca1 O4 2.256146 1_445
Ca1 O40 2.266240 1_545
Ca1 O41 2.308163 1_445
Ca2 O6 2.348343 1_545
Ca2 O7 2.375002 1_655
Ca2 O42 2.406260 1_555
Ca2 O44 2.453562 1_545
Ca2 O43 2.484972 1_655
Ca2 O8 2.505061 1_645
Ca3 O9 2.248423 1_555
Ca3 O10 2.261972 1_665
Ca3 O11 2.337284 1_655
Ca3 O46 2.381697 1_565
Ca3 O45 2.406234 1_555
Ca3 O47 2.432918 1_665
Ca4 O14 2.171712 1_555
Ca4 O13 2.248439 1_555
Ca4 O12 2.278729 1_555
Ca4 O49 2.300502 1_555
Ca4 O48 2.324180 1_555
Ca4 O50 2.341014 1_555
Ca5 O15 2.195647 1_555
Ca5 O16 2.211704 1_555
Ca5 O52 2.264354 1_555
Ca5 O17 2.271788 1_555
Ca5 O51 2.285831 1_555
Ca5 O53 2.314478 1_555
Ca6 O25 2.127990 1_554
Ca6 O24 2.203233 1_554
Ca6 O26 2.223670 1_554
Ca6 O60 2.283664 1_555
Ca6 O61 2.310951 1_555
Ca6 O62 2.312095 1_555
Ca7 O27 2.201817 1_555
Ca7 O64 2.205767 1_555
Ca7 O28 2.213002 1_555
Ca7 O63 2.310879 1_555
Ca7 O65 2.315566 1_555
Ca7 O29 2.330941 1_555
Ca8 O31 2.284309 1_555
Ca8 O30 2.315196 1_555
Ca8 O66 2.342672 1_555
Ca8 O67 2.365912 1_555
Ca8 O68 2.368396 1_555
Ca8 O32 2.441722 1_555
O0 S0 1.482078 1_545
O1 S1 1.469008 1_555
O2 S2 1.473474 1_655
O3 S3 1.461041 1_555
O4 S4 1.457350 1_655
O5 S5 1.461400 1_545
O6 S5 1.485184 1_555
O7 S3 1.484652 1_555
O8 S4 1.486238 1_555
O9 S1 1.473877 1_555
O10 S2 1.486492 1_555
O11 S0 1.490990 1_555
O12 S6 1.464937 1_555
O13 S7 1.459690 1_555
O14 P0 1.508491 1_555
O15 S8 1.464375 1_555
O16 S9 1.470006 1_555
O17 S10 1.481121 1_555
O18 S10 1.507431 1_555
O18 Ti0 2.203797 1_554
O19 S8 1.499042 1_555
O19 Ti0 2.155164 1_554
O20 S9 1.518995 1_555
O20 Ti0 2.034167 1_554
O21 S7 1.517340 1_555
O21 Ti1 1.999048 1_555
O22 P0 1.656389 1_555
O22 Ti1 1.805977 1_555
O23 S6 1.519747 1_555
O23 Ti1 2.010304 1_555
O24 S11 1.456865 1_555
O25 P1 1.492999 1_555
O26 P2 1.510676 1_555
O27 S12 1.464965 1_555
O28 S13 1.463995 1_555
O29 S14 1.472495 1_555
O30 S14 1.477279 1_555
O31 S12 1.482418 1_555
O32 S13 1.485655 1_555
O33 P1 1.611733 1_555
O33 Ti2 1.896151 1_555
O34 P2 1.615809 1_555
O34 Ti2 1.911814 1_555
O35 S11 1.496524 1_555
O35 Ti2 2.247246 1_555
O36 S14 1.473868 1_655
O37 S12 1.481308 1_545
O38 S13 1.471660 1_555
O39 P1 1.510311 1_655
O40 P2 1.509184 1_555
O41 S11 1.466131 1_555
O42 S6 1.476705 1_555
O43 S7 1.489881 1_555
O44 P0 1.556450 1_555
O45 S8 1.501318 1_555
O46 S9 1.474427 1_555
O47 S10 1.507008 1_555
O48 S5 1.482387 1_545
O49 S3 1.483317 1_555
O50 S4 1.474499 1_655
O51 S1 1.498768 1_555
O52 S2 1.479737 1_655
O53 S0 1.498928 1_545
O54 S11 1.543662 1_555
O54 Ti0 2.030874 1_555
O55 P1 1.624160 1_655
O55 Ti0 1.873489 1_555
O56 P2 1.621938 1_545
O56 Ti0 1.905990 1_555
O57 S12 1.511053 1_545
O57 Ti1 2.097957 1_555
O58 S13 1.528374 1_555
O58 Ti1 2.001073 1_555
O59 S14 1.525904 1_655
O59 Ti1 2.015993 1_555
O60 S10 1.468525 1_555
O61 S8 1.492768 1_455
O62 S9 1.483900 1_565
O63 S7 1.484987 1_565
O64 P0 1.517279 1_555
O65 S6 1.486566 1_455
O66 S0 1.481338 1_555
O67 S1 1.502240 1_555
O68 S2 1.502914 1_555
O69 S3 1.526070 1_555
O69 Ti2 2.108787 1_555
O70 S4 1.546866 1_555
O70 Ti2 1.967343 1_555
O71 S5 1.527029 1_555
O71 Ti2 2.077606 1_555
