# generated using pymatgen
data_Na3Ti2In2P5SO24
_symmetry_space_group_name_H-M   'P 1'
_cell_length_a   8.82052355
_cell_length_b   8.81028086
_cell_length_c   22.49903183
_cell_angle_alpha   90.13470580
_cell_angle_beta   90.00084363
_cell_angle_gamma   119.77642612
_symmetry_Int_Tables_number   1
_chemical_formula_structural   Na3Ti2In2P5SO24
_chemical_formula_sum   'Na9 Ti6 In6 P15 S3 O72'
_cell_volume   1517.57787547
_cell_formula_units_Z   3
loop_
 _symmetry_equiv_pos_site_id
 _symmetry_equiv_pos_as_xyz
  1  'x, y, z'
loop_
 _atom_site_type_symbol
 _atom_site_label
 _atom_site_symmetry_multiplicity
 _atom_site_fract_x
 _atom_site_fract_y
 _atom_site_fract_z
 _atom_site_occupancy
  Na  Na0  1  0.00310497  0.36382702  0.75096469  1
  Na  Na1  1  0.66853251  0.95999179  0.58392245  1
  Na  Na2  1  0.04231488  0.33239551  0.08387968  1
  Na  Na3  1  0.01224217  0.99571553  0.49894727  1
  Na  Na4  1  0.00484931  0.99103580  0.99825649  1
  Na  Na5  1  0.65640184  0.32696608  0.83472379  1
  Na  Na6  1  0.67405519  0.33427686  0.33324277  1
  Na  Na7  1  0.34618721  0.67353712  0.16877099  1
  Na  Na8  1  0.33374689  0.66908395  0.66802571  1
  Ti  Ti0  1  0.97872318  0.98864130  0.35039592  1
  Ti  Ti1  1  0.00996973  0.00729083  0.84922579  1
  Ti  Ti2  1  0.66203494  0.33647377  0.68747514  1
  Ti  Ti3  1  0.67274891  0.33976350  0.18691836  1
  Ti  Ti4  1  0.66434617  0.32569122  0.98155565  1
  Ti  Ti5  1  0.67502762  0.33655607  0.48134061  1
  In  In0  1  0.00747039  0.99856249  0.64615256  1
  In  In1  1  0.99642784  0.99378065  0.14648903  1
  In  In2  1  0.33355099  0.67176662  0.01796368  1
  In  In3  1  0.32612390  0.66614143  0.51783369  1
  In  In4  1  0.32838395  0.66477883  0.31797970  1
  In  In5  1  0.33575570  0.67663423  0.81904685  1
  P  P0  1  0.70351507  0.70253893  0.24871768  1
  P  P1  1  0.99672284  0.29052858  0.24802529  1
  P  P2  1  0.29587846  0.29315064  0.74976021  1
  P  P3  1  0.99530507  0.70605598  0.74984861  1
  P  P4  1  0.70753750  -0.00010309  0.74776267  1
  P  P5  1  0.95513586  0.33850028  0.58530253  1
  P  P6  1  0.38463961  0.05410345  0.58253872  1
  P  P7  1  0.66416708  0.61604933  0.58295879  1
  P  P8  1  0.94847177  0.61798802  0.08254669  1
  P  P9  1  0.66161598  0.04607369  0.08454291  1
  P  P10  1  0.38549576  0.33483582  0.08399553  1
  P  P11  1  0.03045866  0.36271296  0.91702734  1
  P  P12  1  0.33197469  0.97001702  0.91739386  1
  P  P13  1  0.63093448  0.96680092  0.41810818  1
  P  P14  1  0.03150284  0.66920676  0.41645282  1
  S  S0  1  0.29491935  0.00553645  0.25036814  1
  S  S1  1  0.63809577  0.66824147  0.91674555  1
  S  S2  1  0.33122834  0.36039062  0.41675068  1
  O  O0  1  0.20362988  0.02336173  0.30302258  1
  O  O1  1  0.82370017  0.79941032  0.30417996  1
  O  O2  1  0.97555719  0.16553992  0.30107915  1
  O  O3  1  0.20131283  0.17226634  0.80442152  1
  O  O4  1  0.97657948  0.80388788  0.80457605  1
  O  O5  1  0.83635806  0.02915034  0.80028229  1
  O  O6  1  0.78014750  0.97501679  0.68853313  1
  O  O7  1  0.17994487  0.22105806  0.69469805  1
  O  O8  1  0.02924404  0.80965317  0.69290668  1
  O  O9  1  0.78167401  0.80975172  0.19326910  1
  O  O10  1  0.02725131  0.22061606  0.18932165  1
  O  O11  1  0.19639451  0.97827889  0.19505116  1
  O  O12  1  0.86312492  0.35152167  0.64274879  1
  O  O13  1  0.49616338  0.14799860  0.63909946  1
  O  O14  1  0.65170700  0.50867318  0.63973736  1
  O  O15  1  0.85634057  0.50669336  0.13956494  1
  O  O16  1  0.65055541  0.14388269  0.14050855  1
  O  O17  1  0.49445813  0.35031746  0.14060746  1
  O  O18  1  0.47977758  0.32066292  0.02812753  1
  O  O19  1  0.83994820  0.52092647  0.02724220  1
  O  O20  1  0.67966705  0.15777872  0.02830725  1
  O  O21  1  0.48180205  0.16071967  0.52683863  1
  O  O22  1  0.67802207  0.52052081  0.52735143  1
  O  O23  1  0.84098688  0.32100398  0.52966467  1
  O  O24  1  0.56189473  0.70244913  0.97038109  1
  O  O25  1  0.14392456  0.43723480  0.97343027  1
  O  O26  1  0.29112903  0.85357695  0.97223523  1
  O  O27  1  0.56435541  0.85751161  0.47536294  1
  O  O28  1  0.29685542  0.43653081  0.47028076  1
  O  O29  1  0.14680514  0.71174530  0.47175761  1
  O  O30  1  0.10279177  0.62240940  0.36192689  1
  O  O31  1  0.51374955  0.88606021  0.36441113  1
  O  O32  1  0.36802585  0.47206605  0.36393711  1
  O  O33  1  0.10786551  0.47589355  0.86148119  1
  O  O34  1  0.37956957  0.90122843  0.86256034  1
  O  O35  1  0.52729869  0.63217394  0.86386693  1
  O  O36  1  0.01007068  0.83250422  0.40498744  1
  O  O37  1  0.81786030  0.99032519  0.40627645  1
  O  O38  1  0.17607135  0.18492069  0.40778431  1
  O  O39  1  0.00676762  0.17690963  0.90619378  1
  O  O40  1  0.16795000  0.98988788  0.90642579  1
  O  O41  1  0.81333151  0.82439110  0.90856424  1
  O  O42  1  0.96079103  0.16600025  0.58464477  1
  O  O43  1  0.20452919  0.03843028  0.58312837  1
  O  O44  1  0.82739657  0.79968812  0.58374839  1
  O  O45  1  0.96618863  0.79882608  0.08398016  1
  O  O46  1  0.83357993  0.04014840  0.08427793  1
  O  O47  1  0.20185044  0.17096133  0.08524291  1
  O  O48  1  0.69972969  0.17430534  0.74467316  1
  O  O49  1  0.47532473  0.30336554  0.74378556  1
  O  O50  1  0.82580514  0.52194569  0.74531419  1
  O  O51  1  0.69485400  0.52158416  0.24444212  1
  O  O52  1  0.82483064  0.30083611  0.24411565  1
  O  O53  1  0.46938436  0.16760943  0.24671695  1
  O  O54  1  0.65902630  0.51215149  0.92450011  1
  O  O55  1  0.84526015  0.34059791  0.92611568  1
  O  O56  1  0.49129563  0.15662587  0.92751354  1
  O  O57  1  0.65904150  0.15426483  0.42633584  1
  O  O58  1  0.48769464  0.33999186  0.42465930  1
  O  O59  1  0.84534255  0.50863514  0.42700807  1
  O  O60  1  0.36469022  0.49911218  0.08142278  1
  O  O61  1  0.12636173  0.62346517  0.08174086  1
  O  O62  1  0.49853370  0.86607896  0.08192372  1
  O  O63  1  0.37741479  0.87512064  0.58191758  1
  O  O64  1  0.49930900  0.63459459  0.58126726  1
  O  O65  1  0.13467532  0.50149244  0.58206653  1
  O  O66  1  0.32098209  0.85196075  0.25525923  1
  O  O67  1  0.52090028  0.67813527  0.25743416  1
  O  O68  1  0.15396378  0.47378327  0.25656501  1
  O  O69  1  0.31567215  0.47414023  0.75951098  1
  O  O70  1  0.14756899  0.66823902  0.75650800  1
  O  O71  1  0.52637565  0.84252762  0.75588705  1
loop_
_geom_bond_atom_site_label_1
_geom_bond_atom_site_label_2
_geom_bond_distance
_geom_bond_site_symmetry_2
Na0 O70 2.331570 1_555
Na0 O48 2.351525 1_455
Na0 O69 2.433178 1_555
Na0 O50 2.562654 1_455
Na0 O33 2.663393 1_555
Na0 O12 2.707392 1_455
Na0 O7 2.749381 1_555
Na0 O5 2.792250 1_455
Na1 O63 2.290759 1_555
Na1 O42 2.300563 1_565
Na1 O44 2.433890 1_555
Na1 O64 2.489840 1_555
Na1 O6 2.528915 1_555
Na1 O27 2.605919 1_555
Na2 O61 2.289198 1_555
Na2 O46 2.304568 1_455
Na2 O47 2.447871 1_555
Na2 O60 2.469437 1_555
Na2 O10 2.548831 1_555
Na2 O25 2.649584 1_554
Na3 O43 2.442967 1_565
Na3 O36 2.548607 1_555
Na3 O44 2.549524 1_455
Na3 O38 2.587946 1_565
Na3 O42 2.614768 1_465
Na3 O37 2.684722 1_455
Na4 O45 2.479044 1_456
Na4 O40 2.520513 1_555
Na4 O41 2.569845 1_455
Na4 O47 2.571379 1_566
Na4 O46 2.619267 1_466
Na4 O39 2.638338 1_565
Na5 O49 2.539394 1_555
Na5 O48 2.560796 1_555
Na5 O56 2.564285 1_555
Na5 O54 2.586378 1_555
Na5 O50 2.587890 1_555
Na5 O55 2.611037 1_555
Na6 O52 2.502615 1_555
Na6 O51 2.542332 1_555
Na6 O53 2.560979 1_555
Na6 O57 2.593601 1_555
Na6 O59 2.602387 1_555
Na6 O58 2.648921 1_555
Na7 O62 2.500588 1_555
Na7 O67 2.508665 1_555
Na7 O60 2.546627 1_555
Na7 O66 2.576776 1_555
Na7 O68 2.631809 1_555
Na7 O61 2.633364 1_555
Na8 O65 2.532801 1_555
Na8 O64 2.544249 1_555
Na8 O63 2.553211 1_555
Na8 O71 2.556673 1_555
Na8 O70 2.578373 1_555
Na8 O69 2.637545 1_555
In0 O8 2.058926 1_555
In0 O7 2.092329 1_565
In0 O43 2.133373 1_565
In0 O6 2.135543 1_455
In0 O44 2.188227 1_455
In0 O42 2.207624 1_465
In1 O9 2.069378 1_555
In1 O10 2.108987 1_665
In1 O45 2.129047 1_555
In1 O11 2.136203 1_655
In1 O46 2.185113 1_565
In1 O47 2.195351 1_665
In2 O26 2.089821 1_554
In2 O25 2.151418 1_554
In2 O62 2.152493 1_555
In2 O24 2.176344 1_554
In2 O61 2.193270 1_555
In2 O60 2.202950 1_555
In3 O29 2.090680 1_555
In3 O65 2.149725 1_555
In3 O27 2.158715 1_555
In3 O28 2.185106 1_555
In3 O63 2.198544 1_555
In3 O64 2.207066 1_555
In4 O30 2.083390 1_555
In4 O31 2.095172 1_555
In4 O68 2.127311 1_555
In4 O67 2.134328 1_555
In4 O32 2.161487 1_555
In4 O66 2.198431 1_555
In5 O34 2.062660 1_555
In5 O71 2.133435 1_555
In5 O33 2.134700 1_555
In5 O70 2.148973 1_555
In5 O69 2.164084 1_555
In5 O35 2.164229 1_555
O0 S0 1.483661 1_555
O0 Ti0 2.136335 1_445
O1 P0 1.582924 1_555
O1 Ti0 1.859568 1_555
O2 P1 1.572986 1_555
O2 Ti0 1.926736 1_545
O3 P2 1.570461 1_555
O3 Ti1 1.883533 1_555
O4 P3 1.556518 1_555
O4 Ti1 1.942838 1_665
O5 P4 1.568903 1_555
O5 Ti1 1.971949 1_655
O6 P4 1.540185 1_565
O7 P2 1.528074 1_555
O8 P3 1.515954 1_455
O9 P0 1.510838 1_555
O10 P1 1.535342 1_455
O11 S0 1.467363 1_565
O12 P5 1.560179 1_555
O12 Ti2 1.985803 1_555
O13 P6 1.567855 1_555
O13 Ti2 1.913366 1_555
O14 P7 1.562483 1_555
O14 Ti2 1.899603 1_555
O15 P8 1.575459 1_555
O15 Ti3 1.887416 1_555
O16 P9 1.554351 1_555
O16 Ti3 1.939810 1_555
O17 P10 1.560005 1_555
O17 Ti3 1.926935 1_555
O18 P10 1.545832 1_555
O18 Ti4 1.918042 1_554
O19 P8 1.542002 1_555
O19 Ti4 1.939016 1_554
O20 P9 1.563645 1_555
O20 Ti4 1.875915 1_554
O21 P6 1.547033 1_555
O21 Ti5 1.933304 1_555
O22 P7 1.544595 1_555
O22 Ti5 1.910198 1_555
O23 P5 1.565061 1_555
O23 Ti5 1.882444 1_555
O24 S1 1.482681 1_555
O25 P11 1.544832 1_555
O26 P12 1.530859 1_555
O27 P13 1.541304 1_555
O28 S2 1.480086 1_555
O29 P14 1.530453 1_555
O30 P14 1.524966 1_555
O31 P13 1.516449 1_555
O32 S2 1.474335 1_555
O33 P11 1.533620 1_555
O34 P12 1.521432 1_555
O35 S1 1.470114 1_555
O36 P14 1.563332 1_555
O36 Ti0 1.965475 1_455
O37 P13 1.578978 1_555
O37 Ti0 1.901329 1_555
O38 S2 1.483482 1_555
O38 Ti0 2.165009 1_445
O39 P11 1.562416 1_555
O39 Ti1 1.977304 1_555
O40 P12 1.560927 1_555
O40 Ti1 1.958207 1_565
O41 S1 1.484845 1_555
O41 Ti1 2.149769 1_665
O42 P5 1.545189 1_555
O43 P6 1.524871 1_555
O44 P7 1.541782 1_555
O45 P8 1.521946 1_555
O46 P9 1.543414 1_555
O47 P10 1.544833 1_555
O48 P4 1.573621 1_555
O48 Ti2 2.070856 1_555
O49 P2 1.545974 1_555
O49 Ti2 1.981687 1_555
O50 P3 1.570755 1_555
O50 Ti2 2.023793 1_555
O51 P0 1.560471 1_555
O51 Ti3 1.989755 1_555
O52 P1 1.565750 1_555
O52 Ti3 2.008016 1_555
O53 S0 1.493939 1_555
O53 Ti3 2.153053 1_555
O54 S1 1.486265 1_555
O54 Ti4 2.106000 1_555
O55 P11 1.559591 1_655
O55 Ti4 1.977936 1_555
O56 P12 1.559850 1_545
O56 Ti4 1.939114 1_555
O57 P13 1.554160 1_545
O57 Ti5 1.973955 1_555
O58 S2 1.488346 1_555
O58 Ti5 2.099377 1_555
O59 P14 1.564719 1_655
O59 Ti5 1.948394 1_555
O60 P10 1.547892 1_555
O61 P8 1.545794 1_455
O62 P9 1.523583 1_565
O63 P6 1.546260 1_565
O64 P7 1.542291 1_555
O65 P5 1.522197 1_455
O66 S0 1.485036 1_565
O67 P0 1.528221 1_555
O68 P1 1.530246 1_455
O69 P2 1.530719 1_555
O70 P3 1.543343 1_455
O71 P4 1.519809 1_565
