# generated using pymatgen
data_NaLa2Ga2PS5O24
_symmetry_space_group_name_H-M   'P 1'
_cell_length_a   8.83909472
_cell_length_b   8.85014217
_cell_length_c   23.94046900
_cell_angle_alpha   89.86152530
_cell_angle_beta   90.24279359
_cell_angle_gamma   119.64196418
_symmetry_Int_Tables_number   1
_chemical_formula_structural   NaLa2Ga2PS5O24
_chemical_formula_sum   'Na3 La6 Ga6 P3 S15 O72'
_cell_volume   1627.69475300
_cell_formula_units_Z   3
loop_
 _symmetry_equiv_pos_site_id
 _symmetry_equiv_pos_as_xyz
  1  'x, y, z'
loop_
 _atom_site_type_symbol
 _atom_site_label
 _atom_site_symmetry_multiplicity
 _atom_site_fract_x
 _atom_site_fract_y
 _atom_site_fract_z
 _atom_site_occupancy
  Na  Na0  1  0.00012284  0.98639900  0.99622692  1
  Na  Na1  1  0.65456577  0.33147685  0.83032267  1
  Na  Na2  1  0.68036008  0.33174200  0.34607697  1
  La  La0  1  0.00095347  0.98775712  0.84481288  1
  La  La1  1  0.99896346  0.00661843  0.16231495  1
  La  La2  1  0.67511863  0.33482309  0.19739848  1
  La  La3  1  0.65656632  0.33746891  0.97601126  1
  La  La4  1  0.34080926  0.67166829  0.01773838  1
  La  La5  1  0.33942925  0.67506471  0.80163740  1
  Ga  Ga0  1  0.99581481  0.00248814  0.35893594  1
  Ga  Ga1  1  0.00095816  0.00172368  0.63944828  1
  Ga  Ga2  1  0.66446478  0.33159916  0.66740847  1
  Ga  Ga3  1  0.66452604  0.33446551  0.48833728  1
  Ga  Ga4  1  0.33418234  0.66782008  0.51472251  1
  Ga  Ga5  1  0.32825917  0.65946754  0.32843308  1
  P  P0  1  0.01570938  0.30701279  0.27088823  1
  P  P1  1  0.64260054  0.66955430  0.91158534  1
  P  P2  1  0.33201539  0.97346237  0.91145551  1
  S  S0  1  0.28829288  0.98176471  0.27086968  1
  S  S1  1  0.69188622  0.71037524  0.27089311  1
  S  S2  1  0.30700653  0.27843327  0.73140430  1
  S  S3  1  0.96994741  0.68956351  0.72978327  1
  S  S4  1  0.72477526  0.03131014  0.73138257  1
  S  S5  1  0.95839849  0.33523184  0.57693051  1
  S  S6  1  0.37580938  0.04012246  0.57731891  1
  S  S7  1  0.66326205  0.62416180  0.57740755  1
  S  S8  1  0.96925359  0.64500266  0.08632422  1
  S  S9  1  0.67750652  0.03370345  0.08568708  1
  S  S10  1  0.35333792  0.32391201  0.08861170  1
  S  S11  1  0.02969449  0.36060033  0.91136447  1
  S  S12  1  0.61981964  0.95577090  0.42191107  1
  S  S13  1  0.34059459  0.37889881  0.42321540  1
  S  S14  1  0.04080598  0.66460099  0.42243334  1
  O  O0  1  0.19093429  0.00807396  0.31693019  1
  O  O1  1  0.82093106  0.80005617  0.31644756  1
  O  O2  1  0.98021460  0.17407630  0.31860570  1
  O  O3  1  0.24292413  0.18287992  0.78469860  1
  O  O4  1  0.93756319  0.75130198  0.78348777  1
  O  O5  1  0.81928813  0.06032374  0.78480205  1
  O  O6  1  0.81748064  0.00350115  0.68422711  1
  O  O7  1  0.18768554  0.18512088  0.68402433  1
  O  O8  1  0.99905977  0.81351911  0.68367117  1
  O  O9  1  0.76034636  0.79528056  0.21612895  1
  O  O10  1  0.03222771  0.23557974  0.21383470  1
  O  O11  1  0.20075886  0.96103541  0.21615028  1
  O  O12  1  0.88249812  0.37955121  0.62557328  1
  O  O13  1  0.49624790  0.11474185  0.62617095  1
  O  O14  1  0.61698195  0.50264728  0.62583375  1
  O  O15  1  0.86292204  0.55475768  0.13665638  1
  O  O16  1  0.69681241  0.14009798  0.13638702  1
  O  O17  1  0.44419756  0.30814337  0.13893628  1
  O  O18  1  0.44443589  0.32265645  0.03694496  1
  O  O19  1  0.87661962  0.55433372  0.03456635  1
  O  O20  1  0.67602853  0.12531142  0.03426869  1
  O  O21  1  0.44880688  0.16371837  0.52874590  1
  O  O22  1  0.71352698  0.55064678  0.52878676  1
  O  O23  1  0.83428591  0.28527182  0.52804367  1
  O  O24  1  0.54303738  0.64046918  0.96693235  1
  O  O25  1  0.10647199  0.45289325  0.96433297  1
  O  O26  1  0.34294378  0.88764884  0.96615981  1
  O  O27  1  0.54517870  0.84299759  0.47241416  1
  O  O28  1  0.30019247  0.45511728  0.47283728  1
  O  O29  1  0.15647333  0.70398068  0.47250455  1
  O  O30  1  0.11655773  0.62172212  0.37357908  1
  O  O31  1  0.50006393  0.87850593  0.37330742  1
  O  O32  1  0.38633789  0.49829391  0.37440450  1
  O  O33  1  0.13891367  0.45043434  0.86226320  1
  O  O34  1  0.29915261  0.85829380  0.85908029  1
  O  O35  1  0.54592245  0.68664621  0.86012127  1
  O  O36  1  0.01785413  0.81697401  0.41129191  1
  O  O37  1  0.79353684  0.97500906  0.41140751  1
  O  O38  1  0.19101039  0.20484556  0.41207401  1
  O  O39  1  0.00946227  0.18535499  0.91630075  1
  O  O40  1  0.17891628  0.00927899  0.91779838  1
  O  O41  1  0.81965060  0.83716396  0.91792502  1
  O  O42  1  0.98426504  0.18442032  0.58914964  1
  O  O43  1  0.19958328  0.01461512  0.58945722  1
  O  O44  1  0.81265443  0.79905333  0.58990527  1
  O  O45  1  0.99301758  0.82261503  0.08443912  1
  O  O46  1  0.82994900  0.00669411  0.08266035  1
  O  O47  1  0.17689561  0.16981421  0.08528330  1
  O  O48  1  0.71204184  0.19172913  0.72191052  1
  O  O49  1  0.48055274  0.29089630  0.72228235  1
  O  O50  1  0.80913656  0.51917742  0.71983990  1
  O  O51  1  0.66035479  0.52949913  0.26906903  1
  O  O52  1  0.85545848  0.33516442  0.26930293  1
  O  O53  1  0.46446640  0.13782075  0.26902206  1
  O  O54  1  0.67188619  0.51412682  0.90136737  1
  O  O55  1  0.85695404  0.34625717  0.90295797  1
  O  O56  1  0.50178850  0.14672263  0.90287697  1
  O  O57  1  0.63754000  0.13278845  0.43128189  1
  O  O58  1  0.50134727  0.36253324  0.43390510  1
  O  O59  1  0.86539242  0.50563445  0.43253859  1
  O  O60  1  0.34268205  0.48342620  0.09234727  1
  O  O61  1  0.13795844  0.65170760  0.09063297  1
  O  O62  1  0.51713819  0.86580405  0.09142140  1
  O  O63  1  0.36164864  0.86950963  0.56431629  1
  O  O64  1  0.50726522  0.64019717  0.56406663  1
  O  O65  1  0.12885756  0.49017180  0.56385407  1
  O  O66  1  0.30049201  0.82368086  0.27971423  1
  O  O67  1  0.52891089  0.71330978  0.28025018  1
  O  O68  1  0.18596393  0.47964789  0.28015083  1
  O  O69  1  0.32684821  0.45261977  0.73557764  1
  O  O70  1  0.12242589  0.66605928  0.73425884  1
  O  O71  1  0.54959367  0.87864929  0.73487748  1
loop_
_geom_bond_atom_site_label_1
_geom_bond_atom_site_label_2
_geom_bond_distance
_geom_bond_site_symmetry_2
Na0 O41 2.388669 1_455
Na0 O40 2.402247 1_565
Na0 O45 2.541885 1_456
Na0 O39 2.570959 1_565
Na0 O46 2.621463 1_466
Na0 O47 2.664897 1_566
Na1 O54 2.301216 1_555
Na1 O56 2.310047 1_555
Na1 O55 2.446323 1_555
Na2 O52 2.398346 1_555
Na2 O57 2.595092 1_555
Na2 O53 2.595379 1_555
Na2 O51 2.604044 1_555
Na2 O59 2.612461 1_555
Na2 O58 2.730673 1_555
La0 O40 2.290356 1_565
La0 O41 2.303901 1_455
La0 O4 2.386776 1_455
La0 O39 2.424087 1_565
La0 O3 2.447126 1_565
La0 O5 2.459887 1_465
La1 O10 2.265716 1_655
La1 O11 2.386457 1_645
La1 O9 2.390792 1_545
La1 O47 2.392772 1_655
La1 O46 2.417687 1_555
La1 O45 2.461655 1_545
La2 O15 2.338734 1_555
La2 O52 2.340148 1_555
La2 O16 2.341277 1_555
La2 O17 2.383601 1_555
La2 O51 2.483566 1_555
La2 O53 2.499680 1_555
La3 O54 2.331360 1_555
La3 O18 2.332408 1_556
La3 O56 2.344466 1_555
La3 O19 2.393602 1_556
La3 O20 2.409376 1_556
La3 O55 2.468085 1_555
La4 O26 2.265373 1_554
La4 O24 2.293281 1_554
La4 O25 2.386723 1_554
La4 O62 2.415659 1_555
La4 O60 2.445155 1_555
La4 O61 2.450167 1_555
La5 O35 2.257490 1_555
La5 O34 2.287688 1_555
La5 O33 2.392206 1_555
La5 O71 2.439704 1_555
La5 O70 2.471984 1_555
La5 O69 2.487203 1_555
Ga0 O2 1.859099 1_555
Ga0 O1 1.972304 1_545
Ga0 O0 1.979493 1_655
Ga0 O37 2.102713 1_545
Ga0 O36 2.146853 1_645
Ga0 O38 2.176809 1_655
Ga1 O6 1.954404 1_455
Ga1 O7 1.959850 1_555
Ga1 O8 1.964559 1_445
Ga1 O42 2.076346 1_455
Ga1 O43 2.084885 1_555
Ga1 O44 2.105908 1_445
Ga2 O50 1.965549 1_555
Ga2 O48 1.978423 1_555
Ga2 O49 1.983630 1_555
Ga2 O13 2.010692 1_555
Ga2 O14 2.018920 1_555
Ga2 O12 2.025506 1_555
Ga3 O22 1.992873 1_555
Ga3 O23 1.994205 1_555
Ga3 O21 2.003390 1_555
Ga3 O58 2.043806 1_555
Ga3 O59 2.140444 1_555
Ga3 O57 2.167100 1_555
Ga4 O27 2.013986 1_555
Ga4 O29 2.018307 1_555
Ga4 O28 2.021518 1_555
Ga4 O64 2.036935 1_555
Ga4 O63 2.057650 1_555
Ga4 O65 2.082280 1_555
Ga5 O68 1.862082 1_555
Ga5 O66 1.968486 1_555
Ga5 O67 1.970272 1_555
Ga5 O30 2.044115 1_555
Ga5 O32 2.054606 1_555
Ga5 O31 2.074241 1_555
O0 S0 1.489374 1_545
O1 S1 1.489477 1_555
O2 P0 1.555331 1_655
O3 S2 1.480195 1_555
O4 S3 1.481472 1_555
O5 S4 1.476394 1_555
O6 S4 1.488348 1_555
O7 S2 1.487897 1_555
O8 S3 1.485159 1_555
O9 S1 1.483891 1_555
O10 P0 1.543957 1_555
O11 S0 1.483438 1_555
O12 S5 1.493048 1_555
O13 S6 1.494998 1_555
O14 S7 1.493583 1_555
O15 S8 1.495208 1_555
O16 S9 1.494602 1_555
O17 S10 1.489245 1_555
O18 S10 1.481841 1_555
O19 S8 1.481897 1_555
O20 S9 1.475908 1_555
O21 S6 1.505702 1_555
O22 S7 1.506515 1_555
O23 S5 1.510164 1_555
O24 P1 1.542925 1_555
O25 S11 1.478238 1_555
O26 P2 1.538822 1_555
O27 S12 1.497611 1_555
O28 S13 1.496519 1_555
O29 S14 1.497624 1_555
O30 S14 1.490105 1_555
O31 S12 1.489784 1_555
O32 S13 1.490292 1_555
O33 S11 1.480471 1_555
O34 P2 1.551041 1_555
O35 P1 1.545696 1_555
O36 S14 1.482981 1_555
O37 S12 1.481369 1_555
O38 S13 1.475308 1_555
O39 S11 1.475235 1_555
O40 P2 1.543089 1_545
O41 P1 1.541219 1_555
O42 S5 1.489524 1_555
O43 S6 1.489116 1_555
O44 S7 1.485304 1_555
O45 S8 1.479915 1_555
O46 S9 1.482407 1_555
O47 S10 1.481274 1_555
O48 S4 1.495331 1_555
O49 S2 1.499448 1_555
O50 S3 1.493212 1_555
O51 S1 1.483577 1_555
O52 P0 1.555150 1_655
O53 S0 1.485689 1_545
O54 P1 1.540577 1_555
O55 S11 1.481131 1_655
O56 P2 1.539591 1_545
O57 S12 1.512571 1_545
O58 S13 1.518473 1_555
O59 S14 1.511853 1_655
O60 S10 1.463571 1_555
O61 S8 1.465958 1_455
O62 S9 1.467432 1_565
O63 S6 1.485767 1_565
O64 S7 1.487630 1_555
O65 S5 1.485508 1_455
O66 S0 1.470185 1_555
O67 S1 1.471674 1_555
O68 P0 1.540353 1_555
O69 S2 1.466410 1_555
O70 S3 1.465342 1_455
O71 S4 1.470120 1_565
