# generated using pymatgen
data_Na3Ca2Sn2P3(SO8)3
_symmetry_space_group_name_H-M   'P 1'
_cell_length_a   9.01251514
_cell_length_b   8.98998214
_cell_length_c   23.48678141
_cell_angle_alpha   90.09420223
_cell_angle_beta   89.72297162
_cell_angle_gamma   120.06947794
_symmetry_Int_Tables_number   1
_chemical_formula_structural   Na3Ca2Sn2P3(SO8)3
_chemical_formula_sum   'Na9 Ca6 Sn6 P9 S9 O72'
_cell_volume   1646.83179694
_cell_formula_units_Z   3
loop_
 _symmetry_equiv_pos_site_id
 _symmetry_equiv_pos_as_xyz
  1  'x, y, z'
loop_
 _atom_site_type_symbol
 _atom_site_label
 _atom_site_symmetry_multiplicity
 _atom_site_fract_x
 _atom_site_fract_y
 _atom_site_fract_z
 _atom_site_occupancy
  Na  Na0  1  0.66100286  0.68480790  0.08471687  1
  Na  Na1  1  0.33209774  0.29621424  0.91584558  1
  Na  Na2  1  0.33178150  0.03557279  0.41578504  1
  Na  Na3  1  0.99589232  0.00157269  0.50295204  1
  Na  Na4  1  0.00759916  0.99666816  0.00276135  1
  Na  Na5  1  0.68049390  0.33402169  0.82965839  1
  Na  Na6  1  0.68005892  0.34538597  0.32913634  1
  Na  Na7  1  0.31198873  0.65592195  0.16600598  1
  Na  Na8  1  0.33447994  0.67764827  0.66580861  1
  Ca  Ca0  1  0.99650631  0.00185217  0.34459843  1
  Ca  Ca1  1  0.99340186  0.99131445  0.84408848  1
  Ca  Ca2  1  0.67450528  0.33785833  0.98481374  1
  Ca  Ca3  1  0.66769790  0.33497850  0.48477290  1
  Ca  Ca4  1  0.31825251  0.66379189  0.02377454  1
  Ca  Ca5  1  0.33310268  0.66939770  0.52456312  1
  Sn  Sn0  1  0.00717387  0.00126518  0.65639894  1
  Sn  Sn1  1  0.01088432  0.00403109  0.15660745  1
  Sn  Sn2  1  0.66010808  0.32723651  0.68504104  1
  Sn  Sn3  1  0.66588230  0.33532736  0.18519163  1
  Sn  Sn4  1  0.33334844  0.66236037  0.30943787  1
  Sn  Sn5  1  0.33388037  0.67096636  0.80925234  1
  P  P0  1  0.30624827  0.00127485  0.25164694  1
  P  P1  1  0.69926015  0.69946896  0.24827202  1
  P  P2  1  0.99676347  0.30012657  0.24866618  1
  P  P3  1  0.30294185  0.30317108  0.75139916  1
  P  P4  1  0.99667613  0.69383513  0.74830969  1
  P  P5  1  0.70200144  0.00105159  0.74832774  1
  P  P6  1  0.36127159  0.04001327  0.58625733  1
  P  P7  1  0.95859244  0.63675720  0.08942891  1
  P  P8  1  0.36525963  0.32280889  0.08563753  1
  S  S0  1  0.95795994  0.32134790  0.58829842  1
  S  S1  1  0.67841487  0.63739012  0.58845645  1
  S  S2  1  0.67805882  0.04059873  0.08792451  1
  S  S3  1  0.62027320  0.66643868  0.91573211  1
  S  S4  1  0.04373027  0.37746829  0.91268831  1
  S  S5  1  0.33537961  0.95968983  0.91360949  1
  S  S6  1  0.62102205  0.95467515  0.41435986  1
  S  S7  1  0.33488896  0.37720763  0.41444568  1
  S  S8  1  0.04442357  0.66479560  0.41362706  1
  O  O0  1  0.24219602  0.03447842  0.30708718  1
  O  O1  1  0.80405863  0.77376992  0.30063993  1
  O  O2  1  0.96515190  0.19976247  0.30244333  1
  O  O3  1  0.23801514  0.20633833  0.80676919  1
  O  O4  1  0.96119866  0.76002938  0.80210724  1
  O  O5  1  0.80203415  0.03351982  0.80194537  1
  O  O6  1  0.78656187  0.96843882  0.69482616  1
  O  O7  1  0.18298637  0.21571065  0.69935830  1
  O  O8  1  0.03139549  0.81162593  0.69521963  1
  O  O9  1  0.78031116  0.81168672  0.19310671  1
  O  O10  1  0.02988389  0.21632793  0.19513170  1
  O  O11  1  0.18627660  0.96792292  0.19961980  1
  O  O12  1  0.87107009  0.34745729  0.63905873  1
  O  O13  1  0.48273907  0.14067753  0.63714069  1
  O  O14  1  0.65894326  0.52804615  0.63947534  1
  O  O15  1  0.86622768  0.51805974  0.14126241  1
  O  O16  1  0.65261436  0.12446162  0.13887142  1
  O  O17  1  0.48902084  0.34697919  0.13586946  1
  O  O18  1  0.43040621  0.29372602  0.02858685  1
  O  O19  1  0.85100014  0.56756925  0.03534593  1
  O  O20  1  0.70251943  0.13818788  0.03553691  1
  O  O21  1  0.42931200  0.13421147  0.52950377  1
  O  O22  1  0.70537237  0.56540421  0.53620192  1
  O  O23  1  0.86139197  0.29753686  0.53600432  1
  O  O24  1  0.53962369  0.67899304  0.96859810  1
  O  O25  1  0.14536772  0.46022912  0.96363678  1
  O  O26  1  0.32180150  0.86160117  0.96441669  1
  O  O27  1  0.53699000  0.85674032  0.46573983  1
  O  O28  1  0.32105235  0.46197762  0.46531469  1
  O  O29  1  0.14652450  0.68325191  0.46437885  1
  O  O30  1  0.13050996  0.64676788  0.36028099  1
  O  O31  1  0.51162921  0.86831188  0.36183002  1
  O  O32  1  0.35148760  0.47856450  0.36077820  1
  O  O33  1  0.13097734  0.48307766  0.85978306  1
  O  O34  1  0.35104433  0.87367196  0.85998544  1
  O  O35  1  0.50858301  0.64543815  0.86416906  1
  O  O36  1  0.03627022  0.82610309  0.40969332  1
  O  O37  1  0.79211173  0.97543231  0.40991324  1
  O  O38  1  0.18200384  0.20198090  0.41135328  1
  O  O39  1  0.03545146  0.20811694  0.90866250  1
  O  O40  1  0.18203317  0.98071913  0.91067180  1
  O  O41  1  0.79150954  0.81772746  0.91080589  1
  O  O42  1  0.96747888  0.15948277  0.59553361  1
  O  O43  1  0.18196694  0.03068496  0.59514811  1
  O  O44  1  0.83633669  0.81205362  0.59513994  1
  O  O45  1  0.96371847  0.81520698  0.09742917  1
  O  O46  1  0.83469599  0.02273185  0.09443324  1
  O  O47  1  0.18365536  0.16183761  0.09559873  1
  O  O48  1  0.67626555  0.15879916  0.73870161  1
  O  O49  1  0.48513613  0.32783819  0.74035278  1
  O  O50  1  0.83968375  0.51053899  0.73734425  1
  O  O51  1  0.67169019  0.51478194  0.24027266  1
  O  O52  1  0.83903052  0.32404911  0.23868113  1
  O  O53  1  0.48783791  0.15871390  0.23996766  1
  O  O54  1  0.62769952  0.50389539  0.91531489  1
  O  O55  1  0.87244870  0.35814558  0.91460554  1
  O  O56  1  0.49036621  0.13422893  0.91410412  1
  O  O57  1  0.62881266  0.12509649  0.41567640  1
  O  O58  1  0.48996007  0.35785465  0.41491684  1
  O  O59  1  0.87255839  0.51254076  0.41559635  1
  O  O60  1  0.35933314  0.49127730  0.08572557  1
  O  O61  1  0.13848108  0.66408117  0.08769490  1
  O  O62  1  0.52820345  0.86506429  0.08504676  1
  O  O63  1  0.33920062  0.86039046  0.58771809  1
  O  O64  1  0.52510770  0.65387532  0.58673805  1
  O  O65  1  0.13081582  0.47094811  0.58643631  1
  O  O66  1  0.32390623  0.83616813  0.25456562  1
  O  O67  1  0.51595683  0.68073867  0.25268287  1
  O  O68  1  0.16212769  0.48425179  0.25248312  1
  O  O69  1  0.32252672  0.48698625  0.75423602  1
  O  O70  1  0.16191599  0.67633731  0.75274635  1
  O  O71  1  0.51745201  0.83642075  0.75235424  1
loop_
_geom_bond_atom_site_label_1
_geom_bond_atom_site_label_2
_geom_bond_distance
_geom_bond_site_symmetry_2
Na0 O60 2.383021 1_555
Na0 O45 2.389221 1_555
Na0 O62 2.449898 1_555
Na0 O46 2.639544 1_565
Na0 O19 2.678236 1_555
Na0 O9 2.779540 1_555
Na0 O17 2.889004 1_555
Na0 O24 2.934011 1_554
Na1 O54 2.366182 1_555
Na1 O39 2.384436 1_555
Na1 O40 2.458640 1_545
Na1 O56 2.497542 1_555
Na1 O3 2.694913 1_555
Na1 O18 2.799961 1_556
Na2 O36 2.374183 1_545
Na2 O57 2.378020 1_555
Na2 O38 2.469120 1_555
Na2 O58 2.507585 1_555
Na2 O0 2.679829 1_555
Na2 O21 2.815392 1_555
Na3 O42 2.675411 1_555
Na3 O43 2.676409 1_655
Na3 O44 2.680600 1_545
Na3 O38 2.763568 1_655
Na3 O37 2.794257 1_545
Na3 O36 2.823941 1_645
Na4 O45 2.668007 1_455
Na4 O47 2.671827 1_565
Na4 O40 2.713316 1_554
Na4 O46 2.729599 1_465
Na4 O41 2.816888 1_454
Na4 O39 2.844511 1_564
Na5 O55 2.583885 1_555
Na5 O48 2.641235 1_555
Na5 O50 2.641448 1_555
Na5 O56 2.643983 1_555
Na5 O54 2.704578 1_555
Na5 O49 2.727598 1_555
Na6 O59 2.608285 1_555
Na6 O51 2.609208 1_555
Na6 O52 2.616802 1_555
Na6 O58 2.676795 1_555
Na6 O53 2.704378 1_555
Na6 O57 2.711847 1_555
Na7 O61 2.444749 1_555
Na7 O68 2.495238 1_555
Na7 O60 2.558139 1_555
Na7 O66 2.603892 1_555
Na7 O67 2.682728 1_555
Na7 O62 2.693012 1_555
Na8 O63 2.450261 1_555
Na8 O70 2.557187 1_555
Na8 O71 2.559810 1_555
Na8 O64 2.604223 1_555
Na8 O65 2.626999 1_555
Na8 O69 2.662232 1_555
Ca0 O1 2.173725 1_545
Ca0 O2 2.176704 1_555
Ca0 O0 2.257526 1_655
Ca0 O37 2.310513 1_545
Ca0 O38 2.343496 1_655
Ca0 O36 2.354329 1_645
Ca1 O4 2.184264 1_555
Ca1 O5 2.184445 1_565
Ca1 O3 2.254223 1_665
Ca1 O41 2.310089 1_555
Ca1 O39 2.344835 1_665
Ca1 O40 2.352285 1_655
Ca2 O19 2.218523 1_556
Ca2 O18 2.271333 1_556
Ca2 O20 2.273597 1_556
Ca2 O55 2.362496 1_555
Ca2 O54 2.390834 1_555
Ca2 O56 2.415704 1_555
Ca3 O21 2.252945 1_555
Ca3 O22 2.270774 1_555
Ca3 O23 2.284507 1_555
Ca3 O59 2.371252 1_555
Ca3 O57 2.376850 1_555
Ca3 O58 2.378401 1_555
Ca4 O61 2.204444 1_555
Ca4 O25 2.219714 1_554
Ca4 O26 2.248930 1_554
Ca4 O60 2.290749 1_555
Ca4 O24 2.319678 1_554
Ca4 O62 2.347805 1_555
Ca5 O27 2.236882 1_555
Ca5 O63 2.247050 1_555
Ca5 O29 2.252688 1_555
Ca5 O28 2.283709 1_555
Ca5 O65 2.311263 1_555
Ca5 O64 2.326684 1_555
O0 P0 1.510620 1_555
O1 P1 1.492433 1_555
O2 P2 1.494401 1_555
O3 P3 1.509082 1_555
O4 P4 1.495716 1_555
O5 P5 1.493285 1_555
O6 P5 1.568180 1_565
O6 Sn0 2.061650 1_665
O7 P3 1.561648 1_555
O7 Sn0 2.047753 1_555
O8 P4 1.562875 1_455
O8 Sn0 2.040954 1_565
O9 P1 1.576939 1_555
O9 Sn1 2.104754 1_665
O10 P2 1.567218 1_455
O10 Sn1 2.039331 1_555
O11 P0 1.561683 1_565
O11 Sn1 2.038464 1_565
O12 S0 1.504631 1_555
O12 Sn2 2.109210 1_555
O13 P6 1.569060 1_555
O13 Sn2 1.989581 1_555
O14 S1 1.503964 1_555
O14 Sn2 2.104731 1_555
O15 P7 1.554999 1_555
O15 Sn3 2.009619 1_555
O16 S2 1.490109 1_555
O16 Sn3 2.135128 1_555
O17 P8 1.565961 1_555
O17 Sn3 2.019705 1_555
O18 P8 1.534141 1_555
O19 P7 1.531523 1_555
O20 S2 1.462646 1_555
O21 P6 1.531461 1_555
O22 S1 1.461554 1_555
O23 S0 1.461021 1_555
O24 S3 1.468256 1_555
O25 S4 1.466028 1_555
O26 S5 1.452737 1_555
O27 S6 1.459945 1_555
O28 S7 1.454146 1_555
O29 S8 1.466998 1_555
O30 S8 1.521178 1_555
O30 Sn4 2.123715 1_555
O31 S6 1.529220 1_555
O31 Sn4 2.134099 1_555
O32 S7 1.518820 1_555
O32 Sn4 2.118971 1_555
O33 S4 1.519871 1_555
O33 Sn5 2.120360 1_555
O34 S5 1.519419 1_555
O34 Sn5 2.115831 1_555
O35 S3 1.528445 1_555
O35 Sn5 2.139649 1_555
O36 S8 1.491364 1_555
O37 S6 1.460650 1_555
O38 S7 1.486887 1_555
O39 S4 1.489352 1_555
O40 S5 1.487723 1_555
O41 S3 1.462978 1_555
O42 S0 1.509899 1_555
O42 Sn0 2.171692 1_655
O43 P6 1.588407 1_555
O43 Sn0 2.045224 1_555
O44 S1 1.509220 1_555
O44 Sn0 2.173242 1_665
O45 P7 1.592456 1_555
O45 Sn1 2.066151 1_665
O46 S2 1.507131 1_555
O46 Sn1 2.229985 1_655
O47 P8 1.565774 1_555
O47 Sn1 2.064426 1_555
O48 P5 1.564366 1_555
O48 Sn2 2.032625 1_555
O49 P3 1.563304 1_555
O49 Sn2 2.040373 1_555
O50 P4 1.565032 1_555
O50 Sn2 2.045452 1_555
O51 P1 1.561971 1_555
O51 Sn3 2.046515 1_555
O52 P2 1.559446 1_555
O52 Sn3 2.049794 1_555
O53 P0 1.559686 1_555
O53 Sn3 2.045619 1_555
O54 S3 1.495932 1_555
O55 S4 1.464848 1_655
O56 S5 1.488981 1_545
O57 S6 1.498411 1_545
O58 S7 1.492463 1_555
O59 S8 1.466220 1_655
O60 P8 1.541981 1_555
O61 P7 1.513525 1_455
O62 S2 1.477717 1_565
O63 P6 1.525311 1_565
O64 S1 1.462326 1_555
O65 S0 1.462047 1_455
O66 P0 1.571733 1_565
O66 Sn4 2.061699 1_555
O67 P1 1.577311 1_555
O67 Sn4 2.054196 1_555
O68 P2 1.580446 1_455
O68 Sn4 2.066724 1_555
O69 P3 1.572830 1_555
O69 Sn5 2.059231 1_555
O70 P4 1.577881 1_455
O70 Sn5 2.064149 1_555
O71 P5 1.580490 1_565
O71 Sn5 2.062666 1_555
