# generated using pymatgen
data_Ba2MgMn2O6
_symmetry_space_group_name_H-M   'P 1'
_cell_length_a   6.08221296
_cell_length_b   6.23545917
_cell_length_c   5.72285221
_cell_angle_alpha   101.70855405
_cell_angle_beta   94.51519286
_cell_angle_gamma   123.84301142
_symmetry_Int_Tables_number   1
_chemical_formula_structural   Ba2MgMn2O6
_chemical_formula_sum   'Ba2 Mg1 Mn2 O6'
_cell_volume   171.54061865
_cell_formula_units_Z   1
loop_
 _symmetry_equiv_pos_site_id
 _symmetry_equiv_pos_as_xyz
  1  'x, y, z'
loop_
 _atom_site_type_symbol
 _atom_site_label
 _atom_site_symmetry_multiplicity
 _atom_site_fract_x
 _atom_site_fract_y
 _atom_site_fract_z
 _atom_site_occupancy
  Ba  Ba0  1  0.67899100  0.30024500  0.30013500  1
  Ba  Ba1  1  0.38851100  0.77103200  0.64621700  1
  Mg  Mg0  1  0.25674300  0.40496400  0.02256300  1
  Mn  Mn0  1  0.01296400  0.03658400  0.50822400  1
  Mn  Mn1  1  0.94875800  0.86184100  0.98939900  1
  O  O0  1  0.79362200  0.73059600  0.64053400  1
  O  O1  1  0.11076800  0.83366100  0.28629200  1
  O  O2  1  0.60917600  0.75496200  0.08821700  1
  O  O3  1  0.29294100  0.10228800  0.90273400  1
  O  O4  1  0.12827500  0.28640900  0.30715900  1
  O  O5  1  0.95633300  0.27158300  0.73352700  1
loop_
_geom_bond_atom_site_label_1
_geom_bond_atom_site_label_2
_geom_bond_distance
_geom_bond_site_symmetry_2
Ba0 O3 2.645904 1_554
Ba0 O0 2.657524 1_555
Ba0 O4 2.779045 1_655
Ba0 O1 2.894197 1_655
Ba0 O5 2.980935 1_555
Ba0 O1 3.013100 1_545
Ba0 O2 3.138298 1_545
Ba1 O0 2.614777 1_555
Ba1 O3 2.645820 1_565
Ba1 O4 2.685339 1_555
Ba1 O1 2.786110 1_555
Ba1 O2 2.815649 1_556
Ba1 O5 2.928864 1_455
Ba1 O5 3.001288 1_565
Mg0 O2 1.956692 1_555
Mg0 O4 1.963503 1_555
Mg0 O5 2.009841 1_454
Mg0 O3 2.010481 1_554
Mn0 O5 1.947713 1_455
Mn0 O1 1.968016 1_545
Mn0 O4 1.969831 1_555
Mn0 O0 1.975785 1_445
Mn0 O3 2.531232 1_555
Mn1 O0 1.930347 1_555
Mn1 O2 1.957952 1_556
Mn1 O3 1.961005 1_665
Mn1 O1 1.984724 1_656
Mn1 O4 2.453874 1_666
