# generated using pymatgen
data_NaIO3
_symmetry_space_group_name_H-M   'P 1'
_cell_length_a   5.71285073
_cell_length_b   6.37266126
_cell_length_c   8.00742924
_cell_angle_alpha   90.00000000
_cell_angle_beta   90.00000000
_cell_angle_gamma   90.00000000
_symmetry_Int_Tables_number   1
_chemical_formula_structural   NaIO3
_chemical_formula_sum   'Na4 I4 O12'
_cell_volume   291.51896963
_cell_formula_units_Z   4
loop_
 _symmetry_equiv_pos_site_id
 _symmetry_equiv_pos_as_xyz
  1  'x, y, z'
loop_
 _atom_site_type_symbol
 _atom_site_label
 _atom_site_symmetry_multiplicity
 _atom_site_fract_x
 _atom_site_fract_y
 _atom_site_fract_z
 _atom_site_occupancy
  Na  Na0  1  0.50000000  0.00000000  -0.00000000  1
  Na  Na1  1  0.00000000  0.50000000  -0.00000000  1
  Na  Na2  1  0.00000000  0.50000000  0.50000000  1
  Na  Na3  1  0.50000000  0.00000000  0.50000000  1
  I  I0  1  0.01130146  0.00898462  0.25000000  1
  I  I1  1  0.51130146  0.49101538  0.75000000  1
  I  I2  1  0.48869854  0.50898462  0.25000000  1
  I  I3  1  0.98869854  0.99101538  0.75000000  1
  O  O0  1  0.13638884  0.16481708  0.41822974  1
  O  O1  1  0.63638884  0.33518292  0.58177026  1
  O  O2  1  0.36361116  0.66481708  0.08177026  1
  O  O3  1  0.86361116  0.83518292  0.91822974  1
  O  O4  1  0.86361116  0.83518292  0.58177026  1
  O  O5  1  0.36361116  0.66481708  0.41822974  1
  O  O6  1  0.63638884  0.33518292  0.91822974  1
  O  O7  1  0.13638884  0.16481708  0.08177026  1
  O  O8  1  0.71005479  0.09439145  0.25000000  1
  O  O9  1  0.21005479  0.40560855  0.75000000  1
  O  O10  1  0.78994521  0.59439145  0.25000000  1
  O  O11  1  0.28994521  0.90560855  0.75000000  1
loop_
_geom_bond_atom_site_label_1
_geom_bond_atom_site_label_2
_geom_bond_distance
_geom_bond_site_symmetry_2
Na0 O6 2.366084 1_554
Na0 O2 2.366084 1_545
Na0 O11 2.410247 1_544
Na0 O8 2.410247 1_555
Na0 O3 2.418036 1_544
Na0 O7 2.418036 1_555
Na1 O3 2.366084 1_454
Na1 O7 2.366084 1_555
Na1 O9 2.410247 1_554
Na1 O10 2.410247 1_455
Na1 O2 2.418036 1_555
Na1 O6 2.418036 1_454
Na2 O0 2.366084 1_555
Na2 O4 2.366084 1_455
Na2 O9 2.410247 1_555
Na2 O10 2.410247 1_455
Na2 O5 2.418036 1_555
Na2 O1 2.418036 1_455
Na3 O5 2.366084 1_545
Na3 O1 2.366084 1_555
Na3 O11 2.410247 1_545
Na3 O8 2.410247 1_555
Na3 O4 2.418036 1_545
Na3 O0 2.418036 1_555
I0 O8 1.804991 1_455
I0 O0 1.819750 1_555
I0 O7 1.819750 1_555
I1 O9 1.804991 1_555
I1 O1 1.819750 1_555
I1 O6 1.819750 1_555
I2 O10 1.804991 1_555
I2 O2 1.819750 1_555
I2 O5 1.819750 1_555
I3 O11 1.804991 1_655
I3 O3 1.819750 1_555
I3 O4 1.819750 1_555
