# generated using pymatgen
data_Rb3AsSe16
_symmetry_space_group_name_H-M   'P 1'
_cell_length_a   11.97925460
_cell_length_b   11.97920318
_cell_length_c   11.98126731
_cell_angle_alpha   60.00108979
_cell_angle_beta   60.00202981
_cell_angle_gamma   59.99566169
_symmetry_Int_Tables_number   1
_chemical_formula_structural   Rb3AsSe16
_chemical_formula_sum   'Rb6 As2 Se32'
_cell_volume   1215.74217530
_cell_formula_units_Z   2
loop_
 _symmetry_equiv_pos_site_id
 _symmetry_equiv_pos_as_xyz
  1  'x, y, z'
loop_
 _atom_site_type_symbol
 _atom_site_label
 _atom_site_symmetry_multiplicity
 _atom_site_fract_x
 _atom_site_fract_y
 _atom_site_fract_z
 _atom_site_occupancy
  Rb  Rb0  1  0.49999316  0.49999130  0.50000359  1
  Rb  Rb1  1  0.74999233  0.74999502  0.75000654  1
  Rb  Rb2  1  0.12499430  0.12499545  0.12500299  1
  Rb  Rb3  1  0.12499569  0.12499861  0.62501253  1
  Rb  Rb4  1  0.12500885  0.62498908  0.12500042  1
  Rb  Rb5  1  0.62499260  0.12499196  0.12501683  1
  As  As0  1  0.24989277  0.24990934  0.25014182  1
  As  As1  1  0.00004355  0.00003837  -0.00006836  1
  Se  Se0  1  0.79583773  0.17664400  0.59181849  1
  Se  Se1  1  0.43571876  0.79583115  0.59181504  1
  Se  Se2  1  0.59183676  0.79576141  0.17663746  1
  Se  Se3  1  0.59186068  0.17664310  0.43576262  1
  Se  Se4  1  0.59185780  0.43579634  0.79572147  1
  Se  Se5  1  0.43576649  0.59184618  0.17662346  1
  Se  Se6  1  0.32938097  0.32944313  0.01169460  1
  Se  Se7  1  0.01165763  0.32940205  0.32953216  1
  Se  Se8  1  0.32937743  0.01166100  0.32949422  1
  Se  Se9  1  0.32941544  0.32942735  0.32947630  1
  Se  Se10  1  0.92063854  0.92051136  0.23833214  1
  Se  Se11  1  0.23832793  0.92060771  0.92049790  1
  Se  Se12  1  0.92056821  0.23831932  0.92054572  1
  Se  Se13  1  0.92058840  0.92056194  0.92054371  1
  Se  Se14  1  0.07338776  0.45421036  0.81421645  1
  Se  Se15  1  0.81424618  0.07340509  0.45423527  1
  Se  Se16  1  0.45421137  0.81426854  0.07337368  1
  Se  Se17  1  0.07339318  0.65812515  0.45424485  1
  Se  Se18  1  0.07340796  0.81425592  0.65814580  1
  Se  Se19  1  0.45422630  0.65818745  0.81421325  1
  Se  Se20  1  0.65815868  0.07340606  0.81422330  1
  Se  Se21  1  0.65814216  0.45423183  0.07336331  1
  Se  Se22  1  0.81425725  0.45421429  0.65815418  1
  Se  Se23  1  0.45419106  0.07342608  0.65814346  1
  Se  Se24  1  0.81424811  0.65813798  0.07337346  1
  Se  Se25  1  0.65812096  0.81425765  0.45424156  1
  Se  Se26  1  0.17665319  0.79576466  0.43574633  1
  Se  Se27  1  0.43577889  0.17664189  0.79576441  1
  Se  Se28  1  0.79579418  0.43572228  0.17663673  1
  Se  Se29  1  0.17663857  0.59182615  0.79573041  1
  Se  Se30  1  0.17662937  0.43572027  0.59182582  1
  Se  Se31  1  0.79576583  0.59183318  0.43575707  1
loop_
_geom_bond_atom_site_label_1
_geom_bond_atom_site_label_2
_geom_bond_distance
_geom_bond_site_symmetry_2
Rb0 Se26 3.831187 1_555
Rb0 Se3 3.831204 1_555
Rb0 Se29 3.831550 1_555
Rb0 Se27 3.831618 1_555
Rb0 Se31 3.831628 1_555
Rb0 Se0 3.831687 1_555
Rb0 Se30 3.831810 1_555
Rb0 Se4 3.831927 1_555
Rb0 Se2 3.831985 1_555
Rb0 Se1 3.832047 1_555
Rb0 Se5 3.832160 1_555
Rb0 Se28 3.832228 1_555
Rb1 Se19 3.831478 1_555
Rb1 Se14 3.831523 1_655
Rb1 Se22 3.831726 1_555
Rb1 Se20 3.831898 1_565
Rb1 Se21 3.831912 1_556
Rb1 Se23 3.831943 1_565
Rb1 Se17 3.832112 1_655
Rb1 Se16 3.832167 1_556
Rb1 Se24 3.832194 1_556
Rb1 Se18 3.832196 1_655
Rb1 Se25 3.832197 1_555
Rb1 Se15 3.832245 1_565
Rb2 Se10 3.631044 1_445
Rb2 Se6 3.631065 1_555
Rb2 Se8 3.631538 1_555
Rb2 Se12 3.631664 1_454
Rb2 Se11 3.631749 1_544
Rb2 Se7 3.632162 1_555
Rb2 Se28 3.869358 1_455
Rb2 Se16 3.869444 1_545
Rb2 Se26 3.870233 1_545
Rb2 Se15 3.870305 1_455
Rb2 Se14 3.870339 1_554
Rb2 Se27 3.870660 1_554
Rb3 Se7 3.631155 1_555
Rb3 Se11 3.631168 1_545
Rb3 Se13 3.631464 1_445
Rb3 Se9 3.631510 1_555
Rb3 Se8 3.631577 1_555
Rb3 Se12 3.631618 1_455
Rb3 Se1 3.869156 1_545
Rb3 Se0 3.869234 1_455
Rb3 Se30 3.869387 1_555
Rb3 Se22 3.869483 1_455
Rb3 Se18 3.869605 1_545
Rb3 Se23 3.869625 1_555
Rb4 Se10 3.631057 1_455
Rb4 Se6 3.631129 1_555
Rb4 Se9 3.631465 1_555
Rb4 Se13 3.631471 1_454
Rb4 Se7 3.632005 1_555
Rb4 Se11 3.632115 1_554
Rb4 Se5 3.869998 1_555
Rb4 Se24 3.870029 1_455
Rb4 Se31 3.870431 1_455
Rb4 Se19 3.870464 1_554
Rb4 Se17 3.870713 1_555
Rb4 Se29 3.871120 1_554
Rb5 Se9 3.631654 1_555
Rb5 Se12 3.631772 1_554
Rb5 Se13 3.631773 1_544
Rb5 Se6 3.631861 1_555
Rb5 Se10 3.632157 1_545
Rb5 Se8 3.632186 1_555
Rb5 Se21 3.869879 1_555
Rb5 Se2 3.869967 1_545
Rb5 Se25 3.870160 1_545
Rb5 Se20 3.870630 1_554
Rb5 Se3 3.870712 1_555
Rb5 Se4 3.871006 1_554
As0 Se7 2.330136 1_555
As0 Se8 2.330233 1_555
As0 Se9 2.331687 1_555
As0 Se6 2.332730 1_555
As0 Rb3 3.667361 1_555
As0 Rb2 3.667617 1_555
As0 Rb4 3.668539 1_555
As0 Rb5 3.668785 1_555
As1 Se12 2.330552 1_454
As1 Se11 2.330617 1_544
As1 Se13 2.331142 1_444
As1 Se10 2.332273 1_445
As1 Rb3 3.667834 1_554
As1 Rb2 3.667891 1_555
As1 Rb4 3.668240 1_545
As1 Rb5 3.668307 1_455
Se0 Se15 2.386990 1_555
Se0 Se20 2.387516 1_555
Se1 Se25 2.386804 1_555
Se1 Se19 2.387413 1_555
Se2 Se24 2.386996 1_555
Se14 Se29 2.386791 1_555
Se14 Se30 2.387327 1_555
Se15 Se3 2.386677 1_555
Se16 Se2 2.386992 1_555
Se16 Se5 2.387029 1_555
Se17 Se30 2.386703 1_555
Se17 Se26 2.387062 1_555
Se18 Se29 2.386852 1_555
Se18 Se26 2.387424 1_555
Se19 Se4 2.386777 1_555
Se20 Se27 2.386553 1_555
Se21 Se5 2.386720 1_555
Se21 Se28 2.387360 1_555
Se22 Se4 2.386739 1_555
Se22 Se31 2.387317 1_555
Se23 Se27 2.387150 1_555
Se23 Se3 2.387248 1_555
Se24 Se28 2.386986 1_555
Se25 Se31 2.387091 1_555
