# generated using pymatgen
data_Na6Ca4Sc4SiS11O48
_symmetry_space_group_name_H-M   'P 1'
_cell_length_a   18.12878850
_cell_length_b   9.06743661
_cell_length_c   23.57742868
_cell_angle_alpha   90.00730378
_cell_angle_beta   89.99347957
_cell_angle_gamma   120.11199963
_symmetry_Int_Tables_number   1
_chemical_formula_structural   Na6Ca4Sc4SiS11O48
_chemical_formula_sum   'Na18 Ca12 Sc12 Si3 S33 O144'
_cell_volume   3352.65707174
_cell_formula_units_Z   3
loop_
 _symmetry_equiv_pos_site_id
 _symmetry_equiv_pos_as_xyz
  1  'x, y, z'
loop_
 _atom_site_type_symbol
 _atom_site_label
 _atom_site_symmetry_multiplicity
 _atom_site_fract_x
 _atom_site_fract_y
 _atom_site_fract_z
 _atom_site_occupancy
  Na  Na0  1  0.81764304  0.99517428  0.24853998  1
  Na  Na1  1  0.99632578  0.63434233  0.25414599  1
  Na  Na2  1  0.31697963  0.64368176  0.74775678  1
  Na  Na3  1  0.81569952  0.64264686  0.74618163  1
  Na  Na4  1  0.99628006  0.35854374  0.75066972  1
  Na  Na5  1  0.69121810  0.99961338  0.74852459  1
  Na  Na6  1  0.99981392  0.99944790  0.49840001  1
  Na  Na7  1  0.50239740  0.00148404  0.49640358  1
  Na  Na8  1  0.00284669  0.00300480  0.00155404  1
  Na  Na9  1  0.50079677  0.99947732  0.00084541  1
  Na  Na10  1  0.33438177  0.30748493  0.83579737  1
  Na  Na11  1  0.83392913  0.31840171  0.83757586  1
  Na  Na12  1  0.33470310  0.33520870  0.33223368  1
  Na  Na13  1  0.82672631  0.35057177  0.33564288  1
  Na  Na14  1  0.17631700  0.66853728  0.16584613  1
  Na  Na15  1  0.66354061  0.65203903  0.16884887  1
  Na  Na16  1  0.17538475  0.69525919  0.66414032  1
  Na  Na17  1  0.66972414  0.67230415  0.66214923  1
  Ca  Ca0  1  0.49814932  0.99684660  0.35177527  1
  Ca  Ca1  1  0.83362422  0.32863956  0.68065281  1
  Ca  Ca2  1  0.33187753  0.33126945  0.18006018  1
  Ca  Ca3  1  0.82990767  0.34272577  0.18095950  1
  Ca  Ca4  1  0.33331966  0.33375058  0.98740441  1
  Ca  Ca5  1  0.83269856  0.33311503  0.98626527  1
  Ca  Ca6  1  0.83216195  0.32962995  0.48298526  1
  Ca  Ca7  1  0.16572671  0.66465605  0.51645598  1
  Ca  Ca8  1  0.66884491  0.67033195  0.51679918  1
  Ca  Ca9  1  0.17569549  0.67243369  0.31877091  1
  Ca  Ca10  1  0.17112989  0.68309563  0.81494347  1
  Ca  Ca11  1  0.66444239  0.66305166  0.81595033  1
  Sc  Sc0  1  0.99847257  0.99357150  0.35086726  1
  Sc  Sc1  1  0.99787532  0.00412369  0.85321745  1
  Sc  Sc2  1  0.49225443  0.00603528  0.85204910  1
  Sc  Sc3  1  0.99593180  0.99896219  0.64845470  1
  Sc  Sc4  1  0.49402125  0.99883843  0.64617912  1
  Sc  Sc5  1  0.99298028  0.99027735  0.15090948  1
  Sc  Sc6  1  0.50107759  0.00195815  0.15100145  1
  Sc  Sc7  1  0.33413878  0.31810132  0.68607101  1
  Sc  Sc8  1  0.33414176  0.33539611  0.48266670  1
  Sc  Sc9  1  0.16742805  0.66732505  0.01529312  1
  Sc  Sc10  1  0.66632720  0.66906774  0.01517498  1
  Sc  Sc11  1  0.66599145  0.65566358  0.31431204  1
  Si  Si0  1  0.85232749  0.70700716  0.25244494  1
  Si  Si1  1  0.35507689  0.00326265  0.74780642  1
  Si  Si2  1  0.85496903  0.00103300  0.75091464  1
  S  S0  1  0.14285750  -0.00015538  0.24995215  1
  S  S1  1  0.64571278  0.99178735  0.24979020  1
  S  S2  1  0.35345421  0.70708330  0.24721481  1
  S  S3  1  0.00179567  0.28921212  0.24941123  1
  S  S4  1  0.50145469  0.29626487  0.24968134  1
  S  S5  1  0.14551545  0.28443508  0.74903373  1
  S  S6  1  0.64145064  0.28193838  0.74967745  1
  S  S7  1  0.99952887  0.71528393  0.74997436  1
  S  S8  1  0.49676000  0.71341305  0.74829685  1
  S  S9  1  0.47645893  0.32860336  0.58403620  1
  S  S10  1  0.98685371  0.32984371  0.58641507  1
  S  S11  1  0.18795914  0.04766588  0.58448554  1
  S  S12  1  0.67656620  0.02762816  0.58663696  1
  S  S13  1  0.33579491  0.62181768  0.58624320  1
  S  S14  1  0.83631024  0.64202074  0.58660524  1
  S  S15  1  0.48893786  0.64482939  0.08305844  1
  S  S16  1  0.98988131  0.64344328  0.08384553  1
  S  S17  1  0.33341810  0.02233195  0.08329501  1
  S  S18  1  0.83256361  0.02250622  0.08372136  1
  S  S19  1  0.17759879  0.33405025  0.08256383  1
  S  S20  1  0.67653967  0.33400889  0.08204009  1
  S  S21  1  0.31665858  0.67053428  0.91582140  1
  S  S22  1  0.81697362  0.67163122  0.91578471  1
  S  S23  1  0.02046348  0.36861791  0.91523357  1
  S  S24  1  0.51934445  0.36682951  0.91780335  1
  S  S25  1  0.16337931  0.96245058  0.91817276  1
  S  S26  1  0.66291328  0.96165331  0.91549082  1
  S  S27  1  0.31828612  0.97771332  0.42045207  1
  S  S28  1  0.81606901  0.96244318  0.41153510  1
  S  S29  1  0.16759309  0.35876866  0.41784358  1
  S  S30  1  0.66688263  0.37246412  0.41554276  1
  S  S31  1  0.01619213  0.67116886  0.41364546  1
  S  S32  1  0.51617382  0.65802854  0.41702511  1
  O  O0  1  0.10180130  0.01693541  0.30191834  1
  O  O1  1  0.60883456  0.01766114  0.30086526  1
  O  O2  1  0.39795193  0.78466379  0.30007528  1
  O  O3  1  0.91480022  0.81311303  0.30562763  1
  O  O4  1  0.49187043  0.19926400  0.30097362  1
  O  O5  1  0.99564465  0.19044721  0.30087678  1
  O  O6  1  0.10849068  0.18354344  0.80130843  1
  O  O7  1  0.59998014  0.17859199  0.80133904  1
  O  O8  1  0.48493585  0.79319505  0.80007463  1
  O  O9  1  0.99534108  0.80438359  0.80157300  1
  O  O10  1  0.41084442  0.02390948  0.80618791  1
  O  O11  1  0.91584174  0.01869868  0.80624155  1
  O  O12  1  0.40685242  0.98327666  0.69396679  1
  O  O13  1  0.90620026  0.98448058  0.69568889  1
  O  O14  1  0.09414109  0.19727564  0.69854435  1
  O  O15  1  0.59363532  0.19624302  0.69785208  1
  O  O16  1  0.01022216  0.81568360  0.69816071  1
  O  O17  1  0.51022942  0.82019953  0.69763609  1
  O  O18  1  0.40317448  0.81563015  0.19725578  1
  O  O19  1  0.89689959  0.82880563  0.19562124  1
  O  O20  1  0.01146103  0.20720540  0.19773347  1
  O  O21  1  0.51174393  0.20848525  0.19845545  1
  O  O22  1  0.09060064  0.98560839  0.19904353  1
  O  O23  1  0.59473292  0.97851507  0.19819305  1
  O  O24  1  0.43230148  0.34375117  0.63532091  1
  O  O25  1  0.94872140  0.34800999  0.63992347  1
  O  O26  1  0.24015001  0.13600396  0.63590543  1
  O  O27  1  0.72430052  0.10396812  0.64011915  1
  O  O28  1  0.32873315  0.52340360  0.63879633  1
  O  O29  1  0.82779961  0.54942744  0.64049746  1
  O  O30  1  0.45187248  0.53737173  0.13342274  1
  O  O31  1  0.95532140  0.54315162  0.13653823  1
  O  O32  1  0.31648078  0.09550922  0.13379255  1
  O  O33  1  0.81835396  0.09184900  0.13676486  1
  O  O34  1  0.23090679  0.36742864  0.13337253  1
  O  O35  1  0.72895620  0.36749135  0.13319279  1
  O  O36  1  0.21628835  0.30468145  0.03223385  1
  O  O37  1  0.71442751  0.30146317  0.03218954  1
  O  O38  1  0.43573132  0.57100374  0.03247618  1
  O  O39  1  0.93395138  0.56108860  0.03510439  1
  O  O40  1  0.34957133  0.12870351  0.03283122  1
  O  O41  1  0.84522929  0.13292733  0.03499930  1
  O  O42  1  0.23088039  0.15052395  0.53318457  1
  O  O43  1  0.72017119  0.13419506  0.53700015  1
  O  O44  1  0.34373743  0.53268398  0.53549035  1
  O  O45  1  0.84410959  0.55182287  0.53745066  1
  O  O46  1  0.42509029  0.31110093  0.53278917  1
  O  O47  1  0.93291649  0.30794199  0.53701058  1
  O  O48  1  0.26943336  0.68873769  0.96495626  1
  O  O49  1  0.76935230  0.68852866  0.96485905  1
  O  O50  1  0.07574379  0.46515431  0.96439395  1
  O  O51  1  0.57358359  0.46005613  0.96787543  1
  O  O52  1  0.15521279  0.85290254  0.96824580  1
  O  O53  1  0.65557185  0.84939221  0.96457871  1
  O  O54  1  0.27474831  0.87024256  0.46962546  1
  O  O55  1  0.77904883  0.86467785  0.46351706  1
  O  O56  1  0.15349101  0.43695299  0.46792932  1
  O  O57  1  0.66043083  0.45314687  0.46765857  1
  O  O58  1  0.06786081  0.68912725  0.46391463  1
  O  O59  1  0.56591675  0.67857432  0.46826729  1
  O  O60  1  0.05644660  0.65419642  0.36087798  1
  O  O61  1  0.55835742  0.63774348  0.36560417  1
  O  O62  1  0.26944714  0.90654780  0.36754007  1
  O  O63  1  0.76232087  0.87002586  0.36078459  1
  O  O64  1  0.18336026  0.46263254  0.36628264  1
  O  O65  1  0.67133937  0.47723407  0.36453839  1
  O  O66  1  0.05706198  0.45933519  0.86140084  1
  O  O67  1  0.55724734  0.46144949  0.86545689  1
  O  O68  1  0.17329436  0.88699386  0.86579125  1
  O  O69  1  0.67283747  0.88900394  0.86176008  1
  O  O70  1  0.27029417  0.64989086  0.86228819  1
  O  O71  1  0.77096205  0.65183169  0.86211736  1
  O  O72  1  0.00924178  0.82990858  0.41081674  1
  O  O73  1  0.50400740  0.80679443  0.41232562  1
  O  O74  1  0.40457502  -0.00014964  0.41719693  1
  O  O75  1  0.90356955  0.98513199  0.40577594  1
  O  O76  1  0.09160000  0.18520363  0.41078039  1
  O  O77  1  0.59087973  0.20097038  0.41202654  1
  O  O78  1  0.01620730  0.19842964  0.91441924  1
  O  O79  1  0.51514633  0.19653117  0.91576572  1
  O  O80  1  0.08357001  0.97286401  0.91564680  1
  O  O81  1  0.58346035  0.97222993  0.91397240  1
  O  O82  1  0.40231423  0.83116517  0.91388440  1
  O  O83  1  0.90297423  0.83118387  0.91407546  1
  O  O84  1  0.48342654  0.17129642  0.58773970  1
  O  O85  1  0.99573791  0.17357791  0.58977097  1
  O  O86  1  0.10289791  0.03310625  0.58926852  1
  O  O87  1  0.59076330  0.01390841  0.58989976  1
  O  O88  1  0.41525059  0.79262084  0.58843517  1
  O  O89  1  0.91667748  0.81449666  0.58849173  1
  O  O90  1  0.50028665  0.81951153  0.09161590  1
  O  O91  1  0.00082306  0.81777118  0.09034673  1
  O  O92  1  0.40969903  0.00114673  0.09217581  1
  O  O93  1  0.90993686  0.00379493  0.08819659  1
  O  O94  1  0.09079048  0.18299103  0.09032207  1
  O  O95  1  0.58963805  0.18064406  0.09065569  1
  O  O96  1  0.34521964  0.17420718  0.74276571  1
  O  O97  1  0.84682954  0.17302866  0.75149982  1
  O  O98  1  0.23498717  0.31889070  0.74297450  1
  O  O99  1  0.72851382  0.30098720  0.74793632  1
  O  O100  1  0.41674945  0.54370336  0.74229577  1
  O  O101  1  0.91728480  0.54857902  0.74791635  1
  O  O102  1  0.34422474  0.53606522  0.24253874  1
  O  O103  1  0.84993940  0.52612674  0.24924795  1
  O  O104  1  0.42635855  0.31783044  0.24315239  1
  O  O105  1  0.92061721  0.29429726  0.24572989  1
  O  O106  1  0.22930476  0.14894816  0.24627675  1
  O  O107  1  0.73483666  0.13582057  0.24349346  1
  O  O108  1  0.32797047  0.52198281  0.92285583  1
  O  O109  1  0.82779982  0.52203189  0.92254628  1
  O  O110  1  0.43288365  0.34204645  0.92361465  1
  O  O111  1  0.93417940  0.34457757  0.92167486  1
  O  O112  1  0.23869495  0.13446289  0.92394121  1
  O  O113  1  0.73893777  0.13263941  0.92204668  1
  O  O114  1  0.32623936  0.15073910  0.42758809  1
  O  O115  1  0.82339095  0.13238989  0.41326158  1
  O  O116  1  0.24521633  0.34015056  0.42599866  1
  O  O117  1  0.74572163  0.36104140  0.41488429  1
  O  O118  1  0.42918317  0.49909189  0.42195238  1
  O  O119  1  0.92966729  0.51968127  0.41767894  1
  O  O120  1  0.16853014  0.48976922  0.07359168  1
  O  O121  1  0.66587774  0.48648058  0.07295440  1
  O  O122  1  0.07619842  0.66257464  0.07402776  1
  O  O123  1  0.57623054  0.66635310  0.07390981  1
  O  O124  1  0.25679007  0.84749939  0.07436647  1
  O  O125  1  0.75609326  0.84815979  0.07433745  1
  O  O126  1  0.17969297  0.87752185  0.58196882  1
  O  O127  1  0.66581110  0.85525049  0.58264907  1
  O  O128  1  0.26007587  0.64086862  0.58252847  1
  O  O129  1  0.76137428  0.66547647  0.58298567  1
  O  O130  1  0.07255163  0.48221394  0.58213212  1
  O  O131  1  0.56158578  0.48054913  0.58174371  1
  O  O132  1  0.14472190  0.83682438  0.25213785  1
  O  O133  1  0.65062399  0.83100253  0.25337206  1
  O  O134  1  0.26863742  0.69609664  0.24551211  1
  O  O135  1  0.75866877  0.69613791  0.25931434  1
  O  O136  1  0.07467684  0.46642867  0.25257518  1
  O  O137  1  0.58112515  0.46853397  0.25251865  1
  O  O138  1  0.14892073  0.45231999  0.75270458  1
  O  O139  1  0.65194761  0.45439019  0.75243819  1
  O  O140  1  0.07027686  0.67827978  0.75220034  1
  O  O141  1  0.57246060  0.69333671  0.75286816  1
  O  O142  1  0.26417646  0.82535989  0.74755610  1
  O  O143  1  0.76019003  0.83011874  0.75027744  1
loop_
_geom_bond_atom_site_label_1
_geom_bond_atom_site_label_2
_geom_bond_distance
_geom_bond_site_symmetry_2
Na0 O135 2.377211 1_555
Na0 O105 2.401122 1_565
Na0 O107 2.411453 1_565
Na0 O133 2.621880 1_555
Na0 O33 2.775428 1_565
Na0 O19 2.840920 1_555
Na0 O63 2.855771 1_555
Na1 O103 2.325096 1_555
Na1 O132 2.377925 1_655
Na1 O136 2.550885 1_655
Na1 O105 2.680262 1_555
Na1 O60 2.712298 1_655
Na1 O31 2.882420 1_555
Na2 O142 2.283073 1_555
Na2 O100 2.398952 1_555
Na2 O98 2.550081 1_555
Na2 O138 2.646197 1_555
Na2 O70 2.838777 1_555
Na2 O28 2.840242 1_555
Na2 O8 2.913611 1_555
Na2 O12 2.951500 1_555
Na3 O143 2.372338 1_555
Na3 O101 2.386822 1_555
Na3 O139 2.581417 1_555
Na3 O29 2.675227 1_555
Na3 O99 2.680346 1_555
Na3 O71 2.864222 1_555
Na3 O13 2.935004 1_555
Na4 O97 2.365936 1_555
Na4 O138 2.453927 1_655
Na4 O140 2.510732 1_655
Na4 O25 2.736458 1_555
Na4 O101 2.738678 1_555
Na4 O66 2.802690 1_655
Na5 O143 2.419787 1_555
Na5 O97 2.446400 1_565
Na5 O99 2.463947 1_565
Na5 O141 2.521690 1_555
Na5 O27 2.686751 1_565
Na5 O69 2.812458 1_555
Na6 O72 2.630473 1_655
Na6 O89 2.657062 1_555
Na6 O76 2.657334 1_665
Na6 O85 2.693615 1_565
Na6 O75 2.757506 1_555
Na6 O86 2.757545 1_665
Na7 O74 2.570423 1_555
Na7 O77 2.625164 1_555
Na7 O73 2.664158 1_545
Na7 O87 2.694072 1_555
Na7 O84 2.767114 1_555
Na7 O88 2.790895 1_545
Na8 O80 2.592162 1_544
Na8 O94 2.640979 1_555
Na8 O78 2.643755 1_554
Na8 O93 2.649802 1_455
Na8 O83 2.670037 1_444
Na8 O91 2.672862 1_545
Na9 O79 2.611229 1_564
Na9 O81 2.621599 1_554
Na9 O82 2.643211 1_554
Na9 O95 2.668613 1_565
Na9 O90 2.688656 1_555
Na9 O92 2.718230 1_565
Na10 O96 2.558853 1_555
Na10 O110 2.648238 1_555
Na10 O112 2.656826 1_555
Na10 O98 2.869692 1_555
Na10 O108 2.869722 1_555
Na10 O100 2.910100 1_555
Na11 O97 2.493882 1_555
Na11 O113 2.618934 1_555
Na11 O111 2.618943 1_555
Na11 O109 2.764049 1_555
Na11 O99 2.800332 1_555
Na11 O101 2.818536 1_555
Na12 O118 2.657581 1_555
Na12 O106 2.715263 1_555
Na12 O104 2.731095 1_555
Na12 O102 2.739434 1_555
Na12 O116 2.755591 1_555
Na12 O114 2.760285 1_555
Na13 O117 2.407352 1_555
Na13 O103 2.487721 1_555
Na13 O119 2.589184 1_555
Na13 O115 2.673477 1_555
Na13 O107 2.834106 1_555
Na13 O105 2.919253 1_555
Na14 O134 2.443891 1_555
Na14 O124 2.652998 1_555
Na14 O120 2.673611 1_555
Na14 O136 2.747173 1_555
Na14 O132 2.769804 1_555
Na14 O122 2.808236 1_555
Na15 O137 2.529479 1_555
Na15 O135 2.644265 1_555
Na15 O133 2.653275 1_555
Na15 O121 2.725835 1_555
Na15 O123 2.782035 1_555
Na15 O125 2.819469 1_555
Na16 O142 2.438350 1_555
Na16 O126 2.522326 1_555
Na16 O128 2.657426 1_555
Na16 O130 2.707789 1_555
Na16 O140 2.769495 1_555
Na16 O138 2.895415 1_555
Na17 O129 2.520046 1_555
Na17 O127 2.527675 1_555
Na17 O143 2.588443 1_555
Na17 O131 2.653326 1_555
Na17 O139 2.811017 1_555
Na17 O141 2.838471 1_555
Ca0 O2 2.231650 1_555
Ca0 O4 2.241998 1_565
Ca0 O1 2.263255 1_565
Ca0 O77 2.268851 1_565
Ca0 O73 2.281094 1_555
Ca0 O74 2.302924 1_565
Ca1 O25 2.222309 1_555
Ca1 O27 2.222652 1_555
Ca1 O29 2.264519 1_555
Ca1 O97 2.275529 1_555
Ca1 O99 2.393842 1_555
Ca1 O101 2.399454 1_555
Ca2 O32 2.288801 1_555
Ca2 O102 2.291448 1_555
Ca2 O34 2.296213 1_555
Ca2 O30 2.314012 1_555
Ca2 O104 2.317647 1_555
Ca2 O106 2.354506 1_555
Ca3 O103 2.209791 1_555
Ca3 O35 2.254120 1_555
Ca3 O107 2.328044 1_555
Ca3 O31 2.328727 1_555
Ca3 O33 2.413658 1_555
Ca3 O105 2.440175 1_555
Ca4 O36 2.264162 1_556
Ca4 O38 2.279590 1_556
Ca4 O40 2.289317 1_556
Ca4 O112 2.310095 1_555
Ca4 O110 2.321375 1_555
Ca4 O108 2.324959 1_555
Ca5 O41 2.254131 1_556
Ca5 O39 2.271787 1_556
Ca5 O37 2.287814 1_556
Ca5 O109 2.313558 1_555
Ca5 O113 2.320717 1_555
Ca5 O111 2.349911 1_555
Ca6 O43 2.296552 1_555
Ca6 O45 2.305777 1_555
Ca6 O47 2.314845 1_555
Ca6 O119 2.325666 1_555
Ca6 O117 2.358691 1_555
Ca6 O115 2.374926 1_555
Ca7 O54 2.214418 1_555
Ca7 O58 2.264325 1_555
Ca7 O56 2.271802 1_555
Ca7 O130 2.276823 1_555
Ca7 O126 2.384202 1_555
Ca7 O128 2.402037 1_555
Ca8 O59 2.221973 1_555
Ca8 O57 2.223034 1_555
Ca8 O55 2.267699 1_555
Ca8 O127 2.305818 1_555
Ca8 O129 2.307739 1_555
Ca8 O131 2.393633 1_555
Ca9 O62 2.257615 1_555
Ca9 O64 2.271331 1_555
Ca9 O60 2.308104 1_555
Ca9 O134 2.346295 1_555
Ca9 O132 2.417844 1_555
Ca9 O136 2.417927 1_555
Ca10 O68 2.187155 1_555
Ca10 O142 2.202350 1_555
Ca10 O70 2.261010 1_555
Ca10 O66 2.320089 1_555
Ca10 O140 2.335301 1_555
Ca10 O138 2.418304 1_555
Ca11 O67 2.217241 1_555
Ca11 O143 2.250983 1_555
Ca11 O69 2.252542 1_555
Ca11 O71 2.263151 1_555
Ca11 O139 2.332973 1_555
Ca11 O141 2.351226 1_555
O0 S0 1.481439 1_555
O0 Sc0 2.118291 1_445
O1 S1 1.452335 1_545
O2 S2 1.459285 1_555
O3 Si0 1.639303 1_555
O3 Sc0 1.904089 1_555
O4 S4 1.453679 1_555
O5 S3 1.478811 1_655
O5 Sc0 2.161251 1_545
O6 S5 1.480027 1_555
O6 Sc1 2.211884 1_455
O7 S6 1.490026 1_555
O7 Sc2 2.150702 1_555
O8 S8 1.488259 1_555
O8 Sc2 2.233014 1_565
O9 S7 1.483163 1_555
O9 Sc1 2.163544 1_565
O10 Si1 1.661991 1_555
O10 Sc2 1.901064 1_555
O11 Si2 1.663736 1_555
O11 Sc1 1.911405 1_555
O12 Si1 1.641824 1_565
O12 Sc4 1.887464 1_555
O13 Si2 1.649266 1_565
O13 Sc3 1.920679 1_555
O14 S5 1.473279 1_555
O14 Sc3 2.141420 1_445
O15 S6 1.473909 1_555
O15 Sc4 2.169331 1_545
O16 S7 1.477121 1_455
O16 Sc3 2.152886 1_455
O17 S8 1.478815 1_555
O17 Sc4 2.158735 1_555
O18 S2 1.509485 1_555
O18 Sc6 2.045764 1_565
O19 Si0 1.665019 1_555
O19 Sc5 1.931331 1_555
O20 S3 1.482785 1_555
O20 Sc5 2.130341 1_445
O21 S4 1.508543 1_555
O21 Sc6 2.105297 1_555
O22 S0 1.494110 1_565
O22 Sc5 2.120698 1_455
O23 S1 1.495725 1_555
O23 Sc6 2.128035 1_565
O24 S9 1.493932 1_555
O24 Sc7 2.058400 1_555
O25 S10 1.486820 1_555
O26 S11 1.498726 1_555
O26 Sc7 2.050753 1_555
O27 S12 1.488975 1_555
O28 S13 1.494526 1_555
O28 Sc7 2.213819 1_555
O29 S14 1.487778 1_555
O30 S15 1.467699 1_555
O31 S16 1.480339 1_555
O32 S17 1.468411 1_555
O33 S18 1.479196 1_555
O34 S19 1.472174 1_555
O35 S20 1.469828 1_555
O36 S19 1.469066 1_555
O37 S20 1.464042 1_555
O38 S15 1.467303 1_555
O39 S16 1.465153 1_555
O40 S17 1.465775 1_555
O41 S18 1.464363 1_555
O42 S11 1.486679 1_555
O42 Sc8 2.141126 1_555
O43 S12 1.470330 1_555
O44 S13 1.490747 1_555
O44 Sc8 2.113949 1_555
O45 S14 1.465532 1_555
O46 S9 1.484673 1_555
O46 Sc8 2.128037 1_555
O47 S10 1.468929 1_555
O48 S21 1.497929 1_555
O48 Sc9 2.122543 1_556
O49 S22 1.496662 1_555
O49 Sc10 2.143765 1_556
O50 S23 1.494594 1_555
O50 Sc9 2.122727 1_556
O51 S24 1.497057 1_555
O51 Sc10 2.113049 1_556
O52 S25 1.501701 1_555
O52 Sc9 2.117884 1_556
O53 S26 1.502565 1_555
O53 Sc10 2.110694 1_556
O54 S27 1.464613 1_555
O55 S28 1.463385 1_555
O56 S29 1.464248 1_555
O57 S30 1.464356 1_555
O58 S31 1.468266 1_555
O59 S32 1.462595 1_555
O60 S31 1.488795 1_555
O61 S32 1.493109 1_555
O61 Sc11 2.231087 1_555
O62 S27 1.477641 1_555
O63 S28 1.504709 1_555
O63 Sc11 2.149956 1_555
O64 S29 1.475337 1_555
O65 S30 1.509438 1_555
O65 Sc11 2.046276 1_555
O66 S23 1.476572 1_555
O67 S24 1.462886 1_555
O68 S25 1.465895 1_555
O69 S26 1.479808 1_555
O70 S21 1.475443 1_555
O71 S22 1.476148 1_555
O72 S31 1.508009 1_555
O72 Sc0 2.128271 1_455
O73 S32 1.476176 1_555
O74 S27 1.475863 1_545
O75 S28 1.499851 1_555
O75 Sc0 2.123514 1_555
O76 S29 1.492313 1_555
O76 Sc0 2.218433 1_445
O77 S30 1.474299 1_555
O78 S23 1.506061 1_555
O78 Sc1 2.169961 1_455
O79 S24 1.508185 1_555
O79 Sc2 2.166303 1_555
O80 S25 1.497640 1_555
O80 Sc1 2.258949 1_465
O81 S26 1.491243 1_555
O81 Sc2 2.338515 1_565
O82 S21 1.505134 1_555
O82 Sc2 2.168919 1_565
O83 S22 1.504061 1_555
O83 Sc1 2.184219 1_565
O84 S9 1.496305 1_555
O84 Sc4 2.163945 1_545
O85 S10 1.506289 1_555
O85 Sc3 2.104146 1_545
O86 S11 1.484514 1_555
O86 Sc3 2.280486 1_445
O87 S12 1.498931 1_555
O87 Sc4 2.148097 1_545
O88 S13 1.495901 1_555
O88 Sc4 2.170194 1_555
O89 S14 1.511379 1_555
O89 Sc3 2.109339 1_555
O90 S15 1.504921 1_555
O90 Sc6 2.161723 1_565
O91 S16 1.498937 1_455
O91 Sc5 2.174482 1_455
O92 S17 1.503238 1_555
O92 Sc6 2.157837 1_555
O93 S18 1.498755 1_555
O93 Sc5 2.157190 1_545
O94 S19 1.491091 1_555
O94 Sc5 2.264802 1_445
O95 S20 1.502937 1_555
O95 Sc6 2.148743 1_555
O96 Si1 1.651250 1_555
O96 Sc7 1.947571 1_555
O97 Si2 1.638625 1_555
O98 S5 1.496808 1_555
O98 Sc7 2.245752 1_555
O99 S6 1.499718 1_555
O100 S8 1.500776 1_555
O100 Sc7 2.260666 1_555
O101 S7 1.499634 1_555
O102 S2 1.477981 1_555
O103 Si0 1.620580 1_555
O104 S4 1.477336 1_555
O105 S3 1.497859 1_655
O106 S0 1.471550 1_555
O107 S1 1.490282 1_545
O108 S21 1.470083 1_555
O109 S22 1.473490 1_555
O110 S24 1.473989 1_555
O111 S23 1.474859 1_655
O112 S25 1.476023 1_545
O113 S26 1.477535 1_545
O114 S27 1.511128 1_545
O114 Sc8 2.066210 1_555
O115 S28 1.479407 1_545
O116 S29 1.511344 1_555
O116 Sc8 2.110954 1_555
O117 S30 1.484005 1_555
O118 S32 1.515590 1_555
O118 Sc8 2.157518 1_555
O119 S31 1.481349 1_655
O120 S19 1.516062 1_555
O120 Sc9 2.124759 1_555
O121 S20 1.504276 1_555
O121 Sc10 2.141014 1_555
O122 S16 1.503298 1_455
O122 Sc9 2.140771 1_555
O123 S15 1.509634 1_555
O123 Sc10 2.131968 1_555
O124 S17 1.509151 1_565
O124 Sc9 2.139560 1_555
O125 S18 1.506970 1_565
O125 Sc10 2.139957 1_555
O126 S11 1.474490 1_565
O127 S12 1.477864 1_565
O128 S13 1.469612 1_555
O129 S14 1.479180 1_555
O130 S10 1.476137 1_455
O131 S9 1.466061 1_555
O132 S0 1.496313 1_565
O133 S1 1.506926 1_555
O133 Sc11 2.261600 1_555
O134 S2 1.490686 1_555
O135 Si0 1.658587 1_555
O135 Sc11 2.004967 1_555
O136 S3 1.484278 1_555
O137 S4 1.505586 1_555
O137 Sc11 2.179284 1_555
O138 S5 1.494767 1_555
O139 S6 1.478850 1_555
O140 S7 1.480594 1_455
O141 S8 1.476089 1_555
O142 Si1 1.628047 1_565
O143 Si2 1.637813 1_565
