# generated using pymatgen
data_LiFe2(PO4)3
_symmetry_space_group_name_H-M   'P 1'
_cell_length_a   8.63003000
_cell_length_b   8.36557800
_cell_length_c   11.87653915
_cell_angle_alpha   89.92507405
_cell_angle_beta   90.00000000
_cell_angle_gamma   90.00000000
_symmetry_Int_Tables_number   1
_chemical_formula_structural   LiFe2(PO4)3
_chemical_formula_sum   'Li4 Fe8 P12 O48'
_cell_volume   857.42825709
_cell_formula_units_Z   4
loop_
 _symmetry_equiv_pos_site_id
 _symmetry_equiv_pos_as_xyz
  1  'x, y, z'
loop_
 _atom_site_type_symbol
 _atom_site_label
 _atom_site_symmetry_multiplicity
 _atom_site_fract_x
 _atom_site_fract_y
 _atom_site_fract_z
 _atom_site_occupancy
  Li  Li0  1  0.22026700  0.19671200  0.80971600  1
  Li  Li1  1  0.77973300  0.80328800  0.19028400  1
  Li  Li2  1  0.27973300  0.69671200  0.30971600  1
  Li  Li3  1  0.72026700  0.30328800  0.69028400  1
  Fe  Fe0  1  0.03161200  0.74535600  0.88957800  1
  Fe  Fe1  1  0.53161200  0.75464400  0.61042200  1
  Fe  Fe2  1  0.96560800  0.74845000  0.39076300  1
  Fe  Fe3  1  0.46560800  0.75155000  0.10923700  1
  Fe  Fe4  1  0.53439200  0.24845000  0.89076300  1
  Fe  Fe5  1  0.03439200  0.25155000  0.60923700  1
  Fe  Fe6  1  0.46838800  0.24535600  0.38957800  1
  Fe  Fe7  1  0.96838800  0.25464400  0.11042200  1
  P  P0  1  0.39206900  0.39334000  0.64037200  1
  P  P1  1  0.24346200  0.46532700  0.99092100  1
  P  P2  1  0.11694600  0.38778500  0.34625800  1
  P  P3  1  0.75653800  0.53467300  0.00907900  1
  P  P4  1  0.60793100  0.60666000  0.35962800  1
  P  P5  1  0.88305400  0.61221500  0.65374200  1
  P  P6  1  0.10793100  0.89334000  0.14037200  1
  P  P7  1  0.38305400  0.88778500  0.84625800  1
  P  P8  1  0.74346200  0.03467300  0.50907900  1
  P  P9  1  0.61694600  0.11221500  0.15374200  1
  P  P10  1  0.89206900  0.10666000  0.85962800  1
  P  P11  1  0.25653800  0.96532700  0.49092100  1
  O  O0  1  0.43508600  0.27564700  0.54114900  1
  O  O1  1  0.37117300  0.89876000  0.58076600  1
  O  O2  1  0.44002600  0.84657300  0.96451800  1
  O  O3  1  0.98781300  0.85765400  0.23223000  1
  O  O4  1  0.20156500  0.86924700  0.83866000  1
  O  O5  1  0.66581900  0.93469000  0.60583800  1
  O  O6  1  0.85963600  0.94019300  0.43911800  1
  O  O7  1  0.89453800  0.93010100  0.89811800  1
  O  O8  1  0.10546200  0.06989900  0.10188200  1
  O  O9  1  0.14036400  0.05980700  0.56088200  1
  O  O10  1  0.33418100  0.06531000  0.39416200  1
  O  O11  1  0.40870000  0.06576700  0.81943000  1
  O  O12  1  0.62882700  0.10124000  0.41923400  1
  O  O13  1  0.79843500  0.13075300  0.16134000  1
  O  O14  1  0.55997400  0.15342700  0.03548200  1
  O  O15  1  0.01218700  0.14234600  0.76777000  1
  O  O16  1  0.72805200  0.15314100  0.82093100  1
  O  O17  1  0.81798500  0.17314500  0.57434800  1
  O  O18  1  0.93508600  0.22435300  0.95885100  1
  O  O19  1  0.52359700  0.22285200  0.23473100  1
  O  O20  1  0.02359700  0.27714800  0.26526900  1
  O  O21  1  0.59130000  0.93423300  0.18057000  1
  O  O22  1  0.31798500  0.32685500  0.92565200  1
  O  O23  1  0.22805200  0.34685900  0.67906900  1
  O  O24  1  0.05997400  0.34657300  0.46451800  1
  O  O25  1  0.51218700  0.35765400  0.73223000  1
  O  O26  1  0.29843500  0.36924700  0.33866000  1
  O  O27  1  0.12882700  0.39876000  0.08076600  1
  O  O28  1  0.83418100  0.43469000  0.10583800  1
  O  O29  1  0.60546200  0.43010100  0.39811800  1
  O  O30  1  0.90870000  0.43423300  0.68057000  1
  O  O31  1  0.64036400  0.44019300  0.93911800  1
  O  O32  1  0.35963600  0.55980700  0.06088200  1
  O  O33  1  0.09130000  0.56576700  0.31943000  1
  O  O34  1  0.39453800  0.56989900  0.60188200  1
  O  O35  1  0.16581900  0.56531000  0.89416200  1
  O  O36  1  0.87117300  0.60124000  0.91923400  1
  O  O37  1  0.70156500  0.63075300  0.66134000  1
  O  O38  1  0.48781300  0.64234600  0.26777000  1
  O  O39  1  0.94002600  0.65342700  0.53548200  1
  O  O40  1  0.77194800  0.65314100  0.32093100  1
  O  O41  1  0.68201500  0.67314500  0.07434800  1
  O  O42  1  0.27194800  0.84685900  0.17906900  1
  O  O43  1  0.97640300  0.72285200  0.73473100  1
  O  O44  1  0.47640300  0.77714800  0.76526900  1
  O  O45  1  0.06491400  0.77564700  0.04114900  1
  O  O46  1  0.18201500  0.82685500  0.42565200  1
  O  O47  1  0.56491400  0.72435300  0.45885100  1
loop_
_geom_bond_atom_site_label_1
_geom_bond_atom_site_label_2
_geom_bond_distance
_geom_bond_site_symmetry_2
Li0 O15 1.918407 1_555
Li0 O22 1.948412 1_555
Li0 O11 1.964031 1_555
Li0 O23 1.996168 1_555
Li1 O3 1.918407 1_555
Li1 O41 1.948412 1_555
Li1 O21 1.964031 1_555
Li1 O40 1.996168 1_555
Li2 O38 1.918407 1_555
Li2 O46 1.948412 1_555
Li2 O33 1.964031 1_555
Li2 O42 1.996168 1_555
Li3 O25 1.918407 1_555
Li3 O17 1.948412 1_555
Li3 O30 1.964031 1_555
Li3 O16 1.996168 1_555
Fe0 O45 1.840789 1_556
Fe0 O36 1.869103 1_455
Fe0 O4 1.894580 1_555
Fe0 O35 1.900738 1_555
Fe0 O43 1.909306 1_455
Fe0 O7 1.949010 1_455
Fe1 O47 1.840789 1_555
Fe1 O1 1.869103 1_555
Fe1 O37 1.894580 1_555
Fe1 O5 1.900738 1_555
Fe1 O44 1.909306 1_555
Fe1 O34 1.949010 1_555
Fe2 O39 1.905573 1_555
Fe2 O6 1.934309 1_555
Fe2 O46 2.022508 1_655
Fe2 O40 2.029408 1_555
Fe2 O33 2.057496 1_655
Fe2 O3 2.100435 1_555
Fe3 O2 1.905573 1_554
Fe3 O32 1.934309 1_555
Fe3 O41 2.022508 1_555
Fe3 O42 2.029408 1_555
Fe3 O21 2.057496 1_555
Fe3 O38 2.100435 1_555
Fe4 O14 1.905573 1_556
Fe4 O31 1.934309 1_555
Fe4 O22 2.022508 1_555
Fe4 O16 2.029408 1_555
Fe4 O11 2.057496 1_555
Fe4 O25 2.100435 1_555
Fe5 O24 1.905573 1_555
Fe5 O9 1.934309 1_555
Fe5 O17 2.022508 1_455
Fe5 O23 2.029408 1_555
Fe5 O30 2.057496 1_455
Fe5 O15 2.100435 1_555
Fe6 O0 1.840789 1_555
Fe6 O12 1.869103 1_555
Fe6 O26 1.894580 1_555
Fe6 O10 1.900738 1_555
Fe6 O19 1.909306 1_555
Fe6 O29 1.949010 1_555
Fe7 O18 1.840789 1_554
Fe7 O27 1.869103 1_655
Fe7 O13 1.894580 1_555
Fe7 O28 1.900738 1_555
Fe7 O20 1.909306 1_655
Fe7 O8 1.949010 1_655
O0 P0 1.580797 1_555
O1 P11 1.557518 1_555
O2 P7 1.527092 1_555
O3 P6 1.533962 1_655
O4 P7 1.576511 1_555
O5 P8 1.570552 1_565
O6 P8 1.523805 1_565
O7 P10 1.545716 1_565
O8 P6 1.545716 1_545
O9 P11 1.523805 1_545
O10 P11 1.570552 1_545
O11 P7 1.538231 1_545
O12 P8 1.557518 1_555
O13 P9 1.576511 1_555
O14 P9 1.527092 1_555
O15 P10 1.533962 1_455
O16 P10 1.538021 1_555
O17 P8 1.535821 1_555
O18 P10 1.580797 1_555
O19 P9 1.559855 1_555
O20 P2 1.559855 1_555
O21 P9 1.538231 1_565
O22 P1 1.535821 1_555
O23 P0 1.538021 1_555
O24 P2 1.527092 1_555
O25 P0 1.533962 1_555
O26 P2 1.576511 1_555
O27 P1 1.557518 1_554
O28 P3 1.570552 1_555
O29 P4 1.545716 1_555
O30 P5 1.538231 1_555
O31 P3 1.523805 1_556
O32 P1 1.523805 1_554
O33 P2 1.538231 1_555
O34 P0 1.545716 1_555
O35 P1 1.570552 1_555
O36 P3 1.557518 1_556
O37 P5 1.576511 1_555
O38 P4 1.533962 1_555
O39 P5 1.527092 1_555
O40 P4 1.538021 1_555
O41 P3 1.535821 1_555
O42 P6 1.538021 1_555
O43 P5 1.559855 1_555
O44 P7 1.559855 1_555
O45 P6 1.580797 1_555
O46 P11 1.535821 1_555
O47 P4 1.580797 1_555
