# generated using pymatgen
data_MgTiVO4
_symmetry_space_group_name_H-M   'P 1'
_cell_length_a   5.14790683
_cell_length_b   5.14877456
_cell_length_c   5.14844723
_cell_angle_alpha   132.12220719
_cell_angle_beta   132.22048319
_cell_angle_gamma   69.96070387
_symmetry_Int_Tables_number   1
_chemical_formula_structural   MgTiVO4
_chemical_formula_sum   'Mg1 Ti1 V1 O4'
_cell_volume   73.49244751
_cell_formula_units_Z   1
loop_
 _symmetry_equiv_pos_site_id
 _symmetry_equiv_pos_as_xyz
  1  'x, y, z'
loop_
 _atom_site_type_symbol
 _atom_site_label
 _atom_site_symmetry_multiplicity
 _atom_site_fract_x
 _atom_site_fract_y
 _atom_site_fract_z
 _atom_site_occupancy
  Mg  Mg0  1  0.23583100  0.73596900  0.49801600  1
  Ti  Ti0  1  0.73831200  0.23843800  0.49800900  1
  V  V0  1  0.98838500  0.98821600  0.99863400  1
  O  O0  1  0.50481900  0.00464600  0.49864500  1
  O  O1  1  0.23192700  0.23191200  0.99816900  1
  O  O2  1  0.97296000  0.47287000  0.49855900  1
  O  O3  1  0.74443200  0.74461600  0.99806300  1
loop_
_geom_bond_atom_site_label_1
_geom_bond_atom_site_label_2
_geom_bond_distance
_geom_bond_site_symmetry_2
Mg0 O3 2.086151 1_555
Mg0 O3 2.086172 1_454
Mg0 O1 2.089389 1_565
Mg0 O1 2.089395 1_554
Mg0 O2 2.220983 1_455
Mg0 O0 2.265372 1_565
O0 Ti0 1.973826 1_555
O0 V0 2.089493 1_545
O0 V0 2.089507 1_444
O1 V0 2.057272 1_445
O1 Ti0 2.084991 1_556
O1 Ti0 2.086265 1_455
O2 Ti0 1.976394 1_555
O2 V0 2.093118 1_544
O2 V0 2.093122 1_555
O3 V0 2.054230 1_555
O3 Ti0 2.089512 1_566
O3 Ti0 2.089988 1_555
