# generated using pymatgen
data_TiFe2O5
_symmetry_space_group_name_H-M   'P 1'
_cell_length_a   3.79520400
_cell_length_b   5.32952000
_cell_length_c   10.02789900
_cell_angle_alpha   90.00000000
_cell_angle_beta   90.00000000
_cell_angle_gamma   110.85811395
_symmetry_Int_Tables_number   1
_chemical_formula_structural   TiFe2O5
_chemical_formula_sum   'Ti2 Fe4 O10'
_cell_volume   189.53796801
_cell_formula_units_Z   2
loop_
 _symmetry_equiv_pos_site_id
 _symmetry_equiv_pos_as_xyz
  1  'x, y, z'
loop_
 _atom_site_type_symbol
 _atom_site_label
 _atom_site_symmetry_multiplicity
 _atom_site_fract_x
 _atom_site_fract_y
 _atom_site_fract_z
 _atom_site_occupancy
  Ti  Ti0  1  0.18128200  0.36256300  0.75000000  1
  Ti  Ti1  1  0.81871800  0.63743700  0.25000000  1
  Fe  Fe0  1  0.14069500  0.28138900  0.43958300  1
  Fe  Fe1  1  0.85930500  0.71861100  0.56041800  1
  Fe  Fe2  1  0.85930500  0.71861100  0.93958200  1
  Fe  Fe3  1  0.14069500  0.28138900  0.06041800  1
  O  O0  1  0.30597900  0.61195700  0.57859000  1
  O  O1  1  0.69402100  0.38804300  0.42141100  1
  O  O2  1  0.69402100  0.38804300  0.07859000  1
  O  O3  1  0.30597900  0.61195700  0.92141000  1
  O  O4  1  0.04698600  0.09397100  0.61977600  1
  O  O5  1  0.95301400  0.90602900  0.38022300  1
  O  O6  1  0.74586500  0.49173100  0.75000000  1
  O  O7  1  0.25413500  0.50826900  0.25000000  1
  O  O8  1  0.95301400  0.90602900  0.11977700  1
  O  O9  1  0.04698600  0.09397100  0.88022400  1
loop_
_geom_bond_atom_site_label_1
_geom_bond_atom_site_label_2
_geom_bond_distance
_geom_bond_site_symmetry_2
Fe0 O5 1.961871 1_445
Fe0 O1 1.978944 1_555
Fe0 O1 1.978952 1_455
Fe0 O4 2.033792 1_555
Fe0 O0 2.157182 1_555
Fe0 O7 2.211554 1_555
Fe1 O4 1.961865 1_665
Fe1 O0 1.978944 1_555
Fe1 O0 1.978952 1_655
Fe1 O5 2.033809 1_555
Fe1 O1 2.157182 1_555
Fe1 O6 2.211545 1_555
Fe2 O9 1.961865 1_665
Fe2 O3 1.978944 1_555
Fe2 O3 1.978952 1_655
Fe2 O8 2.033809 1_556
Fe2 O2 2.157188 1_556
Fe2 O6 2.211545 1_555
Fe3 O8 1.961868 1_445
Fe3 O2 1.978944 1_555
Fe3 O2 1.978952 1_455
Fe3 O9 2.033801 1_554
Fe3 O3 2.157188 1_554
Fe3 O7 2.211545 1_555
O0 Ti0 2.120667 1_555
O1 Ti1 2.120676 1_555
O2 Ti1 2.120667 1_555
O3 Ti0 2.120667 1_555
O4 Ti0 1.869392 1_555
O5 Ti1 1.869385 1_555
O6 Ti0 2.003672 1_555
O6 Ti0 2.003679 1_655
O7 Ti1 2.003672 1_555
O7 Ti1 2.003679 1_455
O8 Ti1 1.869385 1_555
O9 Ti0 1.869392 1_555
