# generated using pymatgen
data_P(HO)4
_symmetry_space_group_name_H-M   'P 1'
_cell_length_a   6.70418400
_cell_length_b   9.57072200
_cell_length_c   11.72238900
_cell_angle_alpha   90.00000000
_cell_angle_beta   90.00000000
_cell_angle_gamma   90.00000000
_symmetry_Int_Tables_number   1
_chemical_formula_structural   P(HO)4
_chemical_formula_sum   'P8 H32 O32'
_cell_volume   752.15397636
_cell_formula_units_Z   8
loop_
 _symmetry_equiv_pos_site_id
 _symmetry_equiv_pos_as_xyz
  1  'x, y, z'
loop_
 _atom_site_type_symbol
 _atom_site_label
 _atom_site_symmetry_multiplicity
 _atom_site_fract_x
 _atom_site_fract_y
 _atom_site_fract_z
 _atom_site_occupancy
  P  P0  1  0.91314500  0.71027000  0.73663200  1
  P  P1  1  0.41314500  0.78973000  0.26336800  1
  P  P2  1  0.58685500  0.71027000  0.76336800  1
  P  P3  1  0.08685500  0.78973000  0.23663200  1
  P  P4  1  0.08685500  0.28973000  0.26336800  1
  P  P5  1  0.58685500  0.21027000  0.73663200  1
  P  P6  1  0.41314500  0.28973000  0.23663200  1
  P  P7  1  0.91314500  0.21027000  0.76336800  1
  H  H0  1  0.62845700  0.90204900  0.10285200  1
  H  H1  1  0.12845700  0.59795100  0.89714800  1
  H  H2  1  0.87154300  0.90204900  0.39714800  1
  H  H3  1  0.37154300  0.59795100  0.60285200  1
  H  H4  1  0.37154300  0.09795100  0.89714800  1
  H  H5  1  0.87154300  0.40204900  0.10285200  1
  H  H6  1  0.12845700  0.09795100  0.60285200  1
  H  H7  1  0.62845700  0.40204900  0.39714800  1
  H  H8  1  0.65269100  0.82148300  0.97455500  1
  H  H9  1  0.15269100  0.67851700  0.02544500  1
  H  H10  1  0.84730900  0.82148300  0.52544500  1
  H  H11  1  0.34730900  0.67851700  0.47455500  1
  H  H12  1  0.34730900  0.17851700  0.02544500  1
  H  H13  1  0.84730900  0.32148300  0.97455500  1
  H  H14  1  0.15269100  0.17851700  0.47455500  1
  H  H15  1  0.65269100  0.32148300  0.52544500  1
  H  H16  1  0.85282100  0.84516700  0.05947700  1
  H  H17  1  0.35282100  0.65483300  0.94052300  1
  H  H18  1  0.64717900  0.84516700  0.44052300  1
  H  H19  1  0.14717900  0.65483300  0.55947700  1
  H  H20  1  0.14717900  0.15483300  0.94052300  1
  H  H21  1  0.64717900  0.34516700  0.05947700  1
  H  H22  1  0.35282100  0.15483300  0.55947700  1
  H  H23  1  0.85282100  0.34516700  0.44052300  1
  H  H24  1  0.99531700  0.93394400  0.76644900  1
  H  H25  1  0.49531700  0.56605600  0.23355100  1
  H  H26  1  0.50468300  0.93394400  0.73355100  1
  H  H27  1  0.00468300  0.56605600  0.26644900  1
  H  H28  1  0.00468300  0.06605600  0.23355100  1
  H  H29  1  0.50468300  0.43394400  0.76644900  1
  H  H30  1  0.49531700  0.06605600  0.26644900  1
  H  H31  1  0.99531700  0.43394400  0.73355100  1
  O  O0  1  0.72041400  0.88828300  0.03213200  1
  O  O1  1  0.22041400  0.61171700  0.96786800  1
  O  O2  1  0.77958600  0.88828300  0.46786800  1
  O  O3  1  0.27958600  0.61171700  0.53213200  1
  O  O4  1  0.27958600  0.11171700  0.96786800  1
  O  O5  1  0.77958600  0.38828300  0.03213200  1
  O  O6  1  0.22041400  0.11171700  0.53213200  1
  O  O7  1  0.72041400  0.38828300  0.46786800  1
  O  O8  1  0.00027100  0.57907500  0.79263100  1
  O  O9  1  0.50027100  0.92092500  0.20736900  1
  O  O10  1  0.49972900  0.57907500  0.70736900  1
  O  O11  1  0.99972900  0.92092500  0.29263100  1
  O  O12  1  0.99972900  0.42092500  0.20736900  1
  O  O13  1  0.49972900  0.07907500  0.79263100  1
  O  O14  1  0.50027100  0.42092500  0.29263100  1
  O  O15  1  0.00027100  0.07907500  0.70736900  1
  O  O16  1  0.95307200  0.72251500  0.60835200  1
  O  O17  1  0.45307200  0.77748500  0.39164800  1
  O  O18  1  0.54692800  0.72251500  0.89164800  1
  O  O19  1  0.04692800  0.77748500  0.10835200  1
  O  O20  1  0.04692800  0.27748500  0.39164800  1
  O  O21  1  0.54692800  0.22251500  0.60835200  1
  O  O22  1  0.45307200  0.27748500  0.10835200  1
  O  O23  1  0.95307200  0.22251500  0.89164800  1
  O  O24  1  0.99459800  0.83877200  0.80686800  1
  O  O25  1  0.49459800  0.66122800  0.19313200  1
  O  O26  1  0.50540200  0.83877200  0.69313200  1
  O  O27  1  0.00540200  0.66122800  0.30686800  1
  O  O28  1  0.00540200  0.16122800  0.19313200  1
  O  O29  1  0.50540200  0.33877200  0.80686800  1
  O  O30  1  0.49459800  0.16122800  0.30686800  1
  O  O31  1  0.99459800  0.33877200  0.69313200  1
loop_
_geom_bond_atom_site_label_1
_geom_bond_atom_site_label_2
_geom_bond_distance
_geom_bond_site_symmetry_2
H0 O0 1.041479 1_555
H0 O9 1.507403 1_555
H1 O1 1.041479 1_555
H1 O8 1.507403 1_555
H2 O2 1.041479 1_555
H2 O11 1.507403 1_555
H3 O3 1.041479 1_555
H3 O10 1.507403 1_555
H4 O4 1.041479 1_555
H4 O13 1.507403 1_555
H5 O5 1.041479 1_555
H5 O12 1.507403 1_555
H6 O6 1.041479 1_555
H6 O15 1.507403 1_555
H7 O7 1.041479 1_555
H7 O14 1.507403 1_555
H8 O0 1.034611 1_556
H8 O18 1.531165 1_555
H9 O1 1.034611 1_554
H9 O19 1.531165 1_555
H10 O2 1.034611 1_555
H10 O16 1.531165 1_555
H11 O3 1.034611 1_555
H11 O17 1.531165 1_555
H12 O4 1.034611 1_554
H12 O22 1.531165 1_555
H13 O5 1.034611 1_556
H13 O23 1.531165 1_555
H14 O6 1.034611 1_555
H14 O20 1.531165 1_555
H15 O7 1.034611 1_555
H15 O21 1.531165 1_555
H16 O0 1.030053 1_555
H16 O19 1.562469 1_655
H17 O1 1.030053 1_555
H17 O18 1.562469 1_555
H18 O2 1.030053 1_555
H18 O17 1.562469 1_555
H19 O3 1.030053 1_555
H19 O16 1.562469 1_455
H20 O4 1.030053 1_555
H20 O23 1.562469 1_455
H21 O5 1.030053 1_555
H21 O22 1.562469 1_555
H22 O6 1.030053 1_555
H22 O21 1.562469 1_555
H23 O7 1.030053 1_555
H23 O20 1.562469 1_655
H24 O24 1.026738 1_555
H24 O15 1.552445 1_665
H25 O25 1.026738 1_555
H25 O14 1.552445 1_555
H26 O26 1.026738 1_555
H26 O13 1.552445 1_565
H27 O27 1.026738 1_555
H27 O12 1.552445 1_455
H28 O28 1.026738 1_555
H28 O11 1.552445 1_445
H29 O29 1.026738 1_555
H29 O10 1.552445 1_555
H30 O30 1.026738 1_555
H30 O9 1.552445 1_545
H31 O31 1.026738 1_555
H31 O8 1.552445 1_655
O8 P0 1.532550 1_455
O9 P1 1.532550 1_555
O10 P2 1.532550 1_555
O11 P3 1.532550 1_655
O12 P4 1.532550 1_655
O13 P5 1.532550 1_555
O14 P6 1.532550 1_555
O15 P7 1.532550 1_455
O16 P0 1.531876 1_555
O17 P1 1.531876 1_555
O18 P2 1.531876 1_555
O19 P3 1.531876 1_555
O20 P4 1.531876 1_555
O21 P5 1.531876 1_555
O22 P6 1.531876 1_555
O23 P7 1.531876 1_555
O24 P0 1.577538 1_555
O25 P1 1.577538 1_555
O26 P2 1.577538 1_555
O27 P3 1.577538 1_555
O28 P4 1.577538 1_555
O29 P5 1.577538 1_555
O30 P6 1.577538 1_555
O31 P7 1.577538 1_555
