# generated using pymatgen
data_NaCaZrP(SO6)2
_symmetry_space_group_name_H-M   'P 1'
_cell_length_a   9.06520088
_cell_length_b   9.06025887
_cell_length_c   23.75975392
_cell_angle_alpha   89.68608768
_cell_angle_beta   90.00000000
_cell_angle_gamma   120.01804532
_symmetry_Int_Tables_number   1
_chemical_formula_structural   NaCaZrP(SO6)2
_chemical_formula_sum   'Na6 Ca6 Zr6 P6 S12 O72'
_cell_volume   1689.67397640
_cell_formula_units_Z   6
loop_
 _symmetry_equiv_pos_site_id
 _symmetry_equiv_pos_as_xyz
  1  'x, y, z'
loop_
 _atom_site_type_symbol
 _atom_site_label
 _atom_site_symmetry_multiplicity
 _atom_site_fract_x
 _atom_site_fract_y
 _atom_site_fract_z
 _atom_site_occupancy
  Na  Na0  1  0.98422187  0.98773672  0.50413704  1
  Na  Na1  1  0.00351485  0.98773672  0.00413704  1
  Na  Na2  1  0.65758170  0.31722783  0.83760074  1
  Na  Na3  1  0.65964713  0.31722783  0.33760074  1
  Na  Na4  1  0.32709107  0.67533018  0.17112853  1
  Na  Na5  1  0.34823811  0.67533018  0.67112853  1
  Ca  Ca0  1  0.99224459  0.99576308  0.64765301  1
  Ca  Ca1  1  0.00351849  0.99576308  0.14765301  1
  Ca  Ca2  1  0.66540943  0.33337609  0.98107469  1
  Ca  Ca3  1  0.66796766  0.33337609  0.48107469  1
  Ca  Ca4  1  0.33639604  0.67524720  0.31449651  1
  Ca  Ca5  1  0.33885016  0.67524720  0.81449651  1
  Zr  Zr0  1  0.00449368  0.00000868  0.35135433  1
  Zr  Zr1  1  0.99551499  0.00000868  0.85135433  1
  Zr  Zr2  1  0.66771103  0.33423052  0.68480256  1
  Zr  Zr3  1  0.66652049  0.33423052  0.18480256  1
  Zr  Zr4  1  0.32122021  0.67486220  0.01825959  1
  Zr  Zr5  1  0.35364099  0.67486220  0.51825959  1
  P  P0  1  0.29794635  0.00560549  0.24841783  1
  P  P1  1  0.70765914  0.00560549  0.74841783  1
  P  P2  1  0.66558188  0.62432119  0.58179469  1
  P  P3  1  0.95874031  0.62432119  0.08179469  1
  P  P4  1  0.32781171  0.96288739  0.91430080  1
  P  P5  1  0.63507467  0.96288739  0.41430080  1
  S  S0  1  0.70879565  0.70294770  0.24945881  1
  S  S1  1  0.99512013  0.29064252  0.24920133  1
  S  S2  1  0.29552239  0.29064252  0.74920133  1
  S  S3  1  0.99415205  0.70294770  0.74945881  1
  S  S4  1  0.96622578  0.34168648  0.58260151  1
  S  S5  1  0.37529374  0.03694510  0.58297150  1
  S  S6  1  0.66165236  0.03694510  0.08297150  1
  S  S7  1  0.37546170  0.34168648  0.08260151  1
  S  S8  1  0.62815077  0.67130811  0.91657781  1
  S  S9  1  0.04292497  0.37030340  0.91581930  1
  S  S10  1  0.32737743  0.37030340  0.41581930  1
  S  S11  1  0.04315635  0.67130811  0.41657781  1
  O  O0  1  0.20330390  0.02752924  0.30277518  1
  O  O1  1  0.81727500  0.78878474  0.30074390  1
  O  O2  1  0.97088612  0.18098233  0.30085443  1
  O  O3  1  0.21009621  0.18098233  0.80085443  1
  O  O4  1  0.97150974  0.78878474  0.80074390  1
  O  O5  1  0.82422533  0.02752924  0.80277518  1
  O  O6  1  0.79417433  0.98899240  0.69693250  1
  O  O7  1  0.19804833  0.21130005  0.69884431  1
  O  O8  1  0.01915952  0.80391968  0.69931705  1
  O  O9  1  0.78476017  0.80391968  0.19931705  1
  O  O10  1  0.01325172  0.21130005  0.19884431  1
  O  O11  1  0.19481806  0.98899240  0.19693250  1
  O  O12  1  0.87665031  0.36068756  0.63422800  1
  O  O13  1  0.48462276  0.12104480  0.63431582  1
  O  O14  1  0.64144255  0.50776107  0.63607161  1
  O  O15  1  0.86631952  0.50776107  0.13607161  1
  O  O16  1  0.63642304  0.12104480  0.13431582  1
  O  O17  1  0.48403825  0.36068756  0.13422800  1
  O  O18  1  0.45316042  0.31721999  0.03279752  1
  O  O19  1  0.85941431  0.53903991  0.02967764  1
  O  O20  1  0.68134214  0.13478019  0.03251907  1
  O  O21  1  0.45343906  0.13478019  0.53251907  1
  O  O22  1  0.67962659  0.53903991  0.52967764  1
  O  O23  1  0.86406057  0.31721999  0.53279752  1
  O  O24  1  0.54346420  0.69404940  0.96758443  1
  O  O25  1  0.15123678  0.45571277  0.96736751  1
  O  O26  1  0.30305764  0.84422901  0.96945133  1
  O  O27  1  0.54117037  0.84422901  0.46945133  1
  O  O28  1  0.30447499  0.45571277  0.46736751  1
  O  O29  1  0.15058420  0.69404940  0.46758443  1
  O  O30  1  0.12003142  0.64964109  0.36587185  1
  O  O31  1  0.52823347  0.87600085  0.36359048  1
  O  O32  1  0.34571695  0.46877642  0.36542332  1
  O  O33  1  0.12305847  0.46877642  0.86542332  1
  O  O34  1  0.34776638  0.87600085  0.86359048  1
  O  O35  1  0.52960867  0.64964109  0.86587185  1
  O  O36  1  0.03231647  0.83414116  0.41105241  1
  O  O37  1  0.81470132  0.97104554  0.40900894  1
  O  O38  1  0.16570965  0.19725860  0.41182759  1
  O  O39  1  0.03154895  0.19725860  0.91182759  1
  O  O40  1  0.15634422  0.97104554  0.90900894  1
  O  O41  1  0.80182469  0.83414116  0.91105241  1
  O  O42  1  0.99357061  0.19703194  0.58951338  1
  O  O43  1  0.20509610  0.01329160  0.59030753  1
  O  O44  1  0.81449368  0.80381728  0.58770184  1
  O  O45  1  0.98932359  0.80381728  0.08770184  1
  O  O46  1  0.80819550  0.01329160  0.09030753  1
  O  O47  1  0.20346133  0.19703194  0.08951338  1
  O  O48  1  0.69713777  0.17684685  0.74303872  1
  O  O49  1  0.46914421  0.30275754  0.74489600  1
  O  O50  1  0.83110942  0.53157069  0.74476498  1
  O  O51  1  0.70046227  0.53157069  0.24476498  1
  O  O52  1  0.83361433  0.30275754  0.24489600  1
  O  O53  1  0.47971007  0.17684685  0.24303872  1
  O  O54  1  0.65698097  0.52762878  0.92248906  1
  O  O55  1  0.87183940  0.34501214  0.92228338  1
  O  O56  1  0.47873888  0.14001813  0.92217132  1
  O  O57  1  0.66128024  0.14001813  0.42217132  1
  O  O58  1  0.47317374  0.34501214  0.42228338  1
  O  O59  1  0.87064881  0.52762878  0.42248906  1
  O  O60  1  0.36819884  0.50380068  0.07793004  1
  O  O61  1  0.14235884  0.63434109  0.07717519  1
  O  O62  1  0.50076905  0.86267889  0.07850080  1
  O  O63  1  0.36190884  0.86267889  0.57850080  1
  O  O64  1  0.49198125  0.63434109  0.57717519  1
  O  O65  1  0.13560084  0.50380068  0.57793004  1
  O  O66  1  0.32524631  0.85433380  0.25466217  1
  O  O67  1  0.53588556  0.67273590  0.25644808  1
  O  O68  1  0.14173107  0.46080805  0.25621203  1
  O  O69  1  0.31907598  0.46080805  0.75621203  1
  O  O70  1  0.13684934  0.67273590  0.75644808  1
  O  O71  1  0.52908649  0.85433380  0.75466217  1
loop_
_geom_bond_atom_site_label_1
_geom_bond_atom_site_label_2
_geom_bond_distance
_geom_bond_site_symmetry_2
Na0 O44 2.546504 1_555
Na0 O37 2.695228 1_555
Na0 O42 2.756678 1_565
Na0 O36 2.767478 1_655
Na0 O43 2.792104 1_665
Na0 O38 2.819618 1_665
Na1 O45 2.546504 1_455
Na1 O40 2.695228 1_554
Na1 O47 2.756678 1_565
Na1 O41 2.767478 1_454
Na1 O46 2.792104 1_465
Na1 O39 2.819618 1_564
Na2 O56 2.569841 1_555
Na2 O48 2.698499 1_555
Na2 O55 2.720386 1_555
Na2 O49 2.750624 1_555
Na2 O54 2.784684 1_555
Na2 O50 2.829798 1_555
Na3 O57 2.569841 1_555
Na3 O53 2.698499 1_555
Na3 O58 2.720386 1_555
Na3 O52 2.750624 1_555
Na3 O59 2.784684 1_555
Na3 O51 2.829798 1_555
Na4 O66 2.575300 1_555
Na4 O61 2.704136 1_555
Na4 O68 2.716088 1_555
Na4 O62 2.736565 1_555
Na4 O67 2.781461 1_555
Na4 O60 2.841603 1_555
Na5 O71 2.575300 1_555
Na5 O64 2.704136 1_555
Na5 O69 2.716088 1_555
Na5 O63 2.736565 1_555
Na5 O70 2.781461 1_555
Na5 O65 2.841603 1_555
Ca0 O6 2.118417 1_555
Ca0 O44 2.207527 1_555
Ca0 O8 2.233486 1_655
Ca0 O7 2.270306 1_665
Ca0 O42 2.276874 1_565
Ca0 O43 2.301266 1_665
Ca1 O11 2.118417 1_555
Ca1 O45 2.207527 1_455
Ca1 O9 2.233486 1_455
Ca1 O10 2.270306 1_565
Ca1 O47 2.276874 1_565
Ca1 O46 2.301266 1_465
Ca2 O19 2.154852 1_556
Ca2 O18 2.224857 1_556
Ca2 O56 2.225314 1_555
Ca2 O20 2.233474 1_556
Ca2 O54 2.269069 1_555
Ca2 O55 2.294606 1_555
Ca3 O22 2.154852 1_555
Ca3 O23 2.224857 1_555
Ca3 O57 2.225314 1_555
Ca3 O21 2.233474 1_555
Ca3 O59 2.269069 1_555
Ca3 O58 2.294606 1_555
Ca4 O31 2.133457 1_555
Ca4 O66 2.191541 1_555
Ca4 O30 2.220924 1_555
Ca4 O32 2.259214 1_555
Ca4 O67 2.283555 1_555
Ca4 O68 2.325006 1_555
Ca5 O34 2.133457 1_555
Ca5 O71 2.191541 1_555
Ca5 O35 2.220924 1_555
Ca5 O33 2.259214 1_555
Ca5 O70 2.283555 1_555
Ca5 O69 2.325006 1_555
O0 P0 1.617677 1_555
O0 Zr0 2.046890 1_555
O1 S0 1.517185 1_555
O1 Zr0 2.182725 1_665
O2 S1 1.519813 1_555
O2 Zr0 2.167778 1_655
O3 S2 1.519813 1_555
O3 Zr1 2.167778 1_455
O4 S3 1.517185 1_555
O4 Zr1 2.182725 1_565
O5 P1 1.617677 1_555
O5 Zr1 2.046890 1_555
O6 P1 1.501429 1_565
O7 S2 1.450161 1_555
O8 S3 1.445058 1_455
O9 S0 1.445058 1_555
O10 S1 1.450161 1_455
O11 P0 1.501429 1_565
O12 S4 1.528340 1_555
O12 Zr2 2.152091 1_555
O13 S5 1.518444 1_555
O13 Zr2 2.177667 1_555
O14 P2 1.606268 1_555
O14 Zr2 2.055201 1_555
O15 P3 1.606268 1_555
O15 Zr3 2.055201 1_555
O16 S6 1.518444 1_555
O16 Zr3 2.177667 1_555
O17 S7 1.528340 1_555
O17 Zr3 2.152091 1_555
O18 S7 1.450731 1_555
O19 P3 1.501832 1_555
O20 S6 1.443817 1_555
O21 S5 1.443817 1_555
O22 P2 1.501832 1_555
O23 S4 1.450731 1_555
O24 S8 1.503839 1_555
O24 Zr4 2.277312 1_556
O25 S9 1.520894 1_555
O25 Zr4 2.178084 1_556
O26 P4 1.632905 1_555
O26 Zr4 1.989963 1_556
O27 P5 1.632905 1_555
O27 Zr5 1.989963 1_555
O28 S10 1.520894 1_555
O28 Zr5 2.178084 1_555
O29 S11 1.503839 1_555
O29 Zr5 2.277312 1_555
O30 S11 1.454342 1_555
O31 P5 1.502332 1_555
O32 S10 1.448201 1_555
O33 S9 1.448201 1_555
O34 P4 1.502332 1_555
O35 S8 1.454342 1_555
O36 S11 1.531783 1_555
O36 Zr0 2.165596 1_565
O37 P5 1.597584 1_555
O37 Zr0 2.109466 1_665
O38 S10 1.522356 1_555
O38 Zr0 2.192961 1_555
O39 S9 1.522360 1_555
O39 Zr1 2.192961 1_455
O40 P4 1.597575 1_555
O40 Zr1 2.109466 1_465
O41 S8 1.531788 1_555
O41 Zr1 2.165596 1_565
O42 S4 1.459044 1_555
O43 S5 1.457922 1_555
O44 P2 1.514174 1_555
O45 P3 1.514177 1_555
O46 S6 1.457913 1_555
O47 S7 1.459050 1_555
O48 P1 1.605753 1_555
O48 Zr2 2.092364 1_555
O49 S2 1.525368 1_555
O49 Zr2 2.200473 1_555
O50 S3 1.521054 1_555
O50 Zr2 2.190588 1_555
O51 S0 1.521059 1_555
O51 Zr3 2.190588 1_555
O52 S1 1.525359 1_555
O52 Zr3 2.200473 1_555
O53 P0 1.605758 1_555
O53 Zr3 2.092364 1_555
O54 S8 1.456380 1_555
O55 S9 1.457909 1_655
O56 P4 1.512879 1_545
O57 P5 1.512872 1_545
O58 S10 1.457927 1_555
O59 S11 1.456369 1_655
O60 S7 1.506316 1_555
O60 Zr4 2.286873 1_555
O61 P3 1.624708 1_455
O61 Zr4 2.030280 1_555
O62 S6 1.526139 1_565
O62 Zr4 2.202053 1_555
O63 S5 1.526131 1_565
O63 Zr5 2.202053 1_555
O64 P2 1.624726 1_555
O64 Zr5 2.030280 1_555
O65 S4 1.506307 1_455
O65 Zr5 2.286873 1_555
O66 P0 1.516192 1_565
O67 S0 1.459335 1_555
O68 S1 1.457307 1_455
O69 S2 1.457311 1_555
O70 S3 1.459327 1_455
O71 P1 1.516197 1_565
