# generated using pymatgen
data_Na2Sm2MgTi3O10
_symmetry_space_group_name_H-M   'P 1'
_cell_length_a   3.92682907
_cell_length_b   3.92682918
_cell_length_c   13.84477192
_cell_angle_alpha   98.15296171
_cell_angle_beta   98.15296193
_cell_angle_gamma   89.99999338
_symmetry_Int_Tables_number   1
_chemical_formula_structural   Na2Sm2MgTi3O10
_chemical_formula_sum   'Na2 Sm2 Mg1 Ti3 O10'
_cell_volume   209.14853078
_cell_formula_units_Z   1
loop_
 _symmetry_equiv_pos_site_id
 _symmetry_equiv_pos_as_xyz
  1  'x, y, z'
loop_
 _atom_site_type_symbol
 _atom_site_label
 _atom_site_symmetry_multiplicity
 _atom_site_fract_x
 _atom_site_fract_y
 _atom_site_fract_z
 _atom_site_occupancy
  Na  Na0  1  0.68866500  0.68866500  0.37732900  1
  Na  Na1  1  0.31133500  0.31133500  0.62267100  1
  Sm  Sm0  1  0.57223500  0.57223500  0.14446900  1
  Sm  Sm1  1  0.42776500  0.42776500  0.85553100  1
  Mg  Mg0  1  0.75000000  0.25000000  0.50000000  1
  Ti  Ti0  1  0.85517300  0.85517300  0.71034500  1
  Ti  Ti1  1  0.14482700  0.14482700  0.28965500  1
  Ti  Ti2  1  0.00000000  0.00000000  0.00000000  1
  O  O0  1  0.85824100  0.35824200  0.71648300  1
  O  O1  1  0.36539400  0.86539300  0.73078700  1
  O  O2  1  0.13460700  0.63460700  0.26921300  1
  O  O3  1  0.64175900  0.14175900  0.28351700  1
  O  O4  1  0.77952500  0.77952500  0.55905000  1
  O  O5  1  0.22047500  0.22047500  0.44095000  1
  O  O6  1  0.99928200  0.49928200  0.99856400  1
  O  O7  1  0.07158700  0.07158700  0.14317200  1
  O  O8  1  0.92841300  0.92841300  0.85682800  1
  O  O9  1  0.50071800  0.00071800  0.00143600  1
loop_
_geom_bond_atom_site_label_1
_geom_bond_atom_site_label_2
_geom_bond_distance
_geom_bond_site_symmetry_2
Na0 O3 2.339667 1_565
Na0 O3 2.339667 1_555
Na0 O2 2.450593 1_655
Na0 O2 2.450593 1_555
Na0 O4 2.464767 1_555
Na1 O0 2.339667 1_455
Na1 O0 2.339667 1_555
Na1 O1 2.450593 1_545
Na1 O1 2.450593 1_555
Na1 O5 2.464767 1_555
Mg0 O5 2.120489 1_655
Mg0 O5 2.120489 1_555
Mg0 O4 2.120489 1_545
Mg0 O4 2.120489 1_555
O0 Ti0 1.965179 1_555
O0 Ti0 1.965179 1_545
O0 Sm1 2.722479 1_555
O0 Sm1 2.722479 1_655
O1 Ti0 1.982895 1_555
O1 Ti0 1.982895 1_455
O1 Sm1 2.591858 1_555
O1 Sm1 2.591859 1_565
O2 Ti1 1.982891 1_565
O2 Ti1 1.982899 1_555
O2 Sm0 2.591858 1_555
O2 Sm0 2.591859 1_455
O3 Ti1 1.965175 1_655
O3 Ti1 1.965183 1_555
O3 Sm0 2.722479 1_555
O3 Sm0 2.722479 1_545
O4 Ti0 2.052085 1_555
O5 Ti1 2.052085 1_555
O6 Ti2 1.963511 1_656
O6 Ti2 1.963511 1_666
O6 Sm1 2.760196 1_655
O6 Sm1 2.760199 1_555
O6 Sm0 2.787713 1_556
O6 Sm0 2.787716 1_656
O7 Ti2 1.941909 1_555
O7 Ti1 1.986818 1_555
O7 Sm0 2.776741 1_555
O7 Sm0 2.776743 1_545
O7 Sm0 2.776743 1_455
O7 Sm0 2.776746 1_445
O8 Ti2 1.941909 1_666
O8 Ti0 1.986818 1_555
O8 Sm1 2.776741 1_555
O8 Sm1 2.776743 1_565
O8 Sm1 2.776743 1_655
O8 Sm1 2.776746 1_665
O9 Ti2 1.963511 1_655
O9 Ti2 1.963511 1_555
O9 Sm0 2.760196 1_545
O9 Sm0 2.760199 1_555
O9 Sm1 2.787713 1_554
O9 Sm1 2.787716 1_544
