# generated using pymatgen
data_AgW3Br7
_symmetry_space_group_name_H-M   'P 1'
_cell_length_a   15.75759201
_cell_length_b   9.89189039
_cell_length_c   9.76747100
_cell_angle_alpha   58.64710662
_cell_angle_beta   90.00000000
_cell_angle_gamma   90.00000000
_symmetry_Int_Tables_number   1
_chemical_formula_structural   AgW3Br7
_chemical_formula_sum   'Ag4 W12 Br28'
_cell_volume   1300.16478776
_cell_formula_units_Z   4
loop_
 _symmetry_equiv_pos_site_id
 _symmetry_equiv_pos_as_xyz
  1  'x, y, z'
loop_
 _atom_site_type_symbol
 _atom_site_label
 _atom_site_symmetry_multiplicity
 _atom_site_fract_x
 _atom_site_fract_y
 _atom_site_fract_z
 _atom_site_occupancy
  Ag  Ag0  1  0.28879051  0.08023226  0.82952874  1
  Ag  Ag1  1  0.78879051  0.91976774  0.67047126  1
  Ag  Ag2  1  0.71120949  0.91976774  0.17047126  1
  Ag  Ag3  1  0.21120949  0.08023226  0.32952874  1
  W  W0  1  0.05985564  0.34935461  0.67886490  1
  W  W1  1  0.53768132  0.59075247  0.11429364  1
  W  W2  1  0.96231868  0.59075247  0.61429364  1
  W  W3  1  0.46231868  0.40924753  0.88570636  1
  W  W4  1  0.03768132  0.40924753  0.38570636  1
  W  W5  1  0.55985564  0.65064539  0.82113510  1
  W  W6  1  0.94014436  0.65064539  0.32113510  1
  W  W7  1  0.44014436  0.34935461  0.17886490  1
  W  W8  1  0.09440190  0.63225839  0.43233994  1
  W  W9  1  0.59440190  0.36774161  0.06766006  1
  W  W10  1  0.90559810  0.36774161  0.56766006  1
  W  W11  1  0.40559810  0.63225839  0.93233994  1
  Br  Br0  1  0.57247472  0.30659464  0.36313475  1
  Br  Br1  1  0.73213643  0.18963606  0.15837164  1
  Br  Br2  1  0.76786357  0.18963606  0.65837164  1
  Br  Br3  1  0.26786357  0.81036394  0.84162836  1
  Br  Br4  1  0.08685345  0.28427554  0.21737048  1
  Br  Br5  1  0.58685345  0.71572446  0.28262952  1
  Br  Br6  1  0.91314655  0.71572446  0.78262952  1
  Br  Br7  1  0.41314655  0.28427554  0.71737048  1
  Br  Br8  1  0.14319022  0.13502748  0.93345944  1
  Br  Br9  1  0.64319022  0.86497252  0.56654056  1
  Br  Br10  1  0.85680978  0.86497252  0.06654056  1
  Br  Br11  1  0.35680978  0.13502748  0.43345944  1
  Br  Br12  1  0.38317334  0.57326366  0.22725077  1
  Br  Br13  1  0.88317334  0.42673634  0.27274923  1
  Br  Br14  1  0.61682666  0.42673634  0.77274923  1
  Br  Br15  1  0.19324688  0.38896488  0.49556770  1
  Br  Br16  1  0.50335900  0.87698329  0.86680000  1
  Br  Br17  1  0.00335900  0.12301671  0.63320000  1
  Br  Br18  1  0.49664100  0.12301671  0.13320000  1
  Br  Br19  1  0.99664100  0.87698329  0.36680000  1
  Br  Br20  1  0.42752528  0.69340536  0.63686525  1
  Br  Br21  1  0.92752528  0.30659464  0.86313475  1
  Br  Br22  1  0.11682666  0.57326366  0.72725077  1
  Br  Br23  1  0.07247472  0.69340536  0.13686525  1
  Br  Br24  1  0.30675312  0.38896488  0.99556770  1
  Br  Br25  1  0.80675312  0.61103512  0.50443230  1
  Br  Br26  1  0.69324688  0.61103512  0.00443230  1
  Br  Br27  1  0.23213643  0.81036394  0.34162836  1
loop_
_geom_bond_atom_site_label_1
_geom_bond_atom_site_label_2
_geom_bond_distance
_geom_bond_site_symmetry_2
Ag0 Br7 2.610146 1_555
Ag0 Br3 2.630718 1_545
Ag0 Br8 2.675957 1_555
Ag1 Br6 2.610146 1_555
Ag1 Br2 2.630718 1_565
Ag1 Br9 2.675957 1_555
Ag2 Br5 2.610146 1_555
Ag2 Br1 2.630718 1_565
Ag2 Br10 2.675957 1_555
Ag3 Br4 2.610146 1_555
Ag3 Br27 2.630718 1_545
Ag3 Br11 2.675957 1_555
Br0 W7 2.640880 1_555
Br0 W9 2.645358 1_555
Br0 W1 2.645689 1_555
Br1 W9 2.641035 1_555
Br2 W10 2.641035 1_555
Br3 W11 2.641035 1_555
Br4 W4 2.635750 1_555
Br5 W1 2.635750 1_555
Br6 W2 2.635750 1_555
Br7 W3 2.635750 1_555
Br8 W0 2.629984 1_555
Br9 W5 2.629984 1_555
Br10 W6 2.629984 1_555
Br11 W7 2.629984 1_555
Br12 W1 2.641255 1_555
Br12 W11 2.648324 1_554
Br12 W7 2.650333 1_555
Br13 W4 2.641255 1_655
Br13 W10 2.648324 1_555
Br13 W6 2.650333 1_555
Br14 W3 2.641255 1_555
Br14 W9 2.648324 1_556
Br14 W5 2.650333 1_555
Br15 W4 2.641354 1_555
Br15 W0 2.654614 1_555
Br15 W8 2.655678 1_555
Br16 W1 2.651489 1_556
Br16 W11 2.651503 1_555
Br16 W5 2.653938 1_555
Br17 W4 2.651489 1_555
Br17 W10 2.651503 1_455
Br17 W0 2.653938 1_555
Br18 W3 2.651489 1_554
Br18 W9 2.651503 1_555
Br18 W7 2.653938 1_555
Br19 W2 2.651489 1_555
Br19 W8 2.651503 1_655
Br19 W6 2.653938 1_555
Br20 W5 2.640880 1_555
Br20 W11 2.645358 1_555
Br20 W3 2.645689 1_555
Br21 W0 2.640880 1_655
Br21 W10 2.645358 1_555
Br21 W2 2.645689 1_555
Br22 W2 2.641255 1_455
Br22 W8 2.648324 1_555
Br22 W0 2.650333 1_555
Br23 W6 2.640880 1_455
Br23 W8 2.645358 1_555
Br23 W4 2.645689 1_555
Br24 W3 2.641354 1_555
Br24 W7 2.654614 1_556
Br24 W11 2.655678 1_555
Br25 W2 2.641354 1_555
Br25 W6 2.654614 1_555
Br25 W10 2.655678 1_555
Br26 W1 2.641354 1_555
Br26 W5 2.654614 1_554
Br26 W9 2.655678 1_555
Br27 W8 2.641035 1_555
