# generated using pymatgen
data_Na7Y3Zn(PO4)6
_symmetry_space_group_name_H-M   'P 1'
_cell_length_a   9.33353017
_cell_length_b   9.33014749
_cell_length_c   22.90550646
_cell_angle_alpha   89.66974660
_cell_angle_beta   90.06901379
_cell_angle_gamma   120.08196445
_symmetry_Int_Tables_number   1
_chemical_formula_structural   Na7Y3Zn(PO4)6
_chemical_formula_sum   'Na21 Y9 Zn3 P18 O72'
_cell_volume   1725.98750889
_cell_formula_units_Z   3
loop_
 _symmetry_equiv_pos_site_id
 _symmetry_equiv_pos_as_xyz
  1  'x, y, z'
loop_
 _atom_site_type_symbol
 _atom_site_label
 _atom_site_symmetry_multiplicity
 _atom_site_fract_x
 _atom_site_fract_y
 _atom_site_fract_z
 _atom_site_occupancy
  Na  Na0  1  0.63548208  0.01522970  0.24206844  1
  Na  Na1  1  0.38120950  0.36263763  0.24404529  1
  Na  Na2  1  0.98198011  0.62231861  0.24156783  1
  Na  Na3  1  0.64033819  0.62209146  0.73998627  1
  Na  Na4  1  0.97888936  0.35803374  0.74296474  1
  Na  Na5  1  0.38479526  0.02155351  0.74040556  1
  Na  Na6  1  0.02600458  0.69616276  0.58731078  1
  Na  Na7  1  0.66614134  0.97112714  0.58646813  1
  Na  Na8  1  0.30797180  0.97396061  0.08762976  1
  Na  Na9  1  0.66776143  0.69394579  0.08803020  1
  Na  Na10  1  0.69312453  0.02685509  0.92023860  1
  Na  Na11  1  0.33523370  0.30354053  0.91834096  1
  Na  Na12  1  0.96887414  0.28613008  0.40692478  1
  Na  Na13  1  0.31512254  0.02724257  0.40778196  1
  Na  Na14  1  0.71873628  0.68894402  0.40651886  1
  Na  Na15  1  0.01435090  0.01342326  0.49211188  1
  Na  Na16  1  0.99992815  0.99897726  0.00088269  1
  Na  Na17  1  0.68156773  0.34730637  0.82791164  1
  Na  Na18  1  0.66616258  0.33302411  0.32152579  1
  Na  Na19  1  0.31362860  0.64748140  0.16406966  1
  Na  Na20  1  0.33399145  0.64866638  0.66334715  1
  Y  Y0  1  0.00100081  0.99074946  0.84925464  1
  Y  Y1  1  0.00938141  0.00919387  0.64894874  1
  Y  Y2  1  0.00032777  0.01124954  0.15150799  1
  Y  Y3  1  0.68303606  0.34327929  0.98443115  1
  Y  Y4  1  0.66013012  0.33399554  0.48457508  1
  Y  Y5  1  0.31826423  0.65749287  0.01810743  1
  Y  Y6  1  0.33260848  0.65750176  0.51760008  1
  Y  Y7  1  0.33446140  0.66814916  0.31815024  1
  Y  Y8  1  0.32675572  0.66755667  0.81731409  1
  Zn  Zn0  1  0.00107271  0.00099922  0.34227302  1
  Zn  Zn1  1  0.65936931  0.33253300  0.67589016  1
  Zn  Zn2  1  0.67401375  0.33151512  0.17650463  1
  P  P0  1  0.30360259  0.00560969  0.25156464  1
  P  P1  1  0.70125322  0.69745202  0.25275937  1
  P  P2  1  0.99408131  0.30115659  0.25573360  1
  P  P3  1  0.31193418  0.30686517  0.75263876  1
  P  P4  1  0.99458587  0.68859138  0.74489599  1
  P  P5  1  0.69616893  0.00382400  0.74898848  1
  P  P6  1  0.96053264  0.33631092  0.58632167  1
  P  P7  1  0.36716638  0.02621123  0.58565841  1
  P  P8  1  0.66765832  0.63681429  0.58692003  1
  P  P9  1  0.96825457  0.63794325  0.09135854  1
  P  P10  1  0.65984825  0.02739244  0.08559577  1
  P  P11  1  0.37711764  0.33553032  0.08598439  1
  P  P12  1  0.63163304  0.66740624  0.91781893  1
  P  P13  1  0.02737075  0.35450796  0.91219738  1
  P  P14  1  0.33712369  0.97630370  0.91811688  1
  P  P15  1  0.64289038  0.97155046  0.41720179  1
  P  P16  1  0.32669916  0.35552779  0.41253356  1
  P  P17  1  0.03017259  0.67221684  0.41737362  1
  O  O0  1  0.21686828  0.02190235  0.30673973  1
  O  O1  1  0.80429773  0.78561318  0.30785656  1
  O  O2  1  0.97871760  0.20383440  0.31261795  1
  O  O3  1  0.23163627  0.21000612  0.81005913  1
  O  O4  1  0.97832712  0.78469602  0.79714137  1
  O  O5  1  0.80105136  0.01882217  0.80386885  1
  O  O6  1  0.78156090  0.98157933  0.69453402  1
  O  O7  1  0.19341928  0.21267843  0.70176437  1
  O  O8  1  0.01661630  0.78960946  0.68857427  1
  O  O9  1  0.78712630  0.80246301  0.19752418  1
  O  O10  1  0.01917973  0.21120312  0.20382567  1
  O  O11  1  0.19872372  0.98604993  0.19651739  1
  O  O12  1  0.87185749  0.35034528  0.64111384  1
  O  O13  1  0.46756690  0.11607373  0.64076875  1
  O  O14  1  0.65637793  0.53920227  0.64303204  1
  O  O15  1  0.88715405  0.54440036  0.14876897  1
  O  O16  1  0.65034356  0.11839794  0.14060316  1
  O  O17  1  0.48212050  0.35141276  0.14065829  1
  O  O18  1  0.46292264  0.32300580  0.02994771  1
  O  O19  1  0.86162316  0.54287958  0.03846284  1
  O  O20  1  0.67199475  0.12361269  0.02889374  1
  O  O21  1  0.45218991  0.12190115  0.52906262  1
  O  O22  1  0.67748470  0.54804010  0.53160887  1
  O  O23  1  0.86136127  0.32432719  0.53062337  1
  O  O24  1  0.53996307  0.68079128  0.97217141  1
  O  O25  1  0.14017523  0.45573079  0.96338551  1
  O  O26  1  0.32592097  0.87468401  0.97323117  1
  O  O27  1  0.55166673  0.86537901  0.47182123  1
  O  O28  1  0.30841499  0.45146121  0.46434993  1
  O  O29  1  0.13408220  0.68730377  0.47243328  1
  O  O30  1  0.11639747  0.64944284  0.36335828  1
  O  O31  1  0.53606226  0.88611644  0.36253582  1
  O  O32  1  0.35061109  0.45599729  0.35574687  1
  O  O33  1  0.10321550  0.44307683  0.85347208  1
  O  O34  1  0.34552615  0.88690622  0.86244073  1
  O  O35  1  0.52895819  0.65402552  0.86272199  1
  O  O36  1  0.01747794  0.83135432  0.41297199  1
  O  O37  1  0.81522352  0.98515370  0.41411979  1
  O  O38  1  0.16976111  0.18125323  0.41125362  1
  O  O39  1  0.01472681  0.18146307  0.91528262  1
  O  O40  1  0.18631219  0.00396060  0.91744489  1
  O  O41  1  0.80363677  0.82783143  0.91589957  1
  O  O42  1  0.97513492  0.17797905  0.58778616  1
  O  O43  1  0.18785645  -0.00402938  0.58627865  1
  O  O44  1  0.82721715  0.81127080  0.58652114  1
  O  O45  1  0.98274142  0.81180849  0.08940351  1
  O  O46  1  0.80779291  -0.00481197  0.08690362  1
  O  O47  1  0.20454174  0.17628057  0.08813887  1
  O  O48  1  0.68060576  0.16130535  0.74566774  1
  O  O49  1  0.48365389  0.32019580  0.74615135  1
  O  O50  1  0.83795396  0.51439931  0.74450248  1
  O  O51  1  0.68205145  0.52271143  0.25005052  1
  O  O52  1  0.83479260  0.31340751  0.24908809  1
  O  O53  1  0.47872959  0.16165702  0.24758017  1
  O  O54  1  0.64631015  0.50976709  0.92011695  1
  O  O55  1  0.85008471  0.32670861  0.91703836  1
  O  O56  1  0.49793669  0.14866072  0.91885200  1
  O  O57  1  0.66337464  0.14722244  0.41969460  1
  O  O58  1  0.48200030  0.33669112  0.41844213  1
  O  O59  1  0.85327071  0.51837825  0.42002396  1
  O  O60  1  0.36026621  0.49358431  0.08366928  1
  O  O61  1  0.14716416  0.66667322  0.08701862  1
  O  O62  1  0.49753359  0.85411416  0.08510380  1
  O  O63  1  0.35541758  0.85288278  0.58484653  1
  O  O64  1  0.51737157  0.66594088  0.58475678  1
  O  O65  1  0.13474132  0.49509206  0.58383890  1
  O  O66  1  0.32338050  0.84888450  0.25364306  1
  O  O67  1  0.52475581  0.67811138  0.25374496  1
  O  O68  1  0.14754194  0.47986478  0.25524110  1
  O  O69  1  0.33561469  0.48455111  0.75274772  1
  O  O70  1  0.15109066  0.67063299  0.75011474  1
  O  O71  1  0.51924273  0.84866289  0.75214276  1
loop_
_geom_bond_atom_site_label_1
_geom_bond_atom_site_label_2
_geom_bond_distance
_geom_bond_site_symmetry_2
Na0 O53 2.455428 1_555
Na0 O52 2.458147 1_555
Na0 O16 2.487656 1_555
Na0 O66 2.535656 1_545
Na0 O67 2.786609 1_545
Na0 O31 2.962024 1_545
Na1 O51 2.435424 1_555
Na1 O53 2.461793 1_555
Na1 O67 2.561561 1_555
Na1 O17 2.571619 1_555
Na1 O32 2.768299 1_555
Na1 O68 2.900767 1_555
Na2 O15 2.279978 1_555
Na2 O51 2.475725 1_555
Na2 O52 2.499898 1_555
Na2 O68 2.511073 1_655
Na2 O66 2.819702 1_655
Na3 O14 2.385176 1_555
Na3 O49 2.441117 1_555
Na3 O69 2.481980 1_555
Na3 O50 2.505695 1_555
Na3 O71 2.868188 1_555
Na4 O50 2.405111 1_555
Na4 O48 2.449513 1_555
Na4 O12 2.523932 1_555
Na4 O70 2.534201 1_655
Na4 O33 2.734280 1_655
Na4 O69 2.930958 1_655
Na5 O48 2.393668 1_555
Na5 O13 2.425118 1_555
Na5 O49 2.461538 1_555
Na5 O71 2.504491 1_545
Na5 O70 2.891490 1_545
Na5 O34 3.004421 1_545
Na6 O43 2.422897 1_565
Na6 O8 2.499654 1_555
Na6 O65 2.542909 1_555
Na6 O44 2.567779 1_455
Na6 O63 2.662135 1_555
Na6 O29 2.835625 1_555
Na7 O64 2.464760 1_555
Na7 O63 2.534189 1_555
Na7 O42 2.542398 1_565
Na7 O44 2.594723 1_555
Na7 O6 2.681081 1_555
Na7 O27 2.824445 1_555
Na8 O61 2.481817 1_555
Na8 O47 2.514455 1_565
Na8 O62 2.523552 1_555
Na8 O45 2.626937 1_455
Na8 O11 2.719887 1_555
Na8 O26 2.817251 1_554
Na9 O46 2.434180 1_565
Na9 O60 2.522815 1_555
Na9 O45 2.571459 1_555
Na9 O62 2.672243 1_555
Na9 O9 2.729142 1_555
Na9 O24 2.886157 1_554
Na10 O55 2.422342 1_555
Na10 O41 2.538589 1_545
Na10 O56 2.585819 1_555
Na10 O39 2.600400 1_655
Na10 O20 2.693245 1_556
Na10 O5 2.865264 1_555
Na11 O40 2.418882 1_555
Na11 O54 2.556185 1_555
Na11 O56 2.567894 1_555
Na11 O39 2.614530 1_555
Na11 O3 2.649799 1_555
Na11 O18 2.787401 1_556
Na12 O2 2.313990 1_555
Na12 O37 2.434670 1_545
Na12 O57 2.487704 1_555
Na12 O38 2.514075 1_655
Na12 O59 2.881297 1_555
Na13 O38 2.422357 1_555
Na13 O36 2.445510 1_545
Na13 O0 2.480009 1_555
Na13 O58 2.514086 1_555
Na13 O57 2.871685 1_555
Na13 O21 3.003495 1_555
Na14 O1 2.411891 1_555
Na14 O36 2.418522 1_655
Na14 O37 2.447322 1_555
Na14 O59 2.490307 1_555
Na14 O58 2.910252 1_555
Na15 O38 2.383766 1_555
Na15 O37 2.494238 1_445
Na15 O36 2.501577 1_545
Na15 O43 2.748327 1_555
Na15 O42 2.810306 1_455
Na15 O44 2.818522 1_445
Na16 O39 2.547312 1_664
Na16 O40 2.570403 1_664
Na16 O41 2.605771 1_554
Na16 O45 2.620248 1_555
Na16 O46 2.653981 1_565
Na16 O47 2.690767 1_665
Na17 O50 2.429468 1_555
Na17 O49 2.551903 1_555
Na17 O48 2.565663 1_555
Na17 O55 2.639938 1_555
Na17 O54 2.721231 1_555
Na17 O56 2.737022 1_555
Na18 O51 2.353432 1_555
Na18 O52 2.358451 1_555
Na18 O53 2.388669 1_555
Na18 O58 2.820069 1_555
Na18 O57 2.823493 1_555
Na18 O59 2.852835 1_555
Na19 O61 2.414445 1_555
Na19 O60 2.510332 1_555
Na19 O62 2.566049 1_555
Na19 O68 2.598027 1_555
Na19 O67 2.759785 1_555
Na19 O66 2.760704 1_555
Na20 O64 2.433840 1_555
Na20 O65 2.485743 1_555
Na20 O63 2.546166 1_555
Na20 O69 2.554455 1_555
Na20 O70 2.696260 1_555
Na20 O71 2.721989 1_555
O0 P0 1.550396 1_555
O0 Zn0 2.089390 1_555
O1 P1 1.552511 1_555
O1 Zn0 2.085144 1_665
O2 P2 1.548896 1_555
O2 Zn0 2.113554 1_655
O3 P3 1.554975 1_555
O3 Y0 2.278969 1_545
O4 P4 1.551892 1_555
O4 Y0 2.187164 1_655
O5 P5 1.555576 1_555
O5 Y0 2.261499 1_645
O6 P5 1.550896 1_565
O6 Y1 2.265198 1_665
O7 P3 1.545315 1_555
O7 Y1 2.184215 1_555
O8 P4 1.545074 1_455
O8 Y1 2.267791 1_565
O9 P1 1.550476 1_555
O9 Y2 2.227306 1_665
O10 P2 1.543438 1_455
O10 Y2 2.154919 1_555
O11 P0 1.549824 1_565
O11 Y2 2.230727 1_565
O12 P6 1.546068 1_555
O12 Zn1 2.065755 1_555
O13 P7 1.548000 1_555
O13 Zn1 2.078841 1_555
O14 P8 1.543748 1_555
O14 Zn1 2.079084 1_555
O15 P9 1.546239 1_555
O15 Zn2 2.081749 1_555
O16 P10 1.550637 1_555
O16 Zn2 2.063220 1_555
O17 P11 1.550608 1_555
O17 Zn2 2.060216 1_555
O18 P11 1.549373 1_555
O18 Y3 2.226381 1_554
O19 P9 1.539399 1_555
O19 Y3 2.165178 1_554
O20 P10 1.546138 1_555
O20 Y3 2.238935 1_554
O21 P7 1.544754 1_555
O21 Y4 2.202830 1_555
O22 P8 1.545346 1_555
O22 Y4 2.207999 1_555
O23 P6 1.546603 1_555
O23 Y4 2.193685 1_555
O24 P12 1.552122 1_555
O24 Y5 2.233331 1_556
O25 P13 1.545371 1_555
O25 Y5 2.182450 1_556
O26 P14 1.546196 1_555
O26 Y5 2.235867 1_556
O27 P15 1.553770 1_555
O27 Y6 2.246776 1_555
O28 P16 1.550750 1_555
O28 Y6 2.196699 1_555
O29 P17 1.553449 1_555
O29 Y6 2.256024 1_555
O30 P17 1.549344 1_555
O30 Y7 2.211811 1_555
O31 P15 1.552156 1_555
O31 Y7 2.212042 1_555
O32 P16 1.548331 1_555
O32 Y7 2.227449 1_555
O33 P13 1.548039 1_555
O33 Y8 2.242590 1_555
O34 P14 1.551226 1_555
O34 Y8 2.225323 1_555
O35 P12 1.551009 1_555
O35 Y8 2.211809 1_555
O36 P17 1.550281 1_555
O36 Zn0 2.316030 1_565
O37 P15 1.550421 1_555
O37 Zn0 2.342235 1_665
O38 P16 1.550210 1_555
O38 Zn0 2.274650 1_555
O39 P13 1.559917 1_555
O39 Y0 2.296089 1_545
O40 P14 1.553124 1_545
O40 Y0 2.286561 1_545
O41 P12 1.552463 1_555
O41 Y0 2.281931 1_655
O42 P6 1.550242 1_555
O42 Y1 2.241189 1_655
O43 P7 1.551569 1_555
O43 Y1 2.250462 1_555
O44 P8 1.561143 1_555
O44 Y1 2.285324 1_665
O45 P9 1.559191 1_555
O45 Y2 2.288435 1_665
O46 P10 1.553591 1_555
O46 Y2 2.273270 1_655
O47 P11 1.550722 1_555
O47 Y2 2.269249 1_555
O48 P5 1.548692 1_555
O48 Zn1 2.330949 1_555
O49 P3 1.551413 1_555
O49 Zn1 2.260097 1_555
O50 P4 1.548220 1_555
O50 Zn1 2.305773 1_555
O51 P1 1.549920 1_555
O51 Zn2 2.434331 1_555
O52 P2 1.554414 1_555
O52 Zn2 2.299883 1_555
O53 P0 1.553378 1_555
O53 Zn2 2.359215 1_555
O54 P12 1.544620 1_555
O54 Y3 2.281834 1_555
O55 P13 1.545147 1_655
O55 Y3 2.255653 1_555
O56 P14 1.555554 1_545
O56 Y3 2.327797 1_555
O57 P15 1.553445 1_545
O57 Y4 2.308476 1_555
O58 P16 1.550778 1_555
O58 Y4 2.257180 1_555
O59 P17 1.553553 1_655
O59 Y4 2.294249 1_555
O60 P11 1.560060 1_555
O60 Y5 2.306668 1_555
O61 P9 1.556127 1_455
O61 Y5 2.279011 1_555
O62 P10 1.566477 1_565
O62 Y5 2.338623 1_555
O63 P7 1.565314 1_565
O63 Y6 2.320239 1_555
O64 P8 1.557467 1_555
O64 Y6 2.281490 1_555
O65 P6 1.557633 1_455
O65 Y6 2.276767 1_555
O66 P0 1.563442 1_565
O66 Y7 2.276668 1_555
O67 P1 1.564882 1_555
O67 Y7 2.275696 1_555
O68 P2 1.561252 1_455
O68 Y7 2.270875 1_555
O69 P3 1.558845 1_555
O69 Y8 2.297922 1_555
O70 P4 1.555905 1_455
O70 Y8 2.258066 1_555
O71 P5 1.558999 1_565
O71 Y8 2.290295 1_555
