# generated using pymatgen
data_Na2Y4Sc4SiS11O48
_symmetry_space_group_name_H-M   'P 1'
_cell_length_a   18.06582595
_cell_length_b   9.03858580
_cell_length_c   23.82664732
_cell_angle_alpha   89.98290510
_cell_angle_beta   90.02803821
_cell_angle_gamma   120.09547649
_symmetry_Int_Tables_number   1
_chemical_formula_structural   Na2Y4Sc4SiS11O48
_chemical_formula_sum   'Na6 Y12 Sc12 Si3 S33 O144'
_cell_volume   3366.14786546
_cell_formula_units_Z   3
loop_
 _symmetry_equiv_pos_site_id
 _symmetry_equiv_pos_as_xyz
  1  'x, y, z'
loop_
 _atom_site_type_symbol
 _atom_site_label
 _atom_site_symmetry_multiplicity
 _atom_site_fract_x
 _atom_site_fract_y
 _atom_site_fract_z
 _atom_site_occupancy
  Na  Na0  1  0.00168063  0.99036147  0.49761887  1
  Na  Na1  1  0.50193076  0.02111138  0.99497561  1
  Na  Na2  1  0.34257027  0.33550424  0.83765567  1
  Na  Na3  1  0.84224282  0.35395166  0.82833919  1
  Na  Na4  1  0.33162484  0.33111243  0.33427042  1
  Na  Na5  1  0.84297906  0.34896096  0.33530000  1
  Y  Y0  1  0.99923902  0.99155330  0.85470923  1
  Y  Y1  1  0.49985644  0.00733947  0.85522547  1
  Y  Y2  1  0.00057865  0.99245294  0.65111706  1
  Y  Y3  1  0.50002126  0.00017867  0.64300204  1
  Y  Y4  1  0.33486200  0.33484240  0.68477530  1
  Y  Y5  1  0.83782197  0.34444710  0.68486803  1
  Y  Y6  1  0.33889101  0.33445457  0.98195157  1
  Y  Y7  1  0.83725217  0.34038487  0.47699973  1
  Y  Y8  1  0.66260303  0.65495863  0.02232019  1
  Y  Y9  1  0.16269335  0.67008838  0.51627067  1
  Y  Y10  1  0.16077199  0.66541297  0.81074678  1
  Y  Y11  1  0.66363390  0.65941284  0.81562378  1
  Sc  Sc0  1  0.00097899  0.99210387  0.35179097  1
  Sc  Sc1  1  0.49954868  0.99838342  0.35412585  1
  Sc  Sc2  1  0.99895881  0.00119338  0.14665644  1
  Sc  Sc3  1  0.50043428  0.00068023  0.15219360  1
  Sc  Sc4  1  0.32980399  0.33252002  0.18358273  1
  Sc  Sc5  1  0.83680400  0.33556136  0.18448396  1
  Sc  Sc6  1  0.83484326  0.33580321  0.98374204  1
  Sc  Sc7  1  0.33427824  0.33528337  0.48083187  1
  Sc  Sc8  1  0.16477700  0.66500415  0.02079110  1
  Sc  Sc9  1  0.66552826  0.66844787  0.51836749  1
  Sc  Sc10  1  0.15962217  0.66375385  0.31319588  1
  Sc  Sc11  1  0.66604979  0.66490642  0.31132113  1
  Si  Si0  1  0.99596117  0.69784709  0.75125007  1
  Si  Si1  1  0.51624511  0.36701689  0.91768451  1
  Si  Si2  1  0.01930531  0.67075406  0.41203809  1
  S  S0  1  0.14526821  0.00384511  0.24878005  1
  S  S1  1  0.64491381  0.00281147  0.25173818  1
  S  S2  1  0.35715271  0.71075222  0.25106267  1
  S  S3  1  0.85545904  0.70968227  0.24969388  1
  S  S4  1  0.99827231  0.28506548  0.24968764  1
  S  S5  1  0.49843086  0.28662973  0.25114981  1
  S  S6  1  0.15034162  0.29451098  0.75128065  1
  S  S7  1  0.64647374  0.29079687  0.74910159  1
  S  S8  1  0.49932369  0.70730638  0.75027073  1
  S  S9  1  0.35419394  0.00217738  0.74947736  1
  S  S10  1  0.85214865  0.00253354  0.75133445  1
  S  S11  1  0.48052090  0.34109932  0.57848181  1
  S  S12  1  0.98127444  0.32784101  0.58128360  1
  S  S13  1  0.18927701  0.04911457  0.57946031  1
  S  S14  1  0.68734851  0.03205517  0.58027102  1
  S  S15  1  0.33304853  0.61963190  0.57993243  1
  S  S16  1  0.82915547  0.63196297  0.57926718  1
  S  S17  1  0.47670944  0.63291855  0.08869417  1
  S  S18  1  0.97740539  0.62362445  0.08401399  1
  S  S19  1  0.33412865  0.03600736  0.08664736  1
  S  S20  1  0.83800601  0.05498948  0.08569750  1
  S  S21  1  0.18512278  0.33286652  0.08567549  1
  S  S22  1  0.68922024  0.32159880  0.08628464  1
  S  S23  1  0.30857548  0.66506646  0.92006897  1
  S  S24  1  0.81351536  0.65653626  0.91993466  1
  S  S25  1  0.01890857  0.37986983  0.92189529  1
  S  S26  1  0.16711648  0.95268856  0.92035640  1
  S  S27  1  0.67276833  0.97142905  0.91960507  1
  S  S28  1  0.31507627  0.96435344  0.41290761  1
  S  S29  1  0.80865558  0.94541749  0.41421625  1
  S  S30  1  0.16836225  0.37190633  0.41392207  1
  S  S31  1  0.66206360  0.37906397  0.41335318  1
  S  S32  1  0.52289943  0.66634198  0.41476534  1
  O  O0  1  0.10692979  0.03619377  0.29908252  1
  O  O1  1  0.60382270  0.03188730  0.30121267  1
  O  O2  1  0.41358765  0.79218214  0.30079436  1
  O  O3  1  0.91033939  0.78842607  0.29953358  1
  O  O4  1  0.48414703  0.17580222  0.30045951  1
  O  O5  1  0.98216892  0.17694752  0.29995886  1
  O  O6  1  0.10840526  0.19025943  0.80150722  1
  O  O7  1  0.60548615  0.18710814  0.79960534  1
  O  O8  1  0.48702318  0.78545194  0.80100261  1
  O  O9  1  0.98520583  0.79296876  0.80618142  1
  O  O10  1  0.40720878  0.02837468  0.79962091  1
  O  O11  1  0.90623699  0.03112754  0.80154647  1
  O  O12  1  0.39694598  0.98919520  0.69815999  1
  O  O13  1  0.89397194  0.98771593  0.70004197  1
  O  O14  1  0.10048183  0.21642695  0.69977871  1
  O  O15  1  0.59446032  0.20628874  0.69845443  1
  O  O16  1  0.00554007  0.80349611  0.69352006  1
  O  O17  1  0.50406453  0.80593715  0.69938183  1
  O  O18  1  0.39950769  0.81802405  0.20054390  1
  O  O19  1  0.89526585  0.81622896  0.19926558  1
  O  O20  1  0.00858573  0.19996002  0.19943451  1
  O  O21  1  0.51245563  0.20788303  0.20029681  1
  O  O22  1  0.09151251  0.97955467  0.19874452  1
  O  O23  1  0.59140842  0.97565868  0.20100714  1
  O  O24  1  0.44485444  0.37141152  0.63013111  1
  O  O25  1  0.93995648  0.34542772  0.63218406  1
  O  O26  1  0.23646975  0.13003253  0.63158455  1
  O  O27  1  0.73938569  0.10543153  0.63114661  1
  O  O28  1  0.32128730  0.51897134  0.63146185  1
  O  O29  1  0.81633660  0.53130631  0.63072639  1
  O  O30  1  0.43054429  0.51783757  0.13696557  1
  O  O31  1  0.93686735  0.51126737  0.13409763  1
  O  O32  1  0.32129978  0.12447150  0.13566160  1
  O  O33  1  0.82570131  0.14066833  0.13560871  1
  O  O34  1  0.24363958  0.36264098  0.13496019  1
  O  O35  1  0.74277049  0.33995108  0.13616311  1
  O  O36  1  0.22067304  0.29504386  0.03574857  1
  O  O37  1  0.72855482  0.29717355  0.03496008  1
  O  O38  1  0.42636415  0.56299662  0.03687456  1
  O  O39  1  0.92106791  0.54370772  0.03445349  1
  O  O40  1  0.35290436  0.14364081  0.03602293  1
  O  O41  1  0.85169334  0.16228274  0.03516896  1
  O  O42  1  0.23696786  0.15761547  0.52981519  1
  O  O43  1  0.72761283  0.14295010  0.53117288  1
  O  O44  1  0.34402496  0.52893807  0.53057918  1
  O  O45  1  0.84290444  0.54704269  0.53051106  1
  O  O46  1  0.42277073  0.31481190  0.52999345  1
  O  O47  1  0.92806652  0.30856718  0.53114891  1
  O  O48  1  0.26353450  0.68124575  0.97011831  1
  O  O49  1  0.77089775  0.67777861  0.96968108  1
  O  O50  1  0.07412869  0.47141648  0.97109816  1
  O  O51  1  0.57039385  0.46087904  0.97460976  1
  O  O52  1  0.16088215  0.84790886  0.97057890  1
  O  O53  1  0.66229502  0.86631481  0.96965723  1
  O  O54  1  0.28130408  0.86323009  0.46461673  1
  O  O55  1  0.76832659  0.84382108  0.46559093  1
  O  O56  1  0.15602613  0.44596491  0.46567949  1
  O  O57  1  0.65125257  0.45823124  0.46471604  1
  O  O58  1  0.07209107  0.69906229  0.46985962  1
  O  O59  1  0.57510490  0.69252057  0.46539115  1
  O  O60  1  0.07260129  0.65159602  0.35871580  1
  O  O61  1  0.56338889  0.63701505  0.36483084  1
  O  O62  1  0.25894632  0.88117120  0.36422377  1
  O  O63  1  0.75549920  0.85731581  0.36392368  1
  O  O64  1  0.18310373  0.48240941  0.36453132  1
  O  O65  1  0.67496355  0.49024589  0.36363585  1
  O  O66  1  0.05401815  0.48004247  0.87038411  1
  O  O67  1  0.56234744  0.47705935  0.86167500  1
  O  O68  1  0.18048014  0.87847792  0.86931557  1
  O  O69  1  0.68676519  0.89842168  0.86809862  1
  O  O70  1  0.26250176  0.65017862  0.86804625  1
  O  O71  1  0.76255701  0.62832486  0.86853946  1
  O  O72  1  0.00924776  0.84189440  0.40366174  1
  O  O73  1  0.51356672  0.81852848  0.40498086  1
  O  O74  1  0.40150456  0.98649257  0.40198559  1
  O  O75  1  0.89545356  0.96766080  0.40827255  1
  O  O76  1  0.09128121  0.19993299  0.40606113  1
  O  O77  1  0.58485341  0.20901066  0.40382400  1
  O  O78  1  0.01032762  0.21033823  0.91694726  1
  O  O79  1  0.50658665  0.17678133  0.91759328  1
  O  O80  1  0.08946977  0.96573480  0.91687778  1
  O  O81  1  0.59520562  0.98679749  0.91446201  1
  O  O82  1  0.39580092  0.81734156  0.91853083  1
  O  O83  1  0.89836721  0.80903113  0.91506158  1
  O  O84  1  0.48811094  0.18757089  0.58499214  1
  O  O85  1  0.98947270  0.17352397  0.58443069  1
  O  O86  1  0.10424490  0.03530941  0.58032791  1
  O  O87  1  0.60109184  0.00995502  0.58802126  1
  O  O88  1  0.41103025  0.78759305  0.58517851  1
  O  O89  1  0.90496873  0.80574580  0.58362993  1
  O  O90  1  0.48586905  0.80460281  0.09808800  1
  O  O91  1  0.98615149  0.79327175  0.09504340  1
  O  O92  1  0.41073875  0.01651049  0.09708078  1
  O  O93  1  0.91473816  0.03870390  0.09556901  1
  O  O94  1  0.10005347  0.18315431  0.09895576  1
  O  O95  1  0.60217176  0.16740572  0.09354733  1
  O  O96  1  0.34500693  0.15723672  0.74506463  1
  O  O97  1  0.83953645  0.15230372  0.74640054  1
  O  O98  1  0.23630991  0.30820259  0.74670237  1
  O  O99  1  0.73090062  0.30264515  0.74400473  1
  O  O100  1  0.42265568  0.53188804  0.74582460  1
  O  O101  1  0.91009800  0.50719683  0.74953069  1
  O  O102  1  0.34879853  0.53750165  0.24283013  1
  O  O103  1  0.84512724  0.53556702  0.24146311  1
  O  O104  1  0.42170036  0.30618484  0.24270934  1
  O  O105  1  0.92169459  0.30795754  0.24122129  1
  O  O106  1  0.23264006  0.16076197  0.24059610  1
  O  O107  1  0.73149990  0.15533424  0.24342360  1
  O  O108  1  0.31569032  0.50865397  0.92559429  1
  O  O109  1  0.82283092  0.50142705  0.92796967  1
  O  O110  1  0.42084485  0.34834683  0.91824218  1
  O  O111  1  0.93216179  0.36100937  0.93101870  1
  O  O112  1  0.24285407  0.12671400  0.92631153  1
  O  O113  1  0.74899351  0.14663446  0.92734265  1
  O  O114  1  0.32537173  0.13929932  0.42083095  1
  O  O115  1  0.81477732  0.11472394  0.41811327  1
  O  O116  1  0.24578593  0.35060040  0.42098518  1
  O  O117  1  0.73768542  0.35757944  0.41799455  1
  O  O118  1  0.43569969  0.51213590  0.42228591  1
  O  O119  1  0.92421747  0.49890371  0.41263094  1
  O  O120  1  0.17722055  0.48577259  0.07666029  1
  O  O121  1  0.68234010  0.47613749  0.08186014  1
  O  O122  1  0.06196791  0.64136113  0.07380798  1
  O  O123  1  0.56174905  0.65055197  0.08396327  1
  O  O124  1  0.25783804  0.86734854  0.07746068  1
  O  O125  1  0.76183611  0.88585828  0.07897220  1
  O  O126  1  0.18309328  0.88167122  0.57476226  1
  O  O127  1  0.67710300  0.86008940  0.56946425  1
  O  O128  1  0.25785220  0.63760341  0.57184383  1
  O  O129  1  0.75158933  0.64573112  0.56941490  1
  O  O130  1  0.06652802  0.48133482  0.57600042  1
  O  O131  1  0.56532292  0.49213957  0.56767451  1
  O  O132  1  0.15630088  0.85455519  0.25699385  1
  O  O133  1  0.65297120  0.84887121  0.26124715  1
  O  O134  1  0.27302026  0.69337888  0.25937040  1
  O  O135  1  0.76965300  0.69043819  0.25965805  1
  O  O136  1  0.07563961  0.45470949  0.25702967  1
  O  O137  1  0.57493603  0.45784585  0.26036349  1
  O  O138  1  0.16256851  0.46575249  0.75706764  1
  O  O139  1  0.65689302  0.46208793  0.75379990  1
  O  O140  1  0.08056372  0.68128168  0.75558346  1
  O  O141  1  0.57710887  0.69518417  0.75374087  1
  O  O142  1  0.27080544  0.84931486  0.75477806  1
  O  O143  1  0.76882296  0.84641040  0.75767052  1
loop_
_geom_bond_atom_site_label_1
_geom_bond_atom_site_label_2
_geom_bond_distance
_geom_bond_site_symmetry_2
Na0 O86 2.593040 1_565
Na0 O72 2.649009 1_555
Na0 O89 2.667308 1_455
Na0 O85 2.726996 1_465
Na0 O75 2.803252 1_455
Na0 O76 2.809496 1_565
Na1 O79 2.294819 1_555
Na1 O82 2.615911 1_545
Na1 O81 2.672734 1_545
Na1 O95 2.853108 1_556
Na1 O92 2.927394 1_556
Na1 O90 3.062369 1_546
Na2 O110 2.352191 1_555
Na2 O100 2.730695 1_555
Na2 O96 2.745644 1_555
Na2 O108 2.800085 1_555
Na2 O112 2.803685 1_555
Na2 O98 2.821987 1_555
Na3 O101 2.290206 1_555
Na3 O97 2.654907 1_555
Na3 O99 2.712925 1_555
Na3 O109 2.829579 1_555
Na3 O111 2.919010 1_555
Na3 O113 2.957905 1_555
Na4 O116 2.642349 1_555
Na4 O114 2.659682 1_555
Na4 O118 2.742829 1_555
Na4 O102 2.782233 1_555
Na4 O106 2.790510 1_555
Na4 O104 2.798152 1_555
Na5 O119 2.321578 1_555
Na5 O115 2.748103 1_555
Na5 O117 2.767504 1_555
Na5 O105 2.777852 1_555
Na5 O103 2.788796 1_555
Na5 O107 2.893833 1_555
O0 S0 1.485200 1_555
O0 Sc0 2.153326 1_545
O1 S1 1.485407 1_555
O1 Sc1 2.158669 1_545
O2 S2 1.494002 1_555
O2 Sc1 2.144013 1_555
O3 S3 1.480339 1_555
O3 Sc0 2.144046 1_655
O4 S5 1.480118 1_555
O4 Sc1 2.174846 1_545
O5 S4 1.479479 1_555
O5 Sc0 2.236008 1_645
O6 S6 1.475911 1_555
O6 Y0 2.273951 1_445
O7 S7 1.476105 1_555
O7 Y1 2.220255 1_555
O8 S8 1.472273 1_555
O8 Y1 2.297836 1_565
O9 Si0 1.630474 1_555
O9 Y0 2.041454 1_555
O10 S9 1.473910 1_555
O10 Y1 2.215788 1_555
O11 S10 1.482809 1_555
O11 Y0 2.270627 1_545
O12 S9 1.482309 1_565
O12 Y3 2.240879 1_565
O13 S10 1.478144 1_565
O13 Y2 2.233704 1_655
O14 S6 1.475523 1_555
O14 Y2 2.243893 1_545
O15 S7 1.484010 1_555
O15 Y3 2.222336 1_555
O16 Si0 1.633271 1_455
O16 Y2 2.024381 1_555
O17 S8 1.481602 1_555
O17 Y3 2.240398 1_565
O18 S2 1.493529 1_555
O18 Sc3 2.087901 1_565
O19 S3 1.481178 1_555
O19 Sc2 2.176162 1_565
O20 S4 1.484796 1_455
O20 Sc2 2.127687 1_455
O21 S5 1.490161 1_555
O21 Sc3 2.112200 1_555
O22 S0 1.482498 1_565
O22 Sc2 2.167976 1_465
O23 S1 1.488886 1_565
O23 Sc3 2.115603 1_565
O24 S11 1.477402 1_555
O24 Y4 2.257562 1_555
O25 S12 1.474210 1_555
O25 Y5 2.228504 1_555
O26 S13 1.475935 1_555
O26 Y4 2.211760 1_555
O27 S14 1.472118 1_555
O27 Y5 2.369501 1_555
O28 S15 1.478539 1_555
O28 Y4 2.202564 1_555
O29 S16 1.474106 1_555
O29 Y5 2.307161 1_555
O30 S17 1.493510 1_555
O30 Sc4 2.072498 1_555
O31 S18 1.498650 1_555
O31 Sc5 2.086415 1_555
O32 S19 1.497864 1_555
O32 Sc4 2.138885 1_555
O33 S20 1.495602 1_555
O33 Sc5 2.036197 1_555
O34 S21 1.510830 1_555
O34 Sc4 2.064567 1_555
O35 S22 1.487908 1_555
O35 Sc5 2.068496 1_555
O36 S21 1.471618 1_555
O36 Y6 2.360208 1_554
O37 S22 1.485772 1_555
O37 Sc6 2.151268 1_554
O38 S17 1.474451 1_555
O38 Y6 2.280940 1_554
O39 S18 1.487990 1_555
O39 Sc6 2.116968 1_554
O40 S19 1.478243 1_555
O40 Y6 2.265986 1_554
O41 S20 1.486659 1_555
O41 Sc6 2.128665 1_554
O42 S13 1.502064 1_555
O42 Sc7 2.049666 1_555
O43 S14 1.473518 1_555
O43 Y7 2.286955 1_555
O44 S15 1.502638 1_555
O44 Sc7 2.047360 1_555
O45 S16 1.480673 1_555
O45 Y7 2.221503 1_555
O46 S11 1.493342 1_555
O46 Sc7 2.063207 1_555
O47 S12 1.487391 1_555
O47 Y7 2.215826 1_555
O48 S23 1.491966 1_555
O48 Sc8 2.098035 1_556
O49 S24 1.477782 1_555
O49 Y8 2.245167 1_556
O50 S25 1.491927 1_555
O50 Sc8 2.066641 1_556
O51 Si1 1.638118 1_555
O51 Y8 2.052608 1_556
O52 S26 1.494665 1_555
O52 Sc8 2.069967 1_556
O53 S27 1.476468 1_555
O53 Y8 2.287621 1_556
O54 S28 1.471877 1_555
O54 Y9 2.324574 1_555
O55 S29 1.483810 1_555
O55 Sc9 2.142817 1_555
O56 S30 1.472723 1_555
O56 Y9 2.308214 1_555
O57 S31 1.479455 1_555
O57 Sc9 2.195579 1_555
O58 Si2 1.620838 1_555
O58 Y9 2.097259 1_555
O59 S32 1.475048 1_555
O59 Sc9 2.159503 1_555
O60 Si2 1.655211 1_555
O60 Sc10 1.867688 1_555
O61 S32 1.488748 1_555
O61 Sc11 2.159173 1_555
O62 S28 1.474398 1_555
O62 Sc10 2.241141 1_555
O63 S29 1.491568 1_555
O63 Sc11 2.094660 1_555
O64 S30 1.478597 1_555
O64 Sc10 2.249072 1_555
O65 S31 1.494038 1_555
O65 Sc11 2.079780 1_555
O66 S25 1.467177 1_555
O66 Y10 2.303576 1_555
O67 Si1 1.622779 1_555
O67 Y11 2.060355 1_555
O68 S26 1.466411 1_555
O68 Y10 2.257516 1_555
O69 S27 1.474313 1_555
O69 Y11 2.345318 1_555
O70 S23 1.460862 1_555
O70 Y10 2.347708 1_555
O71 S24 1.475052 1_555
O71 Y11 2.315946 1_555
O72 Si2 1.657497 1_555
O72 Sc0 1.896126 1_555
O73 S32 1.485691 1_555
O73 Sc1 2.141599 1_555
O74 S28 1.494239 1_555
O74 Sc1 2.064032 1_555
O75 S29 1.484377 1_555
O75 Sc0 2.252601 1_655
O76 S30 1.489799 1_555
O76 Sc0 2.188189 1_545
O77 S31 1.486420 1_555
O77 Sc1 2.111568 1_545
O78 S25 1.465542 1_555
O78 Y0 2.398728 1_445
O79 Si1 1.638934 1_555
O79 Y1 2.093561 1_555
O80 S26 1.467739 1_555
O80 Y0 2.298858 1_455
O81 S27 1.480810 1_555
O81 Y1 2.304773 1_565
O82 S23 1.484502 1_555
O82 Y1 2.349842 1_565
O83 S24 1.464322 1_555
O83 Y0 2.257536 1_555
O84 S11 1.469421 1_555
O84 Y3 2.278016 1_555
O85 S12 1.476534 1_555
O85 Y2 2.360275 1_645
O86 S13 1.477710 1_555
O86 Y2 2.403641 1_545
O87 S14 1.479993 1_555
O87 Y3 2.213230 1_555
O88 S15 1.469727 1_555
O88 Y3 2.253058 1_565
O89 S16 1.482010 1_555
O89 Y2 2.343629 1_655
O90 S17 1.492701 1_555
O90 Sc3 2.098909 1_565
O91 S18 1.484074 1_555
O91 Sc2 2.159331 1_565
O92 S19 1.500872 1_555
O92 Sc3 2.144982 1_555
O93 S20 1.484224 1_555
O93 Sc2 2.104026 1_555
O94 S21 1.485839 1_555
O94 Sc2 2.078643 1_455
O95 S22 1.499157 1_555
O95 Sc3 2.196624 1_555
O96 S9 1.495336 1_555
O96 Y4 2.228796 1_555
O97 S10 1.485759 1_555
O97 Y5 2.284507 1_555
O98 S6 1.498900 1_555
O98 Y4 2.231021 1_555
O99 S7 1.479506 1_555
O99 Y5 2.264884 1_555
O100 S8 1.497032 1_555
O100 Y4 2.229307 1_555
O101 Si0 1.642121 1_555
O101 Y5 2.077418 1_555
O102 S2 1.508826 1_555
O102 Sc4 2.215107 1_555
O103 S3 1.501853 1_555
O103 Sc5 2.205091 1_555
O104 S5 1.496215 1_555
O104 Sc4 2.278461 1_555
O105 S4 1.511353 1_555
O105 Sc5 2.150180 1_555
O106 S0 1.515277 1_555
O106 Sc4 2.145885 1_555
O107 S1 1.491340 1_555
O107 Sc5 2.266766 1_555
O108 S23 1.488170 1_555
O108 Y6 2.262286 1_555
O109 S24 1.505629 1_555
O109 Sc6 2.092450 1_555
O110 Si1 1.645416 1_555
O110 Y6 2.080323 1_555
O111 S25 1.504881 1_655
O111 Sc6 2.078781 1_555
O112 S26 1.485921 1_545
O112 Y6 2.241756 1_555
O113 S27 1.500341 1_545
O113 Sc6 2.115320 1_555
O114 S28 1.508581 1_545
O114 Sc7 2.218798 1_555
O115 S29 1.480874 1_545
O115 Y7 2.337575 1_555
O116 S30 1.513843 1_555
O116 Sc7 2.197250 1_555
O117 S31 1.477248 1_555
O117 Y7 2.348185 1_555
O118 S32 1.501521 1_555
O118 Sc7 2.218587 1_555
O119 Si2 1.639477 1_655
O119 Y7 2.148708 1_555
O120 S21 1.474537 1_555
O120 Sc8 2.193312 1_555
O121 S22 1.466854 1_555
O121 Y8 2.308285 1_555
O122 S18 1.474245 1_455
O122 Sc8 2.166826 1_555
O123 S17 1.467294 1_555
O123 Y8 2.325582 1_555
O124 S19 1.471117 1_565
O124 Sc8 2.215888 1_555
O125 S20 1.465076 1_565
O125 Y8 2.374571 1_555
O126 S13 1.464948 1_565
O126 Y9 2.242692 1_555
O127 S14 1.492702 1_565
O127 Sc9 2.040615 1_555
O128 S15 1.459464 1_555
O128 Y9 2.301881 1_555
O129 S16 1.486194 1_555
O129 Sc9 2.063242 1_555
O130 S12 1.473061 1_455
O130 Y9 2.232205 1_555
O131 S11 1.476407 1_555
O131 Sc9 2.074766 1_555
O132 S0 1.472534 1_565
O132 Sc10 2.207551 1_555
O133 S1 1.487085 1_565
O133 Sc11 2.153298 1_555
O134 S2 1.461136 1_555
O134 Sc10 2.316370 1_555
O135 S3 1.489809 1_555
O135 Sc11 2.154205 1_555
O136 S4 1.478478 1_455
O136 Sc10 2.188028 1_555
O137 S5 1.486005 1_555
O137 Sc11 2.143863 1_555
O138 S6 1.456247 1_555
O138 Y10 2.225712 1_555
O139 S7 1.467239 1_555
O139 Y11 2.269207 1_555
O140 Si0 1.611978 1_455
O140 Y10 2.013517 1_555
O141 S8 1.465563 1_555
O141 Y11 2.286115 1_555
O142 S9 1.451570 1_565
O142 Y10 2.276037 1_555
O143 S10 1.466247 1_565
O143 Y11 2.270393 1_555
