# generated using pymatgen
data_MgV2(GeO3)4
_symmetry_space_group_name_H-M   'P 1'
_cell_length_a   5.56134843
_cell_length_b   6.86906879
_cell_length_c   6.86118580
_cell_angle_alpha   80.91650114
_cell_angle_beta   73.31268055
_cell_angle_gamma   73.31790683
_symmetry_Int_Tables_number   1
_chemical_formula_structural   MgV2(GeO3)4
_chemical_formula_sum   'Mg1 V2 Ge4 O12'
_cell_volume   239.68659176
_cell_formula_units_Z   1
loop_
 _symmetry_equiv_pos_site_id
 _symmetry_equiv_pos_as_xyz
  1  'x, y, z'
loop_
 _atom_site_type_symbol
 _atom_site_label
 _atom_site_symmetry_multiplicity
 _atom_site_fract_x
 _atom_site_fract_y
 _atom_site_fract_z
 _atom_site_occupancy
  Mg  Mg0  1  0.74994689  0.27149897  0.72854131  1
  V  V0  1  0.75037777  0.90245779  0.09820970  1
  V  V1  1  0.25013958  0.08751814  0.91258691  1
  Ge  Ge0  1  0.73293332  0.38603594  0.20173418  1
  Ge  Ge1  1  0.76711620  0.79725573  0.61501217  1
  Ge  Ge2  1  0.25107087  0.61503500  0.80812157  1
  Ge  Ge3  1  0.24836387  0.19282564  0.38451860  1
  O  O0  1  0.40843899  0.39014487  0.33282129  1
  O  O1  1  0.09182473  0.66670820  0.61000000  1
  O  O2  1  0.59487355  0.60190502  0.68859221  1
  O  O3  1  0.90462726  0.31164659  0.39787423  1
  O  O4  1  0.15851687  0.12364831  0.64792799  1
  O  O5  1  0.34178465  0.35180771  0.87664765  1
  O  O6  1  0.72405832  0.92810128  0.38574597  1
  O  O7  1  0.77588927  0.61446600  0.07009745  1
  O  O8  1  0.84383332  0.19815628  0.01924984  1
  O  O9  1  0.65664999  0.98029041  0.80221872  1
  O  O10  1  0.14148433  0.81907734  0.96886121  1
  O  O11  1  0.35807022  0.03142075  0.18123900  1
loop_
_geom_bond_atom_site_label_1
_geom_bond_atom_site_label_2
_geom_bond_distance
_geom_bond_site_symmetry_2
Mg0 O5 2.150095 1_555
Mg0 O4 2.151975 1_655
Mg0 O8 2.152831 1_556
Mg0 O9 2.156859 1_545
Mg0 O3 2.186589 1_555
Mg0 O2 2.187575 1_555
Ge0 O7 1.725895 1_555
Ge0 O0 1.764382 1_555
Ge0 O8 1.795362 1_555
Ge0 O3 1.795721 1_555
Ge1 O6 1.727992 1_555
Ge1 O1 1.763709 1_655
Ge1 O2 1.794275 1_555
Ge1 O9 1.794792 1_555
Ge2 O5 1.757550 1_555
Ge2 O1 1.765419 1_555
Ge2 O10 1.778712 1_555
Ge2 O2 1.833114 1_555
Ge3 O4 1.757367 1_555
Ge3 O0 1.764948 1_555
Ge3 O11 1.777064 1_555
Ge3 O3 1.831982 1_455
O4 V1 1.983711 1_555
O5 V1 1.983437 1_555
O6 V0 1.968155 1_555
O7 V0 1.978478 1_555
O8 V1 2.111633 1_654
O8 V0 2.187745 1_545
O9 V1 2.112783 1_565
O9 V0 2.187923 1_556
O10 V0 2.045316 1_456
O10 V1 2.048230 1_565
O11 V1 2.045671 1_554
O11 V0 2.050677 1_545
