# generated using pymatgen
data_Yb4As6Rh7
_symmetry_space_group_name_H-M   'P 1'
_cell_length_a   7.23334035
_cell_length_b   7.23334035
_cell_length_c   7.23334035
_cell_angle_alpha   109.47122063
_cell_angle_beta   109.47122063
_cell_angle_gamma   109.47122063
_symmetry_Int_Tables_number   1
_chemical_formula_structural   Yb4As6Rh7
_chemical_formula_sum   'Yb4 As6 Rh7'
_cell_volume   291.33644135
_cell_formula_units_Z   1
loop_
 _symmetry_equiv_pos_site_id
 _symmetry_equiv_pos_as_xyz
  1  'x, y, z'
loop_
 _atom_site_type_symbol
 _atom_site_label
 _atom_site_symmetry_multiplicity
 _atom_site_fract_x
 _atom_site_fract_y
 _atom_site_fract_z
 _atom_site_occupancy
  Yb  Yb0  1  0.50000000  0.50000000  0.50000000  1
  Yb  Yb1  1  0.00000000  0.50000000  0.00000000  1
  Yb  Yb2  1  0.50000000  0.00000000  0.00000000  1
  Yb  Yb3  1  0.00000000  0.00000000  0.50000000  1
  As  As0  1  0.67983800  0.00000000  0.67983800  1
  As  As1  1  0.67983800  0.67983800  0.00000000  1
  As  As2  1  0.32016200  0.32016200  0.00000000  1
  As  As3  1  0.00000000  0.67983800  0.67983800  1
  As  As4  1  0.00000000  0.32016200  0.32016200  1
  As  As5  1  0.32016200  0.00000000  0.32016200  1
  Rh  Rh0  1  0.50000000  0.75000000  0.25000000  1
  Rh  Rh1  1  0.75000000  0.25000000  0.50000000  1
  Rh  Rh2  1  0.25000000  0.75000000  0.50000000  1
  Rh  Rh3  1  0.25000000  0.50000000  0.75000000  1
  Rh  Rh4  1  0.00000000  0.00000000  0.00000000  1
  Rh  Rh5  1  0.50000000  0.25000000  0.75000000  1
  Rh  Rh6  1  0.75000000  0.50000000  0.25000000  1
loop_
_geom_bond_atom_site_label_1
_geom_bond_atom_site_label_2
_geom_bond_distance
_geom_bond_site_symmetry_2
As0 Rh2 2.572219 1_545
As0 Rh1 2.572219 1_555
As0 Rh0 2.572219 1_545
As0 Rh5 2.572219 1_555
As0 Rh4 2.674103 1_656
As0 Yb2 3.010584 1_556
As0 Yb0 3.010584 1_545
As0 Yb3 3.010584 1_655
As0 Yb1 3.010584 1_656
As1 Rh3 2.572219 1_554
As1 Rh0 2.572219 1_555
As1 Rh6 2.572219 1_555
As1 Rh5 2.572219 1_554
As1 Rh4 2.674103 1_665
As1 Yb2 3.010584 1_565
As1 Yb0 3.010584 1_554
As1 Yb3 3.010584 1_665
As1 Yb1 3.010584 1_655
As2 Rh6 2.572219 1_555
As2 Rh3 2.572219 1_554
As2 Rh5 2.572219 1_554
As2 Rh0 2.572219 1_555
As2 Rh4 2.674103 1_555
As2 Yb2 3.010584 1_555
As2 Yb0 3.010584 1_555
As2 Yb3 3.010584 1_554
As2 Yb1 3.010584 1_555
As3 Rh1 2.572219 1_455
As3 Rh3 2.572219 1_555
As3 Rh2 2.572219 1_555
As3 Rh6 2.572219 1_455
As3 Rh4 2.674103 1_566
As3 Yb0 3.010584 1_455
As3 Yb2 3.010584 1_566
As3 Yb3 3.010584 1_565
As3 Yb1 3.010584 1_556
As4 Rh3 2.572219 1_555
As4 Rh2 2.572219 1_555
As4 Rh6 2.572219 1_455
As4 Rh1 2.572219 1_455
As4 Rh4 2.674103 1_555
As4 Yb0 3.010584 1_555
As4 Yb3 3.010584 1_555
As4 Yb2 3.010584 1_455
As4 Yb1 3.010584 1_555
As5 Rh0 2.572219 1_545
As5 Rh1 2.572219 1_555
As5 Rh5 2.572219 1_555
As5 Rh2 2.572219 1_545
As5 Rh4 2.674103 1_555
As5 Yb2 3.010584 1_555
As5 Yb0 3.010584 1_555
As5 Yb3 3.010584 1_555
As5 Yb1 3.010584 1_545
Rh0 Yb0 2.952999 1_555
Rh0 Yb2 2.952999 1_565
Rh0 Yb3 2.952999 1_665
Rh0 Yb1 2.952999 1_555
Rh1 Yb2 2.952999 1_555
Rh1 Yb0 2.952999 1_555
Rh1 Yb3 2.952999 1_655
Rh1 Yb1 2.952999 1_656
Rh2 Yb2 2.952999 1_566
Rh2 Yb0 2.952999 1_555
Rh2 Yb3 2.952999 1_565
Rh2 Yb1 2.952999 1_555
Rh3 Yb2 2.952999 1_566
Rh3 Yb3 2.952999 1_555
Rh3 Yb0 2.952999 1_555
Rh3 Yb1 2.952999 1_556
Rh5 Yb3 2.952999 1_555
Rh5 Yb0 2.952999 1_555
Rh5 Yb1 2.952999 1_656
Rh5 Yb2 2.952999 1_556
Rh6 Yb2 2.952999 1_555
Rh6 Yb0 2.952999 1_555
Rh6 Yb3 2.952999 1_665
Rh6 Yb1 2.952999 1_655
