# generated using pymatgen
data_DySBr
_symmetry_space_group_name_H-M   'P 1'
_cell_length_a   4.06812908
_cell_length_b   5.34324643
_cell_length_c   8.59354258
_cell_angle_alpha   90.00000000
_cell_angle_beta   90.00000000
_cell_angle_gamma   90.00000000
_symmetry_Int_Tables_number   1
_chemical_formula_structural   DySBr
_chemical_formula_sum   'Dy2 S2 Br2'
_cell_volume   186.79797413
_cell_formula_units_Z   2
loop_
 _symmetry_equiv_pos_site_id
 _symmetry_equiv_pos_as_xyz
  1  'x, y, z'
loop_
 _atom_site_type_symbol
 _atom_site_label
 _atom_site_symmetry_multiplicity
 _atom_site_fract_x
 _atom_site_fract_y
 _atom_site_fract_z
 _atom_site_occupancy
  Dy  Dy0  1  0.25000000  0.25000000  0.13377739  1
  Dy  Dy1  1  0.75000000  0.75000000  0.86622261  1
  S  S0  1  0.75000000  0.25000000  0.92037337  1
  S  S1  1  0.25000000  0.75000000  0.07962663  1
  Br  Br0  1  0.25000000  0.75000000  0.64032081  1
  Br  Br1  1  0.75000000  0.25000000  0.35967919  1
loop_
_geom_bond_atom_site_label_1
_geom_bond_atom_site_label_2
_geom_bond_distance
_geom_bond_site_symmetry_2
Dy0 S1 2.711848 1_545
Dy0 S1 2.711848 1_555
Dy0 S0 2.738721 1_554
Dy0 S0 2.738721 1_454
Dy1 S0 2.711848 1_555
Dy1 S0 2.711848 1_565
Dy1 S1 2.738721 1_556
Dy1 S1 2.738721 1_656
Br0 Dy1 2.811770 1_555
Br0 Dy1 2.811770 1_455
Br1 Dy0 2.811770 1_655
Br1 Dy0 2.811770 1_555
