# generated using pymatgen
data_Be(PO3)2
_symmetry_space_group_name_H-M   'P 1'
_cell_length_a   12.85336338
_cell_length_b   4.85134656
_cell_length_c   7.24980500
_cell_angle_alpha   66.97630080
_cell_angle_beta   90.00000000
_cell_angle_gamma   90.00000000
_symmetry_Int_Tables_number   1
_chemical_formula_structural   Be(PO3)2
_chemical_formula_sum   'Be4 P8 O24'
_cell_volume   416.05926564
_cell_formula_units_Z   4
loop_
 _symmetry_equiv_pos_site_id
 _symmetry_equiv_pos_as_xyz
  1  'x, y, z'
loop_
 _atom_site_type_symbol
 _atom_site_label
 _atom_site_symmetry_multiplicity
 _atom_site_fract_x
 _atom_site_fract_y
 _atom_site_fract_z
 _atom_site_occupancy
  Be  Be0  1  0.93282597  0.63700124  0.23640828  1
  Be  Be1  1  0.43282597  0.36299876  0.26359172  1
  Be  Be2  1  0.06717403  0.36299876  0.76359172  1
  Be  Be3  1  0.56717403  0.63700124  0.73640828  1
  P  P0  1  0.86845627  0.02029225  0.83035795  1
  P  P1  1  0.64987070  0.03351911  0.91984598  1
  P  P2  1  0.14987070  0.96648089  0.58015402  1
  P  P3  1  0.35012930  0.96648089  0.08015402  1
  P  P4  1  0.85012930  0.03351911  0.41984598  1
  P  P5  1  0.63154373  0.02029225  0.33035795  1
  P  P6  1  0.13154373  0.97970775  0.16964205  1
  P  P7  1  0.36845627  0.97970775  0.66964205  1
  O  O0  1  0.23776327  0.82353601  0.14874728  1
  O  O1  1  0.63800309  0.76991517  0.86712468  1
  O  O2  1  0.13800309  0.23008483  0.63287532  1
  O  O3  1  0.36199691  0.23008483  0.13287532  1
  O  O4  1  0.86199691  0.76991517  0.36712468  1
  O  O5  1  0.57183627  0.27641133  0.84007153  1
  O  O6  1  0.07183627  0.72358867  0.65992847  1
  O  O7  1  0.42816373  0.72358867  0.15992847  1
  O  O8  1  0.73776327  0.17646399  0.35125272  1
  O  O9  1  0.15623213  0.08817933  0.34420563  1
  O  O10  1  0.26223673  0.82353601  0.64874728  1
  O  O11  1  0.76223673  0.17646399  0.85125272  1
  O  O12  1  0.84376787  0.91182067  0.65579437  1
  O  O13  1  0.34376787  0.08817933  0.84420563  1
  O  O14  1  0.61457218  0.74477984  0.51235548  1
  O  O15  1  0.65623213  0.91182067  0.15579437  1
  O  O16  1  0.94790414  0.25880729  0.76897603  1
  O  O17  1  0.11457218  0.25522016  0.98764452  1
  O  O18  1  0.38542782  0.25522016  0.48764452  1
  O  O19  1  0.88542782  0.74477984  0.01235548  1
  O  O20  1  0.55209586  0.25880729  0.26897603  1
  O  O21  1  0.05209586  0.74119271  0.23102397  1
  O  O22  1  0.44790414  0.74119271  0.73102397  1
  O  O23  1  0.92816373  0.27641133  0.34007153  1
loop_
_geom_bond_atom_site_label_1
_geom_bond_atom_site_label_2
_geom_bond_distance
_geom_bond_site_symmetry_2
Be0 O21 1.609887 1_655
Be0 O23 1.612521 1_555
Be0 O19 1.618230 1_555
Be0 O4 1.618846 1_555
Be1 O20 1.609887 1_555
Be1 O7 1.612521 1_555
Be1 O18 1.618230 1_555
Be1 O3 1.618846 1_555
Be2 O16 1.609887 1_455
Be2 O6 1.612521 1_555
Be2 O17 1.618230 1_555
Be2 O2 1.618846 1_555
Be3 O22 1.609887 1_555
Be3 O5 1.612521 1_555
Be3 O14 1.618230 1_555
Be3 O1 1.618846 1_555
O0 P3 1.595116 1_555
O0 P6 1.597101 1_555
O1 P1 1.478892 1_565
O2 P2 1.478892 1_545
O3 P3 1.478892 1_545
O4 P4 1.478892 1_565
O5 P1 1.481870 1_555
O6 P2 1.481870 1_555
O7 P3 1.481870 1_555
O8 P4 1.595116 1_555
O8 P5 1.597101 1_555
O9 P2 1.578402 1_545
O9 P6 1.581197 1_545
O10 P2 1.595116 1_555
O10 P7 1.597101 1_555
O11 P1 1.595116 1_555
O11 P0 1.597101 1_555
O12 P4 1.578402 1_565
O12 P0 1.581197 1_565
O13 P3 1.578402 1_546
O13 P7 1.581197 1_545
O14 P5 1.481731 1_565
O15 P1 1.578402 1_564
O15 P5 1.581197 1_565
O16 P0 1.475453 1_555
O17 P6 1.481731 1_546
O18 P7 1.481731 1_545
O19 P0 1.481731 1_564
O20 P5 1.475453 1_555
O21 P6 1.475453 1_555
O22 P7 1.475453 1_555
O23 P4 1.481870 1_555
