# generated using pymatgen
data_Y(MnGe)6
_symmetry_space_group_name_H-M   'P 1'
_cell_length_a   5.16344475
_cell_length_b   5.16338536
_cell_length_c   8.17589096
_cell_angle_alpha   90.00000000
_cell_angle_beta   90.00000000
_cell_angle_gamma   119.99965710
_symmetry_Int_Tables_number   1
_chemical_formula_structural   Y(MnGe)6
_chemical_formula_sum   'Y1 Mn6 Ge6'
_cell_volume   188.77361657
_cell_formula_units_Z   1
loop_
 _symmetry_equiv_pos_site_id
 _symmetry_equiv_pos_as_xyz
  1  'x, y, z'
loop_
 _atom_site_type_symbol
 _atom_site_label
 _atom_site_symmetry_multiplicity
 _atom_site_fract_x
 _atom_site_fract_y
 _atom_site_fract_z
 _atom_site_occupancy
  Y  Y0  1  -0.00000000  -0.00000000  -0.00000000  1
  Mn  Mn0  1  0.50000000  -0.00000000  0.25211722  1
  Mn  Mn1  1  -0.00000000  0.50000000  0.74788098  1
  Mn  Mn2  1  0.50000000  0.50000000  0.74788278  1
  Mn  Mn3  1  0.50000000  -0.00000000  0.74788278  1
  Mn  Mn4  1  -0.00000000  0.50000000  0.25211902  1
  Mn  Mn5  1  0.50000000  0.50000000  0.25211722  1
  Ge  Ge0  1  0.66659273  0.33329636  -0.00000000  1
  Ge  Ge1  1  -0.00000000  -0.00000000  0.65567256  1
  Ge  Ge2  1  -0.00000000  -0.00000000  0.34432744  1
  Ge  Ge3  1  0.66658538  0.33329319  0.50000000  1
  Ge  Ge4  1  0.33341462  0.66670681  0.50000000  1
  Ge  Ge5  1  0.33340727  0.66670364  -0.00000000  1
loop_
_geom_bond_atom_site_label_1
_geom_bond_atom_site_label_2
_geom_bond_distance
_geom_bond_site_symmetry_2
Ge0 Mn3 2.543643 1_554
Ge0 Mn0 2.543643 1_555
Ge0 Mn2 2.543644 1_554
Ge0 Mn5 2.543644 1_555
Ge0 Mn1 2.543956 1_654
Ge0 Mn4 2.543956 1_655
Ge0 Y0 2.980796 1_555
Ge0 Y0 2.981258 1_665
Ge0 Y0 2.981259 1_655
Ge1 Ge2 2.545524 1_555
Ge1 Mn1 2.689513 1_555
Ge1 Mn1 2.689513 1_545
Ge1 Mn2 2.689544 1_445
Ge1 Mn2 2.689544 1_555
Ge1 Mn3 2.689546 1_455
Ge1 Mn3 2.689546 1_555
Ge1 Y0 2.815184 1_556
Ge2 Mn4 2.689513 1_555
Ge2 Mn4 2.689513 1_545
Ge2 Mn5 2.689544 1_555
Ge2 Mn5 2.689544 1_445
Ge2 Mn0 2.689546 1_455
Ge2 Mn0 2.689546 1_555
Ge2 Y0 2.815184 1_555
Ge3 Mn5 2.515660 1_555
Ge3 Mn2 2.515660 1_555
Ge3 Mn0 2.515662 1_555
Ge3 Mn3 2.515662 1_555
Ge3 Mn4 2.515982 1_655
Ge3 Mn1 2.515982 1_655
Ge4 Mn5 2.515660 1_555
Ge4 Mn2 2.515660 1_555
Ge4 Mn0 2.515662 1_565
Ge4 Mn3 2.515662 1_565
Ge4 Mn4 2.515982 1_555
Ge4 Mn1 2.515982 1_555
Ge5 Mn0 2.543643 1_565
Ge5 Mn3 2.543643 1_564
Ge5 Mn5 2.543644 1_555
Ge5 Mn2 2.543644 1_554
Ge5 Mn1 2.543956 1_554
Ge5 Mn4 2.543956 1_555
Ge5 Y0 2.980796 1_665
Ge5 Y0 2.981258 1_555
Ge5 Y0 2.981259 1_565
