# generated using pymatgen
data_Na2ZrZnP2SO12
_symmetry_space_group_name_H-M   'P 1'
_cell_length_a   8.98941500
_cell_length_b   8.91604859
_cell_length_c   22.86141070
_cell_angle_alpha   89.53024224
_cell_angle_beta   90.00000000
_cell_angle_gamma   120.27257457
_symmetry_Int_Tables_number   1
_chemical_formula_structural   Na2ZrZnP2SO12
_chemical_formula_sum   'Na12 Zr6 Zn6 P12 S6 O72'
_cell_volume   1582.40820991
_cell_formula_units_Z   6
loop_
 _symmetry_equiv_pos_site_id
 _symmetry_equiv_pos_as_xyz
  1  'x, y, z'
loop_
 _atom_site_type_symbol
 _atom_site_label
 _atom_site_symmetry_multiplicity
 _atom_site_fract_x
 _atom_site_fract_y
 _atom_site_fract_z
 _atom_site_occupancy
  Na  Na0  1  0.99056357  0.62714731  0.24335496  1
  Na  Na1  1  0.63658374  0.62714731  0.74335496  1
  Na  Na2  1  0.65723057  0.96048031  0.57668796  1
  Na  Na3  1  0.30325074  0.96048031  0.07668796  1
  Na  Na4  1  0.32389657  0.29381431  0.91002196  1
  Na  Na5  1  0.96991674  0.29381431  0.41002196  1
  Na  Na6  1  0.99821815  0.97468523  0.49106441  1
  Na  Na7  1  0.97646708  0.97468523  0.99106441  1
  Na  Na8  1  0.66488515  0.30801823  0.82439741  1
  Na  Na9  1  0.64313408  0.30801823  0.32439741  1
  Na  Na10  1  0.33155115  0.64135223  0.15773141  1
  Na  Na11  1  0.30980008  0.64135223  0.65773141  1
  Zr  Zr0  1  0.00391130  0.01175054  0.64807846  1
  Zr  Zr1  1  0.00783923  0.01175054  0.14807846  1
  Zr  Zr2  1  0.67057830  0.34508354  0.98141146  1
  Zr  Zr3  1  0.67450623  0.34508354  0.48141146  1
  Zr  Zr4  1  0.33724430  0.67841754  0.31474546  1
  Zr  Zr5  1  0.34117223  0.67841754  0.81474546  1
  Zn  Zn0  1  0.00029321  0.99525018  0.34807587  1
  Zn  Zn1  1  0.99495697  0.99525018  0.84807587  1
  Zn  Zn2  1  0.66696021  0.32858318  0.68140887  1
  Zn  Zn3  1  0.66162397  0.32858318  0.18140887  1
  Zn  Zn4  1  0.33362621  0.66191718  0.01474287  1
  Zn  Zn5  1  0.32828997  0.66191718  0.51474287  1
  P  P0  1  0.29806699  0.01011485  0.25098570  1
  P  P1  1  0.99517211  0.29482521  0.25468750  1
  P  P2  1  0.29965310  0.29482521  0.75468750  1
  P  P3  1  0.71204786  0.01011485  0.75098570  1
  P  P4  1  0.96473399  0.34344785  0.58431870  1
  P  P5  1  0.66183911  0.62815821  0.58802050  1
  P  P6  1  0.96632010  0.62815821  0.08802050  1
  P  P7  1  0.37871486  0.34344785  0.08431870  1
  P  P8  1  0.63139999  0.67678185  0.91765270  1
  P  P9  1  0.32850511  0.96149221  0.92135450  1
  P  P10  1  0.63298610  0.96149221  0.42135450  1
  P  P11  1  0.04538086  0.67678185  0.41765270  1
  S  S0  1  0.70596805  0.70534470  0.25094655  1
  S  S1  1  -0.00062334  0.70534470  0.75094655  1
  S  S2  1  0.37263505  0.03867770  0.58427955  1
  S  S3  1  0.66604366  0.03867770  0.08427955  1
  S  S4  1  0.03930105  0.37201170  0.91761355  1
  S  S5  1  0.33270966  0.37201170  0.41761355  1
  O  O0  1  0.20659238  0.02338919  0.30430436  1
  O  O1  1  0.80923202  0.78656215  0.30312257  1
  O  O2  1  0.97553527  0.19318661  0.31101667  1
  O  O3  1  0.21765135  0.19318661  0.81101667  1
  O  O4  1  0.97733013  0.78656215  0.80312257  1
  O  O5  1  0.81679682  0.02338919  0.80430436  1
  O  O6  1  0.79195691  0.97424280  0.69452205  1
  O  O7  1  0.18330328  0.19829445  0.70052361  1
  O  O8  1  0.02451158  0.81403292  0.69749792  1
  O  O9  1  0.78952133  0.81403292  0.19749792  1
  O  O10  1  0.01499117  0.19829445  0.20052361  1
  O  O11  1  0.18228589  0.97424280  0.19452205  1
  O  O12  1  0.87325938  0.35672219  0.63763736  1
  O  O13  1  0.47589902  0.11989515  0.63645557  1
  O  O14  1  0.64220227  0.52651961  0.64434967  1
  O  O15  1  0.88431835  0.52651961  0.14434967  1
  O  O16  1  0.64399713  0.11989515  0.13645557  1
  O  O17  1  0.48346382  0.35672219  0.13763736  1
  O  O18  1  0.45862391  0.30757580  0.02785505  1
  O  O19  1  0.84997028  0.53162745  0.03385661  1
  O  O20  1  0.69117858  0.14736592  0.03083092  1
  O  O21  1  0.45618833  0.14736592  0.53083092  1
  O  O22  1  0.68165817  0.53162745  0.53385661  1
  O  O23  1  0.84895289  0.30757580  0.52785505  1
  O  O24  1  0.53992538  0.69005619  0.97097136  1
  O  O25  1  0.14256502  0.45322915  0.96978957  1
  O  O26  1  0.30886827  0.85985361  0.97768367  1
  O  O27  1  0.55098435  0.85985361  0.47768367  1
  O  O28  1  0.31066313  0.45322915  0.46978957  1
  O  O29  1  0.15012982  0.69005619  0.47097136  1
  O  O30  1  0.12528991  0.64090980  0.36118905  1
  O  O31  1  0.51663628  0.86496145  0.36719061  1
  O  O32  1  0.35784458  0.48069992  0.36416492  1
  O  O33  1  0.12285433  0.48069992  0.86416492  1
  O  O34  1  0.34832417  0.86496145  0.86719061  1
  O  O35  1  0.51561889  0.64090980  0.86118905  1
  O  O36  1  0.01770293  0.82996399  0.41002895  1
  O  O37  1  0.81660742  0.99464781  0.41377379  1
  O  O38  1  0.17709470  0.19933520  0.41185326  1
  O  O39  1  0.02224050  0.19933520  0.91185326  1
  O  O40  1  0.17804039  0.99464781  0.91377379  1
  O  O41  1  0.81226106  0.82996399  0.91002895  1
  O  O42  1  0.97115451  0.16797312  0.58843898  1
  O  O43  1  0.19882568  0.02168245  0.58828803  1
  O  O44  1  0.83244482  0.81227129  0.58943636  1
  O  O45  1  0.97982646  0.81227129  0.08943636  1
  O  O46  1  0.82285677  0.02168245  0.08828803  1
  O  O47  1  0.19681861  0.16797312  0.08843898  1
  O  O48  1  0.68436993  0.16329699  0.74336195  1
  O  O49  1  0.48327442  0.32798081  0.74710679  1
  O  O50  1  0.84376170  0.53266820  0.74518626  1
  O  O51  1  0.68890750  0.53266820  0.24518626  1
  O  O52  1  0.84470739  0.32798081  0.24710679  1
  O  O53  1  0.47892806  0.16329699  0.24336195  1
  O  O54  1  0.63782151  0.50130612  0.92177198  1
  O  O55  1  0.86549268  0.35501545  0.92162103  1
  O  O56  1  0.49911182  0.14560429  0.92276936  1
  O  O57  1  0.64649346  0.14560429  0.42276936  1
  O  O58  1  0.48952377  0.35501545  0.42162103  1
  O  O59  1  0.86348561  0.50130612  0.42177198  1
  O  O60  1  0.35103593  0.49663099  0.07669595  1
  O  O61  1  0.14994042  0.66131481  0.08044079  1
  O  O62  1  0.51042770  0.86600220  0.07852026  1
  O  O63  1  0.35557350  0.86600220  0.57852026  1
  O  O64  1  0.51137339  0.66131481  0.58044079  1
  O  O65  1  0.14559406  0.49663099  0.57669595  1
  O  O66  1  0.30448751  0.83464012  0.25510598  1
  O  O67  1  0.53215868  0.68834945  0.25495503  1
  O  O68  1  0.16577782  0.47893829  0.25610336  1
  O  O69  1  0.31315946  0.47893829  0.75610336  1
  O  O70  1  0.15618977  0.68834945  0.75495503  1
  O  O71  1  0.53015161  0.83464012  0.75510598  1
loop_
_geom_bond_atom_site_label_1
_geom_bond_atom_site_label_2
_geom_bond_distance
_geom_bond_site_symmetry_2
Na0 O52 2.304677 1_555
Na0 O51 2.400223 1_555
Na0 O15 2.451424 1_555
Na0 O66 2.490548 1_655
Na0 O68 2.530647 1_655
Na0 O11 2.891327 1_655
Na0 O30 2.931600 1_655
Na0 O1 2.985318 1_555
Na1 O49 2.304676 1_555
Na1 O50 2.400231 1_555
Na1 O14 2.451426 1_555
Na1 O71 2.490555 1_555
Na1 O69 2.530655 1_555
Na1 O6 2.891327 1_555
Na1 O35 2.931604 1_555
Na1 O4 2.985318 1_555
Na2 O64 2.304669 1_555
Na2 O63 2.400234 1_555
Na2 O27 2.451403 1_555
Na2 O42 2.490548 1_565
Na2 O44 2.530647 1_555
Na2 O23 2.891327 1_565
Na2 O6 2.931600 1_555
Na2 O13 2.985318 1_565
Na3 O61 2.304670 1_555
Na3 O62 2.400217 1_555
Na3 O26 2.451400 1_554
Na3 O47 2.490555 1_565
Na3 O45 2.530655 1_455
Na3 O18 2.891327 1_565
Na3 O11 2.931604 1_555
Na3 O16 2.985318 1_565
Na4 O40 2.304677 1_545
Na4 O39 2.400223 1_555
Na4 O3 2.451424 1_555
Na4 O54 2.490551 1_555
Na4 O56 2.530660 1_555
Na4 O35 2.891327 1_555
Na4 O18 2.931584 1_556
Na4 O25 2.985318 1_555
Na5 O37 2.304676 1_545
Na5 O38 2.400231 1_655
Na5 O2 2.451426 1_555
Na5 O59 2.490537 1_555
Na5 O57 2.530644 1_555
Na5 O30 2.891327 1_655
Na5 O23 2.931577 1_555
Na5 O28 2.985318 1_655
Na6 O36 2.322671 1_655
Na6 O37 2.471231 1_555
Na6 O38 2.563225 1_665
Na6 O44 2.673241 1_555
Na6 O43 2.760669 1_665
Na6 O42 2.910397 1_565
Na7 O41 2.322671 1_555
Na7 O40 2.471231 1_655
Na7 O39 2.563225 1_665
Na7 O45 2.673241 1_556
Na7 O46 2.760669 1_566
Na7 O47 2.910397 1_666
Na8 O48 2.322671 1_555
Na8 O49 2.471231 1_555
Na8 O50 2.563225 1_555
Na8 O56 2.673241 1_555
Na8 O55 2.760669 1_555
Na8 O54 2.910397 1_555
Na9 O53 2.322671 1_555
Na9 O52 2.471231 1_555
Na9 O51 2.563225 1_555
Na9 O57 2.673241 1_555
Na9 O58 2.760669 1_555
Na9 O59 2.910397 1_555
Na10 O60 2.322671 1_555
Na10 O61 2.471231 1_555
Na10 O62 2.563225 1_555
Na10 O68 2.673241 1_555
Na10 O67 2.760669 1_555
Na10 O66 2.910397 1_555
Na11 O65 2.322671 1_555
Na11 O64 2.471231 1_555
Na11 O63 2.563225 1_555
Na11 O69 2.673241 1_555
Na11 O70 2.760669 1_555
Na11 O71 2.910397 1_555
O0 P0 1.508806 1_555
O0 Zn0 2.007557 1_545
O1 S0 1.464693 1_555
O1 Zn0 2.068204 1_655
O2 P1 1.526533 1_555
O2 Zn0 2.062370 1_645
O3 P2 1.526533 1_555
O3 Zn1 2.062370 1_445
O4 S1 1.464693 1_655
O4 Zn1 2.068204 1_555
O5 P3 1.508806 1_555
O5 Zn1 2.007557 1_545
O6 P3 1.588388 1_565
O6 Zr0 2.054574 1_665
O7 P2 1.574125 1_555
O7 Zr0 2.032953 1_555
O8 S1 1.497677 1_555
O8 Zr0 2.171381 1_565
O9 S0 1.497677 1_555
O9 Zr1 2.171381 1_665
O10 P1 1.574125 1_455
O10 Zr1 2.032953 1_555
O11 P0 1.588388 1_565
O11 Zr1 2.054574 1_565
O12 P4 1.508806 1_555
O12 Zn2 2.007557 1_555
O13 S2 1.464693 1_555
O13 Zn2 2.068204 1_555
O14 P5 1.526533 1_555
O14 Zn2 2.062370 1_555
O15 P6 1.526533 1_555
O15 Zn3 2.062370 1_555
O16 S3 1.464693 1_555
O16 Zn3 2.068204 1_555
O17 P7 1.508806 1_555
O17 Zn3 2.007557 1_555
O18 P7 1.588388 1_555
O18 Zr2 2.054574 1_554
O19 P6 1.574125 1_555
O19 Zr2 2.032953 1_554
O20 S3 1.497677 1_555
O20 Zr2 2.171381 1_554
O21 S2 1.497677 1_555
O21 Zr3 2.171381 1_555
O22 P5 1.574125 1_555
O22 Zr3 2.032953 1_555
O23 P4 1.588388 1_555
O23 Zr3 2.054574 1_555
O24 P8 1.508806 1_555
O24 Zn4 2.007557 1_556
O25 S4 1.464693 1_555
O25 Zn4 2.068204 1_556
O26 P9 1.526533 1_555
O26 Zn4 2.062370 1_556
O27 P10 1.526533 1_555
O27 Zn5 2.062370 1_555
O28 S5 1.464693 1_555
O28 Zn5 2.068204 1_555
O29 P11 1.508806 1_555
O29 Zn5 2.007557 1_555
O30 P11 1.588388 1_555
O30 Zr4 2.054574 1_555
O31 P10 1.574125 1_555
O31 Zr4 2.032953 1_555
O32 S5 1.497677 1_555
O32 Zr4 2.171381 1_555
O33 S4 1.497677 1_555
O33 Zr5 2.171381 1_555
O34 P9 1.574125 1_555
O34 Zr5 2.032953 1_555
O35 P8 1.588388 1_555
O35 Zr5 2.054574 1_555
O36 P11 1.515370 1_555
O36 Zn0 2.097761 1_555
O37 P10 1.532726 1_555
O37 Zn0 2.230102 1_655
O38 S5 1.475282 1_555
O38 Zn0 2.256245 1_545
O39 S4 1.475286 1_555
O39 Zn1 2.256245 1_445
O40 P9 1.532717 1_555
O40 Zn1 2.230102 1_455
O41 P8 1.515376 1_555
O41 Zn1 2.097761 1_555
O42 P4 1.596440 1_555
O42 Zr0 2.065965 1_655
O43 S2 1.494543 1_555
O43 Zr0 2.188128 1_555
O44 P5 1.584431 1_555
O44 Zr0 2.147456 1_665
O45 P6 1.584435 1_555
O45 Zr1 2.147456 1_665
O46 S3 1.494534 1_555
O46 Zr1 2.188128 1_655
O47 P7 1.596445 1_555
O47 Zr1 2.065965 1_555
O48 P3 1.515370 1_555
O48 Zn2 2.097761 1_555
O49 P2 1.532726 1_555
O49 Zn2 2.230102 1_555
O50 S1 1.475282 1_655
O50 Zn2 2.256245 1_555
O51 S0 1.475286 1_555
O51 Zn3 2.256245 1_555
O52 P1 1.532717 1_555
O52 Zn3 2.230102 1_555
O53 P0 1.515376 1_555
O53 Zn3 2.097761 1_555
O54 P8 1.596452 1_555
O54 Zr2 2.065965 1_555
O55 S4 1.494529 1_655
O55 Zr2 2.188128 1_555
O56 P9 1.584429 1_545
O56 Zr2 2.147456 1_555
O57 P10 1.584422 1_545
O57 Zr3 2.147456 1_555
O58 S5 1.494547 1_555
O58 Zr3 2.188128 1_555
O59 P11 1.596443 1_655
O59 Zr3 2.065965 1_555
O60 P7 1.515382 1_555
O60 Zn4 2.097761 1_555
O61 P6 1.532712 1_455
O61 Zn4 2.230102 1_555
O62 S3 1.475279 1_565
O62 Zn4 2.256245 1_555
O63 S2 1.475271 1_565
O63 Zn5 2.256245 1_555
O64 P5 1.532729 1_555
O64 Zn5 2.230102 1_555
O65 P4 1.515371 1_455
O65 Zn5 2.097761 1_555
O66 P0 1.596440 1_565
O66 Zr4 2.065965 1_555
O67 S0 1.494543 1_555
O67 Zr4 2.188128 1_555
O68 P1 1.584431 1_455
O68 Zr4 2.147456 1_555
O69 P2 1.584435 1_555
O69 Zr5 2.147456 1_555
O70 S1 1.494534 1_555
O70 Zr5 2.188128 1_555
O71 P3 1.596445 1_565
O71 Zr5 2.065965 1_555
