# generated using pymatgen
data_MgV(SbO3)4
_symmetry_space_group_name_H-M   'P 1'
_cell_length_a   5.70641074
_cell_length_b   11.22136800
_cell_length_c   9.91611585
_cell_angle_alpha   27.88502925
_cell_angle_beta   50.59828741
_cell_angle_gamma   56.38384113
_symmetry_Int_Tables_number   1
_chemical_formula_structural   MgV(SbO3)4
_chemical_formula_sum   'Mg1 V1 Sb4 O12'
_cell_volume   229.42683061
_cell_formula_units_Z   1
loop_
 _symmetry_equiv_pos_site_id
 _symmetry_equiv_pos_as_xyz
  1  'x, y, z'
loop_
 _atom_site_type_symbol
 _atom_site_label
 _atom_site_symmetry_multiplicity
 _atom_site_fract_x
 _atom_site_fract_y
 _atom_site_fract_z
 _atom_site_occupancy
  Mg  Mg0  1  0.15508200  0.49163800  0.22095700  1
  V  V0  1  0.31660700  0.01163500  0.27013500  1
  Sb  Sb0  1  0.01529100  0.99832100  0.98029100  1
  Sb  Sb1  1  0.95768400  0.49682400  0.99686300  1
  Sb  Sb2  1  0.51071000  0.98943700  0.49495100  1
  Sb  Sb3  1  0.46207500  0.51209700  0.47951000  1
  O  O0  1  0.32313600  0.27704500  0.14921600  1
  O  O1  1  0.25408300  0.13629800  0.59317700  1
  O  O2  1  0.11429900  0.31704200  0.72527900  1
  O  O3  1  0.89253500  0.17283500  0.23379300  1
  O  O4  1  0.36623100  0.81269100  0.10319200  1
  O  O5  1  0.77507300  0.39475900  0.34480000  1
  O  O6  1  0.20586200  0.65937600  0.58399900  1
  O  O7  1  0.58962300  0.19493700  0.86857600  1
  O  O8  1  0.14218900  0.80160800  0.72161200  1
  O  O9  1  0.85478800  0.69858300  0.22372900  1
  O  O10  1  0.70328900  0.89061900  0.34100000  1
  O  O11  1  0.57550300  0.65615500  0.90322500  1
loop_
_geom_bond_atom_site_label_1
_geom_bond_atom_site_label_2
_geom_bond_distance
_geom_bond_site_symmetry_2
Mg0 O9 1.994176 1_455
Mg0 O1 1.994410 1_555
Mg0 O11 2.028886 1_554
Mg0 O5 2.064405 1_455
Mg0 O8 2.520847 1_554
Mg0 O0 2.613351 1_555
O0 V0 2.015550 1_555
O0 Sb1 2.105244 1_454
O0 Sb2 2.142234 1_545
O1 Sb2 2.040513 1_545
O1 Sb0 2.044115 1_545
O2 Sb3 1.976992 1_555
O2 Sb0 1.985162 1_545
O3 Sb2 2.017292 1_545
O3 Sb1 2.040524 1_554
O3 V0 2.089467 1_655
O4 Sb0 1.956135 1_554
O4 Sb3 1.974578 1_555
O5 Sb1 2.018220 1_554
O5 Sb3 2.045621 1_555
O6 V0 2.057127 1_565
O6 Sb3 2.090690 1_555
O6 Sb1 2.095769 1_455
O7 V0 1.925506 1_556
O7 Sb3 2.122354 1_555
O7 Sb0 2.270817 1_645
O8 Sb1 2.022927 1_455
O8 Sb2 2.109348 1_555
O8 V0 2.208225 1_565
O9 Sb0 2.056726 1_654
O9 Sb3 2.104325 1_555
O10 Sb0 2.020007 1_654
O10 V0 2.042190 1_565
O10 Sb2 2.069108 1_555
O11 Sb2 2.029099 1_555
O11 Sb1 2.033136 1_555
