# generated using pymatgen
data_MgVMoO5
_symmetry_space_group_name_H-M   'P 1'
_cell_length_a   3.87801215
_cell_length_b   5.36797193
_cell_length_c   5.59527752
_cell_angle_alpha   86.73051177
_cell_angle_beta   110.27187280
_cell_angle_gamma   68.83328036
_symmetry_Int_Tables_number   1
_chemical_formula_structural   MgVMoO5
_chemical_formula_sum   'Mg1 V1 Mo1 O5'
_cell_volume   99.65790199
_cell_formula_units_Z   1
loop_
 _symmetry_equiv_pos_site_id
 _symmetry_equiv_pos_as_xyz
  1  'x, y, z'
loop_
 _atom_site_type_symbol
 _atom_site_label
 _atom_site_symmetry_multiplicity
 _atom_site_fract_x
 _atom_site_fract_y
 _atom_site_fract_z
 _atom_site_occupancy
  Mg  Mg0  1  0.69266235  0.14213301  0.38325812  1
  V  V0  1  0.85955696  0.62772963  0.20251380  1
  Mo  Mo0  1  0.28484041  0.38216241  0.80743163  1
  O  O0  1  0.95695139  0.74025922  0.50938774  1
  O  O1  1  0.37869271  0.54588168  0.15880772  1
  O  O2  1  0.58165754  0.01279724  0.03167768  1
  O  O3  1  0.17256482  0.24864626  0.44950501  1
  O  O4  1  0.76950181  0.46289155  0.85741829  1
loop_
_geom_bond_atom_site_label_1
_geom_bond_atom_site_label_2
_geom_bond_distance
_geom_bond_site_symmetry_2
Mg0 O0 1.982584 1_545
Mg0 O3 2.059563 1_555
Mg0 O3 2.059726 1_655
Mg0 O2 2.078934 1_555
Mg0 O1 2.116875 1_555
Mo0 O2 1.974282 1_556
Mo0 O4 2.008906 1_455
Mo0 O4 2.009074 1_555
Mo0 O0 2.119606 1_455
Mo0 O3 2.121060 1_555
Mo0 O1 2.168501 1_556
O0 V0 1.813686 1_555
O1 V0 2.004554 1_555
O1 V0 2.005122 1_455
O2 V0 1.949312 1_545
O3 V0 2.063286 1_455
O4 V0 2.141046 1_556
