# generated using pymatgen
data_Na3MgGe(PO4)3
_symmetry_space_group_name_H-M   'P 1'
_cell_length_a   15.21251557
_cell_length_b   8.77838083
_cell_length_c   8.72421030
_cell_angle_alpha   90.00000000
_cell_angle_beta   125.04815778
_cell_angle_gamma   90.00000000
_symmetry_Int_Tables_number   1
_chemical_formula_structural   Na3MgGe(PO4)3
_chemical_formula_sum   'Na12 Mg4 Ge4 P12 O48'
_cell_volume   953.78452822
_cell_formula_units_Z   4
loop_
 _symmetry_equiv_pos_site_id
 _symmetry_equiv_pos_as_xyz
  1  'x, y, z'
loop_
 _atom_site_type_symbol
 _atom_site_label
 _atom_site_symmetry_multiplicity
 _atom_site_fract_x
 _atom_site_fract_y
 _atom_site_fract_z
 _atom_site_occupancy
  Na  Na0  1  0.25065460  0.72989508  0.98952305  1
  Na  Na1  1  0.75065460  0.77010492  0.48952305  1
  Na  Na2  1  0.75065460  0.22989508  0.98952305  1
  Na  Na3  1  0.25065460  0.27010492  0.48952305  1
  Na  Na4  1  0.50368008  0.10688510  0.74987357  1
  Na  Na5  1  0.50368008  0.89311490  0.24987357  1
  Na  Na6  1  0.00368008  0.60688510  0.74987357  1
  Na  Na7  1  0.00368008  0.39311490  0.24987357  1
  Na  Na8  1  0.18277984  0.93950188  0.28568964  1
  Na  Na9  1  0.18277984  0.06049812  0.78568964  1
  Na  Na10  1  0.68277984  0.43950188  0.28568964  1
  Na  Na11  1  0.68277984  0.56049812  0.78568964  1
  Mg  Mg0  1  0.10407643  0.74927234  0.56439776  1
  Mg  Mg1  1  0.10407643  0.25072766  0.06439776  1
  Mg  Mg2  1  0.60407643  0.24927234  0.56439776  1
  Mg  Mg3  1  0.60407643  0.75072766  0.06439776  1
  Ge  Ge0  1  0.89656736  0.75708449  0.94210299  1
  Ge  Ge1  1  0.89656736  0.24291551  0.44210299  1
  Ge  Ge2  1  0.39656736  0.25708449  0.94210299  1
  Ge  Ge3  1  0.39656736  0.74291551  0.44210299  1
  P  P0  1  0.99481711  0.95771106  0.75675585  1
  P  P1  1  0.99481711  0.04228894  0.25675585  1
  P  P2  1  0.49481711  0.45771106  0.75675585  1
  P  P3  1  0.49481711  0.54228894  0.25675585  1
  P  P4  1  0.35644873  0.90121066  0.76065806  1
  P  P5  1  0.64884525  0.88814402  0.75065635  1
  P  P6  1  0.64884525  0.11185598  0.25065635  1
  P  P7  1  0.35644873  0.09878934  0.26065806  1
  P  P8  1  0.85644873  0.40121066  0.76065806  1
  P  P9  1  0.14884525  0.38814402  0.75065635  1
  P  P10  1  0.14884525  0.61185598  0.25065635  1
  P  P11  1  0.85644873  0.59878934  0.26065806  1
  O  O0  1  0.15510435  0.55999839  0.73920196  1
  O  O1  1  0.85081070  0.58340533  0.75897512  1
  O  O2  1  0.85081070  0.41659467  0.25897512  1
  O  O3  1  0.15510435  0.44000161  0.23920196  1
  O  O4  1  0.65510435  0.05999839  0.73920196  1
  O  O5  1  0.35081070  0.08340533  0.75897512  1
  O  O6  1  0.35081070  0.91659467  0.25897512  1
  O  O7  1  0.65510435  0.94000161  0.23920196  1
  O  O8  1  0.42440152  0.56007614  0.57561779  1
  O  O9  1  0.56336066  0.55097519  0.93192697  1
  O  O10  1  0.56336066  0.44902481  0.43192697  1
  O  O11  1  0.42440152  0.43992386  0.07561779  1
  O  O12  1  0.92440152  0.06007614  0.57561779  1
  O  O13  1  0.06336066  0.05097519  0.93192697  1
  O  O14  1  0.06336066  0.94902481  0.43192697  1
  O  O15  1  0.92440152  0.93992386  0.07561779  1
  O  O16  1  0.25729841  0.84227562  0.74431990  1
  O  O17  1  0.74378387  0.80572172  0.75808099  1
  O  O18  1  0.74378387  0.19427828  0.25808099  1
  O  O19  1  0.25729841  0.15772438  0.24431990  1
  O  O20  1  0.75729841  0.34227562  0.74431990  1
  O  O21  1  0.24378387  0.30572172  0.75808099  1
  O  O22  1  0.24378387  0.69427828  0.25808099  1
  O  O23  1  0.75729841  0.65772438  0.24431990  1
  O  O24  1  0.35602599  0.87080065  0.57857333  1
  O  O25  1  0.64798474  0.84330996  0.91533640  1
  O  O26  1  0.64798474  0.15669004  0.41533640  1
  O  O27  1  0.35602599  0.12919935  0.07857333  1
  O  O28  1  0.85602599  0.37080065  0.57857333  1
  O  O29  1  0.14798474  0.34330996  0.91533640  1
  O  O30  1  0.14798474  0.65669004  0.41533640  1
  O  O31  1  0.85602599  0.62919935  0.07857333  1
  O  O32  1  0.45854631  0.84731728  0.93576573  1
  O  O33  1  0.54487035  0.81779211  0.56238395  1
  O  O34  1  0.54487035  0.18220789  0.06238395  1
  O  O35  1  0.45854631  0.15268272  0.43576573  1
  O  O36  1  0.95854631  0.34731728  0.93576573  1
  O  O37  1  0.04487035  0.31779211  0.56238395  1
  O  O38  1  0.04487035  0.68220789  0.06238395  1
  O  O39  1  0.95854631  0.65268272  0.43576573  1
  O  O40  1  0.06961472  0.85024832  0.74210552  1
  O  O41  1  0.91032896  0.85454426  0.75805506  1
  O  O42  1  0.91032896  0.14545574  0.25805506  1
  O  O43  1  0.06961472  0.14975168  0.24210552  1
  O  O44  1  0.56961472  0.35024832  0.74210552  1
  O  O45  1  0.41032896  0.35454426  0.75805506  1
  O  O46  1  0.41032896  0.64545574  0.25805506  1
  O  O47  1  0.56961472  0.64975168  0.24210552  1
loop_
_geom_bond_atom_site_label_1
_geom_bond_atom_site_label_2
_geom_bond_distance
_geom_bond_site_symmetry_2
Na0 O46 2.324279 1_556
Na0 O0 2.336778 1_555
Na0 O16 2.409969 1_555
Na0 O22 2.424744 1_556
Na0 O6 2.533751 1_556
Na0 O40 2.555904 1_555
Na1 O41 2.324279 1_555
Na1 O7 2.336778 1_555
Na1 O23 2.409969 1_555
Na1 O17 2.424744 1_555
Na1 O1 2.533751 1_555
Na1 O47 2.555904 1_555
Na2 O42 2.324279 1_556
Na2 O4 2.336778 1_555
Na2 O20 2.409969 1_555
Na2 O18 2.424744 1_556
Na2 O2 2.533751 1_556
Na2 O44 2.555904 1_555
Na3 O45 2.324279 1_555
Na3 O3 2.336778 1_555
Na3 O19 2.409969 1_555
Na3 O21 2.424744 1_555
Na3 O5 2.533751 1_555
Na3 O43 2.555904 1_555
Na4 O44 2.377533 1_555
Na4 O5 2.380956 1_555
Na4 O4 2.393889 1_555
Na4 O35 2.445720 1_555
Na4 O34 2.510179 1_556
Na4 O45 2.620055 1_555
Na4 O24 2.778193 1_545
Na4 O25 2.935435 1_545
Na5 O47 2.377533 1_555
Na5 O6 2.380956 1_555
Na5 O7 2.393889 1_555
Na5 O32 2.445720 1_554
Na5 O33 2.510179 1_555
Na5 O46 2.620055 1_555
Na5 O27 2.778193 1_565
Na5 O26 2.935435 1_565
Na6 O40 2.377533 1_555
Na6 O1 2.380956 1_455
Na6 O0 2.393889 1_555
Na6 O39 2.445720 1_455
Na6 O38 2.510179 1_556
Na6 O41 2.620055 1_455
Na6 O28 2.778193 1_455
Na6 O29 2.935435 1_555
Na7 O43 2.377533 1_555
Na7 O2 2.380956 1_455
Na7 O3 2.393889 1_555
Na7 O36 2.445720 1_454
Na7 O37 2.510179 1_555
Na7 O42 2.620055 1_455
Na7 O31 2.778193 1_455
Na7 O30 2.935435 1_555
Na8 O19 2.356891 1_565
Na8 O43 2.400594 1_565
Na8 O22 2.410383 1_555
Na8 O24 2.470655 1_555
Na8 O6 2.704257 1_555
Na8 O13 2.709898 1_564
Na8 O14 2.756248 1_555
Na8 O30 2.900097 1_555
Na8 O38 2.933243 1_555
Na9 O16 2.356891 1_545
Na9 O40 2.400594 1_545
Na9 O21 2.410383 1_555
Na9 O27 2.470655 1_556
Na9 O5 2.704257 1_555
Na9 O14 2.709898 1_545
Na9 O13 2.756248 1_555
Na9 O29 2.900097 1_555
Na9 O37 2.933243 1_555
Na10 O23 2.356891 1_555
Na10 O47 2.400594 1_555
Na10 O18 2.410383 1_555
Na10 O28 2.470655 1_555
Na10 O2 2.704257 1_555
Na10 O9 2.709898 1_554
Na10 O10 2.756248 1_555
Na10 O26 2.900097 1_555
Na10 O34 2.933243 1_555
Na11 O20 2.356891 1_555
Na11 O44 2.400594 1_555
Na11 O17 2.410383 1_555
Na11 O31 2.470655 1_556
Na11 O1 2.704257 1_555
Na11 O10 2.709898 1_555
Na11 O9 2.756248 1_555
Na11 O25 2.900097 1_555
Na11 O33 2.933243 1_555
Mg0 O30 1.948202 1_555
Mg0 O14 1.992966 1_555
Mg0 O39 2.006515 1_455
Mg0 O0 2.080693 1_555
Mg0 O16 2.088373 1_555
Mg0 O40 2.097061 1_555
Mg1 O29 1.948202 1_554
Mg1 O13 1.992966 1_554
Mg1 O36 2.006515 1_454
Mg1 O3 2.080693 1_555
Mg1 O19 2.088373 1_555
Mg1 O43 2.097061 1_555
Mg2 O26 1.948202 1_555
Mg2 O10 1.992966 1_555
Mg2 O35 2.006515 1_555
Mg2 O4 2.080693 1_555
Mg2 O20 2.088373 1_555
Mg2 O44 2.097061 1_555
Mg3 O25 1.948202 1_554
Mg3 O9 1.992966 1_554
Mg3 O32 2.006515 1_554
Mg3 O7 2.080693 1_555
Mg3 O23 2.088373 1_555
Mg3 O47 2.097061 1_555
Ge0 O15 1.883013 1_556
Ge0 O41 1.933916 1_555
Ge0 O17 1.968786 1_555
Ge0 O31 1.975225 1_556
Ge0 O38 1.975843 1_656
Ge0 O1 2.020942 1_555
Ge1 O12 1.883013 1_555
Ge1 O42 1.933916 1_555
Ge1 O18 1.968786 1_555
Ge1 O28 1.975225 1_555
Ge1 O37 1.975843 1_655
Ge1 O2 2.020942 1_555
Ge2 O11 1.883013 1_556
Ge2 O45 1.933916 1_555
Ge2 O21 1.968786 1_555
Ge2 O27 1.975225 1_556
Ge2 O34 1.975843 1_556
Ge2 O5 2.020942 1_555
Ge3 O8 1.883013 1_555
Ge3 O46 1.933916 1_555
Ge3 O22 1.968786 1_555
Ge3 O24 1.975225 1_555
Ge3 O33 1.975843 1_555
Ge3 O6 2.020942 1_555
O0 P9 1.518507 1_555
O1 P8 1.601288 1_555
O2 P11 1.601288 1_555
O3 P10 1.518507 1_555
O4 P5 1.518507 1_545
O5 P4 1.601288 1_545
O6 P7 1.601288 1_565
O7 P6 1.518507 1_565
O8 P2 1.583673 1_555
O9 P2 1.504272 1_555
O10 P3 1.504272 1_555
O11 P3 1.583673 1_555
O12 P0 1.583673 1_545
O13 P0 1.504272 1_445
O14 P1 1.504272 1_465
O15 P1 1.583673 1_565
O16 P4 1.521872 1_555
O17 P5 1.583075 1_555
O18 P6 1.583075 1_555
O19 P7 1.521872 1_555
O20 P8 1.521872 1_555
O21 P9 1.583075 1_555
O22 P10 1.583075 1_555
O23 P11 1.521872 1_555
O24 P4 1.607186 1_555
O25 P5 1.496926 1_555
O26 P6 1.496926 1_555
O27 P7 1.607186 1_555
O28 P8 1.607186 1_555
O29 P9 1.496926 1_555
O30 P10 1.496926 1_555
O31 P11 1.607186 1_555
O32 P4 1.498258 1_555
O33 P5 1.611594 1_555
O34 P6 1.611594 1_555
O35 P7 1.498258 1_555
O36 P8 1.498258 1_555
O37 P9 1.611594 1_555
O38 P10 1.611594 1_555
O39 P11 1.498258 1_555
O40 P0 1.538831 1_455
O41 P0 1.577649 1_555
O42 P1 1.577649 1_555
O43 P1 1.538831 1_455
O44 P2 1.538831 1_555
O45 P2 1.577649 1_555
O46 P3 1.577649 1_555
O47 P3 1.538831 1_555
