# generated using pymatgen
data_Na12Ca5Nb(PO4)9
_symmetry_space_group_name_H-M   'P 1'
_cell_length_a   9.42063671
_cell_length_b   9.42063637
_cell_length_c   22.88867273
_cell_angle_alpha   90.00000000
_cell_angle_beta   90.00000000
_cell_angle_gamma   120.00000124
_symmetry_Int_Tables_number   1
_chemical_formula_structural   Na12Ca5Nb(PO4)9
_chemical_formula_sum   'Na24 Ca10 Nb2 P18 O72'
_cell_volume   1759.18588809
_cell_formula_units_Z   2
loop_
 _symmetry_equiv_pos_site_id
 _symmetry_equiv_pos_as_xyz
  1  'x, y, z'
loop_
 _atom_site_type_symbol
 _atom_site_label
 _atom_site_symmetry_multiplicity
 _atom_site_fract_x
 _atom_site_fract_y
 _atom_site_fract_z
 _atom_site_occupancy
  Na  Na0  1  0.63466254  0.00001612  0.25036909  1
  Na  Na1  1  0.36535358  0.36533746  0.25036909  1
  Na  Na2  1  0.99998388  0.63464642  0.25036909  1
  Na  Na3  1  0.63466254  0.63464642  0.75036909  1
  Na  Na4  1  0.99998388  0.36533746  0.75036909  1
  Na  Na5  1  0.36535358  0.00001612  0.75036909  1
  Na  Na6  1  0.29515819  0.33688217  0.58679904  1
  Na  Na7  1  0.04172498  0.70484181  0.58679904  1
  Na  Na8  1  0.66311783  0.95827502  0.58679904  1
  Na  Na9  1  0.29515819  0.95827502  0.08679904  1
  Na  Na10  1  0.66311783  0.70484181  0.08679904  1
  Na  Na11  1  0.04172498  0.33688217  0.08679904  1
  Na  Na12  1  0.98378073  0.67945578  0.90591731  1
  Na  Na13  1  0.69567405  0.01621927  0.90591731  1
  Na  Na14  1  0.32054422  0.30432595  0.90591731  1
  Na  Na15  1  0.98378073  0.30432595  0.40591731  1
  Na  Na16  1  0.32054422  0.01621927  0.40591731  1
  Na  Na17  1  0.69567405  0.67945578  0.40591731  1
  Na  Na18  1  0.00000000  0.00000000  0.49919764  1
  Na  Na19  1  0.00000000  0.00000000  0.99919764  1
  Na  Na20  1  0.66666700  0.33333300  0.82066599  1
  Na  Na21  1  0.66666700  0.33333300  0.32066599  1
  Na  Na22  1  0.33333300  0.66666700  0.17652129  1
  Na  Na23  1  0.33333300  0.66666700  0.67652129  1
  Ca  Ca0  1  0.00000000  0.00000000  0.34564513  1
  Ca  Ca1  1  0.00000000  0.00000000  0.84564513  1
  Ca  Ca2  1  0.00000000  0.00000000  0.65075412  1
  Ca  Ca3  1  0.00000000  0.00000000  0.15075412  1
  Ca  Ca4  1  0.66666700  0.33333300  0.68262575  1
  Ca  Ca5  1  0.66666700  0.33333300  0.18262575  1
  Ca  Ca6  1  0.33333300  0.66666700  0.01340610  1
  Ca  Ca7  1  0.33333300  0.66666700  0.51340610  1
  Ca  Ca8  1  0.33333300  0.66666700  0.32206123  1
  Ca  Ca9  1  0.33333300  0.66666700  0.82206123  1
  Nb  Nb0  1  0.66666700  0.33333300  0.98417207  1
  Nb  Nb1  1  0.66666700  0.33333300  0.48417207  1
  P  P0  1  0.30592499  0.99648336  0.25005780  1
  P  P1  1  0.69055836  0.69407501  0.25005780  1
  P  P2  1  0.00351664  0.30944164  0.25005780  1
  P  P3  1  0.30592499  0.30944164  0.75005780  1
  P  P4  1  0.00351664  0.69407501  0.75005780  1
  P  P5  1  0.69055836  0.99648336  0.75005780  1
  P  P6  1  0.96103689  0.33237950  0.58225817  1
  P  P7  1  0.37134361  0.03896311  0.58225817  1
  P  P8  1  0.66762050  0.62865639  0.58225817  1
  P  P9  1  0.96103689  0.62865639  0.08225817  1
  P  P10  1  0.66762050  0.03896311  0.08225817  1
  P  P11  1  0.37134361  0.33237950  0.08225817  1
  P  P12  1  0.64173696  0.65901312  0.92050394  1
  P  P13  1  0.01727516  0.35826304  0.92050394  1
  P  P14  1  0.34098688  0.98272484  0.92050394  1
  P  P15  1  0.64173696  0.98272484  0.42050394  1
  P  P16  1  0.34098688  0.35826304  0.42050394  1
  P  P17  1  0.01727516  0.65901312  0.42050394  1
  O  O0  1  0.22022655  0.00925547  0.30578695  1
  O  O1  1  0.78902892  0.77977345  0.30578695  1
  O  O2  1  0.99074453  0.21097108  0.30578695  1
  O  O3  1  0.22022655  0.21097108  0.80578695  1
  O  O4  1  0.99074453  0.77977345  0.80578695  1
  O  O5  1  0.78902892  0.00925547  0.80578695  1
  O  O6  1  0.77655373  0.98233447  0.69430305  1
  O  O7  1  0.20578074  0.22344627  0.69430305  1
  O  O8  1  0.01766553  0.79421926  0.69430305  1
  O  O9  1  0.77655373  0.79421926  0.19430305  1
  O  O10  1  0.01766553  0.22344627  0.19430305  1
  O  O11  1  0.20578074  0.98233447  0.19430305  1
  O  O12  1  0.88563291  0.34945729  0.63857177  1
  O  O13  1  0.46382538  0.11436709  0.63857177  1
  O  O14  1  0.65054271  0.53617462  0.63857177  1
  O  O15  1  0.88563291  0.53617462  0.13857177  1
  O  O16  1  0.65054271  0.11436709  0.13857177  1
  O  O17  1  0.46382538  0.34945729  0.13857177  1
  O  O18  1  0.48589068  0.33006435  0.02958252  1
  O  O19  1  0.84417467  0.51410932  0.02958252  1
  O  O20  1  0.66993565  0.15582533  0.02958252  1
  O  O21  1  0.48589068  0.15582533  0.52958252  1
  O  O22  1  0.66993565  0.51410932  0.52958252  1
  O  O23  1  0.84417467  0.33006435  0.52958252  1
  O  O24  1  0.56180142  0.68477072  0.97456713  1
  O  O25  1  0.12296830  0.43819858  0.97456713  1
  O  O26  1  0.31522928  0.87703170  0.97456713  1
  O  O27  1  0.56180142  0.87703170  0.47456713  1
  O  O28  1  0.31522928  0.43819858  0.47456713  1
  O  O29  1  0.12296830  0.68477072  0.47456713  1
  O  O30  1  0.08630279  0.61856282  0.36603393  1
  O  O31  1  0.53225904  0.91369721  0.36603393  1
  O  O32  1  0.38143718  0.46774096  0.36603393  1
  O  O33  1  0.08630279  0.46774096  0.86603393  1
  O  O34  1  0.38143718  0.91369721  0.86603393  1
  O  O35  1  0.53225904  0.61856282  0.86603393  1
  O  O36  1  0.98781740  0.80490199  0.41455415  1
  O  O37  1  0.81708459  0.01218260  0.41455415  1
  O  O38  1  0.19509801  0.18291541  0.41455415  1
  O  O39  1  0.98781740  0.18291541  0.91455415  1
  O  O40  1  0.19509801  0.01218260  0.91455415  1
  O  O41  1  0.81708459  0.80490199  0.91455415  1
  O  O42  1  0.96220973  0.16981381  0.57632243  1
  O  O43  1  0.20760407  0.03779027  0.57632243  1
  O  O44  1  0.83018619  0.79239593  0.57632243  1
  O  O45  1  0.96220973  0.79239593  0.07632243  1
  O  O46  1  0.83018619  0.03779027  0.07632243  1
  O  O47  1  0.20760407  0.16981381  0.07632243  1
  O  O48  1  0.67261612  0.15205754  0.74941542  1
  O  O49  1  0.47944242  0.32738388  0.74941542  1
  O  O50  1  0.84794246  0.52055758  0.74941542  1
  O  O51  1  0.67261612  0.52055758  0.24941542  1
  O  O52  1  0.84794246  0.32738388  0.24941542  1
  O  O53  1  0.47944242  0.15205754  0.24941542  1
  O  O54  1  0.66049276  0.49914245  0.92887909  1
  O  O55  1  0.83865069  0.33950724  0.92887909  1
  O  O56  1  0.50085755  0.16134931  0.92887909  1
  O  O57  1  0.66049276  0.16134931  0.42887909  1
  O  O58  1  0.50085755  0.33950724  0.42887909  1
  O  O59  1  0.83865069  0.49914245  0.42887909  1
  O  O60  1  0.35014459  0.48310329  0.07561506  1
  O  O61  1  0.13295770  0.64985541  0.07561506  1
  O  O62  1  0.51689671  0.86704230  0.07561506  1
  O  O63  1  0.35014459  0.86704230  0.57561506  1
  O  O64  1  0.51689671  0.64985541  0.57561506  1
  O  O65  1  0.13295770  0.48310329  0.57561506  1
  O  O66  1  0.32325742  0.84053584  0.25211338  1
  O  O67  1  0.51727741  0.67674258  0.25211338  1
  O  O68  1  0.15946416  0.48272259  0.25211338  1
  O  O69  1  0.32325742  0.48272259  0.75211338  1
  O  O70  1  0.15946416  0.67674258  0.75211338  1
  O  O71  1  0.51727741  0.84053584  0.75211338  1
loop_
_geom_bond_atom_site_label_1
_geom_bond_atom_site_label_2
_geom_bond_distance
_geom_bond_site_symmetry_2
Na0 O53 2.506936 1_555
Na0 O66 2.541165 1_545
Na0 O67 2.670472 1_545
Na0 O52 2.711481 1_555
Na0 O16 2.751297 1_555
Na0 O31 2.795755 1_545
Na1 O51 2.506944 1_555
Na1 O67 2.541165 1_555
Na1 O68 2.670481 1_555
Na1 O53 2.711488 1_555
Na1 O17 2.751301 1_555
Na1 O32 2.795756 1_555
Na2 O52 2.506944 1_555
Na2 O68 2.541157 1_655
Na2 O66 2.670474 1_655
Na2 O51 2.711479 1_555
Na2 O15 2.751299 1_555
Na2 O30 2.795753 1_655
Na3 O49 2.506944 1_555
Na3 O69 2.541165 1_555
Na3 O71 2.670481 1_555
Na3 O50 2.711488 1_555
Na3 O14 2.751301 1_555
Na3 O35 2.795756 1_555
Na4 O50 2.506936 1_555
Na4 O70 2.541165 1_655
Na4 O69 2.670472 1_655
Na4 O48 2.711481 1_555
Na4 O12 2.751297 1_555
Na4 O33 2.795755 1_655
Na5 O48 2.506944 1_555
Na5 O71 2.541157 1_545
Na5 O70 2.670474 1_545
Na5 O49 2.711479 1_555
Na5 O13 2.751299 1_555
Na5 O34 2.795753 1_545
Na6 O43 2.520489 1_555
Na6 O65 2.530368 1_555
Na6 O64 2.638793 1_555
Na6 O7 2.646852 1_555
Na6 O28 2.713894 1_555
Na6 O42 2.726933 1_455
Na7 O44 2.520498 1_455
Na7 O63 2.530352 1_555
Na7 O65 2.638780 1_555
Na7 O8 2.646854 1_555
Na7 O29 2.713888 1_555
Na7 O43 2.726933 1_565
Na8 O42 2.520491 1_565
Na8 O64 2.530352 1_555
Na8 O63 2.638798 1_555
Na8 O6 2.646851 1_555
Na8 O27 2.713892 1_555
Na8 O44 2.726925 1_555
Na9 O47 2.520498 1_565
Na9 O61 2.530352 1_555
Na9 O62 2.638780 1_555
Na9 O11 2.646854 1_555
Na9 O26 2.713888 1_554
Na9 O45 2.726933 1_455
Na10 O45 2.520489 1_555
Na10 O62 2.530368 1_555
Na10 O60 2.638794 1_555
Na10 O9 2.646852 1_555
Na10 O24 2.713894 1_554
Na10 O46 2.726933 1_565
Na11 O46 2.520491 1_455
Na11 O60 2.530352 1_555
Na11 O61 2.638798 1_555
Na11 O10 2.646851 1_555
Na11 O25 2.713892 1_554
Na11 O47 2.726925 1_555
Na12 O41 2.399510 1_555
Na12 O4 2.467391 1_555
Na12 O54 2.695146 1_555
Na12 O40 2.754494 1_665
Na12 O33 2.769561 1_655
Na12 O55 2.832517 1_555
Na13 O39 2.399518 1_555
Na13 O5 2.467394 1_555
Na13 O55 2.695145 1_555
Na13 O41 2.754501 1_545
Na13 O34 2.769561 1_545
Na13 O56 2.832500 1_555
Na14 O40 2.399519 1_555
Na14 O3 2.467392 1_555
Na14 O56 2.695161 1_555
Na14 O39 2.754493 1_455
Na14 O35 2.769561 1_555
Na14 O54 2.832516 1_555
Na15 O37 2.399518 1_555
Na15 O2 2.467394 1_555
Na15 O57 2.695145 1_555
Na15 O38 2.754501 1_655
Na15 O30 2.769561 1_655
Na15 O59 2.832500 1_555
Na16 O38 2.399510 1_555
Na16 O0 2.467391 1_555
Na16 O58 2.695146 1_555
Na16 O36 2.754494 1_445
Na16 O31 2.769561 1_545
Na16 O57 2.832517 1_555
Na17 O36 2.399519 1_555
Na17 O1 2.467392 1_555
Na17 O59 2.695161 1_555
Na17 O37 2.754492 1_565
Na17 O32 2.769561 1_555
Na17 O58 2.832516 1_555
Na18 O44 2.524224 1_445
Na18 O43 2.524224 1_555
Na18 O42 2.524224 1_455
Na18 O36 2.633195 1_445
Na18 O38 2.633195 1_555
Na18 O37 2.633195 1_455
Na19 O45 2.524224 1_446
Na19 O47 2.524224 1_556
Na19 O46 2.524225 1_456
Na19 O41 2.633195 1_445
Na19 O39 2.633195 1_455
Na19 O40 2.633195 1_555
Na20 O50 2.382184 1_555
Na20 O48 2.382184 1_555
Na20 O49 2.382184 1_555
Na20 O56 2.944314 1_555
Na20 O54 2.944314 1_555
Na20 O55 2.944314 1_555
Na21 O51 2.382184 1_555
Na21 O53 2.382184 1_555
Na21 O52 2.382184 1_555
Na21 O57 2.944314 1_555
Na21 O59 2.944314 1_555
Na21 O58 2.944314 1_555
Na22 O68 2.416812 1_555
Na22 O67 2.416812 1_555
Na22 O66 2.416812 1_555
Na22 O62 2.936612 1_555
Na22 O60 2.936612 1_555
Na22 O61 2.936612 1_555
Na23 O69 2.416812 1_555
Na23 O71 2.416812 1_555
Na23 O70 2.416812 1_555
Na23 O63 2.936612 1_555
Na23 O65 2.936612 1_555
Na23 O64 2.936612 1_555
Ca0 O1 2.227840 1_445
Ca0 O2 2.227840 1_455
Ca0 O0 2.227840 1_555
Ca0 O36 2.380747 1_445
Ca0 O38 2.380747 1_555
Ca0 O37 2.380748 1_455
Ca1 O4 2.227840 1_445
Ca1 O3 2.227840 1_555
Ca1 O5 2.227840 1_455
Ca1 O41 2.380747 1_445
Ca1 O39 2.380747 1_455
Ca1 O40 2.380748 1_555
Ca2 O7 2.258760 1_555
Ca2 O8 2.258760 1_545
Ca2 O6 2.258760 1_445
Ca2 O44 2.481507 1_445
Ca2 O43 2.481507 1_555
Ca2 O42 2.481507 1_455
Ca3 O10 2.258760 1_555
Ca3 O9 2.258760 1_445
Ca3 O11 2.258760 1_545
Ca3 O45 2.481507 1_445
Ca3 O47 2.481507 1_555
Ca3 O46 2.481508 1_455
Ca4 O13 2.231953 1_555
Ca4 O14 2.231953 1_555
Ca4 O12 2.231953 1_555
Ca4 O50 2.313482 1_555
Ca4 O48 2.313482 1_555
Ca4 O49 2.313482 1_555
Ca5 O16 2.231953 1_555
Ca5 O15 2.231953 1_555
Ca5 O17 2.231953 1_555
Ca5 O51 2.313482 1_555
Ca5 O53 2.313482 1_555
Ca5 O52 2.313482 1_555
Ca6 O25 2.254940 1_554
Ca6 O26 2.254940 1_554
Ca6 O24 2.254941 1_554
Ca6 O62 2.305825 1_555
Ca6 O60 2.305825 1_555
Ca6 O61 2.305825 1_555
Ca7 O28 2.254940 1_555
Ca7 O27 2.254940 1_555
Ca7 O29 2.254941 1_555
Ca7 O63 2.305825 1_555
Ca7 O65 2.305825 1_555
Ca7 O64 2.305825 1_555
Ca8 O68 2.326074 1_555
Ca8 O67 2.326074 1_555
Ca8 O66 2.326074 1_555
Ca8 O31 2.362101 1_555
Ca8 O30 2.362101 1_555
Ca8 O32 2.362101 1_555
Ca9 O69 2.326074 1_555
Ca9 O71 2.326074 1_555
Ca9 O70 2.326075 1_555
Ca9 O34 2.362101 1_555
Ca9 O33 2.362101 1_555
Ca9 O35 2.362101 1_555
Nb0 O19 1.982204 1_556
Nb0 O20 1.982204 1_556
Nb0 O18 1.982204 1_556
Nb0 O56 2.033686 1_555
Nb0 O54 2.033686 1_555
Nb0 O55 2.033686 1_555
Nb1 O22 1.982204 1_555
Nb1 O21 1.982204 1_555
Nb1 O23 1.982204 1_555
Nb1 O57 2.033686 1_555
Nb1 O59 2.033686 1_555
Nb1 O58 2.033686 1_555
O0 P0 1.546116 1_545
O1 P1 1.546116 1_555
O2 P2 1.546116 1_655
O3 P3 1.546116 1_555
O4 P4 1.546116 1_655
O5 P5 1.546116 1_545
O6 P5 1.552619 1_555
O7 P3 1.552619 1_555
O8 P4 1.552619 1_555
O9 P1 1.552619 1_555
O10 P2 1.552619 1_555
O11 P0 1.552619 1_555
O12 P6 1.518600 1_555
O13 P7 1.518600 1_555
O14 P8 1.518600 1_555
O15 P9 1.518600 1_555
O16 P10 1.518600 1_555
O17 P11 1.518600 1_555
O18 P11 1.625465 1_555
O19 P9 1.625465 1_555
O20 P10 1.625465 1_555
O21 P7 1.625465 1_555
O22 P8 1.625465 1_555
O23 P6 1.625465 1_555
O24 P12 1.529682 1_555
O25 P13 1.529682 1_555
O26 P14 1.529682 1_555
O27 P15 1.529682 1_555
O28 P16 1.529682 1_555
O29 P17 1.529682 1_555
O30 P17 1.539565 1_555
O31 P15 1.539565 1_555
O32 P16 1.539565 1_555
O33 P13 1.539565 1_555
O34 P14 1.539565 1_555
O35 P12 1.539565 1_555
O36 P17 1.538129 1_655
O37 P15 1.538139 1_545
O38 P16 1.538135 1_555
O39 P13 1.538138 1_655
O40 P14 1.538129 1_545
O41 P12 1.538135 1_555
O42 P6 1.543019 1_555
O43 P7 1.543029 1_555
O44 P8 1.543024 1_555
O45 P9 1.543029 1_555
O46 P10 1.543019 1_555
O47 P11 1.543024 1_555
O48 P5 1.557087 1_545
O49 P3 1.557097 1_555
O50 P4 1.557093 1_655
O51 P1 1.557097 1_555
O52 P2 1.557087 1_655
O53 P0 1.557093 1_545
O54 P12 1.613185 1_555
O55 P13 1.613167 1_655
O56 P14 1.613174 1_545
O57 P15 1.613167 1_545
O58 P16 1.613185 1_555
O59 P17 1.613174 1_655
O60 P11 1.537117 1_555
O61 P9 1.537098 1_455
O62 P10 1.537105 1_565
O63 P7 1.537098 1_565
O64 P8 1.537117 1_555
O65 P6 1.537105 1_455
O66 P0 1.557911 1_555
O67 P1 1.557920 1_555
O68 P2 1.557916 1_555
O69 P3 1.557920 1_555
O70 P4 1.557911 1_555
O71 P5 1.557916 1_555
