# generated using pymatgen
data_Pr2Mg(NiO3)2
_symmetry_space_group_name_H-M   'P 1'
_cell_length_a   6.57962679
_cell_length_b   5.74266274
_cell_length_c   5.51445883
_cell_angle_alpha   68.94068370
_cell_angle_beta   64.63853520
_cell_angle_gamma   49.82124034
_symmetry_Int_Tables_number   1
_chemical_formula_structural   Pr2Mg(NiO3)2
_chemical_formula_sum   'Pr2 Mg1 Ni2 O6'
_cell_volume   142.80980246
_cell_formula_units_Z   1
loop_
 _symmetry_equiv_pos_site_id
 _symmetry_equiv_pos_as_xyz
  1  'x, y, z'
loop_
 _atom_site_type_symbol
 _atom_site_label
 _atom_site_symmetry_multiplicity
 _atom_site_fract_x
 _atom_site_fract_y
 _atom_site_fract_z
 _atom_site_occupancy
  Pr  Pr0  1  0.81780185  0.78842686  0.73894431  1
  Pr  Pr1  1  0.19588567  0.18149366  0.25250070  1
  Mg  Mg0  1  0.50172472  0.49336432  0.99864674  1
  Ni  Ni0  1  0.50581628  0.49261963  0.49841270  1
  Ni  Ni1  1  0.00285714  0.99601970  0.99042935  1
  O  O0  1  0.19964893  0.68813619  0.34287557  1
  O  O1  1  0.77791043  0.41535921  0.14124970  1
  O  O2  1  0.35789061  0.96446670  0.85086824  1
  O  O3  1  0.81085828  0.31136483  0.65023559  1
  O  O4  1  0.65010219  0.02358006  0.13247377  1
  O  O5  1  0.22950390  0.57016883  0.85336332  1
loop_
_geom_bond_atom_site_label_1
_geom_bond_atom_site_label_2
_geom_bond_distance
_geom_bond_site_symmetry_2
Mg0 O5 2.000107 1_555
Mg0 O1 2.010446 1_556
Mg0 O0 2.056696 1_556
Mg0 O3 2.067168 1_555
Mg0 O4 2.136299 1_556
Mg0 O2 2.156703 1_555
Ni0 O1 1.965597 1_555
Ni0 O5 1.966754 1_555
Ni0 O0 1.980884 1_555
Ni0 O3 1.982469 1_555
Ni1 O4 2.020716 1_466
Ni1 O2 2.023839 1_555
Ni1 O5 2.105414 1_555
Ni1 O1 2.113573 1_466
Ni1 O3 2.243073 1_465
Ni1 O0 2.304822 1_556
O0 Pr0 2.397987 1_455
O0 Pr1 2.679783 1_565
O0 Pr1 3.140005 1_555
O1 Pr1 2.414659 1_655
O1 Pr0 2.528141 1_554
O2 Pr0 2.336873 1_555
O2 Pr1 2.417007 1_566
O3 Pr1 2.400479 1_655
O3 Pr0 2.836564 1_545
O3 Pr0 2.981712 1_555
O4 Pr1 2.330621 1_555
O4 Pr0 2.425403 1_544
O5 Pr0 2.412826 1_455
O5 Pr1 2.562178 1_556
