# generated using pymatgen
data_MgCu2(IrS2)4
_symmetry_space_group_name_H-M   'P 1'
_cell_length_a   7.16407900
_cell_length_b   7.41007100
_cell_length_c   7.20999441
_cell_angle_alpha   120.92228916
_cell_angle_beta   119.78956554
_cell_angle_gamma   90.00000000
_symmetry_Int_Tables_number   1
_chemical_formula_structural   MgCu2(IrS2)4
_chemical_formula_sum   'Mg1 Cu2 Ir4 S8'
_cell_volume   267.68210607
_cell_formula_units_Z   1
loop_
 _symmetry_equiv_pos_site_id
 _symmetry_equiv_pos_as_xyz
  1  'x, y, z'
loop_
 _atom_site_type_symbol
 _atom_site_label
 _atom_site_symmetry_multiplicity
 _atom_site_fract_x
 _atom_site_fract_y
 _atom_site_fract_z
 _atom_site_occupancy
  Mg  Mg0  1  0.53704000  0.03704000  0.07408100  1
  Cu  Cu0  1  0.79576000  0.29576000  0.59152100  1
  Cu  Cu1  1  0.98660700  0.98660700  0.97321300  1
  Ir  Ir0  1  0.86148700  0.60646100  0.21292300  1
  Ir  Ir1  1  0.35143600  0.60646100  0.21292300  1
  Ir  Ir2  1  0.35504700  0.59921900  0.71009400  1
  Ir  Ir3  1  0.35504700  0.11087500  0.71009400  1
  S  S0  1  0.11987400  0.84622400  0.69245000  1
  S  S1  1  0.57257500  0.84622400  0.69245000  1
  S  S2  1  0.15854000  0.37259900  0.74519700  1
  S  S3  1  0.58665700  0.37259900  0.74519700  1
  S  S4  1  0.11939400  0.39904500  0.23878700  1
  S  S5  1  0.11939400  0.83974200  0.23878700  1
  S  S6  1  0.60075600  0.40043300  0.20151200  1
  S  S7  1  0.60075600  0.80108000  0.20151200  1
loop_
_geom_bond_atom_site_label_1
_geom_bond_atom_site_label_2
_geom_bond_distance
_geom_bond_site_symmetry_2
Mg0 S7 2.311713 1_545
Mg0 S6 2.311727 1_555
Mg0 S0 2.516470 1_544
Mg0 S1 2.516470 1_544
Cu0 S3 2.190167 1_555
Cu0 S2 2.190173 1_655
Cu0 Mg0 2.609135 1_555
Cu0 S7 2.966238 1_545
Cu0 S6 2.966249 1_555
Cu1 S0 2.418177 1_655
Cu1 S1 2.418188 1_555
Cu1 S4 2.467269 1_666
Cu1 S5 2.467276 1_656
Ir0 S6 2.354735 1_555
Ir0 S7 2.354745 1_555
Ir0 S3 2.376649 1_554
Ir0 S4 2.400650 1_655
Ir0 S5 2.400655 1_655
Ir0 S0 2.421641 1_655
Ir1 S6 2.354735 1_555
Ir1 S7 2.354745 1_555
Ir1 S2 2.376649 1_554
Ir1 S4 2.400645 1_555
Ir1 S5 2.400650 1_555
Ir1 S1 2.421642 1_555
Ir2 S3 2.378386 1_555
Ir2 S2 2.378386 1_555
Ir2 S4 2.391013 1_555
Ir2 S1 2.496223 1_555
Ir2 S0 2.496228 1_555
Ir2 S7 2.499134 1_556
Ir2 Mg0 2.638606 1_566
Ir3 S3 2.378391 1_555
Ir3 S2 2.378391 1_555
Ir3 S5 2.391013 1_545
Ir3 S1 2.496235 1_545
Ir3 S0 2.496239 1_545
Ir3 S6 2.499135 1_556
Ir3 Mg0 2.638612 1_556
