# generated using pymatgen
data_MgZn(ReO4)2
_symmetry_space_group_name_H-M   'P 1'
_cell_length_a   5.81991000
_cell_length_b   5.81991021
_cell_length_c   5.77746600
_cell_angle_alpha   90.00000000
_cell_angle_beta   90.00000000
_cell_angle_gamma   120.00000183
_symmetry_Int_Tables_number   1
_chemical_formula_structural   MgZn(ReO4)2
_chemical_formula_sum   'Mg1 Zn1 Re2 O8'
_cell_volume   169.47302265
_cell_formula_units_Z   1
loop_
 _symmetry_equiv_pos_site_id
 _symmetry_equiv_pos_as_xyz
  1  'x, y, z'
loop_
 _atom_site_type_symbol
 _atom_site_label
 _atom_site_symmetry_multiplicity
 _atom_site_fract_x
 _atom_site_fract_y
 _atom_site_fract_z
 _atom_site_occupancy
  Mg  Mg0  1  0.00000000  0.00000000  0.50000000  1
  Zn  Zn0  1  0.00000000  0.00000000  0.00000000  1
  Re  Re0  1  0.33333300  0.66666700  0.31192000  1
  Re  Re1  1  0.66666700  0.33333300  0.68808000  1
  O  O0  1  0.66666700  0.33333300  0.38485400  1
  O  O1  1  0.33333300  0.66666700  0.61514600  1
  O  O2  1  0.84268300  0.15508700  0.75487900  1
  O  O3  1  0.15508700  0.31240500  0.24512100  1
  O  O4  1  0.68759500  0.84268300  0.24512100  1
  O  O5  1  0.15731700  0.84491300  0.24512100  1
  O  O6  1  0.84491300  0.68759500  0.75487900  1
  O  O7  1  0.31240500  0.15731700  0.75487900  1
loop_
_geom_bond_atom_site_label_1
_geom_bond_atom_site_label_2
_geom_bond_distance
_geom_bond_site_symmetry_2
Mg0 O5 2.155864 1_545
Mg0 O2 2.155864 1_455
Mg0 O7 2.155867 1_555
Mg0 O4 2.155867 1_445
Mg0 O3 2.155867 1_555
Mg0 O6 2.155867 1_445
O0 Re1 1.751878 1_555
O1 Re0 1.751878 1_555
O2 Re1 1.826791 1_555
O2 Zn0 2.117756 1_656
O3 Re0 1.826791 1_555
O3 Zn0 2.117760 1_555
O4 Re0 1.826791 1_555
O4 Zn0 2.117760 1_665
O5 Re0 1.826791 1_555
O5 Zn0 2.117756 1_565
O6 Re1 1.826791 1_555
O6 Zn0 2.117760 1_666
O7 Re1 1.826791 1_555
O7 Zn0 2.117760 1_556
