# generated using pymatgen
data_Ho(AlCl4)3
_symmetry_space_group_name_H-M   'P 1'
_cell_length_a   10.61770188
_cell_length_b   10.61916136
_cell_length_c   15.68970621
_cell_angle_alpha   90.02527642
_cell_angle_beta   89.98666927
_cell_angle_gamma   120.00303394
_symmetry_Int_Tables_number   1
_chemical_formula_structural   Ho(AlCl4)3
_chemical_formula_sum   'Ho3 Al9 Cl36'
_cell_volume   1531.97920454
_cell_formula_units_Z   3
loop_
 _symmetry_equiv_pos_site_id
 _symmetry_equiv_pos_as_xyz
  1  'x, y, z'
loop_
 _atom_site_type_symbol
 _atom_site_label
 _atom_site_symmetry_multiplicity
 _atom_site_fract_x
 _atom_site_fract_y
 _atom_site_fract_z
 _atom_site_occupancy
  Ho  Ho0  1  0.98976103  0.49487359  0.00000702  1
  Ho  Ho1  1  0.50511744  0.01041402  0.66670850  1
  Ho  Ho2  1  0.50512000  0.49471459  0.33328942  1
  Al  Al0  1  0.72997027  0.26986754  0.83346315  1
  Al  Al1  1  0.12764473  0.76352630  0.60286639  1
  Al  Al2  1  0.23687631  0.36447556  0.93591184  1
  Al  Al3  1  0.63558009  0.87227548  0.26945567  1
  Al  Al4  1  0.72997281  0.46013238  0.16653580  1
  Al  Al5  1  0.54011920  0.27005904  0.49999956  1
  Al  Al6  1  0.12763907  0.36413881  0.39713558  1
  Al  Al7  1  0.63560760  0.76333318  0.73053984  1
  Al  Al8  1  0.23687672  0.87240521  0.06408543  1
  Cl  Cl0  1  0.00447987  0.84079559  0.54257731  1
  Cl  Cl1  1  0.83619536  0.99545425  0.20919510  1
  Cl  Cl2  1  0.15930648  0.16395863  0.87549352  1
  Cl  Cl3  1  0.79124913  0.59058275  0.28022074  1
  Cl  Cl4  1  0.40931050  0.20066916  0.61346788  1
  Cl  Cl5  1  0.79936867  0.20845498  0.94686670  1
  Cl  Cl6  1  0.40932292  0.20864223  0.38652634  1
  Cl  Cl7  1  0.79937609  0.59091114  0.05314426  1
  Cl  Cl8  1  0.79125100  0.20066937  0.71978227  1
  Cl  Cl9  1  0.22377655  0.34259929  0.27713257  1
  Cl  Cl10  1  0.65718505  0.88099769  0.61061881  1
  Cl  Cl11  1  0.11904323  0.77630202  0.94413487  1
  Cl  Cl12  1  0.65718456  0.77619137  0.38937391  1
  Cl  Cl13  1  0.11904377  0.34274111  0.05586506  1
  Cl  Cl14  1  0.22377877  0.88118052  0.72286842  1
  Cl  Cl15  1  0.50467794  0.66108714  0.20299253  1
  Cl  Cl16  1  0.33868808  0.84356299  0.53637184  1
  Cl  Cl17  1  0.15653750  0.49530715  0.86958961  1
  Cl  Cl18  1  0.33869103  0.49513764  0.46362214  1
  Cl  Cl19  1  0.15653596  0.66122782  0.13040905  1
  Cl  Cl20  1  0.50470027  0.84360443  0.79700796  1
  Cl  Cl21  1  0.66625566  0.50032646  0.48328030  1
  Cl  Cl22  1  0.49975272  0.16605595  0.81666742  1
  Cl  Cl23  1  0.83422005  0.33408849  0.14975161  1
  Cl  Cl24  1  0.49975150  0.33369350  0.18333508  1
  Cl  Cl25  1  0.83421661  0.50012852  0.85025043  1
  Cl  Cl26  1  0.66625342  0.16591321  0.51672308  1
  Cl  Cl27  1  0.03091666  0.49154650  0.37594991  1
  Cl  Cl28  1  0.50782353  0.53910334  0.70960057  1
  Cl  Cl29  1  0.46104381  0.96899547  0.04282660  1
  Cl  Cl30  1  0.50781148  0.96870502  0.29038792  1
  Cl  Cl31  1  0.46103424  0.49201270  0.95716487  1
  Cl  Cl32  1  0.03090807  0.53936285  0.62407370  1
  Cl  Cl33  1  0.00449378  0.16366325  0.45743724  1
  Cl  Cl34  1  0.83619992  0.84074193  0.79079851  1
  Cl  Cl35  1  0.15933059  0.99536584  0.12449563  1
loop_
_geom_bond_atom_site_label_1
_geom_bond_atom_site_label_2
_geom_bond_distance
_geom_bond_site_symmetry_2
Al0 Cl22 2.136549 1_555
Al0 Cl25 2.136881 1_555
Al0 Cl5 2.148549 1_555
Al0 Cl8 2.149674 1_555
Al1 Cl0 2.086285 1_555
Al1 Cl32 2.094625 1_555
Al1 Cl14 2.207078 1_555
Al1 Cl16 2.219681 1_555
Al2 Cl2 2.087016 1_555
Al2 Cl31 2.094354 1_555
Al2 Cl13 2.207055 1_556
Al2 Cl17 2.219809 1_555
Al3 Cl1 2.087051 1_555
Al3 Cl30 2.094187 1_555
Al3 Cl12 2.206727 1_555
Al3 Cl15 2.220347 1_555
Al4 Cl24 2.136608 1_555
Al4 Cl23 2.137110 1_555
Al4 Cl7 2.148232 1_555
Al4 Cl3 2.149606 1_555
Al5 Cl21 2.137042 1_555
Al5 Cl26 2.137113 1_555
Al5 Cl4 2.148926 1_555
Al5 Cl6 2.148951 1_555
Al6 Cl33 2.086689 1_555
Al6 Cl27 2.094230 1_555
Al6 Cl9 2.207142 1_555
Al6 Cl18 2.219713 1_555
Al7 Cl34 2.086883 1_555
Al7 Cl28 2.094546 1_555
Al7 Cl10 2.206685 1_555
Al7 Cl20 2.220258 1_555
Al8 Cl35 2.086858 1_555
Al8 Cl29 2.094462 1_555
Al8 Cl11 2.207068 1_554
Al8 Cl19 2.219900 1_555
Cl3 Ho2 2.804600 1_555
Cl4 Ho1 2.805648 1_555
Cl5 Ho0 2.807500 1_556
Cl6 Ho2 2.805782 1_555
Cl7 Ho0 2.807420 1_555
Cl8 Ho1 2.804693 1_555
Cl9 Ho2 2.735557 1_555
Cl10 Ho1 2.736333 1_565
Cl11 Ho0 2.735529 1_456
Cl12 Ho2 2.736316 1_555
Cl13 Ho0 2.735297 1_455
Cl14 Ho1 2.735498 1_565
Cl15 Ho2 2.704091 1_555
Cl16 Ho1 2.703884 1_565
Cl17 Ho0 2.704226 1_456
Cl18 Ho2 2.703781 1_555
Cl19 Ho0 2.704136 1_455
Cl20 Ho1 2.704173 1_565
Cl21 Ho2 2.892847 1_555
Cl22 Ho1 2.891596 1_555
Cl23 Ho0 2.888644 1_555
Cl24 Ho2 2.891619 1_555
Cl25 Ho0 2.888863 1_556
Cl26 Ho1 2.892694 1_555
