# generated using pymatgen
data_MgZn2(WO4)2
_symmetry_space_group_name_H-M   'P 1'
_cell_length_a   4.95444848
_cell_length_b   5.03224445
_cell_length_c   7.77391816
_cell_angle_alpha   104.57026646
_cell_angle_beta   104.18958644
_cell_angle_gamma   103.09849446
_symmetry_Int_Tables_number   1
_chemical_formula_structural   MgZn2(WO4)2
_chemical_formula_sum   'Mg1 Zn2 W2 O8'
_cell_volume   173.06606998
_cell_formula_units_Z   1
loop_
 _symmetry_equiv_pos_site_id
 _symmetry_equiv_pos_as_xyz
  1  'x, y, z'
loop_
 _atom_site_type_symbol
 _atom_site_label
 _atom_site_symmetry_multiplicity
 _atom_site_fract_x
 _atom_site_fract_y
 _atom_site_fract_z
 _atom_site_occupancy
  Mg  Mg0  1  0.50765642  0.75727196  0.51506929  1
  Zn  Zn0  1  0.31925799  0.56922050  0.13865002  1
  Zn  Zn1  1  0.66396962  0.41375545  0.82759356  1
  W  W0  1  0.83396861  0.08385387  0.16797921  1
  W  W1  1  0.17853022  0.92843546  0.85683968  1
  O  O0  1  0.81631715  0.65100622  0.67887702  1
  O  O1  1  0.54183147  0.26111368  0.07888091  1
  O  O2  1  0.66668877  0.91379979  0.33213293  1
  O  O3  1  0.97699312  0.21594987  0.93383371  1
  O  O4  1  0.16550729  0.41795763  0.33212634  1
  O  O5  1  0.36306086  0.02768189  0.67894675  1
  O  O6  1  0.45693994  0.71757499  0.93386989  1
  O  O7  1  0.03705653  0.81738168  0.07877170  1
loop_
_geom_bond_atom_site_label_1
_geom_bond_atom_site_label_2
_geom_bond_distance
_geom_bond_site_symmetry_2
Mg0 O0 2.001179 1_555
Mg0 O5 2.001244 1_565
Mg0 O2 2.023705 1_555
Mg0 O4 2.023879 1_555
O0 W1 1.938812 1_655
O0 Zn1 2.011356 1_555
O1 W0 1.942910 1_555
O1 Zn0 2.121210 1_555
O1 W1 2.163120 1_544
O1 Zn1 2.428199 1_554
O2 W0 1.947861 1_565
O2 Zn0 2.073085 1_555
O3 W1 1.990155 1_645
O3 Zn0 2.111124 1_656
O3 Zn1 2.136231 1_555
O3 W0 2.298884 1_556
O4 W0 1.947922 1_455
O4 Zn0 2.072878 1_555
O5 W1 1.938599 1_545
O5 Zn1 2.011340 1_555
O6 W1 1.991312 1_555
O6 Zn0 2.111036 1_556
O6 Zn1 2.136099 1_555
O6 W0 2.298667 1_566
O7 W0 1.943519 1_465
O7 Zn0 2.120335 1_555
O7 W1 2.163478 1_554
O7 Zn1 2.426597 1_454
