# generated using pymatgen
data_CeSi
_symmetry_space_group_name_H-M   'P 1'
_cell_length_a   3.96364308
_cell_length_b   5.96541162
_cell_length_c   8.27128040
_cell_angle_alpha   89.99865271
_cell_angle_beta   89.99957685
_cell_angle_gamma   89.99997358
_symmetry_Int_Tables_number   1
_chemical_formula_structural   CeSi
_chemical_formula_sum   'Ce4 Si4'
_cell_volume   195.57246055
_cell_formula_units_Z   4
loop_
 _symmetry_equiv_pos_site_id
 _symmetry_equiv_pos_as_xyz
  1  'x, y, z'
loop_
 _atom_site_type_symbol
 _atom_site_label
 _atom_site_symmetry_multiplicity
 _atom_site_fract_x
 _atom_site_fract_y
 _atom_site_fract_z
 _atom_site_occupancy
  Ce  Ce0  1  0.25000000  0.38516745  0.67974238  1
  Ce  Ce1  1  0.75000000  0.61483313  0.32026039  1
  Ce  Ce2  1  0.75000000  0.88517645  0.82018143  1
  Ce  Ce3  1  0.25000000  0.11484185  0.17982038  1
  Si  Si0  1  0.25000000  0.88510555  0.53329536  1
  Si  Si1  1  0.75000000  0.11488763  0.46669782  1
  Si  Si2  1  0.75000000  0.38514345  0.96669110  1
  Si  Si3  1  0.24999900  0.61484349  0.03330914  1
loop_
_geom_bond_atom_site_label_1
_geom_bond_atom_site_label_2
_geom_bond_distance
_geom_bond_site_symmetry_2
Ce0 Si2 3.092043 1_455
Ce0 Si2 3.092066 1_555
Ce0 Si1 3.103624 1_555
Ce0 Si1 3.103642 1_455
Ce0 Si0 3.218916 1_555
Ce0 Si0 3.219653 1_545
Ce0 Si3 3.229520 1_556
Ce1 Si3 3.092057 1_655
Ce1 Si3 3.092085 1_555
Ce1 Si0 3.103556 1_555
Ce1 Si0 3.103574 1_655
Ce1 Si1 3.218927 1_555
Ce1 Si1 3.219582 1_565
Ce1 Si2 3.229574 1_554
Ce2 Si0 3.091646 1_655
Ce2 Si0 3.091668 1_555
Ce2 Si3 3.104140 1_556
Ce2 Si3 3.104150 1_656
Ce2 Si2 3.219323 1_565
Ce2 Si2 3.219635 1_555
Ce2 Si1 3.228928 1_565
Ce3 Si1 3.091591 1_455
Ce3 Si1 3.091613 1_555
Ce3 Si2 3.104047 1_554
Ce3 Si2 3.104063 1_454
Ce3 Si3 3.219467 1_555
Ce3 Si3 3.219502 1_545
Ce3 Si0 3.228927 1_545
Si0 Si1 2.471829 1_565
Si0 Si1 2.471835 1_465
Si2 Si3 2.471612 1_556
Si2 Si3 2.471614 1_656
