# generated using pymatgen
data_La(FeGe)2
_symmetry_space_group_name_H-M   'P 1'
_cell_length_a   4.08117324
_cell_length_b   4.08117366
_cell_length_c   6.19247569
_cell_angle_alpha   109.24006348
_cell_angle_beta   109.24005689
_cell_angle_gamma   89.99999713
_symmetry_Int_Tables_number   1
_chemical_formula_structural   La(FeGe)2
_chemical_formula_sum   'La1 Fe2 Ge2'
_cell_volume   91.25706821
_cell_formula_units_Z   1
loop_
 _symmetry_equiv_pos_site_id
 _symmetry_equiv_pos_as_xyz
  1  'x, y, z'
loop_
 _atom_site_type_symbol
 _atom_site_label
 _atom_site_symmetry_multiplicity
 _atom_site_fract_x
 _atom_site_fract_y
 _atom_site_fract_z
 _atom_site_occupancy
  La  La0  1  -0.00000000  -0.00000000  0.00000000  1
  Fe  Fe0  1  0.25000000  0.75000000  0.50000000  1
  Fe  Fe1  1  0.75000000  0.25000000  0.50000000  1
  Ge  Ge0  1  0.62101413  0.62101413  0.24202825  1
  Ge  Ge1  1  0.37898587  0.37898587  0.75797175  1
loop_
_geom_bond_atom_site_label_1
_geom_bond_atom_site_label_2
_geom_bond_distance
_geom_bond_site_symmetry_2
Fe0 Ge0 2.482282 1_455
Fe0 Ge0 2.482282 1_555
Fe0 Ge1 2.482282 1_565
Fe0 Ge1 2.482283 1_555
Fe0 La0 3.415946 1_555
Fe0 La0 3.415946 1_566
Fe0 La0 3.415946 1_666
Fe0 La0 3.415946 1_565
Fe1 Ge1 2.482282 1_655
Fe1 Ge1 2.482282 1_555
Fe1 Ge0 2.482282 1_545
Fe1 Ge0 2.482283 1_555
Fe1 La0 3.415946 1_666
Fe1 La0 3.415946 1_655
Fe1 La0 3.415946 1_555
Fe1 La0 3.415946 1_656
Ge0 Ge1 2.652116 1_554
Ge0 La0 3.175912 1_655
Ge0 La0 3.175912 1_565
Ge0 La0 3.175912 1_555
Ge0 La0 3.175912 1_665
Ge1 La0 3.175912 1_566
Ge1 La0 3.175912 1_656
Ge1 La0 3.175912 1_666
Ge1 La0 3.175912 1_556
