# generated using pymatgen
data_Ba2MgNiWO6
_symmetry_space_group_name_H-M   'P 1'
_cell_length_a   6.84357084
_cell_length_b   6.84357064
_cell_length_c   5.64974208
_cell_angle_alpha   65.62057580
_cell_angle_beta   65.62057654
_cell_angle_gamma   49.60568133
_symmetry_Int_Tables_number   1
_chemical_formula_structural   Ba2MgNiWO6
_chemical_formula_sum   'Ba2 Mg1 Ni1 W1 O6'
_cell_volume   179.48221459
_cell_formula_units_Z   1
loop_
 _symmetry_equiv_pos_site_id
 _symmetry_equiv_pos_as_xyz
  1  'x, y, z'
loop_
 _atom_site_type_symbol
 _atom_site_label
 _atom_site_symmetry_multiplicity
 _atom_site_fract_x
 _atom_site_fract_y
 _atom_site_fract_z
 _atom_site_occupancy
  Ba  Ba0  1  0.18351920  0.18351920  0.31648080  1
  Ba  Ba1  1  0.81648080  0.81648080  0.68351920  1
  Mg  Mg0  1  0.50000000  0.50000000  0.00000000  1
  Ni  Ni0  1  0.50000000  0.50000000  0.50000000  1
  W  W0  1  -0.00000000  -0.00000000  0.00000000  1
  O  O0  1  0.25245686  0.74754314  0.75609104  1
  O  O1  1  0.25245686  0.74754314  0.24390896  1
  O  O2  1  0.74754314  0.25245686  0.75609104  1
  O  O3  1  0.18580566  0.18580566  0.81419434  1
  O  O4  1  0.74754314  0.25245686  0.24390896  1
  O  O5  1  0.81419434  0.81419434  0.18580566  1
loop_
_geom_bond_atom_site_label_1
_geom_bond_atom_site_label_2
_geom_bond_distance
_geom_bond_site_symmetry_2
Ba0 O3 2.824984 1_554
Ba0 O3 2.824984 1_555
Ba0 O0 2.884196 1_545
Ba0 O1 2.884196 1_545
Ba0 O2 2.884196 1_455
Ba0 O4 2.884196 1_455
Ba0 O5 3.214467 1_455
Ba0 O5 3.214467 1_545
Ba1 O5 2.824984 1_556
Ba1 O5 2.824984 1_555
Ba1 O4 2.884196 1_565
Ba1 O2 2.884196 1_565
Ba1 O1 2.884196 1_655
Ba1 O0 2.884196 1_655
Ba1 O3 3.214467 1_655
Ba1 O3 3.214467 1_565
Mg0 O2 1.979673 1_554
Mg0 O0 1.979673 1_554
Mg0 O4 1.979673 1_555
Mg0 O1 1.979673 1_555
Ni0 O1 2.028183 1_555
Ni0 O2 2.028183 1_555
Ni0 O0 2.028183 1_555
Ni0 O4 2.028183 1_555
O0 W0 2.000025 1_566
O1 W0 2.000025 1_565
O2 W0 2.000025 1_656
O3 W0 2.056080 1_556
O4 W0 2.000025 1_655
O5 W0 2.056080 1_665
