# generated using pymatgen
data_PrFeGe2O7
_symmetry_space_group_name_H-M   'P 1'
_cell_length_a   6.70565700
_cell_length_b   7.37089500
_cell_length_c   13.18277383
_cell_angle_alpha   62.63216179
_cell_angle_beta   90.00000000
_cell_angle_gamma   90.00000000
_symmetry_Int_Tables_number   1
_chemical_formula_structural   PrFeGe2O7
_chemical_formula_sum   'Pr4 Fe4 Ge8 O28'
_cell_volume   578.65179608
_cell_formula_units_Z   4
loop_
 _symmetry_equiv_pos_site_id
 _symmetry_equiv_pos_as_xyz
  1  'x, y, z'
loop_
 _atom_site_type_symbol
 _atom_site_label
 _atom_site_symmetry_multiplicity
 _atom_site_fract_x
 _atom_site_fract_y
 _atom_site_fract_z
 _atom_site_occupancy
  Pr  Pr0  1  0.64747700  0.76063400  0.47595700  1
  Pr  Pr1  1  0.14747700  0.23936600  0.02404300  1
  Pr  Pr2  1  0.35252300  0.23936600  0.52404300  1
  Pr  Pr3  1  0.85252300  0.76063400  0.97595700  1
  Fe  Fe0  1  0.89913700  0.78798900  0.23170500  1
  Fe  Fe1  1  0.60086300  0.78798900  0.73170500  1
  Fe  Fe2  1  0.10086300  0.21201100  0.76829500  1
  Fe  Fe3  1  0.39913700  0.21201100  0.26829500  1
  Ge  Ge0  1  0.65829500  0.21637600  0.03992700  1
  Ge  Ge1  1  0.91122100  0.29762300  0.27946700  1
  Ge  Ge2  1  0.84170500  0.21637600  0.53992700  1
  Ge  Ge3  1  0.34170500  0.78362400  0.96007300  1
  Ge  Ge4  1  0.08877900  0.70237700  0.72053300  1
  Ge  Ge5  1  0.58877900  0.29762300  0.77946700  1
  Ge  Ge6  1  0.41122100  0.70237700  0.22053300  1
  Ge  Ge7  1  0.15829500  0.78362400  0.46007300  1
  O  O0  1  0.68843500  0.15359700  0.31344000  1
  O  O1  1  0.18843500  0.84640300  0.18656000  1
  O  O2  1  0.31156500  0.84640300  0.68656000  1
  O  O3  1  0.81156500  0.15359700  0.81344000  1
  O  O4  1  0.95348300  0.79199600  0.37453200  1
  O  O5  1  0.45348300  0.20800400  0.12546800  1
  O  O6  1  0.04651700  0.20800400  0.62546800  1
  O  O7  1  0.54651700  0.79199600  0.87453200  1
  O  O8  1  0.49751400  0.74566300  0.07953300  1
  O  O9  1  0.99751400  0.25433700  0.42046700  1
  O  O10  1  0.50248600  0.25433700  0.92046700  1
  O  O11  1  0.00248600  0.74566300  0.57953300  1
  O  O12  1  0.83492400  0.01055800  0.07662900  1
  O  O13  1  0.33492400  0.98944200  0.42337100  1
  O  O14  1  0.16507600  0.98944200  0.92337100  1
  O  O15  1  0.66507600  0.01055800  0.57662900  1
  O  O16  1  0.17400800  0.59081800  0.98284800  1
  O  O17  1  0.67400800  0.40918200  0.51715200  1
  O  O18  1  0.82599200  0.40918200  0.01715200  1
  O  O19  1  0.32599200  0.59081800  0.48284800  1
  O  O20  1  0.89086900  0.78121100  0.77947100  1
  O  O21  1  0.39086900  0.21878900  0.72052900  1
  O  O22  1  0.10913100  0.21878900  0.22052900  1
  O  O23  1  0.60913100  0.78121100  0.27947100  1
  O  O24  1  0.62436300  0.56478100  0.69458600  1
  O  O25  1  0.12436300  0.43521900  0.80541400  1
  O  O26  1  0.37563700  0.43521900  0.30541400  1
  O  O27  1  0.87563700  0.56478100  0.19458600  1
loop_
_geom_bond_atom_site_label_1
_geom_bond_atom_site_label_2
_geom_bond_distance
_geom_bond_site_symmetry_2
Fe0 O27 1.926469 1_555
Fe0 O4 1.931309 1_555
Fe0 O12 1.993129 1_565
Fe0 O1 2.016760 1_655
Fe0 O23 2.037612 1_555
Fe1 O24 1.926469 1_555
Fe1 O7 1.931309 1_555
Fe1 O15 1.993129 1_565
Fe1 O2 2.016760 1_555
Fe1 O20 2.037612 1_555
Fe2 O25 1.926469 1_555
Fe2 O6 1.931309 1_555
Fe2 O14 1.993129 1_545
Fe2 O3 2.016760 1_455
Fe2 O21 2.037612 1_555
Fe3 O26 1.926469 1_555
Fe3 O5 1.931309 1_555
Fe3 O13 1.993129 1_545
Fe3 O0 2.016760 1_555
Fe3 O22 2.037612 1_555
Ge0 O18 1.726866 1_555
Ge0 O5 1.760025 1_555
Ge0 O10 1.801337 1_554
Ge0 O12 1.806533 1_555
Ge1 O22 1.765688 1_655
Ge1 O0 1.766992 1_555
Ge1 O27 1.777886 1_555
Ge1 O9 1.829319 1_555
Ge2 O17 1.726866 1_555
Ge2 O6 1.760025 1_655
Ge2 O9 1.801337 1_555
Ge2 O15 1.806533 1_555
Ge3 O16 1.726866 1_555
Ge3 O7 1.760025 1_555
Ge3 O8 1.801337 1_556
Ge3 O14 1.806533 1_555
Ge4 O20 1.765688 1_455
Ge4 O2 1.766992 1_555
Ge4 O25 1.777886 1_555
Ge4 O11 1.829319 1_555
Ge5 O21 1.765688 1_555
Ge5 O3 1.766992 1_555
Ge5 O24 1.777886 1_555
Ge5 O10 1.829319 1_555
Ge6 O23 1.765688 1_555
Ge6 O1 1.766992 1_555
Ge6 O26 1.777886 1_555
Ge6 O8 1.829319 1_555
Ge7 O19 1.726866 1_555
Ge7 O4 1.760025 1_455
Ge7 O11 1.801337 1_555
Ge7 O13 1.806533 1_555
O0 Pr0 2.711034 1_545
O1 Pr1 2.711034 1_565
O2 Pr2 2.711034 1_565
O3 Pr3 2.711034 1_545
O4 Pr0 2.401580 1_555
O5 Pr1 2.401580 1_555
O6 Pr2 2.401580 1_555
O7 Pr3 2.401580 1_555
O8 Pr3 2.721236 1_554
O9 Pr2 2.721236 1_655
O10 Pr1 2.721236 1_556
O11 Pr0 2.721236 1_455
O12 Pr1 2.577341 1_655
O12 Pr3 2.723333 1_544
O13 Pr0 2.577341 1_555
O13 Pr2 2.723333 1_565
O14 Pr3 2.577341 1_455
O14 Pr1 2.723333 1_566
O15 Pr2 2.577341 1_555
O15 Pr0 2.723333 1_545
O16 Pr1 2.396646 1_556
O16 Pr3 2.473416 1_455
O17 Pr0 2.396646 1_555
O17 Pr2 2.473416 1_555
O18 Pr3 2.396646 1_554
O18 Pr1 2.473416 1_655
O19 Pr2 2.396646 1_555
O19 Pr0 2.473416 1_555
O20 Pr3 2.537167 1_555
O21 Pr2 2.537167 1_555
O22 Pr1 2.537167 1_555
O23 Pr0 2.537167 1_555
O24 Pr0 2.566983 1_555
O25 Pr1 2.566983 1_556
O26 Pr2 2.566983 1_555
O27 Pr3 2.566983 1_554
