# generated using pymatgen
data_Na3Ta3InSi3(PO8)3
_symmetry_space_group_name_H-M   'P 1'
_cell_length_a   8.90955613
_cell_length_b   8.91569364
_cell_length_c   22.71925804
_cell_angle_alpha   89.95119524
_cell_angle_beta   90.01250131
_cell_angle_gamma   119.84064548
_symmetry_Int_Tables_number   1
_chemical_formula_structural   Na3Ta3InSi3(PO8)3
_chemical_formula_sum   'Na9 Ta9 In3 Si9 P9 O72'
_cell_volume   1565.42025081
_cell_formula_units_Z   3
loop_
 _symmetry_equiv_pos_site_id
 _symmetry_equiv_pos_as_xyz
  1  'x, y, z'
loop_
 _atom_site_type_symbol
 _atom_site_label
 _atom_site_symmetry_multiplicity
 _atom_site_fract_x
 _atom_site_fract_y
 _atom_site_fract_z
 _atom_site_occupancy
  Na  Na0  1  0.64256324  0.00441563  0.24802651  1
  Na  Na1  1  0.37128525  0.35846791  0.24553775  1
  Na  Na2  1  0.71026298  0.67664201  0.41330073  1
  Na  Na3  1  0.01099001  0.01128852  0.49263410  1
  Na  Na4  1  0.00287889  0.00259668  0.99915251  1
  Na  Na5  1  0.66770009  0.33362257  0.82881121  1
  Na  Na6  1  0.68255314  0.34264911  0.33132177  1
  Na  Na7  1  0.32333280  0.66090339  0.16277928  1
  Na  Na8  1  0.33872148  0.66480033  0.66428630  1
  Ta  Ta0  1  0.00085661  0.00167393  0.85702587  1
  Ta  Ta1  1  0.99875430  0.99830718  0.64347530  1
  Ta  Ta2  1  0.99745192  0.99620638  0.14458880  1
  Ta  Ta3  1  0.66098429  0.33181899  0.97744541  1
  Ta  Ta4  1  0.66766996  0.33439961  0.47941039  1
  Ta  Ta5  1  0.33537073  0.66507557  0.01750700  1
  Ta  Ta6  1  0.33443923  0.66571426  0.52063866  1
  Ta  Ta7  1  0.33170897  0.66737860  0.31423638  1
  Ta  Ta8  1  0.33330790  0.66622095  0.81185779  1
  In  In0  1  0.00347251  0.00046589  0.35666159  1
  In  In1  1  0.66422325  0.33398686  0.68765619  1
  In  In2  1  0.67181986  0.34626661  0.17985678  1
  Si  Si0  1  0.70762572  0.70418253  0.25307958  1
  Si  Si1  1  0.66346236  0.62206926  0.58565916  1
  Si  Si2  1  0.36954050  0.33329054  0.08465162  1
  Si  Si3  1  0.62081578  0.66605875  0.91508186  1
  Si  Si4  1  0.04476658  0.38173110  0.91540480  1
  Si  Si5  1  0.33562049  0.95354416  0.91560837  1
  Si  Si6  1  0.61793766  0.96038877  0.41722138  1
  Si  Si7  1  0.33305976  0.37643858  0.41745506  1
  Si  Si8  1  0.04380181  0.66190250  0.41879852  1
  P  P0  1  0.28751487  0.99433407  0.24863710  1
  P  P1  1  0.00125480  0.28991482  0.24887652  1
  P  P2  1  0.28389277  0.28674256  0.75071884  1
  P  P3  1  0.00420887  0.71708683  0.75072711  1
  P  P4  1  0.71307699  0.99744197  0.75031646  1
  P  P5  1  0.95724480  0.33451855  0.58525065  1
  P  P6  1  0.37780333  0.04271142  0.58507205  1
  P  P7  1  0.96183619  0.62672094  0.08160996  1
  P  P8  1  0.66524871  0.04064670  0.08366504  1
  O  O0  1  0.21718695  0.03881103  0.30246191  1
  O  O1  1  0.80540373  0.78543374  0.31342783  1
  O  O2  1  0.97008779  0.18205422  0.30382717  1
  O  O3  1  0.18344866  0.17848112  0.80524290  1
  O  O4  1  0.99288400  0.81575973  0.80511523  1
  O  O5  1  0.82183027  0.00896666  0.80514075  1
  O  O6  1  0.80732037  0.98017926  0.69469055  1
  O  O7  1  0.17446434  0.19567092  0.69491364  1
  O  O8  1  0.02209041  0.82819635  0.69495793  1
  O  O9  1  0.81145474  0.83443401  0.19569922  1
  O  O10  1  0.03008626  0.19771041  0.19382512  1
  O  O11  1  0.17401447  0.97725229  0.19309453  1
  O  O12  1  0.88700056  0.36724764  0.64130492  1
  O  O13  1  0.48356543  0.10703619  0.64092140  1
  O  O14  1  0.62355960  0.51033503  0.64393074  1
  O  O15  1  0.90212356  0.52450383  0.13852238  1
  O  O16  1  0.63637145  0.10733618  0.14200166  1
  O  O17  1  0.46719273  0.36854296  0.14692779  1
  O  O18  1  0.47830719  0.31094209  0.02991904  1
  O  O19  1  0.84194210  0.53357086  0.02890950  1
  O  O20  1  0.69326424  0.16333959  0.03142763  1
  O  O21  1  0.46844923  0.16231087  0.53119010  1
  O  O22  1  0.69506663  0.53136451  0.52688144  1
  O  O23  1  0.83721205  0.30270156  0.53111977  1
  O  O24  1  0.53181388  0.69850372  0.97249683  1
  O  O25  1  0.16927029  0.47253546  0.97200904  1
  O  O26  1  0.30410612  0.83432250  0.97286785  1
  O  O27  1  0.51311765  0.83584363  0.47238764  1
  O  O28  1  0.32139657  0.48192409  0.47402989  1
  O  O29  1  0.15811254  0.67640314  0.47568514  1
  O  O30  1  0.13792793  0.63842805  0.35925802  1
  O  O31  1  0.50208145  0.86826195  0.35590775  1
  O  O32  1  0.36573210  0.49864136  0.35729743  1
  O  O33  1  0.13751636  0.50304310  0.85729082  1
  O  O34  1  0.36452843  0.86085846  0.85765459  1
  O  O35  1  0.49809189  0.63512997  0.85741240  1
  O  O36  1  0.01192506  0.82264507  0.41780643  1
  O  O37  1  0.80040925  0.96822741  0.41674693  1
  O  O38  1  0.16649820  0.19130802  0.41610932  1
  O  O39  1  0.02430930  0.18965077  0.90717328  1
  O  O40  1  0.16659039  0.97828625  0.90671619  1
  O  O41  1  0.81239710  0.83619481  0.90703706  1
  O  O42  1  0.97693816  0.16880334  0.59124715  1
  O  O43  1  0.19618646  0.03182202  0.59171263  1
  O  O44  1  0.84126636  0.81611016  0.59252665  1
  O  O45  1  0.97169745  0.80708069  0.08869463  1
  O  O46  1  0.83120404  0.02117199  0.08876031  1
  O  O47  1  0.17776793  0.15662159  0.08877658  1
  O  O48  1  0.69614145  0.15912920  0.74887017  1
  O  O49  1  0.46093456  0.30004465  0.75158351  1
  O  O50  1  0.84442333  0.53835007  0.75025105  1
  O  O51  1  0.66839964  0.50752103  0.24837972  1
  O  O52  1  0.84086688  0.30788749  0.24031132  1
  O  O53  1  0.47529770  0.14152043  0.24096435  1
  O  O54  1  0.64066485  0.49517467  0.92548091  1
  O  O55  1  0.85478137  0.36027424  0.92670147  1
  O  O56  1  0.50762111  0.14403404  0.92547385  1
  O  O57  1  0.62624121  0.14545031  0.42516953  1
  O  O58  1  0.51701641  0.37606246  0.42478608  1
  O  O59  1  0.85408834  0.48240368  0.42506714  1
  O  O60  1  0.34326734  0.50060525  0.07343227  1
  O  O61  1  0.14824386  0.66194549  0.07140218  1
  O  O62  1  0.50818007  0.85847577  0.07321024  1
  O  O63  1  0.33997434  0.85628842  0.57405954  1
  O  O64  1  0.50326509  0.66029259  0.57600119  1
  O  O65  1  0.14119610  0.48831661  0.57513118  1
  O  O66  1  0.29202574  0.82131429  0.25305911  1
  O  O67  1  0.51501248  0.69832972  0.25309611  1
  O  O68  1  0.17230242  0.46852709  0.25298522  1
  O  O69  1  0.29577374  0.46763401  0.75506007  1
  O  O70  1  0.17495385  0.70778437  0.75456777  1
  O  O71  1  0.53369012  0.82797755  0.75452090  1
loop_
_geom_bond_atom_site_label_1
_geom_bond_atom_site_label_2
_geom_bond_distance
_geom_bond_site_symmetry_2
Na0 O53 2.356544 1_555
Na0 O67 2.380169 1_545
Na0 O52 2.390590 1_555
Na0 O16 2.587266 1_555
Na0 O66 2.712562 1_545
Na0 O31 2.744392 1_545
Na0 O2 2.834309 1_555
Na0 O9 2.871874 1_545
Na1 O51 2.297131 1_555
Na1 O17 2.383586 1_555
Na1 O68 2.422008 1_555
Na1 O53 2.528846 1_555
Na1 O67 2.643884 1_555
Na1 O0 2.789327 1_555
Na1 O32 2.842238 1_555
Na1 O10 2.888087 1_555
Na2 O37 2.309109 1_555
Na2 O36 2.333865 1_655
Na2 O58 2.370951 1_555
Na2 O1 2.446781 1_555
Na2 O59 2.630592 1_555
Na2 O22 2.859154 1_555
Na2 O32 2.951905 1_555
Na3 O38 2.302524 1_555
Na3 O36 2.395357 1_545
Na3 O37 2.433692 1_445
Na3 O42 2.741054 1_455
Na3 O43 2.742536 1_555
Na3 O44 2.800247 1_445
Na4 O47 2.516692 1_556
Na4 O46 2.601065 1_456
Na4 O45 2.601261 1_446
Na4 O39 2.619528 1_555
Na4 O40 2.627084 1_545
Na4 O41 2.638005 1_445
Na5 O49 2.452019 1_555
Na5 O50 2.476285 1_555
Na5 O48 2.486047 1_555
Na5 O54 2.703162 1_555
Na5 O56 2.703711 1_555
Na5 O55 2.717719 1_555
Na6 O51 2.430471 1_555
Na6 O59 2.555857 1_555
Na6 O52 2.607360 1_555
Na6 O57 2.646727 1_555
Na6 O58 2.685636 1_555
Na6 O53 2.747522 1_555
Na7 O60 2.540130 1_555
Na7 O68 2.578945 1_555
Na7 O67 2.582791 1_555
Na7 O66 2.594691 1_555
Na7 O61 2.599310 1_555
Na7 O62 2.657909 1_555
Na8 O64 2.496794 1_555
Na8 O69 2.610449 1_555
Na8 O71 2.612529 1_555
Na8 O65 2.631325 1_555
Na8 O70 2.653692 1_555
Na8 O63 2.663069 1_555
In0 O38 2.091055 1_555
In0 O1 2.095238 1_445
In0 O36 2.136341 1_545
In0 O0 2.147382 1_555
In0 O2 2.150864 1_455
In0 O37 2.168459 1_445
In1 O14 2.038186 1_555
In1 O12 2.133338 1_555
In1 O13 2.138719 1_555
In1 O48 2.209697 1_555
In1 O49 2.221804 1_555
In1 O50 2.238770 1_555
In2 O17 2.069410 1_555
In2 O15 2.090641 1_555
In2 O51 2.130475 1_555
In2 O16 2.170428 1_555
In2 O52 2.187042 1_555
In2 O53 2.267459 1_555
O0 P0 1.514490 1_545
O1 Si0 1.592687 1_555
O2 P1 1.514212 1_655
O3 P2 1.551077 1_555
O3 Ta0 1.990254 1_555
O4 P3 1.549584 1_655
O4 Ta0 2.007379 1_665
O5 P4 1.549664 1_545
O5 Ta0 2.010026 1_655
O6 P4 1.566930 1_555
O6 Ta1 2.003816 1_555
O7 P2 1.559064 1_555
O7 Ta1 2.043062 1_445
O8 P3 1.566197 1_555
O8 Ta1 2.005551 1_455
O9 Si0 1.683052 1_555
O9 Ta2 1.947861 1_555
O10 P1 1.586864 1_555
O10 Ta2 2.011681 1_445
O11 P0 1.576280 1_555
O11 Ta2 1.995269 1_455
O12 P5 1.510426 1_555
O13 P6 1.513186 1_555
O14 Si1 1.586494 1_555
O15 P7 1.516980 1_555
O16 P8 1.526449 1_555
O17 Si2 1.608008 1_555
O18 Si2 1.648678 1_555
O18 Ta3 1.950352 1_554
O19 P7 1.543574 1_555
O19 Ta3 2.078141 1_554
O20 P8 1.547119 1_555
O20 Ta3 2.066356 1_554
O21 P6 1.558530 1_555
O21 Ta4 2.043555 1_555
O22 Si1 1.656850 1_555
O22 Ta4 1.970559 1_555
O23 P5 1.560360 1_555
O23 Ta4 2.040898 1_555
O24 Si3 1.625844 1_555
O24 Ta5 1.918060 1_556
O25 Si4 1.627008 1_555
O25 Ta5 1.918216 1_556
O26 Si5 1.613009 1_555
O26 Ta5 1.949010 1_556
O27 Si6 1.625471 1_555
O27 Ta6 1.905682 1_555
O28 Si7 1.626888 1_555
O28 Ta6 1.906116 1_555
O29 Si8 1.610280 1_555
O29 Ta6 1.915281 1_555
O30 Si8 1.659089 1_555
O30 Ta7 1.910631 1_555
O31 Si6 1.684685 1_555
O31 Ta7 1.924816 1_555
O32 Si7 1.679814 1_555
O32 Ta7 1.939957 1_555
O33 Si4 1.644528 1_555
O33 Ta8 1.922918 1_555
O34 Si5 1.642140 1_555
O34 Ta8 1.921950 1_555
O35 Si3 1.639565 1_555
O35 Ta8 1.925440 1_555
O36 Si8 1.593749 1_555
O37 Si6 1.592159 1_555
O38 Si7 1.577968 1_555
O39 Si4 1.640382 1_555
O39 Ta0 1.950673 1_555
O40 Si5 1.639469 1_555
O40 Ta0 1.950291 1_565
O41 Si3 1.634268 1_555
O41 Ta0 1.954400 1_665
O42 P5 1.577937 1_555
O42 Ta1 2.011792 1_545
O43 P6 1.579322 1_555
O43 Ta1 2.010897 1_445
O44 Si1 1.673256 1_555
O44 Ta1 1.918743 1_555
O45 P7 1.574557 1_555
O45 Ta2 2.031485 1_555
O46 P8 1.576437 1_555
O46 Ta2 2.044279 1_545
O47 Si2 1.652473 1_555
O47 Ta2 1.986331 1_445
O48 P4 1.522598 1_545
O49 P2 1.521956 1_555
O50 P3 1.519402 1_655
O51 Si0 1.611936 1_555
O52 P1 1.527496 1_655
O53 P0 1.538307 1_545
O54 Si3 1.635788 1_555
O54 Ta3 1.951189 1_555
O55 Si4 1.626499 1_655
O55 Ta3 1.984742 1_555
O56 Si5 1.641170 1_545
O56 Ta3 1.946871 1_555
O57 Si6 1.624638 1_545
O57 Ta4 1.969083 1_555
O58 Si7 1.649039 1_555
O58 Ta4 1.993599 1_555
O59 Si8 1.657150 1_655
O59 Ta4 1.959897 1_555
O60 Si2 1.640684 1_555
O60 Ta5 1.966981 1_555
O61 P7 1.546506 1_455
O61 Ta5 2.057722 1_555
O62 P8 1.546385 1_565
O62 Ta5 2.075130 1_555
O63 P6 1.543347 1_565
O63 Ta6 2.069420 1_555
O64 Si1 1.638665 1_555
O64 Ta6 1.979475 1_555
O65 P5 1.543472 1_455
O65 Ta6 2.070305 1_555
O66 P0 1.566119 1_555
O66 Ta7 2.102349 1_555
O67 Si0 1.690739 1_555
O67 Ta7 2.055400 1_555
O68 P1 1.565927 1_555
O68 Ta7 2.143429 1_555
O69 P2 1.565995 1_555
O69 Ta8 2.079964 1_555
O70 P3 1.566596 1_555
O70 Ta8 2.083425 1_555
O71 P4 1.563015 1_555
O71 Ta8 2.097525 1_555
