# generated using pymatgen
data_CuSbSe2
_symmetry_space_group_name_H-M   'P 1'
_cell_length_a   3.99298862
_cell_length_b   6.38864358
_cell_length_c   15.03930416
_cell_angle_alpha   90.00000000
_cell_angle_beta   90.00000000
_cell_angle_gamma   90.00000000
_symmetry_Int_Tables_number   1
_chemical_formula_structural   CuSbSe2
_chemical_formula_sum   'Cu4 Sb4 Se8'
_cell_volume   383.64935720
_cell_formula_units_Z   4
loop_
 _symmetry_equiv_pos_site_id
 _symmetry_equiv_pos_as_xyz
  1  'x, y, z'
loop_
 _atom_site_type_symbol
 _atom_site_label
 _atom_site_symmetry_multiplicity
 _atom_site_fract_x
 _atom_site_fract_y
 _atom_site_fract_z
 _atom_site_occupancy
  Cu  Cu0  1  0.75000000  0.74629669  0.17113978  1
  Cu  Cu1  1  0.25000000  0.25370331  0.82886022  1
  Cu  Cu2  1  0.75000000  0.24629669  0.32886022  1
  Cu  Cu3  1  0.25000000  0.75370331  0.67113978  1
  Sb  Sb0  1  0.75000000  0.77150386  0.93800745  1
  Sb  Sb1  1  0.25000000  0.72849614  0.43800745  1
  Sb  Sb2  1  0.75000000  0.27150386  0.56199255  1
  Sb  Sb3  1  0.25000000  0.22849614  0.06199255  1
  Se  Se0  1  0.25000000  0.37904190  0.67706081  1
  Se  Se1  1  0.75000000  0.37413638  0.90222255  1
  Se  Se2  1  0.75000000  0.62095810  0.32293919  1
  Se  Se3  1  0.25000000  0.87904190  0.82293919  1
  Se  Se4  1  0.75000000  0.87413638  0.59777745  1
  Se  Se5  1  0.25000000  0.62586362  0.09777745  1
  Se  Se6  1  0.25000000  0.12586362  0.40222255  1
  Se  Se7  1  0.75000000  0.12095810  0.17706081  1
loop_
_geom_bond_atom_site_label_1
_geom_bond_atom_site_label_2
_geom_bond_distance
_geom_bond_site_symmetry_2
Cu0 Se7 2.395234 1_565
Cu0 Se5 2.407339 1_655
Cu0 Se5 2.407339 1_555
Cu0 Se2 2.419315 1_555
Cu1 Se3 2.395234 1_545
Cu1 Se1 2.407339 1_455
Cu1 Se1 2.407339 1_555
Cu1 Se0 2.419315 1_555
Cu2 Se2 2.395234 1_555
Cu2 Se6 2.407339 1_555
Cu2 Se6 2.407339 1_655
Cu2 Se7 2.419315 1_555
Cu3 Se0 2.395234 1_555
Cu3 Se4 2.407339 1_555
Cu3 Se4 2.407339 1_455
Cu3 Se3 2.419315 1_555
Sb0 Se1 2.595058 1_555
Sb0 Se3 2.729978 1_555
Sb0 Se3 2.729978 1_655
Sb1 Se6 2.595058 1_565
Sb1 Se2 2.729978 1_555
Sb1 Se2 2.729978 1_455
Sb2 Se4 2.595058 1_545
Sb2 Se0 2.729978 1_655
Sb2 Se0 2.729978 1_555
Sb3 Se5 2.595058 1_555
Sb3 Se7 2.729978 1_555
Sb3 Se7 2.729978 1_455
