# generated using pymatgen
data_Ba2CoWO6
_symmetry_space_group_name_H-M   'P 1'
_cell_length_a   5.81590233
_cell_length_b   10.08848484
_cell_length_c   5.81786356
_cell_angle_alpha   73.39857837
_cell_angle_beta   119.92004599
_cell_angle_gamma   106.62868708
_symmetry_Int_Tables_number   1
_chemical_formula_structural   Ba2CoWO6
_chemical_formula_sum   'Ba4 Co2 W2 O12'
_cell_volume   279.25444461
_cell_formula_units_Z   2
loop_
 _symmetry_equiv_pos_site_id
 _symmetry_equiv_pos_as_xyz
  1  'x, y, z'
loop_
 _atom_site_type_symbol
 _atom_site_label
 _atom_site_symmetry_multiplicity
 _atom_site_fract_x
 _atom_site_fract_y
 _atom_site_fract_z
 _atom_site_occupancy
  Ba  Ba0  1  0.37473900  0.12432600  0.62509100  1
  Ba  Ba1  1  0.87485700  0.62433400  0.12516000  1
  Ba  Ba2  1  0.12514400  0.37566700  0.87484200  1
  Ba  Ba3  1  0.62526000  0.87567400  0.37490900  1
  Co  Co0  1  0.99999800  0.00000100  0.99999800  1
  Co  Co1  1  0.49999900  0.49999900  0.50000000  1
  W  W0  1  0.74980500  0.24999700  0.24984700  1
  W  W1  1  0.25020000  0.75000200  0.75015400  1
  O  O0  1  0.13053700  0.86946500  0.86931700  1
  O  O1  1  0.63055200  0.36949300  0.36937000  1
  O  O2  1  0.36903300  0.63092000  0.10699400  1
  O  O3  1  0.86903400  0.13102100  0.60685400  1
  O  O4  1  0.60721100  0.86919000  0.86906900  1
  O  O5  1  0.10703200  0.36906000  0.36904100  1
  O  O6  1  0.89296600  0.63093900  0.63095700  1
  O  O7  1  0.39278800  0.13080900  0.13093500  1
  O  O8  1  0.13096600  0.86898200  0.39314400  1
  O  O9  1  0.63096500  0.36908300  0.89300700  1
  O  O10  1  0.36945000  0.63050500  0.63062600  1
  O  O11  1  0.86946400  0.13053300  0.13068400  1
loop_
_geom_bond_atom_site_label_1
_geom_bond_atom_site_label_2
_geom_bond_distance
_geom_bond_site_symmetry_2
Ba0 O8 2.907665 1_545
Ba0 O4 2.908177 1_545
Ba0 O3 2.909359 1_455
Ba0 O3 2.910186 1_555
Ba0 O7 2.910363 1_555
Ba0 O7 2.911018 1_556
Ba0 O0 2.912459 1_545
Ba0 O11 2.912607 1_455
Ba0 O11 2.914456 1_556
Ba0 O9 2.919496 1_555
Ba0 O5 2.919566 1_555
Ba0 O1 2.922966 1_555
Ba1 O9 2.907411 1_554
Ba1 O5 2.908579 1_655
Ba1 O2 2.909575 1_655
Ba1 O2 2.909915 1_555
Ba1 O6 2.910486 1_554
Ba1 O6 2.910949 1_555
Ba1 O1 2.912579 1_555
Ba1 O10 2.913352 1_554
Ba1 O10 2.913693 1_655
Ba1 O8 2.918764 1_655
Ba1 O4 2.920431 1_554
Ba1 O0 2.922731 1_654
Ba2 O2 2.907426 1_556
Ba2 O6 2.908570 1_455
Ba2 O9 2.909595 1_455
Ba2 O9 2.909894 1_555
Ba2 O5 2.910467 1_556
Ba2 O5 2.910970 1_555
Ba2 O10 2.912580 1_555
Ba2 O1 2.913339 1_556
Ba2 O1 2.913709 1_455
Ba2 O3 2.918759 1_455
Ba2 O7 2.920442 1_556
Ba2 O11 2.922745 1_456
Ba3 O3 2.907686 1_565
Ba3 O7 2.908168 1_565
Ba3 O8 2.909361 1_655
Ba3 O8 2.910182 1_555
Ba3 O4 2.910383 1_555
Ba3 O4 2.910997 1_554
Ba3 O11 2.912449 1_565
Ba3 O0 2.912617 1_655
Ba3 O0 2.914448 1_554
Ba3 O2 2.919468 1_555
Ba3 O6 2.919571 1_555
Ba3 O10 2.922956 1_555
Co0 O11 2.146787 1_556
Co0 O0 2.146820 1_645
Co0 O7 2.157182 1_656
Co0 O4 2.157182 1_545
Co0 O3 2.160912 1_555
Co0 O8 2.160916 1_646
Co1 O10 2.146388 1_555
Co1 O1 2.146421 1_555
Co1 O5 2.158452 1_555
Co1 O6 2.158456 1_555
Co1 O9 2.159917 1_555
Co1 O2 2.159934 1_555
O0 W1 1.963745 1_555
O1 W0 1.963811 1_555
O2 W1 1.962033 1_554
O3 W0 1.962281 1_555
O4 W1 1.961907 1_555
O5 W0 1.962278 1_455
O6 W1 1.962307 1_655
O7 W0 1.961932 1_555
O8 W1 1.962310 1_555
O9 W0 1.962049 1_556
O10 W1 1.963827 1_555
O11 W0 1.963737 1_555
