# generated using pymatgen
data_BiP2O7
_symmetry_space_group_name_H-M   'P 1'
_cell_length_a   8.85097500
_cell_length_b   7.63933200
_cell_length_c   10.18215583
_cell_angle_alpha   69.42550741
_cell_angle_beta   90.00000000
_cell_angle_gamma   90.00000000
_symmetry_Int_Tables_number   1
_chemical_formula_structural   BiP2O7
_chemical_formula_sum   'Bi4 P8 O28'
_cell_volume   644.55849003
_cell_formula_units_Z   4
loop_
 _symmetry_equiv_pos_site_id
 _symmetry_equiv_pos_as_xyz
  1  'x, y, z'
loop_
 _atom_site_type_symbol
 _atom_site_label
 _atom_site_symmetry_multiplicity
 _atom_site_fract_x
 _atom_site_fract_y
 _atom_site_fract_z
 _atom_site_occupancy
  Bi  Bi0  1  0.49439500  0.26057400  0.24782500  1
  Bi  Bi1  1  0.00560500  0.26057400  0.74782500  1
  Bi  Bi2  1  0.99439500  0.73942600  0.25217500  1
  Bi  Bi3  1  0.50560500  0.73942600  0.75217500  1
  P  P0  1  0.70483000  0.31980300  0.94088600  1
  P  P1  1  0.29517000  0.68019700  0.05911400  1
  P  P2  1  0.79517000  0.31980300  0.44088600  1
  P  P3  1  0.25495800  0.07510800  0.54249500  1
  P  P4  1  0.75495800  0.92489200  0.95750500  1
  P  P5  1  0.74504200  0.92489200  0.45750500  1
  P  P6  1  0.24504200  0.07510800  0.04249500  1
  P  P7  1  0.20483000  0.68019700  0.55911400  1
  O  O0  1  0.90856700  0.44411600  0.33641300  1
  O  O1  1  0.10389400  0.02670200  0.13490800  1
  O  O2  1  0.35940500  0.19959100  0.08048000  1
  O  O3  1  0.39610600  0.02670200  0.63490800  1
  O  O4  1  0.89610600  0.97329800  0.86509200  1
  O  O5  1  0.64059500  0.80040900  0.91952000  1
  O  O6  1  0.60389400  0.97329800  0.36509200  1
  O  O7  1  0.16257900  0.88509200  0.56109800  1
  O  O8  1  0.71104500  0.83063900  0.61520500  1
  O  O9  1  0.30910100  0.68190800  0.90810100  1
  O  O10  1  0.85940500  0.80040900  0.41952000  1
  O  O11  1  0.37236800  0.64099500  0.60034500  1
  O  O12  1  0.33742100  0.88509200  0.06109800  1
  O  O13  1  0.78895500  0.83063900  0.11520500  1
  O  O14  1  0.19089900  0.68190800  0.40810100  1
  O  O15  1  0.09143300  0.55588400  0.66358700  1
  O  O16  1  0.59143300  0.44411600  0.83641300  1
  O  O17  1  0.28895500  0.16936100  0.38479500  1
  O  O18  1  0.12763200  0.64099500  0.10034500  1
  O  O19  1  0.40856700  0.55588400  0.16358700  1
  O  O20  1  0.87236800  0.35900500  0.89965500  1
  O  O21  1  0.80910100  0.31809200  0.59189900  1
  O  O22  1  0.21104500  0.16936100  0.88479500  1
  O  O23  1  0.66257900  0.11490800  0.93890200  1
  O  O24  1  0.62763200  0.35900500  0.39965500  1
  O  O25  1  0.14059500  0.19959100  0.58048000  1
  O  O26  1  0.69089900  0.31809200  0.09189900  1
  O  O27  1  0.83742100  0.11490800  0.43890200  1
loop_
_geom_bond_atom_site_label_1
_geom_bond_atom_site_label_2
_geom_bond_distance
_geom_bond_site_symmetry_2
Bi0 O19 2.245477 1_555
Bi0 O17 2.248095 1_555
Bi0 O2 2.259620 1_555
Bi0 O24 2.272256 1_555
Bi0 O26 2.290943 1_555
Bi0 O6 2.310736 1_545
Bi1 O15 2.245477 1_555
Bi1 O22 2.248095 1_555
Bi1 O25 2.259620 1_555
Bi1 O20 2.272256 1_455
Bi1 O21 2.290943 1_455
Bi1 O4 2.310736 1_445
Bi2 O0 2.245477 1_555
Bi2 O13 2.248095 1_555
Bi2 O10 2.259620 1_555
Bi2 O18 2.272256 1_655
Bi2 O14 2.290943 1_655
Bi2 O1 2.310736 1_665
Bi3 O16 2.245477 1_555
Bi3 O8 2.248095 1_555
Bi3 O5 2.259620 1_555
Bi3 O11 2.272256 1_555
Bi3 O9 2.290943 1_555
Bi3 O3 2.310736 1_565
O0 P2 1.526691 1_555
O1 P6 1.529163 1_555
O2 P6 1.528737 1_555
O3 P3 1.529163 1_555
O4 P4 1.529163 1_555
O5 P4 1.528737 1_555
O6 P5 1.529163 1_555
O7 P7 1.616330 1_555
O7 P3 1.618115 1_565
O8 P5 1.541016 1_555
O9 P1 1.538044 1_556
O10 P5 1.528737 1_555
O11 P7 1.541586 1_555
O12 P1 1.616330 1_555
O12 P6 1.618115 1_565
O13 P4 1.541016 1_554
O14 P7 1.538044 1_555
O15 P7 1.526691 1_555
O16 P0 1.526691 1_555
O17 P3 1.541016 1_555
O18 P1 1.541586 1_555
O19 P1 1.526691 1_555
O20 P0 1.541586 1_555
O21 P2 1.538044 1_555
O22 P6 1.541016 1_556
O23 P0 1.616330 1_555
O23 P4 1.618115 1_545
O24 P2 1.541586 1_555
O25 P3 1.528737 1_555
O26 P0 1.538044 1_554
O27 P2 1.616330 1_555
O27 P5 1.618115 1_545
