# generated using pymatgen
data_MgZn2(NiO2)4
_symmetry_space_group_name_H-M   'P 1'
_cell_length_a   2.91329845
_cell_length_b   5.17782165
_cell_length_c   11.26338367
_cell_angle_alpha   90.00000000
_cell_angle_beta   90.00000000
_cell_angle_gamma   98.75915791
_symmetry_Int_Tables_number   1
_chemical_formula_structural   MgZn2(NiO2)4
_chemical_formula_sum   'Mg1 Zn2 Ni4 O8'
_cell_volume   167.92141229
_cell_formula_units_Z   1
loop_
 _symmetry_equiv_pos_site_id
 _symmetry_equiv_pos_as_xyz
  1  'x, y, z'
loop_
 _atom_site_type_symbol
 _atom_site_label
 _atom_site_symmetry_multiplicity
 _atom_site_fract_x
 _atom_site_fract_y
 _atom_site_fract_z
 _atom_site_occupancy
  Mg  Mg0  1  0.34009867  0.82978948  0.25000000  1
  Zn  Zn0  1  0.52967876  0.71190294  0.75000000  1
  Zn  Zn1  1  0.48777656  0.33206164  0.25000000  1
  Ni  Ni0  1  0.88843377  0.70248016  0.01662791  1
  Ni  Ni1  1  0.09201343  0.19430453  0.89855177  1
  Ni  Ni2  1  0.88843377  0.70248016  0.48337209  1
  Ni  Ni3  1  0.09201343  0.19430453  0.60144823  1
  O  O0  1  0.35847005  0.57537124  0.37840927  1
  O  O1  1  0.67389322  0.45324944  0.61939145  1
  O  O2  1  0.67389322  0.45324944  0.88060855  1
  O  O3  1  0.35847005  0.57537124  0.12159073  1
  O  O4  1  -0.09400759  0.07269562  0.25000000  1
  O  O5  1  0.09099342  -0.01914692  0.75000000  1
  O  O6  1  0.48700311  0.96094324  0.96543612  1
  O  O7  1  0.48700311  0.96094324  0.53456388  1
loop_
_geom_bond_atom_site_label_1
_geom_bond_atom_site_label_2
_geom_bond_distance
_geom_bond_site_symmetry_2
Mg0 O4 1.914610 1_565
Mg0 O4 1.915280 1_665
Mg0 O3 1.962537 1_555
Mg0 O0 1.962537 1_555
Ni0 O3 1.976138 1_555
Ni0 O6 1.991937 1_554
Ni0 O3 1.995109 1_655
Ni0 O2 2.038985 1_554
Ni0 O6 2.110346 1_654
Ni1 O6 1.942976 1_545
Ni1 O2 1.954409 1_455
Ni1 O2 2.004981 1_555
Ni1 O5 2.005016 1_555
Ni1 O6 2.117914 1_445
Ni2 O0 1.976138 1_555
Ni2 O7 1.991937 1_555
Ni2 O0 1.995109 1_655
Ni2 O1 2.038985 1_555
Ni2 O7 2.110346 1_655
Ni3 O7 1.942976 1_545
Ni3 O1 1.954409 1_455
Ni3 O1 2.004981 1_555
Ni3 O5 2.005016 1_555
Ni3 O7 2.117914 1_445
O0 Zn1 1.991339 1_555
O1 Zn0 2.075001 1_555
O2 Zn0 2.075001 1_555
O3 Zn1 1.991339 1_555
O4 Zn1 1.945847 1_455
O4 Zn1 1.995745 1_555
O5 Zn0 1.979857 1_445
O5 Zn0 2.028460 1_545
