# generated using pymatgen
data_B2Mo
_symmetry_space_group_name_H-M   'P 1'
_cell_length_a   7.17355866
_cell_length_b   7.17355821
_cell_length_c   7.17355895
_cell_angle_alpha   24.26028988
_cell_angle_beta   24.26029152
_cell_angle_gamma   24.26029265
_symmetry_Int_Tables_number   1
_chemical_formula_structural   B2Mo
_chemical_formula_sum   'B4 Mo2'
_cell_volume   54.77808054
_cell_formula_units_Z   2
loop_
 _symmetry_equiv_pos_site_id
 _symmetry_equiv_pos_as_xyz
  1  'x, y, z'
loop_
 _atom_site_type_symbol
 _atom_site_label
 _atom_site_symmetry_multiplicity
 _atom_site_fract_x
 _atom_site_fract_y
 _atom_site_fract_z
 _atom_site_occupancy
  B  B0  1  0.81833097  0.81833097  0.81833097  1
  B  B1  1  0.18166903  0.18166903  0.18166903  1
  B  B2  1  0.33210285  0.33210285  0.33210285  1
  B  B3  1  0.66789715  0.66789715  0.66789715  1
  Mo  Mo0  1  0.92434714  0.92434714  0.92434714  1
  Mo  Mo1  1  0.07565286  0.07565286  0.07565286  1
loop_
_geom_bond_atom_site_label_1
_geom_bond_atom_site_label_2
_geom_bond_distance
_geom_bond_site_symmetry_2
B0 B1 1.849888 1_665
B0 B1 1.849888 1_656
B0 B1 1.849888 1_566
B0 Mo0 2.213359 1_555
B0 Mo1 2.355426 1_656
B0 Mo1 2.355427 1_566
B0 Mo1 2.355427 1_665
B1 Mo1 2.213359 1_555
B1 Mo0 2.355426 1_454
B1 Mo0 2.355427 1_544
B1 Mo0 2.355427 1_445
B2 B3 1.741355 1_554
B2 B3 1.741355 1_545
B2 B3 1.741355 1_455
B2 Mo0 2.333204 1_445
B2 Mo0 2.333204 1_544
B2 Mo0 2.333204 1_454
B2 Mo1 2.367729 1_565
B2 Mo1 2.367729 1_655
B2 Mo1 2.367729 1_556
B3 Mo1 2.333204 1_665
B3 Mo1 2.333204 1_566
B3 Mo1 2.333204 1_656
B3 Mo0 2.367729 1_545
B3 Mo0 2.367729 1_455
B3 Mo0 2.367729 1_554
