# generated using pymatgen
data_Na4Ta3AlSi5SO24
_symmetry_space_group_name_H-M   'P 1'
_cell_length_a   8.91238226
_cell_length_b   8.87227839
_cell_length_c   22.38024480
_cell_angle_alpha   89.39463822
_cell_angle_beta   90.97497788
_cell_angle_gamma   119.73748168
_symmetry_Int_Tables_number   1
_chemical_formula_structural   Na4Ta3AlSi5SO24
_chemical_formula_sum   'Na12 Ta9 Al3 Si15 S3 O72'
_cell_volume   1536.39548957
_cell_formula_units_Z   3
loop_
 _symmetry_equiv_pos_site_id
 _symmetry_equiv_pos_as_xyz
  1  'x, y, z'
loop_
 _atom_site_type_symbol
 _atom_site_label
 _atom_site_symmetry_multiplicity
 _atom_site_fract_x
 _atom_site_fract_y
 _atom_site_fract_z
 _atom_site_occupancy
  Na  Na0  1  0.63480182  0.62726287  0.74390458  1
  Na  Na1  1  0.99138916  0.36186973  0.74677909  1
  Na  Na2  1  0.37249577  0.00612545  0.74397654  1
  Na  Na3  1  0.66457055  0.68882650  0.08492371  1
  Na  Na4  1  0.02348121  0.33576598  0.08417360  1
  Na  Na5  1  0.32643950  0.02765804  0.41492068  1
  Na  Na6  1  0.98532375  0.99053753  0.49354695  1
  Na  Na7  1  0.01241220  0.99604076  0.99485359  1
  Na  Na8  1  0.66724843  0.33263588  0.83412351  1
  Na  Na9  1  0.69052138  0.34210046  0.32589294  1
  Na  Na10  1  0.32825895  0.67359517  0.16844090  1
  Na  Na11  1  0.34104376  0.67271399  0.66112469  1
  Ta  Ta0  1  0.99696812  0.99871799  0.85557340  1
  Ta  Ta1  1  0.00149156  0.99328355  0.64235600  1
  Ta  Ta2  1  0.00665748  0.00985178  0.14581563  1
  Ta  Ta3  1  0.66720774  0.33376195  0.97749539  1
  Ta  Ta4  1  0.66238772  0.34041142  0.47613873  1
  Ta  Ta5  1  0.33400000  0.66737010  0.02217831  1
  Ta  Ta6  1  0.34328748  0.67821623  0.51976875  1
  Ta  Ta7  1  0.32209215  0.65736043  0.31314604  1
  Ta  Ta8  1  0.33401266  0.66751548  0.81273165  1
  Al  Al0  1  0.98757760  0.01205505  0.36079850  1
  Al  Al1  1  0.64852076  0.32870303  0.69025426  1
  Al  Al2  1  0.68786216  0.33050193  0.18149658  1
  Si  Si0  1  0.98545307  0.28402088  0.25347720  1
  Si  Si1  1  0.28792800  0.28619738  0.74911778  1
  Si  Si2  1  0.99283008  0.70395643  0.74920206  1
  Si  Si3  1  0.71221249  0.00530387  0.74652478  1
  Si  Si4  1  0.38491124  0.05149058  0.58622363  1
  Si  Si5  1  0.66139811  0.61331201  0.58769719  1
  Si  Si6  1  0.95376239  0.61810271  0.08622499  1
  Si  Si7  1  0.65926081  0.04753077  0.08721853  1
  Si  Si8  1  0.39459771  0.33164080  0.08854911  1
  Si  Si9  1  0.62468694  0.66806002  0.91799922  1
  Si  Si10  1  0.04318433  0.37681999  0.91687490  1
  Si  Si11  1  0.33453130  0.95734942  0.91588656  1
  Si  Si12  1  0.62939632  0.95646794  0.41393967  1
  Si  Si13  1  0.32148827  0.37291920  0.41742616  1
  Si  Si14  1  0.04025270  0.67279118  0.41449911  1
  S  S0  1  0.29492042  0.00594069  0.25231620  1
  S  S1  1  0.71469493  0.71287239  0.25199991  1
  S  S2  1  0.95313578  0.33558901  0.58510222  1
  O  O0  1  0.20939725  0.01502068  0.30669495  1
  O  O1  1  0.82227822  0.80244633  0.30425239  1
  O  O2  1  0.97538770  0.16268675  0.30878061  1
  O  O3  1  0.19317080  0.15919657  0.80622208  1
  O  O4  1  0.95695016  0.79707693  0.80561647  1
  O  O5  1  0.83698780  0.03881663  0.80550395  1
  O  O6  1  0.80285625  0.96363427  0.69088419  1
  O  O7  1  0.15708564  0.19870658  0.69182358  1
  O  O8  1  0.03826316  0.83739116  0.69171473  1
  O  O9  1  0.79730287  0.81551716  0.19524062  1
  O  O10  1  0.01661566  0.19355710  0.19195925  1
  O  O11  1  0.17866476  0.97978553  0.19833464  1
  O  O12  1  0.87623406  0.35408742  0.64024955  1
  O  O13  1  0.49506023  0.13694828  0.64656272  1
  O  O14  1  0.64447865  0.50536176  0.64791336  1
  O  O15  1  0.87567370  0.49185759  0.14261752  1
  O  O16  1  0.63150241  0.13134132  0.14490527  1
  O  O17  1  0.52273755  0.37144275  0.14454907  1
  O  O18  1  0.47413843  0.30074524  0.02729916  1
  O  O19  1  0.83008575  0.53783823  0.02633462  1
  O  O20  1  0.70939213  0.17289842  0.02790444  1
  O  O21  1  0.47914849  0.16227368  0.52549325  1
  O  O22  1  0.68907715  0.52125598  0.52858745  1
  O  O23  1  0.84769352  0.31527053  0.53073689  1
  O  O24  1  0.53071224  0.68701597  0.97728612  1
  O  O25  1  0.15935577  0.46735051  0.97708548  1
  O  O26  1  0.31371828  0.83455140  0.97356724  1
  O  O27  1  0.52959777  0.83520710  0.47349235  1
  O  O28  1  0.29978756  0.47288095  0.47448541  1
  O  O29  1  0.17212990  0.70949611  0.47210689  1
  O  O30  1  0.13481956  0.63612011  0.35715159  1
  O  O31  1  0.49374623  0.86504047  0.35735589  1
  O  O32  1  0.35986258  0.49999080  0.35866139  1
  O  O33  1  0.13955911  0.49560136  0.85750775  1
  O  O34  1  0.35595565  0.86577270  0.85548026  1
  O  O35  1  0.50808533  0.64665152  0.85754572  1
  O  O36  1  0.02852505  0.84515359  0.40170382  1
  O  O37  1  0.81323531  0.97027882  0.40999047  1
  O  O38  1  0.16363734  0.17904812  0.40944013  1
  O  O39  1  0.02914778  0.18817378  0.90997827  1
  O  O40  1  0.15998442  0.97061076  0.91051478  1
  O  O41  1  0.81225444  0.84121973  0.91143714  1
  O  O42  1  0.96958481  0.17538800  0.58672173  1
  O  O43  1  0.19095059  0.03546996  0.58882885  1
  O  O44  1  0.83325383  0.81118540  0.58925256  1
  O  O45  1  0.96933646  0.80971290  0.09442766  1
  O  O46  1  0.83439239  0.02100790  0.09322994  1
  O  O47  1  0.19308062  0.16467998  0.09454962  1
  O  O48  1  0.69256280  0.17674035  0.74034854  1
  O  O49  1  0.47972873  0.30840557  0.74571983  1
  O  O50  1  0.82864235  0.51136190  0.74153723  1
  O  O51  1  0.69207855  0.53816360  0.24693956  1
  O  O52  1  0.81740266  0.30848984  0.24451487  1
  O  O53  1  0.46300017  0.16069101  0.24546746  1
  O  O54  1  0.63885601  0.49337919  0.92161844  1
  O  O55  1  0.85566062  0.36271217  0.92231847  1
  O  O56  1  0.50695457  0.14493561  0.92244837  1
  O  O57  1  0.63694031  0.14391444  0.42351728  1
  O  O58  1  0.49931471  0.35775465  0.42337760  1
  O  O59  1  0.85442234  0.49741982  0.42399813  1
  O  O60  1  0.36077400  0.49935408  0.08003587  1
  O  O61  1  0.14708160  0.64098351  0.07710229  1
  O  O62  1  0.50110263  0.84752226  0.07908026  1
  O  O63  1  0.35472390  0.85264832  0.57813691  1
  O  O64  1  0.48812496  0.63355634  0.57832950  1
  O  O65  1  0.12769200  0.49070488  0.57929064  1
  O  O66  1  0.30908527  0.84292739  0.25148822  1
  O  O67  1  0.54034277  0.70375153  0.25326421  1
  O  O68  1  0.16763215  0.48130297  0.25517127  1
  O  O69  1  0.30683976  0.48017024  0.75479518  1
  O  O70  1  0.16984767  0.69027301  0.75434960  1
  O  O71  1  0.51956429  0.83075888  0.75380819  1
loop_
_geom_bond_atom_site_label_1
_geom_bond_atom_site_label_2
_geom_bond_distance
_geom_bond_site_symmetry_2
Na0 O50 2.410682 1_555
Na0 O14 2.437279 1_555
Na0 O49 2.456755 1_555
Na0 O71 2.493880 1_555
Na0 O69 2.557209 1_555
Na0 O4 2.835209 1_555
Na0 O35 2.841337 1_555
Na0 O6 2.847655 1_555
Na1 O48 2.337471 1_555
Na1 O50 2.403373 1_555
Na1 O69 2.469273 1_655
Na1 O70 2.540044 1_655
Na1 O12 2.567525 1_555
Na1 O33 2.772935 1_655
Na1 O5 2.811630 1_555
Na1 O7 2.830080 1_655
Na2 O49 2.359184 1_555
Na2 O13 2.462363 1_555
Na2 O70 2.479593 1_545
Na2 O48 2.481262 1_555
Na2 O71 2.488649 1_545
Na2 O34 2.750372 1_545
Na2 O8 2.824348 1_545
Na2 O3 2.933999 1_555
Na3 O60 2.376379 1_555
Na3 O45 2.380832 1_555
Na3 O62 2.479251 1_555
Na3 O46 2.566732 1_565
Na3 O24 2.666565 1_554
Na3 O9 2.720025 1_555
Na3 O19 2.784469 1_555
Na3 O17 2.784733 1_555
Na4 O61 2.368372 1_555
Na4 O46 2.451666 1_455
Na4 O60 2.613416 1_555
Na4 O47 2.626693 1_555
Na4 O25 2.685236 1_554
Na4 O15 2.696448 1_455
Na4 O10 2.697932 1_555
Na4 O20 2.723151 1_455
Na5 O36 2.340384 1_545
Na5 O38 2.418325 1_555
Na5 O57 2.431724 1_555
Na5 O58 2.551922 1_555
Na5 O0 2.602127 1_555
Na5 O29 2.762236 1_545
Na5 O21 2.781705 1_555
Na5 O31 2.864206 1_545
Na6 O37 2.348950 1_555
Na6 O38 2.502894 1_665
Na6 O36 2.571511 1_655
Na6 O44 2.616110 1_555
Na6 O43 2.687917 1_665
Na6 O42 2.714449 1_565
Na7 O40 2.394018 1_555
Na7 O41 2.462571 1_455
Na7 O39 2.495056 1_565
Na7 O45 2.677336 1_456
Na7 O47 2.714396 1_566
Na7 O46 2.809195 1_466
Na8 O55 2.498143 1_555
Na8 O49 2.508737 1_555
Na8 O54 2.523139 1_555
Na8 O56 2.527459 1_555
Na8 O50 2.578047 1_555
Na8 O48 2.599153 1_555
Na9 O52 2.258485 1_555
Na9 O51 2.461779 1_555
Na9 O53 2.577084 1_555
Na9 O59 2.609852 1_555
Na9 O57 2.686037 1_555
Na9 O58 2.837419 1_555
Na10 O66 2.462775 1_555
Na10 O61 2.511254 1_555
Na10 O68 2.515823 1_555
Na10 O62 2.536788 1_555
Na10 O67 2.575858 1_555
Na10 O60 2.630012 1_555
Na11 O63 2.401025 1_555
Na11 O64 2.412590 1_555
Na11 O65 2.544676 1_555
Na11 O71 2.556591 1_555
Na11 O69 2.614467 1_555
Na11 O70 2.656368 1_555
Al0 O37 1.800552 1_545
Al0 O2 1.805561 1_555
Al0 O38 1.874024 1_655
Al0 O36 1.913143 1_645
Al0 O1 2.121015 1_545
Al0 O0 2.324723 1_655
Al1 O14 1.838300 1_555
Al1 O13 1.844569 1_555
Al1 O49 1.904323 1_555
Al1 O48 1.925324 1_555
Al1 O50 1.978978 1_555
Al1 O12 2.245087 1_555
Al2 O16 1.783626 1_555
Al2 O15 1.803983 1_555
Al2 O17 1.861186 1_555
Al2 O52 1.876865 1_555
Al2 O53 2.322188 1_555
Al2 O51 2.351079 1_555
O0 S0 1.470759 1_555
O1 S1 1.464246 1_555
O2 Si0 1.605819 1_555
O3 Si1 1.636591 1_555
O3 Ta0 1.966576 1_445
O4 Si2 1.636094 1_555
O4 Ta0 1.993368 1_555
O5 Si3 1.642463 1_555
O5 Ta0 1.963565 1_545
O6 Si3 1.637135 1_565
O6 Ta1 1.995035 1_655
O7 Si1 1.636679 1_555
O7 Ta1 1.988339 1_545
O8 Si2 1.652507 1_455
O8 Ta1 1.909391 1_555
O9 S1 1.525535 1_555
O9 Ta2 2.125135 1_665
O10 Si0 1.695400 1_455
O10 Ta2 1.902584 1_555
O11 S0 1.520440 1_565
O11 Ta2 2.034824 1_565
O12 S2 1.471263 1_555
O13 Si4 1.612542 1_555
O14 Si5 1.610150 1_555
O15 Si6 1.599521 1_555
O16 Si7 1.579423 1_555
O17 Si8 1.600075 1_555
O18 Si8 1.640281 1_555
O18 Ta3 1.961465 1_554
O19 Si6 1.646159 1_555
O19 Ta3 1.990141 1_554
O20 Si7 1.641632 1_555
O20 Ta3 1.983670 1_554
O21 Si4 1.646350 1_555
O21 Ta4 1.961870 1_555
O22 Si5 1.646750 1_555
O22 Ta4 1.913250 1_555
O23 S2 1.481099 1_555
O23 Ta4 2.135736 1_555
O24 Si9 1.634801 1_555
O24 Ta5 1.966344 1_556
O25 Si10 1.638091 1_555
O25 Ta5 1.958209 1_556
O26 Si11 1.632727 1_555
O26 Ta5 1.908290 1_556
O27 Si12 1.669036 1_555
O27 Ta6 1.871756 1_555
O28 Si13 1.630094 1_555
O28 Ta6 1.954810 1_555
O29 Si14 1.651453 1_555
O29 Ta6 1.974865 1_555
O30 Si14 1.667668 1_555
O30 Ta7 1.879135 1_555
O31 Si12 1.649236 1_555
O31 Ta7 1.976127 1_555
O32 Si13 1.648988 1_555
O32 Ta7 1.877485 1_555
O33 Si10 1.650742 1_555
O33 Ta8 1.933532 1_555
O34 Si11 1.646257 1_555
O34 Ta8 1.932758 1_555
O35 Si9 1.645687 1_555
O35 Ta8 1.917041 1_555
O36 Si14 1.606182 1_555
O37 Si12 1.585198 1_555
O38 Si13 1.602215 1_555
O39 Si10 1.624162 1_555
O39 Ta0 1.985785 1_445
O40 Si11 1.619627 1_555
O40 Ta0 1.994260 1_455
O41 Si9 1.622378 1_555
O41 Ta0 1.994206 1_555
O42 S2 1.499493 1_555
O42 Ta1 2.154720 1_645
O43 Si4 1.664733 1_555
O43 Ta1 1.964358 1_545
O44 Si5 1.661668 1_555
O44 Ta1 1.961533 1_655
O45 Si6 1.647625 1_555
O45 Ta2 2.007629 1_665
O46 Si7 1.693002 1_555
O46 Ta2 1.959278 1_655
O47 Si8 1.674112 1_555
O47 Ta2 1.931649 1_555
O48 Si3 1.619353 1_555
O49 Si1 1.623770 1_555
O50 Si2 1.614811 1_555
O51 S1 1.465992 1_555
O52 Si0 1.625417 1_555
O53 S0 1.454494 1_555
O54 Si9 1.617280 1_555
O54 Ta3 1.984956 1_555
O55 Si10 1.619498 1_655
O55 Ta3 2.011896 1_555
O56 Si11 1.616545 1_545
O56 Ta3 1.993562 1_555
O57 Si12 1.646939 1_545
O57 Ta4 2.029722 1_555
O58 Si13 1.658792 1_555
O58 Ta4 1.920906 1_555
O59 Si14 1.630231 1_655
O59 Ta4 1.974796 1_555
O60 Si8 1.666842 1_555
O60 Ta5 2.063332 1_555
O61 Si6 1.647881 1_455
O61 Ta5 2.004410 1_555
O62 Si7 1.638799 1_565
O62 Ta5 2.002858 1_555
O63 Si4 1.658827 1_565
O63 Ta6 1.998397 1_555
O64 Si5 1.650563 1_555
O64 Ta6 1.994953 1_555
O65 S2 1.486696 1_455
O65 Ta6 2.259057 1_555
O66 S0 1.513222 1_565
O66 Ta7 2.182690 1_555
O67 S1 1.516125 1_555
O67 Ta7 2.243172 1_555
O68 Si0 1.697445 1_455
O68 Ta7 1.966543 1_555
O69 Si1 1.649987 1_555
O69 Ta8 2.034271 1_555
O70 Si2 1.643324 1_455
O70 Ta8 2.027581 1_555
O71 Si3 1.655030 1_565
O71 Ta8 2.056507 1_555
