# generated using pymatgen
data_Na3P6N11
_symmetry_space_group_name_H-M   'P 1'
_cell_length_a   10.09767530
_cell_length_b   10.09767530
_cell_length_c   10.09767530
_cell_angle_alpha   90.00000000
_cell_angle_beta   90.00000000
_cell_angle_gamma   90.00000000
_symmetry_Int_Tables_number   1
_chemical_formula_structural   Na3P6N11
_chemical_formula_sum   'Na12 P24 N44'
_cell_volume   1029.58973579
_cell_formula_units_Z   4
loop_
 _symmetry_equiv_pos_site_id
 _symmetry_equiv_pos_as_xyz
  1  'x, y, z'
loop_
 _atom_site_type_symbol
 _atom_site_label
 _atom_site_symmetry_multiplicity
 _atom_site_fract_x
 _atom_site_fract_y
 _atom_site_fract_z
 _atom_site_occupancy
  Na  Na0  1  0.53115903  0.53115903  0.53115903  1
  Na  Na1  1  0.96884097  0.46884097  0.03115903  1
  Na  Na2  1  0.03115903  0.96884097  0.46884097  1
  Na  Na3  1  0.46884097  0.03115903  0.96884097  1
  Na  Na4  1  0.87468867  0.87468867  0.87468867  1
  Na  Na5  1  0.62531133  0.12531133  0.37468867  1
  Na  Na6  1  0.37468867  0.62531133  0.12531133  1
  Na  Na7  1  0.12531133  0.37468867  0.62531133  1
  Na  Na8  1  0.21850082  0.21850082  0.21850082  1
  Na  Na9  1  0.28149918  0.78149918  0.71850082  1
  Na  Na10  1  0.71850082  0.28149918  0.78149918  1
  Na  Na11  1  0.78149918  0.71850082  0.28149918  1
  P  P0  1  0.93674316  0.01489847  0.17382245  1
  P  P1  1  0.67382245  0.56325684  0.98510153  1
  P  P2  1  0.82617755  0.43674316  0.48510153  1
  P  P3  1  0.56325684  0.98510153  0.67382245  1
  P  P4  1  0.48510153  0.82617755  0.43674316  1
  P  P5  1  0.98510153  0.67382245  0.56325684  1
  P  P6  1  0.17382245  0.93674316  0.01489847  1
  P  P7  1  0.01489847  0.17382245  0.93674316  1
  P  P8  1  0.43674316  0.48510153  0.82617755  1
  P  P9  1  0.06325684  0.51489847  0.32617755  1
  P  P10  1  0.51489847  0.32617755  0.06325684  1
  P  P11  1  0.32617755  0.06325684  0.51489847  1
  P  P12  1  0.31176778  0.92529436  0.26504317  1
  P  P13  1  0.81176778  0.57470564  0.73495683  1
  P  P14  1  0.68823222  0.42529436  0.23495683  1
  P  P15  1  0.57470564  0.73495683  0.81176778  1
  P  P16  1  0.23495683  0.68823222  0.42529436  1
  P  P17  1  0.73495683  0.81176778  0.57470564  1
  P  P18  1  0.92529436  0.26504317  0.31176778  1
  P  P19  1  0.26504317  0.31176778  0.92529436  1
  P  P20  1  0.42529436  0.23495683  0.68823222  1
  P  P21  1  0.07470564  0.76504317  0.18823222  1
  P  P22  1  0.76504317  0.18823222  0.07470564  1
  P  P23  1  0.18823222  0.07470564  0.76504317  1
  N  N0  1  0.71214811  0.71214811  0.71214811  1
  N  N1  1  0.87975275  0.78532532  0.52116042  1
  N  N2  1  0.97883958  0.12024725  0.28532532  1
  N  N3  1  0.12024725  0.28532532  0.97883958  1
  N  N4  1  0.47883958  0.37975275  0.71467468  1
  N  N5  1  0.02116042  0.62024725  0.21467468  1
  N  N6  1  0.62024725  0.21467468  0.02116042  1
  N  N7  1  0.21467468  0.02116042  0.62024725  1
  N  N8  1  0.46145586  0.87506022  0.28691337  1
  N  N9  1  0.96145586  0.62493978  0.71308663  1
  N  N10  1  0.53854414  0.37506022  0.21308663  1
  N  N11  1  0.62493978  0.71308663  0.96145586  1
  N  N12  1  0.96472471  0.53527529  0.46472471  1
  N  N13  1  0.53527529  0.46472471  0.96472471  1
  N  N14  1  0.46472471  0.96472471  0.53527529  1
  N  N15  1  0.03527529  0.03527529  0.03527529  1
  N  N16  1  0.28785189  0.21214811  0.78785189  1
  N  N17  1  0.21214811  0.78785189  0.28785189  1
  N  N18  1  0.78785189  0.28785189  0.21214811  1
  N  N19  1  0.37975275  0.71467468  0.47883958  1
  N  N20  1  0.46199056  0.62994016  0.77224056  1
  N  N21  1  0.78532532  0.52116042  0.87975275  1
  N  N22  1  0.71467468  0.47883958  0.37975275  1
  N  N23  1  0.52116042  0.87975275  0.78532532  1
  N  N24  1  0.27224056  0.03800944  0.37005984  1
  N  N25  1  0.37005984  0.27224056  0.03800944  1
  N  N26  1  0.03800944  0.37005984  0.27224056  1
  N  N27  1  0.21308663  0.53854414  0.37506022  1
  N  N28  1  0.87005984  0.22775944  0.96199056  1
  N  N29  1  0.96199056  0.87005984  0.22775944  1
  N  N30  1  0.12993916  0.72775944  0.53800944  1
  N  N31  1  0.62994016  0.77224056  0.46199056  1
  N  N32  1  0.53800944  0.12993916  0.72775944  1
  N  N33  1  0.77224056  0.46199056  0.62994016  1
  N  N34  1  0.72775944  0.53800944  0.12993916  1
  N  N35  1  0.22775944  0.96199056  0.87005984  1
  N  N36  1  0.03854414  0.12493978  0.78691337  1
  N  N37  1  0.78691337  0.03854414  0.12493978  1
  N  N38  1  0.12493978  0.78691337  0.03854414  1
  N  N39  1  0.37506022  0.21308663  0.53854414  1
  N  N40  1  0.28691337  0.46145586  0.87506022  1
  N  N41  1  0.87506022  0.28691337  0.46145586  1
  N  N42  1  0.71308663  0.96145586  0.62493978  1
  N  N43  1  0.28532532  0.97883958  0.12024725  1
loop_
_geom_bond_atom_site_label_1
_geom_bond_atom_site_label_2
_geom_bond_distance
_geom_bond_site_symmetry_2
N0 P13 1.729468 1_555
N0 P17 1.729468 1_555
N0 P15 1.729468 1_555
N0 Na4 2.842783 1_555
N1 P17 1.581573 1_555
N1 P5 1.606240 1_555
N1 Na2 2.459757 1_655
N1 Na11 2.701138 1_555
N2 P18 1.581573 1_555
N2 P0 1.606240 1_555
N2 Na2 2.459757 1_645
N2 Na8 2.701138 1_655
N3 P19 1.581573 1_555
N3 P7 1.606240 1_555
N3 Na1 2.459757 1_456
N3 Na8 2.701138 1_556
N4 P20 1.581573 1_555
N4 P8 1.606240 1_555
N4 Na0 2.459757 1_555
N4 Na10 2.701138 1_555
N5 P21 1.581573 1_555
N5 P9 1.606240 1_555
N5 Na1 2.459757 1_455
N5 Na11 2.701138 1_455
N6 P22 1.581573 1_555
N6 P10 1.606240 1_555
N6 Na3 2.459757 1_554
N6 Na10 2.701138 1_554
N7 P23 1.581573 1_555
N7 P11 1.606240 1_555
N7 Na2 2.459757 1_545
N7 Na9 2.701138 1_545
N8 P4 1.609229 1_555
N8 P12 1.609567 1_555
N9 P5 1.609229 1_555
N9 P13 1.609567 1_555
N10 P10 1.609229 1_555
N10 P14 1.609567 1_555
N11 P1 1.609229 1_555
N11 P15 1.609567 1_555
N12 P9 1.729007 1_655
N12 P2 1.729007 1_555
N12 P5 1.729007 1_555
N12 Na7 2.808610 1_655
N13 P8 1.729007 1_555
N13 P10 1.729007 1_556
N13 P1 1.729007 1_555
N13 Na6 2.808610 1_556
N14 P4 1.729007 1_555
N14 P11 1.729007 1_565
N14 P3 1.729007 1_555
N14 Na5 2.808610 1_565
N15 P0 1.729007 1_455
N15 P7 1.729007 1_554
N15 P6 1.729007 1_545
N15 Na4 2.808610 1_444
N16 P20 1.729468 1_555
N16 P23 1.729468 1_555
N16 P19 1.729468 1_555
N16 Na7 2.842783 1_555
N17 P16 1.729468 1_555
N17 P12 1.729468 1_555
N17 P21 1.729468 1_555
N17 Na6 2.842783 1_555
N18 P14 1.729468 1_555
N18 P22 1.729468 1_555
N18 P18 1.729468 1_555
N18 Na5 2.842783 1_555
N19 P16 1.581573 1_555
N19 P4 1.606240 1_555
N19 Na0 2.459757 1_555
N19 Na9 2.701138 1_555
N20 P8 1.581338 1_555
N20 P15 1.605994 1_555
N20 Na9 2.440950 1_555
N20 Na0 2.721924 1_555
N21 P13 1.581573 1_555
N21 P1 1.606240 1_555
N21 Na1 2.459757 1_556
N21 Na10 2.701138 1_555
N22 P14 1.581573 1_555
N22 P2 1.606240 1_555
N22 Na0 2.459757 1_555
N22 Na11 2.701138 1_555
N23 P15 1.581573 1_555
N23 P3 1.606240 1_555
N23 Na3 2.459757 1_565
N23 Na9 2.701138 1_555
N24 P11 1.581338 1_555
N24 P12 1.605994 1_545
N24 Na8 2.440950 1_555
N24 Na2 2.721924 1_545
N25 P10 1.581338 1_555
N25 P19 1.605994 1_554
N25 Na8 2.440950 1_555
N25 Na3 2.721924 1_554
N26 P9 1.581338 1_555
N26 P18 1.605994 1_455
N26 Na8 2.440950 1_555
N26 Na1 2.721924 1_455
N27 P9 1.609229 1_555
N27 P16 1.609567 1_555
N28 P7 1.581338 1_655
N28 P22 1.605994 1_556
N28 Na10 2.440950 1_555
N28 Na1 2.721924 1_556
N29 P0 1.581338 1_565
N29 P21 1.605994 1_655
N29 Na11 2.440950 1_555
N29 Na2 2.721924 1_655
N30 P5 1.581328 1_455
N30 P16 1.606000 1_555
N30 Na9 2.440956 1_555
N30 Na2 2.721920 1_555
N31 P4 1.581338 1_555
N31 P17 1.605994 1_555
N31 Na11 2.440950 1_555
N31 Na0 2.721924 1_555
N32 P3 1.581328 1_545
N32 P20 1.606000 1_555
N32 Na10 2.440956 1_555
N32 Na3 2.721920 1_555
N33 P2 1.581338 1_555
N33 P13 1.605994 1_555
N33 Na10 2.440950 1_555
N33 Na0 2.721924 1_555
N34 P1 1.581328 1_554
N34 P14 1.606000 1_555
N34 Na11 2.440956 1_555
N34 Na1 2.721920 1_555
N35 P6 1.581338 1_556
N35 P23 1.605994 1_565
N35 Na9 2.440950 1_555
N35 Na3 2.721924 1_565
N36 P7 1.609229 1_555
N36 P23 1.609567 1_555
N37 P0 1.609229 1_555
N37 P22 1.609567 1_555
N38 P6 1.609229 1_555
N38 P21 1.609567 1_555
N39 P11 1.609229 1_555
N39 P20 1.609567 1_555
N40 P8 1.609229 1_555
N40 P19 1.609567 1_555
N41 P2 1.609229 1_555
N41 P18 1.609567 1_555
N42 P3 1.609229 1_555
N42 P17 1.609567 1_555
N43 P12 1.581573 1_555
N43 P6 1.606240 1_555
N43 Na3 2.459757 1_564
N43 Na8 2.701138 1_565
