# generated using pymatgen
data_PuGa3
_symmetry_space_group_name_H-M   'P 1'
_cell_length_a   6.29104030
_cell_length_b   6.29105494
_cell_length_c   4.53157299
_cell_angle_alpha   90.00000000
_cell_angle_beta   90.00000000
_cell_angle_gamma   120.00000571
_symmetry_Int_Tables_number   1
_chemical_formula_structural   PuGa3
_chemical_formula_sum   'Pu2 Ga6'
_cell_volume   155.31933837
_cell_formula_units_Z   2
loop_
 _symmetry_equiv_pos_site_id
 _symmetry_equiv_pos_as_xyz
  1  'x, y, z'
loop_
 _atom_site_type_symbol
 _atom_site_label
 _atom_site_symmetry_multiplicity
 _atom_site_fract_x
 _atom_site_fract_y
 _atom_site_fract_z
 _atom_site_occupancy
  Pu  Pu0  1  0.66666600  0.33333300  0.75000000  1
  Pu  Pu1  1  0.33333400  0.66666700  0.25000000  1
  Ga  Ga0  1  0.14658766  0.85341234  0.75000000  1
  Ga  Ga1  1  0.29281520  0.14640760  0.25000000  1
  Ga  Ga2  1  0.85359240  0.14640660  0.25000000  1
  Ga  Ga3  1  0.70682369  0.85341134  0.75000000  1
  Ga  Ga4  1  0.14658866  0.29317531  0.75000000  1
  Ga  Ga5  1  0.85359240  0.70718580  0.25000000  1
loop_
_geom_bond_atom_site_label_1
_geom_bond_atom_site_label_2
_geom_bond_distance
_geom_bond_site_symmetry_2
Ga0 Ga3 2.766570 1_455
Ga0 Ga4 2.766570 1_565
Ga0 Ga5 2.771634 1_455
Ga0 Ga5 2.771634 1_456
Ga0 Ga1 2.771636 1_565
Ga0 Ga1 2.771636 1_566
Ga0 Pu1 3.045397 1_556
Ga0 Pu1 3.045397 1_555
Ga0 Pu0 3.153120 1_565
Ga0 Pu0 3.153127 1_455
Ga1 Ga2 2.763165 1_455
Ga1 Ga5 2.763168 1_445
Ga1 Ga4 2.771632 1_554
Ga1 Ga4 2.771632 1_555
Ga1 Pu0 3.046703 1_554
Ga1 Pu0 3.046703 1_555
Ga1 Pu1 3.153264 1_545
Ga1 Pu1 3.153265 1_555
Ga2 Ga5 2.763162 1_545
Ga2 Ga3 2.771636 1_544
Ga2 Ga3 2.771636 1_545
Ga2 Ga4 2.771637 1_655
Ga2 Ga4 2.771637 1_654
Ga2 Pu0 3.046712 1_554
Ga2 Pu0 3.046712 1_555
Ga2 Pu1 3.153254 1_545
Ga2 Pu1 3.153267 1_655
Ga3 Ga4 2.766579 1_665
Ga3 Ga5 2.771632 1_556
Ga3 Ga5 2.771632 1_555
Ga3 Pu1 3.045388 1_555
Ga3 Pu1 3.045388 1_556
Ga3 Pu0 3.153124 1_555
Ga3 Pu0 3.153130 1_565
Ga4 Pu1 3.045399 1_555
Ga4 Pu1 3.045399 1_556
Ga4 Pu0 3.153110 1_555
Ga4 Pu0 3.153130 1_455
Ga5 Pu0 3.046714 1_554
Ga5 Pu0 3.046714 1_555
Ga5 Pu1 3.153250 1_555
Ga5 Pu1 3.153264 1_655
