# generated using pymatgen
data_TaNiB2
_symmetry_space_group_name_H-M   'P 1'
_cell_length_a   3.10772925
_cell_length_b   5.99753863
_cell_length_c   8.13804880
_cell_angle_alpha   90.00000000
_cell_angle_beta   90.00000000
_cell_angle_gamma   90.00000000
_symmetry_Int_Tables_number   1
_chemical_formula_structural   TaNiB2
_chemical_formula_sum   'Ta4 Ni4 B8'
_cell_volume   151.68286362
_cell_formula_units_Z   4
loop_
 _symmetry_equiv_pos_site_id
 _symmetry_equiv_pos_as_xyz
  1  'x, y, z'
loop_
 _atom_site_type_symbol
 _atom_site_label
 _atom_site_symmetry_multiplicity
 _atom_site_fract_x
 _atom_site_fract_y
 _atom_site_fract_z
 _atom_site_occupancy
  Ta  Ta0  1  0.25000000  0.63295291  0.36719106  1
  Ta  Ta1  1  0.75000000  0.36704709  0.63280894  1
  Ta  Ta2  1  0.25000000  0.13295291  0.13280894  1
  Ta  Ta3  1  0.75000000  0.86704709  0.86719106  1
  Ni  Ni0  1  0.75000000  0.99924110  0.38430724  1
  Ni  Ni1  1  0.75000000  0.49924110  0.11569276  1
  Ni  Ni2  1  0.25000000  0.00075890  0.61569276  1
  Ni  Ni3  1  0.25000000  0.50075890  0.88430724  1
  B  B0  1  0.25000000  0.67173478  0.66825947  1
  B  B1  1  0.75000000  0.32826522  0.33174053  1
  B  B2  1  0.25000000  0.17173478  0.83174053  1
  B  B3  1  0.75000000  0.82826522  0.16825947  1
  B  B4  1  0.25000000  0.74104531  0.07573018  1
  B  B5  1  0.75000000  0.75895469  0.57573018  1
  B  B6  1  0.25000000  0.24104531  0.42426982  1
  B  B7  1  0.75000000  0.25895469  0.92426982  1
loop_
_geom_bond_atom_site_label_1
_geom_bond_atom_site_label_2
_geom_bond_distance
_geom_bond_site_symmetry_2
Ni0 Ta2 2.691953 1_565
Ni0 Ta2 2.691953 1_665
Ni0 Ta0 2.694429 1_555
Ni0 Ta0 2.694429 1_655
Ni1 Ta0 2.691953 1_655
Ni1 Ta0 2.691953 1_555
Ni1 Ta2 2.694429 1_555
Ni1 Ta2 2.694429 1_655
Ni2 Ta3 2.691953 1_545
Ni2 Ta3 2.691953 1_445
Ni2 Ta1 2.694429 1_455
Ni2 Ta1 2.694429 1_555
Ni3 Ta1 2.691953 1_455
Ni3 Ta1 2.691953 1_555
Ni3 Ta3 2.694429 1_455
Ni3 Ta3 2.694429 1_555
B0 B5 1.804205 1_455
B0 B5 1.804205 1_555
B0 Ni2 2.019172 1_565
B0 Ni3 2.035389 1_555
B0 Ta1 2.415995 1_455
B0 Ta1 2.415995 1_555
B0 Ta0 2.461125 1_555
B0 Ta3 2.531312 1_455
B0 Ta3 2.531312 1_555
B1 B6 1.804205 1_555
B1 B6 1.804205 1_655
B1 Ni0 2.019172 1_545
B1 Ni1 2.035389 1_555
B1 Ta0 2.415995 1_555
B1 Ta0 2.415995 1_655
B1 Ta1 2.461125 1_555
B1 Ta2 2.531312 1_555
B1 Ta2 2.531312 1_655
B2 B7 1.804205 1_455
B2 B7 1.804205 1_555
B2 Ni3 2.019172 1_555
B2 Ni2 2.035389 1_555
B2 Ta3 2.415995 1_445
B2 Ta3 2.415995 1_545
B2 Ta2 2.461125 1_556
B2 Ta1 2.531312 1_455
B2 Ta1 2.531312 1_555
B3 B4 1.804205 1_655
B3 B4 1.804205 1_555
B3 Ni1 2.019172 1_555
B3 Ni0 2.035389 1_555
B3 Ta2 2.415995 1_665
B3 Ta2 2.415995 1_565
B3 Ta3 2.461125 1_554
B3 Ta0 2.531312 1_655
B3 Ta0 2.531312 1_555
B4 Ni3 2.122173 1_554
B4 Ni1 2.150216 1_455
B4 Ni1 2.150216 1_555
B4 Ta2 2.395940 1_565
B4 Ta3 2.421927 1_454
B4 Ta3 2.421927 1_554
B4 Ta0 2.458922 1_555
B5 Ni0 2.122173 1_555
B5 Ni2 2.150216 1_565
B5 Ni2 2.150216 1_665
B5 Ta1 2.395940 1_555
B5 Ta0 2.421927 1_555
B5 Ta0 2.421927 1_655
B5 Ta3 2.458922 1_555
B6 Ni2 2.122173 1_555
B6 Ni0 2.150216 1_545
B6 Ni0 2.150216 1_445
B6 Ta0 2.395940 1_555
B6 Ta1 2.421927 1_455
B6 Ta1 2.421927 1_555
B6 Ta2 2.458922 1_555
B7 Ni1 2.122173 1_556
B7 Ni3 2.150216 1_655
B7 Ni3 2.150216 1_555
B7 Ta3 2.395940 1_545
B7 Ta2 2.421927 1_556
B7 Ta2 2.421927 1_656
B7 Ta1 2.458922 1_555
