# generated using pymatgen
data_Ba(InS2)2
_symmetry_space_group_name_H-M   'P 1'
_cell_length_a   15.57690569
_cell_length_b   12.91379508
_cell_length_c   12.78763562
_cell_angle_alpha   74.62108549
_cell_angle_beta   53.06656716
_cell_angle_gamma   52.32563793
_symmetry_Int_Tables_number   1
_chemical_formula_structural   Ba(InS2)2
_chemical_formula_sum   'Ba8 In16 S32'
_cell_volume   1606.12439844
_cell_formula_units_Z   8
loop_
 _symmetry_equiv_pos_site_id
 _symmetry_equiv_pos_as_xyz
  1  'x, y, z'
loop_
 _atom_site_type_symbol
 _atom_site_label
 _atom_site_symmetry_multiplicity
 _atom_site_fract_x
 _atom_site_fract_y
 _atom_site_fract_z
 _atom_site_occupancy
  Ba  Ba0  1  0.49753947  0.49749814  0.00244457  1
  Ba  Ba1  1  0.00247193  0.00249216  0.49754121  1
  Ba  Ba2  1  0.75246104  0.75250156  0.24755443  1
  Ba  Ba3  1  0.24752827  0.24750707  0.75245890  1
  Ba  Ba4  1  0.24999140  0.25000951  0.25000915  1
  Ba  Ba5  1  0.00000831  0.99999012  0.99999073  1
  Ba  Ba6  1  0.74999036  0.75000704  0.75000874  1
  Ba  Ba7  1  0.50000959  0.49999242  0.49999166  1
  In  In0  1  0.23648575  0.51246255  0.48775408  1
  In  In1  1  0.76333920  0.48774094  0.51242717  1
  In  In2  1  0.48775425  0.76332293  0.23646958  1
  In  In3  1  0.51240709  0.23648498  0.76335578  1
  In  In4  1  0.01351444  0.73753765  0.76224567  1
  In  In5  1  0.48665875  0.76226078  0.73757344  1
  In  In6  1  0.76224587  0.48667670  0.01353038  1
  In  In7  1  0.73759354  0.01351452  0.48664398  1
  In  In8  1  0.58914552  0.16063678  0.26794800  1
  In  In9  1  0.98228077  0.26793597  0.16065130  1
  In  In10  1  0.26794253  0.98226715  0.58913598  1
  In  In11  1  0.16062920  0.58914211  0.98228985  1
  In  In12  1  0.66085476  0.08936259  0.98205175  1
  In  In13  1  0.26771910  0.98206449  0.08935099  1
  In  In14  1  0.98205720  0.26773275  0.66086314  1
  In  In15  1  0.08937097  0.66085788  0.26771006  1
  S  S0  1  0.30945202  0.43825939  0.77785976  1
  S  S1  1  0.47443723  0.77781693  0.43825813  1
  S  S2  1  0.77787602  0.47444469  0.30945807  1
  S  S3  1  0.43820247  0.30947568  0.47446211  1
  S  S4  1  0.94054823  0.81174039  0.47214025  1
  S  S5  1  0.77556252  0.47218205  0.81174277  1
  S  S6  1  0.47212293  0.77555611  0.94054218  1
  S  S7  1  0.81179790  0.94052422  0.77553736  1
  S  S8  1  0.97222416  0.78000064  0.96736883  1
  S  S9  1  0.28037686  0.96735954  0.78000824  1
  S  S10  1  0.96736093  0.28041698  0.97225363  1
  S  S11  1  0.77999957  0.97226354  0.28039245  1
  S  S12  1  0.27777587  0.46999953  0.28263094  1
  S  S13  1  0.96962143  0.28264115  0.46999205  1
  S  S14  1  0.28263895  0.96958280  0.27774721  1
  S  S15  1  0.47000058  0.27773571  0.96960764  1
  S  S16  1  0.20963906  0.20815438  0.04036080  1
  S  S17  1  0.54186262  0.04035995  0.20812381  1
  S  S18  1  0.04035104  0.54185506  0.20963597  1
  S  S19  1  0.20815412  0.20962056  0.54187594  1
  S  S20  1  0.04036098  0.04184592  0.20963930  1
  S  S21  1  0.70813750  0.20963943  0.04187598  1
  S  S22  1  0.20964905  0.70814491  0.04036400  1
  S  S23  1  0.04184573  0.04037934  0.70812316  1
  S  S24  1  0.54279775  0.54022221  0.70760093  1
  S  S25  1  0.20934822  0.70764393  0.54024145  1
  S  S26  1  0.70761904  0.20936184  0.54285682  1
  S  S27  1  0.54019841  0.54282116  0.20930746  1
  S  S28  1  0.70720143  0.70977857  0.54239954  1
  S  S29  1  0.04065189  0.54235627  0.70975831  1
  S  S30  1  0.54238165  0.04063755  0.70714302  1
  S  S31  1  0.70980154  0.70717877  0.04069239  1
loop_
_geom_bond_atom_site_label_1
_geom_bond_atom_site_label_2
_geom_bond_distance
_geom_bond_site_symmetry_2
Ba0 S15 3.278876 1_554
Ba0 S12 3.279188 1_555
Ba0 S6 3.287608 1_554
Ba0 S5 3.287751 1_554
Ba0 S22 3.304590 1_555
Ba0 S21 3.304847 1_555
Ba0 S27 3.345253 1_555
Ba0 S24 3.345849 1_554
Ba1 S14 3.278948 1_545
Ba1 S13 3.279040 1_455
Ba1 S7 3.287376 1_445
Ba1 S4 3.287739 1_445
Ba1 S23 3.304150 1_555
Ba1 S20 3.305093 1_555
Ba1 S26 3.345431 1_455
Ba1 S25 3.345774 1_545
Ba2 S11 3.278872 1_555
Ba2 S8 3.279183 1_554
Ba2 S2 3.287604 1_555
Ba2 S1 3.287765 1_555
Ba2 S18 3.304590 1_655
Ba2 S17 3.304843 1_565
Ba2 S31 3.345248 1_555
Ba2 S28 3.345859 1_555
Ba3 S10 3.278949 1_455
Ba3 S9 3.279035 1_545
Ba3 S3 3.287385 1_555
Ba3 S0 3.287745 1_555
Ba3 S19 3.304162 1_555
Ba3 S16 3.305092 1_556
Ba3 S30 3.345436 1_555
Ba3 S29 3.345783 1_555
Ba4 S13 3.283138 1_455
Ba4 S12 3.283374 1_555
Ba4 S15 3.283467 1_554
Ba4 S14 3.283767 1_545
Ba4 S16 3.329190 1_555
Ba4 S17 3.329239 1_555
Ba4 S18 3.329374 1_555
Ba4 S19 3.329652 1_555
Ba5 S9 3.283127 1_555
Ba5 S8 3.283364 1_455
Ba5 S11 3.283467 1_456
Ba5 S10 3.283771 1_465
Ba5 S20 3.329201 1_566
Ba5 S21 3.329235 1_466
Ba5 S22 3.329375 1_556
Ba5 S23 3.329661 1_565
Ba6 S5 3.283710 1_555
Ba6 S7 3.284153 1_555
Ba6 S6 3.284306 1_555
Ba6 S4 3.284334 1_555
Ba6 S28 3.323186 1_555
Ba6 S29 3.323525 1_655
Ba6 S30 3.323831 1_565
Ba6 S31 3.324348 1_556
Ba7 S1 3.283702 1_555
Ba7 S3 3.284148 1_555
Ba7 S2 3.284302 1_555
Ba7 S0 3.284327 1_555
Ba7 S24 3.323186 1_555
Ba7 S25 3.323527 1_555
Ba7 S26 3.323832 1_555
Ba7 S27 3.324355 1_555
In0 S12 2.428794 1_555
In0 S25 2.497244 1_555
In0 S29 2.499662 1_555
In0 S3 2.509937 1_555
In1 S13 2.428673 1_555
In1 S24 2.497457 1_555
In1 S28 2.499703 1_555
In1 S2 2.509960 1_555
In2 S14 2.428607 1_555
In2 S27 2.497305 1_555
In2 S31 2.499535 1_555
In2 S1 2.510370 1_555
In3 S15 2.428523 1_555
In3 S26 2.497506 1_555
In3 S30 2.499744 1_555
In3 S0 2.510164 1_555
In4 S8 2.428793 1_455
In4 S29 2.497245 1_555
In4 S25 2.499662 1_555
In4 S7 2.509935 1_455
In5 S9 2.428666 1_555
In5 S28 2.497466 1_555
In5 S24 2.499707 1_555
In5 S6 2.509961 1_555
In6 S10 2.428608 1_554
In6 S31 2.497307 1_555
In6 S27 2.499535 1_555
In6 S5 2.510364 1_554
In7 S11 2.428523 1_545
In7 S30 2.497507 1_555
In7 S26 2.499744 1_555
In7 S4 2.510161 1_545
In8 S3 2.429560 1_555
In8 S21 2.493447 1_555
In8 S17 2.499191 1_555
In8 S11 2.510864 1_545
In9 S2 2.429388 1_555
In9 S20 2.493526 1_655
In9 S16 2.499119 1_655
In9 S10 2.511011 1_554
In10 S1 2.429514 1_555
In10 S23 2.493387 1_565
In10 S19 2.499124 1_565
In10 S9 2.511064 1_555
In11 S0 2.429394 1_555
In11 S22 2.493471 1_556
In11 S18 2.499206 1_556
In11 S8 2.511159 1_455
In12 S7 2.429559 1_545
In12 S17 2.493447 1_556
In12 S21 2.499189 1_556
In12 S15 2.510862 1_555
In13 S6 2.429390 1_554
In13 S16 2.493529 1_565
In13 S20 2.499122 1_565
In13 S14 2.510990 1_555
In14 S5 2.429515 1_555
In14 S19 2.493388 1_655
In14 S23 2.499123 1_655
In14 S13 2.511060 1_555
In15 S4 2.429393 1_455
In15 S18 2.493472 1_555
In15 S22 2.499205 1_555
In15 S12 2.511156 1_555
