# generated using pymatgen
data_K4MgV2(CuS4)2
_symmetry_space_group_name_H-M   'P 1'
_cell_length_a   5.58431353
_cell_length_b   7.20665762
_cell_length_c   11.88231556
_cell_angle_alpha   84.36623434
_cell_angle_beta   76.40032953
_cell_angle_gamma   65.29586174
_symmetry_Int_Tables_number   1
_chemical_formula_structural   K4MgV2(CuS4)2
_chemical_formula_sum   'K4 Mg1 V2 Cu2 S8'
_cell_volume   422.24898908
_cell_formula_units_Z   1
loop_
 _symmetry_equiv_pos_site_id
 _symmetry_equiv_pos_as_xyz
  1  'x, y, z'
loop_
 _atom_site_type_symbol
 _atom_site_label
 _atom_site_symmetry_multiplicity
 _atom_site_fract_x
 _atom_site_fract_y
 _atom_site_fract_z
 _atom_site_occupancy
  K  K0  1  0.44802900  0.75017900  0.10341000  1
  K  K1  1  0.17706600  0.25009500  0.64667400  1
  K  K2  1  0.80699900  0.74990600  0.38664600  1
  K  K3  1  0.55206900  0.24995200  0.89659300  1
  Mg  Mg0  1  0.75164600  0.24983000  0.49726600  1
  V  V0  1  0.37658200  0.25008800  0.24711500  1
  V  V1  1  0.62691100  0.74992000  0.74644200  1
  Cu  Cu0  1  0.12889900  0.74984400  0.74259700  1
  Cu  Cu1  1  0.87874400  0.25014100  0.24295300  1
  S  S0  1  0.09132300  0.44970900  0.14306800  1
  S  S1  1  0.91150500  0.56173300  0.85367800  1
  S  S2  1  0.23485000  0.93838400  0.85358600  1
  S  S3  1  0.56502800  0.54229500  0.63357100  1
  S  S4  1  0.18157700  0.06291900  0.36760400  1
  S  S5  1  0.45103900  0.43693400  0.36782100  1
  S  S6  1  0.76599500  0.05062100  0.14298100  1
  S  S7  1  0.80173800  0.95745000  0.63355200  1
loop_
_geom_bond_atom_site_label_1
_geom_bond_atom_site_label_2
_geom_bond_distance
_geom_bond_site_symmetry_2
K0 S1 3.404402 1_554
K0 S2 3.404479 1_554
K0 S0 3.441287 1_555
K0 S6 3.444991 1_565
K0 S6 3.446732 1_465
K0 S0 3.451037 1_655
K0 S4 3.679378 1_565
K0 S5 3.683470 1_555
K1 S2 3.142915 1_545
K1 S1 3.143008 1_455
K1 S7 3.209395 1_545
K1 S3 3.210921 1_455
K1 S3 3.569688 1_555
K1 S7 3.574664 1_445
K1 S5 3.687072 1_555
K1 S4 3.691420 1_555
K2 S5 3.318506 1_655
K2 S4 3.320206 1_565
K2 S7 3.410211 1_555
K2 S3 3.411237 1_555
K2 S0 3.431509 1_655
K2 S6 3.434648 1_565
K2 S4 3.624428 1_665
K2 S5 3.625500 1_555
K3 S6 3.383269 1_556
K3 S0 3.384935 1_556
K3 S2 3.463184 1_645
K3 S1 3.466838 1_455
K3 S1 3.521490 1_555
K3 S2 3.523711 1_545
K3 S3 3.597189 1_555
K3 S7 3.597781 1_545
Mg0 S5 2.432479 1_555
Mg0 S4 2.432501 1_655
Mg0 S7 2.488151 1_545
Mg0 S3 2.488391 1_555
Cu0 S1 2.307485 1_455
Cu0 S2 2.307865 1_555
Cu0 S3 2.387220 1_555
Cu0 S7 2.388092 1_455
Cu1 S0 2.305581 1_655
Cu1 S6 2.306258 1_555
Cu1 S4 2.398428 1_655
Cu1 S5 2.399234 1_555
S0 V0 2.190223 1_555
S1 V1 2.190913 1_555
S2 V1 2.191368 1_555
S3 V1 2.280611 1_555
S4 V0 2.273862 1_555
S5 V0 2.273935 1_555
S6 V0 2.190267 1_555
S7 V1 2.280353 1_555
