# generated using pymatgen
data_Np(MnGe)2
_symmetry_space_group_name_H-M   'P 1'
_cell_length_a   5.84111605
_cell_length_b   5.84111605
_cell_length_c   5.84111605
_cell_angle_alpha   139.99777338
_cell_angle_beta   139.99777338
_cell_angle_gamma   57.85667941
_symmetry_Int_Tables_number   1
_chemical_formula_structural   Np(MnGe)2
_chemical_formula_sum   'Np1 Mn2 Ge2'
_cell_volume   81.62386119
_cell_formula_units_Z   1
loop_
 _symmetry_equiv_pos_site_id
 _symmetry_equiv_pos_as_xyz
  1  'x, y, z'
loop_
 _atom_site_type_symbol
 _atom_site_label
 _atom_site_symmetry_multiplicity
 _atom_site_fract_x
 _atom_site_fract_y
 _atom_site_fract_z
 _atom_site_occupancy
  Np  Np0  1  0.00000000  0.00000000  0.00000000  1
  Mn  Mn0  1  0.25000000  0.75000000  0.50000000  1
  Mn  Mn1  1  0.75000000  0.25000000  0.50000000  1
  Ge  Ge0  1  0.62492800  0.62492800  0.00000000  1
  Ge  Ge1  1  0.37507200  0.37507200  0.00000000  1
loop_
_geom_bond_atom_site_label_1
_geom_bond_atom_site_label_2
_geom_bond_distance
_geom_bond_site_symmetry_2
Mn0 Np0 3.244292 1_565
Mn0 Np0 3.244292 1_666
Mn0 Np0 3.244292 1_555
Mn0 Np0 3.244292 1_566
Mn1 Np0 3.244292 1_656
Mn1 Np0 3.244292 1_666
Mn1 Np0 3.244292 1_655
Mn1 Np0 3.244292 1_555
Ge0 Mn0 2.372109 1_655
Ge0 Mn0 2.372109 1_554
Ge0 Mn1 2.372109 1_565
Ge0 Mn1 2.372109 1_554
Ge0 Ge1 2.554674 1_555
Ge0 Np0 3.100756 1_554
Ge0 Np0 3.100756 1_565
Ge0 Np0 3.100756 1_655
Ge0 Np0 3.100756 1_666
Ge1 Mn0 2.372109 1_555
Ge1 Mn1 2.372109 1_555
Ge1 Mn1 2.372109 1_454
Ge1 Mn0 2.372109 1_544
Ge1 Np0 3.100756 1_565
Ge1 Np0 3.100756 1_554
Ge1 Np0 3.100756 1_666
Ge1 Np0 3.100756 1_655
