# generated using pymatgen
data_MgCo4NiO8
_symmetry_space_group_name_H-M   'P 1'
_cell_length_a   5.83870499
_cell_length_b   5.76756296
_cell_length_c   5.95043109
_cell_angle_alpha   88.46669575
_cell_angle_beta   60.62086538
_cell_angle_gamma   59.20348271
_symmetry_Int_Tables_number   1
_chemical_formula_structural   MgCo4NiO8
_chemical_formula_sum   'Mg1 Co4 Ni1 O8'
_cell_volume   143.08918608
_cell_formula_units_Z   1
loop_
 _symmetry_equiv_pos_site_id
 _symmetry_equiv_pos_as_xyz
  1  'x, y, z'
loop_
 _atom_site_type_symbol
 _atom_site_label
 _atom_site_symmetry_multiplicity
 _atom_site_fract_x
 _atom_site_fract_y
 _atom_site_fract_z
 _atom_site_occupancy
  Mg  Mg0  1  0.50000000  0.50000000  0.50000000  1
  Co  Co0  1  0.00000000  0.50000000  0.50000000  1
  Co  Co1  1  0.00000000  0.00000000  0.00000000  1
  Co  Co2  1  0.50000000  0.00000000  0.00000000  1
  Co  Co3  1  0.00000000  0.50000000  0.00000000  1
  Ni  Ni0  1  0.50000000  0.50000000  0.00000000  1
  O  O0  1  0.46536100  0.27922300  0.79794200  1
  O  O1  1  0.95843700  0.28429500  0.79699200  1
  O  O2  1  0.48539800  0.76442600  0.75670200  1
  O  O3  1  0.99786700  0.73860300  0.76784900  1
  O  O4  1  0.00213300  0.26139700  0.23215100  1
  O  O5  1  0.51460200  0.23557400  0.24329800  1
  O  O6  1  0.04156300  0.71570500  0.20300800  1
  O  O7  1  0.53463900  0.72077700  0.20205800  1
loop_
_geom_bond_atom_site_label_1
_geom_bond_atom_site_label_2
_geom_bond_distance
_geom_bond_site_symmetry_2
Mg0 O4 2.104937 1_655
Mg0 O3 2.104937 1_455
Mg0 O5 2.128414 1_555
Mg0 O2 2.128414 1_555
Mg0 O7 2.143948 1_555
Mg0 O0 2.143948 1_555
Co0 O1 2.121429 1_455
Co0 O6 2.121429 1_555
Co0 O3 2.124752 1_455
Co0 O4 2.124752 1_555
Co0 O5 2.148529 1_555
Co0 O2 2.148529 1_455
Co1 O6 1.995213 1_545
Co1 O1 1.995213 1_454
Co1 O5 2.027453 1_455
Co1 O2 2.027453 1_544
Co1 O4 2.080602 1_555
Co1 O3 2.080602 1_444
Co2 O0 1.970143 1_554
Co2 O7 1.970143 1_545
Co2 O2 2.072246 1_544
Co2 O5 2.072246 1_555
Co2 O3 2.077285 1_544
Co2 O4 2.077285 1_555
Co3 O3 1.923492 1_454
Co3 O4 1.923492 1_555
Co3 O1 1.934706 1_454
Co3 O6 1.934706 1_555
Co3 O7 1.945113 1_455
Co3 O0 1.945113 1_554
Ni0 O1 1.915626 1_554
Ni0 O6 1.915626 1_555
Ni0 O0 1.921495 1_554
Ni0 O7 1.921495 1_555
Ni0 O5 2.073379 1_555
Ni0 O2 2.073379 1_554
