# generated using pymatgen
data_Na30Mg16Ta8Si15(S7O48)3
_symmetry_space_group_name_H-M   'P 1'
_cell_length_a   17.95140493
_cell_length_b   8.98261512
_cell_length_c   22.40202746
_cell_angle_alpha   89.98267638
_cell_angle_beta   89.87716867
_cell_angle_gamma   120.00241400
_symmetry_Int_Tables_number   1
_chemical_formula_structural   Na30Mg16Ta8Si15(S7O48)3
_chemical_formula_sum   'Na30 Mg16 Ta8 Si15 S21 O144'
_cell_volume   3128.29054762
_cell_formula_units_Z   1
loop_
 _symmetry_equiv_pos_site_id
 _symmetry_equiv_pos_as_xyz
  1  'x, y, z'
loop_
 _atom_site_type_symbol
 _atom_site_label
 _atom_site_symmetry_multiplicity
 _atom_site_fract_x
 _atom_site_fract_y
 _atom_site_fract_z
 _atom_site_occupancy
  Na  Na0  1  0.32387924  0.02245476  0.24774692  1
  Na  Na1  1  0.82363646  0.02118760  0.24816675  1
  Na  Na2  1  0.18652973  0.34938749  0.24835439  1
  Na  Na3  1  0.68447732  0.34886351  0.24789427  1
  Na  Na4  1  0.98898272  0.62726184  0.24886213  1
  Na  Na5  1  0.48747019  0.61876623  0.24170511  1
  Na  Na6  1  0.32279815  0.62522420  0.74908149  1
  Na  Na7  1  0.82571750  0.62795466  0.74956060  1
  Na  Na8  1  0.98760637  0.35509186  0.74349441  1
  Na  Na9  1  0.48721284  0.35450858  0.74268835  1
  Na  Na10  1  0.18405702  0.02185017  0.74902492  1
  Na  Na11  1  0.68578832  0.02222749  0.74837990  1
  Na  Na12  1  0.01325787  0.67697154  0.58888752  1
  Na  Na13  1  0.51350184  0.67719339  0.58811213  1
  Na  Na14  1  0.51333988  0.34893772  0.08569512  1
  Na  Na15  1  0.47926487  0.66533393  0.91828012  1
  Na  Na16  1  0.47960850  0.29362079  0.42028079  1
  Na  Na17  1  0.97926602  0.29299079  0.42156904  1
  Na  Na18  1  0.99842375  0.00623894  0.50087445  1
  Na  Na19  1  0.49897100  0.00648540  0.50029864  1
  Na  Na20  1  0.00060416  0.00106912  0.99240113  1
  Na  Na21  1  0.49796465  0.99024304  0.99719017  1
  Na  Na22  1  0.32744245  0.32113627  0.82692996  1
  Na  Na23  1  0.83551920  0.33675385  0.82804491  1
  Na  Na24  1  0.32955498  0.33462361  0.32708527  1
  Na  Na25  1  0.82749774  0.33309958  0.32860673  1
  Na  Na26  1  0.16710078  0.66595920  0.15588642  1
  Na  Na27  1  0.66390116  0.67756333  0.15437581  1
  Na  Na28  1  0.16368618  0.65074809  0.65664614  1
  Na  Na29  1  0.66430600  0.65138511  0.65578912  1
  Mg  Mg0  1  0.00021462  0.99662724  0.34773270  1
  Mg  Mg1  1  0.50124225  0.99695008  0.34772031  1
  Mg  Mg2  1  0.00087386  0.00152705  0.84876394  1
  Mg  Mg3  1  0.50109904  0.00559425  0.84739625  1
  Mg  Mg4  1  0.33772543  0.33472602  0.68498979  1
  Mg  Mg5  1  0.83816024  0.33459368  0.68489702  1
  Mg  Mg6  1  0.33774069  0.34077487  0.18435810  1
  Mg  Mg7  1  0.83390810  0.33326610  0.18462367  1
  Mg  Mg8  1  0.33157691  0.33860038  0.98578227  1
  Mg  Mg9  1  0.83536159  0.33691122  0.98093415  1
  Mg  Mg10  1  0.33358193  0.32668961  0.48839512  1
  Mg  Mg11  1  0.83327545  0.32608044  0.48864006  1
  Mg  Mg12  1  0.16584892  0.66532893  0.01631327  1
  Mg  Mg13  1  0.66798005  0.67529581  0.01936383  1
  Mg  Mg14  1  0.16737687  0.66112581  0.52038757  1
  Mg  Mg15  1  0.66753590  0.66128263  0.52007229  1
  Ta  Ta0  1  0.99943670  0.01300958  0.65090992  1
  Ta  Ta1  1  0.49888727  0.01205338  0.65098237  1
  Ta  Ta2  1  0.00016131  0.00023497  0.15053250  1
  Ta  Ta3  1  0.49922183  0.98615479  0.14983476  1
  Ta  Ta4  1  0.16725072  0.66783585  0.31101890  1
  Ta  Ta5  1  0.66680315  0.66568820  0.31072719  1
  Ta  Ta6  1  0.16419565  0.66695702  0.81184865  1
  Ta  Ta7  1  0.66751625  0.66623500  0.81145121  1
  Si  Si0  1  0.14668748  0.00543017  0.25239839  1
  Si  Si1  1  0.64723245  0.00524871  0.25404174  1
  Si  Si2  1  0.35514720  0.70588205  0.25390023  1
  Si  Si3  1  0.85557863  0.70681108  0.25243261  1
  Si  Si4  1  0.99827338  0.28868941  0.25492927  1
  Si  Si5  1  0.49790007  0.28455790  0.25334504  1
  Si  Si6  1  0.14743184  0.29026234  0.75467281  1
  Si  Si7  1  0.64791301  0.28949453  0.75396824  1
  Si  Si8  1  0.99762237  0.71207262  0.75133897  1
  Si  Si9  1  0.49844029  0.71109542  0.75379497  1
  Si  Si10  1  0.35386351  0.00296906  0.75453708  1
  Si  Si11  1  0.85553236  0.00464376  0.75481255  1
  Si  Si12  1  0.48265501  0.33524452  0.58064386  1
  Si  Si13  1  0.98273273  0.33480569  0.58055647  1
  Si  Si14  1  0.48243379  0.62816218  0.08065319  1
  S  S0  1  0.18507490  0.03949811  0.58298404  1
  S  S1  1  0.68471114  0.03852810  0.58320187  1
  S  S2  1  0.33405009  0.62877964  0.58303272  1
  S  S3  1  0.83381380  0.62905033  0.58296994  1
  S  S4  1  0.98098893  0.62988299  0.08319483  1
  S  S5  1  0.33149455  0.03552224  0.08333857  1
  S  S6  1  0.83636959  0.04274052  0.08298516  1
  S  S7  1  0.18356590  0.33177394  0.08366314  1
  S  S8  1  0.68733982  0.33218382  0.08273820  1
  S  S9  1  0.31124975  0.66566995  0.91791320  1
  S  S10  1  0.81182156  0.66647963  0.91960566  1
  S  S11  1  0.02054399  0.37451496  0.91938323  1
  S  S12  1  0.52094844  0.37049059  0.91869904  1
  S  S13  1  0.16711479  0.95906410  0.91945625  1
  S  S14  1  0.66848160  0.96110046  0.91804914  1
  S  S15  1  0.31085356  0.95576797  0.41832646  1
  S  S16  1  0.81081512  0.95542781  0.41810659  1
  S  S17  1  0.16824964  0.37651750  0.41796298  1
  S  S18  1  0.66826915  0.37613503  0.41814709  1
  S  S19  1  0.02106017  0.67142492  0.41808602  1
  S  S20  1  0.52147939  0.67166906  0.41822994  1
  O  O0  1  0.10684728  0.04809717  0.30810559  1
  O  O1  1  0.60904897  0.04988075  0.31003664  1
  O  O2  1  0.41586210  0.78855898  0.30933332  1
  O  O3  1  0.91634070  0.78738172  0.30805767  1
  O  O4  1  0.48359375  0.17802217  0.31325179  1
  O  O5  1  0.97958877  0.17874965  0.31437241  1
  O  O6  1  0.10871546  0.16932261  0.81055003  1
  O  O7  1  0.60887493  0.16860818  0.80990452  1
  O  O8  1  0.48377308  0.78892214  0.81361765  1
  O  O9  1  0.98055292  0.79653266  0.80728628  1
  O  O10  1  0.41599571  0.04409483  0.80922124  1
  O  O11  1  0.91695283  0.04622652  0.80979013  1
  O  O12  1  0.39808031  0.95778072  0.69485283  1
  O  O13  1  0.89886809  0.95835729  0.69493320  1
  O  O14  1  0.07932059  0.20370006  0.69589377  1
  O  O15  1  0.57918206  0.20329257  0.69569899  1
  O  O16  1  0.02117987  0.83526885  0.68954813  1
  O  O17  1  0.52069634  0.83783368  0.69333381  1
  O  O18  1  0.39879371  0.83871874  0.19445989  1
  O  O19  1  0.89963707  0.84158075  0.19338691  1
  O  O20  1  0.02033369  0.19557647  0.19711031  1
  O  O21  1  0.52060961  0.20324027  0.19303568  1
  O  O22  1  0.07851564  0.95647999  0.19365688  1
  O  O23  1  0.57948969  0.95608655  0.19564667  1
  O  O24  1  0.43895020  0.36346351  0.63979189  1
  O  O25  1  0.93880967  0.36245466  0.63955170  1
  O  O26  1  0.23194319  0.11749305  0.63813881  1
  O  O27  1  0.73183820  0.11740095  0.63834343  1
  O  O28  1  0.32173474  0.53095370  0.63865031  1
  O  O29  1  0.82168225  0.53097032  0.63850320  1
  O  O30  1  0.44010494  0.51602800  0.14083574  1
  O  O31  1  0.94242133  0.53377369  0.13919565  1
  O  O32  1  0.31999678  0.10849341  0.13935685  1
  O  O33  1  0.82617954  0.11834814  0.13910250  1
  O  O34  1  0.23107989  0.34980853  0.13921362  1
  O  O35  1  0.73394248  0.34778703  0.13877983  1
  O  O36  1  0.22325431  0.30380982  0.03092726  1
  O  O37  1  0.72905859  0.30692903  0.03075684  1
  O  O38  1  0.42747354  0.55114154  0.01972662  1
  O  O39  1  0.92722520  0.54609975  0.03106226  1
  O  O40  1  0.34444995  0.14644530  0.03140535  1
  O  O41  1  0.84792366  0.15059121  0.03089965  1
  O  O42  1  0.22471470  0.14700843  0.52986691  1
  O  O43  1  0.72402814  0.14659877  0.53003322  1
  O  O44  1  0.34660969  0.54360957  0.53064849  1
  O  O45  1  0.84621422  0.54287193  0.53045086  1
  O  O46  1  0.42880303  0.30121087  0.51875050  1
  O  O47  1  0.92899522  0.30139924  0.51857235  1
  O  O48  1  0.26619810  0.67965186  0.97013363  1
  O  O49  1  0.76507920  0.68145230  0.97075364  1
  O  O50  1  0.07400366  0.46590343  0.97070070  1
  O  O51  1  0.57224212  0.45834134  0.97174635  1
  O  O52  1  0.15924391  0.85086794  0.97070003  1
  O  O53  1  0.65802552  0.84906365  0.96891441  1
  O  O54  1  0.26448738  0.84976994  0.46959637  1
  O  O55  1  0.76496072  0.85074353  0.46936136  1
  O  O56  1  0.15812527  0.46810248  0.46824189  1
  O  O57  1  0.65858262  0.46844647  0.46833200  1
  O  O58  1  0.07256217  0.68535448  0.47047631  1
  O  O59  1  0.57246822  0.68571948  0.47083845  1
  O  O60  1  0.06857559  0.65066543  0.36283901  1
  O  O61  1  0.56944424  0.65128974  0.36332534  1
  O  O62  1  0.25849745  0.86138713  0.36181034  1
  O  O63  1  0.75942382  0.86232757  0.36150188  1
  O  O64  1  0.17627442  0.48311845  0.36083809  1
  O  O65  1  0.67676318  0.48242634  0.36096692  1
  O  O66  1  0.06668002  0.48448371  0.86317420  1
  O  O67  1  0.56843013  0.48640409  0.86419190  1
  O  O68  1  0.17533622  0.86678733  0.86284367  1
  O  O69  1  0.67689005  0.87148577  0.86160836  1
  O  O70  1  0.25956418  0.65483022  0.86213017  1
  O  O71  1  0.75773144  0.65004053  0.86302378  1
  O  O72  1  0.01349718  0.82504511  0.41186132  1
  O  O73  1  0.51354265  0.82506188  0.41209295  1
  O  O74  1  0.39745247  0.97624038  0.41441410  1
  O  O75  1  0.89793671  0.97650205  0.41439904  1
  O  O76  1  0.08817302  0.20791885  0.41311205  1
  O  O77  1  0.58842483  0.20786925  0.41370622  1
  O  O78  1  0.01342306  0.20556575  0.91408032  1
  O  O79  1  0.51313630  0.20134999  0.91290437  1
  O  O80  1  0.08929947  0.97235591  0.91432906  1
  O  O81  1  0.58844689  0.96991731  0.91387439  1
  O  O82  1  0.39841474  0.81856031  0.91464573  1
  O  O83  1  0.89663553  0.82086771  0.91438666  1
  O  O84  1  0.49129067  0.15432216  0.59012031  1
  O  O85  1  0.99155296  0.15409138  0.58949553  1
  O  O86  1  0.09388738  0.01224164  0.58660347  1
  O  O87  1  0.59331728  0.01068366  0.58731085  1
  O  O88  1  0.41861206  0.80075132  0.58753131  1
  O  O89  1  0.91821859  0.80075475  0.58707108  1
  O  O90  1  0.49141849  0.82742968  0.09013825  1
  O  O91  1  0.98861547  0.80799109  0.08824197  1
  O  O92  1  0.41582948  0.03061796  0.08792346  1
  O  O93  1  0.91842227  0.02926915  0.08823166  1
  O  O94  1  0.09365626  0.16980043  0.08899372  1
  O  O95  1  0.59609921  0.17595011  0.08707139  1
  O  O96  1  0.33218088  0.15262054  0.74244487  1
  O  O97  1  0.83294474  0.15297852  0.74247758  1
  O  O98  1  0.24232821  0.32883110  0.73878123  1
  O  O99  1  0.74291129  0.32924001  0.73846535  1
  O  O100  1  0.41945089  0.51974919  0.74436327  1
  O  O101  1  0.91994361  0.51863243  0.74314410  1
  O  O102  1  0.33274953  0.51232991  0.24258824  1
  O  O103  1  0.83588524  0.51537771  0.23915481  1
  O  O104  1  0.41901219  0.31850768  0.24430990  1
  O  O105  1  0.92207634  0.32644818  0.24023812  1
  O  O106  1  0.24202921  0.15580077  0.23795178  1
  O  O107  1  0.74295621  0.15661179  0.23976718  1
  O  O108  1  0.31735196  0.50659569  0.91740225  1
  O  O109  1  0.81662596  0.50683020  0.92085482  1
  O  O110  1  0.43628235  0.36270854  0.91824162  1
  O  O111  1  0.93579109  0.36499004  0.92063639  1
  O  O112  1  0.24682972  0.12799660  0.92083223  1
  O  O113  1  0.74630472  0.13051707  0.92066116  1
  O  O114  1  0.31603297  0.12563832  0.41675272  1
  O  O115  1  0.81660994  0.12646617  0.41665651  1
  O  O116  1  0.24619035  0.36281912  0.41997176  1
  O  O117  1  0.74654840  0.36245066  0.42018004  1
  O  O118  1  0.43676775  0.50994320  0.41725331  1
  O  O119  1  0.93650880  0.50984567  0.41705723  1
  O  O120  1  0.17102723  0.48247236  0.07740399  1
  O  O121  1  0.67551664  0.48431748  0.07706426  1
  O  O122  1  0.06904348  0.65547539  0.07751598  1
  O  O123  1  0.57832691  0.64813863  0.07682534  1
  O  O124  1  0.25858661  0.85838349  0.07643638  1
  O  O125  1  0.76257383  0.86659938  0.07726596  1
  O  O126  1  0.17418892  0.86423829  0.57643278  1
  O  O127  1  0.67403960  0.86416160  0.57662313  1
  O  O128  1  0.26262541  0.66279597  0.57581920  1
  O  O129  1  0.76234141  0.66223614  0.57575860  1
  O  O130  1  0.07836954  0.50761250  0.57724884  1
  O  O131  1  0.57823272  0.50783473  0.57715987  1
  O  O132  1  0.14992829  0.82124392  0.26003187  1
  O  O133  1  0.65181835  0.82292557  0.26070435  1
  O  O134  1  0.25991679  0.70143800  0.25942710  1
  O  O135  1  0.76025237  0.69938362  0.25901895  1
  O  O136  1  0.08984186  0.48009792  0.25981502  1
  O  O137  1  0.58853305  0.48041431  0.26052789  1
  O  O138  1  0.15110189  0.48086721  0.76141850  1
  O  O139  1  0.65126015  0.47990415  0.76091174  1
  O  O140  1  0.08835606  0.69797100  0.76009520  1
  O  O141  1  0.58904702  0.69684225  0.76123680  1
  O  O142  1  0.25906793  0.81875660  0.76078413  1
  O  O143  1  0.76043076  0.81886950  0.76036344  1
loop_
_geom_bond_atom_site_label_1
_geom_bond_atom_site_label_2
_geom_bond_distance
_geom_bond_site_symmetry_2
Na0 O106 2.324452 1_555
Na0 O104 2.334930 1_555
Na0 O134 2.527626 1_545
Na0 O32 2.559602 1_555
Na0 O132 2.728583 1_545
Na0 O18 2.858578 1_545
Na0 O62 2.878680 1_545
Na0 O4 2.887711 1_555
Na1 O107 2.318582 1_555
Na1 O105 2.413616 1_555
Na1 O135 2.533507 1_545
Na1 O33 2.586831 1_555
Na1 O133 2.695643 1_545
Na1 O5 2.845505 1_555
Na1 O63 2.855075 1_545
Na1 O19 2.857531 1_545
Na2 O102 2.281466 1_555
Na2 O106 2.408854 1_555
Na2 O136 2.548214 1_555
Na2 O34 2.570230 1_555
Na2 O0 2.698211 1_555
Na2 O134 2.762778 1_555
Na2 O20 2.832145 1_555
Na2 O64 2.836832 1_555
Na3 O103 2.365344 1_555
Na3 O107 2.435125 1_555
Na3 O137 2.544872 1_555
Na3 O35 2.600556 1_555
Na3 O1 2.708695 1_555
Na3 O135 2.746767 1_555
Na3 O65 2.835740 1_555
Na3 O21 2.836016 1_555
Na4 O105 2.353056 1_555
Na4 O103 2.418879 1_555
Na4 O132 2.532773 1_655
Na4 O31 2.597606 1_555
Na4 O3 2.719774 1_555
Na4 O136 2.735161 1_655
Na4 O22 2.844972 1_655
Na4 O60 2.884555 1_655
Na5 O104 2.339415 1_555
Na5 O30 2.430131 1_555
Na5 O102 2.443936 1_555
Na5 O133 2.615995 1_555
Na5 O137 2.696559 1_555
Na5 O23 2.821267 1_555
Na5 O2 2.868383 1_555
Na6 O98 2.320309 1_555
Na6 O100 2.358491 1_555
Na6 O142 2.527386 1_555
Na6 O28 2.612054 1_555
Na6 O138 2.693857 1_555
Na6 O70 2.839525 1_555
Na6 O12 2.859922 1_555
Na6 O8 2.893544 1_555
Na7 O99 2.341856 1_555
Na7 O101 2.346558 1_555
Na7 O143 2.526281 1_555
Na7 O29 2.625426 1_555
Na7 O139 2.733560 1_555
Na7 O9 2.738313 1_555
Na7 O13 2.850198 1_555
Na7 O71 2.866839 1_555
Na8 O101 2.327647 1_555
Na8 O97 2.442194 1_555
Na8 O25 2.502065 1_555
Na8 O138 2.596326 1_655
Na8 O140 2.707066 1_655
Na8 O14 2.815935 1_655
Na8 O11 2.825252 1_555
Na8 O66 2.987006 1_655
Na9 O100 2.343014 1_555
Na9 O96 2.446789 1_555
Na9 O24 2.479652 1_555
Na9 O139 2.606884 1_555
Na9 O141 2.711577 1_555
Na9 O15 2.813353 1_555
Na9 O10 2.838138 1_555
Na10 O96 2.312257 1_555
Na10 O98 2.421682 1_555
Na10 O140 2.544829 1_545
Na10 O26 2.626527 1_555
Na10 O6 2.696027 1_555
Na10 O142 2.769232 1_545
Na10 O68 2.871236 1_545
Na10 O16 2.872383 1_545
Na11 O97 2.295839 1_555
Na11 O99 2.424190 1_555
Na11 O141 2.561797 1_545
Na11 O27 2.602667 1_555
Na11 O7 2.709877 1_555
Na11 O143 2.766469 1_545
Na11 O69 2.841290 1_545
Na11 O17 2.855694 1_545
Na12 O130 2.350683 1_555
Na12 O89 2.458884 1_455
Na12 O126 2.527789 1_555
Na12 O86 2.609140 1_565
Na12 O16 2.632149 1_555
Na12 O25 2.696574 1_455
Na12 O58 2.843096 1_555
Na12 O45 2.926117 1_455
Na13 O131 2.343427 1_555
Na13 O88 2.454458 1_555
Na13 O127 2.519575 1_555
Na13 O87 2.595067 1_565
Na13 O24 2.700516 1_555
Na13 O17 2.733518 1_555
Na13 O59 2.816956 1_555
Na13 O44 2.914612 1_555
Na14 O123 2.342383 1_555
Na14 O92 2.497288 1_555
Na14 O121 2.539434 1_555
Na14 O95 2.632773 1_555
Na14 O30 2.733945 1_555
Na14 O51 2.747311 1_554
Na14 O21 2.771717 1_555
Na14 O40 2.912321 1_555
Na15 O110 2.426366 1_555
Na15 O81 2.443952 1_555
Na15 O82 2.450660 1_555
Na15 O38 2.473275 1_556
Na15 O108 2.517376 1_555
Na15 O8 2.577620 1_555
Na16 O46 2.399205 1_555
Na16 O118 2.422079 1_555
Na16 O77 2.436064 1_555
Na16 O74 2.473097 1_545
Na16 O114 2.544706 1_555
Na16 O4 2.628158 1_555
Na17 O47 2.366893 1_555
Na17 O119 2.426771 1_555
Na17 O76 2.436101 1_655
Na17 O75 2.467754 1_545
Na17 O115 2.531589 1_555
Na17 O5 2.612909 1_555
Na18 O85 2.425864 1_555
Na18 O89 2.556715 1_545
Na18 O86 2.559257 1_655
Na18 O75 2.571303 1_545
Na18 O76 2.609283 1_655
Na18 O72 2.671836 1_645
Na19 O84 2.452533 1_555
Na19 O74 2.572331 1_545
Na19 O87 2.572891 1_555
Na19 O88 2.575788 1_545
Na19 O77 2.587167 1_555
Na19 O73 2.656084 1_545
Na20 O80 2.461619 1_545
Na20 O78 2.465607 1_555
Na20 O83 2.480384 1_445
Na20 O93 2.685115 1_456
Na20 O94 2.693575 1_556
Na20 O91 2.699350 1_446
Na21 O82 2.500201 1_555
Na21 O90 2.512685 1_556
Na21 O81 2.537524 1_555
Na21 O79 2.591222 1_565
Na21 O92 2.638065 1_566
Na21 O95 2.649286 1_566
Na22 O96 2.451621 1_555
Na22 O98 2.521363 1_555
Na22 O100 2.523919 1_555
Na22 O112 2.646339 1_555
Na22 O108 2.686650 1_555
Na22 O110 2.725650 1_555
Na23 O101 2.468394 1_555
Na23 O97 2.515483 1_555
Na23 O99 2.587961 1_555
Na23 O111 2.677053 1_555
Na23 O109 2.699787 1_555
Na23 O113 2.705159 1_555
Na24 O102 2.457765 1_555
Na24 O104 2.501652 1_555
Na24 O106 2.554870 1_555
Na24 O116 2.645681 1_555
Na24 O114 2.675417 1_555
Na24 O118 2.692927 1_555
Na25 O107 2.527064 1_555
Na25 O103 2.543490 1_555
Na25 O117 2.600043 1_555
Na25 O105 2.625305 1_555
Na25 O115 2.647149 1_555
Na25 O119 2.680996 1_555
Na26 O120 2.435170 1_555
Na26 O124 2.449354 1_555
Na26 O122 2.457093 1_555
Na26 O134 2.782781 1_555
Na26 O136 2.792766 1_555
Na26 O132 2.812969 1_555
Na27 O123 2.248007 1_555
Na27 O125 2.445809 1_555
Na27 O121 2.533478 1_555
Na27 O133 2.776454 1_555
Na27 O135 2.864272 1_555
Na27 O137 2.865159 1_555
Na28 O130 2.281698 1_555
Na28 O128 2.497737 1_555
Na28 O126 2.564566 1_555
Na28 O138 2.745793 1_555
Na28 O140 2.817814 1_555
Na28 O142 2.843725 1_555
Na29 O131 2.274506 1_555
Na29 O129 2.477048 1_555
Na29 O127 2.547826 1_555
Na29 O139 2.758266 1_555
Na29 O141 2.847932 1_555
Na29 O143 2.855231 1_555
Mg0 O3 1.940698 1_455
Mg0 O0 1.942523 1_565
Mg0 O5 1.994520 1_465
Mg0 O72 2.205409 1_555
Mg0 O76 2.292397 1_565
Mg0 O75 2.300057 1_455
Mg1 O2 1.931328 1_555
Mg1 O1 1.938189 1_565
Mg1 O4 1.964114 1_565
Mg1 O73 2.203014 1_555
Mg1 O77 2.295710 1_565
Mg1 O74 2.319386 1_555
Mg2 O9 1.928179 1_445
Mg2 O11 1.950233 1_455
Mg2 O6 1.956117 1_555
Mg2 O78 2.267386 1_555
Mg2 O80 2.274087 1_545
Mg2 O83 2.290417 1_445
Mg3 O10 1.928396 1_555
Mg3 O7 1.936961 1_555
Mg3 O8 1.963128 1_545
Mg3 O79 2.217022 1_555
Mg3 O81 2.300325 1_545
Mg3 O82 2.319375 1_545
Mg4 O24 1.979051 1_555
Mg4 O96 2.043942 1_555
Mg4 O100 2.062748 1_555
Mg4 O98 2.070761 1_555
Mg4 O28 2.184748 1_555
Mg4 O26 2.195283 1_555
Mg5 O25 1.974544 1_555
Mg5 O101 2.042853 1_555
Mg5 O97 2.044387 1_555
Mg5 O99 2.067592 1_555
Mg5 O29 2.191192 1_555
Mg5 O27 2.196036 1_555
Mg6 O30 1.975833 1_555
Mg6 O102 2.055042 1_555
Mg6 O104 2.066964 1_555
Mg6 O106 2.071040 1_555
Mg6 O32 2.192993 1_555
Mg6 O34 2.204342 1_555
Mg7 O107 2.027051 1_555
Mg7 O103 2.028025 1_555
Mg7 O105 2.041172 1_555
Mg7 O33 2.126038 1_555
Mg7 O35 2.129308 1_555
Mg7 O31 2.134439 1_555
Mg8 O38 1.976443 1_556
Mg8 O36 2.070111 1_556
Mg8 O40 2.115680 1_556
Mg8 O108 2.252692 1_555
Mg8 O112 2.267873 1_555
Mg8 O110 2.334455 1_555
Mg9 O39 2.102776 1_556
Mg9 O37 2.106312 1_556
Mg9 O41 2.117125 1_556
Mg9 O111 2.161742 1_555
Mg9 O109 2.183641 1_555
Mg9 O113 2.205169 1_555
Mg10 O46 1.957760 1_555
Mg10 O42 2.030841 1_555
Mg10 O44 2.072124 1_555
Mg10 O114 2.317654 1_555
Mg10 O116 2.331349 1_555
Mg10 O118 2.370048 1_555
Mg11 O47 1.958872 1_555
Mg11 O43 2.033340 1_555
Mg11 O45 2.067157 1_555
Mg11 O115 2.317826 1_555
Mg11 O117 2.324058 1_555
Mg11 O119 2.378446 1_555
Mg12 O50 2.006506 1_554
Mg12 O52 2.008220 1_554
Mg12 O48 2.022869 1_554
Mg12 O124 2.171785 1_555
Mg12 O120 2.175173 1_555
Mg12 O122 2.177950 1_555
Mg13 O123 1.976107 1_555
Mg13 O53 2.006076 1_554
Mg13 O49 2.030421 1_554
Mg13 O51 2.132854 1_554
Mg13 O125 2.147449 1_555
Mg13 O121 2.205344 1_555
Mg14 O130 1.965663 1_555
Mg14 O56 2.027937 1_555
Mg14 O54 2.059403 1_555
Mg14 O128 2.109331 1_555
Mg14 O58 2.138460 1_555
Mg14 O126 2.167706 1_555
Mg15 O131 1.971219 1_555
Mg15 O57 2.023198 1_555
Mg15 O55 2.063798 1_555
Mg15 O129 2.108854 1_555
Mg15 O59 2.135344 1_555
Mg15 O127 2.174599 1_555
O0 Si0 1.576819 1_555
O1 Si1 1.573381 1_555
O2 Si2 1.574302 1_555
O3 Si3 1.575833 1_555
O4 Si5 1.592092 1_555
O5 Si4 1.589674 1_555
O6 Si6 1.571777 1_555
O7 Si7 1.573163 1_555
O8 Si9 1.592854 1_555
O9 Si8 1.572177 1_555
O10 Si10 1.573302 1_555
O11 Si11 1.570446 1_555
O12 Si10 1.703085 1_565
O12 Ta1 1.894227 1_565
O13 Si11 1.701996 1_565
O13 Ta0 1.891725 1_565
O14 Si6 1.700057 1_555
O14 Ta0 1.885920 1_455
O15 Si7 1.696435 1_555
O15 Ta1 1.887600 1_555
O16 Si8 1.687638 1_455
O16 Ta0 2.018529 1_465
O17 Si9 1.682881 1_555
O17 Ta1 2.028769 1_565
O18 Si2 1.694219 1_555
O18 Ta3 1.899265 1_555
O19 Si3 1.696383 1_555
O19 Ta2 1.904964 1_665
O20 Si4 1.692275 1_455
O20 Ta2 1.914696 1_555
O21 Si5 1.679619 1_555
O21 Ta3 2.034823 1_545
O22 Si0 1.700518 1_565
O22 Ta2 1.903860 1_565
O23 Si1 1.689754 1_565
O23 Ta3 1.896796 1_555
O24 Si12 1.621771 1_555
O25 Si13 1.619141 1_555
O26 S0 1.463166 1_555
O27 S1 1.466007 1_555
O28 S2 1.475569 1_555
O29 S3 1.475666 1_555
O30 Si14 1.624496 1_555
O31 S4 1.482014 1_555
O32 S5 1.477079 1_555
O33 S6 1.482866 1_555
O34 S7 1.472713 1_555
O35 S8 1.477501 1_555
O36 S7 1.463534 1_555
O37 S8 1.461057 1_555
O38 Si14 1.624396 1_555
O39 S4 1.463137 1_555
O40 S5 1.471998 1_555
O41 S6 1.462995 1_555
O42 S0 1.470831 1_555
O43 S1 1.472987 1_555
O44 S2 1.478235 1_555
O45 S3 1.484853 1_555
O46 Si12 1.631237 1_555
O47 Si13 1.632559 1_555
O48 S9 1.461500 1_555
O49 S10 1.464204 1_555
O50 S11 1.460795 1_555
O51 S12 1.470164 1_555
O52 S13 1.464119 1_555
O53 S14 1.468313 1_555
O54 S15 1.456435 1_555
O55 S16 1.449621 1_555
O56 S17 1.458663 1_555
O57 S18 1.457962 1_555
O58 S19 1.461821 1_555
O59 S20 1.460095 1_555
O60 S19 1.564856 1_555
O60 Ta4 2.055961 1_555
O61 S20 1.562357 1_555
O61 Ta5 2.055409 1_555
O62 S15 1.553681 1_555
O62 Ta4 2.039998 1_555
O63 S16 1.546780 1_555
O63 Ta5 2.061673 1_555
O64 S17 1.560720 1_555
O64 Ta4 2.072042 1_555
O65 S18 1.558368 1_555
O65 Ta5 2.074277 1_555
O66 S11 1.556879 1_555
O66 Ta6 2.047869 1_555
O67 S12 1.552052 1_555
O67 Ta7 2.070155 1_555
O68 S13 1.561868 1_555
O68 Ta6 2.051899 1_555
O69 S14 1.546207 1_555
O69 Ta7 2.093282 1_555
O70 S9 1.531886 1_555
O70 Ta6 2.099118 1_555
O71 S10 1.559907 1_555
O71 Ta7 2.054804 1_555
O72 S19 1.459231 1_555
O73 S20 1.460828 1_555
O74 S15 1.473669 1_555
O75 S16 1.480554 1_555
O76 S17 1.481674 1_555
O77 S18 1.477485 1_555
O78 S11 1.462786 1_555
O79 S12 1.460130 1_555
O80 S13 1.465004 1_555
O81 S14 1.481079 1_555
O82 S9 1.479936 1_555
O83 S10 1.463739 1_555
O84 Si12 1.721080 1_555
O84 Ta1 1.919563 1_555
O85 Si13 1.719655 1_555
O85 Ta0 1.923025 1_555
O86 S0 1.531246 1_555
O86 Ta0 2.225171 1_455
O87 S1 1.533530 1_555
O87 Ta1 2.217820 1_555
O88 S2 1.535057 1_555
O88 Ta1 2.230406 1_565
O89 S3 1.531876 1_555
O89 Ta0 2.244255 1_565
O90 Si14 1.728213 1_555
O90 Ta3 1.908687 1_555
O91 S4 1.540214 1_555
O91 Ta2 2.148714 1_665
O92 S5 1.540077 1_555
O92 Ta3 2.220510 1_545
O93 S6 1.541771 1_555
O93 Ta2 2.135470 1_655
O94 S7 1.544910 1_555
O94 Ta2 2.114149 1_555
O95 S8 1.536909 1_555
O95 Ta3 2.220546 1_545
O96 Si10 1.598570 1_555
O97 Si11 1.598976 1_555
O98 Si6 1.598704 1_555
O99 Si7 1.595244 1_555
O100 Si9 1.604261 1_555
O101 Si8 1.604853 1_555
O102 Si2 1.596945 1_555
O103 Si3 1.600997 1_555
O104 Si5 1.603911 1_555
O105 Si4 1.600057 1_555
O106 Si0 1.594957 1_555
O107 Si1 1.601415 1_555
O108 S9 1.486754 1_555
O109 S10 1.479342 1_555
O110 S12 1.486213 1_555
O111 S11 1.480710 1_655
O112 S13 1.476467 1_545
O113 S14 1.464668 1_545
O114 S15 1.481981 1_545
O115 S16 1.487426 1_545
O116 S17 1.465337 1_555
O117 S18 1.471343 1_555
O118 S20 1.488033 1_555
O119 S19 1.485906 1_655
O120 S7 1.485756 1_555
O121 S8 1.489550 1_555
O122 S4 1.484374 1_455
O123 Si14 1.641118 1_555
O124 S5 1.478860 1_565
O125 S6 1.476284 1_565
O126 S0 1.493558 1_565
O127 S1 1.487213 1_565
O128 S2 1.468369 1_555
O129 S3 1.464403 1_555
O130 Si13 1.642163 1_455
O131 Si12 1.640907 1_555
O132 Si0 1.692939 1_565
O132 Ta4 1.931154 1_555
O133 Si1 1.687004 1_565
O133 Ta5 1.924399 1_555
O134 Si2 1.694173 1_555
O134 Ta4 1.919241 1_555
O135 Si3 1.685021 1_555
O135 Ta5 1.931647 1_555
O136 Si4 1.686596 1_455
O136 Ta4 1.937800 1_555
O137 Si5 1.704949 1_555
O137 Ta5 1.917791 1_555
O138 Si6 1.686997 1_555
O138 Ta6 1.932630 1_555
O139 Si7 1.688377 1_555
O139 Ta7 1.918985 1_555
O140 Si8 1.707393 1_455
O140 Ta6 1.913410 1_555
O141 Si9 1.702691 1_555
O141 Ta7 1.928513 1_555
O142 Si10 1.684123 1_565
O142 Ta6 1.933054 1_555
O143 Si11 1.692508 1_565
O143 Ta7 1.917160 1_555
