# generated using pymatgen
data_MgZn2Cr2O8
_symmetry_space_group_name_H-M   'P 1'
_cell_length_a   5.18829993
_cell_length_b   5.18829993
_cell_length_c   6.37846100
_cell_angle_alpha   90.00000000
_cell_angle_beta   90.00000000
_cell_angle_gamma   67.05259331
_symmetry_Int_Tables_number   1
_chemical_formula_structural   MgZn2Cr2O8
_chemical_formula_sum   'Mg1 Zn2 Cr2 O8'
_cell_volume   158.11065442
_cell_formula_units_Z   1
loop_
 _symmetry_equiv_pos_site_id
 _symmetry_equiv_pos_as_xyz
  1  'x, y, z'
loop_
 _atom_site_type_symbol
 _atom_site_label
 _atom_site_symmetry_multiplicity
 _atom_site_fract_x
 _atom_site_fract_y
 _atom_site_fract_z
 _atom_site_occupancy
  Mg  Mg0  1  0.66066100  0.66066100  0.25000000  1
  Zn  Zn0  1  0.99838200  0.99838200  0.99532600  1
  Zn  Zn1  1  0.99838200  0.99838200  0.50467400  1
  Cr  Cr0  1  0.34089400  0.34089400  0.25000000  1
  Cr  Cr1  1  0.64045800  0.64045800  0.75000000  1
  O  O0  1  0.28228300  0.78433000  0.75000000  1
  O  O1  1  0.24819300  0.72150700  0.25000000  1
  O  O2  1  0.76148500  0.76148500  0.52769800  1
  O  O3  1  0.23847000  0.23847000  0.03167000  1
  O  O4  1  0.76148500  0.76148500  0.97230200  1
  O  O5  1  0.23847000  0.23847000  0.46833000  1
  O  O6  1  0.72150700  0.24819300  0.25000000  1
  O  O7  1  0.78433000  0.28228300  0.75000000  1
loop_
_geom_bond_atom_site_label_1
_geom_bond_atom_site_label_2
_geom_bond_distance
_geom_bond_site_symmetry_2
Mg0 O2 1.974363 1_555
Mg0 O4 1.974363 1_554
Mg0 O6 2.037768 1_555
Mg0 O1 2.037768 1_555
Cr0 O3 1.650560 1_555
Cr0 O5 1.650560 1_555
Cr0 O6 1.841275 1_555
Cr0 O1 1.841275 1_555
Cr1 O0 1.711398 1_555
Cr1 O7 1.711398 1_555
Cr1 O2 1.762555 1_555
Cr1 O4 1.762555 1_555
O0 Zn0 2.139162 1_455
O0 Zn1 2.139162 1_455
O1 Zn0 2.220443 1_454
O1 Zn1 2.220443 1_455
O2 Zn1 2.054479 1_555
O3 Zn0 2.089724 1_444
O4 Zn0 2.054479 1_555
O5 Zn1 2.089724 1_445
O6 Zn0 2.220443 1_544
O6 Zn1 2.220443 1_545
O7 Zn1 2.139162 1_545
O7 Zn0 2.139162 1_545
