# generated using pymatgen
data_Rb2MgMo2P2(ClO5)2
_symmetry_space_group_name_H-M   'P 1'
_cell_length_a   6.67572734
_cell_length_b   6.67572734
_cell_length_c   7.60536819
_cell_angle_alpha   97.32842016
_cell_angle_beta   82.67157984
_cell_angle_gamma   87.97430654
_symmetry_Int_Tables_number   1
_chemical_formula_structural   Rb2MgMo2P2(ClO5)2
_chemical_formula_sum   'Rb2 Mg1 Mo2 P2 Cl2 O10'
_cell_volume   332.96174379
_cell_formula_units_Z   1
loop_
 _symmetry_equiv_pos_site_id
 _symmetry_equiv_pos_as_xyz
  1  'x, y, z'
loop_
 _atom_site_type_symbol
 _atom_site_label
 _atom_site_symmetry_multiplicity
 _atom_site_fract_x
 _atom_site_fract_y
 _atom_site_fract_z
 _atom_site_occupancy
  Rb  Rb0  1  0.63629816  0.23665741  0.54660674  1
  Rb  Rb1  1  0.26334259  0.86370184  0.54660674  1
  Mg  Mg0  1  0.93916947  0.56083053  0.26154162  1
  Mo  Mo0  1  0.25892493  0.24107507  0.08040171  1
  Mo  Mo1  1  0.77462477  0.72537523  0.90652564  1
  P  P0  1  0.25604713  0.74180272  0.99713291  1
  P  P1  1  0.75819728  0.24395287  0.99713291  1
  Cl  Cl0  1  0.77477242  0.72522758  0.54813049  1
  Cl  Cl1  1  0.15795216  0.34204784  0.43773094  1
  O  O0  1  0.92786402  0.28116800  0.12211577  1
  O  O1  1  0.21883200  0.57213598  0.12211577  1
  O  O2  1  0.30764706  0.19235294  0.83952075  1
  O  O3  1  0.56044524  0.26348562  0.13075489  1
  O  O4  1  0.09441605  0.72992038  0.86712548  1
  O  O5  1  0.46415767  0.71197761  0.88258571  1
  O  O6  1  0.77007962  0.40558395  0.86712548  1
  O  O7  1  0.23651438  0.93955476  0.13075489  1
  O  O8  1  0.76269265  0.73730735  0.15016882  1
  O  O9  1  0.78802239  0.03584233  0.88258571  1
loop_
_geom_bond_atom_site_label_1
_geom_bond_atom_site_label_2
_geom_bond_distance
_geom_bond_site_symmetry_2
Mg0 O8 1.975952 1_555
Mg0 O1 2.034933 1_655
Mg0 O0 2.034933 1_555
Mo0 O2 1.804511 1_554
Mo0 O7 2.103329 1_545
Mo0 O3 2.103329 1_555
Mo0 O0 2.194163 1_455
Mo0 O1 2.194163 1_555
Mo1 O8 1.835899 1_556
Mo1 O5 2.107609 1_555
Mo1 O9 2.107609 1_565
Mo1 O4 2.119423 1_655
Mo1 O6 2.119423 1_555
Cl0 Mg0 2.419495 1_555
Cl0 Mo1 2.725476 1_555
Cl0 Rb0 3.420336 1_555
Cl0 Rb1 3.420336 1_655
Cl0 Rb1 3.507266 1_555
Cl0 Rb0 3.507266 1_565
Cl1 Mg0 2.628618 1_455
Cl1 Mo0 2.706919 1_555
Cl1 Rb1 3.470190 1_545
Cl1 Rb0 3.470190 1_555
Cl1 Rb0 3.590833 1_455
Cl1 Rb1 3.590833 1_555
O0 P1 1.575580 1_554
O1 P0 1.575580 1_554
O2 Rb0 2.971676 1_555
O2 Rb1 2.971676 1_545
O3 P1 1.550578 1_554
O3 Rb0 3.292091 1_555
O4 P0 1.551256 1_555
O4 Rb1 2.817238 1_555
O5 P0 1.534972 1_555
O5 Rb1 3.284892 1_555
O6 P1 1.551256 1_555
O6 Rb0 2.817238 1_555
O7 P0 1.550578 1_554
O7 Rb1 3.292091 1_555
O9 P1 1.534972 1_555
O9 Rb0 3.284892 1_555
