# generated using pymatgen
data_Na2Nb5In3Si6(SO8)6
_symmetry_space_group_name_H-M   'P 1'
_cell_length_a   17.88073852
_cell_length_b   8.91856641
_cell_length_c   23.19802645
_cell_angle_alpha   90.04833090
_cell_angle_beta   89.84173405
_cell_angle_gamma   120.17029103
_symmetry_Int_Tables_number   1
_chemical_formula_structural   Na2Nb5In3Si6(SO8)6
_chemical_formula_sum   'Na6 Nb15 In9 Si18 S18 O144'
_cell_volume   3198.25167347
_cell_formula_units_Z   3
loop_
 _symmetry_equiv_pos_site_id
 _symmetry_equiv_pos_as_xyz
  1  'x, y, z'
loop_
 _atom_site_type_symbol
 _atom_site_label
 _atom_site_symmetry_multiplicity
 _atom_site_fract_x
 _atom_site_fract_y
 _atom_site_fract_z
 _atom_site_occupancy
  Na  Na0  1  0.99542225  0.98272665  0.49881878  1
  Na  Na1  1  0.50058972  0.99744758  0.99893781  1
  Na  Na2  1  0.33567105  0.32172455  0.83895313  1
  Na  Na3  1  0.83288892  0.33696604  0.83796571  1
  Na  Na4  1  0.32725752  0.32251752  0.33681502  1
  Na  Na5  1  0.83523469  0.34338416  0.34378563  1
  Nb  Nb0  1  0.49340753  0.99208793  0.36271051  1
  Nb  Nb1  1  0.00600852  0.00858560  0.86364979  1
  Nb  Nb2  1  0.49796245  0.00348829  0.64314183  1
  Nb  Nb3  1  0.00302892  0.01428440  0.14798656  1
  Nb  Nb4  1  0.32630746  0.33617433  0.69079349  1
  Nb  Nb5  1  0.82481591  0.32689690  0.68263205  1
  Nb  Nb6  1  0.34009568  0.34962487  0.19066885  1
  Nb  Nb7  1  0.83342624  0.31829290  0.18709695  1
  Nb  Nb8  1  0.16288428  0.66557016  0.01832138  1
  Nb  Nb9  1  0.66597515  0.66292166  0.02354728  1
  Nb  Nb10  1  0.17030646  0.67456009  0.52014963  1
  Nb  Nb11  1  0.67265988  0.66031293  0.52541929  1
  Nb  Nb12  1  0.16292265  0.67916452  0.30662962  1
  Nb  Nb13  1  0.16676694  0.67228954  0.80766476  1
  Nb  Nb14  1  0.66491855  0.64528493  0.81297073  1
  In  In0  1  0.00483232  0.00022767  0.35312997  1
  In  In1  1  0.50329608  0.02329123  0.85165147  1
  In  In2  1  0.99836123  0.00421364  0.65041296  1
  In  In3  1  0.49533836  0.98423064  0.14835598  1
  In  In4  1  0.33995441  0.33578970  0.97750504  1
  In  In5  1  0.83525814  0.33186517  0.97717046  1
  In  In6  1  0.33321422  0.33487564  0.48090816  1
  In  In7  1  0.83158693  0.34582517  0.47912966  1
  In  In8  1  0.66984518  0.66650130  0.31416247  1
  Si  Si0  1  0.14524989  0.00630085  0.24825415  1
  Si  Si1  1  0.35604018  0.71820723  0.25268040  1
  Si  Si2  1  -0.00004081  0.28643514  0.25429631  1
  Si  Si3  1  0.13893574  0.28342638  0.75120789  1
  Si  Si4  1  0.64401749  0.28352755  0.74922642  1
  Si  Si5  1  0.35712838  0.00282941  0.74905434  1
  Si  Si6  1  0.68609901  0.03909814  0.58024181  1
  Si  Si7  1  0.33201373  0.61995001  0.58173035  1
  Si  Si8  1  0.84112362  0.63373922  0.58294736  1
  Si  Si9  1  0.47790169  0.62737269  0.08033623  1
  Si  Si10  1  0.83426370  0.04019274  0.08014036  1
  Si  Si11  1  0.80931357  0.66336801  0.91780235  1
  Si  Si12  1  0.02270190  0.38563960  0.91420309  1
  Si  Si13  1  0.52125701  0.37245609  0.91837710  1
  Si  Si14  1  0.17058816  0.95776792  0.91512543  1
  Si  Si15  1  0.30522684  0.95766559  0.41555085  1
  Si  Si16  1  0.66868102  0.37993830  0.41450368  1
  Si  Si17  1  0.02105410  0.66566600  0.41657188  1
  S  S0  1  0.64568594  0.00010772  0.25187082  1
  S  S1  1  0.85441821  0.70723725  0.24746864  1
  S  S2  1  0.50086555  0.28790762  0.25004427  1
  S  S3  1  0.99809878  0.70620012  0.75108790  1
  S  S4  1  0.50106014  0.71189806  0.74977307  1
  S  S5  1  0.85368852  0.00214476  0.75271869  1
  S  S6  1  0.47773798  0.33459979  0.58390247  1
  S  S7  1  0.97917878  0.33566001  0.58240521  1
  S  S8  1  0.18811511  0.04208883  0.58371168  1
  S  S9  1  0.97863308  0.62542868  0.08417512  1
  S  S10  1  0.33199702  0.03988767  0.08321655  1
  S  S11  1  0.18991277  0.33583241  0.08379658  1
  S  S12  1  0.68834344  0.33237423  0.08398395  1
  S  S13  1  0.30878694  0.66785762  0.91602245  1
  S  S14  1  0.66376883  0.94676151  0.91595982  1
  S  S15  1  0.81147390  0.95536608  0.41790617  1
  S  S16  1  0.16637940  0.38282732  0.41691284  1
  S  S17  1  0.52272971  0.66684527  0.41641678  1
  O  O0  1  0.11259171  0.05394220  0.30528856  1
  O  O1  1  0.60764208  0.03269832  0.30240069  1
  O  O2  1  0.42279843  0.80925828  0.30714009  1
  O  O3  1  0.90423257  0.76994431  0.30026764  1
  O  O4  1  0.48585965  0.17828109  0.30122858  1
  O  O5  1  0.97010594  0.15965431  0.30802662  1
  O  O6  1  0.09413024  0.15597925  0.80677795  1
  O  O7  1  0.61506739  0.17456844  0.80747670  1
  O  O8  1  0.47986092  0.77476745  0.80251661  1
  O  O9  1  0.98375974  0.78655658  0.80210529  1
  O  O10  1  0.40976834  0.04183694  0.80774085  1
  O  O11  1  0.91050909  0.02881559  0.80231191  1
  O  O12  1  0.40329188  0.97325855  0.69294014  1
  O  O13  1  0.88552290  0.96451214  0.69908108  1
  O  O14  1  0.08889128  0.21270105  0.69223505  1
  O  O15  1  0.58345461  0.19244413  0.69338528  1
  O  O16  1  0.01488348  0.80876610  0.69822912  1
  O  O17  1  0.51299592  0.81738938  0.69839430  1
  O  O18  1  0.39052439  0.82457153  0.19457792  1
  O  O19  1  0.89970278  0.81880159  0.19639246  1
  O  O20  1  0.01067956  0.19043360  0.19533213  1
  O  O21  1  0.51478122  0.21563605  0.19704587  1
  O  O22  1  0.08276127  0.97581496  0.19206952  1
  O  O23  1  0.59806877  0.97566937  0.19811316  1
  O  O24  1  0.43623050  0.35972347  0.63492755  1
  O  O25  1  0.93785841  0.36090588  0.63548007  1
  O  O26  1  0.24346680  0.12683279  0.63555239  1
  O  O27  1  0.75023031  0.13349560  0.63929829  1
  O  O28  1  0.32005730  0.49420306  0.63882323  1
  O  O29  1  0.82159583  0.50213485  0.63989829  1
  O  O30  1  0.42862895  0.49845134  0.13847449  1
  O  O31  1  0.93632687  0.51134448  0.13575130  1
  O  O32  1  0.31704206  0.11883192  0.13503192  1
  O  O33  1  0.82083322  0.14310025  0.13879491  1
  O  O34  1  0.24391948  0.36105181  0.13565409  1
  O  O35  1  0.74390250  0.35753874  0.13597273  1
  O  O36  1  0.22263215  0.29798208  0.03164207  1
  O  O37  1  0.72535132  0.30225575  0.03211276  1
  O  O38  1  0.41459278  0.54035079  0.02716242  1
  O  O39  1  0.92784505  0.55607178  0.03221197  1
  O  O40  1  0.34376984  0.14019941  0.03059358  1
  O  O41  1  0.85614420  0.17062210  0.02838916  1
  O  O42  1  0.22628202  0.14454094  0.53121529  1
  O  O43  1  0.72872270  0.15889125  0.52639422  1
  O  O44  1  0.35333505  0.54329020  0.52610213  1
  O  O45  1  0.85685810  0.55694788  0.52640937  1
  O  O46  1  0.42654743  0.29764788  0.53100747  1
  O  O47  1  0.92578791  0.30405668  0.53113706  1
  O  O48  1  0.26485818  0.68943579  0.96999776  1
  O  O49  1  0.76443066  0.69811515  0.97364240  1
  O  O50  1  0.08452661  0.47630983  0.97363290  1
  O  O51  1  0.58529752  0.48450401  0.97253848  1
  O  O52  1  0.15563737  0.83067981  0.97334527  1
  O  O53  1  0.65553837  0.84617328  0.96952040  1
  O  O54  1  0.26498282  0.83715103  0.47414017  1
  O  O55  1  0.76345435  0.84051067  0.46895896  1
  O  O56  1  0.15853676  0.46995113  0.47057661  1
  O  O57  1  0.65175737  0.47582109  0.47144233  1
  O  O58  1  0.08572422  0.68665665  0.47323487  1
  O  O59  1  0.57432469  0.69274275  0.46758111  1
  O  O60  1  0.07466833  0.65045645  0.36033287  1
  O  O61  1  0.56003534  0.64444106  0.36225452  1
  O  O62  1  0.24938559  0.85801729  0.35961598  1
  O  O63  1  0.76076146  0.88239547  0.36404435  1
  O  O64  1  0.17726675  0.48446976  0.36507923  1
  O  O65  1  0.68156065  0.49031270  0.35714745  1
  O  O66  1  0.07735501  0.50713595  0.86065898  1
  O  O67  1  0.57310536  0.49580428  0.86007740  1
  O  O68  1  0.18006964  0.85691347  0.86018579  1
  O  O69  1  0.67555928  0.86468687  0.86355415  1
  O  O70  1  0.25745435  0.65039750  0.86441924  1
  O  O71  1  0.74908358  0.64483563  0.86004275  1
  O  O72  1  0.01518373  0.84205340  0.41560651  1
  O  O73  1  0.51650876  0.82985847  0.40949378  1
  O  O74  1  0.40185404  0.97181251  0.40620918  1
  O  O75  1  0.89532864  0.96188488  0.41569109  1
  O  O76  1  0.08677594  0.21071285  0.41684095  1
  O  O77  1  0.57835768  0.18825893  0.40224495  1
  O  O78  1  0.01733373  0.19650029  0.90715346  1
  O  O79  1  0.51755671  0.18805034  0.91972447  1
  O  O80  1  0.07944993  0.95874188  0.90733950  1
  O  O81  1  0.58350977  0.95565253  0.91249285  1
  O  O82  1  0.39540949  0.82280238  0.91421345  1
  O  O83  1  0.90232828  0.83556643  0.90063989  1
  O  O84  1  0.49036726  0.18288054  0.59223730  1
  O  O85  1  0.99109159  0.18468652  0.58928826  1
  O  O86  1  0.10158282  0.01903036  0.59050447  1
  O  O87  1  0.59293964  0.01500112  0.59996247  1
  O  O88  1  0.41462054  0.80959191  0.59841499  1
  O  O89  1  0.91927835  0.82767020  0.59224144  1
  O  O90  1  0.49616070  0.82313023  0.08673353  1
  O  O91  1  0.99147649  0.79881550  0.09565691  1
  O  O92  1  0.40988155  0.02385406  0.08907199  1
  O  O93  1  0.91562519  0.01394830  0.09900955  1
  O  O94  1  0.10065790  0.18225870  0.09423919  1
  O  O95  1  0.60050088  0.18340538  0.09279273  1
  O  O96  1  0.34358914  0.16944157  0.73304225  1
  O  O97  1  0.84800572  0.16352275  0.74524061  1
  O  O98  1  0.23870971  0.30841379  0.74254546  1
  O  O99  1  0.74425821  0.31768467  0.73801743  1
  O  O100  1  0.42364030  0.52953220  0.73980200  1
  O  O101  1  0.92230995  0.52819169  0.74417032  1
  O  O102  1  0.34695171  0.51970071  0.24222171  1
  O  O103  1  0.84268143  0.53005122  0.23553077  1
  O  O104  1  0.41846185  0.29927402  0.24378447  1
  O  O105  1  0.91614617  0.31724455  0.23612214  1
  O  O106  1  0.24307216  0.16815292  0.23220612  1
  O  O107  1  0.73567027  0.16419912  0.24357036  1
  O  O108  1  0.31170842  0.50738942  0.92121233  1
  O  O109  1  0.81710628  0.49243678  0.92090854  1
  O  O110  1  0.43050118  0.36813395  0.91519150  1
  O  O111  1  0.92885709  0.36181576  0.91729875  1
  O  O112  1  0.24992720  0.14879385  0.92265083  1
  O  O113  1  0.74125130  0.12119973  0.91959938  1
  O  O114  1  0.32261224  0.15258120  0.42118325  1
  O  O115  1  0.82096405  0.12634213  0.42436846  1
  O  O116  1  0.24438680  0.36418651  0.42131437  1
  O  O117  1  0.74664605  0.34290024  0.41790955  1
  O  O118  1  0.43418148  0.51661344  0.42010643  1
  O  O119  1  0.93102776  0.48537233  0.41802847  1
  O  O120  1  0.17994471  0.49089562  0.07661528  1
  O  O121  1  0.68316441  0.49326117  0.07844919  1
  O  O122  1  0.06616577  0.63976251  0.07681405  1
  O  O123  1  0.57190041  0.63642079  0.07193245  1
  O  O124  1  0.25363515  0.86145762  0.07482344  1
  O  O125  1  0.74785785  0.85295364  0.07386268  1
  O  O126  1  0.18232913  0.86973449  0.57768270  1
  O  O127  1  0.67359589  0.84500309  0.56983770  1
  O  O128  1  0.24565995  0.63739327  0.57230115  1
  O  O129  1  0.74938755  0.64221330  0.57457144  1
  O  O130  1  0.06596444  0.49462630  0.57560549  1
  O  O131  1  0.56452848  0.49182290  0.57651404  1
  O  O132  1  0.15558666  0.83535810  0.25480937  1
  O  O133  1  0.66017603  0.85209729  0.25929453  1
  O  O134  1  0.25989327  0.67667397  0.26773919  1
  O  O135  1  0.76857841  0.69289659  0.25081587  1
  O  O136  1  0.08355928  0.47581340  0.25920600  1
  O  O137  1  0.57321437  0.46664277  0.25691759  1
  O  O138  1  0.15808440  0.47827031  0.76528100  1
  O  O139  1  0.65643265  0.48044561  0.75792456  1
  O  O140  1  0.07632796  0.68800320  0.75928213  1
  O  O141  1  0.57805578  0.69363559  0.75726617  1
  O  O142  1  0.25981183  0.83439919  0.75926606  1
  O  O143  1  0.76514540  0.85378772  0.76284535  1
loop_
_geom_bond_atom_site_label_1
_geom_bond_atom_site_label_2
_geom_bond_distance
_geom_bond_site_symmetry_2
Na0 O72 2.421346 1_655
Na0 O89 2.561090 1_555
Na0 O75 2.576925 1_555
Na0 O76 2.658958 1_665
Na0 O86 2.763205 1_665
Na0 O85 2.790664 1_565
Na1 O79 2.417080 1_565
Na1 O90 2.540086 1_556
Na1 O81 2.626123 1_555
Na1 O82 2.626193 1_555
Na1 O92 2.724427 1_566
Na1 O95 2.778453 1_566
Na2 O110 2.341848 1_555
Na2 O112 2.472046 1_555
Na2 O108 2.696328 1_555
Na2 O98 2.799256 1_555
Na2 O96 2.843731 1_555
Na2 O100 2.873424 1_555
Na3 O111 2.452585 1_555
Na3 O109 2.467842 1_555
Na3 O113 2.606494 1_555
Na3 O101 2.728672 1_555
Na3 O97 2.739392 1_555
Na3 O99 2.768163 1_555
Na4 O114 2.451942 1_555
Na4 O116 2.590848 1_555
Na4 O118 2.659585 1_555
Na4 O102 2.722447 1_555
Na4 O104 2.771208 1_555
Na4 O106 2.825199 1_555
Na5 O119 2.310011 1_555
Na5 O117 2.333247 1_555
Na5 O115 2.610282 1_555
Na5 O107 2.878345 1_555
Na5 O105 2.950158 1_555
Na5 O103 2.979650 1_555
Nb0 O74 1.850540 1_555
Nb0 O77 1.882324 1_565
Nb0 O2 1.962351 1_555
Nb0 O73 2.011887 1_555
Nb0 O4 2.245054 1_565
Nb0 O1 2.345685 1_565
Nb1 O78 1.877600 1_555
Nb1 O80 1.882593 1_545
Nb1 O83 1.916337 1_445
Nb1 O6 1.964910 1_555
Nb1 O11 2.301451 1_455
Nb1 O9 2.307442 1_445
Nb2 O88 1.924310 1_545
Nb2 O87 1.927044 1_555
Nb2 O12 1.950313 1_545
Nb2 O15 1.988069 1_555
Nb2 O84 2.048208 1_555
Nb2 O17 2.218964 1_545
Nb3 O20 1.864126 1_555
Nb3 O22 1.922588 1_545
Nb3 O93 1.933511 1_455
Nb3 O94 2.051524 1_555
Nb3 O19 2.113795 1_445
Nb3 O91 2.192628 1_445
Nb4 O98 1.885805 1_555
Nb4 O28 1.901128 1_555
Nb4 O96 1.932169 1_555
Nb4 O100 2.070321 1_555
Nb4 O26 2.132789 1_555
Nb4 O24 2.271199 1_555
Nb5 O27 1.859193 1_555
Nb5 O29 1.876703 1_555
Nb5 O99 1.898258 1_555
Nb5 O25 2.178570 1_555
Nb5 O97 2.240223 1_555
Nb5 O101 2.272354 1_555
Nb6 O102 1.885972 1_555
Nb6 O30 1.901041 1_555
Nb6 O106 1.931009 1_555
Nb6 O104 2.079988 1_555
Nb6 O34 2.187472 1_555
Nb6 O32 2.284322 1_555
Nb7 O33 1.841836 1_555
Nb7 O105 1.872015 1_555
Nb7 O107 2.058187 1_555
Nb7 O103 2.130688 1_555
Nb7 O31 2.139087 1_555
Nb7 O35 2.160052 1_555
Nb8 O52 1.862497 1_554
Nb8 O50 1.874793 1_554
Nb8 O48 2.055641 1_554
Nb8 O122 2.114823 1_555
Nb8 O124 2.135813 1_555
Nb8 O120 2.198220 1_555
Nb9 O51 1.926713 1_554
Nb9 O123 1.932791 1_555
Nb9 O125 1.972402 1_555
Nb9 O49 1.992971 1_554
Nb9 O121 2.116365 1_555
Nb9 O53 2.141965 1_554
Nb10 O54 1.906033 1_555
Nb10 O58 1.912257 1_555
Nb10 O128 1.961516 1_555
Nb10 O56 2.075700 1_555
Nb10 O126 2.116367 1_555
Nb10 O130 2.166085 1_555
Nb11 O129 1.854719 1_555
Nb11 O127 1.935133 1_555
Nb11 O57 1.948311 1_555
Nb11 O55 2.074424 1_555
Nb11 O131 2.114546 1_555
Nb11 O59 2.345291 1_555
Nb12 O132 1.894780 1_555
Nb12 O60 1.921303 1_555
Nb12 O134 1.962369 1_555
Nb12 O136 1.982827 1_555
Nb12 O62 1.993457 1_555
Nb12 O64 2.317954 1_555
Nb13 O142 1.921844 1_555
Nb13 O138 1.926906 1_555
Nb13 O68 1.963876 1_555
Nb13 O66 1.965222 1_555
Nb13 O140 2.032862 1_555
Nb13 O70 2.175188 1_555
Nb14 O67 1.859913 1_555
Nb14 O71 1.863438 1_555
Nb14 O139 1.894367 1_555
Nb14 O143 2.159679 1_555
Nb14 O69 2.205713 1_555
Nb14 O141 2.225621 1_555
In0 O0 2.057940 1_555
In0 O72 2.095768 1_545
In0 O5 2.096549 1_455
In0 O76 2.257835 1_555
In0 O3 2.291755 1_445
In0 O75 2.317135 1_445
In1 O7 2.036023 1_555
In1 O10 2.037019 1_555
In1 O79 2.083180 1_555
In1 O81 2.301172 1_545
In1 O8 2.335035 1_545
In1 O82 2.355149 1_545
In2 O14 1.999812 1_655
In2 O89 2.017118 1_545
In2 O13 2.177355 1_545
In2 O85 2.198497 1_555
In2 O16 2.208805 1_645
In2 O86 2.257523 1_655
In3 O18 1.999711 1_555
In3 O90 2.031193 1_555
In3 O23 2.205717 1_555
In3 O92 2.215021 1_565
In3 O21 2.221036 1_565
In3 O95 2.232880 1_565
In4 O38 1.998535 1_556
In4 O112 2.073936 1_555
In4 O110 2.076648 1_555
In4 O40 2.165168 1_556
In4 O108 2.255338 1_555
In4 O36 2.316652 1_556
In5 O41 2.040682 1_556
In5 O109 2.081420 1_555
In5 O111 2.083229 1_555
In5 O113 2.230001 1_555
In5 O37 2.240846 1_556
In5 O39 2.247104 1_556
In6 O44 2.002551 1_555
In6 O114 2.070423 1_555
In6 O42 2.151273 1_555
In6 O46 2.194170 1_555
In6 O118 2.219112 1_555
In6 O116 2.220878 1_555
In7 O45 2.023995 1_555
In7 O43 2.067465 1_555
In7 O117 2.072778 1_555
In7 O119 2.117624 1_555
In7 O47 2.252588 1_555
In7 O115 2.259423 1_555
In8 O65 1.960108 1_555
In8 O63 2.132975 1_555
In8 O133 2.163852 1_555
In8 O61 2.176832 1_555
In8 O137 2.199795 1_555
In8 O135 2.213624 1_555
O0 Si0 1.586274 1_555
O1 S0 1.454312 1_555
O2 Si1 1.647017 1_555
O3 S1 1.452766 1_555
O4 S2 1.474546 1_555
O5 Si2 1.584003 1_655
O6 Si3 1.636180 1_555
O7 Si4 1.590911 1_555
O8 S4 1.471412 1_555
O9 S3 1.470241 1_555
O10 Si5 1.592969 1_555
O11 S5 1.474949 1_555
O12 Si5 1.630252 1_565
O13 S5 1.473880 1_565
O14 Si3 1.583709 1_555
O15 Si4 1.622472 1_555
O16 S3 1.467771 1_455
O17 S4 1.466276 1_555
O18 Si1 1.583176 1_555
O19 S1 1.495476 1_555
O20 Si2 1.674031 1_555
O21 S2 1.465304 1_555
O22 Si0 1.650227 1_565
O23 S0 1.465095 1_565
O24 S6 1.471054 1_555
O25 S7 1.508054 1_555
O26 S8 1.500068 1_555
O27 Si6 1.713761 1_555
O28 Si7 1.678548 1_555
O29 Si8 1.683184 1_555
O30 Si9 1.701485 1_555
O31 S9 1.504136 1_555
O32 S10 1.482597 1_555
O33 Si10 1.723094 1_555
O34 S11 1.489281 1_555
O35 S12 1.507935 1_555
O36 S11 1.453946 1_555
O37 S12 1.460038 1_555
O38 Si9 1.590094 1_555
O39 S9 1.449336 1_555
O40 S10 1.464938 1_555
O41 Si10 1.577903 1_555
O42 S8 1.467722 1_555
O43 Si6 1.568835 1_555
O44 Si7 1.592442 1_555
O45 Si8 1.567972 1_555
O46 S6 1.467795 1_555
O47 S7 1.463065 1_555
O48 S13 1.538804 1_555
O49 Si11 1.631463 1_555
O50 Si12 1.698432 1_555
O51 Si13 1.656542 1_555
O52 Si14 1.695956 1_555
O53 S14 1.496137 1_555
O54 Si15 1.655296 1_555
O55 S15 1.517076 1_555
O56 S16 1.510004 1_555
O57 Si16 1.680328 1_555
O58 Si17 1.700121 1_555
O59 S17 1.450733 1_555
O60 Si17 1.662229 1_555
O61 S17 1.480705 1_555
O62 Si15 1.607413 1_555
O63 S15 1.489538 1_555
O64 S16 1.458996 1_555
O65 Si16 1.601581 1_555
O66 Si12 1.613441 1_555
O67 Si13 1.693881 1_555
O68 Si14 1.616255 1_555
O69 S14 1.486740 1_555
O70 S13 1.470322 1_555
O71 Si11 1.676660 1_555
O72 Si17 1.628583 1_555
O73 S17 1.521470 1_555
O74 Si15 1.681345 1_555
O75 S15 1.471779 1_555
O76 S16 1.478557 1_555
O77 Si16 1.684708 1_555
O78 Si12 1.648726 1_555
O79 Si13 1.612724 1_555
O80 Si14 1.644449 1_555
O81 S14 1.478943 1_555
O82 S13 1.469267 1_555
O83 Si11 1.647185 1_555
O84 S6 1.492356 1_555
O85 S7 1.474001 1_555
O86 S8 1.462880 1_555
O87 Si6 1.632896 1_555
O88 Si7 1.638030 1_555
O89 Si8 1.600759 1_555
O90 Si9 1.613567 1_555
O91 S9 1.468882 1_555
O92 S10 1.476337 1_555
O93 Si10 1.645844 1_555
O94 S11 1.510948 1_555
O95 S12 1.474830 1_555
O96 Si5 1.663616 1_555
O97 S5 1.503133 1_555
O98 Si3 1.694488 1_555
O99 Si4 1.679812 1_555
O100 S4 1.534015 1_555
O101 S3 1.490269 1_555
O102 Si1 1.711688 1_555
O103 S1 1.511342 1_555
O104 S2 1.534186 1_555
O105 Si2 1.707854 1_655
O106 Si0 1.655654 1_555
O107 S0 1.549063 1_555
O108 S13 1.463173 1_555
O109 Si11 1.600732 1_555
O110 Si13 1.605661 1_555
O111 Si12 1.583359 1_655
O112 Si14 1.586526 1_545
O113 S14 1.476772 1_545
O114 Si15 1.610061 1_545
O115 S15 1.454696 1_545
O116 S16 1.489132 1_555
O117 Si16 1.588180 1_555
O118 S17 1.475306 1_555
O119 Si17 1.604998 1_655
O120 S11 1.490087 1_555
O121 S12 1.489255 1_555
O122 S9 1.514147 1_455
O123 Si9 1.652689 1_555
O124 S10 1.514373 1_565
O125 Si10 1.613807 1_565
O126 S8 1.494314 1_565
O127 Si6 1.647837 1_565
O128 Si7 1.643036 1_555
O129 Si8 1.691293 1_555
O130 S7 1.493524 1_455
O131 S6 1.488480 1_555
O132 Si0 1.632594 1_565
O133 S0 1.477734 1_565
O134 Si1 1.603629 1_555
O135 S1 1.476578 1_555
O136 Si2 1.600950 1_555
O137 S2 1.472390 1_555
O138 Si3 1.626386 1_555
O139 Si4 1.667964 1_555
O140 S3 1.499600 1_455
O141 S4 1.476114 1_555
O142 Si5 1.646663 1_565
O143 S5 1.485035 1_565
