# generated using pymatgen
data_NbIn3P2(SO6)4
_symmetry_space_group_name_H-M   'P 1'
_cell_length_a   8.89657576
_cell_length_b   8.90171158
_cell_length_c   23.06479424
_cell_angle_alpha   89.88605940
_cell_angle_beta   90.03887533
_cell_angle_gamma   119.73857339
_symmetry_Int_Tables_number   1
_chemical_formula_structural   NbIn3P2(SO6)4
_chemical_formula_sum   'Nb3 In9 P6 S12 O72'
_cell_volume   1586.03869532
_cell_formula_units_Z   3
loop_
 _symmetry_equiv_pos_site_id
 _symmetry_equiv_pos_as_xyz
  1  'x, y, z'
loop_
 _atom_site_type_symbol
 _atom_site_label
 _atom_site_symmetry_multiplicity
 _atom_site_fract_x
 _atom_site_fract_y
 _atom_site_fract_z
 _atom_site_occupancy
  Nb  Nb0  1  0.66650819  0.33206863  0.97233908  1
  Nb  Nb1  1  0.32143756  0.65899632  0.31340173  1
  Nb  Nb2  1  0.33983021  0.67204338  0.81473353  1
  In  In0  1  0.99684642  0.99868239  0.35356709  1
  In  In1  1  0.99533929  0.00196772  0.85481891  1
  In  In2  1  0.99327969  0.99682416  0.64948726  1
  In  In3  1  0.00121262  0.00629473  0.14541370  1
  In  In4  1  0.66736931  0.32964161  0.68624864  1
  In  In5  1  0.67277503  0.33401671  0.18750547  1
  In  In6  1  0.67248933  0.33612495  0.47723602  1
  In  In7  1  0.33211359  0.66633664  0.01899412  1
  In  In8  1  0.33080169  0.66968083  0.52169794  1
  P  P0  1  0.99951778  0.28794064  0.25052689  1
  P  P1  1  0.70775600  0.00027365  0.75054492  1
  P  P2  1  0.62066073  0.66601491  0.91827768  1
  P  P3  1  0.04879816  0.38221720  0.91780330  1
  P  P4  1  0.33190101  0.95438760  0.91739129  1
  P  P5  1  0.04209646  0.66805532  0.41767643  1
  S  S0  1  0.29277305  0.99711830  0.25018369  1
  S  S1  1  0.70176637  0.70657581  0.25037804  1
  S  S2  1  0.29399001  0.29764836  0.75083569  1
  S  S3  1  0.00410291  0.70707299  0.75090710  1
  S  S4  1  0.96100495  0.33220651  0.58305103  1
  S  S5  1  0.37179746  0.04346940  0.58284721  1
  S  S6  1  0.66648691  0.62473826  0.58295783  1
  S  S7  1  0.95353739  0.62374456  0.08201670  1
  S  S8  1  0.66537492  0.04545192  0.08180187  1
  S  S9  1  0.38207110  0.33224918  0.08262061  1
  S  S10  1  0.61777019  0.95244658  0.41626557  1
  S  S11  1  0.33435457  0.37872308  0.41675723  1
  O  O0  1  0.21499614  0.02749621  0.30167739  1
  O  O1  1  0.81348171  0.78151361  0.30140772  1
  O  O2  1  0.96925783  0.17723175  0.30422472  1
  O  O3  1  0.21787377  0.18684872  0.80181591  1
  O  O4  1  0.97461316  0.78637142  0.80204769  1
  O  O5  1  0.82015411  0.03116960  0.80358902  1
  O  O6  1  0.77425634  0.95243405  0.69628414  1
  O  O7  1  0.18569672  0.22777451  0.69841407  1
  O  O8  1  0.04602472  0.81642204  0.69836880  1
  O  O9  1  0.77201001  0.81607451  0.19794597  1
  O  O10  1  0.04605954  0.21974082  0.19631201  1
  O  O11  1  0.18220246  0.95437311  0.19806292  1
  O  O12  1  0.88250891  0.36233572  0.63516156  1
  O  O13  1  0.47922807  0.12303604  0.63493654  1
  O  O14  1  0.63869931  0.51793037  0.63561372  1
  O  O15  1  0.87944054  0.52082419  0.13542131  1
  O  O16  1  0.63745644  0.11985530  0.13520838  1
  O  O17  1  0.48379810  0.35724198  0.13615846  1
  O  O18  1  0.47631830  0.31505040  0.03103600  1
  O  O19  1  0.84151549  0.53118566  0.03063090  1
  O  O20  1  0.68525170  0.15912292  0.03050847  1
  O  O21  1  0.45126354  0.15005966  0.52985260  1
  O  O22  1  0.69226224  0.54371375  0.53035507  1
  O  O23  1  0.85298757  0.30334069  0.53054823  1
  O  O24  1  0.54579287  0.69755586  0.97259508  1
  O  O25  1  0.15056690  0.45518508  0.97310970  1
  O  O26  1  0.30068160  0.84992830  0.97210546  1
  O  O27  1  0.54550827  0.84879672  0.46915367  1
  O  O28  1  0.30820699  0.45671400  0.46888437  1
  O  O29  1  0.15476975  0.69901870  0.47059450  1
  O  O30  1  0.14560445  0.64674490  0.36278582  1
  O  O31  1  0.50635154  0.85876586  0.36435216  1
  O  O32  1  0.35609311  0.49339225  0.36430622  1
  O  O33  1  0.13504172  0.50444005  0.86500799  1
  O  O34  1  0.36870381  0.86591629  0.86462017  1
  O  O35  1  0.49732961  0.63091469  0.86510115  1
  O  O36  1  0.02822049  0.82780535  0.40468703  1
  O  O37  1  0.79058627  0.97281988  0.40839068  1
  O  O38  1  0.18099517  0.20947575  0.40769860  1
  O  O39  1  0.01403605  0.20159360  0.90711064  1
  O  O40  1  0.18878589  0.99091740  0.90313515  1
  O  O41  1  0.80210162  0.80670602  0.90624097  1
  O  O42  1  0.97935137  0.17711760  0.59004737  1
  O  O43  1  0.19822689  0.02528328  0.59043808  1
  O  O44  1  0.82316198  0.79632865  0.58905616  1
  O  O45  1  0.96111649  0.79396469  0.08658171  1
  O  O46  1  0.82737209  0.03699657  0.08494694  1
  O  O47  1  0.21348667  0.16929566  0.08536118  1
  O  O48  1  0.67240528  0.14978535  0.74220293  1
  O  O49  1  0.47163896  0.33026760  0.74276054  1
  O  O50  1  0.85519450  0.53300945  0.74265207  1
  O  O51  1  0.67065414  0.52941985  0.24236973  1
  O  O52  1  0.85021332  0.32328420  0.24245196  1
  O  O53  1  0.46704879  0.14527693  0.24217046  1
  O  O54  1  0.62699412  0.49123571  0.92766932  1
  O  O55  1  0.86404914  0.37094696  0.92782439  1
  O  O56  1  0.50535648  0.13573334  0.92730990  1
  O  O57  1  0.62165650  0.11977328  0.41896771  1
  O  O58  1  0.49537280  0.37080811  0.41857349  1
  O  O59  1  0.86990285  0.49909549  0.41913085  1
  O  O60  1  0.36140168  0.48502836  0.07622343  1
  O  O61  1  0.12659666  0.64361043  0.07548995  1
  O  O62  1  0.51266352  0.87389817  0.07489590  1
  O  O63  1  0.35689666  0.87074927  0.57768972  1
  O  O64  1  0.51066314  0.64345646  0.57672764  1
  O  O65  1  0.13405005  0.48704660  0.57694352  1
  O  O66  1  0.31464629  0.84074896  0.26146047  1
  O  O67  1  0.52819503  0.69102333  0.26256708  1
  O  O68  1  0.16602591  0.47346476  0.26438033  1
  O  O69  1  0.30808536  0.47214138  0.76229442  1
  O  O70  1  0.16170810  0.68781236  0.76195578  1
  O  O71  1  0.52336953  0.83254709  0.76510943  1
loop_
_geom_bond_atom_site_label_1
_geom_bond_atom_site_label_2
_geom_bond_distance
_geom_bond_site_symmetry_2
Nb0 O55 1.913151 1_555
Nb0 O54 1.918445 1_555
Nb0 O56 1.925619 1_555
Nb0 O20 2.108113 1_556
Nb0 O18 2.113480 1_556
Nb0 O19 2.154592 1_556
Nb1 O30 1.894476 1_555
Nb1 O68 1.912482 1_555
Nb1 O32 2.022438 1_555
Nb1 O66 2.036097 1_555
Nb1 O67 2.078669 1_555
Nb1 O31 2.086396 1_555
Nb2 O71 1.923324 1_555
Nb2 O34 1.983935 1_555
Nb2 O35 1.987977 1_555
Nb2 O33 2.046752 1_555
Nb2 O69 2.053941 1_555
Nb2 O70 2.056728 1_555
In0 O36 2.048289 1_655
In0 O2 2.064237 1_565
In0 O37 2.145247 1_555
In0 O38 2.172679 1_665
In0 O1 2.173384 1_555
In0 O0 2.184697 1_665
In1 O5 2.071486 1_555
In1 O39 2.086892 1_655
In1 O40 2.092455 1_645
In1 O41 2.100817 1_545
In1 O4 2.203773 1_545
In1 O3 2.210299 1_655
In2 O6 2.086940 1_555
In2 O42 2.158471 1_565
In2 O44 2.178516 1_555
In2 O43 2.188006 1_665
In2 O8 2.193144 1_655
In2 O7 2.223869 1_665
In3 O10 2.098489 1_555
In3 O46 2.196945 1_455
In3 O47 2.206213 1_555
In3 O45 2.209453 1_445
In3 O11 2.239286 1_545
In3 O9 2.250114 1_445
In4 O48 2.072136 1_555
In4 O13 2.129959 1_555
In4 O12 2.141403 1_555
In4 O14 2.157368 1_555
In4 O49 2.178059 1_555
In4 O50 2.183402 1_555
In5 O52 2.062434 1_555
In5 O15 2.133240 1_555
In5 O16 2.145327 1_555
In5 O17 2.147809 1_555
In5 O51 2.160698 1_555
In5 O53 2.169407 1_555
In6 O59 2.110213 1_555
In6 O22 2.152428 1_555
In6 O23 2.153285 1_555
In6 O21 2.202486 1_555
In6 O57 2.205720 1_555
In6 O58 2.210667 1_555
In7 O25 2.062869 1_554
In7 O24 2.076978 1_554
In7 O26 2.089165 1_554
In7 O61 2.171903 1_555
In7 O62 2.172259 1_555
In7 O60 2.196216 1_555
In8 O29 2.076572 1_555
In8 O65 2.121852 1_555
In8 O63 2.126461 1_555
In8 O64 2.143040 1_555
In8 O27 2.152582 1_555
In8 O28 2.179217 1_555
O0 S0 1.466477 1_545
O1 S1 1.470335 1_555
O2 P0 1.519878 1_555
O3 S2 1.465550 1_555
O4 S3 1.464892 1_655
O5 P1 1.516321 1_555
O6 P1 1.533211 1_565
O7 S2 1.477802 1_555
O8 S3 1.480127 1_555
O9 S1 1.481601 1_555
O10 P0 1.535174 1_455
O11 S0 1.478682 1_555
O12 S4 1.480697 1_555
O13 S5 1.479464 1_555
O14 S6 1.484156 1_555
O15 S7 1.479397 1_555
O16 S8 1.478031 1_555
O17 S9 1.480950 1_555
O18 S9 1.507154 1_555
O19 S7 1.504807 1_555
O20 S8 1.507584 1_555
O21 S5 1.491714 1_555
O22 S6 1.487537 1_555
O23 S4 1.486822 1_555
O24 P2 1.509999 1_555
O25 P3 1.512338 1_555
O26 P4 1.507963 1_555
O27 S10 1.469953 1_555
O28 S11 1.464770 1_555
O29 P5 1.515286 1_555
O30 P5 1.631773 1_555
O31 S10 1.514586 1_555
O32 S11 1.530504 1_555
O33 P3 1.556624 1_555
O34 P4 1.571327 1_555
O35 P2 1.570167 1_555
O36 P5 1.516455 1_555
O37 S10 1.467420 1_555
O38 S11 1.461699 1_555
O39 P3 1.499945 1_555
O40 P4 1.498247 1_555
O41 P2 1.498272 1_555
O42 S4 1.476905 1_555
O43 S5 1.481085 1_555
O44 S6 1.477880 1_555
O45 S7 1.486903 1_555
O46 S8 1.481721 1_555
O47 S9 1.482901 1_555
O48 P1 1.523618 1_555
O49 S2 1.470299 1_555
O50 S3 1.468503 1_655
O51 S1 1.471624 1_555
O52 P0 1.520553 1_555
O53 S0 1.465688 1_545
O54 P2 1.598853 1_555
O55 P3 1.613025 1_655
O56 P4 1.602873 1_545
O57 S10 1.474092 1_545
O58 S11 1.469301 1_555
O59 P5 1.524494 1_655
O60 S9 1.467122 1_555
O61 S7 1.467823 1_455
O62 S8 1.464794 1_565
O63 S5 1.481264 1_565
O64 S6 1.482913 1_555
O65 S4 1.477871 1_455
O66 S0 1.519959 1_555
O67 S1 1.507008 1_555
O68 P0 1.611919 1_455
O69 S2 1.518757 1_555
O70 S3 1.515979 1_555
O71 P1 1.613044 1_565
