# generated using pymatgen
data_KCoO2
_symmetry_space_group_name_H-M   'P 1'
_cell_length_a   3.84819700
_cell_length_b   3.84819700
_cell_length_c   8.00211900
_cell_angle_alpha   90.00000000
_cell_angle_beta   90.00000000
_cell_angle_gamma   90.00000000
_symmetry_Int_Tables_number   1
_chemical_formula_structural   KCoO2
_chemical_formula_sum   'K2 Co2 O4'
_cell_volume   118.50034067
_cell_formula_units_Z   2
loop_
 _symmetry_equiv_pos_site_id
 _symmetry_equiv_pos_as_xyz
  1  'x, y, z'
loop_
 _atom_site_type_symbol
 _atom_site_label
 _atom_site_symmetry_multiplicity
 _atom_site_fract_x
 _atom_site_fract_y
 _atom_site_fract_z
 _atom_site_occupancy
  K  K0  1  0.00000000  0.50000000  0.34061200  1
  K  K1  1  0.50000000  0.00000000  0.65938800  1
  Co  Co0  1  0.00000000  0.50000000  0.90696400  1
  Co  Co1  1  0.50000000  0.00000000  0.09303600  1
  O  O0  1  0.00000000  0.50000000  0.68938200  1
  O  O1  1  0.50000000  0.00000000  0.31061800  1
  O  O2  1  0.00000000  0.00000000  0.00000000  1
  O  O3  1  0.50000000  0.50000000  0.00000000  1
loop_
_geom_bond_atom_site_label_1
_geom_bond_atom_site_label_2
_geom_bond_distance
_geom_bond_site_symmetry_2
K0 O1 2.731651 1_455
K0 O1 2.731651 1_565
K0 O1 2.731651 1_465
K0 O1 2.731651 1_555
K0 O0 2.790899 1_555
K1 O0 2.731651 1_555
K1 O0 2.731651 1_655
K1 O0 2.731651 1_545
K1 O0 2.731651 1_645
K1 O1 2.790899 1_555
Co0 O0 1.741117 1_555
Co0 O2 2.063108 1_566
Co0 O3 2.063108 1_456
Co0 O2 2.063108 1_556
Co0 O3 2.063108 1_556
Co1 O1 1.741117 1_555
Co1 O3 2.063108 1_545
Co1 O2 2.063108 1_655
Co1 O3 2.063108 1_555
Co1 O2 2.063108 1_555
