# generated using pymatgen
data_MgCo3SbO8
_symmetry_space_group_name_H-M   'P 1'
_cell_length_a   6.10473718
_cell_length_b   5.92389460
_cell_length_c   6.21840026
_cell_angle_alpha   58.87045321
_cell_angle_beta   58.83093098
_cell_angle_gamma   59.53522571
_symmetry_Int_Tables_number   1
_chemical_formula_structural   MgCo3SbO8
_chemical_formula_sum   'Mg1 Co3 Sb1 O8'
_cell_volume   155.66002340
_cell_formula_units_Z   1
loop_
 _symmetry_equiv_pos_site_id
 _symmetry_equiv_pos_as_xyz
  1  'x, y, z'
loop_
 _atom_site_type_symbol
 _atom_site_label
 _atom_site_symmetry_multiplicity
 _atom_site_fract_x
 _atom_site_fract_y
 _atom_site_fract_z
 _atom_site_occupancy
  Mg  Mg0  1  0.00000000  0.00000000  0.50000000  1
  Co  Co0  1  0.50000000  0.00000000  0.00000000  1
  Co  Co1  1  0.00000000  0.50000000  0.00000000  1
  Co  Co2  1  0.50000000  0.50000000  0.00000000  1
  Sb  Sb0  1  0.00000000  0.00000000  0.00000000  1
  O  O0  1  0.22340700  0.25814600  0.79574600  1
  O  O1  1  0.75832400  0.22411300  0.78255100  1
  O  O2  1  0.21748500  0.74454300  0.78181800  1
  O  O3  1  0.76116100  0.74005100  0.80139900  1
  O  O4  1  0.23884000  0.25995000  0.19860100  1
  O  O5  1  0.78251500  0.25545700  0.21818200  1
  O  O6  1  0.24167600  0.77588700  0.21744900  1
  O  O7  1  0.77659300  0.74185400  0.20425400  1
loop_
_geom_bond_atom_site_label_1
_geom_bond_atom_site_label_2
_geom_bond_distance
_geom_bond_site_symmetry_2
Mg0 O3 2.115148 1_445
Mg0 O4 2.115155 1_555
Mg0 O2 2.180141 1_545
Mg0 O5 2.180141 1_455
Mg0 O1 2.183745 1_455
Mg0 O6 2.183745 1_545
Co0 O3 1.969018 1_544
Co0 O4 1.969022 1_555
Co0 O1 2.034079 1_554
Co0 O6 2.034079 1_545
Co0 O7 2.096735 1_545
Co0 O0 2.096735 1_554
Co1 O3 1.902346 1_454
Co1 O4 1.902351 1_555
Co1 O7 1.906043 1_455
Co1 O0 1.906043 1_554
Co1 O2 1.937942 1_554
Co1 O5 1.937942 1_455
Co2 O6 2.109626 1_555
Co2 O1 2.109626 1_554
Co2 O4 2.129368 1_555
Co2 O3 2.129377 1_554
Co2 O5 2.184115 1_555
Co2 O2 2.184115 1_554
O0 Sb0 2.031089 1_556
O1 Sb0 1.997605 1_656
O2 Sb0 2.028419 1_566
O5 Sb0 2.028419 1_655
O6 Sb0 1.997605 1_565
O7 Sb0 2.031089 1_665
