# generated using pymatgen
data_Na2MgTiSi(SO6)2
_symmetry_space_group_name_H-M   'P 1'
_cell_length_a   8.83671296
_cell_length_b   8.83380444
_cell_length_c   22.30076717
_cell_angle_alpha   90.47751613
_cell_angle_beta   90.00000000
_cell_angle_gamma   120.01089205
_symmetry_Int_Tables_number   1
_chemical_formula_structural   Na2MgTiSi(SO6)2
_chemical_formula_sum   'Na12 Mg6 Ti6 Si6 S12 O72'
_cell_volume   1507.37452748
_cell_formula_units_Z   6
loop_
 _symmetry_equiv_pos_site_id
 _symmetry_equiv_pos_as_xyz
  1  'x, y, z'
loop_
 _atom_site_type_symbol
 _atom_site_label
 _atom_site_symmetry_multiplicity
 _atom_site_fract_x
 _atom_site_fract_y
 _atom_site_fract_z
 _atom_site_occupancy
  Na  Na0  1  0.99686663  0.63168759  0.24324151  1
  Na  Na1  1  0.63482096  0.63168759  0.74324151  1
  Na  Na2  1  0.65476198  0.95977374  0.57662896  1
  Na  Na3  1  0.30501276  0.95977374  0.07662896  1
  Na  Na4  1  0.69677515  0.02927601  0.91112791  1
  Na  Na5  1  0.33249986  0.02927601  0.41112791  1
  Na  Na6  1  0.98661327  0.99668918  0.49485572  1
  Na  Na7  1  0.01007591  0.99668918  0.99485572  1
  Na  Na8  1  0.66090329  0.31693534  0.82882810  1
  Na  Na9  1  0.65603306  0.31693534  0.32882810  1
  Na  Na10  1  0.32908104  0.65393168  0.16222652  1
  Na  Na11  1  0.32484964  0.65393168  0.66222652  1
  Mg  Mg0  1  0.99766606  0.00749200  0.35176002  1
  Mg  Mg1  1  0.00982594  0.00749200  0.85176002  1
  Mg  Mg2  1  0.66349045  0.32686257  0.68519365  1
  Mg  Mg3  1  0.66337313  0.32686257  0.18519365  1
  Mg  Mg4  1  0.32233614  0.66547537  0.01890364  1
  Mg  Mg5  1  0.34313823  0.66547537  0.51890364  1
  Ti  Ti0  1  0.98248487  0.98577724  0.64806096  1
  Ti  Ti1  1  0.00329237  0.98577724  0.14806096  1
  Ti  Ti2  1  0.67128984  0.34296166  0.98023553  1
  Ti  Ti3  1  0.67167282  0.34296166  0.48023553  1
  Ti  Ti4  1  0.34866488  0.69204603  0.31368784  1
  Ti  Ti5  1  0.34338015  0.69204603  0.81368784  1
  Si  Si0  1  0.29973986  0.01039300  0.25450633  1
  Si  Si1  1  0.71065315  0.01039300  0.75450633  1
  Si  Si2  1  0.65963893  0.61874157  0.58860430  1
  Si  Si3  1  0.95910364  0.61874157  0.08860430  1
  Si  Si4  1  0.32862866  0.96696539  0.92172307  1
  Si  Si5  1  0.63833573  0.96696539  0.42172307  1
  S  S0  1  0.70721121  0.71056839  0.25075302  1
  S  S1  1  0.00286481  0.29030803  0.25017260  1
  S  S2  1  0.28744322  0.29030803  0.75017260  1
  S  S3  1  0.00335718  0.71056839  0.75075302  1
  S  S4  1  0.95836591  0.33572122  0.58360409  1
  S  S5  1  0.37005110  0.04403496  0.58259682  1
  S  S6  1  0.67398486  0.04403496  0.08259682  1
  S  S7  1  0.37735631  0.33572122  0.08360409  1
  S  S8  1  0.61967467  0.66197094  0.91724390  1
  S  S9  1  0.04475720  0.37991876  0.91710202  1
  S  S10  1  0.33516056  0.37991876  0.41710202  1
  S  S11  1  0.04229527  0.66197094  0.41724390  1
  O  O0  1  0.20334688  0.01700775  0.31366455  1
  O  O1  1  0.81594664  0.79448134  0.30347793  1
  O  O2  1  0.97903496  0.18744282  0.30367257  1
  O  O3  1  0.20840786  0.18744282  0.80367257  1
  O  O4  1  0.97853471  0.79448134  0.80347793  1
  O  O5  1  0.81366087  0.01700775  0.81366455  1
  O  O6  1  0.80542039  0.96746634  0.69381267  1
  O  O7  1  0.18050743  0.20268078  0.69531168  1
  O  O8  1  0.03277722  0.82016531  0.69563441  1
  O  O9  1  0.78738809  0.82016531  0.19563441  1
  O  O10  1  0.02217336  0.20268078  0.19531168  1
  O  O11  1  0.16204595  0.96746634  0.19381267  1
  O  O12  1  0.87774450  0.35723312  0.63719207  1
  O  O13  1  0.48627944  0.12420486  0.63417415  1
  O  O14  1  0.64758607  0.51770022  0.64822403  1
  O  O15  1  0.87011515  0.51770022  0.14822403  1
  O  O16  1  0.63792642  0.12420486  0.13417415  1
  O  O17  1  0.47948962  0.35723312  0.13719207  1
  O  O18  1  0.45723836  0.29833320  0.02899961  1
  O  O19  1  0.82777016  0.51802948  0.02850849  1
  O  O20  1  0.69456280  0.14860883  0.02655817  1
  O  O21  1  0.45404704  0.14860883  0.52655817  1
  O  O22  1  0.69026032  0.51802948  0.52850849  1
  O  O23  1  0.84109585  0.29833320  0.52899961  1
  O  O24  1  0.53279882  0.68399162  0.96939857  1
  O  O25  1  0.14708131  0.45781930  0.97138146  1
  O  O26  1  0.31784410  0.85824551  0.97947740  1
  O  O27  1  0.54040041  0.85824551  0.47947740  1
  O  O28  1  0.31073699  0.45781930  0.47138146  1
  O  O29  1  0.15119180  0.68399162  0.46939857  1
  O  O30  1  0.12023183  0.63465142  0.36065187  1
  O  O31  1  0.49648716  0.86319330  0.36128273  1
  O  O32  1  0.35833668  0.48554512  0.36290067  1
  O  O33  1  0.12720744  0.48554512  0.86290067  1
  O  O34  1  0.36670514  0.86319330  0.86128273  1
  O  O35  1  0.51441859  0.63465142  0.86065187  1
  O  O36  1  0.02325383  0.81776679  0.41210723  1
  O  O37  1  0.82587396  0.99000376  0.41100324  1
  O  O38  1  0.18751028  0.19926175  0.41167538  1
  O  O39  1  0.01175147  0.19926175  0.91167538  1
  O  O40  1  0.16412980  0.99000376  0.91100324  1
  O  O41  1  0.79451296  0.81776679  0.91210723  1
  O  O42  1  0.97108891  0.17063311  0.58796095  1
  O  O43  1  0.19894454  0.03650347  0.58885382  1
  O  O44  1  0.84783782  0.82168953  0.59149567  1
  O  O45  1  0.97385171  0.82168953  0.09149567  1
  O  O46  1  0.83755893  0.03650347  0.08885382  1
  O  O47  1  0.19954420  0.17063311  0.08796095  1
  O  O48  1  0.67942356  0.16929515  0.74374197  1
  O  O49  1  0.46703306  0.31894373  0.74505197  1
  O  O50  1  0.84844416  0.53649323  0.74405373  1
  O  O51  1  0.68805007  0.53649323  0.24405373  1
  O  O52  1  0.85191167  0.31894373  0.24505197  1
  O  O53  1  0.48987259  0.16929515  0.24374197  1
  O  O54  1  0.63641236  0.50110356  0.92166196  1
  O  O55  1  0.86385272  0.36259596  0.92193358  1
  O  O56  1  0.52019637  0.15781163  0.92482299  1
  O  O57  1  0.63761626  0.15781163  0.42482299  1
  O  O58  1  0.49874425  0.36259596  0.42193358  1
  O  O59  1  0.86469220  0.50110356  0.42166196  1
  O  O60  1  0.35678639  0.48777747  0.07450890  1
  O  O61  1  0.15690616  0.65923795  0.08165765  1
  O  O62  1  0.52325342  0.86502669  0.07620106  1
  O  O63  1  0.34177227  0.86502669  0.57620106  1
  O  O64  1  0.50233079  0.65923795  0.58165765  1
  O  O65  1  0.13099008  0.48777747  0.57450890  1
  O  O66  1  0.30180517  0.81624050  0.25774522  1
  O  O67  1  0.52897991  0.69186079  0.25567042  1
  O  O68  1  0.16514121  0.46812392  0.25447477  1
  O  O69  1  0.30298171  0.46812392  0.75447477  1
  O  O70  1  0.16287988  0.69186079  0.75567042  1
  O  O71  1  0.51443433  0.81624050  0.75774522  1
loop_
_geom_bond_atom_site_label_1
_geom_bond_atom_site_label_2
_geom_bond_distance
_geom_bond_site_symmetry_2
Na0 O15 2.365313 1_555
Na0 O66 2.370723 1_655
Na0 O52 2.395176 1_555
Na0 O51 2.420574 1_555
Na0 O68 2.552821 1_655
Na0 O11 2.804900 1_655
Na0 O30 2.831097 1_655
Na0 O1 2.948940 1_555
Na1 O14 2.365315 1_555
Na1 O71 2.370730 1_555
Na1 O49 2.395176 1_555
Na1 O50 2.420583 1_555
Na1 O69 2.552829 1_555
Na1 O6 2.804900 1_555
Na1 O35 2.831101 1_555
Na1 O4 2.948940 1_555
Na2 O64 2.302827 1_555
Na2 O27 2.362323 1_555
Na2 O63 2.456515 1_555
Na2 O42 2.476046 1_565
Na2 O44 2.568546 1_555
Na2 O23 2.812635 1_565
Na2 O13 2.847041 1_565
Na2 O6 2.917679 1_555
Na3 O61 2.302827 1_555
Na3 O26 2.362318 1_554
Na3 O62 2.456498 1_555
Na3 O47 2.476053 1_565
Na3 O45 2.568554 1_455
Na3 O18 2.812635 1_565
Na3 O16 2.847041 1_565
Na3 O11 2.917683 1_555
Na4 O56 2.363019 1_555
Na4 O39 2.412645 1_655
Na4 O41 2.419173 1_545
Na4 O5 2.431210 1_555
Na4 O55 2.558772 1_555
Na4 O34 2.754562 1_545
Na4 O20 2.777309 1_556
Na4 O24 2.955795 1_545
Na5 O57 2.363035 1_555
Na5 O38 2.412637 1_555
Na5 O36 2.419166 1_545
Na5 O0 2.431206 1_555
Na5 O58 2.558772 1_555
Na5 O31 2.754562 1_545
Na5 O21 2.777313 1_555
Na5 O29 2.955795 1_545
Na6 O37 2.330686 1_555
Na6 O36 2.543947 1_655
Na6 O38 2.583075 1_665
Na6 O44 2.587949 1_555
Na6 O42 2.617002 1_565
Na6 O43 2.714037 1_665
Na7 O40 2.330686 1_555
Na7 O41 2.543947 1_455
Na7 O39 2.583075 1_565
Na7 O45 2.587949 1_456
Na7 O47 2.617002 1_566
Na7 O46 2.714037 1_466
Na8 O48 2.345316 1_555
Na8 O56 2.531118 1_555
Na8 O49 2.541000 1_555
Na8 O50 2.632136 1_555
Na8 O55 2.636767 1_555
Na8 O54 2.697356 1_555
Na9 O53 2.345316 1_555
Na9 O57 2.531118 1_555
Na9 O52 2.541000 1_555
Na9 O51 2.632136 1_555
Na9 O58 2.636767 1_555
Na9 O59 2.697356 1_555
Na10 O61 2.370250 1_555
Na10 O60 2.520418 1_555
Na10 O68 2.588937 1_555
Na10 O66 2.635561 1_555
Na10 O62 2.638334 1_555
Na10 O67 2.640346 1_555
Na11 O64 2.370250 1_555
Na11 O65 2.520418 1_555
Na11 O69 2.588937 1_555
Na11 O71 2.635561 1_555
Na11 O63 2.638334 1_555
Na11 O70 2.640346 1_555
Mg0 O37 1.960284 1_545
Mg0 O0 1.969932 1_655
Mg0 O2 1.998581 1_555
Mg0 O1 2.054829 1_545
Mg0 O38 2.142165 1_655
Mg0 O36 2.255641 1_645
Mg1 O40 1.960284 1_545
Mg1 O5 1.969932 1_455
Mg1 O3 1.998581 1_555
Mg1 O4 2.054829 1_445
Mg1 O39 2.142165 1_555
Mg1 O41 2.255641 1_445
Mg2 O14 1.949780 1_555
Mg2 O48 1.971897 1_555
Mg2 O13 2.028152 1_555
Mg2 O12 2.073439 1_555
Mg2 O49 2.163496 1_555
Mg2 O50 2.180680 1_555
Mg3 O15 1.949780 1_555
Mg3 O53 1.971897 1_555
Mg3 O16 2.028152 1_555
Mg3 O17 2.073439 1_555
Mg3 O52 2.163496 1_555
Mg3 O51 2.180680 1_555
Mg4 O26 1.940890 1_554
Mg4 O25 2.003076 1_554
Mg4 O61 2.004811 1_555
Mg4 O24 2.098363 1_554
Mg4 O60 2.145918 1_555
Mg4 O62 2.173489 1_555
Mg5 O27 1.940890 1_555
Mg5 O28 2.003076 1_555
Mg5 O64 2.004811 1_555
Mg5 O29 2.098363 1_555
Mg5 O65 2.145918 1_555
Mg5 O63 2.173489 1_555
O0 Si0 1.586808 1_555
O1 S0 1.458848 1_555
O2 S1 1.456086 1_655
O3 S2 1.456086 1_555
O4 S3 1.458848 1_655
O5 Si1 1.586808 1_555
O6 Si1 1.728062 1_565
O6 Ti0 1.806913 1_555
O7 S2 1.497150 1_555
O7 Ti0 2.110949 1_445
O8 S3 1.511249 1_555
O8 Ti0 2.034614 1_455
O9 S0 1.511249 1_555
O9 Ti1 2.034614 1_655
O10 S1 1.497150 1_555
O10 Ti1 2.110949 1_545
O11 Si0 1.728062 1_565
O11 Ti1 1.806913 1_555
O12 S4 1.450331 1_555
O13 S5 1.462270 1_555
O14 Si2 1.581288 1_555
O15 Si3 1.581288 1_555
O16 S6 1.462270 1_555
O17 S7 1.450331 1_555
O18 S7 1.522082 1_555
O18 Ti2 2.043780 1_554
O19 Si3 1.697577 1_555
O19 Ti2 1.815417 1_554
O20 S6 1.516381 1_555
O20 Ti2 2.107100 1_554
O21 S5 1.516381 1_555
O21 Ti3 2.107100 1_555
O22 Si2 1.697577 1_555
O22 Ti3 1.815417 1_555
O23 S4 1.522082 1_555
O23 Ti3 2.043780 1_555
O24 S8 1.457941 1_555
O25 S9 1.456047 1_555
O26 Si4 1.587258 1_555
O27 Si5 1.587258 1_555
O28 S10 1.456047 1_555
O29 S11 1.457941 1_555
O30 S11 1.512118 1_555
O30 Ti4 2.100896 1_555
O31 Si5 1.748785 1_555
O31 Ti4 1.765325 1_555
O32 S10 1.483664 1_555
O32 Ti4 2.174573 1_555
O33 S9 1.483664 1_555
O33 Ti5 2.174573 1_555
O34 Si4 1.748785 1_555
O34 Ti5 1.765325 1_555
O35 S8 1.512118 1_555
O35 Ti5 2.100896 1_555
O36 S11 1.473036 1_555
O37 Si5 1.583787 1_555
O38 S10 1.475714 1_555
O39 S9 1.475717 1_555
O40 Si4 1.583778 1_555
O41 S8 1.473041 1_555
O42 S4 1.521598 1_555
O42 Ti0 2.161964 1_545
O43 S5 1.486480 1_555
O43 Ti0 2.180684 1_445
O44 Si2 1.731941 1_555
O44 Ti0 1.830938 1_555
O45 Si3 1.731945 1_555
O45 Ti1 1.830938 1_655
O46 S6 1.486472 1_555
O46 Ti1 2.180684 1_645
O47 S7 1.521603 1_555
O47 Ti1 2.161964 1_545
O48 Si1 1.580287 1_555
O49 S2 1.481368 1_555
O50 S3 1.466749 1_655
O51 S0 1.466753 1_555
O52 S1 1.481359 1_655
O53 Si0 1.580293 1_555
O54 S8 1.504531 1_555
O54 Ti2 2.052791 1_555
O55 S9 1.531704 1_655
O55 Ti2 2.079565 1_555
O56 Si4 1.689936 1_545
O56 Ti2 1.940792 1_555
O57 Si5 1.689927 1_545
O57 Ti3 1.940792 1_555
O58 S10 1.531722 1_555
O58 Ti3 2.079565 1_555
O59 S11 1.504521 1_655
O59 Ti3 2.052791 1_555
O60 S7 1.458507 1_555
O61 Si3 1.607058 1_455
O62 S6 1.477953 1_565
O63 S5 1.477946 1_565
O64 Si2 1.607075 1_555
O65 S4 1.458497 1_455
O66 Si0 1.726416 1_565
O66 Ti4 1.846291 1_555
O67 S0 1.503273 1_555
O67 Ti4 2.053163 1_555
O68 S1 1.509027 1_555
O68 Ti4 2.243668 1_555
O69 S2 1.509031 1_555
O69 Ti5 2.243668 1_555
O70 S3 1.503265 1_555
O70 Ti5 2.053163 1_555
O71 Si1 1.726421 1_565
O71 Ti5 1.846291 1_555
