# generated using pymatgen
data_Na14Mg2Si9Sn6(SO16)3
_symmetry_space_group_name_H-M   'P 1'
_cell_length_a   18.15807212
_cell_length_b   9.12604090
_cell_length_c   22.48505394
_cell_angle_alpha   90.29916328
_cell_angle_beta   89.80474727
_cell_angle_gamma   120.04915803
_symmetry_Int_Tables_number   1
_chemical_formula_structural   Na14Mg2Si9Sn6(SO16)3
_chemical_formula_sum   'Na42 Mg6 Si27 Sn18 S9 O144'
_cell_volume   3225.18974465
_cell_formula_units_Z   3
loop_
 _symmetry_equiv_pos_site_id
 _symmetry_equiv_pos_as_xyz
  1  'x, y, z'
loop_
 _atom_site_type_symbol
 _atom_site_label
 _atom_site_symmetry_multiplicity
 _atom_site_fract_x
 _atom_site_fract_y
 _atom_site_fract_z
 _atom_site_occupancy
  Na  Na0  1  0.31181066  0.00081047  0.24605432  1
  Na  Na1  1  0.81704329  0.01424152  0.24887976  1
  Na  Na2  1  0.18627843  0.36387910  0.25123600  1
  Na  Na3  1  0.69328666  0.36606606  0.24992094  1
  Na  Na4  1  0.99251046  0.62135954  0.25375672  1
  Na  Na5  1  0.49589398  0.63590236  0.24862338  1
  Na  Na6  1  0.31771249  0.62006908  0.74202596  1
  Na  Na7  1  0.81226002  0.62362976  0.74247529  1
  Na  Na8  1  0.99382954  0.35159119  0.74419028  1
  Na  Na9  1  0.49441237  0.36792568  0.74999821  1
  Na  Na10  1  0.19343140  0.02280732  0.74574043  1
  Na  Na11  1  0.68815108  0.00991516  0.74823862  1
  Na  Na12  1  0.15292705  0.33455352  0.58538332  1
  Na  Na13  1  0.65750299  0.35190983  0.57984161  1
  Na  Na14  1  0.01207568  0.69413109  0.57920179  1
  Na  Na15  1  0.51521310  0.69494734  0.57583794  1
  Na  Na16  1  0.32934668  0.96409174  0.58460834  1
  Na  Na17  1  0.83180731  0.95618442  0.57509111  1
  Na  Na18  1  0.15660992  0.96380390  0.08518599  1
  Na  Na19  1  0.65459963  0.97311263  0.08862789  1
  Na  Na20  1  0.33398580  0.70592921  0.08488130  1
  Na  Na21  1  0.82909267  0.69427728  0.08775596  1
  Na  Na22  1  0.01302009  0.33093807  0.08064912  1
  Na  Na23  1  0.51421599  0.33154785  0.08313220  1
  Na  Na24  1  0.98508009  0.66818949  0.91809153  1
  Na  Na25  1  0.34991496  0.03849528  0.91510408  1
  Na  Na26  1  0.16338946  0.29472690  0.91599399  1
  Na  Na27  1  0.48752370  0.30544332  0.41812751  1
  Na  Na28  1  0.66903953  0.03125061  0.41480475  1
  Na  Na29  1  0.84906654  0.66867849  0.41897003  1
  Na  Na30  1  0.99890997  0.99767408  0.49736742  1
  Na  Na31  1  0.49374041  0.98496721  0.49411437  1
  Na  Na32  1  0.99120402  0.00066401  0.99572907  1
  Na  Na33  1  0.50633923  0.01063739  0.00220096  1
  Na  Na34  1  0.33841814  0.33735164  0.82617020  1
  Na  Na35  1  0.82770010  0.32184680  0.83117072  1
  Na  Na36  1  0.32854445  0.33453733  0.33247619  1
  Na  Na37  1  0.83702651  0.33158877  0.33044233  1
  Na  Na38  1  0.17088963  0.67668501  0.16975488  1
  Na  Na39  1  0.67056706  0.67560389  0.16715182  1
  Na  Na40  1  0.16898571  0.66416052  0.66233191  1
  Na  Na41  1  0.67285367  0.66620642  0.66556029  1
  Mg  Mg0  1  0.32766144  0.33355945  0.68775686  1
  Mg  Mg1  1  0.83387819  0.33421103  0.68252138  1
  Mg  Mg2  1  0.33387571  0.33172377  0.18467654  1
  Mg  Mg3  1  0.82674638  0.32045255  0.18922412  1
  Mg  Mg4  1  0.16579406  0.67701354  0.01489625  1
  Mg  Mg5  1  0.67295212  0.66459327  0.51028475  1
  Si  Si0  1  0.14716350  0.00606584  0.24874745  1
  Si  Si1  1  0.64496490  0.99538868  0.25162853  1
  Si  Si2  1  0.35268824  0.70381847  0.24943595  1
  Si  Si3  1  0.84842736  0.69734817  0.25104713  1
  Si  Si4  1  0.00156873  0.29869994  0.25142337  1
  Si  Si5  1  0.14507154  0.29220550  0.75260494  1
  Si  Si6  1  0.64981143  0.29346978  0.74699317  1
  Si  Si7  1  0.50106171  0.70641032  0.75269588  1
  Si  Si8  1  0.34980056  0.99841784  0.75213550  1
  Si  Si9  1  0.85261259  0.00159978  0.74996587  1
  Si  Si10  1  0.97921964  0.33724464  0.58494854  1
  Si  Si11  1  0.18918502  0.04554926  0.58668923  1
  Si  Si12  1  0.33497525  0.62728877  0.58491904  1
  Si  Si13  1  0.82987910  0.62421356  0.58664991  1
  Si  Si14  1  0.47836068  0.62152652  0.08391435  1
  Si  Si15  1  0.33028080  0.03032894  0.08658371  1
  Si  Si16  1  0.83533750  0.04273965  0.08423296  1
  Si  Si17  1  0.68885293  0.33222154  0.08622258  1
  Si  Si18  1  0.81271522  0.66184757  0.91649691  1
  Si  Si19  1  0.02023941  0.37836069  0.92108468  1
  Si  Si20  1  0.52127778  0.36933687  0.91540480  1
  Si  Si21  1  0.16641106  0.96357308  0.91867086  1
  Si  Si22  1  0.31277854  0.96275297  0.41677999  1
  Si  Si23  1  0.81863792  0.97020468  0.41980312  1
  Si  Si24  1  0.66490407  0.37047134  0.41802150  1
  Si  Si25  1  0.02265521  0.67484346  0.41540031  1
  Si  Si26  1  0.51964121  0.66055257  0.42101334  1
  Sn  Sn0  1  0.99764909  0.99502117  0.35101050  1
  Sn  Sn1  1  0.49759367  0.98243073  0.35634215  1
  Sn  Sn2  1  0.99654965  0.01071406  0.85588768  1
  Sn  Sn3  1  0.50462424  0.01255956  0.84743889  1
  Sn  Sn4  1  0.99714400  0.00868357  0.64481580  1
  Sn  Sn5  1  0.49596756  0.98703572  0.65450719  1
  Sn  Sn6  1  0.99386720  0.00324502  0.15725042  1
  Sn  Sn7  1  0.49825551  0.98796747  0.14667675  1
  Sn  Sn8  1  0.34260409  0.32777403  0.98265670  1
  Sn  Sn9  1  0.83046254  0.32501969  0.98122138  1
  Sn  Sn10  1  0.33027349  0.33528799  0.48074819  1
  Sn  Sn11  1  0.84323684  0.34832890  0.47752012  1
  Sn  Sn12  1  0.66788654  0.65695668  0.01896772  1
  Sn  Sn13  1  0.16782588  0.67747992  0.51842364  1
  Sn  Sn14  1  0.16653468  0.67801015  0.31332917  1
  Sn  Sn15  1  0.67166418  0.67951704  0.32126926  1
  Sn  Sn16  1  0.16595797  0.66752000  0.81764710  1
  Sn  Sn17  1  0.66659609  0.65537475  0.81308594  1
  S  S0  1  0.50009215  0.29223936  0.25020006  1
  S  S1  1  0.00015600  0.70876744  0.75071642  1
  S  S2  1  0.48015719  0.33278903  0.58543703  1
  S  S3  1  0.68532106  0.03951342  0.58444745  1
  S  S4  1  0.98077455  0.62791222  0.08443219  1
  S  S5  1  0.18686798  0.33300137  0.08265518  1
  S  S6  1  0.31478524  0.66603179  0.91868899  1
  S  S7  1  0.66477678  0.95772244  0.91632365  1
  S  S8  1  0.16637216  0.37453995  0.41621960  1
  O  O0  1  0.10200051  0.04312052  0.30466845  1
  O  O1  1  0.60130412  0.03490714  0.30857062  1
  O  O2  1  0.41626758  0.79526314  0.30505893  1
  O  O3  1  0.91056335  0.78687861  0.30776907  1
  O  O4  1  0.48657675  0.18691098  0.30350660  1
  O  O5  1  0.98258067  0.16627189  0.30488890  1
  O  O6  1  0.10279123  0.16940226  0.81056900  1
  O  O7  1  0.60865617  0.17048289  0.80497789  1
  O  O8  1  0.47977558  0.79648395  0.80864797  1
  O  O9  1  0.98833684  0.78691738  0.80517529  1
  O  O10  1  0.40769800  0.02765296  0.81183510  1
  O  O11  1  0.91554731  0.03919290  0.80650926  1
  O  O12  1  0.38853886  0.95201556  0.69265240  1
  O  O13  1  0.89079492  0.94985767  0.69163356  1
  O  O14  1  0.08360171  0.21169302  0.69357094  1
  O  O15  1  0.58475377  0.20944990  0.68872098  1
  O  O16  1  0.01583188  0.81520998  0.69739879  1
  O  O17  1  0.52608551  0.82751458  0.69227225  1
  O  O18  1  0.38922246  0.82830472  0.18997713  1
  O  O19  1  0.88529916  0.81915395  0.19012366  1
  O  O20  1  0.02770456  0.23133471  0.18889541  1
  O  O21  1  0.51473820  0.21475164  0.19566617  1
  O  O22  1  0.08602267  0.96207753  0.18714119  1
  O  O23  1  0.58466716  0.95508456  0.19133744  1
  O  O24  1  0.43847813  0.35265751  0.63826454  1
  O  O25  1  0.94396469  0.37627660  0.64502808  1
  O  O26  1  0.24789749  0.12118371  0.64435649  1
  O  O27  1  0.73678377  0.11875970  0.63792424  1
  O  O28  1  0.31847545  0.51815657  0.64406375  1
  O  O29  1  0.81547080  0.50846296  0.64407244  1
  O  O30  1  0.44050872  0.50555795  0.14166920  1
  O  O31  1  0.93952176  0.52458735  0.13669956  1
  O  O32  1  0.31263498  0.12005689  0.14178052  1
  O  O33  1  0.81851980  0.12162830  0.14260752  1
  O  O34  1  0.23935781  0.35819181  0.13543233  1
  O  O35  1  0.74866799  0.37436341  0.14283047  1
  O  O36  1  0.22558342  0.30598346  0.02726957  1
  O  O37  1  0.72680884  0.28663990  0.02598060  1
  O  O38  1  0.41266872  0.54289721  0.02582947  1
  O  O39  1  0.92853776  0.55574394  0.02907593  1
  O  O40  1  0.35204708  0.14562606  0.02400816  1
  O  O41  1  0.85865905  0.16715590  0.02555490  1
  O  O42  1  0.22839429  0.16909844  0.52770636  1
  O  O43  1  0.72263107  0.14315223  0.53044931  1
  O  O44  1  0.35795295  0.54715432  0.52683512  1
  O  O45  1  0.85006393  0.54375750  0.52585070  1
  O  O46  1  0.42745867  0.29896398  0.53055131  1
  O  O47  1  0.91467570  0.28998575  0.52839667  1
  O  O48  1  0.27352333  0.69177129  0.97065729  1
  O  O49  1  0.77420135  0.70289554  0.97594468  1
  O  O50  1  0.08116281  0.46294270  0.97752594  1
  O  O51  1  0.57530122  0.45260878  0.97588097  1
  O  O52  1  0.14927149  0.84851230  0.97598128  1
  O  O53  1  0.65397523  0.85824381  0.97082175  1
  O  O54  1  0.27461450  0.84630935  0.47631877  1
  O  O55  1  0.77701980  0.84970929  0.47640833  1
  O  O56  1  0.15594503  0.45342917  0.47134362  1
  O  O57  1  0.64331193  0.44395387  0.47615938  1
  O  O58  1  0.07637297  0.69695338  0.47620204  1
  O  O59  1  0.57733304  0.69341387  0.47896767  1
  O  O60  1  0.06211650  0.63519430  0.35615814  1
  O  O61  1  0.55798706  0.62096608  0.35875618  1
  O  O62  1  0.25732989  0.88103467  0.35634333  1
  O  O63  1  0.75987307  0.89571027  0.35808152  1
  O  O64  1  0.17891037  0.47757481  0.36231507  1
  O  O65  1  0.68455926  0.48909798  0.35736441  1
  O  O66  1  0.05951551  0.49645423  0.85936446  1
  O  O67  1  0.56141460  0.48323771  0.85598802  1
  O  O68  1  0.18989413  0.88629246  0.85856850  1
  O  O69  1  0.67690940  0.87937869  0.86206001  1
  O  O70  1  0.26293769  0.63692135  0.86292106  1
  O  O71  1  0.75671838  0.63266599  0.85645328  1
  O  O72  1  0.01244824  0.84373749  0.41229658  1
  O  O73  1  0.51497915  0.83585829  0.41513318  1
  O  O74  1  0.41053265  0.99612699  0.41044721  1
  O  O75  1  0.91162566  0.98109749  0.41260100  1
  O  O76  1  0.09001941  0.20492737  0.41245962  1
  O  O77  1  0.57927015  0.18132191  0.40960892  1
  O  O78  1  0.01524775  0.19367352  0.91520481  1
  O  O79  1  0.50593169  0.17187788  0.91273550  1
  O  O80  1  0.08033298  0.97778501  0.90996430  1
  O  O81  1  0.58696566  0.97385252  0.91266373  1
  O  O82  1  0.39983908  0.82083563  0.91314144  1
  O  O83  1  0.91069518  0.82423032  0.91047537  1
  O  O84  1  0.48999376  0.17632261  0.58864546  1
  O  O85  1  0.99003601  0.16663852  0.58514918  1
  O  O86  1  0.09217301  0.02069501  0.59085699  1
  O  O87  1  0.59777719  0.02656075  0.58839262  1
  O  O88  1  0.42266371  0.82529734  0.58722230  1
  O  O89  1  0.92054955  0.81279224  0.58858748  1
  O  O90  1  0.48852654  0.81251892  0.08470316  1
  O  O91  1  0.99118181  0.80362931  0.08768848  1
  O  O92  1  0.42065554  0.02444135  0.08887911  1
  O  O93  1  0.92312727  0.01949901  0.08710115  1
  O  O94  1  0.10075673  0.17424653  0.08585718  1
  O  O95  1  0.59160456  0.16337605  0.09003062  1
  O  O96  1  0.34431880  0.16810245  0.74691890  1
  O  O97  1  0.84308592  0.16780420  0.74406586  1
  O  O98  1  0.23909379  0.31683706  0.74903414  1
  O  O99  1  0.74306586  0.31442136  0.74371159  1
  O  O100  1  0.41920114  0.52071778  0.74553098  1
  O  O101  1  0.92509433  0.53857489  0.74618645  1
  O  O102  1  0.34359947  0.51893035  0.24303298  1
  O  O103  1  0.84353872  0.51759291  0.24469180  1
  O  O104  1  0.42363112  0.30938712  0.24487323  1
  O  O105  1  0.91965566  0.32004791  0.24374296  1
  O  O106  1  0.24100236  0.17127644  0.24444780  1
  O  O107  1  0.73808143  0.15959431  0.24786243  1
  O  O108  1  0.31948549  0.50775094  0.92271914  1
  O  O109  1  0.82604246  0.49641741  0.92374719  1
  O  O110  1  0.42410638  0.34385739  0.91787560  1
  O  O111  1  0.92610753  0.36598499  0.92267098  1
  O  O112  1  0.25032757  0.16076653  0.92379407  1
  O  O113  1  0.74235086  0.12931549  0.91945241  1
  O  O114  1  0.32536572  0.15421449  0.42392085  1
  O  O115  1  0.81842626  0.15020219  0.42336708  1
  O  O116  1  0.24476823  0.35977903  0.41949450  1
  O  O117  1  0.74984674  0.34945967  0.42318629  1
  O  O118  1  0.42475902  0.48488757  0.42216963  1
  O  O119  1  0.92587127  0.51059090  0.41725201  1
  O  O120  1  0.17618236  0.48326941  0.07699822  1
  O  O121  1  0.67607214  0.49971298  0.07949413  1
  O  O122  1  0.06615957  0.64449202  0.07848622  1
  O  O123  1  0.57523711  0.64995988  0.07388276  1
  O  O124  1  0.24877363  0.83847158  0.07792574  1
  O  O125  1  0.74935717  0.85313061  0.07555295  1
  O  O126  1  0.17710118  0.85337218  0.57972761  1
  O  O127  1  0.67260141  0.86679316  0.57968721  1
  O  O128  1  0.24961308  0.64672731  0.57632578  1
  O  O129  1  0.74707949  0.65024803  0.58056360  1
  O  O130  1  0.07680807  0.50238944  0.57560846  1
  O  O131  1  0.56516864  0.48552337  0.58003044  1
  O  O132  1  0.15235768  0.82999607  0.25116425  1
  O  O133  1  0.64788848  0.81578217  0.25592956  1
  O  O134  1  0.25815514  0.68770987  0.25599876  1
  O  O135  1  0.75365627  0.68375148  0.25512062  1
  O  O136  1  0.09091976  0.48268134  0.25647431  1
  O  O137  1  0.57792887  0.46243982  0.25420066  1
  O  O138  1  0.15079815  0.48117411  0.75835324  1
  O  O139  1  0.65243778  0.47683117  0.75078077  1
  O  O140  1  0.07964897  0.69452788  0.75467378  1
  O  O141  1  0.58993338  0.70023764  0.75830926  1
  O  O142  1  0.25527650  0.82092988  0.75639518  1
  O  O143  1  0.75812677  0.82893652  0.75663903  1
loop_
_geom_bond_atom_site_label_1
_geom_bond_atom_site_label_2
_geom_bond_distance
_geom_bond_site_symmetry_2
Na0 O106 2.465493 1_555
Na0 O132 2.511132 1_545
Na0 O104 2.515502 1_555
Na0 O134 2.526054 1_545
Na0 O32 2.586843 1_555
Na0 O62 2.692913 1_545
Na0 O18 2.868362 1_545
Na1 O107 2.391897 1_555
Na1 O105 2.463295 1_555
Na1 O33 2.582391 1_555
Na1 O135 2.639664 1_545
Na1 O63 2.676296 1_545
Na1 O133 2.677327 1_545
Na1 O5 2.894306 1_555
Na1 O19 2.936900 1_545
Na2 O106 2.417759 1_555
Na2 O136 2.462707 1_555
Na2 O102 2.479445 1_555
Na2 O134 2.565825 1_555
Na2 O64 2.728055 1_555
Na2 O34 2.782673 1_555
Na2 O0 2.809279 1_555
Na2 O20 2.870647 1_555
Na3 O103 2.364476 1_555
Na3 O107 2.397491 1_555
Na3 O135 2.536778 1_555
Na3 O35 2.593124 1_555
Na3 O137 2.648251 1_555
Na3 O65 2.696197 1_555
Na4 O103 2.385765 1_555
Na4 O105 2.390510 1_555
Na4 O132 2.553164 1_655
Na4 O60 2.602289 1_655
Na4 O136 2.657995 1_655
Na4 O31 2.788427 1_555
Na4 O3 2.861877 1_555
Na5 O133 2.408709 1_555
Na5 O102 2.418099 1_555
Na5 O104 2.586579 1_555
Na5 O30 2.645435 1_555
Na5 O137 2.665617 1_555
Na5 O61 2.756548 1_555
Na5 O2 2.808908 1_555
Na5 O23 2.839893 1_555
Na6 O28 2.389210 1_555
Na6 O98 2.401542 1_555
Na6 O100 2.428874 1_555
Na6 O142 2.611974 1_555
Na6 O138 2.660317 1_555
Na6 O12 2.861309 1_555
Na6 O70 2.921066 1_555
Na6 O8 2.959033 1_555
Na7 O99 2.447872 1_555
Na7 O29 2.457602 1_555
Na7 O139 2.521288 1_555
Na7 O101 2.530183 1_555
Na7 O143 2.532631 1_555
Na7 O71 2.766830 1_555
Na7 O13 2.824278 1_555
Na8 O97 2.389080 1_555
Na8 O25 2.462782 1_555
Na8 O138 2.500084 1_655
Na8 O101 2.569709 1_555
Na8 O140 2.718311 1_655
Na8 O14 2.763889 1_655
Na8 O11 2.842816 1_555
Na8 O66 2.878025 1_655
Na9 O100 2.393542 1_555
Na9 O96 2.404307 1_555
Na9 O139 2.523059 1_555
Na9 O141 2.639867 1_555
Na9 O67 2.641695 1_555
Na9 O24 2.689762 1_555
Na10 O96 2.372202 1_555
Na10 O98 2.379787 1_555
Na10 O26 2.469332 1_555
Na10 O142 2.605986 1_545
Na10 O140 2.662498 1_545
Na10 O68 2.818526 1_545
Na11 O97 2.437137 1_555
Na11 O99 2.440141 1_555
Na11 O141 2.484986 1_545
Na11 O143 2.546488 1_545
Na11 O27 2.655435 1_555
Na11 O69 2.792038 1_545
Na11 O7 2.818643 1_555
Na11 O17 2.848165 1_545
Na12 O128 2.496911 1_555
Na12 O86 2.504901 1_555
Na12 O130 2.535848 1_555
Na12 O85 2.560773 1_455
Na12 O14 2.711721 1_555
Na12 O56 2.779127 1_555
Na12 O42 2.807010 1_555
Na12 O28 2.923071 1_555
Na13 O129 2.371359 1_555
Na13 O131 2.518974 1_555
Na13 O57 2.539346 1_555
Na13 O87 2.609342 1_555
Na13 O84 2.641309 1_555
Na13 O15 2.778483 1_555
Na13 O29 2.873533 1_555
Na13 O43 2.913208 1_555
Na14 O89 2.403515 1_455
Na14 O130 2.551039 1_555
Na14 O58 2.584469 1_555
Na14 O86 2.592163 1_565
Na14 O126 2.594267 1_555
Na14 O45 2.817865 1_455
Na14 O16 2.860750 1_555
Na14 O25 2.928166 1_455
Na15 O59 2.452660 1_555
Na15 O127 2.479128 1_555
Na15 O131 2.494621 1_555
Na15 O88 2.510126 1_555
Na15 O87 2.633639 1_565
Na15 O44 2.708517 1_555
Na15 O17 2.843935 1_555
Na16 O126 2.424630 1_555
Na16 O128 2.513163 1_555
Na16 O84 2.571078 1_565
Na16 O88 2.574868 1_555
Na16 O54 2.644073 1_555
Na16 O12 2.684859 1_555
Na16 O26 2.852581 1_565
Na16 O46 2.926124 1_565
Na17 O129 2.424409 1_555
Na17 O55 2.425236 1_555
Na17 O85 2.543284 1_565
Na17 O89 2.553504 1_555
Na17 O127 2.582699 1_555
Na17 O47 2.842252 1_565
Na17 O13 2.846061 1_555
Na18 O124 2.459417 1_555
Na18 O122 2.532949 1_555
Na18 O94 2.582129 1_565
Na18 O91 2.601024 1_455
Na18 O22 2.618895 1_555
Na18 O52 2.643668 1_554
Na18 O32 2.763864 1_565
Na19 O125 2.475051 1_555
Na19 O95 2.512497 1_565
Na19 O123 2.573070 1_555
Na19 O23 2.597648 1_555
Na19 O90 2.612221 1_555
Na19 O53 2.841639 1_554
Na19 O33 2.852509 1_565
Na19 O37 2.857017 1_565
Na20 O124 2.399927 1_555
Na20 O90 2.467190 1_555
Na20 O92 2.520105 1_565
Na20 O120 2.557253 1_555
Na20 O18 2.589247 1_555
Na20 O48 2.773457 1_554
Na20 O38 2.848377 1_555
Na20 O34 2.979711 1_555
Na21 O121 2.442701 1_555
Na21 O125 2.526280 1_555
Na21 O19 2.542083 1_555
Na21 O93 2.578688 1_565
Na21 O91 2.591701 1_555
Na21 O49 2.723583 1_554
Na21 O35 2.818764 1_555
Na21 O39 2.975323 1_555
Na22 O93 2.473872 1_455
Na22 O122 2.521422 1_555
Na22 O120 2.567433 1_555
Na22 O50 2.622132 1_554
Na22 O94 2.623191 1_555
Na22 O20 2.663005 1_555
Na22 O41 2.726462 1_455
Na22 O31 2.969846 1_455
Na23 O92 2.447784 1_555
Na23 O121 2.546013 1_555
Na23 O123 2.548548 1_555
Na23 O95 2.553037 1_555
Na23 O51 2.654958 1_554
Na23 O21 2.752678 1_555
Na23 O30 2.853102 1_555
Na23 O40 2.883871 1_555
Na24 O111 2.409982 1_555
Na24 O83 2.410801 1_555
Na24 O80 2.473235 1_655
Na24 O109 2.505781 1_555
Na24 O39 2.699772 1_556
Na24 O9 2.754486 1_555
Na24 O66 2.848597 1_655
Na24 O52 2.895109 1_655
Na25 O110 2.413228 1_555
Na25 O79 2.460958 1_555
Na25 O112 2.563091 1_555
Na25 O82 2.563511 1_545
Na25 O10 2.566586 1_555
Na25 O40 2.625128 1_556
Na25 O68 2.820100 1_545
Na26 O78 2.366952 1_555
Na26 O112 2.440146 1_555
Na26 O80 2.507514 1_545
Na26 O108 2.513463 1_555
Na26 O6 2.620529 1_555
Na26 O36 2.728828 1_556
Na26 O50 2.959627 1_555
Na26 O70 2.968971 1_555
Na27 O118 2.419878 1_555
Na27 O77 2.445520 1_555
Na27 O74 2.448874 1_545
Na27 O114 2.553651 1_555
Na27 O46 2.738847 1_555
Na27 O57 2.780198 1_555
Na27 O4 2.786621 1_555
Na27 O61 2.837142 1_555
Na28 O115 2.371900 1_555
Na28 O73 2.451466 1_545
Na28 O117 2.520011 1_555
Na28 O77 2.604818 1_555
Na28 O1 2.698450 1_555
Na28 O43 2.783082 1_555
Na28 O63 2.808831 1_545
Na29 O119 2.458044 1_555
Na29 O75 2.489883 1_555
Na29 O117 2.546965 1_555
Na29 O72 2.574677 1_655
Na29 O45 2.669278 1_555
Na29 O3 2.732239 1_555
Na29 O55 2.870470 1_555
Na29 O65 2.937577 1_555
Na30 O75 2.438247 1_555
Na30 O72 2.451014 1_655
Na30 O85 2.552320 1_565
Na30 O89 2.586554 1_555
Na30 O76 2.615660 1_665
Na30 O86 2.644663 1_665
Na31 O73 2.376954 1_555
Na31 O74 2.451079 1_555
Na31 O88 2.510359 1_555
Na31 O77 2.542002 1_565
Na31 O87 2.739951 1_565
Na31 O84 2.766115 1_565
Na32 O78 2.414372 1_655
Na32 O93 2.443438 1_556
Na32 O83 2.456385 1_545
Na32 O80 2.587395 1_645
Na32 O94 2.722406 1_656
Na32 O91 2.747155 1_546
Na33 O95 2.463914 1_555
Na33 O79 2.500785 1_554
Na33 O90 2.502030 1_545
Na33 O92 2.531414 1_555
Na33 O81 2.602745 1_544
Na33 O82 2.717644 1_544
Na34 O96 2.389206 1_555
Na34 O100 2.407248 1_555
Na34 O98 2.444535 1_555
Na34 O110 2.569898 1_555
Na34 O112 2.721288 1_555
Na34 O108 2.782864 1_555
Na35 O99 2.479608 1_555
Na35 O97 2.500224 1_555
Na35 O113 2.591853 1_555
Na35 O111 2.623668 1_555
Na35 O109 2.623922 1_555
Na35 O101 2.684096 1_555
Na36 O106 2.506624 1_555
Na36 O116 2.553710 1_555
Na36 O102 2.553826 1_555
Na36 O118 2.568394 1_555
Na36 O114 2.622698 1_555
Na36 O104 2.698651 1_555
Na37 O105 2.489728 1_555
Na37 O107 2.511470 1_555
Na37 O119 2.535750 1_555
Na37 O103 2.538625 1_555
Na37 O115 2.586753 1_555
Na37 O117 2.667160 1_555
Na38 O132 2.421168 1_555
Na38 O134 2.478049 1_555
Na38 O124 2.522716 1_555
Na38 O136 2.547018 1_555
Na38 O122 2.715690 1_555
Na38 O120 2.757689 1_555
Na39 O135 2.469959 1_555
Na39 O133 2.507217 1_555
Na39 O121 2.568604 1_555
Na39 O125 2.570417 1_555
Na39 O123 2.657658 1_555
Na39 O137 2.680500 1_555
Na40 O128 2.473714 1_555
Na40 O126 2.495992 1_555
Na40 O130 2.510170 1_555
Na40 O142 2.592529 1_555
Na40 O138 2.653246 1_555
Na40 O140 2.727749 1_555
Na41 O129 2.380420 1_555
Na41 O139 2.486794 1_555
Na41 O143 2.546345 1_555
Na41 O131 2.646569 1_555
Na41 O127 2.669190 1_555
Na41 O141 2.674475 1_555
Mg0 O26 1.996258 1_555
Mg0 O28 2.032448 1_555
Mg0 O98 2.061395 1_555
Mg0 O100 2.125090 1_555
Mg0 O96 2.149929 1_555
Mg0 O24 2.225609 1_555
Mg1 O29 1.984085 1_555
Mg1 O25 2.019231 1_555
Mg1 O99 2.081737 1_555
Mg1 O27 2.121242 1_555
Mg1 O97 2.127676 1_555
Mg1 O101 2.272786 1_555
Mg2 O32 2.011812 1_555
Mg2 O30 2.031726 1_555
Mg2 O106 2.079982 1_555
Mg2 O102 2.085136 1_555
Mg2 O34 2.158900 1_555
Mg2 O104 2.209167 1_555
Mg3 O35 2.013522 1_555
Mg3 O33 2.030537 1_555
Mg3 O107 2.030826 1_555
Mg3 O103 2.077266 1_555
Mg3 O105 2.090281 1_555
Mg3 O31 2.290130 1_555
Mg4 O52 1.947189 1_554
Mg4 O50 1.967041 1_554
Mg4 O124 2.054076 1_555
Mg4 O48 2.135049 1_554
Mg4 O122 2.203323 1_555
Mg4 O120 2.339498 1_555
Mg5 O55 1.952324 1_555
Mg5 O57 1.958118 1_555
Mg5 O59 2.011774 1_555
Mg5 O129 2.125822 1_555
Mg5 O131 2.400646 1_555
Mg5 O127 2.412874 1_555
O0 Si0 1.623008 1_555
O0 Sn0 2.006773 1_445
O1 Si1 1.634772 1_545
O1 Sn1 2.004469 1_545
O2 Si2 1.620968 1_555
O2 Sn1 1.973036 1_555
O3 Si3 1.625702 1_555
O3 Sn0 2.009241 1_555
O4 S0 1.481423 1_555
O4 Sn1 2.309183 1_545
O5 Si4 1.618555 1_655
O5 Sn0 2.009953 1_545
O6 Si5 1.640367 1_555
O6 Sn2 2.015265 1_455
O7 Si6 1.639118 1_555
O7 Sn3 1.957695 1_555
O8 Si7 1.646804 1_555
O8 Sn3 1.986569 1_565
O9 S1 1.482065 1_655
O9 Sn2 2.272790 1_565
O10 Si8 1.644171 1_545
O10 Sn3 2.002743 1_555
O11 Si9 1.628726 1_555
O11 Sn2 1.964849 1_555
O12 Si8 1.657999 1_555
O12 Sn5 2.002525 1_555
O13 Si9 1.655046 1_565
O13 Sn4 2.019730 1_565
O14 Si5 1.651132 1_555
O14 Sn4 2.043641 1_455
O15 Si6 1.671266 1_555
O15 Sn5 2.006446 1_545
O16 S1 1.481486 1_555
O16 Sn4 2.292409 1_465
O17 Si7 1.668038 1_555
O17 Sn5 1.988187 1_555
O18 Si2 1.665284 1_555
O18 Sn7 2.025674 1_555
O19 Si3 1.680703 1_555
O19 Sn6 1.985279 1_565
O20 Si4 1.690702 1_555
O20 Sn6 1.980742 1_455
O21 S0 1.500474 1_555
O21 Sn7 2.223612 1_545
O22 Si0 1.694363 1_565
O22 Sn6 2.008215 1_465
O23 Si1 1.665368 1_555
O23 Sn7 2.011441 1_555
O24 S2 1.464798 1_555
O25 Si10 1.605942 1_555
O26 Si11 1.599197 1_555
O27 S3 1.471002 1_555
O28 Si12 1.600785 1_555
O29 Si13 1.608272 1_555
O30 Si14 1.599584 1_555
O31 S4 1.459322 1_555
O32 Si15 1.600930 1_555
O33 Si16 1.594350 1_555
O34 S5 1.467975 1_555
O35 Si17 1.591746 1_555
O36 S5 1.506756 1_555
O36 Sn8 2.263901 1_554
O37 Si17 1.660635 1_555
O37 Sn9 2.002148 1_554
O38 Si14 1.669471 1_555
O38 Sn8 1.975422 1_554
O39 S4 1.502185 1_555
O39 Sn9 2.235366 1_554
O40 Si15 1.684703 1_555
O40 Sn8 1.989923 1_554
O41 Si16 1.655169 1_555
O41 Sn9 2.022017 1_554
O42 Si11 1.655993 1_555
O42 Sn10 2.007698 1_555
O43 S3 1.480664 1_555
O43 Sn11 2.370067 1_555
O44 Si12 1.645137 1_555
O44 Sn10 2.018485 1_555
O45 Si13 1.672710 1_555
O45 Sn11 2.033817 1_555
O46 S2 1.497405 1_555
O46 Sn10 2.254163 1_555
O47 Si10 1.635447 1_555
O47 Sn11 1.995753 1_555
O48 S6 1.466074 1_555
O49 Si18 1.633064 1_555
O49 Sn12 2.004812 1_556
O50 Si19 1.604479 1_555
O51 Si20 1.624992 1_555
O51 Sn12 2.023638 1_556
O52 Si21 1.595035 1_555
O53 S7 1.481855 1_555
O53 Sn12 2.257763 1_556
O54 Si22 1.634847 1_555
O54 Sn13 2.010191 1_555
O55 Si23 1.605016 1_555
O56 S8 1.488639 1_555
O56 Sn13 2.210235 1_555
O57 Si24 1.600924 1_555
O58 Si25 1.634101 1_555
O58 Sn13 1.999635 1_555
O59 Si26 1.605000 1_555
O60 Si25 1.633056 1_555
O60 Sn14 1.981045 1_555
O61 Si26 1.677773 1_555
O61 Sn15 2.035923 1_555
O62 Si22 1.631968 1_555
O62 Sn14 2.004840 1_555
O63 Si23 1.673485 1_555
O63 Sn15 1.992589 1_555
O64 S8 1.483469 1_555
O64 Sn14 2.245882 1_555
O65 Si24 1.668741 1_555
O65 Sn15 2.038848 1_555
O66 Si19 1.683799 1_555
O66 Sn16 2.008438 1_555
O67 Si20 1.626556 1_555
O67 Sn17 2.011113 1_555
O68 Si21 1.671172 1_555
O68 Sn16 2.033750 1_555
O69 S7 1.481625 1_555
O69 Sn17 2.240806 1_555
O70 S6 1.511083 1_555
O70 Sn16 2.173230 1_555
O71 Si18 1.631544 1_555
O71 Sn17 2.006088 1_555
O72 Si25 1.643848 1_555
O72 Sn0 2.066692 1_455
O73 Si26 1.649872 1_555
O73 Sn1 2.020045 1_555
O74 Si22 1.649564 1_555
O74 Sn1 2.044002 1_555
O75 Si23 1.648415 1_555
O75 Sn0 2.040152 1_555
O76 S8 1.474954 1_555
O76 Sn0 2.272057 1_445
O77 Si24 1.656453 1_555
O77 Sn1 2.054767 1_545
O78 Si19 1.646584 1_555
O78 Sn2 2.023397 1_455
O79 Si20 1.680660 1_555
O79 Sn3 2.052682 1_555
O80 Si21 1.644240 1_555
O80 Sn2 2.087470 1_465
O81 S7 1.494637 1_555
O81 Sn3 2.249544 1_565
O82 S6 1.487295 1_555
O82 Sn3 2.353275 1_565
O83 Si18 1.655208 1_555
O83 Sn2 2.045702 1_565
O84 S2 1.527301 1_555
O84 Sn5 2.324728 1_545
O85 Si10 1.664044 1_555
O85 Sn4 2.025390 1_555
O86 Si11 1.661998 1_555
O86 Sn4 2.063789 1_455
O87 S3 1.536139 1_555
O87 Sn5 2.253148 1_545
O88 Si12 1.709204 1_555
O88 Sn5 2.064477 1_555
O89 Si13 1.684154 1_555
O89 Sn4 2.055975 1_565
O90 Si14 1.658291 1_555
O90 Sn7 2.057128 1_555
O91 S4 1.519206 1_555
O91 Sn6 2.376804 1_565
O92 Si15 1.669564 1_555
O92 Sn7 2.066857 1_545
O93 Si16 1.711643 1_555
O93 Sn6 2.089719 1_555
O94 S5 1.510196 1_555
O94 Sn6 2.398109 1_455
O95 Si17 1.665896 1_555
O95 Sn7 2.084973 1_545
O96 Si8 1.605620 1_545
O97 Si9 1.616540 1_555
O98 Si5 1.608301 1_555
O99 Si6 1.607601 1_555
O100 Si7 1.607266 1_555
O101 S1 1.469576 1_655
O102 Si2 1.616689 1_555
O103 Si3 1.603493 1_555
O104 S0 1.478300 1_555
O105 Si4 1.603869 1_655
O106 Si0 1.616626 1_555
O107 Si1 1.604522 1_545
O108 S6 1.492279 1_555
O108 Sn8 2.325454 1_555
O109 Si18 1.653218 1_555
O109 Sn9 2.066572 1_555
O110 Si20 1.661023 1_555
O110 Sn8 2.025690 1_555
O111 Si19 1.655859 1_655
O111 Sn9 2.056332 1_555
O112 Si21 1.681210 1_545
O112 Sn8 2.078143 1_555
O113 S7 1.493912 1_545
O113 Sn9 2.192281 1_555
O114 Si22 1.651786 1_545
O114 Sn10 2.050019 1_555
O115 Si23 1.646126 1_545
O115 Sn11 2.029735 1_555
O116 S8 1.497613 1_555
O116 Sn10 2.173203 1_555
O117 Si24 1.651330 1_555
O117 Sn11 2.097645 1_555
O118 Si26 1.665243 1_555
O118 Sn10 2.049362 1_555
O119 Si25 1.642886 1_655
O119 Sn11 2.015563 1_555
O120 S5 1.484218 1_555
O121 Si17 1.664655 1_555
O121 Sn12 2.041786 1_555
O122 S4 1.486086 1_455
O123 Si14 1.659331 1_555
O123 Sn12 2.058656 1_555
O124 Si15 1.642310 1_565
O125 Si16 1.662158 1_565
O125 Sn12 2.085440 1_555
O126 Si11 1.661473 1_565
O126 Sn13 2.052512 1_555
O127 S3 1.477559 1_565
O128 Si12 1.658046 1_555
O128 Sn13 2.100884 1_555
O129 Si13 1.641682 1_555
O130 Si10 1.667848 1_455
O130 Sn13 2.073687 1_555
O131 S2 1.478557 1_555
O132 Si0 1.657239 1_565
O132 Sn14 2.079471 1_555
O133 Si1 1.669623 1_555
O133 Sn15 2.110059 1_555
O134 Si2 1.653987 1_555
O134 Sn14 2.067941 1_555
O135 Si3 1.664435 1_555
O135 Sn15 2.087628 1_555
O136 Si4 1.653914 1_555
O136 Sn14 2.057681 1_555
O137 S0 1.489673 1_555
O137 Sn15 2.388551 1_555
O138 Si5 1.679200 1_555
O138 Sn16 2.062839 1_555
O139 Si6 1.651754 1_555
O139 Sn17 2.059792 1_555
O140 S1 1.515643 1_555
O140 Sn16 2.219784 1_555
O141 Si7 1.647956 1_555
O141 Sn17 2.051860 1_555
O142 Si8 1.671824 1_555
O142 Sn16 2.053827 1_555
O143 Si9 1.655974 1_565
O143 Sn17 2.062093 1_555
