# generated using pymatgen
data_MgFe4(SbS)4
_symmetry_space_group_name_H-M   'P 1'
_cell_length_a   6.05193257
_cell_length_b   6.48197606
_cell_length_c   6.31086715
_cell_angle_alpha   112.85671574
_cell_angle_beta   87.89499322
_cell_angle_gamma   92.40681327
_symmetry_Int_Tables_number   1
_chemical_formula_structural   MgFe4(SbS)4
_chemical_formula_sum   'Mg1 Fe4 Sb4 S4'
_cell_volume   227.86934748
_cell_formula_units_Z   1
loop_
 _symmetry_equiv_pos_site_id
 _symmetry_equiv_pos_as_xyz
  1  'x, y, z'
loop_
 _atom_site_type_symbol
 _atom_site_label
 _atom_site_symmetry_multiplicity
 _atom_site_fract_x
 _atom_site_fract_y
 _atom_site_fract_z
 _atom_site_occupancy
  Mg  Mg0  1  0.52818700  0.52718400  0.49726200  1
  Fe  Fe0  1  0.99689100  0.73761700  0.72050100  1
  Fe  Fe1  1  0.51677200  0.72762100  0.20345700  1
  Fe  Fe2  1  0.03149800  0.32556300  0.29369700  1
  Fe  Fe3  1  0.50264200  0.33743700  0.80516500  1
  Sb  Sb0  1  0.33928200  0.93838700  0.63454400  1
  Sb  Sb1  1  0.69624800  0.11567600  0.38277500  1
  Sb  Sb2  1  0.16148800  0.88967600  0.13203000  1
  Sb  Sb3  1  0.86682500  0.17691100  0.87897900  1
  S  S0  1  0.34953300  0.38949700  0.14042200  1
  S  S1  1  0.67359700  0.67777000  0.87132500  1
  S  S2  1  0.88813700  0.65605300  0.34427800  1
  S  S3  1  0.14681600  0.40685800  0.66848000  1
loop_
_geom_bond_atom_site_label_1
_geom_bond_atom_site_label_2
_geom_bond_distance
_geom_bond_site_symmetry_2
Mg0 S0 2.360795 1_555
Mg0 S1 2.364385 1_555
Mg0 S2 2.587366 1_555
Mg0 Sb1 2.710747 1_555
Mg0 S3 2.724553 1_555
Mg0 Sb0 2.747950 1_555
Fe0 S1 2.229542 1_555
Fe0 S3 2.263262 1_655
Fe0 S2 2.336746 1_555
Fe0 Sb0 2.553614 1_655
Fe0 Sb2 2.612986 1_656
Fe0 Sb3 2.765162 1_565
Fe1 S1 2.179916 1_554
Fe1 S0 2.269842 1_555
Fe1 Sb1 2.537117 1_565
Fe1 Sb2 2.560960 1_555
Fe1 S2 2.571131 1_555
Fe1 Mg0 2.649353 1_555
Fe1 Sb0 2.728144 1_555
Fe2 S0 2.218024 1_555
Fe2 S2 2.246845 1_455
Fe2 S3 2.341170 1_555
Fe2 Sb1 2.561628 1_455
Fe2 Sb3 2.631230 1_454
Fe2 Sb2 2.744279 1_545
Fe3 S0 2.185524 1_556
Fe3 S1 2.288189 1_555
Fe3 S3 2.470473 1_555
Fe3 Sb0 2.554845 1_545
Fe3 Sb3 2.608053 1_555
Fe3 Mg0 2.670395 1_555
Fe3 Sb1 2.734978 1_555
S2 Sb2 2.833144 1_655
S3 Sb3 2.831670 1_455
