# generated using pymatgen
data_Li2Ni(PO3)4
_symmetry_space_group_name_H-M   'P 1'
_cell_length_a   8.49375421
_cell_length_b   8.49375421
_cell_length_c   7.63358893
_cell_angle_alpha   82.75451679
_cell_angle_beta   82.75451679
_cell_angle_gamma   113.74199436
_symmetry_Int_Tables_number   1
_chemical_formula_structural   Li2Ni(PO3)4
_chemical_formula_sum   'Li4 Ni2 P8 O24'
_cell_volume   490.50169034
_cell_formula_units_Z   2
loop_
 _symmetry_equiv_pos_site_id
 _symmetry_equiv_pos_as_xyz
  1  'x, y, z'
loop_
 _atom_site_type_symbol
 _atom_site_label
 _atom_site_symmetry_multiplicity
 _atom_site_fract_x
 _atom_site_fract_y
 _atom_site_fract_z
 _atom_site_occupancy
  Li  Li0  1  0.81565900  0.51681700  0.75027600  1
  Li  Li1  1  0.51681700  0.81565900  0.25027600  1
  Li  Li2  1  0.48318300  0.18434100  0.74972400  1
  Li  Li3  1  0.18434100  0.48318300  0.24972400  1
  Ni  Ni0  1  0.12784400  0.87215600  0.75000000  1
  Ni  Ni1  1  0.87215600  0.12784400  0.25000000  1
  P  P0  1  0.20665600  0.06300400  0.32821800  1
  P  P1  1  0.06300400  0.20665600  0.82821800  1
  P  P2  1  0.79334400  0.93699600  0.67178200  1
  P  P3  1  0.93699600  0.79334400  0.17178200  1
  P  P4  1  0.42444000  0.77207900  0.87724200  1
  P  P5  1  0.77207900  0.42444000  0.37724200  1
  P  P6  1  0.22792100  0.57556000  0.62275800  1
  P  P7  1  0.57556000  0.22792100  0.12275800  1
  O  O0  1  0.10352000  0.17219700  0.33313600  1
  O  O1  1  0.27049900  0.01690200  0.49307300  1
  O  O2  1  0.89648000  0.82780300  0.66686400  1
  O  O3  1  0.72950100  0.98309800  0.50692700  1
  O  O4  1  0.82780300  0.89648000  0.16686400  1
  O  O5  1  0.98309800  0.72950100  0.00692700  1
  O  O6  1  0.63125300  0.83496700  0.83903900  1
  O  O7  1  0.83496700  0.63125300  0.33903900  1
  O  O8  1  0.37683300  0.92003800  0.81202700  1
  O  O9  1  0.92003800  0.37683300  0.31202700  1
  O  O10  1  0.68358000  0.36540600  0.57123100  1
  O  O11  1  0.37064100  0.62935900  0.75000000  1
  O  O12  1  0.88986400  0.11013600  0.75000000  1
  O  O13  1  0.63459400  0.31642000  0.92876900  1
  O  O14  1  0.36540600  0.68358000  0.07123100  1
  O  O15  1  0.11013600  0.88986400  0.25000000  1
  O  O16  1  0.62935900  0.37064100  0.25000000  1
  O  O17  1  0.31642000  0.63459400  0.42876900  1
  O  O18  1  0.07996200  0.62316700  0.68797300  1
  O  O19  1  0.62316700  0.07996200  0.18797300  1
  O  O20  1  0.16503300  0.36874700  0.66096100  1
  O  O21  1  0.36874700  0.16503300  0.16096100  1
  O  O22  1  0.01690200  0.27049900  0.99307300  1
  O  O23  1  0.17219700  0.10352000  0.83313600  1
loop_
_geom_bond_atom_site_label_1
_geom_bond_atom_site_label_2
_geom_bond_distance
_geom_bond_site_symmetry_2
Li0 O13 1.974204 1_555
Li0 O18 2.017736 1_655
Li0 O10 2.109230 1_555
Li0 O2 2.420590 1_555
Li1 O17 1.974204 1_555
Li1 O19 2.017736 1_565
Li1 O14 2.109230 1_555
Li1 O4 2.420590 1_555
Li2 O10 1.974204 1_555
Li2 O8 2.017736 1_545
Li2 O13 2.109230 1_555
Li2 O23 2.420590 1_555
Li3 O14 1.974204 1_555
Li3 O9 2.017736 1_455
Li3 O17 2.109230 1_555
Li3 O0 2.420590 1_555
Ni0 O2 2.045784 1_455
Ni0 O23 2.045784 1_565
Ni0 O5 2.102159 1_456
Ni0 O1 2.102159 1_565
Ni0 O18 2.114417 1_555
Ni0 O8 2.114417 1_555
Ni1 O4 2.045784 1_545
Ni1 O0 2.045784 1_655
Ni1 O3 2.102159 1_545
Ni1 O22 2.102159 1_654
Ni1 O19 2.114417 1_555
Ni1 O9 2.114417 1_555
O0 P0 1.511191 1_555
O1 P0 1.499955 1_555
O2 P2 1.511191 1_555
O3 P2 1.499955 1_555
O4 P3 1.511191 1_555
O5 P3 1.499955 1_555
O6 P4 1.591228 1_555
O6 P2 1.610403 1_555
O7 P5 1.591228 1_555
O7 P3 1.610403 1_555
O8 P4 1.514222 1_555
O9 P5 1.514222 1_555
O10 P5 1.495911 1_555
O11 P4 1.607690 1_555
O11 P6 1.607690 1_555
O12 P1 1.601699 1_655
O12 P2 1.601699 1_545
O13 P7 1.495911 1_556
O14 P4 1.495911 1_554
O15 P0 1.601699 1_565
O15 P3 1.601699 1_455
O16 P5 1.607690 1_555
O16 P7 1.607690 1_555
O17 P6 1.495911 1_555
O18 P6 1.514222 1_555
O19 P7 1.514222 1_555
O20 P6 1.591228 1_555
O20 P1 1.610403 1_555
O21 P7 1.591228 1_555
O21 P0 1.610403 1_555
O22 P1 1.499955 1_555
O23 P1 1.511191 1_555
