# generated using pymatgen
data_K2TeBr6
_symmetry_space_group_name_H-M   'P 1'
_cell_length_a   7.45601410
_cell_length_b   7.45601410
_cell_length_c   11.14076675
_cell_angle_alpha   90.00000000
_cell_angle_beta   90.00000000
_cell_angle_gamma   90.00000000
_symmetry_Int_Tables_number   1
_chemical_formula_structural   K2TeBr6
_chemical_formula_sum   'K4 Te2 Br12'
_cell_volume   619.33913461
_cell_formula_units_Z   2
loop_
 _symmetry_equiv_pos_site_id
 _symmetry_equiv_pos_as_xyz
  1  'x, y, z'
loop_
 _atom_site_type_symbol
 _atom_site_label
 _atom_site_symmetry_multiplicity
 _atom_site_fract_x
 _atom_site_fract_y
 _atom_site_fract_z
 _atom_site_occupancy
  K  K0  1  0.00000000  0.50000000  0.25000000  1
  K  K1  1  0.50000000  -0.00000000  0.75000000  1
  K  K2  1  0.00000000  0.50000000  0.75000000  1
  K  K3  1  0.50000000  -0.00000000  0.25000000  1
  Te  Te0  1  0.50000000  0.50000000  0.50000000  1
  Te  Te1  1  0.00000000  -0.00000000  0.00000000  1
  Br  Br0  1  0.19289319  0.30413232  0.50000000  1
  Br  Br1  1  0.80710681  0.69586768  0.50000000  1
  Br  Br2  1  0.00000000  -0.00000000  0.24458410  1
  Br  Br3  1  0.50000000  0.50000000  0.25541590  1
  Br  Br4  1  0.00000000  -0.00000000  0.75541590  1
  Br  Br5  1  0.50000000  0.50000000  0.74458410  1
  Br  Br6  1  0.19586768  0.30710681  0.00000000  1
  Br  Br7  1  0.69289319  0.19586768  0.00000000  1
  Br  Br8  1  0.30710681  0.80413232  0.00000000  1
  Br  Br9  1  0.69586768  0.19289319  0.50000000  1
  Br  Br10  1  0.30413232  0.80710681  0.50000000  1
  Br  Br11  1  0.80413232  0.69289319  0.00000000  1
loop_
_geom_bond_atom_site_label_1
_geom_bond_atom_site_label_2
_geom_bond_distance
_geom_bond_site_symmetry_2
Br0 Te0 2.715860 1_555
Br0 K2 3.458106 1_555
Br0 K0 3.458106 1_555
Br1 Te0 2.715860 1_555
Br1 K2 3.458106 1_655
Br1 K0 3.458106 1_655
Br2 Te1 2.724854 1_555
Br2 K3 3.728495 1_555
Br2 K0 3.728495 1_555
Br2 K0 3.728495 1_545
Br2 K3 3.728495 1_455
Br3 Te0 2.724854 1_555
Br3 K3 3.728495 1_555
Br3 K0 3.728495 1_555
Br3 K0 3.728495 1_655
Br3 K3 3.728495 1_565
Br4 Te1 2.724854 1_556
Br4 K1 3.728495 1_455
Br4 K1 3.728495 1_555
Br4 K2 3.728495 1_555
Br4 K2 3.728495 1_545
Br5 Te0 2.724854 1_555
Br5 K2 3.728495 1_655
Br5 K1 3.728495 1_555
Br5 K1 3.728495 1_565
Br5 K2 3.728495 1_555
Br6 Te1 2.715860 1_555
Br6 K2 3.458106 1_554
Br6 K0 3.458106 1_555
Br7 Te1 2.715860 1_655
Br7 K1 3.458106 1_554
Br7 K3 3.458106 1_555
Br8 Te1 2.715860 1_565
Br8 K1 3.458106 1_564
Br8 K3 3.458106 1_565
Br9 Te0 2.715860 1_555
Br9 K1 3.458106 1_555
Br9 K3 3.458106 1_555
Br10 Te0 2.715860 1_555
Br10 K3 3.458106 1_565
Br10 K1 3.458106 1_565
Br11 Te1 2.715860 1_665
Br11 K2 3.458106 1_654
Br11 K0 3.458106 1_655
