# generated using pymatgen
data_PuH8(SO6)2
_symmetry_space_group_name_H-M   'P 1'
_cell_length_a   5.76885000
_cell_length_b   11.14309500
_cell_length_c   14.66933200
_cell_angle_alpha   90.00000000
_cell_angle_beta   90.00000000
_cell_angle_gamma   90.00000000
_symmetry_Int_Tables_number   1
_chemical_formula_structural   PuH8(SO6)2
_chemical_formula_sum   'Pu4 H32 S8 O48'
_cell_volume   942.98637454
_cell_formula_units_Z   4
loop_
 _symmetry_equiv_pos_site_id
 _symmetry_equiv_pos_as_xyz
  1  'x, y, z'
loop_
 _atom_site_type_symbol
 _atom_site_label
 _atom_site_symmetry_multiplicity
 _atom_site_fract_x
 _atom_site_fract_y
 _atom_site_fract_z
 _atom_site_occupancy
  Pu  Pu0  1  0.62597600  0.75000000  0.67096700  1
  Pu  Pu1  1  0.12597600  0.25000000  0.82903300  1
  Pu  Pu2  1  0.37402400  0.25000000  0.32903300  1
  Pu  Pu3  1  0.87402400  0.75000000  0.17096700  1
  H  H0  1  0.69838900  0.44428600  0.40366200  1
  H  H1  1  0.19838900  0.55571400  0.09633800  1
  H  H2  1  0.30161100  0.94428600  0.59633800  1
  H  H3  1  0.80161100  0.05571400  0.90366200  1
  H  H4  1  0.30161100  0.55571400  0.59633800  1
  H  H5  1  0.80161100  0.44428600  0.90366200  1
  H  H6  1  0.69838900  0.05571400  0.40366200  1
  H  H7  1  0.19838900  0.94428600  0.09633800  1
  H  H8  1  0.62586300  0.37367600  0.49231400  1
  H  H9  1  0.12586300  0.62632400  0.00768600  1
  H  H10  1  0.37413700  0.87367600  0.50768600  1
  H  H11  1  0.87413700  0.12632400  0.99231400  1
  H  H12  1  0.37413700  0.62632400  0.50768600  1
  H  H13  1  0.87413700  0.37367600  0.99231400  1
  H  H14  1  0.62586300  0.12632400  0.49231400  1
  H  H15  1  0.12586300  0.87367600  0.00768600  1
  H  H16  1  0.14966300  0.32126500  0.51298800  1
  H  H17  1  0.64966300  0.67873500  0.98701200  1
  H  H18  1  0.85033700  0.82126500  0.48701200  1
  H  H19  1  0.35033700  0.17873500  0.01298800  1
  H  H20  1  0.85033700  0.67873500  0.48701200  1
  H  H21  1  0.35033700  0.32126500  0.01298800  1
  H  H22  1  0.14966300  0.17873500  0.51298800  1
  H  H23  1  0.64966300  0.82126500  0.98701200  1
  H  H24  1  0.04161800  0.31992700  0.17270100  1
  H  H25  1  0.54161800  0.68007300  0.32729900  1
  H  H26  1  0.95838200  0.81992700  0.82729900  1
  H  H27  1  0.45838200  0.18007300  0.67270100  1
  H  H28  1  0.95838200  0.68007300  0.82729900  1
  H  H29  1  0.45838200  0.31992700  0.67270100  1
  H  H30  1  0.04161800  0.18007300  0.17270100  1
  H  H31  1  0.54161800  0.81992700  0.32729900  1
  S  S0  1  0.61745000  0.44595900  0.14953400  1
  S  S1  1  0.11745000  0.55404100  0.35046600  1
  S  S2  1  0.38255000  0.94595900  0.85046600  1
  S  S3  1  0.88255000  0.05404100  0.64953400  1
  S  S4  1  0.38255000  0.55404100  0.85046600  1
  S  S5  1  0.88255000  0.44595900  0.64953400  1
  S  S6  1  0.61745000  0.05404100  0.14953400  1
  S  S7  1  0.11745000  0.94595900  0.35046600  1
  O  O0  1  0.60519900  0.37531400  0.42498700  1
  O  O1  1  0.10519900  0.62468600  0.07501300  1
  O  O2  1  0.39480100  0.87531400  0.57501300  1
  O  O3  1  0.89480100  0.12468600  0.92498700  1
  O  O4  1  0.39480100  0.62468600  0.57501300  1
  O  O5  1  0.89480100  0.37531400  0.92498700  1
  O  O6  1  0.60519900  0.12468600  0.42498700  1
  O  O7  1  0.10519900  0.87531400  0.07501300  1
  O  O8  1  0.87151600  0.75000000  0.80349200  1
  O  O9  1  0.37151600  0.25000000  0.69650800  1
  O  O10  1  0.12848400  0.25000000  0.19650800  1
  O  O11  1  0.62848400  0.75000000  0.30349200  1
  O  O12  1  0.81638200  0.75000000  0.52565700  1
  O  O13  1  0.31638200  0.25000000  0.97434300  1
  O  O14  1  0.18361800  0.25000000  0.47434300  1
  O  O15  1  0.68361800  0.75000000  0.02565700  1
  O  O16  1  0.82654900  0.39620600  0.10573200  1
  O  O17  1  0.32654900  0.60379400  0.39426800  1
  O  O18  1  0.17345100  0.89620600  0.89426800  1
  O  O19  1  0.67345100  0.10379400  0.60573200  1
  O  O20  1  0.17345100  0.60379400  0.89426800  1
  O  O21  1  0.67345100  0.39620600  0.60573200  1
  O  O22  1  0.82654900  0.10379400  0.10573200  1
  O  O23  1  0.32654900  0.89620600  0.39426800  1
  O  O24  1  0.40825700  0.43267900  0.09253700  1
  O  O25  1  0.90825700  0.56732100  0.40746300  1
  O  O26  1  0.59174300  0.93267900  0.90746300  1
  O  O27  1  0.09174300  0.06732100  0.59253700  1
  O  O28  1  0.59174300  0.56732100  0.90746300  1
  O  O29  1  0.09174300  0.43267900  0.59253700  1
  O  O30  1  0.40825700  0.06732100  0.09253700  1
  O  O31  1  0.90825700  0.93267900  0.40746300  1
  O  O32  1  0.14874200  0.42262500  0.33074900  1
  O  O33  1  0.64874200  0.57737500  0.16925100  1
  O  O34  1  0.85125800  0.92262500  0.66925100  1
  O  O35  1  0.35125800  0.07737500  0.83074900  1
  O  O36  1  0.85125800  0.57737500  0.66925100  1
  O  O37  1  0.35125800  0.42262500  0.83074900  1
  O  O38  1  0.14874200  0.07737500  0.33074900  1
  O  O39  1  0.64874200  0.92262500  0.16925100  1
  O  O40  1  0.58703800  0.38340700  0.23958500  1
  O  O41  1  0.08703800  0.61659300  0.26041500  1
  O  O42  1  0.41296200  0.88340700  0.76041500  1
  O  O43  1  0.91296200  0.11659300  0.73958500  1
  O  O44  1  0.41296200  0.61659300  0.76041500  1
  O  O45  1  0.91296200  0.38340700  0.73958500  1
  O  O46  1  0.58703800  0.11659300  0.23958500  1
  O  O47  1  0.08703800  0.88340700  0.26041500  1
loop_
_geom_bond_atom_site_label_1
_geom_bond_atom_site_label_2
_geom_bond_distance
_geom_bond_site_symmetry_2
H0 O0 0.988715 1_555
H1 O1 0.988715 1_555
H2 O2 0.988715 1_555
H3 O3 0.988715 1_555
H4 O4 0.988715 1_555
H5 O5 0.988715 1_555
H6 O6 0.988715 1_555
H7 O7 0.988715 1_555
H8 O0 0.994978 1_555
H9 O1 0.994978 1_555
H10 O2 0.994978 1_555
H11 O3 0.994978 1_555
H12 O4 0.994978 1_555
H13 O5 0.994978 1_555
H14 O6 0.994978 1_555
H15 O7 0.994978 1_555
H16 O14 0.995166 1_555
H17 O15 0.995166 1_556
H18 O12 0.995166 1_555
H19 O13 0.995166 1_554
H20 O12 0.995166 1_555
H21 O13 0.995166 1_554
H22 O14 0.995166 1_555
H23 O15 0.995166 1_556
H24 O10 0.990070 1_555
H25 O11 0.990070 1_555
H26 O8 0.990070 1_555
H27 O9 0.990070 1_555
H28 O8 0.990070 1_555
H29 O9 0.990070 1_555
H30 O10 0.990070 1_555
H31 O11 0.990070 1_555
O0 Pu2 2.389499 1_555
O1 Pu3 2.389499 1_455
O2 Pu0 2.389499 1_555
O3 Pu1 2.389499 1_655
O4 Pu0 2.389499 1_555
O5 Pu1 2.389499 1_655
O6 Pu2 2.389499 1_555
O7 Pu3 2.389499 1_455
O8 Pu0 2.405362 1_555
O9 Pu1 2.405362 1_555
O10 Pu2 2.405362 1_555
O11 Pu3 2.405362 1_555
O12 Pu0 2.397969 1_555
O13 Pu1 2.397969 1_555
O14 Pu2 2.397969 1_555
O15 Pu3 2.397969 1_555
O16 S0 1.474887 1_555
O17 S1 1.474887 1_555
O18 S2 1.474887 1_555
O19 S3 1.474887 1_555
O20 S4 1.474887 1_555
O21 S5 1.474887 1_555
O22 S6 1.474887 1_555
O23 S7 1.474887 1_555
O24 S0 1.475584 1_555
O25 S1 1.475584 1_655
O26 S2 1.475584 1_555
O27 S3 1.475584 1_455
O28 S4 1.475584 1_555
O29 S5 1.475584 1_455
O30 S6 1.475584 1_555
O31 S7 1.475584 1_655
O32 S1 1.503548 1_555
O32 Pu2 2.321592 1_555
O33 S0 1.503548 1_555
O33 Pu3 2.321592 1_555
O34 S3 1.503548 1_565
O34 Pu0 2.321592 1_555
O35 S2 1.503548 1_545
O35 Pu1 2.321592 1_555
O36 S5 1.503548 1_555
O36 Pu0 2.321592 1_555
O37 S4 1.503548 1_555
O37 Pu1 2.321592 1_555
O38 S7 1.503548 1_545
O38 Pu2 2.321592 1_555
O39 S6 1.503548 1_565
O39 Pu3 2.321592 1_555
O40 S0 1.503872 1_555
O40 Pu2 2.332737 1_555
O41 S1 1.503872 1_555
O41 Pu3 2.332737 1_455
O42 S2 1.503872 1_555
O42 Pu0 2.332737 1_555
O43 S3 1.503872 1_555
O43 Pu1 2.332737 1_655
O44 S4 1.503872 1_555
O44 Pu0 2.332737 1_555
O45 S5 1.503872 1_555
O45 Pu1 2.332737 1_655
O46 S6 1.503872 1_555
O46 Pu2 2.332737 1_555
O47 S7 1.503872 1_555
O47 Pu3 2.332737 1_455
