# generated using pymatgen
data_Na9Mg8Ta4P9(SO8)9
_symmetry_space_group_name_H-M   'P 1'
_cell_length_a   8.78982543
_cell_length_b   8.77161002
_cell_length_c   22.60340325
_cell_angle_alpha   90.13915907
_cell_angle_beta   89.98231745
_cell_angle_gamma   120.01567419
_symmetry_Int_Tables_number   1
_chemical_formula_structural   Na9Mg8Ta4P9(SO8)9
_chemical_formula_sum   'Na9 Mg8 Ta4 P9 S9 O72'
_cell_volume   1509.01617659
_cell_formula_units_Z   1
loop_
 _symmetry_equiv_pos_site_id
 _symmetry_equiv_pos_as_xyz
  1  'x, y, z'
loop_
 _atom_site_type_symbol
 _atom_site_label
 _atom_site_symmetry_multiplicity
 _atom_site_fract_x
 _atom_site_fract_y
 _atom_site_fract_z
 _atom_site_occupancy
  Na  Na0  1  0.65997789  0.96593227  0.58286213  1
  Na  Na1  1  0.29884947  0.95945488  0.08212853  1
  Na  Na2  1  0.03148533  0.33865002  0.08256212  1
  Na  Na3  1  0.01828769  0.00112564  0.49501394  1
  Na  Na4  1  0.98176914  0.98289074  0.99399466  1
  Na  Na5  1  0.66461070  0.33385013  0.82928605  1
  Na  Na6  1  0.66882418  0.33589735  0.32870077  1
  Na  Na7  1  0.34664292  0.67532747  0.16238669  1
  Na  Na8  1  0.32028792  0.66266582  0.66190365  1
  Mg  Mg0  1  0.99989848  0.99883416  0.35404700  1
  Mg  Mg1  1  -0.00000250  0.99859236  0.85388874  1
  Mg  Mg2  1  0.01649800  0.00202377  0.64758526  1
  Mg  Mg3  1  0.98271983  0.98572180  0.14739445  1
  Mg  Mg4  1  0.66246284  0.32991204  0.68482240  1
  Mg  Mg5  1  0.67101120  0.33365505  0.18439862  1
  Mg  Mg6  1  0.33875881  0.67200710  0.01657223  1
  Mg  Mg7  1  0.32731012  0.66719240  0.51700677  1
  Ta  Ta0  1  0.67681306  0.33749969  0.97726461  1
  Ta  Ta1  1  0.65774743  0.32851264  0.47697364  1
  Ta  Ta2  1  0.33109289  0.66667640  0.31749083  1
  Ta  Ta3  1  0.33567831  0.66877351  0.81735143  1
  P  P0  1  0.37252835  0.03873853  0.58530272  1
  P  P1  1  0.95972526  0.62678795  0.08514744  1
  P  P2  1  0.66439557  0.03983085  0.08512581  1
  P  P3  1  0.62692994  0.67003823  0.91908383  1
  P  P4  1  0.04684648  0.37220595  0.91946478  1
  P  P5  1  0.32914923  0.95954022  0.91987285  1
  P  P6  1  0.62905702  0.95524311  0.42002119  1
  P  P7  1  0.32650021  0.37432273  0.41932058  1
  P  P8  1  0.04141967  0.66991215  0.41944147  1
  S  S0  1  0.29346924  0.00250347  0.24996216  1
  S  S1  1  0.70618842  0.70535587  0.25128186  1
  S  S2  1  0.99948409  0.29127084  0.25020435  1
  S  S3  1  0.29238813  0.29205589  0.75088139  1
  S  S4  1  0.99797143  0.70585744  0.75063048  1
  S  S5  1  0.70973354  0.00165133  0.74961506  1
  S  S6  1  0.95779168  0.33622187  0.58454444  1
  S  S7  1  0.66612629  0.62313014  0.58458462  1
  S  S8  1  0.37952546  0.33664011  0.08453980  1
  O  O0  1  0.20569686  0.01968047  0.30183032  1
  O  O1  1  0.81064613  0.78902558  0.30379241  1
  O  O2  1  0.98193288  0.18557423  0.30184976  1
  O  O3  1  0.20982348  0.18835206  0.80347625  1
  O  O4  1  0.97732006  0.78848534  0.80344972  1
  O  O5  1  0.81492233  0.01906683  0.80138474  1
  O  O6  1  0.77916061  0.96944914  0.69427174  1
  O  O7  1  0.18654866  0.22019705  0.69703946  1
  O  O8  1  0.03211477  0.81178754  0.69691079  1
  O  O9  1  0.77669791  0.81052788  0.19741120  1
  O  O10  1  0.03112144  0.22144455  0.19486633  1
  O  O11  1  0.19178083  0.97012501  0.19473259  1
  O  O12  1  0.87631120  0.36124896  0.63701016  1
  O  O13  1  0.49333039  0.12769586  0.63755600  1
  O  O14  1  0.64688666  0.51880444  0.63651119  1
  O  O15  1  0.87207206  0.50974092  0.13775860  1
  O  O16  1  0.63031625  0.12515817  0.13805439  1
  O  O17  1  0.48441570  0.36062364  0.13703708  1
  O  O18  1  0.46506218  0.30931229  0.03016513  1
  O  O19  1  0.83985776  0.52955162  0.02776472  1
  O  O20  1  0.68817357  0.16416120  0.02825172  1
  O  O21  1  0.47657987  0.16182826  0.52792073  1
  O  O22  1  0.68932466  0.53480216  0.52961539  1
  O  O23  1  0.84261409  0.31231231  0.53015497  1
  O  O24  1  0.53974383  0.69104966  0.97276003  1
  O  O25  1  0.14613614  0.45385505  0.97589368  1
  O  O26  1  0.30653600  0.85588238  0.97555001  1
  O  O27  1  0.54815816  0.85411569  0.47607943  1
  O  O28  1  0.30844219  0.46201485  0.47348699  1
  O  O29  1  0.15111731  0.69348745  0.47289097  1
  O  O30  1  0.13198510  0.63521746  0.36246878  1
  O  O31  1  0.50121760  0.86349320  0.36453189  1
  O  O32  1  0.36140270  0.49708941  0.36257137  1
  O  O33  1  0.13951388  0.49847046  0.86416828  1
  O  O34  1  0.36289667  0.86505445  0.86412500  1
  O  O35  1  0.50374228  0.63763930  0.86208874  1
  O  O36  1  0.01434309  0.82252702  0.40734849  1
  O  O37  1  0.80887596  0.98460490  0.40784614  1
  O  O38  1  0.17695475  0.19255473  0.40788865  1
  O  O39  1  0.01682321  0.19126904  0.90798311  1
  O  O40  1  0.17571277  0.98459149  0.90762961  1
  O  O41  1  0.80718889  0.82253803  0.90757310  1
  O  O42  1  0.96103119  0.16813450  0.58715742  1
  O  O43  1  0.19527597  0.03007649  0.58570978  1
  O  O44  1  0.82413009  0.80204473  0.58704554  1
  O  O45  1  0.98255343  0.81183282  0.08662417  1
  O  O46  1  0.83950694  0.04053577  0.08672812  1
  O  O47  1  0.20343904  0.17294566  0.08785396  1
  O  O48  1  0.68286710  0.15423640  0.74536658  1
  O  O49  1  0.47228912  0.32149773  0.74500974  1
  O  O50  1  0.84669582  0.52612563  0.74432711  1
  O  O51  1  0.67750534  0.52554810  0.24526432  1
  O  O52  1  0.84787378  0.31908117  0.24612016  1
  O  O53  1  0.47254051  0.15484976  0.24559348  1
  O  O54  1  0.63410873  0.49303385  0.92327679  1
  O  O55  1  0.86141694  0.36548383  0.92208503  1
  O  O56  1  0.50536065  0.14333181  0.92349146  1
  O  O57  1  0.63728371  0.14152631  0.42358987  1
  O  O58  1  0.50505219  0.36671716  0.42362780  1
  O  O59  1  0.85722235  0.49382001  0.42445435  1
  O  O60  1  0.35365873  0.48899541  0.07750181  1
  O  O61  1  0.14118455  0.64084936  0.07725166  1
  O  O62  1  0.50250833  0.85870033  0.07664013  1
  O  O63  1  0.36124665  0.85934362  0.57707392  1
  O  O64  1  0.50865421  0.64157784  0.57779779  1
  O  O65  1  0.13358864  0.48804779  0.57700533  1
  O  O66  1  0.31243632  0.83633056  0.25782987  1
  O  O67  1  0.52240706  0.68801614  0.25896451  1
  O  O68  1  0.16559367  0.47589246  0.25785476  1
  O  O69  1  0.31057993  0.47680005  0.75846231  1
  O  O70  1  0.16390457  0.68714783  0.75845893  1
  O  O71  1  0.52463085  0.83596392  0.75747335  1
loop_
_geom_bond_atom_site_label_1
_geom_bond_atom_site_label_2
_geom_bond_distance
_geom_bond_site_symmetry_2
Na0 O63 2.308574 1_555
Na0 O42 2.336945 1_565
Na0 O64 2.467663 1_555
Na0 O44 2.496662 1_555
Na0 O27 2.603699 1_555
Na0 O6 2.721919 1_555
Na0 O13 2.785166 1_565
Na0 O23 2.892120 1_565
Na1 O62 2.362872 1_555
Na1 O47 2.407676 1_565
Na1 O45 2.411479 1_455
Na1 O61 2.422135 1_555
Na1 O26 2.585357 1_554
Na1 O11 2.730964 1_555
Na1 O16 2.820612 1_565
Na1 O18 2.909036 1_565
Na2 O46 2.297978 1_455
Na2 O61 2.327027 1_555
Na2 O60 2.456788 1_555
Na2 O47 2.571047 1_555
Na2 O25 2.615625 1_554
Na2 O10 2.740458 1_555
Na2 O15 2.804620 1_455
Na2 O20 2.885846 1_455
Na3 O43 2.508288 1_555
Na3 O36 2.512477 1_545
Na3 O38 2.512821 1_555
Na3 O37 2.650504 1_445
Na3 O44 2.706132 1_445
Na3 O42 2.731180 1_455
Na4 O41 2.445017 1_555
Na4 O45 2.580849 1_556
Na4 O39 2.582443 1_665
Na4 O40 2.586472 1_655
Na4 O46 2.615098 1_566
Na4 O47 2.795021 1_666
Na5 O49 2.513153 1_555
Na5 O48 2.518788 1_555
Na5 O50 2.531224 1_555
Na5 O54 2.625804 1_555
Na5 O56 2.638449 1_555
Na5 O55 2.643579 1_555
Na6 O52 2.492381 1_555
Na6 O51 2.493621 1_555
Na6 O53 2.504744 1_555
Na6 O59 2.652968 1_555
Na6 O57 2.669914 1_555
Na6 O58 2.670929 1_555
Na7 O62 2.455495 1_555
Na7 O60 2.538122 1_555
Na7 O61 2.551250 1_555
Na7 O67 2.644526 1_555
Na7 O66 2.673689 1_555
Na7 O68 2.735019 1_555
Na8 O63 2.485295 1_555
Na8 O65 2.488882 1_555
Na8 O64 2.586975 1_555
Na8 O70 2.643861 1_555
Na8 O69 2.703114 1_555
Na8 O71 2.730957 1_555
Mg0 O36 2.016159 1_655
Mg0 O37 2.025679 1_555
Mg0 O38 2.033697 1_665
Mg0 O0 2.089861 1_665
Mg0 O2 2.090052 1_565
Mg0 O1 2.091075 1_555
Mg1 O40 2.016878 1_555
Mg1 O39 2.028126 1_565
Mg1 O41 2.029500 1_455
Mg1 O4 2.087704 1_455
Mg1 O5 2.093229 1_465
Mg1 O3 2.099319 1_565
Mg2 O43 2.024712 1_555
Mg2 O7 2.067581 1_555
Mg2 O8 2.069948 1_545
Mg2 O44 2.197938 1_445
Mg2 O42 2.224214 1_455
Mg2 O6 2.225090 1_445
Mg3 O9 2.035197 1_555
Mg3 O45 2.049612 1_555
Mg3 O46 2.075082 1_565
Mg3 O10 2.171878 1_665
Mg3 O11 2.189493 1_655
Mg3 O47 2.256912 1_665
Mg4 O13 1.962487 1_555
Mg4 O14 2.047517 1_555
Mg4 O12 2.063979 1_555
Mg4 O49 2.127467 1_555
Mg4 O48 2.136918 1_555
Mg4 O50 2.143665 1_555
Mg5 O15 1.973865 1_555
Mg5 O16 1.976467 1_555
Mg5 O17 2.069432 1_555
Mg5 O52 2.140205 1_555
Mg5 O51 2.149856 1_555
Mg5 O53 2.165218 1_555
Mg6 O24 1.958075 1_554
Mg6 O26 2.001462 1_554
Mg6 O25 2.030950 1_554
Mg6 O62 2.056478 1_555
Mg6 O61 2.120684 1_555
Mg6 O60 2.170733 1_555
Mg7 O29 1.950762 1_555
Mg7 O28 1.981690 1_555
Mg7 O27 2.033315 1_555
Mg7 O63 2.063817 1_555
Mg7 O65 2.130692 1_555
Mg7 O64 2.200120 1_555
O0 S0 1.451660 1_555
O1 S1 1.453513 1_555
O2 S2 1.451947 1_555
O3 S3 1.453167 1_555
O4 S4 1.452904 1_555
O5 S5 1.451205 1_555
O6 S5 1.478963 1_565
O7 S3 1.467718 1_555
O8 S4 1.467686 1_455
O9 S1 1.466572 1_555
O10 S2 1.477672 1_455
O11 S0 1.477503 1_565
O12 S6 1.457056 1_555
O13 P0 1.516150 1_555
O14 S7 1.447029 1_555
O15 P1 1.508590 1_555
O16 P2 1.516888 1_555
O17 S8 1.451810 1_555
O18 S8 1.520402 1_555
O18 Ta0 2.120099 1_554
O19 P1 1.617497 1_555
O19 Ta0 1.941904 1_554
O20 P2 1.632261 1_555
O20 Ta0 1.952040 1_554
O21 P0 1.643967 1_555
O21 Ta1 1.917640 1_555
O22 S7 1.529338 1_555
O22 Ta1 2.062616 1_555
O23 S6 1.538637 1_555
O23 Ta1 2.082952 1_555
O24 P3 1.494296 1_555
O25 P4 1.507439 1_555
O26 P5 1.508189 1_555
O27 P6 1.507282 1_555
O28 P7 1.494437 1_555
O29 P8 1.494025 1_555
O30 P8 1.620039 1_555
O30 Ta2 1.920875 1_555
O31 P6 1.604588 1_555
O31 Ta2 1.938144 1_555
O32 P7 1.604704 1_555
O32 Ta2 1.930317 1_555
O33 P4 1.598710 1_555
O33 Ta3 1.937523 1_555
O34 P5 1.613499 1_555
O34 Ta3 1.928331 1_555
O35 P3 1.613724 1_555
O35 Ta3 1.919714 1_555
O36 P8 1.497995 1_555
O37 P6 1.494354 1_555
O38 P7 1.496042 1_555
O39 P4 1.494963 1_555
O40 P5 1.496941 1_555
O41 P3 1.499496 1_555
O42 S6 1.490158 1_555
O43 P0 1.521459 1_555
O44 S7 1.487905 1_555
O45 P1 1.532925 1_555
O46 P2 1.536552 1_555
O47 S8 1.496636 1_555
O48 S5 1.474180 1_555
O49 S3 1.475223 1_555
O50 S4 1.474981 1_555
O51 S1 1.473358 1_555
O52 S2 1.472871 1_555
O53 S0 1.472811 1_555
O54 P3 1.588177 1_555
O54 Ta0 2.003008 1_555
O55 P4 1.602293 1_655
O55 Ta0 1.962287 1_555
O56 P5 1.583020 1_545
O56 Ta0 2.018017 1_555
O57 P6 1.600892 1_545
O57 Ta1 1.968220 1_555
O58 P7 1.606845 1_555
O58 Ta1 1.954638 1_555
O59 P8 1.587059 1_655
O59 Ta1 2.012338 1_555
O60 S8 1.472419 1_555
O61 P1 1.547315 1_455
O62 P2 1.524047 1_565
O63 P0 1.537226 1_565
O64 S7 1.479841 1_555
O65 S6 1.460287 1_455
O66 S0 1.558342 1_565
O66 Ta2 2.077030 1_555
O67 S1 1.554659 1_555
O67 Ta2 2.073122 1_555
O68 S2 1.554818 1_455
O68 Ta2 2.070854 1_555
O69 S3 1.555759 1_555
O69 Ta3 2.067289 1_555
O70 S4 1.557341 1_455
O70 Ta3 2.079283 1_555
O71 S5 1.557656 1_565
O71 Ta3 2.076629 1_555
