# generated using pymatgen
data_MgCr2(SbO3)4
_symmetry_space_group_name_H-M   'P 1'
_cell_length_a   4.81081381
_cell_length_b   4.80882000
_cell_length_c   10.69772760
_cell_angle_alpha   89.99907969
_cell_angle_beta   90.00438234
_cell_angle_gamma   89.99877201
_symmetry_Int_Tables_number   1
_chemical_formula_structural   MgCr2(SbO3)4
_chemical_formula_sum   'Mg1 Cr2 Sb4 O12'
_cell_volume   247.48484177
_cell_formula_units_Z   1
loop_
 _symmetry_equiv_pos_site_id
 _symmetry_equiv_pos_as_xyz
  1  'x, y, z'
loop_
 _atom_site_type_symbol
 _atom_site_label
 _atom_site_symmetry_multiplicity
 _atom_site_fract_x
 _atom_site_fract_y
 _atom_site_fract_z
 _atom_site_occupancy
  Mg  Mg0  1  0.00009900  0.49999300  0.25072900  1
  Cr  Cr0  1  0.00002600  0.99997600  0.98409600  1
  Cr  Cr1  1  0.49995600  0.50001400  0.51736200  1
  Sb  Sb0  1  0.99986500  0.00001300  0.39275600  1
  Sb  Sb1  1  0.50002500  0.50004700  0.81764200  1
  Sb  Sb2  1  0.50000300  0.49987200  0.10872400  1
  Sb  Sb3  1  0.00000600  0.00003800  0.68381000  1
  O  O0  1  0.19042500  0.79992100  0.82374300  1
  O  O1  1  0.20795900  0.82437600  0.53990700  1
  O  O2  1  0.15549600  0.76972000  0.11673100  1
  O  O3  1  0.26972200  0.34450100  0.38476200  1
  O  O4  1  0.32467000  0.29168100  0.96153300  1
  O  O5  1  0.30029300  0.30922900  0.67769600  1
  O  O6  1  0.73023500  0.65536600  0.38472100  1
  O  O7  1  0.67536400  0.70827200  0.96158900  1
  O  O8  1  0.69966300  0.69089300  0.67770300  1
  O  O9  1  0.80960300  0.20014300  0.82374200  1
  O  O10  1  0.79189400  0.17564800  0.53991900  1
  O  O11  1  0.84469500  0.23029600  0.11672400  1
loop_
_geom_bond_atom_site_label_1
_geom_bond_atom_site_label_2
_geom_bond_distance
_geom_bond_site_symmetry_2
Mg0 O11 2.072667 1_455
Mg0 O2 2.072743 1_555
Mg0 O3 2.072957 1_555
Mg0 O6 2.073327 1_455
Cr0 O11 1.948933 1_466
Cr0 O2 1.948960 1_556
Cr0 O7 2.113109 1_455
Cr0 O4 2.113138 1_565
Cr0 O0 2.169655 1_555
Cr0 O9 2.169816 1_465
Cr1 O3 1.948868 1_555
Cr1 O6 1.949119 1_555
Cr1 O10 2.112726 1_555
Cr1 O1 2.112916 1_555
Cr1 O5 2.169456 1_555
Cr1 O8 2.169707 1_555
O0 Sb3 2.001467 1_565
O0 Sb1 2.074141 1_555
O1 Sb3 2.021017 1_565
O1 Sb0 2.047753 1_465
O2 Sb2 2.106658 1_555
O3 Sb0 2.106439 1_455
O4 Sb1 2.021214 1_555
O4 Sb2 2.047698 1_556
O5 Sb1 2.001616 1_555
O5 Sb3 2.074133 1_555
O6 Sb0 2.106379 1_565
O7 Sb1 2.021228 1_555
O7 Sb2 2.047859 1_556
O8 Sb1 2.001493 1_555
O8 Sb3 2.074154 1_665
O9 Sb3 2.001523 1_655
O9 Sb1 2.074156 1_555
O10 Sb3 2.021057 1_655
O10 Sb0 2.047697 1_555
O11 Sb2 2.106538 1_555
