# generated using pymatgen
data_Rb4MgV2(AgS4)2
_symmetry_space_group_name_H-M   'P 1'
_cell_length_a   6.13168901
_cell_length_b   7.49642810
_cell_length_c   11.95800235
_cell_angle_alpha   84.24642129
_cell_angle_beta   75.53836589
_cell_angle_gamma   64.96340379
_symmetry_Int_Tables_number   1
_chemical_formula_structural   Rb4MgV2(AgS4)2
_chemical_formula_sum   'Rb4 Mg1 V2 Ag2 S8'
_cell_volume   482.22280738
_cell_formula_units_Z   1
loop_
 _symmetry_equiv_pos_site_id
 _symmetry_equiv_pos_as_xyz
  1  'x, y, z'
loop_
 _atom_site_type_symbol
 _atom_site_label
 _atom_site_symmetry_multiplicity
 _atom_site_fract_x
 _atom_site_fract_y
 _atom_site_fract_z
 _atom_site_occupancy
  Rb  Rb0  1  0.41874600  0.77752000  0.10481500  1
  Rb  Rb1  1  0.22105900  0.28093700  0.61682300  1
  Rb  Rb2  1  0.82179500  0.73270900  0.36294900  1
  Rb  Rb3  1  0.59671600  0.24189500  0.89564800  1
  Mg  Mg0  1  0.24599700  0.76781800  0.50609800  1
  V  V0  1  0.61729700  0.76656900  0.73977800  1
  V  V1  1  0.39202400  0.25596100  0.26085600  1
  Ag  Ag0  1  0.11489000  0.75239700  0.79161100  1
  Ag  Ag1  1  0.88931600  0.24897600  0.26948400  1
  S  S0  1  0.84904600  0.57340200  0.85631900  1
  S  S1  1  0.27184000  0.97858400  0.84933900  1
  S  S2  1  0.53746300  0.58231300  0.62974100  1
  S  S3  1  0.81794700  0.92570800  0.61740700  1
  S  S4  1  0.42402000  0.48468700  0.36305200  1
  S  S5  1  0.23349100  0.06045400  0.38248100  1
  S  S6  1  0.75153100  0.06094000  0.15631700  1
  S  S7  1  0.15098800  0.41984500  0.14415700  1
loop_
_geom_bond_atom_site_label_1
_geom_bond_atom_site_label_2
_geom_bond_distance
_geom_bond_site_symmetry_2
Rb0 S0 3.422193 1_554
Rb0 S1 3.423190 1_554
Rb0 S4 3.603656 1_555
Rb0 S7 3.632274 1_555
Rb0 S6 3.643869 1_465
Rb0 S6 3.690071 1_565
Rb0 S5 3.781869 1_565
Rb1 S5 3.362390 1_555
Rb1 S1 3.396552 1_545
Rb1 S4 3.447283 1_555
Rb1 S0 3.460508 1_455
Rb1 S3 3.499478 1_545
Rb1 S2 3.580715 1_555
Rb1 S2 3.798539 1_455
Rb2 S6 3.280365 1_565
Rb2 S7 3.317512 1_655
Rb2 S4 3.359073 1_655
Rb2 S5 3.361009 1_565
Rb2 S3 3.488611 1_555
Rb2 S2 3.557124 1_555
Rb2 S4 3.638970 1_555
Rb3 S0 3.383410 1_555
Rb3 S7 3.425266 1_556
Rb3 S6 3.463763 1_556
Rb3 S1 3.502760 1_545
Rb3 S1 3.673926 1_645
Rb3 S2 3.862669 1_555
Rb3 S3 3.890263 1_545
Mg0 S3 2.450115 1_455
Mg0 S2 2.473433 1_555
Mg0 S5 2.503492 1_565
Mg0 S4 2.541016 1_555
Mg0 Rb2 3.427821 1_555
Mg0 Rb2 3.557897 1_455
Ag0 S0 2.463635 1_455
Ag0 S1 2.495066 1_555
Ag0 S2 2.698094 1_555
Ag0 S3 2.948244 1_455
Ag0 Rb3 3.765755 1_465
Ag0 Rb3 4.029057 1_555
Ag1 S6 2.548237 1_555
Ag1 S7 2.571910 1_655
Ag1 S5 2.606484 1_655
Ag1 S4 2.655017 1_555
Ag1 Rb2 3.725743 1_555
S0 V0 2.213848 1_555
S1 V0 2.216150 1_555
S2 V0 2.266564 1_555
S3 V0 2.251941 1_555
S4 V1 2.301405 1_555
S5 V1 2.297936 1_555
S6 V1 2.195842 1_555
S7 V1 2.188749 1_555
