# generated using pymatgen
data_MgCd2(CoO3)2
_symmetry_space_group_name_H-M   'P 1'
_cell_length_a   5.77576209
_cell_length_b   5.90328744
_cell_length_c   5.85601156
_cell_angle_alpha   54.43896471
_cell_angle_beta   55.08673893
_cell_angle_gamma   54.41233515
_symmetry_Int_Tables_number   1
_chemical_formula_structural   MgCd2(CoO3)2
_chemical_formula_sum   'Mg1 Cd2 Co2 O6'
_cell_volume   123.55974186
_cell_formula_units_Z   1
loop_
 _symmetry_equiv_pos_site_id
 _symmetry_equiv_pos_as_xyz
  1  'x, y, z'
loop_
 _atom_site_type_symbol
 _atom_site_label
 _atom_site_symmetry_multiplicity
 _atom_site_fract_x
 _atom_site_fract_y
 _atom_site_fract_z
 _atom_site_occupancy
  Mg  Mg0  1  0.80130090  0.79791177  0.79653312  1
  Cd  Cd0  1  0.35535811  0.35556757  0.35145152  1
  Cd  Cd1  1  0.59365113  0.60112070  0.59840243  1
  Co  Co0  1  0.15483446  0.14154273  0.16178351  1
  Co  Co1  1  0.97575189  0.97687791  0.97334063  1
  O  O0  1  0.00904285  0.80638022  0.35991206  1
  O  O1  1  0.56600351  0.95902274  0.15369447  1
  O  O2  1  0.15248030  0.58295128  0.95355410  1
  O  O3  1  0.81405289  0.35896796  0.00541189  1
  O  O4  1  0.36648609  0.99813994  0.79611436  1
  O  O5  1  0.94020486  0.16110121  0.57896892  1
loop_
_geom_bond_atom_site_label_1
_geom_bond_atom_site_label_2
_geom_bond_distance
_geom_bond_site_symmetry_2
Mg0 O4 2.062254 1_555
Mg0 O2 2.086116 1_655
Mg0 O0 2.095022 1_655
Mg0 O3 2.100087 1_556
Mg0 O5 2.125656 1_565
Mg0 O1 2.163733 1_556
Cd0 O4 2.209036 1_545
Cd0 O0 2.220380 1_555
Cd0 O3 2.234929 1_555
Cd0 O2 2.502177 1_554
Cd0 O1 2.554763 1_545
Cd0 O5 2.571084 1_455
Cd1 O5 2.190517 1_555
Cd1 O2 2.195962 1_555
Cd1 O1 2.225957 1_555
Cd1 O4 2.528502 1_555
Cd1 O3 2.595554 1_556
Cd1 O0 2.598974 1_655
Co0 O1 1.937876 1_545
Co0 O3 2.028726 1_455
Co0 O0 2.029926 1_545
Co0 O5 2.052648 1_455
Co0 O2 2.135187 1_554
Co0 O4 2.168888 1_544
Co1 O4 1.919140 1_655
Co1 O0 1.948709 1_656
Co1 O3 1.958393 1_566
Co1 O2 1.969367 1_655
Co1 O5 1.979889 1_565
Co1 O1 2.006776 1_556
