# generated using pymatgen
data_Na5Ca2Zr2P5SO24
_symmetry_space_group_name_H-M   'P 1'
_cell_length_a   9.22516890
_cell_length_b   9.22327154
_cell_length_c   22.95387840
_cell_angle_alpha   90.09576043
_cell_angle_beta   89.84193850
_cell_angle_gamma   119.94751793
_symmetry_Int_Tables_number   1
_chemical_formula_structural   Na5Ca2Zr2P5SO24
_chemical_formula_sum   'Na15 Ca6 Zr6 P15 S3 O72'
_cell_volume   1692.28608228
_cell_formula_units_Z   3
loop_
 _symmetry_equiv_pos_site_id
 _symmetry_equiv_pos_as_xyz
  1  'x, y, z'
loop_
 _atom_site_type_symbol
 _atom_site_label
 _atom_site_symmetry_multiplicity
 _atom_site_fract_x
 _atom_site_fract_y
 _atom_site_fract_z
 _atom_site_occupancy
  Na  Na0  1  0.64493749  0.00412644  0.25340743  1
  Na  Na1  1  0.37351070  0.37894106  0.24260902  1
  Na  Na2  1  0.98883028  0.61789918  0.25207996  1
  Na  Na3  1  0.64562338  0.63266493  0.74400076  1
  Na  Na4  1  0.98307679  0.34751925  0.74436109  1
  Na  Na5  1  0.36733894  0.01919442  0.74427753  1
  Na  Na6  1  0.30610803  0.96278900  0.07013718  1
  Na  Na7  1  0.03079323  0.34866808  0.07251865  1
  Na  Na8  1  0.70732325  0.67898496  0.41891047  1
  Na  Na9  1  0.00473499  0.00252642  0.50126595  1
  Na  Na10  1  0.00202636  0.00029269  0.98565639  1
  Na  Na11  1  0.66626961  0.32631164  0.83455711  1
  Na  Na12  1  0.69191862  0.32667973  0.33800731  1
  Na  Na13  1  0.35124093  0.65903222  0.15888853  1
  Na  Na14  1  0.33638239  0.66407356  0.66296547  1
  Ca  Ca0  1  0.99989433  0.00416214  0.35707372  1
  Ca  Ca1  1  0.00576701  0.00628910  0.85209311  1
  Ca  Ca2  1  0.66849772  0.33421323  0.67439459  1
  Ca  Ca3  1  0.66927313  0.33979279  0.17930583  1
  Ca  Ca4  1  0.33804725  0.66473996  0.01424175  1
  Ca  Ca5  1  0.32767623  0.67000850  0.32044068  1
  Zr  Zr0  1  0.99794561  0.99853605  0.64684270  1
  Zr  Zr1  1  0.98620996  0.99416174  0.14405657  1
  Zr  Zr2  1  0.66752140  0.33268029  0.98212675  1
  Zr  Zr3  1  0.67363763  0.32788806  0.49019877  1
  Zr  Zr4  1  0.32904514  0.67394087  0.51772184  1
  Zr  Zr5  1  0.32444259  0.66837477  0.81976693  1
  P  P0  1  0.70355510  0.70466952  0.25272850  1
  P  P1  1  0.00305244  0.29564576  0.24769641  1
  P  P2  1  0.29429916  0.30161063  0.74918610  1
  P  P3  1  0.00414965  0.70675635  0.75012842  1
  P  P4  1  0.69849493  0.99226258  0.75027150  1
  P  P5  1  0.97762416  0.33279250  0.58675764  1
  P  P6  1  0.35856924  0.03009611  0.58609225  1
  P  P7  1  0.66645543  0.64114787  0.58339746  1
  P  P8  1  0.96547809  0.63562945  0.08520519  1
  P  P9  1  0.66846425  0.03781142  0.08600975  1
  P  P10  1  0.36072475  0.32438238  0.08685966  1
  P  P11  1  0.02438424  0.36827975  0.92071229  1
  P  P12  1  0.34234145  0.97463315  0.92107253  1
  P  P13  1  0.62843803  0.97108014  0.41657781  1
  P  P14  1  0.02226743  0.65633314  0.41715106  1
  S  S0  1  0.29028936  0.99818367  0.24726368  1
  S  S1  1  0.62874875  0.65560286  0.91506690  1
  S  S2  1  0.34693445  0.37305027  0.41929694  1
  O  O0  1  0.20580834  0.01190100  0.29906128  1
  O  O1  1  0.79684321  0.78216236  0.30928167  1
  O  O2  1  0.99305003  0.19211076  0.30039721  1
  O  O3  1  0.22249233  0.19424052  0.80263631  1
  O  O4  1  0.97155256  0.78089095  0.80350019  1
  O  O5  1  0.80587330  0.02418181  0.80335894  1
  O  O6  1  0.79015652  0.96733320  0.69582844  1
  O  O7  1  0.17621873  0.20843081  0.69558950  1
  O  O8  1  0.03129661  0.82261077  0.69586772  1
  O  O9  1  0.81388473  0.81808014  0.19948398  1
  O  O10  1  0.00863785  0.19821952  0.19085251  1
  O  O11  1  0.19436145  0.99137945  0.19336745  1
  O  O12  1  0.92053749  0.36490100  0.64496889  1
  O  O13  1  0.44622144  0.08453947  0.64449237  1
  O  O14  1  0.63453889  0.54922607  0.64109596  1
  O  O15  1  0.89973040  0.54587599  0.14319223  1
  O  O16  1  0.65116056  0.10776634  0.14403284  1
  O  O17  1  0.44359870  0.34190826  0.14582214  1
  O  O18  1  0.46781749  0.30859807  0.03634467  1
  O  O19  1  0.84572340  0.53227883  0.03406509  1
  O  O20  1  0.69235526  0.16374042  0.03537565  1
  O  O21  1  0.46649903  0.15518881  0.53708702  1
  O  O22  1  0.68808408  0.53951715  0.53251427  1
  O  O23  1  0.84917458  0.31291893  0.53815821  1
  O  O24  1  0.54849022  0.67030294  0.96732840  1
  O  O25  1  0.11634718  0.44611715  0.97694769  1
  O  O26  1  0.33427773  0.88403491  0.97703996  1
  O  O27  1  0.50814419  0.84378817  0.46300575  1
  O  O28  1  0.33617366  0.47531040  0.46705148  1
  O  O29  1  0.14168949  0.65776807  0.46510044  1
  O  O30  1  0.08106614  0.63629836  0.35670210  1
  O  O31  1  0.54964516  0.91567388  0.35601868  1
  O  O32  1  0.36811245  0.45961249  0.36278960  1
  O  O33  1  0.13009517  0.48589832  0.86675847  1
  O  O34  1  0.35787952  0.87170157  0.86687734  1
  O  O35  1  0.52536166  0.64144068  0.86154089  1
  O  O36  1  0.00379297  0.81194939  0.42350290  1
  O  O37  1  0.79536045  0.97384405  0.42302551  1
  O  O38  1  0.20034053  0.20521309  0.42101656  1
  O  O39  1  0.99439449  0.19231254  0.91393236  1
  O  O40  1  0.19145688  0.99696091  0.91496478  1
  O  O41  1  0.79780250  0.79764522  0.91051059  1
  O  O42  1  0.98560550  0.16884358  0.58685783  1
  O  O43  1  0.18458382  0.01760062  0.58659322  1
  O  O44  1  0.82996823  0.81511481  0.58621437  1
  O  O45  1  0.97894829  0.81247227  0.08575311  1
  O  O46  1  0.83754964  0.03316645  0.08491219  1
  O  O47  1  0.18884665  0.15185076  0.08556255  1
  O  O48  1  0.66688069  0.14016599  0.74189995  1
  O  O49  1  0.47419540  0.33524200  0.74037355  1
  O  O50  1  0.85971030  0.52667665  0.74143753  1
  O  O51  1  0.67871266  0.52679125  0.24801496  1
  O  O52  1  0.84515356  0.31431488  0.24747198  1
  O  O53  1  0.46202362  0.14540788  0.24580632  1
  O  O54  1  0.63363630  0.49458468  0.91709978  1
  O  O55  1  0.85339511  0.36800430  0.92053932  1
  O  O56  1  0.50870396  0.14954670  0.92093827  1
  O  O57  1  0.65030096  0.14752020  0.42950554  1
  O  O58  1  0.50435748  0.36423185  0.42736865  1
  O  O59  1  0.84237443  0.49929117  0.42747762  1
  O  O60  1  0.32200218  0.46582866  0.07924562  1
  O  O61  1  0.14288416  0.66311400  0.07780507  1
  O  O62  1  0.51817305  0.86486420  0.07768031  1
  O  O63  1  0.33176679  0.85245876  0.57201201  1
  O  O64  1  0.51651128  0.66849921  0.56964449  1
  O  O65  1  0.15259397  0.48193218  0.57172842  1
  O  O66  1  0.30000487  0.84159079  0.24726099  1
  O  O67  1  0.53375132  0.70016608  0.24810608  1
  O  O68  1  0.16468051  0.46942288  0.24596069  1
  O  O69  1  0.29769426  0.47498389  0.75487094  1
  O  O70  1  0.17461940  0.70225142  0.75596640  1
  O  O71  1  0.52394733  0.82376351  0.75535697  1
loop_
_geom_bond_atom_site_label_1
_geom_bond_atom_site_label_2
_geom_bond_distance
_geom_bond_site_symmetry_2
Na0 O67 2.460706 1_545
Na0 O31 2.502974 1_545
Na0 O52 2.517769 1_555
Na0 O53 2.602601 1_555
Na0 O16 2.678142 1_555
Na0 O66 2.762577 1_545
Na1 O17 2.383362 1_555
Na1 O51 2.443409 1_555
Na1 O68 2.453141 1_555
Na1 O67 2.570225 1_555
Na1 O53 2.658656 1_555
Na1 O32 2.862762 1_555
Na2 O52 2.429525 1_555
Na2 O30 2.526991 1_655
Na2 O51 2.549607 1_555
Na2 O66 2.568124 1_655
Na2 O68 2.596713 1_655
Na2 O15 2.612377 1_555
Na3 O49 2.387829 1_555
Na3 O14 2.469563 1_555
Na3 O71 2.531137 1_555
Na3 O50 2.605078 1_555
Na3 O69 2.795670 1_555
Na3 O6 2.902161 1_555
Na3 O35 2.930703 1_555
Na3 O4 2.947401 1_555
Na4 O12 2.379987 1_555
Na4 O50 2.430759 1_555
Na4 O69 2.541732 1_655
Na4 O48 2.569087 1_555
Na4 O70 2.850522 1_655
Na4 O7 2.887902 1_655
Na4 O5 2.921276 1_555
Na5 O13 2.386738 1_555
Na5 O48 2.409339 1_555
Na5 O70 2.566960 1_545
Na5 O49 2.570679 1_555
Na5 O71 2.829237 1_545
Na5 O3 2.885024 1_555
Na5 O8 2.921112 1_545
Na6 O26 2.311250 1_554
Na6 O61 2.404740 1_555
Na6 O47 2.493081 1_565
Na6 O62 2.537617 1_555
Na6 O45 2.641509 1_455
Na6 O18 2.872514 1_565
Na7 O60 2.347747 1_555
Na7 O25 2.352014 1_554
Na7 O61 2.549619 1_555
Na7 O46 2.558793 1_455
Na7 O20 2.841991 1_455
Na7 O47 2.856183 1_555
Na7 O10 3.011896 1_555
Na8 O36 2.376470 1_655
Na8 O37 2.420519 1_555
Na8 O59 2.530167 1_555
Na8 O58 2.558147 1_555
Na8 O1 2.670544 1_555
Na8 O22 2.875193 1_555
Na9 O36 2.500036 1_545
Na9 O43 2.528805 1_555
Na9 O42 2.549993 1_455
Na9 O37 2.556063 1_445
Na9 O44 2.569206 1_445
Na9 O38 2.601772 1_555
Na10 O40 2.392820 1_545
Na10 O39 2.446816 1_455
Na10 O41 2.551379 1_445
Na10 O47 2.790875 1_556
Na10 O45 2.822701 1_446
Na10 O46 2.832460 1_456
Na11 O56 2.516182 1_555
Na11 O55 2.525183 1_555
Na11 O54 2.557876 1_555
Na11 O48 2.732860 1_555
Na11 O50 2.804991 1_555
Na11 O49 2.826241 1_555
Na12 O52 2.544393 1_555
Na12 O59 2.545057 1_555
Na12 O57 2.581219 1_555
Na12 O58 2.810267 1_555
Na12 O51 2.815497 1_555
Na12 O53 2.871400 1_555
Na13 O60 2.470244 1_555
Na13 O62 2.554868 1_555
Na13 O67 2.559543 1_555
Na13 O68 2.646249 1_555
Na13 O61 2.692991 1_555
Na13 O66 2.819790 1_555
Na14 O69 2.646893 1_555
Na14 O71 2.669496 1_555
Na14 O65 2.691979 1_555
Na14 O64 2.695257 1_555
Na14 O70 2.722601 1_555
Na14 O63 2.732386 1_555
Ca0 O2 2.195164 1_555
Ca0 O1 2.253713 1_545
Ca0 O0 2.288606 1_655
Ca0 O37 2.321430 1_545
Ca0 O36 2.354200 1_645
Ca0 O38 2.365283 1_655
Ca1 O3 2.196550 1_555
Ca1 O5 2.234940 1_455
Ca1 O4 2.237108 1_445
Ca1 O39 2.267241 1_455
Ca1 O40 2.277218 1_545
Ca1 O41 2.343138 1_445
Ca2 O14 2.289494 1_555
Ca2 O13 2.294933 1_555
Ca2 O12 2.297253 1_555
Ca2 O49 2.347047 1_555
Ca2 O50 2.347431 1_555
Ca2 O48 2.363662 1_555
Ca3 O15 2.186522 1_555
Ca3 O16 2.213861 1_555
Ca3 O17 2.230421 1_555
Ca3 O51 2.304645 1_555
Ca3 O52 2.352007 1_555
Ca3 O53 2.402184 1_555
Ca4 O24 2.195529 1_554
Ca4 O25 2.206376 1_554
Ca4 O26 2.213038 1_554
Ca4 O62 2.287069 1_555
Ca4 O61 2.308481 1_555
Ca4 O60 2.313192 1_555
Ca5 O30 2.291151 1_555
Ca5 O31 2.316176 1_555
Ca5 O32 2.362373 1_555
Ca5 O66 2.409524 1_555
Ca5 O68 2.415082 1_555
Ca5 O67 2.429905 1_555
O0 S0 1.459398 1_545
O1 P0 1.524965 1_555
O2 P1 1.516253 1_655
O3 P2 1.506448 1_555
O4 P3 1.503084 1_655
O5 P4 1.505695 1_545
O6 P4 1.586481 1_555
O6 Zr0 2.111869 1_555
O7 P2 1.583631 1_555
O7 Zr0 2.128060 1_445
O8 P3 1.578396 1_555
O8 Zr0 2.121389 1_455
O9 P0 1.599449 1_555
O9 Zr1 2.049756 1_555
O10 P1 1.598288 1_555
O10 Zr1 2.084349 1_445
O11 S0 1.505953 1_555
O11 Zr1 2.242851 1_455
O12 P5 1.516876 1_555
O13 P6 1.517002 1_555
O14 P7 1.520496 1_555
O15 P8 1.524050 1_555
O16 P9 1.521317 1_555
O17 P10 1.524454 1_555
O18 P10 1.574302 1_555
O18 Zr2 2.138209 1_554
O19 P8 1.568149 1_555
O19 Zr2 2.120099 1_554
O20 P9 1.579856 1_555
O20 Zr2 2.082946 1_554
O21 P6 1.561747 1_555
O21 Zr3 2.074241 1_555
O22 P7 1.569842 1_555
O22 Zr3 2.122690 1_555
O23 P5 1.572241 1_555
O23 Zr3 2.021591 1_555
O24 S1 1.449277 1_555
O25 P11 1.515325 1_555
O26 P12 1.514977 1_555
O27 P13 1.562837 1_555
O27 Zr4 2.042610 1_555
O28 S2 1.480001 1_555
O28 Zr4 2.196846 1_555
O29 P14 1.554783 1_555
O29 Zr4 2.054756 1_555
O30 P14 1.532547 1_555
O31 P13 1.534315 1_555
O32 S2 1.484686 1_555
O33 P11 1.613446 1_555
O33 Zr5 2.047730 1_555
O34 P12 1.612541 1_555
O34 Zr5 2.049123 1_555
O35 S1 1.522433 1_555
O35 Zr5 2.210652 1_555
O36 P14 1.534195 1_555
O37 P13 1.534881 1_555
O38 S2 1.461686 1_555
O39 P11 1.511938 1_655
O40 P12 1.512255 1_555
O41 S1 1.455721 1_555
O42 P5 1.550221 1_555
O42 Zr0 2.136069 1_545
O43 P6 1.550742 1_555
O43 Zr0 2.143219 1_445
O44 P7 1.561345 1_555
O44 Zr0 2.141647 1_555
O45 P8 1.572757 1_555
O45 Zr1 2.117696 1_555
O46 P9 1.581795 1_555
O46 Zr1 2.087523 1_545
O47 P10 1.590034 1_555
O47 Zr1 2.165810 1_445
O48 P4 1.543147 1_545
O49 P2 1.541334 1_555
O50 P3 1.537754 1_655
O51 P0 1.542728 1_555
O52 P1 1.549824 1_655
O53 S0 1.485570 1_545
O54 S1 1.508931 1_555
O54 Zr2 2.243128 1_555
O55 P11 1.576153 1_655
O55 Zr2 2.115480 1_555
O56 P12 1.576715 1_545
O56 Zr2 2.122472 1_555
O57 P13 1.564619 1_545
O57 Zr3 2.095480 1_555
O58 S2 1.506470 1_555
O58 Zr3 2.273255 1_555
O59 P14 1.583443 1_655
O59 Zr3 2.129160 1_555
O60 P10 1.525295 1_555
O61 P8 1.534917 1_455
O62 P9 1.515141 1_565
O63 P6 1.563377 1_565
O63 Zr4 2.053444 1_555
O64 P7 1.558133 1_555
O64 Zr4 2.124159 1_555
O65 P5 1.548639 1_455
O65 Zr4 2.107313 1_555
O66 S0 1.491065 1_555
O67 P0 1.550080 1_555
O68 P1 1.551642 1_555
O69 P2 1.588820 1_555
O69 Zr5 2.239446 1_555
O70 P3 1.599754 1_555
O70 Zr5 2.143942 1_555
O71 P4 1.588331 1_555
O71 Zr5 2.232870 1_555
