# generated using pymatgen
data_Li3Sb2P5O18
_symmetry_space_group_name_H-M   'P 1'
_cell_length_a   6.57894200
_cell_length_b   9.78810546
_cell_length_c   11.03884378
_cell_angle_alpha   95.77220357
_cell_angle_beta   92.90229937
_cell_angle_gamma   91.13825135
_symmetry_Int_Tables_number   1
_chemical_formula_structural   Li3Sb2P5O18
_chemical_formula_sum   'Li6 Sb4 P10 O36'
_cell_volume   706.11623761
_cell_formula_units_Z   2
loop_
 _symmetry_equiv_pos_site_id
 _symmetry_equiv_pos_as_xyz
  1  'x, y, z'
loop_
 _atom_site_type_symbol
 _atom_site_label
 _atom_site_symmetry_multiplicity
 _atom_site_fract_x
 _atom_site_fract_y
 _atom_site_fract_z
 _atom_site_occupancy
  Li  Li0  1  0.09727100  0.18322700  0.69005900  1
  Li  Li1  1  0.34849400  0.36006400  0.83711000  1
  Li  Li2  1  0.64966300  0.63430800  0.16643700  1
  Li  Li3  1  0.88482200  0.82081500  0.33601000  1
  Li  Li4  1  0.19131300  0.88214400  0.64240900  1
  Li  Li5  1  0.97990200  0.98101500  0.12323900  1
  Sb  Sb0  1  0.67388100  0.23043400  0.04411500  1
  Sb  Sb1  1  0.23173900  0.34860800  0.39029100  1
  Sb  Sb2  1  0.76931900  0.65251200  0.61129800  1
  Sb  Sb3  1  0.31562500  0.76381300  0.95644100  1
  P  P0  1  0.47992600  0.04582100  0.79584600  1
  P  P1  1  0.22502300  0.01587000  0.38709100  1
  P  P2  1  0.17177000  0.28057700  0.09535300  1
  P  P3  1  0.84581700  0.43186600  0.81571300  1
  P  P4  1  0.72509500  0.42511200  0.36300000  1
  P  P5  1  0.27869800  0.57276400  0.64098800  1
  P  P6  1  0.14989100  0.57164900  0.18964400  1
  P  P7  1  0.82154200  0.72323300  0.90999300  1
  P  P8  1  0.78390400  0.98470800  0.59871100  1
  P  P9  1  0.52622000  0.94886500  0.19929900  1
  O  O0  1  0.97092900  0.00548900  0.68496400  1
  O  O1  1  0.64721800  0.08132600  0.90011900  1
  O  O2  1  0.42860400  0.03144700  0.31156100  1
  O  O3  1  0.75260500  0.07580400  0.50108100  1
  O  O4  1  0.67593200  0.05042000  0.14864400  1
  O  O5  1  0.36705900  0.16816800  0.75876000  1
  O  O6  1  0.21875200  0.16912700  0.45568900  1
  O  O7  1  0.00386100  0.17330200  0.05467600  1
  O  O8  1  0.26917500  0.25505800  0.22241300  1
  O  O9  1  0.02383400  0.33991600  0.80396700  1
  O  O10  1  0.66798000  0.38121700  0.88329000  1
  O  O11  1  0.33972400  0.28386700  0.00629100  1
  O  O12  1  0.91723400  0.33226400  0.36980500  1
  O  O13  1  0.54214300  0.35678900  0.42349500  1
  O  O14  1  0.21097900  0.43662900  0.55898400  1
  O  O15  1  0.76817800  0.47525800  0.68690200  1
  O  O16  1  0.06311600  0.42580900  0.11295500  1
  O  O17  1  0.66708200  0.45526700  0.23519500  1
  O  O18  1  0.33251400  0.54156300  0.76869300  1
  O  O19  1  0.93047800  0.57730800  0.89288400  1
  O  O20  1  0.23431300  0.52849100  0.31689000  1
  O  O21  1  0.79002900  0.56467400  0.44399400  1
  O  O22  1  0.45913300  0.64792600  0.58415800  1
  O  O23  1  0.63911100  0.71166100  0.98843100  1
  O  O24  1  0.09250500  0.67387600  0.63363000  1
  O  O25  1  0.32528800  0.62027400  0.11810800  1
  O  O26  1  0.97253400  0.66390000  0.20359200  1
  O  O27  1  0.75056800  0.75441300  0.77906200  1
  O  O28  1  0.98091600  0.82655500  0.97039500  1
  O  O29  1  0.78151500  0.82588500  0.53464700  1
  O  O30  1  0.62934000  0.82469600  0.23980600  1
  O  O31  1  0.34155500  0.92501300  0.82714100  1
  O  O32  1  0.25410100  0.92024800  0.48320400  1
  O  O33  1  0.58755100  0.97570400  0.68062500  1
  O  O34  1  0.34585700  0.91579600  0.09973500  1
  O  O35  1  0.05055700  0.97983000  0.29453000  1
loop_
_geom_bond_atom_site_label_1
_geom_bond_atom_site_label_2
_geom_bond_distance
_geom_bond_site_symmetry_2
Li0 O0 1.907565 1_455
Li0 O5 1.908867 1_555
Li0 O9 1.967170 1_555
Li1 O5 1.995997 1_555
Li1 O18 2.001693 1_555
Li1 O11 2.082486 1_556
Li1 O10 2.138600 1_555
Li1 O9 2.150468 1_555
Li2 O30 1.965675 1_555
Li2 O17 1.981694 1_555
Li2 O26 2.151178 1_555
Li2 O25 2.171625 1_555
Li2 O23 2.174112 1_554
Li3 O30 1.945311 1_555
Li3 O35 1.986855 1_655
Li3 O26 2.120779 1_555
Li3 O29 2.324390 1_555
Li4 O32 1.896726 1_555
Li4 O0 1.950618 1_465
Li4 O24 2.118697 1_555
Li4 O31 2.217839 1_555
Li5 O35 1.925398 1_655
Li5 O7 2.104020 1_665
Li5 O4 2.147511 1_565
Li5 O28 2.149641 1_554
Li5 O34 2.522372 1_655
O0 P8 1.514710 1_545
O1 P0 1.559833 1_555
O1 Sb0 2.045111 1_556
O2 P9 1.581539 1_545
O2 P1 1.625670 1_555
O3 P8 1.475485 1_545
O4 P9 1.549055 1_545
O4 Sb0 2.201040 1_555
O5 P0 1.502080 1_555
O6 P1 1.613238 1_555
O6 Sb1 1.967264 1_555
O7 P2 1.527513 1_555
O7 Sb0 2.252758 1_455
O8 P2 1.557604 1_555
O8 Sb1 2.011777 1_555
O9 P3 1.494071 1_455
O10 P3 1.520141 1_555
O10 Sb0 2.419469 1_556
O11 P2 1.517730 1_555
O11 Sb0 2.297278 1_555
O12 P4 1.574549 1_555
O12 Sb1 2.071265 1_655
O13 P4 1.575168 1_555
O13 Sb1 2.054959 1_555
O14 P5 1.576845 1_555
O14 Sb1 1.984024 1_555
O15 P3 1.587359 1_555
O15 Sb2 1.999529 1_555
O16 P2 1.602624 1_555
O16 P6 1.660098 1_555
O17 P4 1.502301 1_555
O18 P5 1.498756 1_555
O19 P7 1.609206 1_555
O19 P3 1.655015 1_555
O20 P6 1.584185 1_555
O20 Sb1 2.010993 1_555
O21 P4 1.593872 1_555
O21 Sb2 1.969603 1_555
O22 P5 1.574003 1_555
O22 Sb2 2.046449 1_555
O23 P7 1.524009 1_555
O23 Sb3 2.217615 1_555
O24 P5 1.594008 1_555
O24 Sb2 2.131715 1_455
O25 P6 1.525685 1_555
O25 Sb3 2.378919 1_554
O26 P6 1.494191 1_655
O27 P7 1.557622 1_555
O27 Sb2 2.023894 1_555
O28 P7 1.522556 1_555
O28 Sb3 2.306267 1_655
O29 P8 1.641293 1_555
O29 Sb2 1.972933 1_555
O30 P9 1.499566 1_555
O31 P0 1.554851 1_565
O31 Sb3 2.241183 1_555
O32 P1 1.491506 1_565
O33 P0 1.589037 1_565
O33 P8 1.619857 1_555
O34 P9 1.581726 1_555
O34 Sb3 2.058577 1_554
O35 P1 1.509485 1_565
