# generated using pymatgen
data_MgFe4(CoO4)2
_symmetry_space_group_name_H-M   'P 1'
_cell_length_a   6.31913037
_cell_length_b   6.31913037
_cell_length_c   6.06472193
_cell_angle_alpha   61.32308947
_cell_angle_beta   61.32308947
_cell_angle_gamma   58.13537059
_symmetry_Int_Tables_number   1
_chemical_formula_structural   MgFe4(CoO4)2
_chemical_formula_sum   'Mg1 Fe4 Co2 O8'
_cell_volume   171.90647884
_cell_formula_units_Z   1
loop_
 _symmetry_equiv_pos_site_id
 _symmetry_equiv_pos_as_xyz
  1  'x, y, z'
loop_
 _atom_site_type_symbol
 _atom_site_label
 _atom_site_symmetry_multiplicity
 _atom_site_fract_x
 _atom_site_fract_y
 _atom_site_fract_z
 _atom_site_occupancy
  Mg  Mg0  1  0.52410700  0.52410700  0.97589300  1
  Fe  Fe0  1  0.87239400  0.38269200  0.37245700  1
  Fe  Fe1  1  0.38269200  0.87239400  0.37245700  1
  Fe  Fe2  1  0.32817500  0.32817500  0.88945700  1
  Fe  Fe3  1  0.32817500  0.32817500  0.45419300  1
  Co  Co0  1  0.80829400  0.80829400  0.69170600  1
  Co  Co1  1  0.97448100  0.97448100  0.02551900  1
  O  O0  1  0.57921700  0.13647600  0.14215400  1
  O  O1  1  0.13647600  0.57921700  0.14215400  1
  O  O2  1  0.11099600  0.11099600  0.61723700  1
  O  O3  1  0.11099600  0.11099600  0.16077100  1
  O  O4  1  0.18557000  0.63041600  0.59200700  1
  O  O5  1  0.63041600  0.18557000  0.59200700  1
  O  O6  1  0.64942200  0.64942200  0.11075300  1
  O  O7  1  0.64942200  0.64942200  0.59040400  1
loop_
_geom_bond_atom_site_label_1
_geom_bond_atom_site_label_2
_geom_bond_distance
_geom_bond_site_symmetry_2
Mg0 O7 1.956618 1_555
Mg0 O6 1.956623 1_556
Mg0 O1 2.050345 1_556
Mg0 O0 2.050345 1_556
Fe0 O5 2.031711 1_555
Fe0 O3 2.096118 1_655
Fe0 O2 2.096118 1_655
Fe0 O6 2.101573 1_555
Fe0 O7 2.101578 1_555
Fe0 O1 2.136414 1_655
Fe1 O4 2.031711 1_555
Fe1 O3 2.096118 1_565
Fe1 O2 2.096118 1_565
Fe1 O6 2.101573 1_555
Fe1 O7 2.101578 1_555
Fe1 O0 2.136414 1_565
Fe2 O3 2.031848 1_556
Fe2 O4 2.037240 1_555
Fe2 O5 2.037240 1_555
Fe2 O0 2.203462 1_556
Fe2 O1 2.203462 1_556
Fe3 O2 2.031848 1_555
Fe3 O4 2.037240 1_555
Fe3 O5 2.037240 1_555
Fe3 O0 2.203457 1_555
Fe3 O1 2.203457 1_555
Co0 O5 1.937063 1_565
Co0 O4 1.937063 1_655
Co0 O7 2.154360 1_555
Co0 O6 2.154364 1_556
Co1 O0 2.021531 1_565
Co1 O1 2.021531 1_655
Co1 O2 2.074885 1_664
Co1 O3 2.074885 1_665
