# generated using pymatgen
data_Na14Mg4Ti4Si7S5O48
_symmetry_space_group_name_H-M   'P 1'
_cell_length_a   18.05574017
_cell_length_b   9.03507429
_cell_length_c   21.99449832
_cell_angle_alpha   90.07858871
_cell_angle_beta   89.59133211
_cell_angle_gamma   119.98793817
_symmetry_Int_Tables_number   1
_chemical_formula_structural   Na14Mg4Ti4Si7S5O48
_chemical_formula_sum   'Na42 Mg12 Ti12 Si21 S15 O144'
_cell_volume   3107.64963403
_cell_formula_units_Z   3
loop_
 _symmetry_equiv_pos_site_id
 _symmetry_equiv_pos_as_xyz
  1  'x, y, z'
loop_
 _atom_site_type_symbol
 _atom_site_label
 _atom_site_symmetry_multiplicity
 _atom_site_fract_x
 _atom_site_fract_y
 _atom_site_fract_z
 _atom_site_occupancy
  Na  Na0  1  0.80620656  0.98637875  0.25741120  1
  Na  Na1  1  0.18184573  0.35322975  0.25575793  1
  Na  Na2  1  0.69015859  0.36572027  0.25512328  1
  Na  Na3  1  0.99249375  0.63673558  0.24706081  1
  Na  Na4  1  0.49769404  0.63620793  0.25228510  1
  Na  Na5  1  0.30826299  0.62733357  0.74358813  1
  Na  Na6  1  0.99762711  0.35714919  0.74661203  1
  Na  Na7  1  0.49492356  0.35244743  0.74070667  1
  Na  Na8  1  0.18944000  0.01352056  0.75006668  1
  Na  Na9  1  0.68404321  0.01168409  0.75155276  1
  Na  Na10  1  0.14953970  0.32989068  0.58773770  1
  Na  Na11  1  0.65856232  0.33650230  0.57747224  1
  Na  Na12  1  0.33808800  0.98979701  0.58137480  1
  Na  Na13  1  0.83837169  0.98729257  0.57805698  1
  Na  Na14  1  0.15780000  0.98458039  0.08329836  1
  Na  Na15  1  0.64983462  0.96920493  0.09115232  1
  Na  Na16  1  0.33822720  0.68987041  0.08489063  1
  Na  Na17  1  0.83592449  0.69101490  0.08444851  1
  Na  Na18  1  0.48141760  0.67250351  0.92362464  1
  Na  Na19  1  0.97329591  0.66548077  0.92155430  1
  Na  Na20  1  0.35485801  0.04229275  0.91459581  1
  Na  Na21  1  0.85160520  0.03617348  0.90923932  1
  Na  Na22  1  0.16734975  0.28722623  0.91352176  1
  Na  Na23  1  0.67028879  0.28698054  0.90897979  1
  Na  Na24  1  0.47664231  0.28710597  0.42349378  1
  Na  Na25  1  0.97321719  0.27288248  0.42494143  1
  Na  Na26  1  0.16934575  0.05682739  0.40935719  1
  Na  Na27  1  0.67436146  0.03936007  0.41154001  1
  Na  Na28  1  0.35427539  0.66981340  0.41031779  1
  Na  Na29  1  0.85158322  0.67534519  0.41700387  1
  Na  Na30  1  0.99293029  0.99136369  0.49737900  1
  Na  Na31  1  0.50353847  0.99646761  0.50045949  1
  Na  Na32  1  0.99966157  0.00579743  0.00274736  1
  Na  Na33  1  0.50071210  0.00783125  0.00339038  1
  Na  Na34  1  0.32580613  0.31967594  0.82283492  1
  Na  Na35  1  0.82470670  0.33730633  0.82938810  1
  Na  Na36  1  0.32698373  0.31523684  0.33253319  1
  Na  Na37  1  0.82363400  0.31585663  0.33035654  1
  Na  Na38  1  0.16537942  0.67059427  0.17211553  1
  Na  Na39  1  0.66151738  0.65772071  0.17326915  1
  Na  Na40  1  0.16132939  0.66341963  0.67077074  1
  Na  Na41  1  0.66294035  0.65632876  0.66502241  1
  Mg  Mg0  1  0.00011441  0.00117684  0.35320087  1
  Mg  Mg1  1  0.49760033  0.99264393  0.34827259  1
  Mg  Mg2  1  0.99621485  0.99957647  0.84682250  1
  Mg  Mg3  1  0.50710706  0.00849913  0.84756903  1
  Mg  Mg4  1  0.33743660  0.33079814  0.68394971  1
  Mg  Mg5  1  0.83699118  0.33981316  0.18568309  1
  Mg  Mg6  1  0.33388769  0.33219921  0.99432635  1
  Mg  Mg7  1  0.83156513  0.33880609  0.97924677  1
  Mg  Mg8  1  0.33314072  0.32671162  0.47945382  1
  Mg  Mg9  1  0.83119214  0.32337723  0.48844688  1
  Mg  Mg10  1  0.67069867  0.68241805  0.31106189  1
  Mg  Mg11  1  0.16728031  0.66188108  0.80874836  1
  Ti  Ti0  1  0.99198768  0.00797746  0.64953366  1
  Ti  Ti1  1  0.50578489  0.03295587  0.64996021  1
  Ti  Ti2  1  0.00500732  0.98117119  0.15106659  1
  Ti  Ti3  1  0.49202309  0.97797973  0.15093124  1
  Ti  Ti4  1  0.82803960  0.32724599  0.67879259  1
  Ti  Ti5  1  0.32707097  0.32781405  0.17930912  1
  Ti  Ti6  1  0.16744712  0.66805289  0.03061030  1
  Ti  Ti7  1  0.66431716  0.67523231  0.01694715  1
  Ti  Ti8  1  0.16427588  0.65503958  0.51675350  1
  Ti  Ti9  1  0.67653761  0.68172709  0.52741280  1
  Ti  Ti10  1  0.18180446  0.68560237  0.31266809  1
  Ti  Ti11  1  0.68215842  0.67959493  0.81124994  1
  Si  Si0  1  0.15102739  -0.00007108  0.25406476  1
  Si  Si1  1  0.64709886  0.00321615  0.25114285  1
  Si  Si2  1  0.35183464  0.69418022  0.25289614  1
  Si  Si3  1  0.85238516  0.70236641  0.25317178  1
  Si  Si4  1  0.14728936  0.28930526  0.75237410  1
  Si  Si5  1  0.65277680  0.30635440  0.75335008  1
  Si  Si6  1  0.35295032  0.99901146  0.75429057  1
  Si  Si7  1  0.85253697  0.01052418  0.75324187  1
  Si  Si8  1  0.48165725  0.34164696  0.58149528  1
  Si  Si9  1  0.98361908  0.34438814  0.58397299  1
  Si  Si10  1  0.67956947  0.03379581  0.58227513  1
  Si  Si11  1  0.84198209  0.63229201  0.57822176  1
  Si  Si12  1  0.48304777  0.62484573  0.08255878  1
  Si  Si13  1  0.97765199  0.62216185  0.08231301  1
  Si  Si14  1  0.34063268  0.04718465  0.07797114  1
  Si  Si15  1  0.18043649  0.32601558  0.08057295  1
  Si  Si16  1  0.81541486  0.66995086  0.91901874  1
  Si  Si17  1  0.66467958  0.95863742  0.91403561  1
  Si  Si18  1  0.31568614  0.96206794  0.41961920  1
  Si  Si19  1  0.81287693  0.96657671  0.41491195  1
  Si  Si20  1  0.16700205  0.37480106  0.41420979  1
  S  S0  1  0.00009935  0.28768058  0.25063133  1
  S  S1  1  0.49571026  0.28481528  0.25085282  1
  S  S2  1  0.99697750  0.70692653  0.75192346  1
  S  S3  1  0.50003770  0.71030433  0.75218056  1
  S  S4  1  0.18351349  0.03404723  0.58282464  1
  S  S5  1  0.33335939  0.62975701  0.58180243  1
  S  S6  1  0.83299181  0.03852416  0.08100270  1
  S  S7  1  0.68370657  0.33402523  0.08222920  1
  S  S8  1  0.31077285  0.66197031  0.91676544  1
  S  S9  1  0.02610472  0.38466098  0.91887076  1
  S  S10  1  0.52164927  0.38194698  0.91603479  1
  S  S11  1  0.16760778  0.95474807  0.91638834  1
  S  S12  1  0.66560127  0.37722760  0.41526646  1
  S  S13  1  0.02435138  0.66366705  0.41519175  1
  S  S14  1  0.52419182  0.66638232  0.41802164  1
  O  O0  1  0.11381206  0.04741580  0.31269867  1
  O  O1  1  0.60865179  0.04472667  0.31143338  1
  O  O2  1  0.40792577  0.77439117  0.31243140  1
  O  O3  1  0.91209898  0.79395245  0.31125883  1
  O  O4  1  0.48445826  0.19064643  0.30813491  1
  O  O5  1  0.99202781  0.19672882  0.30786934  1
  O  O6  1  0.11040864  0.17445651  0.81390104  1
  O  O7  1  0.61696819  0.18697852  0.81289611  1
  O  O8  1  0.49027728  0.78313838  0.81029461  1
  O  O9  1  0.98712507  0.77932612  0.80983926  1
  O  O10  1  0.40883172  0.02244700  0.81482591  1
  O  O11  1  0.90804539  0.04149773  0.81328725  1
  O  O12  1  0.40694072  0.97819173  0.69464364  1
  O  O13  1  0.90060299  0.98719222  0.69253565  1
  O  O14  1  0.08265129  0.17340906  0.69499853  1
  O  O15  1  0.58690463  0.21061851  0.69483788  1
  O  O16  1  0.00727903  0.81759929  0.69934503  1
  O  O17  1  0.51354513  0.82507138  0.70067904  1
  O  O18  1  0.39917415  0.81302799  0.19167631  1
  O  O19  1  0.90703090  0.83179089  0.19211922  1
  O  O20  1  0.01427225  0.20026487  0.19790786  1
  O  O21  1  0.50447762  0.19254364  0.19761952  1
  O  O22  1  0.08729636  0.96637675  0.19375852  1
  O  O23  1  0.58232914  0.99289007  0.19308362  1
  O  O24  1  0.44374536  0.37070477  0.64384154  1
  O  O25  1  0.93439878  0.35998716  0.64460164  1
  O  O26  1  0.23699753  0.11543140  0.63728170  1
  O  O27  1  0.74665873  0.13005355  0.63993385  1
  O  O28  1  0.32125566  0.52700750  0.63734969  1
  O  O29  1  0.82208755  0.49199822  0.63323008  1
  O  O30  1  0.43067108  0.50372872  0.14091209  1
  O  O31  1  0.94241810  0.51565458  0.14367528  1
  O  O32  1  0.31755319  0.14490609  0.13176852  1
  O  O33  1  0.82110744  0.11684035  0.13532881  1
  O  O34  1  0.24744071  0.36570693  0.13780706  1
  O  O35  1  0.73725233  0.35914965  0.13578083  1
  O  O36  1  0.21756648  0.28491277  0.01988243  1
  O  O37  1  0.72176706  0.30378107  0.02649916  1
  O  O38  1  0.42649880  0.55892696  0.02150167  1
  O  O39  1  0.91966381  0.54946664  0.02240938  1
  O  O40  1  0.35204670  0.14032512  0.01394781  1
  O  O41  1  0.83896243  0.13365874  0.02492408  1
  O  O42  1  0.22253580  0.14145479  0.52798320  1
  O  O43  1  0.71333311  0.15218032  0.52261046  1
  O  O44  1  0.33846734  0.54343817  0.52685727  1
  O  O45  1  0.85217430  0.55664969  0.51521493  1
  O  O46  1  0.41942392  0.28890739  0.52333277  1
  O  O47  1  0.92634055  0.29642448  0.52431142  1
  O  O48  1  0.26715675  0.67674528  0.97264699  1
  O  O49  1  0.75882851  0.68197317  0.97738944  1
  O  O50  1  0.08133535  0.48306271  0.97098987  1
  O  O51  1  0.57423688  0.47421442  0.97047642  1
  O  O52  1  0.16504301  0.85783204  0.97209025  1
  O  O53  1  0.65398799  0.83358744  0.97478322  1
  O  O54  1  0.25962706  0.83736210  0.47806955  1
  O  O55  1  0.75813083  0.84090610  0.47592984  1
  O  O56  1  0.15625979  0.47755406  0.47526253  1
  O  O57  1  0.65947569  0.46463790  0.47119735  1
  O  O58  1  0.07714325  0.67555517  0.47000392  1
  O  O59  1  0.57775388  0.67794335  0.47018017  1
  O  O60  1  0.06738336  0.64916560  0.35930202  1
  O  O61  1  0.55837256  0.63948513  0.36009256  1
  O  O62  1  0.25509477  0.85564495  0.35952344  1
  O  O63  1  0.75437287  0.88038863  0.35579071  1
  O  O64  1  0.17429373  0.49731171  0.35584521  1
  O  O65  1  0.66820981  0.47316133  0.35996897  1
  O  O66  1  0.06344049  0.48161909  0.86163194  1
  O  O67  1  0.56411091  0.47840195  0.85986362  1
  O  O68  1  0.17278638  0.86511617  0.86123343  1
  O  O69  1  0.67154811  0.84942496  0.85606469  1
  O  O70  1  0.25945842  0.64578882  0.86213839  1
  O  O71  1  0.75487654  0.65568433  0.85923817  1
  O  O72  1  0.02134050  0.82462995  0.41598188  1
  O  O73  1  0.51932580  0.82691065  0.41697689  1
  O  O74  1  0.40834736  0.97398532  0.41848855  1
  O  O75  1  0.90455870  0.97139980  0.41838335  1
  O  O76  1  0.08170880  0.18968926  0.41670882  1
  O  O77  1  0.58746496  0.20311807  0.41619134  1
  O  O78  1  0.02133913  0.21561884  0.91877045  1
  O  O79  1  0.51442034  0.21066830  0.91719671  1
  O  O80  1  0.08849114  0.96689422  0.91775397  1
  O  O81  1  0.57780884  0.97090384  0.91638808  1
  O  O82  1  0.39682424  0.81770993  0.91522074  1
  O  O83  1  0.90833347  0.84347707  0.91831568  1
  O  O84  1  0.49298200  0.16396715  0.58995640  1
  O  O85  1  0.99882663  0.17519566  0.59366031  1
  O  O86  1  0.09678537  0.01271017  0.58936368  1
  O  O87  1  0.58508177  0.00693879  0.59862867  1
  O  O88  1  0.40781317  0.80516616  0.58517966  1
  O  O89  1  0.92053373  0.82700372  0.59250932  1
  O  O90  1  0.49844940  0.82306922  0.09233824  1
  O  O91  1  0.99297505  0.82249705  0.08918615  1
  O  O92  1  0.41808434  0.00808313  0.09119710  1
  O  O93  1  0.90740370  0.01012715  0.08399740  1
  O  O94  1  0.08672959  0.16239501  0.09501685  1
  O  O95  1  0.59653524  0.18184816  0.08834632  1
  O  O96  1  0.34376723  0.16894607  0.74647577  1
  O  O97  1  0.84020741  0.17692903  0.74469422  1
  O  O98  1  0.24462524  0.32643686  0.74064630  1
  O  O99  1  0.74605904  0.32621429  0.73909965  1
  O  O100  1  0.42115736  0.54016856  0.74602188  1
  O  O101  1  0.92285193  0.53149120  0.74616197  1
  O  O102  1  0.34006279  0.50318330  0.24290047  1
  O  O103  1  0.84279161  0.51364402  0.24609084  1
  O  O104  1  0.42120932  0.31208684  0.24418331  1
  O  O105  1  0.92169384  0.29924213  0.24404913  1
  O  O106  1  0.24446596  0.16658213  0.23848682  1
  O  O107  1  0.74393159  0.15953219  0.23941227  1
  O  O108  1  0.31962570  0.50650924  0.91884603  1
  O  O109  1  0.81911724  0.49470195  0.91681819  1
  O  O110  1  0.43606606  0.36720591  0.91908754  1
  O  O111  1  0.93875191  0.35969011  0.92494752  1
  O  O112  1  0.24502207  0.12900055  0.91590783  1
  O  O113  1  0.75303073  0.13980604  0.91805199  1
  O  O114  1  0.31855156  0.14361015  0.41736905  1
  O  O115  1  0.82419426  0.15763626  0.42067044  1
  O  O116  1  0.25595407  0.37233783  0.41796615  1
  O  O117  1  0.74417052  0.36340918  0.41546172  1
  O  O118  1  0.43552255  0.51770730  0.42448493  1
  O  O119  1  0.93936833  0.51269128  0.41823108  1
  O  O120  1  0.17738179  0.50708733  0.07671008  1
  O  O121  1  0.67724796  0.49231038  0.07657238  1
  O  O122  1  0.07988176  0.66622036  0.07255661  1
  O  O123  1  0.58128067  0.65159579  0.07886377  1
  O  O124  1  0.25142102  0.84917691  0.07580199  1
  O  O125  1  0.75249497  0.85956507  0.07848310  1
  O  O126  1  0.17747770  0.86347845  0.57744285  1
  O  O127  1  0.67705952  0.84841837  0.57978937  1
  O  O128  1  0.25305105  0.64755515  0.58003284  1
  O  O129  1  0.75317667  0.65107628  0.57852996  1
  O  O130  1  0.08252152  0.51209675  0.58020691  1
  O  O131  1  0.58173998  0.49529699  0.57145409  1
  O  O132  1  0.15051241  0.81664488  0.25740163  1
  O  O133  1  0.64294855  0.81837140  0.24754541  1
  O  O134  1  0.25474851  0.67285245  0.25279809  1
  O  O135  1  0.75780742  0.68443620  0.24929105  1
  O  O136  1  0.07645632  0.46513280  0.25153817  1
  O  O137  1  0.57531570  0.45558411  0.25238501  1
  O  O138  1  0.14615350  0.46997568  0.75081007  1
  O  O139  1  0.65107849  0.48729477  0.75721061  1
  O  O140  1  0.07702786  0.69405977  0.75372683  1
  O  O141  1  0.57584147  0.68444740  0.75385810  1
  O  O142  1  0.25760085  0.82781687  0.75108707  1
  O  O143  1  0.75541383  0.83718027  0.75323191  1
loop_
_geom_bond_atom_site_label_1
_geom_bond_atom_site_label_2
_geom_bond_distance
_geom_bond_site_symmetry_2
Na0 O63 2.357096 1_555
Na0 O107 2.373830 1_565
Na0 O135 2.419855 1_555
Na0 O105 2.554659 1_565
Na0 O133 2.564328 1_555
Na0 O33 2.890179 1_565
Na1 O106 2.482875 1_555
Na1 O102 2.489373 1_555
Na1 O134 2.505155 1_555
Na1 O136 2.564722 1_555
Na1 O64 2.593180 1_555
Na1 O0 2.703061 1_555
Na1 O34 2.822972 1_555
Na1 O20 2.924664 1_555
Na2 O103 2.394096 1_555
Na2 O135 2.506664 1_555
Na2 O107 2.516762 1_555
Na2 O137 2.578265 1_555
Na2 O65 2.604331 1_555
Na2 O35 2.763102 1_555
Na2 O1 2.797885 1_555
Na3 O103 2.353547 1_555
Na3 O132 2.491296 1_655
Na3 O31 2.493732 1_555
Na3 O105 2.653431 1_555
Na3 O136 2.657823 1_655
Na3 O60 2.798304 1_655
Na3 O22 2.838946 1_655
Na3 O3 2.853948 1_555
Na4 O133 2.297770 1_555
Na4 O102 2.485136 1_555
Na4 O104 2.544432 1_555
Na4 O61 2.613063 1_555
Na4 O137 2.629437 1_555
Na4 O30 2.735682 1_555
Na4 O2 2.814892 1_555
Na5 O98 2.365018 1_555
Na5 O142 2.407993 1_555
Na5 O100 2.526764 1_555
Na5 O138 2.539293 1_555
Na5 O28 2.556485 1_555
Na5 O70 2.777778 1_555
Na5 O12 2.952699 1_555
Na6 O138 2.347339 1_655
Na6 O97 2.471239 1_555
Na6 O25 2.530610 1_555
Na6 O101 2.535807 1_555
Na6 O140 2.642970 1_655
Na6 O66 2.788531 1_655
Na6 O11 2.875191 1_555
Na6 O14 2.986472 1_655
Na7 O24 2.366759 1_555
Na7 O96 2.384531 1_555
Na7 O139 2.478949 1_555
Na7 O141 2.615114 1_555
Na7 O100 2.630536 1_555
Na7 O15 2.741907 1_555
Na7 O67 2.888187 1_555
Na8 O96 2.414199 1_555
Na8 O98 2.492301 1_555
Na8 O142 2.528823 1_545
Na8 O140 2.568888 1_545
Na8 O26 2.631406 1_555
Na8 O68 2.731676 1_545
Na8 O6 2.856880 1_555
Na9 O97 2.447166 1_555
Na9 O143 2.485895 1_545
Na9 O99 2.494299 1_555
Na9 O141 2.604955 1_545
Na9 O69 2.674941 1_545
Na9 O27 2.684760 1_555
Na9 O7 2.771965 1_555
Na9 O17 2.902959 1_545
Na10 O85 2.359876 1_455
Na10 O130 2.489328 1_555
Na10 O86 2.528280 1_555
Na10 O128 2.528630 1_555
Na10 O14 2.699016 1_555
Na10 O56 2.785227 1_555
Na10 O28 2.915221 1_555
Na10 O42 2.928363 1_555
Na11 O131 2.447947 1_555
Na11 O129 2.478663 1_555
Na11 O84 2.602744 1_555
Na11 O57 2.606165 1_555
Na11 O43 2.613660 1_555
Na11 O87 2.624680 1_555
Na11 O29 2.845304 1_555
Na11 O15 2.849669 1_555
Na12 O84 2.437401 1_565
Na12 O126 2.532686 1_555
Na12 O88 2.544777 1_555
Na12 O46 2.665563 1_565
Na12 O54 2.674579 1_555
Na12 O128 2.678488 1_555
Na12 O12 2.817489 1_555
Na12 O26 2.857863 1_565
Na13 O127 2.530699 1_555
Na13 O85 2.547404 1_565
Na13 O89 2.560232 1_555
Na13 O129 2.631148 1_555
Na13 O55 2.648902 1_555
Na13 O47 2.696076 1_565
Na13 O13 2.764735 1_555
Na13 O27 2.890719 1_565
Na14 O122 2.503286 1_555
Na14 O94 2.519754 1_565
Na14 O124 2.538504 1_555
Na14 O91 2.580026 1_455
Na14 O22 2.701444 1_555
Na14 O32 2.723565 1_565
Na14 O52 2.729241 1_554
Na14 O36 2.744986 1_565
Na15 O90 2.367850 1_555
Na15 O123 2.508357 1_555
Na15 O125 2.514400 1_555
Na15 O95 2.543731 1_565
Na15 O23 2.603478 1_555
Na15 O53 2.852800 1_554
Na15 O33 2.863992 1_565
Na15 O37 2.984588 1_565
Na16 O92 2.494409 1_565
Na16 O90 2.523917 1_555
Na16 O120 2.531051 1_555
Na16 O18 2.602149 1_555
Na16 O124 2.613170 1_555
Na16 O48 2.765448 1_554
Na16 O38 2.780725 1_555
Na16 O34 2.793317 1_555
Na17 O91 2.469727 1_555
Na17 O93 2.501758 1_565
Na17 O121 2.515154 1_555
Na17 O125 2.627177 1_555
Na17 O19 2.697599 1_555
Na17 O49 2.724266 1_554
Na17 O39 2.771697 1_555
Na17 O35 2.842519 1_555
Na18 O38 2.372570 1_556
Na18 O81 2.372725 1_555
Na18 O110 2.455950 1_555
Na18 O82 2.469038 1_555
Na18 O108 2.533475 1_555
Na18 O8 2.660699 1_555
Na18 O53 2.933486 1_555
Na19 O109 2.418913 1_555
Na19 O83 2.419581 1_555
Na19 O39 2.432731 1_556
Na19 O80 2.466856 1_655
Na19 O111 2.511012 1_555
Na19 O9 2.626638 1_555
Na20 O40 2.366481 1_556
Na20 O10 2.437274 1_555
Na20 O112 2.469761 1_555
Na20 O82 2.495772 1_545
Na20 O79 2.497739 1_555
Na20 O110 2.544794 1_555
Na21 O11 2.327074 1_555
Na21 O113 2.396367 1_555
Na21 O83 2.430362 1_545
Na21 O111 2.558614 1_555
Na21 O78 2.665720 1_655
Na21 O41 2.736524 1_556
Na22 O78 2.381802 1_555
Na22 O6 2.423831 1_555
Na22 O112 2.453300 1_555
Na22 O108 2.461126 1_555
Na22 O80 2.508377 1_545
Na22 O36 2.518816 1_556
Na23 O7 2.315936 1_555
Na23 O109 2.395281 1_555
Na23 O113 2.455763 1_555
Na23 O81 2.490140 1_545
Na23 O79 2.545940 1_555
Na23 O37 2.731339 1_556
Na24 O46 2.423626 1_555
Na24 O74 2.459696 1_545
Na24 O77 2.473564 1_555
Na24 O114 2.480421 1_555
Na24 O118 2.537449 1_555
Na24 O4 2.707199 1_555
Na25 O115 2.352794 1_555
Na25 O75 2.367121 1_545
Na25 O47 2.385528 1_555
Na25 O76 2.429300 1_655
Na25 O119 2.532932 1_555
Na25 O5 2.726787 1_555
Na26 O0 2.340301 1_555
Na26 O114 2.407989 1_555
Na26 O76 2.421896 1_555
Na26 O72 2.440264 1_545
Na26 O116 2.480743 1_555
Na26 O42 2.758749 1_555
Na27 O115 2.370312 1_555
Na27 O73 2.481805 1_545
Na27 O1 2.520506 1_555
Na27 O117 2.545600 1_555
Na27 O43 2.608223 1_555
Na27 O77 2.641806 1_555
Na27 O63 2.774477 1_545
Na28 O2 2.351014 1_555
Na28 O116 2.372970 1_555
Na28 O74 2.420162 1_555
Na28 O118 2.482096 1_555
Na28 O73 2.587358 1_555
Na28 O44 2.761728 1_555
Na29 O75 2.348056 1_555
Na29 O45 2.415445 1_555
Na29 O117 2.498470 1_555
Na29 O3 2.559641 1_555
Na29 O119 2.646117 1_555
Na29 O72 2.661010 1_655
Na30 O75 2.312640 1_555
Na30 O76 2.454660 1_665
Na30 O89 2.514140 1_555
Na30 O72 2.547478 1_655
Na30 O85 2.659196 1_565
Na30 O86 2.708908 1_665
Na31 O74 2.437218 1_555
Na31 O73 2.494189 1_555
Na31 O77 2.521653 1_565
Na31 O88 2.534472 1_555
Na31 O84 2.544838 1_565
Na31 O87 2.596980 1_565
Na32 O83 2.436662 1_544
Na32 O93 2.447940 1_555
Na32 O91 2.485421 1_545
Na32 O94 2.531007 1_655
Na32 O78 2.533012 1_654
Na32 O80 2.590284 1_644
Na33 O92 2.432663 1_555
Na33 O81 2.476968 1_544
Na33 O95 2.505147 1_555
Na33 O90 2.560344 1_545
Na33 O79 2.561887 1_554
Na33 O82 2.655504 1_544
Na34 O96 2.282088 1_555
Na34 O98 2.355339 1_555
Na34 O100 2.515205 1_555
Na34 O112 2.596384 1_555
Na34 O108 2.737971 1_555
Na34 O110 2.798681 1_555
Na35 O109 2.421477 1_555
Na35 O99 2.422309 1_555
Na35 O97 2.457351 1_555
Na35 O113 2.515363 1_555
Na35 O101 2.534532 1_555
Na35 O111 2.888399 1_555
Na36 O114 2.382703 1_555
Na36 O116 2.462961 1_555
Na36 O106 2.517628 1_555
Na36 O102 2.535260 1_555
Na36 O104 2.583106 1_555
Na36 O118 2.782081 1_555
Na37 O115 2.451942 1_555
Na37 O107 2.463418 1_555
Na37 O103 2.475915 1_555
Na37 O117 2.514491 1_555
Na37 O105 2.641555 1_555
Na37 O119 2.756495 1_555
Na38 O132 2.381634 1_555
Na38 O134 2.400239 1_555
Na38 O136 2.462704 1_555
Na38 O120 2.633946 1_555
Na38 O124 2.638386 1_555
Na38 O122 2.677059 1_555
Na39 O133 2.315224 1_555
Na39 O135 2.344698 1_555
Na39 O137 2.431974 1_555
Na39 O123 2.525030 1_555
Na39 O121 2.691549 1_555
Na39 O125 2.708765 1_555
Na40 O138 2.398278 1_555
Na40 O142 2.409148 1_555
Na40 O130 2.439246 1_555
Na40 O140 2.470387 1_555
Na40 O128 2.633541 1_555
Na40 O126 2.653417 1_555
Na41 O127 2.480175 1_555
Na41 O139 2.482929 1_555
Na41 O129 2.511695 1_555
Na41 O131 2.530647 1_555
Na41 O143 2.555802 1_555
Na41 O141 2.590295 1_555
Mg0 O3 1.980861 1_445
Mg0 O0 2.073665 1_555
Mg0 O5 2.098066 1_455
Mg0 O76 2.130029 1_555
Mg0 O75 2.146223 1_445
Mg0 O72 2.285319 1_545
Mg1 O1 1.983208 1_565
Mg1 O2 1.988424 1_555
Mg1 O4 2.113701 1_565
Mg1 O74 2.168904 1_555
Mg1 O73 2.298136 1_555
Mg1 O77 2.328715 1_565
Mg2 O11 1.960134 1_565
Mg2 O6 1.999327 1_665
Mg2 O9 2.078364 1_555
Mg2 O83 2.170936 1_555
Mg2 O78 2.374177 1_665
Mg2 O80 2.413960 1_655
Mg3 O7 1.975085 1_555
Mg3 O10 1.981199 1_555
Mg3 O8 2.071435 1_545
Mg3 O81 2.120982 1_545
Mg3 O79 2.335234 1_555
Mg3 O82 2.384130 1_545
Mg4 O24 1.969138 1_555
Mg4 O96 2.053686 1_555
Mg4 O98 2.066190 1_555
Mg4 O26 2.149946 1_555
Mg4 O28 2.192160 1_555
Mg4 O100 2.211619 1_555
Mg5 O31 1.989242 1_555
Mg5 O103 2.018610 1_555
Mg5 O107 2.028303 1_555
Mg5 O105 2.170486 1_555
Mg5 O33 2.188199 1_555
Mg5 O35 2.195795 1_555
Mg6 O40 1.967580 1_556
Mg6 O38 1.984052 1_556
Mg6 O36 1.999107 1_556
Mg6 O110 2.369976 1_555
Mg6 O108 2.391948 1_555
Mg6 O112 2.450723 1_555
Mg7 O39 2.011042 1_556
Mg7 O109 2.060584 1_555
Mg7 O37 2.110662 1_556
Mg7 O113 2.127677 1_555
Mg7 O41 2.171911 1_556
Mg7 O111 2.193183 1_555
Mg8 O46 2.007345 1_555
Mg8 O114 2.057712 1_555
Mg8 O116 2.131647 1_555
Mg8 O42 2.135927 1_555
Mg8 O118 2.154495 1_555
Mg8 O44 2.176737 1_555
Mg9 O47 2.017684 1_555
Mg9 O45 2.033192 1_555
Mg9 O43 2.043439 1_555
Mg9 O115 2.070761 1_555
Mg9 O119 2.397977 1_555
Mg9 O117 2.404617 1_555
Mg10 O63 1.940297 1_555
Mg10 O135 2.064179 1_555
Mg10 O133 2.083619 1_555
Mg10 O61 2.147151 1_555
Mg10 O65 2.157229 1_555
Mg10 O137 2.308246 1_555
Mg11 O142 2.011789 1_555
Mg11 O138 2.028659 1_555
Mg11 O70 2.107220 1_555
Mg11 O66 2.107691 1_555
Mg11 O68 2.127819 1_555
Mg11 O140 2.169621 1_555
O0 Si0 1.604070 1_555
O1 Si1 1.620729 1_555
O2 Si2 1.596301 1_555
O3 Si3 1.613799 1_555
O4 S1 1.476142 1_555
O5 S0 1.470343 1_655
O6 Si4 1.628417 1_555
O7 Si5 1.609756 1_555
O8 S3 1.486028 1_555
O9 S2 1.480873 1_555
O10 Si6 1.624944 1_545
O11 Si7 1.601396 1_555
O12 Si6 1.694453 1_555
O12 Ti1 1.868004 1_565
O13 Si7 1.657101 1_565
O13 Ti0 1.822320 1_565
O14 Si4 1.687253 1_555
O14 Ti0 1.867391 1_455
O15 Si5 1.676126 1_555
O15 Ti1 1.833647 1_555
O16 S2 1.478511 1_455
O16 Ti0 2.172421 1_465
O17 S3 1.471158 1_555
O17 Ti1 2.250097 1_565
O18 Si2 1.663357 1_555
O18 Ti3 1.821923 1_555
O19 Si3 1.725150 1_555
O19 Ti2 1.833082 1_655
O20 S0 1.493087 1_555
O20 Ti2 2.161890 1_545
O21 S1 1.489145 1_555
O21 Ti3 2.103636 1_545
O22 Si0 1.687409 1_565
O22 Ti2 1.823709 1_555
O23 Si1 1.708493 1_565
O23 Ti3 1.827023 1_555
O24 Si8 1.607225 1_555
O25 Si9 1.641849 1_555
O25 Ti4 1.937285 1_555
O26 S4 1.487321 1_555
O27 Si10 1.672653 1_555
O27 Ti4 1.860272 1_555
O28 S5 1.482808 1_555
O29 Si11 1.656024 1_555
O29 Ti4 1.843128 1_555
O30 Si12 1.640466 1_555
O30 Ti5 1.935874 1_555
O31 Si13 1.591099 1_555
O32 Si14 1.646563 1_555
O32 Ti5 1.888875 1_555
O33 S6 1.456112 1_555
O34 Si15 1.662439 1_555
O34 Ti5 1.878647 1_555
O35 S7 1.472984 1_555
O36 Si15 1.613678 1_555
O37 S7 1.491370 1_555
O38 Si12 1.615593 1_555
O39 Si13 1.610419 1_555
O40 Si14 1.599784 1_555
O41 S6 1.476535 1_555
O42 S4 1.483478 1_555
O43 Si10 1.605754 1_555
O44 S5 1.464556 1_555
O45 Si11 1.594017 1_555
O46 Si8 1.615480 1_555
O47 Si9 1.596591 1_555
O48 S8 1.496495 1_555
O48 Ti6 2.167685 1_556
O49 Si16 1.672054 1_555
O49 Ti7 1.883566 1_556
O50 S9 1.492052 1_555
O50 Ti6 2.087077 1_556
O51 S10 1.500850 1_555
O51 Ti7 2.013554 1_556
O52 S11 1.493804 1_555
O52 Ti6 2.163308 1_556
O53 Si17 1.697476 1_555
O53 Ti7 1.792958 1_556
O54 Si18 1.670969 1_555
O54 Ti8 1.884005 1_555
O55 Si19 1.711943 1_555
O55 Ti9 1.839471 1_555
O56 Si20 1.695746 1_555
O56 Ti8 1.786368 1_555
O57 S12 1.493983 1_555
O57 Ti9 2.205805 1_555
O58 S13 1.512350 1_555
O58 Ti8 1.970236 1_555
O59 S14 1.475393 1_555
O59 Ti9 2.176692 1_555
O60 S13 1.489849 1_555
O60 Ti10 2.172421 1_555
O61 S14 1.483640 1_555
O62 Si18 1.683483 1_555
O62 Ti10 1.776613 1_555
O63 Si19 1.614826 1_555
O64 Si20 1.657178 1_555
O64 Ti10 1.893770 1_555
O65 S12 1.481220 1_555
O66 S9 1.485724 1_555
O67 S10 1.481608 1_555
O67 Ti11 2.256186 1_555
O68 S11 1.485790 1_555
O69 Si17 1.652692 1_555
O69 Ti11 1.910429 1_555
O70 S8 1.484383 1_555
O71 Si16 1.679110 1_555
O71 Ti11 1.785653 1_555
O72 S13 1.482306 1_555
O73 S14 1.496452 1_555
O74 Si18 1.621943 1_555
O75 Si19 1.636369 1_555
O76 Si20 1.611290 1_555
O77 S12 1.498856 1_555
O78 S9 1.486170 1_555
O79 S10 1.486823 1_555
O80 S11 1.486497 1_555
O81 Si17 1.627206 1_555
O82 S8 1.486302 1_555
O83 Si16 1.625832 1_555
O84 Si8 1.727163 1_555
O84 Ti1 1.865072 1_555
O85 Si9 1.696743 1_555
O85 Ti0 1.903812 1_555
O86 S4 1.484960 1_555
O86 Ti0 2.284121 1_455
O87 Si10 1.636002 1_555
O87 Ti1 1.921593 1_555
O88 S5 1.481812 1_555
O88 Ti1 2.404915 1_565
O89 Si11 1.647990 1_555
O89 Ti0 1.954441 1_565
O90 Si12 1.683176 1_555
O90 Ti3 1.946405 1_555
O91 Si13 1.695553 1_555
O91 Ti2 1.908513 1_655
O92 Si14 1.632496 1_555
O92 Ti3 1.992826 1_545
O93 S6 1.490377 1_555
O93 Ti2 2.418527 1_645
O94 Si15 1.625527 1_555
O94 Ti2 1.985560 1_545
O95 S7 1.489982 1_555
O95 Ti3 2.311686 1_545
O96 Si6 1.634018 1_545
O97 Si7 1.637471 1_555
O97 Ti4 2.074116 1_555
O98 Si4 1.634678 1_555
O99 Si5 1.630260 1_555
O99 Ti4 1.977061 1_555
O100 S3 1.491112 1_555
O101 S2 1.483576 1_555
O101 Ti4 2.324296 1_555
O102 Si2 1.644513 1_555
O102 Ti5 2.036882 1_555
O103 Si3 1.632820 1_555
O104 S1 1.491964 1_555
O104 Ti5 2.285140 1_555
O105 S0 1.478777 1_655
O106 Si0 1.638505 1_555
O106 Ti5 1.961212 1_555
O107 Si1 1.626119 1_555
O108 S8 1.491734 1_555
O109 Si16 1.618480 1_555
O110 S10 1.484221 1_555
O111 S9 1.482481 1_655
O112 S11 1.494179 1_545
O113 Si17 1.619665 1_545
O114 Si18 1.615826 1_545
O115 Si19 1.638550 1_545
O116 Si20 1.620028 1_555
O117 S12 1.485007 1_555
O118 S14 1.495083 1_555
O119 S13 1.458123 1_655
O120 Si15 1.666552 1_555
O120 Ti6 1.855469 1_555
O121 S7 1.497239 1_555
O121 Ti7 2.214013 1_555
O122 Si13 1.694606 1_455
O122 Ti6 1.817760 1_555
O123 Si12 1.667451 1_555
O123 Ti7 1.949265 1_555
O124 Si14 1.708119 1_565
O124 Ti6 1.871259 1_555
O125 S6 1.543250 1_565
O125 Ti7 2.124698 1_555
O126 S4 1.494214 1_565
O126 Ti8 2.221297 1_555
O127 Si10 1.653553 1_565
O127 Ti9 1.891199 1_555
O128 S5 1.537486 1_555
O128 Ti8 2.156711 1_555
O129 Si11 1.694630 1_555
O129 Ti9 1.913553 1_555
O130 Si9 1.668873 1_455
O130 Ti8 1.965844 1_555
O131 Si8 1.651938 1_555
O131 Ti9 1.950394 1_555
O132 Si0 1.653085 1_565
O132 Ti10 1.970042 1_555
O133 Si1 1.635751 1_565
O134 Si2 1.665051 1_555
O134 Ti10 1.899582 1_555
O135 Si3 1.635594 1_555
O136 S0 1.504125 1_555
O136 Ti10 2.373880 1_555
O137 S1 1.493759 1_555
O138 Si4 1.643127 1_555
O139 Si5 1.652406 1_555
O139 Ti11 1.943071 1_555
O140 S2 1.507639 1_455
O141 S3 1.499880 1_555
O141 Ti11 2.323611 1_555
O142 Si6 1.643424 1_555
O143 Si7 1.668124 1_565
O143 Ti11 1.871742 1_555
