# generated using pymatgen
data_Na10Al8Si5S7O48
_symmetry_space_group_name_H-M   'P 1'
_cell_length_a   17.20354206
_cell_length_b   8.64116981
_cell_length_c   21.66402952
_cell_angle_alpha   89.60969739
_cell_angle_beta   88.86030609
_cell_angle_gamma   119.95095161
_symmetry_Int_Tables_number   1
_chemical_formula_structural   Na10Al8Si5S7O48
_chemical_formula_sum   'Na30 Al24 Si15 S21 O144'
_cell_volume   2789.37992685
_cell_formula_units_Z   3
loop_
 _symmetry_equiv_pos_site_id
 _symmetry_equiv_pos_as_xyz
  1  'x, y, z'
loop_
 _atom_site_type_symbol
 _atom_site_label
 _atom_site_symmetry_multiplicity
 _atom_site_fract_x
 _atom_site_fract_y
 _atom_site_fract_z
 _atom_site_occupancy
  Na  Na0  1  0.32437996  0.99955453  0.24842120  1
  Na  Na1  1  0.82317107  0.99886724  0.24969158  1
  Na  Na2  1  0.18155837  0.37180345  0.23798621  1
  Na  Na3  1  0.68189387  0.37157176  0.23942411  1
  Na  Na4  1  0.99530007  0.62909472  0.26079705  1
  Na  Na5  1  0.49590673  0.63022623  0.26070637  1
  Na  Na6  1  0.82246655  0.64721058  0.74546212  1
  Na  Na7  1  0.99526780  0.35874067  0.76157499  1
  Na  Na8  1  0.49650977  0.35688121  0.76001308  1
  Na  Na9  1  0.17986551  0.98990066  0.74208695  1
  Na  Na10  1  0.01663587  0.70394002  0.58626809  1
  Na  Na11  1  0.32971263  0.96953644  0.59249329  1
  Na  Na12  1  0.02009019  0.33054205  0.08330457  1
  Na  Na13  1  0.51974767  0.33011756  0.08459714  1
  Na  Na14  1  0.16203382  0.29827492  0.92783229  1
  Na  Na15  1  0.66319732  0.30057400  0.92979949  1
  Na  Na16  1  0.16146414  0.02540036  0.42772166  1
  Na  Na17  1  0.66261676  0.02316720  0.42947785  1
  Na  Na18  1  0.99337360  0.00262196  0.49965636  1
  Na  Na19  1  0.51190485  0.98954510  0.50213490  1
  Na  Na20  1  0.99952734  0.99196318  0.99977090  1
  Na  Na21  1  0.49767094  0.98839147  0.00122625  1
  Na  Na22  1  0.34536427  0.33486125  0.83637361  1
  Na  Na23  1  0.84572135  0.31527910  0.83532316  1
  Na  Na24  1  0.35372010  0.37257951  0.33681967  1
  Na  Na25  1  0.85101391  0.36916507  0.33778201  1
  Na  Na26  1  0.17952882  0.66426984  0.16378766  1
  Na  Na27  1  0.67954592  0.66343493  0.16484238  1
  Na  Na28  1  0.17285426  0.66785948  0.66931868  1
  Na  Na29  1  0.68262021  0.72681155  0.66511716  1
  Al  Al0  1  0.98419317  0.97094100  0.35121513  1
  Al  Al1  1  0.48640557  0.97449906  0.35167493  1
  Al  Al2  1  0.98610999  0.99709400  0.85087371  1
  Al  Al3  1  0.49279347  0.01426869  0.85402732  1
  Al  Al4  1  0.99866016  0.99085161  0.64736928  1
  Al  Al5  1  0.50331590  0.99698688  0.64705603  1
  Al  Al6  1  0.00231429  0.01144276  0.14732797  1
  Al  Al7  1  0.50249251  0.01136598  0.14763088  1
  Al  Al8  1  0.32946873  0.31488232  0.68239134  1
  Al  Al9  1  0.83026691  0.31761619  0.68929696  1
  Al  Al10  1  0.33422998  0.34511976  0.18722110  1
  Al  Al11  1  0.83385074  0.34405833  0.18728028  1
  Al  Al12  1  0.33570340  0.33270692  0.98097238  1
  Al  Al13  1  0.83735960  0.33696619  0.98128354  1
  Al  Al14  1  0.33600070  0.34548724  0.48092412  1
  Al  Al15  1  0.83220044  0.34027830  0.48155149  1
  Al  Al16  1  0.16601815  0.64456007  0.01772948  1
  Al  Al17  1  0.66449259  0.64757730  0.02015667  1
  Al  Al18  1  0.15861856  0.67505910  0.51793115  1
  Al  Al19  1  0.66155011  0.69132600  0.52089058  1
  Al  Al20  1  0.15801313  0.64596075  0.31274407  1
  Al  Al21  1  0.65826963  0.64501782  0.31282548  1
  Al  Al22  1  0.16209956  0.66978696  0.81176855  1
  Al  Al23  1  0.66290204  0.67837764  0.81509687  1
  Si  Si0  1  0.35519912  0.71249517  0.24925119  1
  Si  Si1  1  0.85498734  0.71149245  0.24873716  1
  Si  Si2  1  0.99781565  0.28319410  0.24902603  1
  Si  Si3  1  0.49810519  0.28374272  0.24902707  1
  Si  Si4  1  0.99765956  0.71053961  0.74945955  1
  Si  Si5  1  0.35590623  0.99587576  0.74693577  1
  Si  Si6  1  0.85115159  0.99444427  0.74921078  1
  Si  Si7  1  0.18510248  0.04709145  0.58014348  1
  Si  Si8  1  0.68988822  0.05392456  0.58309824  1
  Si  Si9  1  0.18985961  0.32624768  0.08187833  1
  Si  Si10  1  0.68956684  0.32587371  0.08214257  1
  Si  Si11  1  0.01852606  0.36819059  0.91656260  1
  Si  Si12  1  0.51903198  0.37829814  0.91717918  1
  Si  Si13  1  0.01597419  0.66689641  0.41696299  1
  Si  Si14  1  0.51866843  0.66836459  0.41569997  1
  S  S0  1  0.14425274  0.00126641  0.25092460  1
  S  S1  1  0.64421521  0.00156091  0.25001328  1
  S  S2  1  0.14884853  0.29156455  0.74891017  1
  S  S3  1  0.64324974  0.28066190  0.75173341  1
  S  S4  1  0.49873685  0.71661348  0.75160633  1
  S  S5  1  0.48178027  0.34408480  0.58254322  1
  S  S6  1  0.97809706  0.32982543  0.58318069  1
  S  S7  1  0.33271540  0.61575119  0.58388646  1
  S  S8  1  0.82740558  0.61987652  0.58313207  1
  S  S9  1  0.47858945  0.62688658  0.08225593  1
  S  S10  1  0.97903032  0.62760890  0.08241025  1
  S  S11  1  0.32893333  0.03792130  0.08235638  1
  S  S12  1  0.82831930  0.03687293  0.08233582  1
  S  S13  1  0.31277814  0.67370986  0.91427787  1
  S  S14  1  0.81175210  0.67134586  0.91688738  1
  S  S15  1  0.16788643  0.94739375  0.91769111  1
  S  S16  1  0.66470178  0.94876699  0.91767372  1
  S  S17  1  0.31186586  0.95222660  0.41761001  1
  S  S18  1  0.81088099  0.95135203  0.41638153  1
  S  S19  1  0.16751304  0.38712896  0.41863990  1
  S  S20  1  0.66659234  0.38529041  0.41861797  1
  O  O0  1  0.10605701  0.03366738  0.30779749  1
  O  O1  1  0.60586308  0.03365264  0.30685285  1
  O  O2  1  0.41981187  0.78274636  0.30809122  1
  O  O3  1  0.91986069  0.77983322  0.30759375  1
  O  O4  1  0.47886281  0.14646205  0.30701716  1
  O  O5  1  0.97989836  0.14643249  0.30683191  1
  O  O6  1  0.11151755  0.18158608  0.80659292  1
  O  O7  1  0.60631116  0.17631985  0.81060696  1
  O  O8  1  0.49049852  0.80465000  0.80733468  1
  O  O9  1  0.98244396  0.81451077  0.80711128  1
  O  O10  1  0.42539547  0.04898174  0.80298614  1
  O  O11  1  0.91528968  0.04672876  0.80878366  1
  O  O12  1  0.40212418  0.97268194  0.68338258  1
  O  O13  1  0.90038692  0.95317133  0.69151647  1
  O  O14  1  0.09163022  0.20779578  0.69537533  1
  O  O15  1  0.58479828  0.19016865  0.69935980  1
  O  O16  1  0.02168122  0.83251801  0.68593965  1
  O  O17  1  0.51142062  0.82135670  0.69440474  1
  O  O18  1  0.40317866  0.84915558  0.19065210  1
  O  O19  1  0.90351432  0.84968329  0.19065522  1
  O  O20  1  0.02210755  0.21238010  0.18570635  1
  O  O21  1  0.52143771  0.21145994  0.18571698  1
  O  O22  1  0.08778514  0.97043035  0.19668762  1
  O  O23  1  0.58773077  0.97127019  0.19591355  1
  O  O24  1  0.44294996  0.37109670  0.64159748  1
  O  O25  1  0.94283494  0.37385274  0.63984960  1
  O  O26  1  0.24914932  0.13164277  0.63988246  1
  O  O27  1  0.75314281  0.16027431  0.63949884  1
  O  O28  1  0.32660074  0.50977536  0.63995673  1
  O  O29  1  0.81984964  0.52731036  0.64281504  1
  O  O30  1  0.44051590  0.51097003  0.13908068  1
  O  O31  1  0.94087586  0.51146818  0.13929070  1
  O  O32  1  0.31979002  0.11532327  0.14128140  1
  O  O33  1  0.81895825  0.11300885  0.14149660  1
  O  O34  1  0.24789627  0.34542511  0.14259962  1
  O  O35  1  0.74797181  0.34489618  0.14255421  1
  O  O36  1  0.23890582  0.31253002  0.01853643  1
  O  O37  1  0.73897081  0.31199510  0.01896109  1
  O  O38  1  0.42508603  0.53772351  0.02792494  1
  O  O39  1  0.92486753  0.53827979  0.02825030  1
  O  O40  1  0.34655899  0.16237738  0.02946363  1
  O  O41  1  0.84539165  0.16127699  0.02954980  1
  O  O42  1  0.23876118  0.16483338  0.51860934  1
  O  O43  1  0.73399647  0.16511270  0.51772605  1
  O  O44  1  0.34437939  0.53477041  0.52753254  1
  O  O45  1  0.84645299  0.53055635  0.53128153  1
  O  O46  1  0.42180027  0.31769103  0.53082025  1
  O  O47  1  0.92407901  0.31072520  0.52889395  1
  O  O48  1  0.27458979  0.70095436  0.97258466  1
  O  O49  1  0.76810546  0.69258927  0.97310255  1
  O  O50  1  0.08275034  0.45698828  0.97661049  1
  O  O51  1  0.58293826  0.46638746  0.97650464  1
  O  O52  1  0.16373640  0.83733006  0.97140208  1
  O  O53  1  0.65824316  0.84223606  0.97277900  1
  O  O54  1  0.26871170  0.84832409  0.47597274  1
  O  O55  1  0.76810735  0.84409829  0.47277608  1
  O  O56  1  0.16422178  0.48953744  0.47209232  1
  O  O57  1  0.66155735  0.48264628  0.47178218  1
  O  O58  1  0.07967993  0.70591430  0.47697034  1
  O  O59  1  0.58627304  0.71138693  0.47238967  1
  O  O60  1  0.06761695  0.64656512  0.35573855  1
  O  O61  1  0.56597268  0.64520790  0.35259716  1
  O  O62  1  0.25762505  0.86493736  0.36304114  1
  O  O63  1  0.75835358  0.86804921  0.36024683  1
  O  O64  1  0.17811828  0.48493592  0.35945728  1
  O  O65  1  0.67724115  0.48326599  0.35889410  1
  O  O66  1  0.07030060  0.48999557  0.85520089  1
  O  O67  1  0.56798332  0.49717779  0.85396002  1
  O  O68  1  0.17878674  0.87271079  0.85874202  1
  O  O69  1  0.67842465  0.87070318  0.86041798  1
  O  O70  1  0.25670910  0.65215994  0.86110382  1
  O  O71  1  0.75753818  0.64755577  0.86145905  1
  O  O72  1  0.01218567  0.85497781  0.41060396  1
  O  O73  1  0.51304999  0.85436162  0.40956759  1
  O  O74  1  0.40168112  0.96895078  0.41465700  1
  O  O75  1  0.90116531  0.96968982  0.41276681  1
  O  O76  1  0.08611258  0.20997053  0.41884339  1
  O  O77  1  0.58596799  0.20487180  0.41690222  1
  O  O78  1  0.01309592  0.17047012  0.90979241  1
  O  O79  1  0.51285282  0.17974754  0.91209552  1
  O  O80  1  0.08599255  0.96267884  0.91772969  1
  O  O81  1  0.58165943  0.96116262  0.91402486  1
  O  O82  1  0.40462701  0.83042082  0.90762767  1
  O  O83  1  0.90169793  0.83146172  0.91313657  1
  O  O84  1  0.48717022  0.17803420  0.58694608  1
  O  O85  1  0.98489940  0.16812711  0.59089942  1
  O  O86  1  0.08486071  0.02415753  0.58582945  1
  O  O87  1  0.58790256  0.02742985  0.59230257  1
  O  O88  1  0.41188371  0.79940124  0.58603862  1
  O  O89  1  0.90865652  0.80259572  0.58310451  1
  O  O90  1  0.48415929  0.80068120  0.08898209  1
  O  O91  1  0.98432392  0.80117456  0.08929640  1
  O  O92  1  0.41000946  0.01788009  0.08326493  1
  O  O93  1  0.90941983  0.01681476  0.08311849  1
  O  O94  1  0.08738095  0.14779284  0.08675502  1
  O  O95  1  0.58714265  0.14685222  0.08658693  1
  O  O96  1  0.34485502  0.17936098  0.74084680  1
  O  O97  1  0.84146859  0.17048846  0.74180414  1
  O  O98  1  0.23980108  0.31169805  0.74019508  1
  O  O99  1  0.73485506  0.31098502  0.74487043  1
  O  O100  1  0.41834794  0.53518811  0.74760668  1
  O  O101  1  0.90771648  0.51162910  0.74139005  1
  O  O102  1  0.33968073  0.51045428  0.24131612  1
  O  O103  1  0.83964007  0.50972507  0.24105766  1
  O  O104  1  0.40861971  0.30582105  0.24055071  1
  O  O105  1  0.90820775  0.30458194  0.24073134  1
  O  O106  1  0.23554906  0.15904294  0.24341834  1
  O  O107  1  0.73539582  0.15999133  0.24300188  1
  O  O108  1  0.31950635  0.50883215  0.91886757  1
  O  O109  1  0.82037584  0.50843755  0.92106681  1
  O  O110  1  0.42019746  0.35856675  0.92588197  1
  O  O111  1  0.91999742  0.35195223  0.92641845  1
  O  O112  1  0.24775736  0.13175374  0.92028264  1
  O  O113  1  0.74299918  0.13345034  0.91968884  1
  O  O114  1  0.32052741  0.13209811  0.42051101  1
  O  O115  1  0.81996933  0.13174125  0.41993053  1
  O  O116  1  0.24790135  0.36371750  0.42088145  1
  O  O117  1  0.74787756  0.36297054  0.41966499  1
  O  O118  1  0.42093791  0.48836700  0.42649882  1
  O  O119  1  0.91875824  0.48673877  0.42747189  1
  O  O120  1  0.17733553  0.50642033  0.07769496  1
  O  O121  1  0.67578565  0.50461044  0.07838471  1
  O  O122  1  0.07073463  0.65077585  0.07489748  1
  O  O123  1  0.57058193  0.65048458  0.07562526  1
  O  O124  1  0.24691322  0.86334239  0.07475724  1
  O  O125  1  0.74633316  0.86228620  0.07450370  1
  O  O126  1  0.17599173  0.84221006  0.57744808  1
  O  O127  1  0.68016947  0.85523903  0.57756720  1
  O  O128  1  0.25033795  0.63038907  0.58148369  1
  O  O129  1  0.74540080  0.62930055  0.57465575  1
  O  O130  1  0.07112089  0.48867856  0.57447161  1
  O  O131  1  0.57177620  0.49909728  0.57458489  1
  O  O132  1  0.15603990  0.84239493  0.25575876  1
  O  O133  1  0.65640393  0.84326041  0.25427463  1
  O  O134  1  0.25568778  0.69532880  0.25997807  1
  O  O135  1  0.75581169  0.69476857  0.25951710  1
  O  O136  1  0.08489841  0.48487703  0.25599323  1
  O  O137  1  0.58583168  0.48463106  0.25516491  1
  O  O138  1  0.15905645  0.47092605  0.75434576  1
  O  O139  1  0.64993096  0.45934170  0.75471217  1
  O  O140  1  0.08504657  0.68212784  0.75614203  1
  O  O141  1  0.57935408  0.69240009  0.75427369  1
  O  O142  1  0.25579180  0.82475354  0.75801828  1
  O  O143  1  0.75221918  0.80934435  0.75929803  1
loop_
_geom_bond_atom_site_label_1
_geom_bond_atom_site_label_2
_geom_bond_distance
_geom_bond_site_symmetry_2
Na0 O134 2.290712 1_555
Na0 O104 2.299484 1_565
Na0 O132 2.511623 1_555
Na0 O106 2.520725 1_565
Na0 O32 2.539475 1_565
Na0 O18 2.608993 1_555
Na0 O4 2.659599 1_565
Na0 O62 2.711317 1_555
Na1 O135 2.288080 1_555
Na1 O105 2.297689 1_565
Na1 O133 2.486727 1_555
Na1 O107 2.518932 1_565
Na1 O33 2.553187 1_565
Na1 O63 2.618371 1_555
Na1 O19 2.634264 1_555
Na1 O5 2.673847 1_565
Na2 O136 2.339630 1_555
Na2 O102 2.365408 1_555
Na2 O34 2.407696 1_555
Na2 O106 2.441963 1_555
Na2 O134 2.480181 1_555
Na2 O20 2.660222 1_555
Na2 O64 2.823277 1_555
Na2 O0 2.929840 1_555
Na3 O137 2.322958 1_555
Na3 O103 2.358083 1_555
Na3 O107 2.424273 1_555
Na3 O35 2.433684 1_555
Na3 O135 2.469552 1_555
Na3 O21 2.687759 1_555
Na3 O65 2.782028 1_555
Na3 O1 2.902309 1_555
Na4 O103 2.389861 1_555
Na4 O60 2.391562 1_655
Na4 O136 2.419352 1_655
Na4 O132 2.439660 1_655
Na4 O3 2.462202 1_555
Na4 O105 2.478810 1_555
Na4 O31 2.832507 1_555
Na4 O22 2.886271 1_655
Na5 O61 2.318586 1_555
Na5 O102 2.396741 1_555
Na5 O137 2.434886 1_555
Na5 O133 2.436775 1_555
Na5 O104 2.478566 1_555
Na5 O2 2.488431 1_555
Na5 O30 2.840609 1_555
Na5 O23 2.890952 1_555
Na6 O143 2.279286 1_555
Na6 O101 2.289817 1_555
Na6 O29 2.451396 1_555
Na6 O99 2.518302 1_555
Na6 O13 2.551370 1_555
Na6 O139 2.578057 1_555
Na6 O71 2.730281 1_555
Na6 O9 2.765479 1_555
Na7 O97 2.363736 1_555
Na7 O66 2.395895 1_655
Na7 O140 2.426298 1_655
Na7 O138 2.481299 1_655
Na7 O101 2.492087 1_555
Na7 O11 2.531920 1_555
Na7 O25 2.827077 1_555
Na7 O14 2.931947 1_655
Na8 O96 2.321192 1_555
Na8 O139 2.327363 1_555
Na8 O67 2.401806 1_555
Na8 O10 2.472457 1_555
Na8 O141 2.512881 1_555
Na8 O100 2.516315 1_555
Na8 O24 2.765488 1_555
Na8 O15 2.870557 1_555
Na9 O140 2.337522 1_555
Na9 O142 2.394637 1_555
Na9 O98 2.435365 1_565
Na9 O96 2.468580 1_565
Na9 O26 2.494738 1_565
Na9 O16 2.682071 1_555
Na9 O68 2.712408 1_555
Na9 O6 2.826656 1_565
Na10 O126 2.384361 1_555
Na10 O89 2.401621 1_455
Na10 O86 2.406360 1_565
Na10 O16 2.418340 1_555
Na10 O130 2.478271 1_555
Na10 O58 2.581093 1_555
Na10 O25 2.715779 1_455
Na10 O45 2.831705 1_455
Na11 O126 2.333288 1_555
Na11 O12 2.343963 1_555
Na11 O84 2.389378 1_565
Na11 O88 2.499888 1_555
Na11 O128 2.556698 1_555
Na11 O26 2.615089 1_565
Na11 O54 2.759410 1_555
Na11 O46 2.906505 1_565
Na12 O120 2.349833 1_555
Na12 O94 2.380486 1_555
Na12 O93 2.412660 1_455
Na12 O20 2.443932 1_555
Na12 O122 2.455418 1_555
Na12 O50 2.527639 1_554
Na12 O31 2.803565 1_455
Na12 O41 2.881180 1_455
Na13 O121 2.332153 1_555
Na13 O95 2.385049 1_555
Na13 O92 2.400366 1_555
Na13 O21 2.419271 1_555
Na13 O123 2.456586 1_555
Na13 O51 2.575847 1_554
Na13 O30 2.789543 1_555
Na13 O40 2.873619 1_555
Na14 O78 2.271072 1_555
Na14 O36 2.359959 1_556
Na14 O108 2.395786 1_555
Na14 O112 2.526799 1_555
Na14 O80 2.530004 1_545
Na14 O50 2.586165 1_555
Na14 O6 2.814703 1_555
Na15 O79 2.296829 1_555
Na15 O37 2.326891 1_556
Na15 O109 2.387284 1_555
Na15 O113 2.447519 1_555
Na15 O81 2.571216 1_545
Na15 O51 2.631122 1_555
Na15 O7 2.804884 1_555
Na16 O72 2.273861 1_545
Na16 O42 2.373521 1_555
Na16 O114 2.413385 1_555
Na16 O76 2.516208 1_555
Na16 O116 2.534625 1_555
Na16 O58 2.600229 1_545
Na16 O0 2.797764 1_555
Na17 O73 2.289000 1_545
Na17 O43 2.299742 1_555
Na17 O115 2.385389 1_555
Na17 O59 2.496346 1_545
Na17 O77 2.520749 1_555
Na17 O117 2.548933 1_555
Na17 O1 2.864786 1_555
Na18 O89 2.391056 1_545
Na18 O76 2.410932 1_655
Na18 O75 2.411646 1_545
Na18 O86 2.413734 1_655
Na18 O72 2.423918 1_645
Na18 O85 2.491818 1_555
Na19 O87 2.305478 1_565
Na19 O73 2.332343 1_555
Na19 O88 2.444662 1_555
Na19 O77 2.446918 1_565
Na19 O84 2.628979 1_565
Na19 O74 2.651317 1_555
Na20 O80 2.390079 1_655
Na20 O94 2.400894 1_666
Na20 O78 2.411428 1_665
Na20 O93 2.436355 1_566
Na20 O91 2.460427 1_556
Na20 O83 2.471643 1_555
Na21 O95 2.388961 1_565
Na21 O92 2.404429 1_565
Na21 O90 2.421428 1_555
Na21 O81 2.439028 1_554
Na21 O79 2.456849 1_564
Na21 O82 2.553873 1_554
Na22 O110 2.302368 1_555
Na22 O100 2.441208 1_555
Na22 O112 2.469166 1_555
Na22 O96 2.472910 1_555
Na22 O108 2.514852 1_555
Na22 O98 2.733650 1_555
Na23 O111 2.309198 1_555
Na23 O97 2.371593 1_555
Na23 O113 2.447862 1_555
Na23 O101 2.493410 1_555
Na23 O109 2.676435 1_555
Na23 O99 2.749193 1_555
Na24 O118 2.252417 1_555
Na24 O102 2.456037 1_555
Na24 O104 2.460991 1_555
Na24 O116 2.522581 1_555
Na24 O114 2.579583 1_555
Na24 O106 2.846208 1_555
Na25 O119 2.258441 1_555
Na25 O117 2.465052 1_555
Na25 O103 2.474542 1_555
Na25 O105 2.486384 1_555
Na25 O115 2.545574 1_555
Na25 O107 2.839479 1_555
Na26 O120 2.307954 1_555
Na26 O134 2.428230 1_555
Na26 O124 2.428532 1_555
Na26 O136 2.520330 1_555
Na26 O132 2.670802 1_555
Na26 O122 2.674616 1_555
Na27 O121 2.312390 1_555
Na27 O135 2.400293 1_555
Na27 O125 2.448741 1_555
Na27 O137 2.482213 1_555
Na27 O133 2.637222 1_555
Na27 O123 2.683256 1_555
Na28 O142 2.404038 1_555
Na28 O128 2.416826 1_555
Na28 O138 2.425258 1_555
Na28 O140 2.431291 1_555
Na28 O126 2.471367 1_555
Na28 O130 2.676395 1_555
Na29 O127 2.202723 1_555
Na29 O143 2.317239 1_555
Na29 O141 2.510652 1_555
Na29 O129 2.562061 1_555
Na29 O131 2.794558 1_555
Na29 O139 2.832524 1_555
Al0 O3 1.755833 1_555
Al0 O5 1.823306 1_565
Al0 O72 1.838559 1_655
Al0 O75 1.930567 1_555
Al0 O0 2.086560 1_665
Al0 O76 2.452410 1_665
Al1 O2 1.765905 1_555
Al1 O4 1.827254 1_565
Al1 O73 1.827865 1_555
Al1 O74 1.959263 1_555
Al1 O1 2.071839 1_565
Al1 O77 2.371369 1_565
Al2 O11 1.749417 1_565
Al2 O9 1.820839 1_555
Al2 O78 1.855914 1_665
Al2 O83 1.948636 1_555
Al2 O6 2.139834 1_665
Al2 O80 2.396304 1_655
Al3 O10 1.746668 1_555
Al3 O79 1.815319 1_555
Al3 O82 1.916134 1_545
Al3 O7 1.959059 1_555
Al3 O8 2.064202 1_545
Al3 O81 2.238023 1_545
Al4 O13 1.805766 1_555
Al4 O16 1.807110 1_655
Al4 O86 1.883977 1_665
Al4 O85 2.060917 1_565
Al4 O14 2.062253 1_665
Al4 O89 2.140942 1_555
Al5 O87 1.771623 1_565
Al5 O12 1.808921 1_555
Al5 O17 1.889621 1_555
Al5 O15 1.946269 1_565
Al5 O88 2.137407 1_555
Al5 O84 2.154301 1_565
Al6 O20 1.806279 1_555
Al6 O19 1.808377 1_445
Al6 O94 1.852763 1_555
Al6 O22 2.002213 1_545
Al6 O91 2.112529 1_445
Al6 O93 2.157019 1_455
Al7 O21 1.801123 1_555
Al7 O18 1.811097 1_545
Al7 O95 1.854777 1_555
Al7 O23 1.981888 1_545
Al7 O90 2.121881 1_545
Al7 O92 2.157684 1_555
Al8 O26 1.774931 1_555
Al8 O96 1.829706 1_555
Al8 O28 1.935831 1_555
Al8 O24 1.951147 1_555
Al8 O98 1.956742 1_555
Al8 O100 2.274682 1_555
Al9 O27 1.745995 1_555
Al9 O97 1.783559 1_555
Al9 O101 1.927356 1_555
Al9 O99 1.993380 1_555
Al9 O25 2.026001 1_555
Al9 O29 2.153153 1_555
Al10 O34 1.789253 1_555
Al10 O102 1.821189 1_555
Al10 O104 1.890857 1_555
Al10 O30 1.942197 1_555
Al10 O106 2.028577 1_555
Al10 O32 2.130601 1_555
Al11 O35 1.785838 1_555
Al11 O103 1.817015 1_555
Al11 O105 1.892848 1_555
Al11 O31 1.951259 1_555
Al11 O107 2.014551 1_555
Al11 O33 2.135864 1_555
Al12 O36 1.766350 1_556
Al12 O110 1.786138 1_555
Al12 O40 1.888385 1_556
Al12 O38 1.975938 1_556
Al12 O112 2.126027 1_555
Al12 O108 2.148159 1_555
Al13 O37 1.776452 1_556
Al13 O111 1.788161 1_555
Al13 O41 1.900226 1_556
Al13 O39 1.948818 1_556
Al13 O109 2.098517 1_555
Al13 O113 2.185427 1_555
Al14 O118 1.777623 1_555
Al14 O42 1.795175 1_555
Al14 O44 1.873093 1_555
Al14 O46 1.954184 1_555
Al14 O116 2.080373 1_555
Al14 O114 2.177269 1_555
Al15 O43 1.771232 1_555
Al15 O119 1.794532 1_555
Al15 O45 1.885834 1_555
Al15 O47 2.019781 1_555
Al15 O117 2.073202 1_555
Al15 O115 2.176912 1_555
Al16 O50 1.795754 1_554
Al16 O120 1.836150 1_555
Al16 O48 1.922163 1_554
Al16 O52 1.956441 1_554
Al16 O122 2.057140 1_555
Al16 O124 2.123755 1_555
Al17 O51 1.787088 1_554
Al17 O121 1.839403 1_555
Al17 O49 1.896784 1_554
Al17 O123 2.004622 1_555
Al17 O53 2.013920 1_554
Al17 O125 2.073201 1_555
Al18 O58 1.763240 1_555
Al18 O126 1.856799 1_555
Al18 O54 1.933023 1_555
Al18 O56 1.933298 1_555
Al18 O130 1.959369 1_555
Al18 O128 2.285103 1_555
Al19 O59 1.756984 1_555
Al19 O127 1.789611 1_555
Al19 O55 1.917954 1_555
Al19 O131 1.959122 1_555
Al19 O57 2.099970 1_555
Al19 O129 2.134289 1_555
Al20 O60 1.799053 1_555
Al20 O136 1.835160 1_555
Al20 O134 1.874425 1_555
Al20 O64 1.885519 1_555
Al20 O132 2.106445 1_555
Al20 O62 2.137524 1_555
Al21 O61 1.792150 1_555
Al21 O137 1.842589 1_555
Al21 O65 1.872348 1_555
Al21 O135 1.878902 1_555
Al21 O63 2.125614 1_555
Al21 O133 2.138092 1_555
Al22 O66 1.806699 1_555
Al22 O140 1.850337 1_555
Al22 O142 1.869765 1_555
Al22 O68 1.930296 1_555
Al22 O70 2.032046 1_555
Al22 O138 2.108329 1_555
Al23 O67 1.789224 1_555
Al23 O143 1.809469 1_555
Al23 O69 1.840327 1_555
Al23 O141 2.015914 1_555
Al23 O71 2.055420 1_555
Al23 O139 2.228710 1_555
O0 S0 1.477982 1_555
O1 S1 1.477680 1_555
O2 Si0 1.619295 1_555
O3 Si1 1.621384 1_555
O4 Si3 1.632831 1_555
O5 Si2 1.631147 1_555
O6 S2 1.489856 1_555
O7 S3 1.491138 1_555
O8 S4 1.473007 1_555
O9 Si4 1.634849 1_555
O10 Si5 1.622264 1_545
O11 Si6 1.629127 1_545
O12 Si5 1.639309 1_555
O13 Si6 1.634769 1_555
O14 S2 1.477632 1_555
O15 S3 1.477273 1_555
O16 Si4 1.642587 1_455
O17 S4 1.476226 1_555
O18 Si0 1.628515 1_555
O19 Si1 1.627423 1_555
O20 Si2 1.635478 1_455
O21 Si3 1.634787 1_555
O22 S0 1.478686 1_565
O23 S1 1.477131 1_565
O24 S5 1.504407 1_555
O25 S6 1.492354 1_555
O26 Si7 1.639678 1_555
O27 Si8 1.609753 1_555
O28 S7 1.486190 1_555
O29 S8 1.484550 1_555
O30 S9 1.497946 1_555
O31 S10 1.499905 1_555
O32 S11 1.486734 1_555
O33 S12 1.486774 1_555
O34 Si9 1.626284 1_555
O35 Si10 1.624735 1_555
O36 Si9 1.632503 1_555
O37 Si10 1.633404 1_555
O38 S9 1.474304 1_555
O39 S10 1.475942 1_555
O40 S11 1.485032 1_555
O41 S12 1.484666 1_555
O42 Si7 1.630693 1_555
O43 Si8 1.647832 1_555
O44 S7 1.470553 1_555
O45 S8 1.488151 1_555
O46 S5 1.478796 1_555
O47 S6 1.472057 1_555
O48 S13 1.485965 1_555
O49 S14 1.478163 1_555
O50 Si11 1.651081 1_555
O51 Si12 1.635192 1_555
O52 S15 1.475609 1_555
O53 S16 1.470559 1_555
O54 S17 1.495840 1_555
O55 S18 1.470001 1_555
O56 S19 1.479406 1_555
O57 S20 1.457313 1_555
O58 Si13 1.642711 1_555
O59 Si14 1.621873 1_555
O60 Si13 1.640608 1_555
O61 Si14 1.641109 1_555
O62 S17 1.480021 1_555
O63 S18 1.489896 1_555
O64 S19 1.487758 1_555
O65 S20 1.498394 1_555
O66 Si11 1.632809 1_555
O67 Si12 1.646618 1_555
O68 S15 1.484958 1_555
O69 S16 1.485969 1_555
O70 S13 1.469658 1_555
O71 S14 1.486784 1_555
O72 Si13 1.663646 1_555
O73 Si14 1.662200 1_555
O74 S17 1.478314 1_555
O75 S18 1.480858 1_555
O76 S19 1.470939 1_555
O77 S20 1.483045 1_555
O78 Si11 1.671503 1_555
O79 Si12 1.669734 1_555
O80 S15 1.479226 1_555
O81 S16 1.488576 1_555
O82 S13 1.484260 1_555
O83 S14 1.473438 1_555
O84 S5 1.485898 1_555
O85 S6 1.467946 1_555
O86 Si7 1.636570 1_555
O87 Si8 1.659779 1_555
O88 S7 1.490274 1_555
O89 S8 1.497675 1_555
O90 S9 1.464798 1_555
O91 S10 1.465328 1_555
O92 S11 1.489320 1_555
O93 S12 1.489741 1_555
O94 Si9 1.665239 1_555
O95 Si10 1.666322 1_555
O96 Si5 1.693099 1_545
O97 Si6 1.618147 1_545
O98 S2 1.493386 1_555
O99 S3 1.467024 1_555
O100 S4 1.489833 1_555
O101 Si4 1.654800 1_555
O102 Si0 1.639937 1_555
O103 Si1 1.638063 1_555
O104 Si3 1.656537 1_555
O105 Si2 1.654675 1_555
O106 S0 1.483487 1_555
O107 S1 1.483671 1_555
O108 S13 1.488742 1_555
O109 S14 1.489703 1_555
O110 Si12 1.628798 1_555
O111 Si11 1.638947 1_655
O112 S15 1.499219 1_545
O113 S16 1.489955 1_545
O114 S17 1.487429 1_545
O115 S18 1.489594 1_545
O116 S19 1.495919 1_555
O117 S20 1.504569 1_555
O118 Si14 1.633694 1_555
O119 Si13 1.628723 1_655
O120 Si9 1.677017 1_555
O121 Si10 1.677197 1_555
O122 S10 1.493149 1_455
O123 S9 1.495042 1_555
O124 S11 1.476834 1_565
O125 S12 1.477311 1_565
O126 Si7 1.699129 1_565
O127 Si8 1.645279 1_565
O128 S7 1.486256 1_555
O129 S8 1.468145 1_555
O130 S6 1.507281 1_455
O131 S5 1.461670 1_555
O132 S0 1.487825 1_565
O133 S1 1.486306 1_565
O134 Si0 1.654360 1_555
O135 Si1 1.650436 1_555
O136 Si2 1.646206 1_455
O137 Si3 1.644365 1_555
O138 S2 1.475943 1_555
O139 S3 1.491900 1_555
O140 Si4 1.648655 1_455
O141 S4 1.504457 1_555
O142 Si5 1.626739 1_555
O143 Si6 1.662840 1_555
