# generated using pymatgen
data_U3Te4
_symmetry_space_group_name_H-M   'P 1'
_cell_length_a   8.21640781
_cell_length_b   8.21663129
_cell_length_c   8.20819382
_cell_angle_alpha   109.44503841
_cell_angle_beta   109.45366941
_cell_angle_gamma   109.49524908
_symmetry_Int_Tables_number   1
_chemical_formula_structural   U3Te4
_chemical_formula_sum   'U6 Te8'
_cell_volume   426.68462666
_cell_formula_units_Z   2
loop_
 _symmetry_equiv_pos_site_id
 _symmetry_equiv_pos_as_xyz
  1  'x, y, z'
loop_
 _atom_site_type_symbol
 _atom_site_label
 _atom_site_symmetry_multiplicity
 _atom_site_fract_x
 _atom_site_fract_y
 _atom_site_fract_z
 _atom_site_occupancy
  U  U0  1  0.75052907  0.87410537  0.12464233  1
  U  U1  1  0.62579280  0.37648963  0.25056221  1
  U  U2  1  0.87643828  0.12578090  0.75049886  1
  U  U3  1  0.12356172  0.74934262  0.87406058  1
  U  U4  1  0.37420720  0.25069683  0.62476941  1
  U  U5  1  0.24947093  0.62357630  0.37411326  1
  Te  Te0  1  0.65131474  0.65158282  0.65139599  1
  Te  Te1  1  0.34868526  0.50026808  0.00008124  1
  Te  Te2  1  0.50000556  -0.00001299  0.34922277  1
  Te  Te3  1  -0.00017575  0.34847116  0.50003081  1
  Te  Te4  1  0.49999444  -0.00001855  0.84921721  1
  Te  Te5  1  0.00017575  0.84864791  0.50020655  1
  Te  Te6  1  0.15161537  0.15134164  0.15140657  1
  Te  Te7  1  0.84838463  0.49972627  -0.00020880  1
loop_
_geom_bond_atom_site_label_1
_geom_bond_atom_site_label_2
_geom_bond_distance
_geom_bond_site_symmetry_2
Te0 U1 3.201660 1_555
Te0 U4 3.203933 1_555
Te0 U5 3.205170 1_555
Te0 U3 3.355576 1_655
Te0 U0 3.356189 1_556
Te0 U2 3.367713 1_565
Te1 U4 3.201660 1_554
Te1 U1 3.203933 1_555
Te1 U0 3.205171 1_555
Te1 U2 3.355576 1_454
Te1 U5 3.356189 1_555
Te1 U3 3.367713 1_554
Te2 U5 3.208762 1_545
Te2 U2 3.208926 1_555
Te2 U4 3.209924 1_555
Te2 U0 3.374019 1_545
Te2 U3 3.374150 1_544
Te2 U1 3.374270 1_555
Te3 U5 3.202832 1_555
Te3 U3 3.203331 1_555
Te3 U1 3.207021 1_455
Te3 U4 3.354888 1_555
Te3 U2 3.355185 1_455
Te3 U0 3.369397 1_445
Te4 U0 3.208762 1_546
Te4 U3 3.208926 1_545
Te4 U1 3.209924 1_556
Te4 U5 3.374018 1_545
Te4 U2 3.374151 1_555
Te4 U4 3.374270 1_555
Te5 U0 3.202827 1_455
Te5 U2 3.203326 1_465
Te5 U4 3.207017 1_565
Te5 U1 3.354894 1_455
Te5 U3 3.355191 1_555
Te5 U5 3.369403 1_555
Te6 U2 3.201877 1_454
Te6 U0 3.204928 1_445
Te6 U3 3.206515 1_544
Te6 U5 3.355594 1_555
Te6 U4 3.356536 1_555
Te6 U1 3.367276 1_555
Te7 U3 3.201878 1_654
Te7 U5 3.204927 1_655
Te7 U2 3.206515 1_554
Te7 U0 3.355594 1_555
Te7 U1 3.356537 1_555
Te7 U4 3.367275 1_554
