# generated using pymatgen
data_NaMgFe5O8
_symmetry_space_group_name_H-M   'P 1'
_cell_length_a   6.35613624
_cell_length_b   6.20447968
_cell_length_c   6.19871041
_cell_angle_alpha   61.65553853
_cell_angle_beta   90.37570375
_cell_angle_gamma   120.87259289
_symmetry_Int_Tables_number   1
_chemical_formula_structural   NaMgFe5O8
_chemical_formula_sum   'Na1 Mg1 Fe5 O8'
_cell_volume   175.33462535
_cell_formula_units_Z   1
loop_
 _symmetry_equiv_pos_site_id
 _symmetry_equiv_pos_as_xyz
  1  'x, y, z'
loop_
 _atom_site_type_symbol
 _atom_site_label
 _atom_site_symmetry_multiplicity
 _atom_site_fract_x
 _atom_site_fract_y
 _atom_site_fract_z
 _atom_site_occupancy
  Na  Na0  1  0.69651393  0.77980063  0.69651393  1
  Mg  Mg0  1  0.46077938  0.52217140  0.46077938  1
  Fe  Fe0  1  0.58536962  0.22824942  0.16754762  1
  Fe  Fe1  1  0.04064141  0.97790757  0.04064141  1
  Fe  Fe2  1  0.68233024  0.22671329  0.68233024  1
  Fe  Fe3  1  0.14705312  0.53020689  0.14705311  1
  Fe  Fe4  1  0.16754762  0.81042742  0.58536962  1
  O  O0  1  0.80607033  0.22516092  0.39879889  1
  O  O1  1  0.33234007  0.25791711  0.33234007  1
  O  O2  1  0.89984138  0.21985639  0.89984138  1
  O  O3  1  0.84614675  0.69559396  0.41942818  1
  O  O4  1  0.92959648  0.70591992  0.92959748  1
  O  O5  1  0.41942717  0.26887438  0.84614775  1
  O  O6  1  0.33754262  0.77497723  0.33754161  1
  O  O7  1  0.39879989  0.81789048  0.80606933  1
loop_
_geom_bond_atom_site_label_1
_geom_bond_atom_site_label_2
_geom_bond_distance
_geom_bond_site_symmetry_2
Na0 O4 2.128961 1_555
Na0 O0 2.173951 1_565
Na0 O7 2.173952 1_555
Na0 O5 2.347559 1_555
Na0 O3 2.347562 1_555
Mg0 O6 1.942349 1_555
Mg0 O1 1.961073 1_555
Mg0 O3 2.065139 1_555
Mg0 O5 2.065143 1_555
Fe0 O0 1.999541 1_555
Fe0 O6 2.040172 1_545
Fe0 O1 2.041531 1_555
Fe0 O5 2.216666 1_554
Fe0 O4 2.232259 1_554
Fe0 O2 2.642746 1_554
Fe1 O4 1.921978 1_454
Fe1 O2 1.985092 1_464
Fe1 O5 2.004993 1_564
Fe1 O3 2.005000 1_455
Fe2 O2 1.926793 1_555
Fe2 O7 1.936371 1_545
Fe2 O0 1.936381 1_555
Fe2 O3 2.148261 1_555
Fe2 O5 2.148271 1_555
Fe3 O0 1.935145 1_455
Fe3 O7 1.935152 1_554
Fe3 O6 2.227897 1_555
Fe3 O4 2.245564 1_454
Fe3 O1 2.396240 1_555
Fe4 O7 1.999541 1_555
Fe4 O6 2.040183 1_555
Fe4 O1 2.041526 1_565
Fe4 O3 2.216667 1_455
Fe4 O4 2.232271 1_455
Fe4 O2 2.642739 1_455
