# generated using pymatgen
data_MgAl2(CuO2)4
_symmetry_space_group_name_H-M   'P 1'
_cell_length_a   5.87867970
_cell_length_b   6.51259769
_cell_length_c   5.87867310
_cell_angle_alpha   57.73560073
_cell_angle_beta   61.15953014
_cell_angle_gamma   57.73562857
_symmetry_Int_Tables_number   1
_chemical_formula_structural   MgAl2(CuO2)4
_chemical_formula_sum   'Mg1 Al2 Cu4 O8'
_cell_volume   154.67562512
_cell_formula_units_Z   1
loop_
 _symmetry_equiv_pos_site_id
 _symmetry_equiv_pos_as_xyz
  1  'x, y, z'
loop_
 _atom_site_type_symbol
 _atom_site_label
 _atom_site_symmetry_multiplicity
 _atom_site_fract_x
 _atom_site_fract_y
 _atom_site_fract_z
 _atom_site_occupancy
  Mg  Mg0  1  0.50000000  -0.00000000  0.50000000  1
  Al  Al0  1  0.64973598  0.53325004  0.64973598  1
  Al  Al1  1  0.35026402  0.46674996  0.35026402  1
  Cu  Cu0  1  -0.00000000  0.50000000  0.00000000  1
  Cu  Cu1  1  -0.00000000  -0.00000000  0.00000000  1
  Cu  Cu2  1  0.50000000  -0.00000000  0.00000000  1
  Cu  Cu3  1  -0.00000000  -0.00000000  0.50000000  1
  O  O0  1  0.27500374  0.74747099  0.72266709  1
  O  O1  1  0.27733291  0.25252901  0.72499626  1
  O  O2  1  0.23550429  0.81061059  0.23550329  1
  O  O3  1  0.24502851  0.32444560  0.24502751  1
  O  O4  1  0.72266709  0.74747099  0.27500374  1
  O  O5  1  0.72499626  0.25252901  0.27733291  1
  O  O6  1  0.76449571  0.18938941  0.76449671  1
  O  O7  1  0.75497149  0.67555440  0.75497249  1
loop_
_geom_bond_atom_site_label_1
_geom_bond_atom_site_label_2
_geom_bond_distance
_geom_bond_site_symmetry_2
Mg0 O3 2.088719 1_555
Mg0 O7 2.088719 1_545
Mg0 O1 2.126362 1_555
Mg0 O4 2.126362 1_545
Mg0 O0 2.126362 1_545
Mg0 O5 2.126362 1_555
Al0 O6 1.771543 1_555
Al0 O7 1.793839 1_555
Al0 O4 1.851819 1_555
Al0 O0 1.851822 1_555
Al1 O2 1.771543 1_555
Al1 O3 1.793839 1_555
Al1 O1 1.851819 1_555
Al1 O5 1.851822 1_555
Cu0 O3 1.985456 1_555
Cu0 O7 1.985456 1_454
Cu0 O4 2.302776 1_455
Cu0 O1 2.302776 1_554
Cu0 O0 2.302776 1_554
Cu0 O5 2.302776 1_455
Cu1 O2 1.886158 1_545
Cu1 O6 1.886158 1_454
Cu1 O5 2.336160 1_455
Cu1 O0 2.336160 1_544
Cu1 O1 2.336161 1_554
Cu1 O4 2.336161 1_445
Cu2 O4 1.984008 1_545
Cu2 O1 1.984008 1_554
Cu2 O2 2.000839 1_545
Cu2 O6 2.000839 1_554
Cu2 O7 2.563479 1_544
Cu2 O3 2.563479 1_555
Cu3 O0 1.984009 1_545
Cu3 O5 1.984009 1_455
Cu3 O6 2.000843 1_455
Cu3 O2 2.000843 1_545
Cu3 O3 2.563482 1_555
Cu3 O7 2.563482 1_445
