# generated using pymatgen
data_Sr2MgZnMoO6
_symmetry_space_group_name_H-M   'P 1'
_cell_length_a   5.96842585
_cell_length_b   5.96842624
_cell_length_c   6.37697022
_cell_angle_alpha   62.09757256
_cell_angle_beta   62.09756993
_cell_angle_gamma   59.99999662
_symmetry_Int_Tables_number   1
_chemical_formula_structural   Sr2MgZnMoO6
_chemical_formula_sum   'Sr2 Mg1 Zn1 Mo1 O6'
_cell_volume   165.53277005
_cell_formula_units_Z   1
loop_
 _symmetry_equiv_pos_site_id
 _symmetry_equiv_pos_as_xyz
  1  'x, y, z'
loop_
 _atom_site_type_symbol
 _atom_site_label
 _atom_site_symmetry_multiplicity
 _atom_site_fract_x
 _atom_site_fract_y
 _atom_site_fract_z
 _atom_site_occupancy
  Sr  Sr0  1  0.21880044  0.21880044  0.34360169  1
  Sr  Sr1  1  0.80703778  0.80703678  0.57888867  1
  Mg  Mg0  1  0.58519074  0.58519074  0.24442678  1
  Zn  Zn0  1  0.41541138  0.41541038  0.75376686  1
  Mo  Mo0  1  0.01222346  0.01222346  0.96332962  1
  O  O0  1  0.25264069  0.79051119  0.70420642  1
  O  O1  1  0.23928187  0.77860788  0.20350237  1
  O  O2  1  0.79051119  0.25264169  0.70420642  1
  O  O3  1  0.25263969  0.25264169  0.70420842  1
  O  O4  1  0.77860788  0.23928287  0.20350237  1
  O  O5  1  0.77860788  0.77860788  0.20350237  1
loop_
_geom_bond_atom_site_label_1
_geom_bond_atom_site_label_2
_geom_bond_distance
_geom_bond_site_symmetry_2
Sr0 Zn0 3.164930 1_554
Mg0 O4 1.871370 1_555
Mg0 O1 1.871375 1_555
Mg0 O5 1.871380 1_555
Mo0 O5 2.044677 1_446
Mo0 O1 2.044677 1_546
Mo0 O4 2.044681 1_456
Mo0 O3 2.114015 1_555
Mo0 O0 2.114021 1_545
Mo0 O2 2.114021 1_455
O0 Zn0 1.872416 1_555
O0 Sr0 2.505960 1_565
O0 Sr1 3.061810 1_455
O0 Sr1 3.061822 1_555
O1 Sr1 2.564582 1_455
O1 Sr0 3.080415 1_555
O1 Sr0 3.080433 1_565
O2 Zn0 1.872410 1_555
O2 Sr0 2.505960 1_655
O2 Sr1 3.061813 1_555
O2 Sr1 3.061819 1_545
O3 Zn0 1.872407 1_555
O3 Sr0 2.505960 1_555
O3 Sr1 3.061809 1_455
O3 Sr1 3.061827 1_545
O4 Sr1 2.564589 1_545
O4 Sr0 3.080418 1_555
O4 Sr0 3.080429 1_655
O5 Sr1 2.564586 1_555
O5 Sr0 3.080423 1_565
O5 Sr0 3.080423 1_655
