# generated using pymatgen
data_Rb2Zn3O4
_symmetry_space_group_name_H-M   'P 1'
_cell_length_a   5.75452436
_cell_length_b   6.48996582
_cell_length_c   8.27332273
_cell_angle_alpha   113.09285004
_cell_angle_beta   100.54828040
_cell_angle_gamma   89.99999378
_symmetry_Int_Tables_number   1
_chemical_formula_structural   Rb2Zn3O4
_chemical_formula_sum   'Rb4 Zn6 O8'
_cell_volume   278.53730698
_cell_formula_units_Z   2
loop_
 _symmetry_equiv_pos_site_id
 _symmetry_equiv_pos_as_xyz
  1  'x, y, z'
loop_
 _atom_site_type_symbol
 _atom_site_label
 _atom_site_symmetry_multiplicity
 _atom_site_fract_x
 _atom_site_fract_y
 _atom_site_fract_z
 _atom_site_occupancy
  Rb  Rb0  1  0.00246407  0.01655557  0.76872806  1
  Rb  Rb1  1  0.49753593  0.24782651  0.23127194  1
  Rb  Rb2  1  0.99753593  0.98344443  0.23127194  1
  Rb  Rb3  1  0.50246407  0.75217349  0.76872806  1
  Zn  Zn0  1  0.91140650  0.42072781  0.61115954  1
  Zn  Zn1  1  0.58859350  0.80957027  0.38884046  1
  Zn  Zn2  1  0.75000000  0.48284758  -0.00000000  1
  Zn  Zn3  1  0.25000000  0.51715242  0.00000000  1
  Zn  Zn4  1  0.08859350  0.57927219  0.38884046  1
  Zn  Zn5  1  0.41140650  0.19042973  0.61115954  1
  O  O0  1  0.78923189  0.62023060  0.48052464  1
  O  O1  1  0.71076811  0.13970696  0.51947536  1
  O  O2  1  0.21076811  0.37976940  0.51947536  1
  O  O3  1  0.28923189  0.86029304  0.48052464  1
  O  O4  1  0.54118690  0.72272569  0.12764189  1
  O  O5  1  0.95881310  0.59508280  0.87235811  1
  O  O6  1  0.04118590  0.40491720  0.12764189  1
  O  O7  1  0.45881410  0.27727431  0.87235811  1
loop_
_geom_bond_atom_site_label_1
_geom_bond_atom_site_label_2
_geom_bond_distance
_geom_bond_site_symmetry_2
O0 Zn1 1.956762 1_555
O0 Zn4 1.983412 1_655
O0 Zn0 2.039197 1_555
O0 Rb1 2.781082 1_555
O0 Rb0 2.815082 1_665
O0 Rb3 2.996797 1_555
O1 Zn0 1.956747 1_555
O1 Zn5 1.983412 1_555
O1 Zn1 2.039192 1_545
O1 Rb0 2.781081 1_655
O1 Rb1 2.815074 1_555
O1 Rb2 2.996797 1_545
O2 Zn5 1.956762 1_555
O2 Zn0 1.983412 1_455
O2 Zn4 2.039197 1_555
O2 Rb3 2.781082 1_555
O2 Rb2 2.815082 1_445
O2 Rb1 2.996797 1_555
O3 Zn4 1.956747 1_555
O3 Zn1 1.983412 1_555
O3 Zn5 2.039192 1_565
O3 Rb2 2.781081 1_455
O3 Rb3 2.815074 1_555
O3 Rb0 2.996797 1_565
O4 Zn1 1.972474 1_555
O4 Zn3 1.987429 1_555
O4 Zn2 2.039033 1_555
O4 Rb2 2.920966 1_555
O4 Rb3 3.017696 1_554
O4 Rb1 3.193543 1_565
O5 Zn0 1.972475 1_555
O5 Zn3 1.987426 1_656
O5 Zn2 2.039030 1_556
O5 Rb3 2.920971 1_555
O5 Rb2 3.017696 1_556
O5 Rb0 3.193556 1_665
O6 Zn4 1.972475 1_555
O6 Zn2 1.987421 1_455
O6 Zn3 2.039033 1_555
O6 Rb1 2.920976 1_555
O6 Rb0 3.017697 1_554
O6 Rb2 3.193555 1_445
O7 Zn5 1.972474 1_555
O7 Zn2 1.987425 1_556
O7 Zn3 2.039037 1_556
O7 Rb0 2.920971 1_555
O7 Rb1 3.017696 1_556
O7 Rb3 3.193543 1_545
