# generated using pymatgen
data_MnMoO4
_symmetry_space_group_name_H-M   'P 1'
_cell_length_a   4.79508831
_cell_length_b   5.03434051
_cell_length_c   5.80839954
_cell_angle_alpha   89.96642459
_cell_angle_beta   89.96433887
_cell_angle_gamma   90.55945115
_symmetry_Int_Tables_number   1
_chemical_formula_structural   MnMoO4
_chemical_formula_sum   'Mn2 Mo2 O8'
_cell_volume   140.20865247
_cell_formula_units_Z   2
loop_
 _symmetry_equiv_pos_site_id
 _symmetry_equiv_pos_as_xyz
  1  'x, y, z'
loop_
 _atom_site_type_symbol
 _atom_site_label
 _atom_site_symmetry_multiplicity
 _atom_site_fract_x
 _atom_site_fract_y
 _atom_site_fract_z
 _atom_site_occupancy
  Mn  Mn0  1  0.00010500  0.25010900  0.17771100  1
  Mn  Mn1  1  0.00119800  0.74937300  0.83413600  1
  Mo  Mo0  1  0.50031500  0.74994000  0.32032400  1
  Mo  Mo1  1  0.49983100  0.24951700  0.68086600  1
  O  O0  1  0.71008800  0.43802700  0.39415000  1
  O  O1  1  0.29007400  0.06211000  0.39415200  1
  O  O2  1  0.28110100  0.56267600  0.60715000  1
  O  O3  1  0.71832100  0.93731700  0.60803400  1
  O  O4  1  0.75609300  0.40435600  0.87037200  1
  O  O5  1  0.24279700  0.09655600  0.87146700  1
  O  O6  1  0.24504900  0.60724800  0.12111700  1
  O  O7  1  0.75502700  0.89276900  0.12052100  1
loop_
_geom_bond_atom_site_label_1
_geom_bond_atom_site_label_2
_geom_bond_distance
_geom_bond_site_symmetry_2
Mn0 O0 2.105777 1_455
Mn0 O1 2.106188 1_555
Mn0 O6 2.162827 1_555
Mn0 O7 2.165080 1_445
Mn0 O5 2.265511 1_554
Mn0 O4 2.275414 1_454
Mn1 O4 2.098086 1_455
Mn1 O5 2.098872 1_565
Mn1 O2 2.108774 1_555
Mn1 O3 2.117942 1_455
Mn1 O6 2.162199 1_556
Mn1 O7 2.167291 1_456
Mo0 O7 1.826395 1_555
Mo0 O6 1.827200 1_555
Mo0 O0 1.921467 1_555
Mo0 O1 1.923857 1_565
Mo0 O2 2.178504 1_555
Mo0 O3 2.181761 1_555
Mo1 O4 1.820211 1_555
Mo1 O5 1.821114 1_555
Mo1 O3 1.944038 1_545
Mo1 O2 1.949600 1_555
Mo1 O1 2.158833 1_555
Mo1 O0 2.160536 1_555
