# generated using pymatgen
data_MgNbCu3S4
_symmetry_space_group_name_H-M   'P 1'
_cell_length_a   5.68537334
_cell_length_b   5.68537334
_cell_length_c   5.68537334
_cell_angle_alpha   88.83747562
_cell_angle_beta   91.16252438
_cell_angle_gamma   91.16252438
_symmetry_Int_Tables_number   1
_chemical_formula_structural   MgNbCu3S4
_chemical_formula_sum   'Mg1 Nb1 Cu3 S4'
_cell_volume   183.65902909
_cell_formula_units_Z   1
loop_
 _symmetry_equiv_pos_site_id
 _symmetry_equiv_pos_as_xyz
  1  'x, y, z'
loop_
 _atom_site_type_symbol
 _atom_site_label
 _atom_site_symmetry_multiplicity
 _atom_site_fract_x
 _atom_site_fract_y
 _atom_site_fract_z
 _atom_site_occupancy
  Mg  Mg0  1  0.68608400  0.31391600  0.31391600  1
  Nb  Nb0  1  0.98539900  0.01460100  0.01460100  1
  Cu  Cu0  1  0.00012800  0.99987200  0.51772000  1
  Cu  Cu1  1  0.00012800  0.51772000  0.99987200  1
  Cu  Cu2  1  0.48228000  0.99987200  0.99987200  1
  S  S0  1  0.76075100  0.74013700  0.23924900  1
  S  S1  1  0.76075100  0.23924900  0.74013700  1
  S  S2  1  0.23128200  0.76871800  0.76871800  1
  S  S3  1  0.25986300  0.23924900  0.23924900  1
loop_
_geom_bond_atom_site_label_1
_geom_bond_atom_site_label_2
_geom_bond_distance
_geom_bond_site_symmetry_2
Mg0 S3 2.481183 1_555
Mg0 S0 2.481183 1_555
Mg0 S1 2.481183 1_555
Nb0 S1 2.366836 1_554
Nb0 S0 2.366836 1_545
Nb0 S3 2.366836 1_655
Nb0 S2 2.469933 1_644
Cu0 S2 2.325616 1_555
Cu0 S1 2.349084 1_465
Cu0 S3 2.542684 1_565
Cu0 S0 2.542684 1_455
Cu0 Mg0 2.771239 1_465
Cu0 Nb0 2.830878 1_466
Cu0 Nb0 2.859523 1_465
Cu1 S2 2.325616 1_555
Cu1 S0 2.349084 1_456
Cu1 S3 2.542684 1_556
Cu1 S1 2.542684 1_455
Cu1 Mg0 2.771239 1_456
Cu1 Nb0 2.830878 1_466
Cu1 Nb0 2.859523 1_456
Cu2 S2 2.325616 1_555
Cu2 S3 2.349084 1_566
Cu2 S1 2.542684 1_565
Cu2 S0 2.542684 1_556
Cu2 Mg0 2.771239 1_566
Cu2 Nb0 2.830878 1_466
Cu2 Nb0 2.859523 1_566
