# generated using pymatgen
data_Na14Mg5Ti3(PO4)12
_symmetry_space_group_name_H-M   'P 1'
_cell_length_a   17.85706196
_cell_length_b   8.93053063
_cell_length_c   22.02105773
_cell_angle_alpha   90.05988145
_cell_angle_beta   89.91895575
_cell_angle_gamma   120.00714017
_symmetry_Int_Tables_number   1
_chemical_formula_structural   Na14Mg5Ti3(PO4)12
_chemical_formula_sum   'Na42 Mg15 Ti9 P36 O144'
_cell_volume   3041.05558330
_cell_formula_units_Z   3
loop_
 _symmetry_equiv_pos_site_id
 _symmetry_equiv_pos_as_xyz
  1  'x, y, z'
loop_
 _atom_site_type_symbol
 _atom_site_label
 _atom_site_symmetry_multiplicity
 _atom_site_fract_x
 _atom_site_fract_y
 _atom_site_fract_z
 _atom_site_occupancy
  Na  Na0  1  0.18405786  0.36223303  0.24760887  1
  Na  Na1  1  0.68441384  0.36282773  0.24783331  1
  Na  Na2  1  0.99584529  0.63019202  0.24819697  1
  Na  Na3  1  0.49599146  0.62976607  0.24739593  1
  Na  Na4  1  0.31851697  0.63097130  0.74771773  1
  Na  Na5  1  0.81916953  0.63213153  0.74818732  1
  Na  Na6  1  0.18450158  0.00872233  0.74763302  1
  Na  Na7  1  0.68490233  0.00801957  0.74761934  1
  Na  Na8  1  0.15460944  0.34003241  0.58073906  1
  Na  Na9  1  0.65490982  0.34064343  0.58067426  1
  Na  Na10  1  0.01498909  0.68981576  0.58128304  1
  Na  Na11  1  0.51493926  0.68930785  0.58115416  1
  Na  Na12  1  0.32957483  0.96948413  0.58082721  1
  Na  Na13  1  0.82978702  0.96927892  0.58099500  1
  Na  Na14  1  0.15426889  0.96982420  0.08058604  1
  Na  Na15  1  0.65312366  0.96601337  0.08220083  1
  Na  Na16  1  0.32946266  0.68900370  0.08045472  1
  Na  Na17  1  0.01797796  0.34245673  0.08231293  1
  Na  Na18  1  0.51591178  0.34105687  0.08012515  1
  Na  Na19  1  0.48262596  0.66890242  0.91772967  1
  Na  Na20  1  0.98516422  0.67444666  0.91479826  1
  Na  Na21  1  0.35168300  0.03553955  0.91733568  1
  Na  Na22  1  0.16606431  0.29444969  0.91766222  1
  Na  Na23  1  0.66453647  0.30018485  0.91517965  1
  Na  Na24  1  0.48236550  0.29684611  0.41763085  1
  Na  Na25  1  0.98239064  0.29678695  0.41757675  1
  Na  Na26  1  0.16587444  0.03618534  0.41798646  1
  Na  Na27  1  0.66593193  0.03620442  0.41801635  1
  Na  Na28  1  0.35181269  0.66690207  0.41795055  1
  Na  Na29  1  0.85188720  0.66700756  0.41793576  1
  Na  Na30  1  0.00013208  0.00020631  0.49744534  1
  Na  Na31  1  0.50004069  0.00025278  0.49725704  1
  Na  Na32  1  0.98985802  0.99164754  0.99640822  1
  Na  Na33  1  0.49941308  0.99941356  0.99714185  1
  Na  Na34  1  0.33866960  0.33401319  0.83105297  1
  Na  Na35  1  0.83988325  0.32572659  0.82976844  1
  Na  Na36  1  0.33283823  0.32221274  0.33114103  1
  Na  Na37  1  0.83311139  0.32239163  0.33135614  1
  Na  Na38  1  0.17137620  0.67659362  0.16525352  1
  Na  Na39  1  0.67612575  0.67685475  0.16304111  1
  Na  Na40  1  0.16152096  0.65774411  0.66494438  1
  Na  Na41  1  0.66177893  0.65806195  0.66514316  1
  Mg  Mg0  1  0.99954879  0.00083540  0.35000808  1
  Mg  Mg1  1  0.49967259  0.00088135  0.35007821  1
  Mg  Mg2  1  0.99695322  0.00109300  0.85150503  1
  Mg  Mg3  1  0.49989287  0.00091460  0.85007032  1
  Mg  Mg4  1  0.33627720  0.33397334  0.68406069  1
  Mg  Mg5  1  0.83638869  0.33424504  0.68389439  1
  Mg  Mg6  1  0.33277030  0.32717335  0.18391827  1
  Mg  Mg7  1  0.83292548  0.32873447  0.18499480  1
  Mg  Mg8  1  0.33321573  0.33269964  0.98344309  1
  Mg  Mg9  1  0.33370250  0.33343157  0.48354040  1
  Mg  Mg10  1  0.83374577  0.33355108  0.48353956  1
  Mg  Mg11  1  0.16670803  0.66695098  0.01745738  1
  Mg  Mg12  1  0.67015627  0.66786467  0.01818479  1
  Mg  Mg13  1  0.16652629  0.66653327  0.51764239  1
  Mg  Mg14  1  0.66661847  0.66651588  0.51765801  1
  Ti  Ti0  1  0.99952804  0.00247222  0.65043958  1
  Ti  Ti1  1  0.50011963  0.00245073  0.65040243  1
  Ti  Ti2  1  0.99622693  0.99528530  0.14906337  1
  Ti  Ti3  1  0.49895623  0.99910318  0.14999807  1
  Ti  Ti4  1  0.83365638  0.32896786  0.98226614  1
  Ti  Ti5  1  0.16889501  0.67187152  0.31504959  1
  Ti  Ti6  1  0.66901500  0.67227266  0.31502890  1
  Ti  Ti7  1  0.16291856  0.66113772  0.81532317  1
  Ti  Ti8  1  0.66641593  0.66437538  0.81574744  1
  P  P0  1  0.14647967  0.99969985  0.25110709  1
  P  P1  1  0.64724601  0.00018092  0.25182596  1
  P  P2  1  0.35300733  0.70839178  0.25177800  1
  P  P3  1  0.85307583  0.70907594  0.25205600  1
  P  P4  1  0.99888333  0.29193616  0.25180693  1
  P  P5  1  0.49927008  0.29307466  0.25196019  1
  P  P6  1  0.14536324  0.29332173  0.75230606  1
  P  P7  1  0.64602895  0.29502080  0.75191087  1
  P  P8  1  -0.00002239  0.70621076  0.75201986  1
  P  P9  1  0.50024364  0.70566765  0.75207335  1
  P  P10  1  0.35320203  0.00149215  0.75247087  1
  P  P11  1  0.85377902  0.00219814  0.75166717  1
  P  P12  1  0.48028778  0.33170447  0.58340656  1
  P  P13  1  0.98038160  0.33182087  0.58327411  1
  P  P14  1  0.18490360  0.03877108  0.58454551  1
  P  P15  1  0.68494577  0.03879344  0.58446987  1
  P  P16  1  0.33419021  0.62971739  0.58469571  1
  P  P17  1  0.83421133  0.62974554  0.58461935  1
  P  P18  1  0.48076843  0.62953317  0.08456632  1
  P  P19  1  0.97795421  0.62703439  0.08464857  1
  P  P20  1  0.33420015  0.03939557  0.08344783  1
  P  P21  1  0.83308695  0.04061389  0.08498156  1
  P  P22  1  0.18457843  0.33054245  0.08479263  1
  P  P23  1  0.68788063  0.33561318  0.08549514  1
  P  P24  1  0.31282101  0.66710410  0.91698538  1
  P  P25  1  0.81327760  0.66782953  0.91785582  1
  P  P26  1  0.01982534  0.37233533  0.91903833  1
  P  P27  1  0.52087893  0.37450632  0.91819808  1
  P  P28  1  0.16631870  0.95908076  0.91706171  1
  P  P29  1  0.66821779  0.95909284  0.91825952  1
  P  P30  1  0.31336357  0.95865242  0.41804955  1
  P  P31  1  0.81339583  0.95874240  0.41808910  1
  P  P32  1  0.16636621  0.37419614  0.41697315  1
  P  P33  1  0.66637254  0.37421606  0.41694214  1
  P  P34  1  0.02076133  0.66770995  0.41698564  1
  P  P35  1  0.52077026  0.66764063  0.41695790  1
  O  O0  1  0.10491585  0.02555168  0.30761317  1
  O  O1  1  0.60518968  0.02577752  0.30802309  1
  O  O2  1  0.40842759  0.78936063  0.30772548  1
  O  O3  1  0.90783446  0.78760417  0.30850706  1
  O  O4  1  0.48934341  0.18894482  0.30862507  1
  O  O5  1  0.98916078  0.18911465  0.30878875  1
  O  O6  1  0.10507802  0.18207861  0.80804792  1
  O  O7  1  0.60559041  0.18406060  0.80788999  1
  O  O8  1  0.48724960  0.78930647  0.80842649  1
  O  O9  1  0.98787491  0.79026301  0.80831342  1
  O  O10  1  0.40525935  0.02120827  0.80907099  1
  O  O11  1  0.90872955  0.02268979  0.80638792  1
  O  O12  1  0.39911780  0.97158922  0.69532733  1
  O  O13  1  0.89760390  0.97058893  0.69329613  1
  O  O14  1  0.08748736  0.20219688  0.69445773  1
  O  O15  1  0.58790165  0.20263238  0.69436018  1
  O  O16  1  0.01557929  0.82818016  0.69490983  1
  O  O17  1  0.51558477  0.82839223  0.69507784  1
  O  O18  1  0.39940071  0.82517288  0.19416636  1
  O  O19  1  0.90126163  0.82993825  0.19575868  1
  O  O20  1  0.01343677  0.20006913  0.19464563  1
  O  O21  1  0.51452727  0.20103277  0.19471551  1
  O  O22  1  0.08501324  0.96741729  0.19397426  1
  O  O23  1  0.58618311  0.96994173  0.19469752  1
  O  O24  1  0.43713874  0.36296138  0.63729290  1
  O  O25  1  0.93724894  0.36309113  0.63723080  1
  O  O26  1  0.24030590  0.12150896  0.64099740  1
  O  O27  1  0.74024559  0.12179393  0.64092608  1
  O  O28  1  0.31952419  0.51837762  0.64102656  1
  O  O29  1  0.81945681  0.51831678  0.64099997  1
  O  O30  1  0.43895300  0.51934798  0.14104085  1
  O  O31  1  0.93796666  0.51633287  0.14081819  1
  O  O32  1  0.31869381  0.12543656  0.13743502  1
  O  O33  1  0.81894461  0.12643276  0.13926336  1
  O  O34  1  0.24064483  0.36130521  0.14104494  1
  O  O35  1  0.73954262  0.35512868  0.14226045  1
  O  O36  1  0.22197438  0.29307844  0.02715749  1
  O  O37  1  0.73256905  0.30296575  0.02791753  1
  O  O38  1  0.42458974  0.55609459  0.02695549  1
  O  O39  1  0.92043156  0.53487749  0.02658516  1
  O  O40  1  0.35489508  0.14806774  0.02474040  1
  O  O41  1  0.84944507  0.16619322  0.02778737  1
  O  O42  1  0.22218903  0.15095119  0.52693922  1
  O  O43  1  0.72197746  0.15081129  0.52686886  1
  O  O44  1  0.35382035  0.55639535  0.52705171  1
  O  O45  1  0.85349416  0.55586629  0.52700159  1
  O  O46  1  0.42594357  0.29031817  0.52468398  1
  O  O47  1  0.92593629  0.29045940  0.52460084  1
  O  O48  1  0.27168674  0.69476452  0.97358695  1
  O  O49  1  0.76854384  0.68796909  0.97239436  1
  O  O50  1  0.07358196  0.45476900  0.97583478  1
  O  O51  1  0.57484012  0.45485400  0.97503276  1
  O  O52  1  0.15215134  0.84804340  0.97339244  1
  O  O53  1  0.65251286  0.84855821  0.97438890  1
  O  O54  1  0.27282449  0.84966578  0.47479053  1
  O  O55  1  0.77275099  0.84969164  0.47479505  1
  O  O56  1  0.15275697  0.45693434  0.47349006  1
  O  O57  1  0.65270597  0.45684108  0.47348306  1
  O  O58  1  0.07599161  0.69577448  0.47336738  1
  O  O59  1  0.57599264  0.69582893  0.47339056  1
  O  O60  1  0.06901710  0.64456682  0.35942474  1
  O  O61  1  0.56907117  0.64455037  0.35943508  1
  O  O62  1  0.25132486  0.85712393  0.36207505  1
  O  O63  1  0.75136708  0.85719662  0.36209478  1
  O  O64  1  0.17775367  0.49372768  0.35956235  1
  O  O65  1  0.67778203  0.49370028  0.35953564  1
  O  O66  1  0.06716648  0.49847858  0.86294522  1
  O  O67  1  0.57254195  0.49990177  0.86251832  1
  O  O68  1  0.17748244  0.86121856  0.85967741  1
  O  O69  1  0.68097268  0.86933623  0.86009047  1
  O  O70  1  0.25230236  0.64368251  0.85995852  1
  O  O71  1  0.75449419  0.63686422  0.85886378  1
  O  O72  1  0.01089538  0.82894039  0.41019787  1
  O  O73  1  0.51082253  0.82878947  0.41018265  1
  O  O74  1  0.40343670  0.97774839  0.41023341  1
  O  O75  1  0.90344283  0.97784359  0.41029250  1
  O  O76  1  0.08576904  0.19300236  0.41040190  1
  O  O77  1  0.58571883  0.19300099  0.41042145  1
  O  O78  1  0.01180792  0.19619404  0.91007960  1
  O  O79  1  0.51129568  0.19408848  0.91009134  1
  O  O80  1  0.08619349  0.97990556  0.91018557  1
  O  O81  1  0.58886511  0.98368362  0.91069046  1
  O  O82  1  0.40367193  0.82830139  0.91045781  1
  O  O83  1  0.90529589  0.81800056  0.91068595  1
  O  O84  1  0.49011448  0.16423065  0.59248061  1
  O  O85  1  0.99040631  0.16460172  0.59216650  1
  O  O86  1  0.09149730  0.01942868  0.59177888  1
  O  O87  1  0.59140208  0.01936042  0.59185148  1
  O  O88  1  0.41794035  0.81680445  0.59241105  1
  O  O89  1  0.91813784  0.81642347  0.59209599  1
  O  O90  1  0.49026736  0.81669986  0.09195249  1
  O  O91  1  0.98780502  0.81204496  0.08863363  1
  O  O92  1  0.41826343  0.02000773  0.09234481  1
  O  O93  1  0.91930939  0.03391679  0.08877924  1
  O  O94  1  0.09137117  0.16272240  0.09265828  1
  O  O95  1  0.59576255  0.16211695  0.08826670  1
  O  O96  1  0.33719503  0.15284227  0.74445186  1
  O  O97  1  0.83692649  0.15206346  0.74394313  1
  O  O98  1  0.23668210  0.31825433  0.74392212  1
  O  O99  1  0.73704851  0.31832478  0.74394767  1
  O  O100  1  0.41982214  0.52867791  0.74343824  1
  O  O101  1  0.91973383  0.52849708  0.74362373  1
  O  O102  1  0.34118401  0.52648340  0.24367598  1
  O  O103  1  0.84154100  0.52761104  0.24334050  1
  O  O104  1  0.42343192  0.32459798  0.24412561  1
  O  O105  1  0.92346529  0.32539158  0.24441348  1
  O  O106  1  0.23525835  0.16023031  0.24294131  1
  O  O107  1  0.73595556  0.16068454  0.24373717  1
  O  O108  1  0.31891688  0.50036240  0.91772376  1
  O  O109  1  0.81830371  0.49411762  0.92126159  1
  O  O110  1  0.43179951  0.36357342  0.91781950  1
  O  O111  1  0.93033038  0.36661319  0.92204715  1
  O  O112  1  0.25022088  0.13716744  0.91786635  1
  O  O113  1  0.75076521  0.14484745  0.92273099  1
  O  O114  1  0.31831278  0.13623781  0.41793663  1
  O  O115  1  0.81827654  0.13626141  0.41794663  1
  O  O116  1  0.24982926  0.36214023  0.41777461  1
  O  O117  1  0.74978259  0.36201731  0.41776026  1
  O  O118  1  0.43141228  0.50061026  0.41787861  1
  O  O119  1  0.93141325  0.50062036  0.41785943  1
  O  O120  1  0.17153975  0.48895612  0.07915324  1
  O  O121  1  0.67083388  0.48564480  0.07781824  1
  O  O122  1  0.06969284  0.65233234  0.07713563  1
  O  O123  1  0.57286572  0.65596029  0.07918433  1
  O  O124  1  0.25553827  0.85396250  0.07843366  1
  O  O125  1  0.75386518  0.86327233  0.07568656  1
  O  O126  1  0.17166057  0.85432625  0.57905778  1
  O  O127  1  0.67156412  0.85433412  0.57904860  1
  O  O128  1  0.25522232  0.65592262  0.57904394  1
  O  O129  1  0.75521203  0.65592789  0.57903319  1
  O  O130  1  0.07300409  0.48867033  0.57815909  1
  O  O131  1  0.57295609  0.48852499  0.57822555  1
  O  O132  1  0.15050251  0.82759472  0.25479190  1
  O  O133  1  0.65071584  0.82775894  0.25499231  1
  O  O134  1  0.26092286  0.68989743  0.25505112  1
  O  O135  1  0.76109384  0.69047206  0.25504824  1
  O  O136  1  0.08564480  0.47534481  0.25372922  1
  O  O137  1  0.58583263  0.47569308  0.25384785  1
  O  O138  1  0.15456850  0.47782818  0.75601132  1
  O  O139  1  0.65532369  0.47925720  0.75543734  1
  O  O140  1  0.08605058  0.69776539  0.75531097  1
  O  O141  1  0.58651373  0.69897833  0.75570280  1
  O  O142  1  0.26172841  0.82810545  0.75442029  1
  O  O143  1  0.76221283  0.82856646  0.75467345  1
loop_
_geom_bond_atom_site_label_1
_geom_bond_atom_site_label_2
_geom_bond_distance
_geom_bond_site_symmetry_2
Na0 O106 2.397906 1_555
Na0 O136 2.429308 1_555
Na0 O102 2.432018 1_555
Na0 O134 2.540842 1_555
Na0 O34 2.555294 1_555
Na0 O64 2.755895 1_555
Na0 O20 2.886814 1_555
Na0 O0 2.921745 1_555
Na1 O107 2.403218 1_555
Na1 O137 2.430270 1_555
Na1 O103 2.432621 1_555
Na1 O35 2.537628 1_555
Na1 O135 2.540488 1_555
Na1 O65 2.749958 1_555
Na1 O21 2.877732 1_555
Na1 O1 2.926143 1_555
Na2 O105 2.359617 1_555
Na2 O132 2.426301 1_655
Na2 O103 2.432871 1_555
Na2 O31 2.577630 1_555
Na2 O136 2.591803 1_655
Na2 O60 2.750223 1_655
Na2 O22 2.869951 1_655
Na2 O3 2.900001 1_555
Na3 O104 2.362046 1_555
Na3 O133 2.429501 1_555
Na3 O102 2.439169 1_555
Na3 O30 2.548006 1_555
Na3 O137 2.587698 1_555
Na3 O61 2.764724 1_555
Na3 O23 2.877145 1_555
Na3 O2 2.908699 1_555
Na4 O100 2.401717 1_555
Na4 O98 2.420678 1_555
Na4 O142 2.436033 1_555
Na4 O138 2.543432 1_555
Na4 O28 2.558194 1_555
Na4 O70 2.765042 1_555
Na4 O12 2.877365 1_555
Na4 O8 2.934493 1_555
Na5 O101 2.398578 1_555
Na5 O99 2.429457 1_555
Na5 O143 2.432280 1_555
Na5 O139 2.540384 1_555
Na5 O29 2.569962 1_555
Na5 O71 2.704858 1_555
Na5 O13 2.885723 1_555
Na5 O9 2.928333 1_555
Na6 O96 2.363388 1_555
Na6 O98 2.437242 1_555
Na6 O140 2.438867 1_545
Na6 O26 2.552670 1_555
Na6 O142 2.598434 1_545
Na6 O68 2.771187 1_545
Na6 O16 2.861469 1_545
Na6 O6 2.892199 1_555
Na7 O97 2.353221 1_555
Na7 O141 2.426044 1_545
Na7 O99 2.443840 1_555
Na7 O27 2.554068 1_555
Na7 O143 2.590840 1_545
Na7 O69 2.755367 1_545
Na7 O17 2.865036 1_545
Na7 O7 2.907985 1_555
Na8 O130 2.413285 1_555
Na8 O128 2.473506 1_555
Na8 O86 2.510005 1_555
Na8 O85 2.553326 1_455
Na8 O56 2.590123 1_555
Na8 O42 2.782302 1_555
Na8 O14 2.783009 1_555
Na8 O28 2.878697 1_555
Na9 O131 2.412936 1_555
Na9 O129 2.468419 1_555
Na9 O87 2.515005 1_555
Na9 O84 2.563396 1_555
Na9 O57 2.587741 1_555
Na9 O43 2.781153 1_555
Na9 O15 2.782295 1_555
Na9 O29 2.873936 1_555
Na10 O126 2.424156 1_555
Na10 O130 2.483084 1_555
Na10 O89 2.506070 1_455
Na10 O86 2.561609 1_565
Na10 O58 2.602265 1_555
Na10 O45 2.780743 1_455
Na10 O16 2.787200 1_555
Na10 O25 2.812467 1_455
Na11 O127 2.423537 1_555
Na11 O131 2.479982 1_555
Na11 O88 2.515738 1_555
Na11 O87 2.565510 1_565
Na11 O59 2.598638 1_555
Na11 O44 2.774353 1_555
Na11 O17 2.795686 1_555
Na11 O24 2.811617 1_555
Na12 O128 2.426322 1_555
Na12 O126 2.471941 1_555
Na12 O84 2.514599 1_565
Na12 O54 2.557583 1_555
Na12 O88 2.562817 1_555
Na12 O46 2.787299 1_565
Na12 O12 2.808102 1_555
Na12 O26 2.880096 1_565
Na13 O129 2.424618 1_555
Na13 O127 2.477447 1_555
Na13 O85 2.515287 1_565
Na13 O55 2.561382 1_555
Na13 O89 2.562853 1_555
Na13 O13 2.752563 1_555
Na13 O47 2.791585 1_565
Na13 O27 2.884802 1_565
Na14 O122 2.458209 1_555
Na14 O124 2.492845 1_555
Na14 O94 2.496657 1_565
Na14 O91 2.581194 1_455
Na14 O52 2.590371 1_554
Na14 O36 2.773426 1_565
Na14 O22 2.780168 1_555
Na14 O32 2.836358 1_565
Na15 O125 2.397624 1_555
Na15 O123 2.399183 1_555
Na15 O95 2.434645 1_565
Na15 O90 2.530137 1_555
Na15 O53 2.592358 1_554
Na15 O23 2.756901 1_555
Na15 O33 2.857114 1_565
Na15 O37 2.868694 1_565
Na16 O124 2.420788 1_555
Na16 O120 2.471049 1_555
Na16 O90 2.517185 1_555
Na16 O92 2.575332 1_565
Na16 O48 2.581762 1_554
Na16 O38 2.773166 1_555
Na16 O18 2.791456 1_555
Na16 O34 2.867035 1_555
Na17 O120 2.376394 1_555
Na17 O93 2.421000 1_455
Na17 O122 2.443006 1_555
Na17 O94 2.540015 1_555
Na17 O50 2.547947 1_554
Na17 O20 2.765053 1_555
Na17 O41 2.871340 1_455
Na17 O31 2.884807 1_455
Na18 O121 2.397907 1_555
Na18 O123 2.466344 1_555
Na18 O92 2.516579 1_555
Na18 O51 2.534607 1_554
Na18 O95 2.626685 1_555
Na18 O40 2.788210 1_555
Na18 O21 2.812007 1_555
Na18 O30 2.898647 1_555
Na19 O110 2.404906 1_555
Na19 O82 2.459344 1_555
Na19 O81 2.488281 1_555
Na19 O108 2.531893 1_555
Na19 O38 2.613044 1_556
Na19 O8 2.621562 1_555
Na19 O53 2.910722 1_555
Na19 O67 2.957810 1_555
Na20 O83 2.348461 1_555
Na20 O80 2.405026 1_655
Na20 O111 2.418664 1_555
Na20 O9 2.554485 1_555
Na20 O109 2.586838 1_555
Na20 O39 2.739859 1_556
Na20 O66 2.865454 1_655
Na20 O52 2.888410 1_655
Na21 O112 2.398165 1_555
Na21 O82 2.455125 1_545
Na21 O79 2.473183 1_555
Na21 O110 2.537105 1_555
Na21 O40 2.558311 1_556
Na21 O10 2.594420 1_555
Na22 O108 2.410679 1_555
Na22 O80 2.438128 1_545
Na22 O78 2.443131 1_555
Na22 O112 2.518464 1_555
Na22 O36 2.613413 1_556
Na22 O6 2.632275 1_555
Na23 O109 2.408536 1_555
Na23 O79 2.409498 1_555
Na23 O81 2.450411 1_545
Na23 O113 2.541810 1_555
Na23 O7 2.583709 1_555
Na23 O37 2.760085 1_556
Na23 O71 2.886167 1_555
Na23 O51 2.900642 1_555
Na24 O118 2.407350 1_555
Na24 O77 2.449952 1_555
Na24 O74 2.473101 1_545
Na24 O114 2.537027 1_555
Na24 O46 2.551623 1_555
Na24 O4 2.611614 1_555
Na25 O119 2.408261 1_555
Na25 O76 2.449918 1_655
Na25 O75 2.471742 1_545
Na25 O115 2.537994 1_555
Na25 O47 2.551565 1_555
Na25 O5 2.605552 1_555
Na26 O114 2.403212 1_555
Na26 O72 2.447717 1_545
Na26 O76 2.457690 1_555
Na26 O116 2.521155 1_555
Na26 O42 2.605558 1_555
Na26 O0 2.646707 1_555
Na26 O58 2.902948 1_545
Na26 O62 2.971971 1_545
Na27 O115 2.401619 1_555
Na27 O73 2.449828 1_545
Na27 O77 2.459216 1_555
Na27 O117 2.520038 1_555
Na27 O43 2.602329 1_555
Na27 O1 2.637808 1_555
Na27 O59 2.902671 1_545
Na27 O63 2.971470 1_545
Na28 O116 2.401349 1_555
Na28 O74 2.454771 1_555
Na28 O73 2.464761 1_555
Na28 O118 2.517383 1_555
Na28 O44 2.605365 1_555
Na28 O2 2.646219 1_555
Na29 O117 2.403302 1_555
Na29 O75 2.454803 1_555
Na29 O72 2.464694 1_655
Na29 O119 2.516998 1_555
Na29 O45 2.605384 1_555
Na29 O3 2.624358 1_555
Na30 O76 2.518366 1_555
Na30 O72 2.520807 1_545
Na30 O75 2.523486 1_445
Na30 O86 2.595244 1_555
Na30 O89 2.603233 1_445
Na30 O85 2.604613 1_455
Na31 O77 2.514916 1_555
Na31 O73 2.519169 1_545
Na31 O74 2.520003 1_545
Na31 O87 2.600064 1_555
Na31 O88 2.611541 1_545
Na31 O84 2.612501 1_555
Na32 O83 2.430676 1_555
Na32 O93 2.516737 1_566
Na32 O78 2.528533 1_665
Na32 O91 2.578048 1_556
Na32 O80 2.597346 1_655
Na32 O94 2.710453 1_666
Na33 O82 2.508364 1_555
Na33 O79 2.525687 1_565
Na33 O81 2.531957 1_555
Na33 O95 2.569310 1_566
Na33 O92 2.605006 1_566
Na33 O90 2.605353 1_556
Na34 O110 2.460672 1_555
Na34 O96 2.491260 1_555
Na34 O100 2.514758 1_555
Na34 O112 2.541845 1_555
Na34 O108 2.547618 1_555
Na34 O98 2.602112 1_555
Na35 O97 2.427407 1_555
Na35 O111 2.507814 1_555
Na35 O101 2.515520 1_555
Na35 O113 2.599829 1_555
Na35 O99 2.614612 1_555
Na35 O109 2.653372 1_555
Na36 O114 2.460335 1_555
Na36 O104 2.499218 1_555
Na36 O106 2.526603 1_555
Na36 O116 2.546202 1_555
Na36 O118 2.546203 1_555
Na36 O102 2.606615 1_555
Na37 O115 2.456405 1_555
Na37 O105 2.493524 1_555
Na37 O107 2.513152 1_555
Na37 O119 2.540067 1_555
Na37 O117 2.544990 1_555
Na37 O103 2.620837 1_555
Na38 O124 2.457655 1_555
Na38 O134 2.509928 1_555
Na38 O132 2.517992 1_555
Na38 O120 2.530042 1_555
Na38 O136 2.572286 1_555
Na38 O122 2.593238 1_555
Na39 O125 2.467109 1_555
Na39 O135 2.499122 1_555
Na39 O121 2.505843 1_555
Na39 O123 2.551395 1_555
Na39 O133 2.593347 1_555
Na39 O137 2.631899 1_555
Na40 O130 2.458856 1_555
Na40 O140 2.525205 1_555
Na40 O126 2.525857 1_555
Na40 O128 2.529109 1_555
Na40 O138 2.534786 1_555
Na40 O142 2.584507 1_555
Na41 O131 2.464170 1_555
Na41 O139 2.517665 1_555
Na41 O127 2.529223 1_555
Na41 O141 2.529608 1_555
Na41 O129 2.530323 1_555
Na41 O143 2.587344 1_555
Mg0 O5 2.000294 1_555
Mg0 O3 2.006209 1_545
Mg0 O0 2.010117 1_655
Mg0 O75 2.095566 1_545
Mg0 O76 2.107747 1_655
Mg0 O72 2.114367 1_645
Mg1 O4 2.000394 1_555
Mg1 O2 2.003761 1_545
Mg1 O1 2.008449 1_555
Mg1 O74 2.095161 1_545
Mg1 O77 2.105848 1_555
Mg1 O73 2.112936 1_545
Mg2 O11 1.953196 1_555
Mg2 O6 2.032921 1_655
Mg2 O9 2.041407 1_545
Mg2 O78 2.074592 1_655
Mg2 O83 2.091048 1_545
Mg2 O80 2.133775 1_645
Mg3 O7 2.002710 1_555
Mg3 O10 2.003659 1_555
Mg3 O8 2.008331 1_545
Mg3 O79 2.099808 1_555
Mg3 O82 2.108440 1_545
Mg3 O81 2.140301 1_545
Mg4 O24 1.974978 1_555
Mg4 O26 2.045695 1_555
Mg4 O28 2.048518 1_555
Mg4 O100 2.089252 1_555
Mg4 O96 2.101556 1_555
Mg4 O98 2.159723 1_555
Mg5 O25 1.974177 1_555
Mg5 O27 2.045817 1_555
Mg5 O29 2.046242 1_555
Mg5 O101 2.091135 1_555
Mg5 O97 2.101401 1_555
Mg5 O99 2.158090 1_555
Mg6 O32 1.975018 1_555
Mg6 O30 2.043441 1_555
Mg6 O34 2.048693 1_555
Mg6 O106 2.084510 1_555
Mg6 O104 2.103029 1_555
Mg6 O102 2.156530 1_555
Mg7 O33 1.971365 1_555
Mg7 O35 2.029754 1_555
Mg7 O31 2.031401 1_555
Mg7 O107 2.079062 1_555
Mg7 O105 2.093148 1_555
Mg7 O103 2.133399 1_555
Mg8 O36 2.071256 1_556
Mg8 O38 2.074880 1_556
Mg8 O40 2.082842 1_556
Mg8 O112 2.177911 1_555
Mg8 O110 2.184389 1_555
Mg8 O108 2.188503 1_555
Mg9 O42 2.070369 1_555
Mg9 O44 2.072067 1_555
Mg9 O46 2.078829 1_555
Mg9 O118 2.180817 1_555
Mg9 O114 2.185314 1_555
Mg9 O116 2.190272 1_555
Mg10 O45 2.068534 1_555
Mg10 O43 2.072958 1_555
Mg10 O47 2.077124 1_555
Mg10 O119 2.180461 1_555
Mg10 O115 2.185400 1_555
Mg10 O117 2.190668 1_555
Mg11 O48 2.009678 1_554
Mg11 O50 2.011228 1_554
Mg11 O52 2.012246 1_554
Mg11 O124 2.111876 1_555
Mg11 O122 2.124392 1_555
Mg11 O120 2.126518 1_555
Mg12 O49 1.953359 1_554
Mg12 O53 2.036176 1_554
Mg12 O51 2.044752 1_554
Mg12 O125 2.067551 1_555
Mg12 O121 2.096902 1_555
Mg12 O123 2.154748 1_555
Mg13 O56 2.011482 1_555
Mg13 O58 2.014873 1_555
Mg13 O54 2.015284 1_555
Mg13 O130 2.105433 1_555
Mg13 O126 2.119417 1_555
Mg13 O128 2.121851 1_555
Mg14 O57 2.011437 1_555
Mg14 O55 2.013949 1_555
Mg14 O59 2.016546 1_555
Mg14 O131 2.107590 1_555
Mg14 O129 2.119987 1_555
Mg14 O127 2.120429 1_555
O0 P0 1.523382 1_545
O1 P1 1.521908 1_555
O2 P2 1.518541 1_555
O3 P3 1.519544 1_555
O4 P5 1.513334 1_555
O5 P4 1.513335 1_555
O6 P6 1.515399 1_555
O7 P7 1.518983 1_555
O8 P9 1.523920 1_555
O9 P8 1.518693 1_655
O10 P10 1.512530 1_555
O11 P11 1.507207 1_555
O12 P10 1.594504 1_565
O12 Ti1 1.950884 1_565
O13 P11 1.600535 1_565
O13 Ti0 1.939517 1_565
O14 P6 1.585392 1_555
O14 Ti0 1.945918 1_455
O15 P7 1.584050 1_555
O15 Ti1 1.946250 1_555
O16 P8 1.595006 1_555
O16 Ti0 1.978415 1_465
O17 P9 1.597850 1_555
O17 Ti1 1.973253 1_565
O18 P2 1.587176 1_555
O18 Ti3 1.937902 1_555
O19 P3 1.585297 1_555
O19 Ti2 1.899257 1_555
O20 P4 1.592250 1_455
O20 Ti2 1.970151 1_445
O21 P5 1.599946 1_555
O21 Ti3 1.947962 1_545
O22 P0 1.599182 1_555
O22 Ti2 1.988301 1_455
O23 P1 1.597869 1_565
O23 Ti3 1.968121 1_555
O24 P12 1.513791 1_555
O25 P13 1.514881 1_555
O26 P14 1.529867 1_555
O27 P15 1.529577 1_555
O28 P16 1.528796 1_555
O29 P17 1.529891 1_555
O30 P18 1.528877 1_555
O31 P19 1.520258 1_555
O32 P20 1.513422 1_555
O33 P21 1.506925 1_555
O34 P22 1.529703 1_555
O35 P23 1.511955 1_555
O36 P22 1.545604 1_555
O37 P23 1.599537 1_555
O37 Ti4 1.974612 1_554
O38 P18 1.545890 1_555
O39 P19 1.588480 1_555
O39 Ti4 1.971179 1_554
O40 P20 1.546711 1_555
O41 P21 1.613565 1_555
O41 Ti4 1.900333 1_554
O42 P14 1.545730 1_555
O43 P15 1.544533 1_555
O44 P16 1.545821 1_555
O45 P17 1.545312 1_555
O46 P12 1.547363 1_555
O47 P13 1.547392 1_555
O48 P24 1.527218 1_555
O49 P25 1.501127 1_555
O50 P26 1.523931 1_555
O51 P27 1.523070 1_555
O52 P28 1.528668 1_555
O53 P29 1.518394 1_555
O54 P30 1.525732 1_555
O55 P31 1.525623 1_555
O56 P32 1.526692 1_555
O57 P33 1.526964 1_555
O58 P34 1.527290 1_555
O59 P35 1.527947 1_555
O60 P34 1.602012 1_555
O60 Ti5 1.938012 1_555
O61 P35 1.601646 1_555
O61 Ti6 1.938122 1_555
O62 P30 1.601743 1_555
O62 Ti5 1.881771 1_555
O63 P31 1.602040 1_555
O63 Ti6 1.880356 1_555
O64 P32 1.601300 1_555
O64 Ti5 1.942239 1_555
O65 P33 1.600888 1_555
O65 Ti6 1.944662 1_555
O66 P26 1.599038 1_555
O66 Ti7 1.909782 1_555
O67 P27 1.604642 1_555
O67 Ti8 1.887805 1_555
O68 P28 1.603632 1_555
O68 Ti7 1.935629 1_555
O69 P29 1.585829 1_555
O69 Ti8 1.972958 1_555
O70 P24 1.601825 1_555
O70 Ti7 1.947226 1_555
O71 P25 1.605827 1_555
O71 Ti8 1.956229 1_555
O72 P34 1.543006 1_555
O73 P35 1.543106 1_555
O74 P30 1.539712 1_555
O75 P31 1.539183 1_555
O76 P32 1.543195 1_555
O77 P33 1.543613 1_555
O78 P26 1.519221 1_555
O79 P27 1.543018 1_555
O80 P28 1.539978 1_555
O81 P29 1.547874 1_555
O82 P24 1.545574 1_555
O83 P25 1.522853 1_555
O84 P12 1.603389 1_555
O84 Ti1 2.002222 1_555
O85 P13 1.602685 1_555
O85 Ti0 2.002503 1_555
O86 P14 1.596381 1_555
O86 Ti0 2.033326 1_455
O87 P15 1.598800 1_555
O87 Ti1 2.022501 1_555
O88 P16 1.599338 1_555
O88 Ti1 2.024943 1_565
O89 P17 1.597989 1_555
O89 Ti0 2.027097 1_565
O90 P18 1.601579 1_555
O90 Ti3 2.013665 1_555
O91 P19 1.574035 1_555
O91 Ti2 2.054561 1_555
O92 P20 1.607048 1_555
O92 Ti3 1.999433 1_545
O93 P21 1.572789 1_555
O93 Ti2 2.061062 1_545
O94 P22 1.597225 1_555
O94 Ti2 2.030315 1_445
O95 P23 1.600293 1_555
O95 Ti3 2.106171 1_545
O96 P10 1.525412 1_555
O97 P11 1.521256 1_555
O98 P6 1.542358 1_555
O99 P7 1.541666 1_555
O100 P9 1.525321 1_555
O101 P8 1.527006 1_655
O102 P2 1.540120 1_555
O103 P3 1.539844 1_555
O104 P5 1.524826 1_555
O105 P4 1.527310 1_555
O106 P0 1.525565 1_545
O107 P1 1.524564 1_555
O108 P24 1.546510 1_555
O109 P25 1.599957 1_555
O109 Ti4 2.112986 1_555
O110 P27 1.544218 1_555
O111 P26 1.574485 1_655
O111 Ti4 2.065344 1_555
O112 P28 1.546329 1_545
O113 P29 1.577558 1_545
O113 Ti4 2.044517 1_555
O114 P30 1.543636 1_545
O115 P31 1.543604 1_545
O116 P32 1.547187 1_555
O117 P33 1.546951 1_555
O118 P35 1.546253 1_555
O119 P34 1.546381 1_655
O120 P22 1.549507 1_555
O121 P23 1.524808 1_555
O122 P19 1.546344 1_455
O123 P18 1.544571 1_555
O124 P20 1.549541 1_565
O125 P21 1.520076 1_565
O126 P14 1.547195 1_565
O127 P15 1.546273 1_565
O128 P16 1.545760 1_555
O129 P17 1.546073 1_555
O130 P13 1.546900 1_455
O131 P12 1.547414 1_555
O132 P0 1.576323 1_555
O132 Ti5 2.065090 1_555
O133 P1 1.573344 1_565
O133 Ti6 2.059536 1_555
O134 P2 1.569850 1_555
O134 Ti5 2.049841 1_555
O135 P3 1.567357 1_555
O135 Ti6 2.049784 1_555
O136 P4 1.595871 1_455
O136 Ti5 2.122447 1_555
O137 P5 1.590411 1_555
O137 Ti6 2.120373 1_555
O138 P6 1.574030 1_555
O138 Ti7 2.039614 1_555
O139 P7 1.570767 1_555
O139 Ti8 2.050554 1_555
O140 P8 1.577852 1_555
O140 Ti7 2.047609 1_555
O141 P9 1.573404 1_555
O141 Ti8 2.080108 1_555
O142 P10 1.593034 1_565
O142 Ti7 2.121627 1_555
O143 P11 1.595716 1_565
O143 Ti8 2.091391 1_555
