# generated using pymatgen
data_Na3Ga2(PO4)3
_symmetry_space_group_name_H-M   'P 1'
_cell_length_a   15.14903750
_cell_length_b   8.75510475
_cell_length_c   8.75519441
_cell_angle_alpha   90.00000000
_cell_angle_beta   124.86214606
_cell_angle_gamma   90.00000000
_symmetry_Int_Tables_number   1
_chemical_formula_structural   Na3Ga2(PO4)3
_chemical_formula_sum   'Na12 Ga8 P12 O48'
_cell_volume   952.81039531
_cell_formula_units_Z   4
loop_
 _symmetry_equiv_pos_site_id
 _symmetry_equiv_pos_as_xyz
  1  'x, y, z'
loop_
 _atom_site_type_symbol
 _atom_site_label
 _atom_site_symmetry_multiplicity
 _atom_site_fract_x
 _atom_site_fract_y
 _atom_site_fract_z
 _atom_site_occupancy
  Na  Na0  1  0.24657657  0.77166975  0.99824677  1
  Na  Na1  1  0.74657657  0.72833025  0.49824677  1
  Na  Na2  1  0.74657657  0.27166975  0.99824677  1
  Na  Na3  1  0.24657657  0.22833025  0.49824677  1
  Na  Na4  1  0.50168224  0.11088400  0.74887247  1
  Na  Na5  1  0.50168224  0.88911600  0.24887247  1
  Na  Na6  1  0.00168224  0.61088400  0.74887247  1
  Na  Na7  1  0.00168224  0.38911600  0.24887247  1
  Na  Na8  1  0.81090543  0.93603470  0.21755294  1
  Na  Na9  1  0.81090543  0.06396530  0.71755294  1
  Na  Na10  1  0.31090543  0.43603470  0.21755294  1
  Na  Na11  1  0.31090543  0.56396530  0.71755294  1
  Ga  Ga0  1  0.10281392  0.75785453  0.55538334  1
  Ga  Ga1  1  0.89793588  0.74941212  0.94217583  1
  Ga  Ga2  1  0.89793588  0.25058788  0.44217583  1
  Ga  Ga3  1  0.10281392  0.24214547  0.05538334  1
  Ga  Ga4  1  0.60281392  0.25785453  0.55538334  1
  Ga  Ga5  1  0.39793588  0.24941212  0.94217583  1
  Ga  Ga6  1  0.39793588  0.75058788  0.44217583  1
  Ga  Ga7  1  0.60281392  0.74214547  0.05538334  1
  P  P0  1  0.00141046  0.95573826  0.74677760  1
  P  P1  1  0.00141046  0.04426174  0.24677760  1
  P  P2  1  0.50141046  0.45573826  0.74677760  1
  P  P3  1  0.50141046  0.54426174  0.24677760  1
  P  P4  1  0.35516775  0.89593239  0.75462388  1
  P  P5  1  0.64788307  0.89299181  0.74527059  1
  P  P6  1  0.64788307  0.10700819  0.24527059  1
  P  P7  1  0.35516775  0.10406761  0.25462388  1
  P  P8  1  0.85516775  0.39593239  0.75462388  1
  P  P9  1  0.14788307  0.39299181  0.74527059  1
  P  P10  1  0.14788307  0.60700819  0.24527059  1
  P  P11  1  0.85516775  0.60406761  0.25462388  1
  O  O0  1  0.15597127  0.57126726  0.73983389  1
  O  O1  1  0.84985338  0.57196858  0.76098756  1
  O  O2  1  0.84985338  0.42803142  0.26098756  1
  O  O3  1  0.15597127  0.42873274  0.23983389  1
  O  O4  1  0.65597127  0.07126726  0.73983389  1
  O  O5  1  0.34985338  0.07196858  0.76098756  1
  O  O6  1  0.34985338  0.92803142  0.26098756  1
  O  O7  1  0.65597127  0.92873274  0.23983389  1
  O  O8  1  0.42820130  0.55135182  0.56758027  1
  O  O9  1  0.56768004  0.55614679  0.92059672  1
  O  O10  1  0.56768004  0.44385321  0.42059672  1
  O  O11  1  0.42820130  0.44864818  0.06758027  1
  O  O12  1  0.92820130  0.05135182  0.56758027  1
  O  O13  1  0.06768004  0.05614679  0.92059672  1
  O  O14  1  0.06768004  0.94385321  0.42059672  1
  O  O15  1  0.92820130  0.94864818  0.06758027  1
  O  O16  1  0.25849158  0.81783241  0.73924797  1
  O  O17  1  0.74581486  0.82536651  0.75683926  1
  O  O18  1  0.74581486  0.17463349  0.25683926  1
  O  O19  1  0.25849158  0.18216759  0.23924797  1
  O  O20  1  0.75849158  0.31783241  0.73924797  1
  O  O21  1  0.24581486  0.32536651  0.75683926  1
  O  O22  1  0.24581486  0.67463349  0.25683926  1
  O  O23  1  0.75849158  0.68216759  0.23924797  1
  O  O24  1  0.35888753  0.85906810  0.58632220  1
  O  O25  1  0.64819337  0.86290245  0.92062591  1
  O  O26  1  0.64819337  0.13709755  0.42062591  1
  O  O27  1  0.35888753  0.14093190  0.08632220  1
  O  O28  1  0.85888753  0.35906810  0.58632220  1
  O  O29  1  0.14819337  0.36290245  0.92062591  1
  O  O30  1  0.14819337  0.63709755  0.42062591  1
  O  O31  1  0.85888753  0.64093190  0.08632220  1
  O  O32  1  0.45699053  0.83221144  0.93680729  1
  O  O33  1  0.54512741  0.83255746  0.56609643  1
  O  O34  1  0.54512741  0.16744254  0.06609643  1
  O  O35  1  0.45699053  0.16778856  0.43680729  1
  O  O36  1  0.95699053  0.33221144  0.93680729  1
  O  O37  1  0.04512741  0.33255746  0.56609643  1
  O  O38  1  0.04512741  0.66744254  0.06609643  1
  O  O39  1  0.95699053  0.66778856  0.43680729  1
  O  O40  1  0.08007494  0.84770138  0.74017336  1
  O  O41  1  0.92033845  0.85177325  0.75598572  1
  O  O42  1  0.92033845  0.14822675  0.25598572  1
  O  O43  1  0.08007494  0.15229862  0.24017336  1
  O  O44  1  0.58007494  0.34770138  0.74017336  1
  O  O45  1  0.42033845  0.35177325  0.75598572  1
  O  O46  1  0.42033845  0.64822675  0.25598572  1
  O  O47  1  0.58007494  0.65229862  0.24017336  1
loop_
_geom_bond_atom_site_label_1
_geom_bond_atom_site_label_2
_geom_bond_distance
_geom_bond_site_symmetry_2
Na0 O40 2.322761 1_555
Na0 O6 2.345006 1_556
Na0 O16 2.409519 1_555
Na0 O22 2.424371 1_556
Na0 O46 2.529540 1_556
Na0 O0 2.555580 1_555
Na1 O47 2.322761 1_555
Na1 O1 2.345006 1_555
Na1 O23 2.409519 1_555
Na1 O17 2.424371 1_555
Na1 O41 2.529540 1_555
Na1 O7 2.555580 1_555
Na2 O44 2.322761 1_555
Na2 O2 2.345006 1_556
Na2 O20 2.409519 1_555
Na2 O18 2.424371 1_556
Na2 O42 2.529540 1_556
Na2 O4 2.555580 1_555
Na3 O43 2.322761 1_555
Na3 O5 2.345006 1_555
Na3 O19 2.409519 1_555
Na3 O21 2.424371 1_555
Na3 O45 2.529540 1_555
Na3 O3 2.555580 1_555
Na4 O5 2.386738 1_555
Na4 O4 2.408554 1_555
Na4 O44 2.412128 1_555
Na4 O35 2.461048 1_555
Na4 O45 2.461311 1_555
Na4 O34 2.510454 1_556
Na4 O24 2.836540 1_545
Na4 O25 2.843519 1_545
Na5 O6 2.386738 1_555
Na5 O7 2.408554 1_555
Na5 O47 2.412128 1_555
Na5 O32 2.461048 1_554
Na5 O46 2.461311 1_555
Na5 O33 2.510454 1_555
Na5 O27 2.836540 1_565
Na5 O26 2.843519 1_565
Na6 O1 2.386738 1_455
Na6 O0 2.408554 1_555
Na6 O40 2.412128 1_555
Na6 O39 2.461048 1_455
Na6 O41 2.461311 1_455
Na6 O38 2.510454 1_556
Na6 O28 2.836540 1_455
Na6 O29 2.843519 1_555
Na7 O2 2.386738 1_455
Na7 O3 2.408554 1_555
Na7 O43 2.412128 1_555
Na7 O36 2.461048 1_454
Na7 O42 2.461311 1_455
Na7 O37 2.510454 1_555
Na7 O31 2.836540 1_455
Na7 O30 2.843519 1_555
Na8 O42 2.382249 1_565
Na8 O23 2.403968 1_555
Na8 O18 2.417044 1_565
Na8 O25 2.432777 1_554
Na8 O7 2.464643 1_555
Na8 O12 2.709791 1_565
Na8 O15 2.749728 1_555
Na9 O41 2.382249 1_545
Na9 O20 2.403968 1_555
Na9 O17 2.417044 1_545
Na9 O26 2.432777 1_555
Na9 O4 2.464643 1_555
Na9 O15 2.709791 1_546
Na9 O12 2.749728 1_555
Na10 O46 2.382249 1_555
Na10 O19 2.403968 1_555
Na10 O22 2.417044 1_555
Na10 O29 2.432777 1_554
Na10 O3 2.464643 1_555
Na10 O8 2.709791 1_555
Na10 O11 2.749728 1_555
Na11 O45 2.382249 1_555
Na11 O16 2.403968 1_555
Na11 O21 2.417044 1_555
Na11 O30 2.432777 1_555
Na11 O0 2.464643 1_555
Na11 O11 2.709791 1_556
Na11 O8 2.749728 1_555
Ga0 O14 1.899908 1_555
Ga0 O30 1.977264 1_555
Ga0 O39 1.989424 1_455
Ga0 O40 1.998016 1_555
Ga0 O16 2.022101 1_555
Ga0 O0 2.106731 1_555
Ga1 O31 1.923054 1_556
Ga1 O15 1.970507 1_556
Ga1 O38 1.974464 1_656
Ga1 O17 2.027556 1_555
Ga1 O1 2.034588 1_555
Ga1 O41 2.051366 1_555
Ga2 O28 1.923054 1_555
Ga2 O12 1.970507 1_555
Ga2 O37 1.974464 1_655
Ga2 O18 2.027556 1_555
Ga2 O2 2.034588 1_555
Ga2 O42 2.051366 1_555
Ga3 O13 1.899908 1_554
Ga3 O29 1.977264 1_554
Ga3 O36 1.989424 1_454
Ga3 O43 1.998016 1_555
Ga3 O19 2.022101 1_555
Ga3 O3 2.106731 1_555
Ga4 O10 1.899908 1_555
Ga4 O26 1.977264 1_555
Ga4 O35 1.989424 1_555
Ga4 O44 1.998016 1_555
Ga4 O20 2.022101 1_555
Ga4 O4 2.106731 1_555
Ga5 O27 1.923054 1_556
Ga5 O11 1.970507 1_556
Ga5 O34 1.974464 1_556
Ga5 O21 2.027556 1_555
Ga5 O5 2.034588 1_555
Ga5 O45 2.051366 1_555
Ga6 O24 1.923054 1_555
Ga6 O8 1.970507 1_555
Ga6 O33 1.974464 1_555
Ga6 O22 2.027556 1_555
Ga6 O6 2.034588 1_555
Ga6 O46 2.051366 1_555
Ga7 O9 1.899908 1_554
Ga7 O25 1.977264 1_554
Ga7 O32 1.989424 1_554
Ga7 O47 1.998016 1_555
Ga7 O23 2.022101 1_555
Ga7 O7 2.106731 1_555
O0 P9 1.568473 1_555
O1 P8 1.545981 1_555
O2 P11 1.545981 1_555
O3 P10 1.568473 1_555
O4 P5 1.568473 1_545
O5 P4 1.545981 1_545
O6 P7 1.545981 1_565
O7 P6 1.568473 1_565
O8 P2 1.550171 1_555
O9 P2 1.532974 1_555
O10 P3 1.532974 1_555
O11 P3 1.550171 1_555
O12 P0 1.550171 1_645
O13 P0 1.532974 1_545
O14 P1 1.532974 1_565
O15 P1 1.550171 1_665
O16 P4 1.550867 1_555
O17 P5 1.545964 1_555
O18 P6 1.545964 1_555
O19 P7 1.550867 1_555
O20 P8 1.550867 1_555
O21 P9 1.545964 1_555
O22 P10 1.545964 1_555
O23 P11 1.550867 1_555
O24 P4 1.540621 1_555
O25 P5 1.555064 1_555
O26 P6 1.555064 1_555
O27 P7 1.540621 1_555
O28 P8 1.540621 1_555
O29 P9 1.555064 1_555
O30 P10 1.555064 1_555
O31 P11 1.540621 1_555
O32 P4 1.556290 1_555
O33 P5 1.540235 1_555
O34 P6 1.540235 1_555
O35 P7 1.556290 1_555
O36 P8 1.556290 1_555
O37 P9 1.540235 1_555
O38 P10 1.540235 1_555
O39 P11 1.556290 1_555
O40 P0 1.548200 1_555
O41 P0 1.567350 1_655
O42 P1 1.567350 1_655
O43 P1 1.548200 1_555
O44 P2 1.548200 1_555
O45 P2 1.567350 1_555
O46 P3 1.567350 1_555
O47 P3 1.548200 1_555
