# generated using pymatgen
data_Hf8Ni21
_symmetry_space_group_name_H-M   'P 1'
_cell_length_a   6.40978900
_cell_length_b   7.98549741
_cell_length_c   8.52816391
_cell_angle_alpha   75.13001413
_cell_angle_beta   68.12599949
_cell_angle_gamma   75.46243674
_symmetry_Int_Tables_number   1
_chemical_formula_structural   Hf8Ni21
_chemical_formula_sum   'Hf8 Ni21'
_cell_volume   385.60244609
_cell_formula_units_Z   1
loop_
 _symmetry_equiv_pos_site_id
 _symmetry_equiv_pos_as_xyz
  1  'x, y, z'
loop_
 _atom_site_type_symbol
 _atom_site_label
 _atom_site_symmetry_multiplicity
 _atom_site_fract_x
 _atom_site_fract_y
 _atom_site_fract_z
 _atom_site_occupancy
  Hf  Hf0  1  0.75303400  0.06301900  0.46578800  1
  Hf  Hf1  1  0.24696600  0.93698100  0.53421200  1
  Hf  Hf2  1  0.56881200  0.53662900  0.74530900  1
  Hf  Hf3  1  0.43118800  0.46337100  0.25469100  1
  Hf  Hf4  1  0.93022100  0.59668300  0.18552500  1
  Hf  Hf5  1  0.06977900  0.40331700  0.81447500  1
  Hf  Hf6  1  0.75219200  0.93776900  0.89272300  1
  Hf  Hf7  1  0.24780800  0.06223100  0.10727700  1
  Ni  Ni0  1  0.00000000  0.50000000  0.50000000  1
  Ni  Ni1  1  0.51431200  0.11747800  0.25795800  1
  Ni  Ni2  1  0.48568800  0.88252200  0.74204200  1
  Ni  Ni3  1  0.90088800  0.21720600  0.65467600  1
  Ni  Ni4  1  0.09911200  0.78279400  0.34532400  1
  Ni  Ni5  1  0.69618400  0.25458400  0.95851800  1
  Ni  Ni6  1  0.30381600  0.74541600  0.04148200  1
  Ni  Ni7  1  0.86364400  0.28891400  0.15713700  1
  Ni  Ni8  1  0.11905800  0.05381000  0.84989600  1
  Ni  Ni9  1  0.88094200  0.94619000  0.15010400  1
  Ni  Ni10  1  0.48330100  0.20615200  0.77636500  1
  Ni  Ni11  1  0.51669900  0.79384800  0.22363500  1
  Ni  Ni12  1  0.31924000  0.24269800  0.54871500  1
  Ni  Ni13  1  0.68076000  0.75730200  0.45128500  1
  Ni  Ni14  1  0.09864300  0.25839600  0.34713300  1
  Ni  Ni15  1  0.90135700  0.74160400  0.65286700  1
  Ni  Ni16  1  0.28687100  0.39064200  0.02867700  1
  Ni  Ni17  1  0.71312900  0.60935800  0.97132300  1
  Ni  Ni18  1  0.31651100  0.59905400  0.53705400  1
  Ni  Ni19  1  0.68348900  0.40094600  0.46294600  1
  Ni  Ni20  1  0.13635600  0.71108600  0.84286300  1
loop_
_geom_bond_atom_site_label_1
_geom_bond_atom_site_label_2
_geom_bond_distance
_geom_bond_site_symmetry_2
Hf0 Ni19 2.617607 1_555
Hf0 Ni13 2.637293 1_545
Hf0 Ni1 2.638770 1_555
Hf0 Ni2 2.655814 1_545
Hf0 Ni12 2.709777 1_555
Hf0 Ni7 2.738560 1_555
Hf0 Ni14 2.760451 1_655
Hf0 Ni3 2.783954 1_555
Hf0 Ni15 2.800086 1_545
Hf0 Ni4 2.823730 1_645
Hf0 Ni9 2.837420 1_545
Hf0 Ni10 2.908692 1_555
Hf1 Ni18 2.617607 1_555
Hf1 Ni12 2.637293 1_565
Hf1 Ni2 2.638770 1_555
Hf1 Ni1 2.655814 1_565
Hf1 Ni13 2.709777 1_555
Hf1 Ni20 2.738560 1_555
Hf1 Ni15 2.760451 1_455
Hf1 Ni4 2.783954 1_555
Hf1 Ni14 2.800086 1_565
Hf1 Ni3 2.823730 1_465
Hf1 Ni8 2.837420 1_565
Hf1 Ni11 2.908692 1_555
Hf2 Ni16 2.611986 1_556
Hf2 Ni13 2.633227 1_555
Hf2 Ni17 2.661023 1_555
Hf2 Ni5 2.669555 1_555
Hf2 Ni19 2.670823 1_555
Hf2 Ni2 2.673340 1_555
Hf2 Ni20 2.693414 1_555
Hf2 Ni18 2.701695 1_555
Hf2 Ni10 2.755771 1_555
Hf2 Ni15 2.771518 1_555
Hf2 Ni0 2.775020 1_655
Hf2 Ni3 2.948683 1_555
Hf3 Ni17 2.611986 1_554
Hf3 Ni12 2.633227 1_555
Hf3 Ni16 2.661023 1_555
Hf3 Ni6 2.669555 1_555
Hf3 Ni18 2.670823 1_555
Hf3 Ni1 2.673340 1_555
Hf3 Ni7 2.693414 1_555
Hf3 Ni19 2.701695 1_555
Hf3 Ni11 2.755771 1_555
Hf3 Ni14 2.771518 1_555
Hf3 Ni0 2.775020 1_555
Hf3 Ni4 2.948683 1_555
Hf4 Ni16 2.585572 1_655
Hf4 Ni17 2.648028 1_554
Hf4 Ni19 2.663960 1_555
Hf4 Ni13 2.664713 1_555
Hf4 Ni11 2.671295 1_555
Hf4 Ni6 2.672297 1_655
Hf4 Ni9 2.678886 1_555
Hf4 Ni7 2.681390 1_555
Hf4 Ni20 2.734736 1_654
Hf4 Ni0 2.765212 1_655
Hf4 Ni14 2.845368 1_655
Hf4 Ni4 2.860841 1_655
Hf5 Ni17 2.585572 1_455
Hf5 Ni16 2.648028 1_556
Hf5 Ni18 2.663960 1_555
Hf5 Ni12 2.664713 1_555
Hf5 Ni10 2.671295 1_555
Hf5 Ni5 2.672297 1_455
Hf5 Ni8 2.678886 1_555
Hf5 Ni20 2.681390 1_555
Hf5 Ni7 2.734736 1_456
Hf5 Ni0 2.765212 1_555
Hf5 Ni15 2.845368 1_455
Hf5 Ni3 2.860841 1_455
Hf6 Ni17 2.586888 1_555
Hf6 Ni8 2.608073 1_665
Hf6 Ni10 2.622385 1_565
Hf6 Ni20 2.626429 1_655
Hf6 Ni9 2.637599 1_556
Hf6 Ni5 2.639466 1_565
Hf6 Ni15 2.643405 1_555
Hf6 Ni2 2.658759 1_555
Hf6 Ni3 2.703695 1_565
Hf6 Ni11 2.756001 1_556
Hf7 Ni16 2.586888 1_555
Hf7 Ni9 2.608073 1_445
Hf7 Ni11 2.622385 1_545
Hf7 Ni7 2.626429 1_455
Hf7 Ni8 2.637599 1_554
Hf7 Ni6 2.639466 1_545
Hf7 Ni14 2.643405 1_555
Hf7 Ni1 2.658759 1_555
Hf7 Ni4 2.703695 1_545
Hf7 Ni10 2.756001 1_554
Ni0 Ni4 2.410437 1_555
Ni0 Ni3 2.410437 1_455
Ni0 Ni15 2.426103 1_455
Ni0 Ni14 2.426103 1_555
Ni0 Ni18 2.500611 1_555
Ni0 Ni19 2.500611 1_455
Ni0 Ni13 2.581879 1_455
Ni0 Ni12 2.581879 1_555
Ni1 Ni9 2.379270 1_545
Ni1 Ni5 2.463021 1_554
Ni1 Ni14 2.523423 1_555
Ni1 Ni12 2.654527 1_555
Ni1 Ni7 2.669722 1_555
Ni1 Ni11 2.670175 1_545
Ni1 Ni16 3.007557 1_555
Ni2 Ni8 2.379270 1_565
Ni2 Ni6 2.463021 1_556
Ni2 Ni20 2.669722 1_555
Ni3 Ni8 2.476632 1_655
Ni3 Ni5 2.488382 1_555
Ni4 Ni9 2.476632 1_455
Ni4 Ni6 2.488382 1_555
Ni5 Ni7 2.416046 1_556
Ni5 Ni8 2.735919 1_655
Ni5 Ni9 2.837124 1_546
Ni6 Ni9 2.735919 1_455
Ni6 Ni8 2.837124 1_564
Ni7 Ni9 2.726360 1_545
Ni8 Ni9 2.498069 1_446
Ni10 Ni12 2.456949 1_555
Ni10 Ni3 2.500199 1_555
Ni10 Ni5 2.564654 1_555
Ni10 Ni16 2.657605 1_556
Ni10 Ni2 2.670175 1_545
Ni10 Ni8 2.695833 1_555
Ni10 Ni19 2.742800 1_555
Ni11 Ni13 2.456949 1_555
Ni11 Ni4 2.500199 1_555
Ni11 Ni6 2.564654 1_555
Ni11 Ni17 2.657605 1_554
Ni11 Ni9 2.695833 1_555
Ni11 Ni18 2.742800 1_555
Ni12 Ni3 2.534316 1_455
Ni12 Ni14 2.565565 1_555
Ni12 Ni8 2.654481 1_555
Ni12 Ni19 2.705051 1_555
Ni12 Ni18 2.817649 1_555
Ni13 Ni4 2.534316 1_655
Ni13 Ni15 2.565565 1_555
Ni13 Ni9 2.654481 1_555
Ni13 Ni2 2.654527 1_555
Ni13 Ni18 2.705051 1_555
Ni13 Ni19 2.817649 1_555
Ni14 Ni3 2.425527 1_455
Ni14 Ni7 2.526937 1_455
Ni14 Ni19 2.539766 1_455
Ni14 Ni16 2.583166 1_555
Ni15 Ni4 2.425527 1_655
Ni15 Ni2 2.523423 1_555
Ni15 Ni20 2.526937 1_655
Ni15 Ni18 2.539766 1_655
Ni15 Ni17 2.583166 1_555
Ni16 Ni5 2.480867 1_554
Ni16 Ni7 2.766664 1_455
Ni16 Ni20 2.794362 1_554
Ni16 Ni6 2.893438 1_555
Ni17 Ni6 2.480867 1_556
Ni17 Ni20 2.766664 1_655
Ni17 Ni7 2.794362 1_556
Ni17 Ni5 2.893438 1_555
Ni17 Ni2 3.007557 1_555
Ni18 Ni19 2.443862 1_555
Ni18 Ni4 2.491621 1_555
Ni18 Ni20 2.714825 1_555
Ni19 Ni3 2.491621 1_555
Ni19 Ni7 2.714825 1_555
Ni20 Ni6 2.416046 1_556
Ni20 Ni8 2.726360 1_565
