# generated using pymatgen
data_Na7Y2Ta2Si5PO24
_symmetry_space_group_name_H-M   'P 1'
_cell_length_a   9.30260951
_cell_length_b   9.31546901
_cell_length_c   22.53193718
_cell_angle_alpha   90.15092975
_cell_angle_beta   89.87702455
_cell_angle_gamma   119.93194285
_symmetry_Int_Tables_number   1
_chemical_formula_structural   Na7Y2Ta2Si5PO24
_chemical_formula_sum   'Na21 Y6 Ta6 Si15 P3 O72'
_cell_volume   1692.13262591
_cell_formula_units_Z   3
loop_
 _symmetry_equiv_pos_site_id
 _symmetry_equiv_pos_as_xyz
  1  'x, y, z'
loop_
 _atom_site_type_symbol
 _atom_site_label
 _atom_site_symmetry_multiplicity
 _atom_site_fract_x
 _atom_site_fract_y
 _atom_site_fract_z
 _atom_site_occupancy
  Na  Na0  1  0.65612623  0.01814388  0.24985675  1
  Na  Na1  1  0.36917767  0.35651412  0.24537314  1
  Na  Na2  1  0.98421347  0.63023730  0.24541024  1
  Na  Na3  1  0.64067837  0.62739726  0.74717428  1
  Na  Na4  1  0.98362890  0.34873093  0.74656261  1
  Na  Na5  1  0.36727579  0.01734834  0.74582962  1
  Na  Na6  1  0.31465195  0.34516364  0.58151019  1
  Na  Na7  1  0.03573437  0.69181010  0.57778876  1
  Na  Na8  1  0.65210184  0.96108410  0.57909651  1
  Na  Na9  1  0.30127025  0.96426819  0.07365727  1
  Na  Na10  1  0.03495295  0.34907437  0.08002149  1
  Na  Na11  1  0.98692683  0.68175670  0.91254537  1
  Na  Na12  1  0.31566578  0.28928257  0.91234274  1
  Na  Na13  1  0.32011308  0.01909861  0.41222445  1
  Na  Na14  1  0.70912669  0.68114544  0.41161516  1
  Na  Na15  1  0.99029628  0.00473672  0.49601206  1
  Na  Na16  1  0.98124849  0.99899279  0.99739998  1
  Na  Na17  1  0.66789796  0.31837748  0.83056185  1
  Na  Na18  1  0.68030036  0.33281889  0.33110164  1
  Na  Na19  1  0.34053914  0.65535123  0.16229258  1
  Na  Na20  1  0.33556733  0.66616532  0.66191957  1
  Y  Y0  1  0.99915976  0.00612614  0.35121028  1
  Y  Y1  1  0.99434449  0.00169096  0.85232326  1
  Y  Y2  1  0.66749957  0.33383289  0.68254162  1
  Y  Y3  1  0.66583377  0.33805740  0.18188287  1
  Y  Y4  1  0.33891449  0.66630918  0.01842726  1
  Y  Y5  1  0.33134763  0.66554905  0.51529785  1
  Ta  Ta0  1  0.99827734  0.99807800  0.64722881  1
  Ta  Ta1  1  0.00244968  0.99757437  0.14768656  1
  Ta  Ta2  1  0.66569673  0.33404399  0.98105752  1
  Ta  Ta3  1  0.67345807  0.33246200  0.48130396  1
  Ta  Ta4  1  0.32861377  0.66854915  0.31385109  1
  Ta  Ta5  1  0.32962626  0.66975885  0.81343291  1
  Si  Si0  1  0.29463998  0.99135278  0.25170259  1
  Si  Si1  1  0.69916086  0.70945153  0.25215094  1
  Si  Si2  1  0.00841876  0.30159304  0.24749054  1
  Si  Si3  1  0.29112819  0.30101902  0.75177801  1
  Si  Si4  1  0.00840543  0.70757662  0.75199929  1
  Si  Si5  1  0.69685744  0.99004771  0.74873381  1
  Si  Si6  1  0.96214851  0.32189634  0.58519975  1
  Si  Si7  1  0.36252383  0.03938808  0.58322600  1
  Si  Si8  1  0.67643974  0.63600681  0.58407261  1
  Si  Si9  1  0.95979086  0.63880938  0.08372569  1
  Si  Si10  1  0.35958047  0.32278599  0.08566222  1
  Si  Si11  1  0.02949966  0.37476075  0.91925928  1
  Si  Si12  1  0.34578341  0.97000175  0.91913788  1
  Si  Si13  1  0.62655109  0.97141270  0.41865461  1
  Si  Si14  1  0.02733021  0.65502738  0.41844165  1
  P  P0  1  0.68179245  0.04760482  0.08367633  1
  P  P1  1  0.62130730  0.65031208  0.91513086  1
  P  P2  1  0.34941545  0.37733224  0.41654654  1
  O  O0  1  0.22315823  0.02528692  0.31123565  1
  O  O1  1  0.80545230  0.77868990  0.31181898  1
  O  O2  1  0.96474331  0.17830137  0.30179324  1
  O  O3  1  0.21818708  0.19281846  0.81069321  1
  O  O4  1  0.98196777  0.78291370  0.81187517  1
  O  O5  1  0.82015046  0.03326898  0.80296059  1
  O  O6  1  0.79739792  0.96617320  0.68934950  1
  O  O7  1  0.16170571  0.19343356  0.69394768  1
  O  O8  1  0.02873485  0.83488301  0.69451894  1
  O  O9  1  0.81047229  0.84363413  0.19645274  1
  O  O10  1  0.03250889  0.20233383  0.18795545  1
  O  O11  1  0.16450556  0.97129023  0.19471122  1
  O  O12  1  0.89273886  0.35671822  0.64546428  1
  O  O13  1  0.46802461  0.11395445  0.64286984  1
  O  O14  1  0.64592869  0.53439459  0.64454437  1
  O  O15  1  0.88880028  0.53189253  0.14321648  1
  O  O16  1  0.66106507  0.11728233  0.14230484  1
  O  O17  1  0.44816224  0.33179529  0.14733865  1
  O  O18  1  0.47509661  0.30830216  0.02907163  1
  O  O19  1  0.83392359  0.52708735  0.02646045  1
  O  O20  1  0.69739306  0.17230825  0.03165130  1
  O  O21  1  0.47072742  0.16830075  0.52601648  1
  O  O22  1  0.69321292  0.52442757  0.52722609  1
  O  O23  1  0.82871160  0.30478099  0.52972603  1
  O  O24  1  0.54299999  0.67193495  0.97054450  1
  O  O25  1  0.13048701  0.45841710  0.97893580  1
  O  O26  1  0.32038632  0.86666897  0.97841551  1
  O  O27  1  0.54743703  0.87413707  0.47941671  1
  O  O28  1  0.33114779  0.44956030  0.47489940  1
  O  O29  1  0.12616850  0.67764209  0.47893841  1
  O  O30  1  0.13879133  0.63933211  0.36104301  1
  O  O31  1  0.49370441  0.85702150  0.36213698  1
  O  O32  1  0.36028606  0.49334446  0.36287462  1
  O  O33  1  0.14212727  0.50560734  0.86181337  1
  O  O34  1  0.36231300  0.85974180  0.86112177  1
  O  O35  1  0.51051531  0.63336656  0.85916426  1
  O  O36  1  0.00572505  0.81669642  0.41356433  1
  O  O37  1  0.80654288  0.98813880  0.41391486  1
  O  O38  1  0.20699099  0.19831970  0.41171214  1
  O  O39  1  0.01310413  0.19489829  0.91506030  1
  O  O40  1  0.18527583  0.99398386  0.91387321  1
  O  O41  1  0.80234605  0.78900470  0.91116016  1
  O  O42  1  0.95729340  0.14124831  0.58705673  1
  O  O43  1  0.18355463  0.03991910  0.58795767  1
  O  O44  1  0.85639729  0.81360894  0.58719836  1
  O  O45  1  0.96538152  0.82055587  0.08928254  1
  O  O46  1  0.84900454  0.04590652  0.08396191  1
  O  O47  1  0.17858958  0.14239234  0.08576782  1
  O  O48  1  0.65575103  0.13926916  0.74507792  1
  O  O49  1  0.47910441  0.33567680  0.74560697  1
  O  O50  1  0.85778161  0.51890110  0.74688027  1
  O  O51  1  0.66375723  0.52154865  0.24491356  1
  O  O52  1  0.85846584  0.34192625  0.24424715  1
  O  O53  1  0.48512348  0.13653307  0.24453745  1
  O  O54  1  0.62082307  0.47955843  0.91976862  1
  O  O55  1  0.84946891  0.37459529  0.92177069  1
  O  O56  1  0.51654952  0.15637437  0.92397146  1
  O  O57  1  0.62456862  0.14997490  0.42077349  1
  O  O58  1  0.51905005  0.37812660  0.41731654  1
  O  O59  1  0.84189720  0.48394055  0.42173296  1
  O  O60  1  0.32264620  0.47413806  0.08228752  1
  O  O61  1  0.14950664  0.67537930  0.07914247  1
  O  O62  1  0.53069472  0.87670442  0.07602118  1
  O  O63  1  0.32710110  0.85066944  0.57907595  1
  O  O64  1  0.52206877  0.66906838  0.57862397  1
  O  O65  1  0.15098540  0.47146672  0.57804038  1
  O  O66  1  0.28915776  0.80823343  0.25593950  1
  O  O67  1  0.51824335  0.70705921  0.25686856  1
  O  O68  1  0.18922717  0.47869651  0.25653592  1
  O  O69  1  0.29189518  0.48073306  0.75631445  1
  O  O70  1  0.19002142  0.70836561  0.75546812  1
  O  O71  1  0.51995013  0.80946585  0.75627191  1
loop_
_geom_bond_atom_site_label_1
_geom_bond_atom_site_label_2
_geom_bond_distance
_geom_bond_site_symmetry_2
Na0 O53 2.348082 1_555
Na0 O67 2.521937 1_545
Na0 O16 2.587781 1_555
Na0 O52 2.644181 1_555
Na0 O2 2.751074 1_555
Na0 O9 2.909263 1_545
Na0 O31 2.945597 1_545
Na0 O66 2.972210 1_545
Na1 O17 2.373050 1_555
Na1 O51 2.380938 1_555
Na1 O68 2.461531 1_555
Na1 O53 2.751093 1_555
Na1 O67 2.851598 1_555
Na2 O52 2.333844 1_555
Na2 O15 2.472927 1_555
Na2 O66 2.481881 1_655
Na2 O51 2.626801 1_555
Na2 O68 2.895445 1_655
Na3 O49 2.359842 1_555
Na3 O71 2.465365 1_555
Na3 O14 2.476204 1_555
Na3 O50 2.671584 1_555
Na3 O35 2.808897 1_555
Na3 O69 2.830416 1_555
Na4 O50 2.394875 1_555
Na4 O12 2.445688 1_555
Na4 O69 2.503238 1_655
Na4 O48 2.678154 1_555
Na4 O5 2.848667 1_555
Na4 O70 2.920497 1_655
Na4 O7 2.935417 1_655
Na4 O33 2.983163 1_655
Na5 O48 2.334542 1_555
Na5 O13 2.496015 1_555
Na5 O70 2.513211 1_545
Na5 O49 2.607153 1_555
Na6 O65 2.344609 1_555
Na6 O43 2.476822 1_555
Na6 O28 2.569323 1_555
Na6 O64 2.649908 1_555
Na6 O42 2.893613 1_455
Na6 O7 2.904642 1_555
Na6 O21 2.958798 1_555
Na6 O14 3.034148 1_555
Na7 O63 2.352600 1_555
Na7 O29 2.405658 1_555
Na7 O44 2.449843 1_455
Na7 O65 2.749347 1_555
Na7 O43 2.829590 1_565
Na8 O64 2.362056 1_555
Na8 O27 2.421004 1_555
Na8 O42 2.480890 1_565
Na8 O63 2.663702 1_555
Na8 O44 2.853208 1_555
Na9 O61 2.336695 1_555
Na9 O26 2.369156 1_554
Na9 O47 2.452813 1_565
Na9 O62 2.638416 1_555
Na9 O45 2.739132 1_455
Na9 O18 2.955221 1_565
Na9 O11 3.021565 1_555
Na10 O60 2.326198 1_555
Na10 O46 2.470106 1_455
Na10 O25 2.472894 1_554
Na10 O61 2.672702 1_555
Na10 O10 2.787433 1_555
Na10 O47 2.842272 1_555
Na10 O20 2.933454 1_455
Na10 O15 3.010973 1_455
Na11 O41 2.379038 1_555
Na11 O4 2.467865 1_555
Na11 O55 2.493256 1_555
Na11 O40 2.551319 1_655
Na12 O40 2.389589 1_545
Na12 O3 2.461795 1_555
Na12 O54 2.491474 1_555
Na12 O39 2.495753 1_555
Na12 O56 2.721488 1_555
Na12 O18 2.983400 1_556
Na12 O35 3.034493 1_555
Na13 O38 2.376614 1_555
Na13 O0 2.460889 1_555
Na13 O57 2.469869 1_555
Na13 O36 2.570279 1_545
Na13 O58 2.906190 1_555
Na13 O21 2.919251 1_555
Na13 O31 2.928704 1_545
Na14 O36 2.394288 1_655
Na14 O1 2.423716 1_555
Na14 O58 2.476091 1_555
Na14 O37 2.532875 1_555
Na14 O59 2.686999 1_555
Na14 O22 2.956625 1_555
Na14 O32 3.022778 1_555
Na15 O37 2.473057 1_545
Na15 O42 2.508558 1_555
Na15 O44 2.595773 1_545
Na15 O36 2.602437 1_645
Na15 O43 2.656299 1_655
Na15 O38 2.701351 1_655
Na16 O46 2.455655 1_566
Na16 O39 2.517158 1_665
Na16 O47 2.583304 1_666
Na16 O45 2.615885 1_556
Na16 O41 2.667790 1_555
Na16 O40 2.686841 1_655
Na17 O48 2.510453 1_555
Na17 O55 2.545040 1_555
Na17 O56 2.563816 1_555
Na17 O50 2.622235 1_555
Na17 O49 2.659533 1_555
Na17 O54 2.668858 1_555
Na18 O59 2.509569 1_555
Na18 O57 2.526791 1_555
Na18 O52 2.535875 1_555
Na18 O58 2.610923 1_555
Na18 O53 2.669759 1_555
Na18 O51 2.678656 1_555
Na19 O60 2.414913 1_555
Na19 O67 2.592480 1_555
Na19 O68 2.625369 1_555
Na19 O61 2.655189 1_555
Na19 O66 2.714440 1_555
Na19 O62 2.743342 1_555
Na20 O64 2.544144 1_555
Na20 O63 2.568501 1_555
Na20 O65 2.588025 1_555
Na20 O70 2.635382 1_555
Na20 O71 2.638065 1_555
Na20 O69 2.643471 1_555
O0 Si0 1.595355 1_545
O0 Y0 2.192453 1_455
O1 Si1 1.601847 1_555
O1 Y0 2.170414 1_565
O2 Si2 1.587711 1_655
O2 Y0 2.106695 1_555
O3 Si3 1.599752 1_555
O3 Y1 2.164828 1_455
O4 Si4 1.593413 1_655
O4 Y1 2.180334 1_565
O5 Si5 1.585263 1_545
O5 Y1 2.105861 1_555
O6 Si5 1.707405 1_555
O6 Ta0 1.980081 1_555
O7 Si3 1.716845 1_555
O7 Ta0 1.991731 1_445
O8 Si4 1.703758 1_555
O8 Ta0 1.991595 1_455
O9 Si1 1.709000 1_555
O9 Ta1 1.974164 1_655
O10 Si2 1.704001 1_555
O10 Ta1 1.999859 1_545
O11 Si0 1.711450 1_555
O11 Ta1 1.957519 1_555
O12 Si6 1.602780 1_555
O12 Y2 2.163647 1_555
O13 Si7 1.603800 1_555
O13 Y2 2.154595 1_555
O14 Si8 1.603153 1_555
O14 Y2 2.155738 1_555
O15 Si9 1.603662 1_555
O15 Y3 2.141175 1_555
O16 P0 1.524089 1_555
O16 Y3 2.219545 1_555
O17 Si10 1.597689 1_555
O17 Y3 2.144330 1_555
O18 Si10 1.713693 1_555
O18 Ta2 1.985079 1_554
O19 Si9 1.703621 1_555
O19 Ta2 1.979448 1_554
O20 P0 1.607126 1_555
O20 Ta2 2.027384 1_554
O21 Si7 1.706820 1_555
O21 Ta3 2.008015 1_555
O22 Si8 1.702737 1_555
O22 Ta3 1.991320 1_555
O23 Si6 1.713682 1_555
O23 Ta3 1.929420 1_555
O24 P1 1.507108 1_555
O24 Y4 2.159485 1_556
O25 Si11 1.602245 1_555
O25 Y4 2.133723 1_556
O26 Si12 1.595244 1_555
O26 Y4 2.157933 1_556
O27 Si13 1.604326 1_555
O27 Y5 2.138567 1_555
O28 P2 1.522755 1_555
O28 Y5 2.205331 1_555
O29 Si14 1.599503 1_555
O29 Y5 2.132786 1_555
O30 Si14 1.706946 1_555
O30 Ta4 1.958772 1_555
O31 Si13 1.723331 1_555
O31 Ta4 1.982697 1_555
O32 P2 1.593091 1_555
O32 Ta4 2.112231 1_555
O33 Si11 1.728259 1_555
O33 Ta5 1.976837 1_555
O34 Si12 1.713802 1_555
O34 Ta5 1.957941 1_555
O35 P1 1.587309 1_555
O35 Ta5 2.141700 1_555
O36 Si14 1.619755 1_555
O36 Y0 2.283095 1_465
O37 Si13 1.605691 1_555
O37 Y0 2.219388 1_565
O38 P2 1.530657 1_555
O38 Y0 2.312113 1_455
O39 Si11 1.607398 1_555
O39 Y1 2.223113 1_455
O40 Si12 1.620874 1_555
O40 Y1 2.285077 1_465
O41 P1 1.530392 1_555
O41 Y1 2.311987 1_565
O42 Si6 1.661383 1_555
O42 Ta0 2.069171 1_545
O43 Si7 1.670531 1_555
O43 Ta0 2.056352 1_445
O44 Si8 1.667515 1_555
O44 Ta0 2.063136 1_555
O45 Si9 1.672080 1_555
O45 Ta1 1.998234 1_655
O46 P0 1.563490 1_555
O46 Ta1 2.226096 1_645
O47 Si10 1.683805 1_555
O47 Ta1 2.060439 1_545
O48 Si5 1.617561 1_545
O48 Y2 2.257765 1_555
O49 Si3 1.617777 1_555
O49 Y2 2.260576 1_555
O50 Si4 1.614857 1_655
O50 Y2 2.271452 1_555
O51 Si1 1.619382 1_555
O51 Y3 2.226909 1_555
O52 Si2 1.617412 1_655
O52 Y3 2.265643 1_555
O53 Si0 1.613519 1_545
O53 Y3 2.279830 1_555
O54 P1 1.592115 1_555
O54 Ta2 2.120332 1_555
O55 Si11 1.674822 1_655
O55 Ta2 2.048945 1_555
O56 Si12 1.672441 1_545
O56 Ta2 2.005892 1_555
O57 Si13 1.673224 1_545
O57 Ta3 2.043458 1_555
O58 P2 1.574498 1_555
O58 Ta3 2.223680 1_555
O59 Si14 1.666644 1_655
O59 Ta3 2.010596 1_555
O60 Si10 1.611149 1_555
O60 Y4 2.245058 1_555
O61 Si9 1.625065 1_455
O61 Y4 2.262932 1_555
O62 P0 1.518699 1_565
O62 Y4 2.283709 1_555
O63 Si7 1.621437 1_565
O63 Y5 2.257251 1_555
O64 Si8 1.616942 1_555
O64 Y5 2.266579 1_555
O65 Si6 1.615755 1_455
O65 Y5 2.249115 1_555
O66 Si0 1.683934 1_555
O66 Ta4 2.004543 1_555
O67 Si1 1.675147 1_555
O67 Ta4 2.061603 1_555
O68 Si2 1.680160 1_555
O68 Ta4 2.045378 1_555
O69 Si3 1.673428 1_555
O69 Ta5 2.062376 1_555
O70 Si4 1.687825 1_555
O70 Ta5 1.999395 1_555
O71 Si5 1.674690 1_555
O71 Ta5 2.046174 1_555
