# generated using pymatgen
data_TiNiSb
_symmetry_space_group_name_H-M   'P 1'
_cell_length_a   4.18035196
_cell_length_b   4.18035122
_cell_length_c   4.18035091
_cell_angle_alpha   59.99999448
_cell_angle_beta   60.00000028
_cell_angle_gamma   59.99999435
_symmetry_Int_Tables_number   1
_chemical_formula_structural   TiNiSb
_chemical_formula_sum   'Ti1 Ni1 Sb1'
_cell_volume   51.65630349
_cell_formula_units_Z   1
loop_
 _symmetry_equiv_pos_site_id
 _symmetry_equiv_pos_as_xyz
  1  'x, y, z'
loop_
 _atom_site_type_symbol
 _atom_site_label
 _atom_site_symmetry_multiplicity
 _atom_site_fract_x
 _atom_site_fract_y
 _atom_site_fract_z
 _atom_site_occupancy
  Ti  Ti0  1  0.25000000  0.25000000  0.25000000  1
  Ni  Ni0  1  -0.00000000  0.00000000  0.00000000  1
  Sb  Sb0  1  0.75000000  0.75000000  0.75000000  1
loop_
_geom_bond_atom_site_label_1
_geom_bond_atom_site_label_2
_geom_bond_distance
_geom_bond_site_symmetry_2
Ni0 Sb0 2.559932 1_445
Ni0 Ti0 2.559932 1_554
Ni0 Ti0 2.559932 1_545
Ni0 Sb0 2.559932 1_454
Ni0 Sb0 2.559932 1_444
Ni0 Ti0 2.559932 1_555
Ni0 Ti0 2.559932 1_455
Ni0 Sb0 2.559932 1_544
Sb0 Ti0 2.955955 1_565
Sb0 Ti0 2.955955 1_655
Sb0 Ti0 2.955955 1_566
Sb0 Ti0 2.955955 1_656
Sb0 Ti0 2.955955 1_665
Sb0 Ti0 2.955955 1_556
