# generated using pymatgen
data_MgGa4(CuO4)2
_symmetry_space_group_name_H-M   'P 1'
_cell_length_a   6.34019912
_cell_length_b   5.99707190
_cell_length_c   5.80089700
_cell_angle_alpha   61.07533855
_cell_angle_beta   62.77370723
_cell_angle_gamma   60.99462984
_symmetry_Int_Tables_number   1
_chemical_formula_structural   MgGa4(CuO4)2
_chemical_formula_sum   'Mg1 Ga4 Cu2 O8'
_cell_volume   161.51543510
_cell_formula_units_Z   1
loop_
 _symmetry_equiv_pos_site_id
 _symmetry_equiv_pos_as_xyz
  1  'x, y, z'
loop_
 _atom_site_type_symbol
 _atom_site_label
 _atom_site_symmetry_multiplicity
 _atom_site_fract_x
 _atom_site_fract_y
 _atom_site_fract_z
 _atom_site_occupancy
  Mg  Mg0  1  0.62500000  0.12500000  0.12500000  1
  Ga  Ga0  1  0.10227100  0.99463100  0.95154600  1
  Ga  Ga1  1  0.14772900  0.25536900  0.29845400  1
  Ga  Ga2  1  0.12500000  0.62500000  0.62500000  1
  Ga  Ga3  1  0.62500000  0.12500000  0.62500000  1
  Cu  Cu0  1  0.62500000  0.62500000  0.12500000  1
  Cu  Cu1  1  0.62500000  0.62500000  0.62500000  1
  O  O0  1  0.36067400  0.34668900  0.39158500  1
  O  O1  1  0.31797200  0.87651400  0.40275900  1
  O  O2  1  0.36067800  0.34670400  0.90106100  1
  O  O3  1  0.80012800  0.38751900  0.40617000  1
  O  O4  1  0.44987100  0.86248100  0.84383000  1
  O  O5  1  0.88932200  0.90329600  0.34893900  1
  O  O6  1  0.93202700  0.37348600  0.84724100  1
  O  O7  1  0.88932600  0.90331100  0.85841500  1
loop_
_geom_bond_atom_site_label_1
_geom_bond_atom_site_label_2
_geom_bond_distance
_geom_bond_site_symmetry_2
Mg0 O5 2.103377 1_545
Mg0 O2 2.103377 1_554
Mg0 O7 2.103381 1_544
Mg0 O0 2.103381 1_555
Mg0 O6 2.495344 1_554
Mg0 O1 2.495349 1_545
Ga0 O4 1.844086 1_555
Ga0 O6 1.892821 1_465
Ga0 O5 2.021116 1_456
Ga0 O7 2.021198 1_455
Ga1 O3 1.844091 1_455
Ga1 O1 1.892820 1_545
Ga1 O2 2.021116 1_554
Ga1 O0 2.021198 1_555
Ga2 O1 1.974704 1_555
Ga2 O6 1.974709 1_455
Ga2 O0 2.183581 1_555
Ga2 O7 2.183581 1_455
Ga2 O2 2.183666 1_555
Ga2 O5 2.183666 1_455
Ga3 O3 1.948130 1_555
Ga3 O4 1.948134 1_545
Ga3 O7 2.140966 1_545
Ga3 O0 2.140966 1_555
Ga3 O5 2.140996 1_545
Ga3 O2 2.140996 1_555
Cu0 O3 1.948851 1_555
Cu0 O4 1.948855 1_554
Cu0 O6 2.300886 1_554
Cu0 O1 2.300888 1_555
Cu0 O7 2.414595 1_554
Cu0 O0 2.414595 1_555
Cu1 O4 1.948879 1_555
Cu1 O3 1.948879 1_555
Cu1 O6 2.300929 1_555
Cu1 O1 2.300934 1_555
Cu1 O5 2.414511 1_555
Cu1 O2 2.414511 1_555
