# generated using pymatgen
data_Na6Y4Ta4Si7S5O48
_symmetry_space_group_name_H-M   'P 1'
_cell_length_a   18.20436260
_cell_length_b   9.05813011
_cell_length_c   23.33799559
_cell_angle_alpha   90.16266280
_cell_angle_beta   89.74065528
_cell_angle_gamma   119.87313316
_symmetry_Int_Tables_number   1
_chemical_formula_structural   Na6Y4Ta4Si7S5O48
_chemical_formula_sum   'Na18 Y12 Ta12 Si21 S15 O144'
_cell_volume   3337.00955788
_cell_formula_units_Z   3
loop_
 _symmetry_equiv_pos_site_id
 _symmetry_equiv_pos_as_xyz
  1  'x, y, z'
loop_
 _atom_site_type_symbol
 _atom_site_label
 _atom_site_symmetry_multiplicity
 _atom_site_fract_x
 _atom_site_fract_y
 _atom_site_fract_z
 _atom_site_occupancy
  Na  Na0  1  0.00198509  0.61369581  0.25494608  1
  Na  Na1  1  0.49904676  0.63810731  0.26227317  1
  Na  Na2  1  0.99853125  0.36404340  0.75366764  1
  Na  Na3  1  0.50256616  0.39073384  0.75065004  1
  Na  Na4  1  0.33130171  0.98390351  0.57577548  1
  Na  Na5  1  0.82990603  0.67600087  0.07914524  1
  Na  Na6  1  0.00070835  0.97486026  0.50203671  1
  Na  Na7  1  0.50147556  0.01562032  0.49481868  1
  Na  Na8  1  0.99433208  0.98411427  0.99722011  1
  Na  Na9  1  0.50291115  0.02896279  0.00493774  1
  Na  Na10  1  0.32714356  0.35997325  0.82656087  1
  Na  Na11  1  0.83167551  0.33270353  0.83619349  1
  Na  Na12  1  0.33354361  0.33363710  0.33898055  1
  Na  Na13  1  0.82355138  0.29432837  0.32902654  1
  Na  Na14  1  0.17159294  0.65438301  0.17690375  1
  Na  Na15  1  0.66692329  0.66627095  0.16913495  1
  Na  Na16  1  0.16615942  0.66967733  0.66201409  1
  Na  Na17  1  0.67129494  0.68931875  0.66787091  1
  Y  Y0  1  0.50609064  0.99565181  0.64194069  1
  Y  Y1  1  0.00484979  0.01347585  0.14398422  1
  Y  Y2  1  0.33535680  0.34529540  0.68788715  1
  Y  Y3  1  0.82450899  0.32960292  0.68552474  1
  Y  Y4  1  0.32554054  0.32156159  0.18823033  1
  Y  Y5  1  0.83512766  0.32663133  0.18928873  1
  Y  Y6  1  0.66637924  0.64759032  0.01010169  1
  Y  Y7  1  0.16395887  0.68247701  0.50976155  1
  Y  Y8  1  0.17356129  0.66804502  0.31677396  1
  Y  Y9  1  0.66770549  0.68151910  0.32118758  1
  Y  Y10  1  0.16606197  0.64528547  0.81769725  1
  Y  Y11  1  0.67290398  0.67743579  0.81566133  1
  Ta  Ta0  1  0.99138530  0.00708247  0.35716655  1
  Ta  Ta1  1  0.50200038  0.98357514  0.35916010  1
  Ta  Ta2  1  0.99521695  0.01541768  0.85407575  1
  Ta  Ta3  1  0.49249069  0.97706544  0.85691044  1
  Ta  Ta4  1  0.99902351  0.00120859  0.64309465  1
  Ta  Ta5  1  0.49958065  0.00150180  0.14567174  1
  Ta  Ta6  1  0.34181110  0.33006306  0.97933819  1
  Ta  Ta7  1  0.83426133  0.34691047  0.98374768  1
  Ta  Ta8  1  0.33482712  0.32031883  0.48421618  1
  Ta  Ta9  1  0.83501490  0.35370955  0.47557737  1
  Ta  Ta10  1  0.16791230  0.66768109  0.01737179  1
  Ta  Ta11  1  0.66606437  0.65142173  0.51396886  1
  Si  Si0  1  0.64207520  0.99943124  0.24937973  1
  Si  Si1  1  0.35898315  0.71865432  0.24985000  1
  Si  Si2  1  0.00245965  0.29946326  0.25118277  1
  Si  Si3  1  0.14219887  0.27913621  0.74915350  1
  Si  Si4  1  0.50246147  0.70568931  0.75078627  1
  Si  Si5  1  0.85578762  0.00101777  0.74733691  1
  Si  Si6  1  0.48497212  0.34125953  0.58552360  1
  Si  Si7  1  0.18633063  0.04139036  0.58610899  1
  Si  Si8  1  0.83090387  0.62865610  0.58366310  1
  Si  Si9  1  0.98409976  0.63008986  0.08422720  1
  Si  Si10  1  0.33219065  0.03475128  0.08374096  1
  Si  Si11  1  0.68597014  0.32961649  0.08573199  1
  Si  Si12  1  0.31230651  0.65562400  0.91904628  1
  Si  Si13  1  0.82230783  0.67003035  0.91733097  1
  Si  Si14  1  0.01534291  0.37234372  0.91780157  1
  Si  Si15  1  0.51689762  0.36112357  0.91041797  1
  Si  Si16  1  0.32003649  0.97020102  0.41729706  1
  Si  Si17  1  0.81172009  0.96834059  0.42032015  1
  Si  Si18  1  0.66553513  0.36959508  0.41343236  1
  Si  Si19  1  0.01605407  0.67146319  0.41012705  1
  Si  Si20  1  0.51510099  0.65510187  0.41859701  1
  S  S0  1  0.14151746  0.00129598  0.25438144  1
  S  S1  1  0.85694548  0.71850948  0.25187337  1
  S  S2  1  0.50148224  0.28129229  0.24849958  1
  S  S3  1  0.64123527  0.27964008  0.75492688  1
  S  S4  1  0.00147794  0.72467270  0.74918537  1
  S  S5  1  0.35763818  0.99715525  0.75272595  1
  S  S6  1  0.97906207  0.32848847  0.58433269  1
  S  S7  1  0.69143767  0.03697922  0.57699542  1
  S  S8  1  0.32957669  0.62427745  0.57954245  1
  S  S9  1  0.47714789  0.62715885  0.08265891  1
  S  S10  1  0.83057610  0.03682368  0.07929812  1
  S  S11  1  0.19065822  0.34277962  0.07696472  1
  S  S12  1  0.16895706  0.96587204  0.91999248  1
  S  S13  1  0.66608317  0.97801206  0.91713961  1
  S  S14  1  0.16626354  0.35352975  0.41730803  1
  O  O0  1  0.09236761  0.00721008  0.30382973  1
  O  O1  1  0.58872851  0.00150717  0.30696779  1
  O  O2  1  0.41693003  0.81974209  0.30657109  1
  O  O3  1  0.90911497  0.82147307  0.30230028  1
  O  O4  1  0.49482953  0.18258080  0.29932431  1
  O  O5  1  0.00051140  0.17975016  0.30790493  1
  O  O6  1  0.08880796  0.16831939  0.80735056  1
  O  O7  1  0.59206531  0.17539197  0.80486773  1
  O  O8  1  0.50007748  0.82009639  0.80856133  1
  O  O9  1  0.99503442  0.81161480  0.80097887  1
  O  O10  1  0.40971986  0.99797193  0.80334129  1
  O  O11  1  0.91321785  0.01484100  0.80716917  1
  O  O12  1  0.39611257  0.98370927  0.69890696  1
  O  O13  1  0.91147425  0.99319769  0.69222120  1
  O  O14  1  0.08291721  0.17074674  0.69326028  1
  O  O15  1  0.59663450  0.20330161  0.70090987  1
  O  O16  1  0.00485097  0.81683169  0.69549806  1
  O  O17  1  0.50405596  0.81091694  0.69485886  1
  O  O18  1  0.41086845  0.83184671  0.19131894  1
  O  O19  1  0.89770405  0.80714689  0.19774416  1
  O  O20  1  0.00503868  0.20038702  0.19408527  1
  O  O21  1  0.50392629  0.19345295  0.19356055  1
  O  O22  1  0.09785737  0.99047296  0.19981970  1
  O  O23  1  0.58306751  0.99573617  0.19254415  1
  O  O24  1  0.45113979  0.36572144  0.64667076  1
  O  O25  1  0.94150870  0.34724504  0.63849682  1
  O  O26  1  0.24799710  0.12762840  0.63955261  1
  O  O27  1  0.73393356  0.10438202  0.63286473  1
  O  O28  1  0.32504227  0.53707746  0.63328667  1
  O  O29  1  0.81356970  0.51809937  0.64108482  1
  O  O30  1  0.43810004  0.52892823  0.13489837  1
  O  O31  1  0.95357139  0.53730916  0.14498055  1
  O  O32  1  0.31194919  0.11097488  0.13954745  1
  O  O33  1  0.82654582  0.11614908  0.13274036  1
  O  O34  1  0.23428052  0.36618713  0.13182278  1
  O  O35  1  0.74984030  0.37051685  0.13794643  1
  O  O36  1  0.23964943  0.32903077  0.02931517  1
  O  O37  1  0.73570588  0.30882650  0.02736643  1
  O  O38  1  0.42328097  0.53275345  0.03148581  1
  O  O39  1  0.91415774  0.50774702  0.03316074  1
  O  O40  1  0.34383561  0.16630003  0.02928168  1
  O  O41  1  0.83562887  0.13977688  0.02872387  1
  O  O42  1  0.23532713  0.16142945  0.52838524  1
  O  O43  1  0.74190357  0.15289256  0.53069103  1
  O  O44  1  0.33471203  0.53064007  0.52933427  1
  O  O45  1  0.84542601  0.52399333  0.53013347  1
  O  O46  1  0.41404408  0.32081576  0.53454368  1
  O  O47  1  0.92660477  0.31092666  0.53460546  1
  O  O48  1  0.26355807  0.69274553  0.97125085  1
  O  O49  1  0.79126970  0.71512404  0.97663890  1
  O  O50  1  0.08601325  0.48467615  0.96764910  1
  O  O51  1  0.57039992  0.43313983  0.96792373  1
  O  O52  1  0.15755506  0.85370651  0.96974937  1
  O  O53  1  0.64725740  0.87072892  0.96794207  1
  O  O54  1  0.28771759  0.86497553  0.47689026  1
  O  O55  1  0.76315792  0.83163150  0.47153284  1
  O  O56  1  0.14772650  0.42415896  0.46814750  1
  O  O57  1  0.65267479  0.46558713  0.47005602  1
  O  O58  1  0.07133255  0.71276621  0.46727290  1
  O  O59  1  0.58421413  0.68451340  0.46860340  1
  O  O60  1  0.05133454  0.62825138  0.35359916  1
  O  O61  1  0.54149612  0.61168431  0.35734731  1
  O  O62  1  0.25758750  0.89149274  0.36429693  1
  O  O63  1  0.76139275  0.91067843  0.36123380  1
  O  O64  1  0.18082963  0.45685143  0.36601047  1
  O  O65  1  0.68904773  0.48687469  0.35840920  1
  O  O66  1  0.04368688  0.47282345  0.85745633  1
  O  O67  1  0.55033188  0.47383327  0.85398648  1
  O  O68  1  0.18752399  0.90130059  0.86787469  1
  O  O69  1  0.68041503  0.90343775  0.86582482  1
  O  O70  1  0.26009421  0.61701291  0.86098798  1
  O  O71  1  0.76128710  0.63211000  0.86405147  1
  O  O72  1  0.00007801  0.83396560  0.39950544  1
  O  O73  1  0.50847408  0.83202890  0.41329666  1
  O  O74  1  0.41499855  -0.00009290  0.40335410  1
  O  O75  1  0.90925509  0.99227616  0.41004987  1
  O  O76  1  0.09014102  0.17715005  0.40844681  1
  O  O77  1  0.58254140  0.18077671  0.40696970  1
  O  O78  1  0.01017002  0.18216183  0.91112449  1
  O  O79  1  0.49946233  0.16577057  0.90087290  1
  O  O80  1  0.09293883  0.98326416  0.91534847  1
  O  O81  1  0.59039561  0.00370132  0.90850460  1
  O  O82  1  0.40941143  0.82392804  0.90990019  1
  O  O83  1  0.92055023  0.82774402  0.90379655  1
  O  O84  1  0.48346076  0.16008695  0.57989362  1
  O  O85  1  0.98385669  0.16532324  0.58789249  1
  O  O86  1  0.09133010  0.02525442  0.59207282  1
  O  O87  1  0.60702615  0.02505900  0.57686288  1
  O  O88  1  0.40617544  0.79758042  0.57909847  1
  O  O89  1  0.91881128  0.81665885  0.59131324  1
  O  O90  1  0.47938870  0.79476093  0.08470152  1
  O  O91  1  0.98371412  0.80870683  0.07825509  1
  O  O92  1  0.41845763  0.02047717  0.08962621  1
  O  O93  1  0.90720088  0.01643931  0.07839380  1
  O  O94  1  0.10593976  0.18980303  0.07677453  1
  O  O95  1  0.59125816  0.15543972  0.09088428  1
  O  O96  1  0.35853197  0.16037974  0.75594835  1
  O  O97  1  0.85823538  0.18317614  0.74864191  1
  O  O98  1  0.23374811  0.29789957  0.75110504  1
  O  O99  1  0.72531844  0.29108685  0.75583405  1
  O  O100  1  0.41786009  0.52116392  0.75734421  1
  O  O101  1  0.92619077  0.55061185  0.74723282  1
  O  O102  1  0.35952690  0.53800109  0.24759657  1
  O  O103  1  0.85728380  0.55630191  0.25491237  1
  O  O104  1  0.42534262  0.30268240  0.24513579  1
  O  O105  1  0.91782180  0.31488618  0.25757397  1
  O  O106  1  0.22579295  0.15830440  0.25531548  1
  O  O107  1  0.73328020  0.16647589  0.24949364  1
  O  O108  1  0.32788908  0.49765126  0.93594358  1
  O  O109  1  0.83278397  0.49815903  0.92815501  1
  O  O110  1  0.41912966  0.33342438  0.92701090  1
  O  O111  1  0.91940537  0.32712677  0.93559871  1
  O  O112  1  0.24312691  0.14072111  0.93234649  1
  O  O113  1  0.74086414  0.14952568  0.92471244  1
  O  O114  1  0.33251122  0.16498087  0.42900715  1
  O  O115  1  0.83227708  0.15960378  0.43844707  1
  O  O116  1  0.24070795  0.33086855  0.42492053  1
  O  O117  1  0.74492561  0.33785160  0.43249617  1
  O  O118  1  0.41858173  0.50646815  0.43627036  1
  O  O119  1  0.91954678  0.50696978  0.42579927  1
  O  O120  1  0.18019584  0.49648075  0.07006087  1
  O  O121  1  0.67681083  0.49886395  0.07821496  1
  O  O122  1  0.07719730  0.65251190  0.06505624  1
  O  O123  1  0.56269854  0.65469906  0.07510162  1
  O  O124  1  0.25069777  0.84877058  0.06603477  1
  O  O125  1  0.75472784  0.86564748  0.07622376  1
  O  O126  1  0.17657900  0.85324661  0.57924379  1
  O  O127  1  0.68079034  0.86565402  0.57056213  1
  O  O128  1  0.25386414  0.64417305  0.57669428  1
  O  O129  1  0.75050994  0.65524391  0.56893667  1
  O  O130  1  0.06619810  0.47130683  0.57887407  1
  O  O131  1  0.57720618  0.50750899  0.56991541  1
  O  O132  1  0.14966963  0.84794146  0.25612335  1
  O  O133  1  0.63953661  0.81671252  0.24661690  1
  O  O134  1  0.26704969  0.69981246  0.24911160  1
  O  O135  1  0.77232597  0.69754984  0.25479154  1
  O  O136  1  0.08530238  0.48733580  0.25130201  1
  O  O137  1  0.57774827  0.45101020  0.24768962  1
  O  O138  1  0.13954899  0.45810015  0.74887784  1
  O  O139  1  0.64933762  0.44896423  0.75769761  1
  O  O140  1  0.07875465  0.70956942  0.75098227  1
  O  O141  1  0.58525382  0.68352615  0.75133635  1
  O  O142  1  0.27169832  0.85144610  0.75806487  1
  O  O143  1  0.76559753  0.83397545  0.74844810  1
loop_
_geom_bond_atom_site_label_1
_geom_bond_atom_site_label_2
_geom_bond_distance
_geom_bond_site_symmetry_2
Na0 O136 2.312024 1_555
Na0 O105 2.355044 1_455
Na0 O103 2.417656 1_455
Na0 O60 2.454456 1_555
Na0 O132 2.459399 1_555
Na0 O31 2.691600 1_455
Na1 O102 2.258841 1_555
Na1 O133 2.272655 1_555
Na1 O61 2.404263 1_555
Na1 O104 2.669943 1_555
Na1 O137 2.729790 1_555
Na2 O97 2.248147 1_555
Na2 O138 2.268866 1_655
Na2 O66 2.590634 1_655
Na2 O101 2.614001 1_555
Na2 O140 2.716524 1_655
Na2 O25 2.861971 1_555
Na3 O141 2.307183 1_555
Na3 O100 2.368473 1_555
Na3 O96 2.406794 1_555
Na3 O139 2.458414 1_555
Na3 O67 2.548626 1_555
Na3 O24 2.573449 1_555
Na4 O84 2.413862 1_565
Na4 O126 2.453245 1_555
Na4 O54 2.503377 1_555
Na4 O88 2.646815 1_555
Na4 O128 2.671381 1_555
Na4 O46 2.816492 1_565
Na4 O26 2.854015 1_565
Na5 O121 2.426529 1_555
Na5 O91 2.435579 1_555
Na5 O49 2.571322 1_554
Na5 O93 2.677176 1_565
Na5 O125 2.678078 1_555
Na5 O35 2.765919 1_555
Na5 O39 2.851537 1_555
Na5 O19 3.024443 1_555
Na6 O89 2.545182 1_455
Na6 O86 2.573129 1_565
Na6 O72 2.706121 1_555
Na6 O85 2.754526 1_465
Na6 O75 2.775107 1_455
Na6 O76 2.792430 1_565
Na7 O84 2.483739 1_555
Na7 O77 2.531806 1_555
Na7 O73 2.567571 1_545
Na7 O74 2.619266 1_555
Na7 O87 2.689681 1_555
Na7 O88 2.712418 1_545
Na8 O91 2.417908 1_556
Na8 O93 2.573487 1_566
Na8 O83 2.584164 1_555
Na8 O78 2.615074 1_665
Na8 O80 2.618365 1_655
Na8 O94 2.700006 1_666
Na9 O95 2.470452 1_555
Na9 O92 2.476207 1_555
Na9 O90 2.694325 1_545
Na9 O79 2.744813 1_554
Na9 O81 2.825134 1_554
Na9 O82 2.850902 1_544
Na10 O100 2.248510 1_555
Na10 O98 2.318857 1_555
Na10 O96 2.704549 1_555
Na11 O99 2.590337 1_555
Na11 O109 2.608587 1_555
Na11 O97 2.621255 1_555
Na11 O113 2.647617 1_555
Na11 O101 2.788320 1_555
Na11 O111 2.837211 1_555
Na12 O114 2.595744 1_555
Na12 O116 2.608995 1_555
Na12 O106 2.663876 1_555
Na12 O102 2.709250 1_555
Na12 O118 2.756841 1_555
Na12 O104 2.845741 1_555
Na13 O105 2.327672 1_555
Na13 O107 2.367816 1_555
Na13 O103 2.749916 1_555
Na13 O115 2.872303 1_555
Na13 O119 2.919344 1_555
Na13 O117 2.925866 1_555
Na14 O134 2.310655 1_555
Na14 O136 2.322578 1_555
Na14 O132 2.706175 1_555
Na14 O120 2.913275 1_555
Na15 O133 2.455616 1_555
Na15 O137 2.576522 1_555
Na15 O121 2.661661 1_555
Na15 O135 2.692245 1_555
Na15 O125 2.762884 1_555
Na15 O123 2.874930 1_555
Na16 O126 2.496604 1_555
Na16 O128 2.627437 1_555
Na16 O130 2.657047 1_555
Na16 O138 2.665632 1_555
Na16 O140 2.740819 1_555
Na16 O142 2.879919 1_555
Na17 O143 2.444339 1_555
Na17 O141 2.478223 1_555
Na17 O127 2.735059 1_555
Na17 O129 2.813387 1_555
Na17 O131 2.841868 1_555
Na17 O139 2.906203 1_555
O0 S0 1.474196 1_555
O0 Ta0 2.214962 1_455
O1 Si0 1.660124 1_545
O1 Ta1 1.931584 1_545
O2 Si1 1.657439 1_555
O2 Ta1 1.955611 1_555
O3 S1 1.509417 1_555
O3 Ta0 2.050882 1_565
O4 S2 1.455318 1_555
O4 Ta1 2.338140 1_545
O5 Si2 1.702628 1_555
O5 Ta0 1.882873 1_455
O6 Si3 1.679553 1_555
O6 Ta2 1.910830 1_455
O7 S3 1.485310 1_555
O7 Ta3 2.176430 1_545
O8 Si4 1.711791 1_555
O8 Ta3 1.870573 1_555
O9 S4 1.476616 1_655
O9 Ta2 2.219119 1_565
O10 S5 1.515735 1_555
O10 Ta3 2.042528 1_555
O11 Si5 1.714748 1_555
O11 Ta2 1.853018 1_555
O12 S5 1.469404 1_555
O12 Y0 2.355529 1_555
O13 Si5 1.657238 1_565
O13 Ta4 1.930962 1_565
O14 Si3 1.667370 1_555
O14 Ta4 1.931608 1_455
O15 S3 1.473651 1_555
O15 Y0 2.250810 1_545
O16 S4 1.491548 1_555
O16 Ta4 2.117898 1_465
O17 Si4 1.610019 1_555
O17 Y0 2.067920 1_555
O18 Si1 1.685500 1_555
O18 Ta5 1.904216 1_565
O19 S1 1.481501 1_555
O19 Y1 2.287221 1_665
O20 Si2 1.617991 1_555
O20 Y1 2.053447 1_555
O21 S2 1.519198 1_555
O21 Ta5 2.032545 1_555
O22 S0 1.481083 1_565
O22 Y1 2.231847 1_565
O23 Si0 1.700372 1_555
O23 Ta5 1.898335 1_565
O24 Si6 1.609688 1_555
O24 Y2 2.235242 1_555
O25 S6 1.483505 1_555
O25 Y3 2.325380 1_555
O26 Si7 1.599904 1_555
O26 Y2 2.137543 1_555
O27 S7 1.485071 1_555
O27 Y3 2.245947 1_555
O28 S8 1.464127 1_555
O28 Y2 2.239755 1_555
O29 Si8 1.608520 1_555
O29 Y3 2.093145 1_555
O30 S9 1.466840 1_555
O30 Y4 2.330702 1_555
O31 Si9 1.599955 1_555
O31 Y5 2.291788 1_555
O32 Si10 1.597735 1_555
O32 Y4 2.123866 1_555
O33 S10 1.457352 1_555
O33 Y5 2.256541 1_555
O34 S11 1.467862 1_555
O34 Y4 2.312622 1_555
O35 Si11 1.598516 1_555
O35 Y5 2.153767 1_555
O36 S11 1.465755 1_555
O36 Ta6 2.186870 1_554
O37 Si11 1.693478 1_555
O37 Ta7 1.934715 1_554
O38 S9 1.512819 1_555
O38 Ta6 2.083927 1_554
O39 Si9 1.694187 1_555
O39 Ta7 1.860815 1_554
O40 Si10 1.683659 1_555
O40 Ta6 1.903954 1_554
O41 S10 1.480224 1_555
O41 Ta7 2.163476 1_554
O42 Si7 1.680479 1_555
O42 Ta8 1.951796 1_555
O43 S7 1.466557 1_555
O43 Ta9 2.181395 1_555
O44 S8 1.474286 1_555
O44 Ta8 2.175035 1_555
O45 Si8 1.664130 1_555
O45 Ta9 1.932877 1_555
O46 Si6 1.700443 1_555
O46 Ta8 1.862269 1_555
O47 S6 1.463466 1_555
O47 Ta9 2.344239 1_555
O48 Si12 1.634051 1_555
O48 Ta10 1.957657 1_556
O49 Si13 1.619114 1_555
O49 Y6 2.180439 1_556
O50 Si14 1.657293 1_555
O50 Ta10 1.964714 1_556
O51 Si15 1.596640 1_555
O51 Y6 2.102111 1_556
O52 S12 1.489377 1_555
O52 Ta10 2.106935 1_556
O53 S13 1.462405 1_555
O53 Y6 2.426907 1_556
O54 Si16 1.621856 1_555
O54 Y7 2.162991 1_555
O55 Si17 1.628435 1_555
O55 Ta11 1.971993 1_555
O56 S14 1.462215 1_555
O56 Y7 2.409662 1_555
O57 Si18 1.658502 1_555
O57 Ta11 1.878027 1_555
O58 Si19 1.601742 1_555
O58 Y7 2.092693 1_555
O59 Si20 1.641210 1_555
O59 Ta11 1.972809 1_555
O60 Si19 1.595601 1_555
O60 Y8 2.237169 1_555
O61 Si20 1.614841 1_555
O61 Y9 2.220085 1_555
O62 Si16 1.590910 1_555
O62 Y8 2.141264 1_555
O63 Si17 1.595107 1_555
O63 Y9 2.137238 1_555
O64 S14 1.461417 1_555
O64 Y8 2.294242 1_555
O65 Si18 1.584474 1_555
O65 Y9 2.169851 1_555
O66 Si14 1.615833 1_555
O66 Y10 2.187928 1_555
O67 Si15 1.590164 1_555
O67 Y11 2.252136 1_555
O68 S12 1.457727 1_555
O68 Y10 2.447036 1_555
O69 S13 1.458330 1_555
O69 Y11 2.299807 1_555
O70 Si12 1.593580 1_555
O70 Y10 2.114334 1_555
O71 Si13 1.589992 1_555
O71 Y11 2.170214 1_555
O72 Si19 1.655869 1_555
O72 Ta0 1.928156 1_465
O73 Si20 1.670967 1_555
O73 Ta1 1.914913 1_555
O74 Si16 1.642802 1_545
O74 Ta1 1.952405 1_545
O75 Si17 1.694118 1_555
O75 Ta0 1.887089 1_565
O76 S14 1.520157 1_555
O76 Ta0 2.070650 1_455
O77 Si18 1.630070 1_555
O77 Ta1 1.994993 1_545
O78 Si14 1.684585 1_555
O78 Ta2 1.926216 1_455
O79 Si15 1.649401 1_555
O79 Ta3 1.940529 1_545
O80 S12 1.473186 1_555
O80 Ta2 2.415765 1_465
O81 S13 1.521638 1_545
O81 Ta3 2.067383 1_545
O82 Si12 1.675838 1_555
O82 Ta3 1.908882 1_555
O83 Si13 1.670768 1_555
O83 Ta2 1.943983 1_565
O84 Si6 1.632486 1_555
O84 Y0 2.261418 1_545
O85 S6 1.525841 1_555
O85 Ta4 2.090175 1_555
O86 Si7 1.666666 1_555
O86 Ta4 1.976807 1_455
O87 S7 1.485848 1_555
O87 Y0 2.289849 1_545
O88 S8 1.492717 1_555
O88 Y0 2.331667 1_555
O89 Si8 1.667023 1_555
O89 Ta4 1.989975 1_565
O90 S9 1.498888 1_555
O90 Ta5 2.229497 1_565
O91 Si9 1.627819 1_555
O91 Y1 2.284686 1_665
O92 Si10 1.645046 1_555
O92 Ta5 2.047662 1_555
O93 S10 1.495521 1_555
O93 Y1 2.361420 1_655
O94 S11 1.473032 1_555
O94 Y1 2.336250 1_555
O95 Si11 1.663069 1_555
O95 Ta5 2.009264 1_555
O96 S5 1.472183 1_545
O96 Y2 2.496349 1_555
O97 Si5 1.628479 1_555
O97 Y3 2.266379 1_555
O98 Si3 1.589646 1_555
O98 Y2 2.229427 1_555
O99 S3 1.482013 1_555
O99 Y3 2.328867 1_555
O100 Si4 1.619909 1_555
O100 Y2 2.246127 1_555
O101 S4 1.487923 1_655
O101 Y3 2.413386 1_555
O102 Si1 1.642025 1_555
O102 Y4 2.220379 1_555
O103 S1 1.474284 1_555
O103 Y5 2.447014 1_555
O104 S2 1.494490 1_555
O104 Y4 2.329486 1_555
O105 Si2 1.621107 1_655
O105 Y5 2.235944 1_555
O106 S0 1.484396 1_555
O106 Y4 2.290805 1_555
O107 Si0 1.594867 1_545
O107 Y5 2.196571 1_555
O108 Si12 1.640773 1_555
O108 Ta6 1.946439 1_555
O109 Si13 1.679984 1_555
O109 Ta7 1.899505 1_555
O110 Si15 1.711748 1_555
O110 Ta6 1.848081 1_555
O111 Si14 1.634714 1_655
O111 Ta7 1.989242 1_555
O112 S12 1.511723 1_545
O112 Ta6 2.075923 1_555
O113 S13 1.480506 1_545
O113 Ta7 2.228167 1_555
O114 Si16 1.684592 1_545
O114 Ta8 1.890207 1_555
O115 Si17 1.634607 1_545
O115 Ta9 1.936291 1_555
O116 S14 1.479798 1_555
O116 Ta8 2.246138 1_555
O117 Si18 1.670298 1_555
O117 Ta9 1.870993 1_555
O118 Si20 1.646242 1_555
O118 Ta8 1.963204 1_555
O119 Si19 1.682269 1_655
O119 Ta9 1.873434 1_555
O120 S11 1.505418 1_555
O120 Ta10 2.079822 1_555
O121 Si11 1.632575 1_555
O121 Y6 2.155834 1_555
O122 Si9 1.662670 1_455
O122 Ta10 1.934600 1_555
O123 S9 1.459301 1_555
O123 Y6 2.441796 1_555
O124 Si10 1.649725 1_565
O124 Ta10 1.947831 1_555
O125 S10 1.477627 1_565
O125 Y6 2.389567 1_555
O126 Si7 1.630618 1_565
O126 Y7 2.170291 1_555
O127 S7 1.472331 1_565
O127 Ta11 2.247766 1_555
O128 S8 1.478155 1_555
O128 Y7 2.414757 1_555
O129 Si8 1.635283 1_555
O129 Ta11 1.993659 1_555
O130 S6 1.470002 1_455
O130 Y7 2.455217 1_555
O131 Si6 1.642701 1_555
O131 Ta11 1.977557 1_555
O132 S0 1.469362 1_565
O132 Y8 2.360665 1_555
O133 Si0 1.633659 1_555
O133 Y9 2.331758 1_555
O134 Si1 1.595630 1_555
O134 Y8 2.227830 1_555
O135 S1 1.456515 1_555
O135 Y9 2.397617 1_555
O136 Si2 1.616732 1_555
O136 Y8 2.232430 1_555
O137 S2 1.471410 1_555
O137 Y9 2.565655 1_555
O138 Si3 1.645669 1_555
O138 Y10 2.205392 1_555
O139 S3 1.467148 1_555
O139 Y11 2.324189 1_555
O140 S4 1.480463 1_555
O140 Y10 2.497776 1_555
O141 Si4 1.616685 1_555
O141 Y11 2.216422 1_555
O142 S5 1.465382 1_555
O142 Y10 2.352739 1_555
O143 Si5 1.584581 1_565
O143 Y11 2.218950 1_555
