# generated using pymatgen
data_Na6Hf2Mg6SiS11O48
_symmetry_space_group_name_H-M   'P 1'
_cell_length_a   17.55353606
_cell_length_b   8.77451398
_cell_length_c   22.72817456
_cell_angle_alpha   90.14777058
_cell_angle_beta   89.98501512
_cell_angle_gamma   119.97823313
_symmetry_Int_Tables_number   1
_chemical_formula_structural   Na6Hf2Mg6SiS11O48
_chemical_formula_sum   'Na18 Hf6 Mg18 Si3 S33 O144'
_cell_volume   3032.32913946
_cell_formula_units_Z   3
loop_
 _symmetry_equiv_pos_site_id
 _symmetry_equiv_pos_as_xyz
  1  'x, y, z'
loop_
 _atom_site_type_symbol
 _atom_site_label
 _atom_site_symmetry_multiplicity
 _atom_site_fract_x
 _atom_site_fract_y
 _atom_site_fract_z
 _atom_site_occupancy
  Na  Na0  1  0.68674158  0.36485101  0.24468058  1
  Na  Na1  1  0.99563670  0.63450810  0.25350270  1
  Na  Na2  1  0.33463140  0.96593078  0.58926585  1
  Na  Na3  1  0.83544396  0.96659365  0.58929761  1
  Na  Na4  1  0.33440491  0.69952913  0.08236148  1
  Na  Na5  1  0.34591669  0.66510444  0.41499292  1
  Na  Na6  1  0.00502765  0.99792424  0.49721023  1
  Na  Na7  1  0.50767058  0.01050788  0.50044132  1
  Na  Na8  1  0.99994137  0.99912435  0.99877024  1
  Na  Na9  1  0.50736617  0.01120318  0.00260337  1
  Na  Na10  1  0.33360903  0.32545714  0.83803857  1
  Na  Na11  1  0.83306589  0.32544916  0.83816546  1
  Na  Na12  1  0.32995922  0.32395598  0.33078305  1
  Na  Na13  1  0.83717623  0.33904028  0.33401150  1
  Na  Na14  1  0.16826841  0.66954090  0.16607428  1
  Na  Na15  1  0.66838282  0.67243377  0.15936915  1
  Na  Na16  1  0.16859689  0.66902242  0.67352576  1
  Na  Na17  1  0.66957577  0.66969897  0.67392694  1
  Hf  Hf0  1  0.99528956  0.00302509  0.85248046  1
  Hf  Hf1  1  0.49608671  0.00372373  0.85287422  1
  Hf  Hf2  1  0.99436902  0.99405072  0.14808103  1
  Hf  Hf3  1  0.33419237  0.32836622  0.68934677  1
  Hf  Hf4  1  0.83434386  0.32893148  0.68892378  1
  Hf  Hf5  1  0.66991352  0.67314410  0.31443017  1
  Mg  Mg0  1  0.99982912  0.99301155  0.35196992  1
  Mg  Mg1  1  0.49917245  0.00261410  0.34950719  1
  Mg  Mg2  1  0.99876733  0.99765714  0.65156844  1
  Mg  Mg3  1  0.49921243  0.99797028  0.65204858  1
  Mg  Mg4  1  0.50201103  0.00372709  0.14739132  1
  Mg  Mg5  1  0.33431780  0.33484127  0.18298993  1
  Mg  Mg6  1  0.83287428  0.33388227  0.18176704  1
  Mg  Mg7  1  0.33467152  0.32979744  0.98204372  1
  Mg  Mg8  1  0.83072696  0.33104778  0.98229804  1
  Mg  Mg9  1  0.33033874  0.32527650  0.48214534  1
  Mg  Mg10  1  0.83633590  0.34099441  0.48027416  1
  Mg  Mg11  1  0.16360066  0.66973916  0.01560724  1
  Mg  Mg12  1  0.66656153  0.66535830  0.01721300  1
  Mg  Mg13  1  0.16089518  0.65877520  0.51538877  1
  Mg  Mg14  1  0.66453451  0.66086196  0.51775618  1
  Mg  Mg15  1  0.16901098  0.66613938  0.31717757  1
  Mg  Mg16  1  0.17079914  0.67587158  0.81511869  1
  Mg  Mg17  1  0.67137148  0.67634244  0.81542860  1
  Si  Si0  1  0.85463143  0.70255572  0.25275310  1
  Si  Si1  1  0.34901997  0.98562620  0.74580831  1
  Si  Si2  1  0.84876243  0.98627815  0.74567095  1
  S  S0  1  0.14859880  0.00464092  0.25134180  1
  S  S1  1  0.64359654  0.00036576  0.24982773  1
  S  S2  1  0.35311896  0.70585234  0.25005749  1
  S  S3  1  0.00065950  0.29280115  0.25185621  1
  S  S4  1  0.49630117  0.28652351  0.25057911  1
  S  S5  1  0.14362534  0.29277409  0.74893102  1
  S  S6  1  0.64382270  0.29310774  0.74888319  1
  S  S7  1  0.00268392  0.71243043  0.74894079  1
  S  S8  1  0.50267586  0.71238979  0.74898549  1
  S  S9  1  0.48118860  0.33632769  0.58126967  1
  S  S10  1  0.98110666  0.33554780  0.58132967  1
  S  S11  1  0.18490966  0.04012473  0.58180776  1
  S  S12  1  0.68562395  0.04181459  0.58100415  1
  S  S13  1  0.33377224  0.62703874  0.58052362  1
  S  S14  1  0.83374872  0.62597951  0.58117656  1
  S  S15  1  0.47982195  0.62377957  0.08363937  1
  S  S16  1  0.98038398  0.62186280  0.08299902  1
  S  S17  1  0.33297301  0.04156191  0.08357361  1
  S  S18  1  0.83105275  0.04313325  0.08258423  1
  S  S19  1  0.18905843  0.33538629  0.08259749  1
  S  S20  1  0.68621864  0.33347465  0.08354110  1
  S  S21  1  0.31054292  0.66021919  0.91782916  1
  S  S22  1  0.81009376  0.66036081  0.91743019  1
  S  S23  1  0.02167662  0.38205132  0.91687115  1
  S  S24  1  0.52215803  0.38262808  0.91681095  1
  S  S25  1  0.16826996  0.95960315  0.91700886  1
  S  S26  1  0.66822025  0.95802278  0.91747322  1
  S  S27  1  0.31302609  0.96084135  0.41732116  1
  S  S28  1  0.81484138  0.96352459  0.41997015  1
  S  S29  1  0.16559540  0.37210871  0.41698626  1
  S  S30  1  0.66572042  0.37063067  0.41787266  1
  S  S31  1  0.02048446  0.66748024  0.41639898  1
  S  S32  1  0.51955033  0.66722273  0.41852639  1
  O  O0  1  0.10876342  0.03264513  0.30326785  1
  O  O1  1  0.60484770  0.03101448  0.30300974  1
  O  O2  1  0.40651888  0.78710431  0.30430199  1
  O  O3  1  0.91717245  0.79297894  0.30719723  1
  O  O4  1  0.48615376  0.18462916  0.30395186  1
  O  O5  1  0.98907968  0.18666551  0.30339273  1
  O  O6  1  0.10636171  0.17956950  0.80236061  1
  O  O7  1  0.60631561  0.17962050  0.80229063  1
  O  O8  1  0.48734324  0.79252958  0.80243658  1
  O  O9  1  0.98764981  0.79295467  0.80248171  1
  O  O10  1  0.41486514  0.02769105  0.80405966  1
  O  O11  1  0.91457112  0.02847660  0.80401924  1
  O  O12  1  0.39362176  0.97218065  0.68584841  1
  O  O13  1  0.89369834  0.97238584  0.68603413  1
  O  O14  1  0.09307343  0.20906173  0.69608136  1
  O  O15  1  0.59312670  0.20938487  0.69600127  1
  O  O16  1  0.01579192  0.81726948  0.69641647  1
  O  O17  1  0.51559979  0.81690006  0.69636472  1
  O  O18  1  0.39471097  0.81444499  0.19705781  1
  O  O19  1  0.89714417  0.82532144  0.19308938  1
  O  O20  1  0.01540832  0.21130298  0.19741724  1
  O  O21  1  0.51679337  0.21396621  0.19850379  1
  O  O22  1  0.09081762  0.97417672  0.19755317  1
  O  O23  1  0.59041222  0.97020514  0.19723555  1
  O  O24  1  0.43791986  0.36045127  0.63517467  1
  O  O25  1  0.93761268  0.36023057  0.63529717  1
  O  O26  1  0.24334057  0.12655785  0.63510470  1
  O  O27  1  0.74304639  0.12628030  0.63483277  1
  O  O28  1  0.32166634  0.51727813  0.63348606  1
  O  O29  1  0.82084237  0.51842411  0.63511706  1
  O  O30  1  0.43913425  0.51786164  0.13683080  1
  O  O31  1  0.94202073  0.52396814  0.13802215  1
  O  O32  1  0.32000713  0.12161112  0.13667210  1
  O  O33  1  0.82129996  0.12312204  0.13681576  1
  O  O34  1  0.24254272  0.36394820  0.13585416  1
  O  O35  1  0.73736371  0.35756191  0.13868226  1
  O  O36  1  0.22811472  0.30658293  0.02997185  1
  O  O37  1  0.72886663  0.30755861  0.03196406  1
  O  O38  1  0.42299193  0.54370586  0.03129650  1
  O  O39  1  0.92522577  0.54350112  0.03140413  1
  O  O40  1  0.34594442  0.14699517  0.03075879  1
  O  O41  1  0.84664025  0.15085888  0.03034262  1
  O  O42  1  0.22724556  0.14913767  0.53003631  1
  O  O43  1  0.72808008  0.15077350  0.52938911  1
  O  O44  1  0.34477780  0.54306541  0.52727994  1
  O  O45  1  0.84397707  0.53893711  0.52947609  1
  O  O46  1  0.42324828  0.30494289  0.53026084  1
  O  O47  1  0.92289652  0.30315953  0.53057100  1
  O  O48  1  0.27471336  0.69360099  0.97234630  1
  O  O49  1  0.77341859  0.69531265  0.97024216  1
  O  O50  1  0.07515536  0.45740653  0.97013227  1
  O  O51  1  0.57492993  0.45783018  0.96992156  1
  O  O52  1  0.15277275  0.85309229  0.97031069  1
  O  O53  1  0.65306158  0.85118639  0.97042895  1
  O  O54  1  0.27466909  0.85221770  0.47125086  1
  O  O55  1  0.77218396  0.85377784  0.47197910  1
  O  O56  1  0.15419655  0.45478672  0.47023485  1
  O  O57  1  0.65274508  0.45704551  0.46875269  1
  O  O58  1  0.07508078  0.68978805  0.46859244  1
  O  O59  1  0.57436408  0.69313348  0.46985541  1
  O  O60  1  0.05983537  0.64153800  0.36170966  1
  O  O61  1  0.56105872  0.64122867  0.36448879  1
  O  O62  1  0.25890004  0.87664241  0.36500362  1
  O  O63  1  0.75688678  0.87238422  0.36623453  1
  O  O64  1  0.18285801  0.48601630  0.36470970  1
  O  O65  1  0.67752773  0.48025101  0.36278325  1
  O  O66  1  0.06228211  0.48222574  0.86358757  1
  O  O67  1  0.56223275  0.48221755  0.86327318  1
  O  O68  1  0.17902199  0.87769080  0.86427352  1
  O  O69  1  0.67886265  0.87715014  0.86419876  1
  O  O70  1  0.25812325  0.63899077  0.86578612  1
  O  O71  1  0.75918397  0.63805192  0.86417950  1
  O  O72  1  0.01301245  0.82798684  0.41257988  1
  O  O73  1  0.50868196  0.82402645  0.41078671  1
  O  O74  1  0.40143854  0.97324445  0.41073222  1
  O  O75  1  0.90117748  0.98009151  0.41155516  1
  O  O76  1  0.08798757  0.19646501  0.40985222  1
  O  O77  1  0.58652580  0.19611592  0.40952286  1
  O  O78  1  0.01376559  0.19956545  0.91142704  1
  O  O79  1  0.51373135  0.19968094  0.91129378  1
  O  O80  1  0.08739943  0.97924891  0.91028549  1
  O  O81  1  0.58737051  0.97841087  0.91038458  1
  O  O82  1  0.40202689  0.82308164  0.91098197  1
  O  O83  1  0.90236567  0.82346351  0.91066498  1
  O  O84  1  0.48906597  0.17654695  0.58777416  1
  O  O85  1  0.98913706  0.17628633  0.58826693  1
  O  O86  1  0.09819254  0.02139677  0.59060646  1
  O  O87  1  0.59822505  0.02181466  0.58993716  1
  O  O88  1  0.41347649  0.80405756  0.58601667  1
  O  O89  1  0.91303784  0.80328077  0.58655079  1
  O  O90  1  0.48614285  0.80101964  0.09017114  1
  O  O91  1  0.99130492  0.80584274  0.08955272  1
  O  O92  1  0.41143626  0.01640239  0.08989656  1
  O  O93  1  0.91444946  0.02770433  0.08861884  1
  O  O94  1  0.09893331  0.17681645  0.09001511  1
  O  O95  1  0.59742502  0.17387679  0.08965280  1
  O  O96  1  0.34443122  0.17392017  0.74336266  1
  O  O97  1  0.84421089  0.17429529  0.74322506  1
  O  O98  1  0.23429813  0.31350170  0.74284940  1
  O  O99  1  0.73420813  0.31329109  0.74283958  1
  O  O100  1  0.41887478  0.53664220  0.74277953  1
  O  O101  1  0.91899722  0.53676645  0.74295408  1
  O  O102  1  0.34433890  0.52894665  0.24389813  1
  O  O103  1  0.84001000  0.50545933  0.24349890  1
  O  O104  1  0.42015967  0.31097070  0.24350392  1
  O  O105  1  0.92193242  0.31134394  0.24282306  1
  O  O106  1  0.23639187  0.15801851  0.24196961  1
  O  O107  1  0.73301352  0.15361784  0.24359086  1
  O  O108  1  0.32312515  0.50672368  0.92396703  1
  O  O109  1  0.82337254  0.50772260  0.92386715  1
  O  O110  1  0.43197871  0.35406377  0.92279755  1
  O  O111  1  0.93196791  0.35428305  0.92335827  1
  O  O112  1  0.24604415  0.13777174  0.92360286  1
  O  O113  1  0.74578368  0.13684894  0.92363556  1
  O  O114  1  0.32403875  0.13830385  0.42372579  1
  O  O115  1  0.81968718  0.13579095  0.42308112  1
  O  O116  1  0.24804547  0.35969027  0.42314673  1
  O  O117  1  0.74563543  0.35709347  0.42207432  1
  O  O118  1  0.43025891  0.50979051  0.42314593  1
  O  O119  1  0.93200799  0.50761966  0.42258468  1
  O  O120  1  0.18009572  0.49541128  0.07658904  1
  O  O121  1  0.67743872  0.49267035  0.07727798  1
  O  O122  1  0.06946042  0.64554185  0.07694936  1
  O  O123  1  0.56835322  0.64591961  0.07671130  1
  O  O124  1  0.25466398  0.85898134  0.07750361  1
  O  O125  1  0.75518784  0.86388204  0.07694466  1
  O  O126  1  0.18111204  0.86712506  0.57705094  1
  O  O127  1  0.68091666  0.86756294  0.57660870  1
  O  O128  1  0.25525756  0.64954678  0.57599774  1
  O  O129  1  0.75503994  0.64903723  0.57644237  1
  O  O130  1  0.06781183  0.49485396  0.57685620  1
  O  O131  1  0.56784262  0.49498714  0.57636210  1
  O  O132  1  0.15222624  0.83813874  0.25555751  1
  O  O133  1  0.65201809  0.83852766  0.25815537  1
  O  O134  1  0.26485048  0.68916564  0.25665938  1
  O  O135  1  0.75364777  0.67804593  0.25667215  1
  O  O136  1  0.07899698  0.47366938  0.25569353  1
  O  O137  1  0.57864253  0.46765333  0.25871355  1
  O  O138  1  0.15234291  0.46492012  0.75779597  1
  O  O139  1  0.65227676  0.46503117  0.75769956  1
  O  O140  1  0.07608606  0.68195971  0.75743565  1
  O  O141  1  0.57595126  0.68162736  0.75742619  1
  O  O142  1  0.25294562  0.82210397  0.75494151  1
  O  O143  1  0.75279060  0.82244536  0.75489229  1
loop_
_geom_bond_atom_site_label_1
_geom_bond_atom_site_label_2
_geom_bond_distance
_geom_bond_site_symmetry_2
Na0 O103 2.333272 1_555
Na0 O107 2.366411 1_555
Na0 O135 2.403484 1_555
Na0 O137 2.494935 1_555
Na0 O35 2.579258 1_555
Na0 O21 2.793069 1_555
Na0 O1 2.866261 1_555
Na0 O65 2.899333 1_555
Na1 O103 2.388372 1_555
Na1 O132 2.416950 1_655
Na1 O105 2.470594 1_555
Na1 O136 2.489874 1_655
Na1 O3 2.687775 1_555
Na1 O60 2.693200 1_655
Na1 O31 2.791289 1_555
Na1 O22 2.886792 1_655
Na2 O126 2.398972 1_555
Na2 O84 2.399795 1_565
Na2 O12 2.416139 1_555
Na2 O128 2.422711 1_555
Na2 O88 2.429457 1_555
Na2 O26 2.808641 1_565
Na2 O54 2.869864 1_555
Na2 O46 2.908977 1_565
Na3 O85 2.388291 1_565
Na3 O13 2.414733 1_555
Na3 O127 2.416516 1_555
Na3 O89 2.421269 1_555
Na3 O129 2.430501 1_555
Na3 O27 2.815609 1_565
Na3 O55 2.865709 1_555
Na3 O47 2.889338 1_565
Na4 O90 2.355422 1_555
Na4 O120 2.390139 1_555
Na4 O92 2.414316 1_565
Na4 O124 2.426305 1_555
Na4 O48 2.701674 1_554
Na4 O38 2.783907 1_555
Na4 O18 2.802521 1_555
Na4 O34 2.832172 1_555
Na5 O116 2.359859 1_555
Na5 O74 2.374357 1_555
Na5 O118 2.470065 1_555
Na5 O73 2.477046 1_555
Na5 O64 2.732319 1_555
Na5 O2 2.735200 1_555
Na5 O44 2.766382 1_555
Na5 O54 2.816908 1_555
Na6 O72 2.477262 1_555
Na6 O76 2.564915 1_565
Na6 O75 2.617782 1_455
Na6 O86 2.624079 1_565
Na6 O89 2.628235 1_455
Na6 O85 2.688765 1_465
Na7 O87 2.552849 1_555
Na7 O77 2.569331 1_555
Na7 O84 2.574755 1_555
Na7 O88 2.611813 1_545
Na7 O73 2.615667 1_545
Na7 O74 2.670326 1_545
Na8 O83 2.582035 1_555
Na8 O78 2.585390 1_665
Na8 O80 2.587642 1_655
Na8 O93 2.618576 1_566
Na8 O91 2.630109 1_556
Na8 O94 2.651209 1_666
Na9 O95 2.486553 1_555
Na9 O90 2.614025 1_545
Na9 O81 2.616726 1_544
Na9 O92 2.616964 1_555
Na9 O79 2.624373 1_554
Na9 O82 2.722906 1_544
Na10 O110 2.514321 1_555
Na10 O112 2.518320 1_555
Na10 O108 2.579561 1_555
Na10 O96 2.582990 1_555
Na10 O98 2.747477 1_555
Na10 O100 2.758402 1_555
Na11 O113 2.518101 1_555
Na11 O111 2.527339 1_555
Na11 O109 2.576182 1_555
Na11 O97 2.588023 1_555
Na11 O99 2.744542 1_555
Na11 O101 2.760455 1_555
Na12 O106 2.547339 1_555
Na12 O104 2.575357 1_555
Na12 O102 2.600565 1_555
Na12 O114 2.641066 1_555
Na12 O116 2.649200 1_555
Na12 O118 2.698286 1_555
Na13 O103 2.511904 1_555
Na13 O119 2.556819 1_555
Na13 O115 2.616128 1_555
Na13 O117 2.619961 1_555
Na13 O105 2.631555 1_555
Na13 O107 2.688029 1_555
Na14 O124 2.571342 1_555
Na14 O122 2.605854 1_555
Na14 O132 2.608565 1_555
Na14 O120 2.610523 1_555
Na14 O134 2.617429 1_555
Na14 O136 2.623597 1_555
Na15 O125 2.471830 1_555
Na15 O121 2.495925 1_555
Na15 O123 2.501565 1_555
Na15 O135 2.657230 1_555
Na15 O133 2.765634 1_555
Na15 O137 2.828201 1_555
Na16 O142 2.328452 1_555
Na16 O138 2.542420 1_555
Na16 O140 2.543324 1_555
Na16 O128 2.740947 1_555
Na16 O126 2.741441 1_555
Na16 O130 2.752369 1_555
Na17 O143 2.312694 1_555
Na17 O139 2.532765 1_555
Na17 O141 2.546112 1_555
Na17 O129 2.731400 1_555
Na17 O127 2.760510 1_555
Na17 O131 2.775792 1_555
Hf0 O11 1.894446 1_555
Hf0 O78 2.074498 1_655
Hf0 O83 2.081631 1_545
Hf0 O9 2.109318 1_545
Hf0 O6 2.118566 1_655
Hf0 O80 2.173347 1_645
Hf1 O10 1.899869 1_555
Hf1 O79 2.066780 1_555
Hf1 O82 2.092125 1_545
Hf1 O7 2.114551 1_555
Hf1 O8 2.115814 1_545
Hf1 O81 2.164174 1_545
Hf2 O19 1.906002 1_555
Hf2 O93 2.073342 1_565
Hf2 O20 2.076850 1_665
Hf2 O91 2.097525 1_555
Hf2 O22 2.111411 1_655
Hf2 O94 2.179569 1_665
Hf3 O96 1.904769 1_555
Hf3 O100 2.073403 1_555
Hf3 O98 2.083653 1_555
Hf3 O26 2.089600 1_555
Hf3 O24 2.097331 1_555
Hf3 O28 2.187044 1_555
Hf4 O97 1.907312 1_555
Hf4 O101 2.079209 1_555
Hf4 O25 2.085676 1_555
Hf4 O99 2.090160 1_555
Hf4 O27 2.093688 1_555
Hf4 O29 2.172729 1_555
Hf5 O135 1.954900 1_555
Hf5 O63 2.023978 1_555
Hf5 O133 2.075037 1_555
Hf5 O65 2.079918 1_555
Hf5 O61 2.118901 1_555
Hf5 O137 2.126957 1_555
Mg0 O3 1.915193 1_555
Mg0 O0 2.083016 1_665
Mg0 O72 2.096013 1_655
Mg0 O5 2.114740 1_565
Mg0 O76 2.130860 1_665
Mg0 O75 2.156153 1_555
Mg1 O4 2.012051 1_555
Mg1 O1 2.039176 1_555
Mg1 O2 2.047928 1_545
Mg1 O77 2.117078 1_555
Mg1 O74 2.122441 1_545
Mg1 O73 2.167028 1_545
Mg2 O13 1.912014 1_555
Mg2 O16 2.028494 1_655
Mg2 O14 2.031577 1_665
Mg2 O86 2.155462 1_665
Mg2 O89 2.186423 1_555
Mg2 O85 2.198124 1_565
Mg3 O12 1.912531 1_555
Mg3 O17 2.021553 1_555
Mg3 O15 2.022874 1_565
Mg3 O87 2.166605 1_565
Mg3 O88 2.200309 1_555
Mg3 O84 2.216272 1_565
Mg4 O23 2.058304 1_545
Mg4 O95 2.065505 1_555
Mg4 O21 2.081031 1_555
Mg4 O90 2.103733 1_545
Mg4 O92 2.103883 1_555
Mg4 O18 2.112500 1_545
Mg5 O30 2.029713 1_555
Mg5 O32 2.047491 1_555
Mg5 O34 2.054670 1_555
Mg5 O106 2.122086 1_555
Mg5 O104 2.126975 1_555
Mg5 O102 2.129954 1_555
Mg6 O103 2.012843 1_555
Mg6 O33 2.029761 1_555
Mg6 O35 2.040324 1_555
Mg6 O31 2.062823 1_555
Mg6 O105 2.172594 1_555
Mg6 O107 2.188233 1_555
Mg7 O40 2.040672 1_556
Mg7 O38 2.064379 1_556
Mg7 O36 2.084709 1_556
Mg7 O112 2.096069 1_555
Mg7 O110 2.100697 1_555
Mg7 O108 2.125711 1_555
Mg8 O37 2.036063 1_556
Mg8 O41 2.054415 1_556
Mg8 O113 2.086807 1_555
Mg8 O39 2.091025 1_556
Mg8 O109 2.096249 1_555
Mg8 O111 2.152295 1_555
Mg9 O42 2.015166 1_555
Mg9 O46 2.044573 1_555
Mg9 O114 2.067434 1_555
Mg9 O44 2.067472 1_555
Mg9 O116 2.101186 1_555
Mg9 O118 2.160526 1_555
Mg10 O45 2.010577 1_555
Mg10 O119 2.057212 1_555
Mg10 O47 2.057351 1_555
Mg10 O115 2.116463 1_555
Mg10 O43 2.117045 1_555
Mg10 O117 2.128694 1_555
Mg11 O52 1.999648 1_554
Mg11 O50 2.012478 1_554
Mg11 O122 2.090285 1_555
Mg11 O48 2.099214 1_554
Mg11 O124 2.151297 1_555
Mg11 O120 2.190527 1_555
Mg12 O51 2.030302 1_554
Mg12 O49 2.057866 1_554
Mg12 O53 2.059298 1_554
Mg12 O121 2.120391 1_555
Mg12 O123 2.129728 1_555
Mg12 O125 2.139718 1_555
Mg13 O58 1.971379 1_555
Mg13 O56 2.012722 1_555
Mg13 O130 2.085871 1_555
Mg13 O54 2.120389 1_555
Mg13 O126 2.184250 1_555
Mg13 O128 2.187143 1_555
Mg14 O57 2.025245 1_555
Mg14 O59 2.054538 1_555
Mg14 O131 2.076898 1_555
Mg14 O55 2.080883 1_555
Mg14 O129 2.116685 1_555
Mg14 O127 2.151251 1_555
Mg15 O64 2.029034 1_555
Mg15 O62 2.039832 1_555
Mg15 O60 2.080953 1_555
Mg15 O134 2.103208 1_555
Mg15 O136 2.150305 1_555
Mg15 O132 2.186651 1_555
Mg16 O142 1.937867 1_555
Mg16 O68 2.034545 1_555
Mg16 O70 2.068584 1_555
Mg16 O66 2.122070 1_555
Mg16 O140 2.139154 1_555
Mg16 O138 2.148731 1_555
Mg17 O143 1.938090 1_555
Mg17 O69 2.027075 1_555
Mg17 O71 2.058379 1_555
Mg17 O67 2.121661 1_555
Mg17 O141 2.150494 1_555
Mg17 O139 2.153692 1_555
O0 S0 1.453255 1_555
O1 S1 1.475360 1_555
O2 S2 1.495040 1_555
O3 Si0 1.578323 1_555
O4 S4 1.465931 1_555
O5 S3 1.448088 1_655
O6 S5 1.498564 1_555
O7 S6 1.499717 1_555
O8 S8 1.492419 1_555
O9 S7 1.493795 1_655
O10 Si1 1.672402 1_545
O11 Si2 1.673627 1_545
O12 Si1 1.604670 1_555
O13 Si2 1.602786 1_555
O14 S5 1.454104 1_555
O15 S6 1.455634 1_555
O16 S7 1.455435 1_555
O17 S8 1.456150 1_555
O18 S2 1.483991 1_555
O19 Si0 1.661265 1_555
O20 S3 1.513141 1_555
O21 S4 1.469805 1_555
O22 S0 1.524058 1_565
O23 S1 1.456861 1_565
O24 S9 1.510476 1_555
O25 S10 1.515812 1_555
O26 S11 1.520880 1_555
O27 S12 1.520354 1_555
O28 S13 1.490980 1_555
O29 S14 1.495707 1_555
O30 S15 1.475600 1_555
O31 S16 1.477261 1_555
O32 S17 1.468619 1_555
O33 S18 1.468566 1_555
O34 S19 1.474197 1_555
O35 S20 1.493629 1_555
O36 S19 1.461395 1_555
O37 S20 1.467860 1_555
O38 S15 1.483225 1_555
O39 S16 1.454816 1_555
O40 S17 1.464139 1_555
O41 S18 1.457847 1_555
O42 S11 1.465179 1_555
O43 S12 1.462514 1_555
O44 S13 1.477220 1_555
O45 S14 1.458977 1_555
O46 S9 1.474238 1_555
O47 S10 1.471214 1_555
O48 S21 1.482728 1_555
O49 S22 1.464336 1_555
O50 S23 1.469687 1_555
O51 S24 1.461590 1_555
O52 S25 1.471958 1_555
O53 S26 1.467852 1_555
O54 S27 1.492799 1_555
O55 S28 1.473129 1_555
O56 S29 1.473575 1_555
O57 S30 1.460146 1_555
O58 S31 1.475098 1_555
O59 S32 1.455702 1_555
O60 S31 1.493048 1_555
O61 S32 1.501829 1_555
O62 S27 1.468682 1_555
O63 S28 1.532532 1_555
O64 S29 1.485182 1_555
O65 S30 1.530589 1_555
O66 S23 1.458151 1_555
O67 S24 1.459393 1_555
O68 S25 1.455953 1_555
O69 S26 1.460307 1_555
O70 S21 1.452116 1_555
O71 S22 1.458168 1_555
O72 S31 1.481038 1_555
O73 S32 1.491294 1_555
O74 S27 1.507977 1_555
O75 S28 1.460923 1_555
O76 S29 1.469031 1_555
O77 S30 1.478066 1_555
O78 S23 1.541198 1_555
O79 S24 1.541487 1_555
O80 S25 1.520863 1_555
O81 S26 1.525148 1_555
O82 S21 1.533904 1_555
O83 S22 1.542644 1_555
O84 S9 1.483708 1_555
O85 S10 1.481749 1_555
O86 S11 1.460856 1_555
O87 S12 1.468548 1_555
O88 S13 1.487622 1_555
O89 S14 1.485800 1_555
O90 S15 1.509754 1_555
O91 S16 1.534445 1_555
O92 S17 1.506814 1_555
O93 S18 1.542213 1_555
O94 S19 1.506140 1_555
O95 S20 1.493110 1_555
O96 Si1 1.694926 1_545
O97 Si2 1.692151 1_545
O98 S5 1.515319 1_555
O99 S6 1.512182 1_555
O100 S8 1.514551 1_555
O101 S7 1.512788 1_655
O102 S2 1.487507 1_555
O103 Si0 1.629600 1_555
O104 S4 1.464601 1_555
O105 S3 1.484385 1_655
O106 S0 1.469755 1_555
O107 S1 1.477686 1_555
O108 S21 1.476652 1_555
O109 S22 1.477341 1_555
O110 S24 1.480097 1_555
O111 S23 1.475614 1_655
O112 S25 1.481997 1_545
O113 S26 1.483055 1_545
O114 S27 1.476921 1_545
O115 S28 1.472410 1_545
O116 S29 1.511262 1_555
O117 S30 1.468910 1_555
O118 S32 1.487571 1_555
O119 S31 1.491044 1_655
O120 S19 1.495586 1_555
O121 S20 1.487086 1_555
O122 S16 1.477266 1_455
O123 S15 1.475091 1_555
O124 S17 1.507768 1_565
O125 S18 1.472942 1_565
O126 S11 1.489447 1_565
O127 S12 1.492491 1_565
O128 S13 1.490383 1_555
O129 S14 1.496968 1_555
O130 S10 1.468088 1_455
O131 S9 1.465865 1_555
O132 S0 1.497123 1_565
O133 S1 1.511756 1_565
O134 S2 1.489277 1_555
O135 Si0 1.677919 1_555
O136 S3 1.495203 1_555
O137 S4 1.533695 1_555
O138 S5 1.453641 1_555
O139 S6 1.453485 1_555
O140 S7 1.453812 1_555
O141 S8 1.453079 1_555
O142 Si1 1.590316 1_555
O143 Si2 1.590506 1_555
