# generated using pymatgen
data_Nb3(BiS3)2
_symmetry_space_group_name_H-M   'P 1'
_cell_length_a   5.79773252
_cell_length_b   5.79772949
_cell_length_c   17.37328901
_cell_angle_alpha   89.99999239
_cell_angle_beta   90.00001602
_cell_angle_gamma   120.00001798
_symmetry_Int_Tables_number   1
_chemical_formula_structural   Nb3(BiS3)2
_chemical_formula_sum   'Nb6 Bi4 S12'
_cell_volume   505.74164967
_cell_formula_units_Z   2
loop_
 _symmetry_equiv_pos_site_id
 _symmetry_equiv_pos_as_xyz
  1  'x, y, z'
loop_
 _atom_site_type_symbol
 _atom_site_label
 _atom_site_symmetry_multiplicity
 _atom_site_fract_x
 _atom_site_fract_y
 _atom_site_fract_z
 _atom_site_occupancy
  Nb  Nb0  1  0.67428308  0.99999979  0.75006605  1
  Nb  Nb1  1  0.67443486  0.67443465  0.24992962  1
  Nb  Nb2  1  1.00000027  0.32556527  0.24992965  1
  Nb  Nb3  1  1.00000103  0.67428463  0.75006603  1
  Nb  Nb4  1  0.32556319  1.00000018  0.24992967  1
  Nb  Nb5  1  0.32571611  0.32571522  0.75006604  1
  Bi  Bi0  1  0.33333346  0.66666660  1.00024665  1
  Bi  Bi1  1  0.66666685  0.33333312  0.49975021  1
  Bi  Bi2  1  0.33333352  0.66666653  0.49975020  1
  Bi  Bi3  1  0.66666666  0.33333314  1.00024671  1
  S  S0  1  0.33333360  0.66666696  0.66147589  1
  S  S1  1  0.66666661  0.33333301  0.16148950  1
  S  S2  1  0.66666638  0.33333303  0.83863648  1
  S  S3  1  0.33333358  0.66666748  0.33840269  1
  S  S4  1  0.33333358  0.66666753  0.16148945  1
  S  S5  1  0.66666625  0.33333288  0.66147588  1
  S  S6  1  0.66666647  0.33333273  0.33840276  1
  S  S7  1  0.33333352  0.66666707  0.83863648  1
  S  S8  1  0.99999926  -0.00000003  0.15776264  1
  S  S9  1  0.00000061  0.00000016  0.65787015  1
  S  S10  1  0.00000054  -0.00000013  0.84228954  1
  S  S11  1  -0.00000044  0.00000019  0.34208872  1
loop_
_geom_bond_atom_site_label_1
_geom_bond_atom_site_label_2
_geom_bond_distance
_geom_bond_site_symmetry_2
Nb0 S9 2.476233 1_665
Nb0 S10 2.476543 1_665
Nb0 S7 2.487954 1_555
Nb0 S2 2.487956 1_565
Nb0 S0 2.488165 1_555
Nb0 S5 2.488167 1_565
Nb1 S11 2.475145 1_665
Nb1 S8 2.475233 1_565
Nb1 S1 2.486914 1_555
Nb1 S4 2.486916 1_555
Nb1 S6 2.487269 1_555
Nb1 S3 2.487269 1_555
Nb2 S11 2.475143 1_655
Nb2 S8 2.475233 1_555
Nb2 S1 2.486915 1_555
Nb2 S4 2.486916 1_655
Nb2 S3 2.487268 1_655
Nb2 S6 2.487269 1_555
Nb3 S9 2.476224 1_665
Nb3 S10 2.476534 1_665
Nb3 S7 2.487955 1_655
Nb3 S2 2.487963 1_555
Nb3 S0 2.488168 1_655
Nb3 S5 2.488175 1_555
Nb4 S11 2.475139 1_565
Nb4 S8 2.475229 1_465
Nb4 S4 2.486917 1_555
Nb4 S1 2.486918 1_565
Nb4 S3 2.487269 1_555
Nb4 S6 2.487270 1_565
Nb5 S9 2.476222 1_555
Nb5 S10 2.476534 1_555
Nb5 S2 2.487955 1_555
Nb5 S7 2.487963 1_555
Nb5 S5 2.488168 1_555
Nb5 S0 2.488174 1_555
Bi0 S4 2.801318 1_556
Bi0 S7 2.807700 1_555
Bi1 S6 2.803136 1_555
Bi1 S5 2.809707 1_555
Bi2 S3 2.803137 1_555
Bi2 S0 2.809707 1_555
Bi3 S1 2.801318 1_556
Bi3 S2 2.807701 1_555
