# generated using pymatgen
data_Na10Mg4In4Si3(S3O16)3
_symmetry_space_group_name_H-M   'P 1'
_cell_length_a   18.06768655
_cell_length_b   9.06527389
_cell_length_c   22.70992066
_cell_angle_alpha   89.98690335
_cell_angle_beta   88.70026838
_cell_angle_gamma   120.24680733
_symmetry_Int_Tables_number   1
_chemical_formula_structural   Na10Mg4In4Si3(S3O16)3
_chemical_formula_sum   'Na30 Mg12 In12 Si9 S27 O144'
_cell_volume   3212.12885836
_cell_formula_units_Z   3
loop_
 _symmetry_equiv_pos_site_id
 _symmetry_equiv_pos_as_xyz
  1  'x, y, z'
loop_
 _atom_site_type_symbol
 _atom_site_label
 _atom_site_symmetry_multiplicity
 _atom_site_fract_x
 _atom_site_fract_y
 _atom_site_fract_z
 _atom_site_occupancy
  Na  Na0  1  0.18993726  0.37024532  0.24351202  1
  Na  Na1  1  0.68966248  0.37366319  0.24357532  1
  Na  Na2  1  0.99175001  0.64038796  0.25459545  1
  Na  Na3  1  0.49360474  0.63490585  0.26173411  1
  Na  Na4  1  0.32347899  0.65616189  0.74442658  1
  Na  Na5  1  0.82063422  0.64958456  0.74392041  1
  Na  Na6  1  0.99350268  0.34839024  0.75179314  1
  Na  Na7  1  0.19010031  0.00354471  0.73962467  1
  Na  Na8  1  0.69044052  0.00515928  0.74043928  1
  Na  Na9  1  0.52187489  0.70476287  0.57253270  1
  Na  Na10  1  0.32698108  0.97154390  0.59011715  1
  Na  Na11  1  0.82656466  0.96629300  0.58848090  1
  Na  Na12  1  0.15399388  0.98556998  0.07896770  1
  Na  Na13  1  0.65377135  0.98506527  0.07881778  1
  Na  Na14  1  0.32859136  0.68466226  0.09299437  1
  Na  Na15  1  0.82807336  0.68482091  0.09322775  1
  Na  Na16  1  0.66037704  0.01408280  0.42651886  1
  Na  Na17  1  0.35643141  0.67166950  0.40880814  1
  Na  Na18  1  0.01820302  0.00406675  0.49963529  1
  Na  Na19  1  0.51139588  0.01171104  0.49761742  1
  Na  Na20  1  0.00971731  0.02982994  0.99887416  1
  Na  Na21  1  0.51006244  0.03107939  0.99820333  1
  Na  Na22  1  0.34453135  0.31755330  0.83067683  1
  Na  Na23  1  0.83196496  0.31496849  0.83322914  1
  Na  Na24  1  0.34000816  0.33524987  0.33399571  1
  Na  Na25  1  0.83769441  0.34858180  0.33104661  1
  Na  Na26  1  0.17352132  0.65394208  0.16462095  1
  Na  Na27  1  0.67323477  0.65421376  0.16612020  1
  Na  Na28  1  0.16772287  0.68389988  0.65854709  1
  Na  Na29  1  0.66550113  0.66538227  0.66141413  1
  Mg  Mg0  1  0.99392181  0.98720338  0.35077434  1
  Mg  Mg1  1  0.49574505  0.98707850  0.35077909  1
  Mg  Mg2  1  0.99525645  0.00400666  0.85202071  1
  Mg  Mg3  1  0.49482440  0.00518825  0.85165061  1
  Mg  Mg4  1  0.33198949  0.31038158  0.68249341  1
  Mg  Mg5  1  0.83030671  0.31753253  0.68054444  1
  Mg  Mg6  1  0.33129293  0.34182704  0.18380659  1
  Mg  Mg7  1  0.83016723  0.34203875  0.18321947  1
  Mg  Mg8  1  0.16316742  0.64697515  0.01784556  1
  Mg  Mg9  1  0.66255498  0.64610590  0.01778235  1
  Mg  Mg10  1  0.16079925  0.67337599  0.51851534  1
  Mg  Mg11  1  0.66454004  0.67209525  0.51557112  1
  In  In0  1  0.00191892  0.99945963  0.64856597  1
  In  In1  1  0.50248031  0.00833453  0.65200736  1
  In  In2  1  0.99543013  0.00639725  0.15369071  1
  In  In3  1  0.49616384  0.00578591  0.15261477  1
  In  In4  1  0.32875376  0.33044367  0.98402321  1
  In  In5  1  0.82858479  0.33076002  0.98379227  1
  In  In6  1  0.33031947  0.32713257  0.48258976  1
  In  In7  1  0.83067986  0.33392912  0.48645363  1
  In  In8  1  0.17203850  0.67331070  0.31794250  1
  In  In9  1  0.67004417  0.67041002  0.32099772  1
  In  In10  1  0.17323217  0.67675456  0.82218483  1
  In  In11  1  0.66745379  0.66872044  0.82048479  1
  Si  Si0  1  0.35080422  0.69892642  0.25064304  1
  Si  Si1  1  0.85155643  0.70202664  0.25068387  1
  Si  Si2  1  0.35383811  0.00597888  0.75166937  1
  Si  Si3  1  0.85384841  0.00364826  0.75055482  1
  Si  Si4  1  0.18297008  0.03122496  0.58521081  1
  Si  Si5  1  0.68230672  0.02952456  0.58506121  1
  Si  Si6  1  0.18195199  0.33240559  0.08683764  1
  Si  Si7  1  0.68177042  0.33298474  0.08629066  1
  Si  Si8  1  0.51708581  0.66686515  0.41809302  1
  S  S0  1  0.14778996  0.00099858  0.25086038  1
  S  S1  1  0.64981189  0.00252193  0.24985984  1
  S  S2  1  0.99800858  0.29746142  0.25354355  1
  S  S3  1  0.49842669  0.29529082  0.25234250  1
  S  S4  1  0.14776796  0.29539910  0.75286824  1
  S  S5  1  0.64913426  0.29751214  0.75279222  1
  S  S6  1  0.99927134  0.70291263  0.75347891  1
  S  S7  1  0.49967266  0.70298950  0.75226092  1
  S  S8  1  0.48330961  0.33802381  0.58289570  1
  S  S9  1  0.98288529  0.34002078  0.58392223  1
  S  S10  1  0.33118257  0.62707764  0.58491046  1
  S  S11  1  0.83145154  0.62792281  0.58466247  1
  S  S12  1  0.48335227  0.62650952  0.08300058  1
  S  S13  1  0.98339006  0.62641185  0.08287707  1
  S  S14  1  0.33276116  0.04058616  0.08232570  1
  S  S15  1  0.83310416  0.04166053  0.08217125  1
  S  S16  1  0.31912870  0.66924086  0.91791525  1
  S  S17  1  0.81795249  0.66928155  0.91690638  1
  S  S18  1  0.01750196  0.36969373  0.91688256  1
  S  S19  1  0.51730144  0.36876201  0.91805939  1
  S  S20  1  0.16461995  0.96612899  0.91836401  1
  S  S21  1  0.66505402  0.96482384  0.91769978  1
  S  S22  1  0.31527275  0.96159070  0.41794896  1
  S  S23  1  0.82018182  0.96961288  0.41912729  1
  S  S24  1  0.16143469  0.36727137  0.41726483  1
  S  S25  1  0.66802085  0.36944943  0.41703074  1
  S  S26  1  0.01808161  0.66742401  0.41679012  1
  O  O0  1  0.10565660  0.03298679  0.30114581  1
  O  O1  1  0.60768787  0.02985319  0.30191214  1
  O  O2  1  0.40906217  0.79433089  0.30639959  1
  O  O3  1  0.91900696  0.80276884  0.30107895  1
  O  O4  1  0.49137821  0.19150475  0.30362580  1
  O  O5  1  0.99067062  0.19391324  0.30450449  1
  O  O6  1  0.10796811  0.18096395  0.80444712  1
  O  O7  1  0.60697680  0.18421194  0.80389361  1
  O  O8  1  0.49057918  0.79319548  0.80317927  1
  O  O9  1  0.98922528  0.78886961  0.80544308  1
  O  O10  1  0.40993754  0.01248914  0.80570500  1
  O  O11  1  0.91817002  0.03540794  0.80305129  1
  O  O12  1  0.38798909  0.95933720  0.68892035  1
  O  O13  1  0.88937576  0.95670415  0.68890992  1
  O  O14  1  0.09565482  0.22449417  0.69961883  1
  O  O15  1  0.60167804  0.22841708  0.69787675  1
  O  O16  1  0.02080050  0.81092729  0.69959406  1
  O  O17  1  0.51920283  0.80770915  0.69662012  1
  O  O18  1  0.38901019  0.80302515  0.18691223  1
  O  O19  1  0.88631982  0.80188569  0.18532742  1
  O  O20  1  0.02135140  0.23578375  0.19854786  1
  O  O21  1  0.51786110  0.22913298  0.19707763  1
  O  O22  1  0.09798607  0.97067292  0.19547438  1
  O  O23  1  0.59848479  0.97602327  0.19566099  1
  O  O24  1  0.44181534  0.36641390  0.63543418  1
  O  O25  1  0.94394662  0.36326205  0.63905910  1
  O  O26  1  0.23840642  0.11486543  0.64435972  1
  O  O27  1  0.74040414  0.12167893  0.64170504  1
  O  O28  1  0.32586197  0.52913846  0.63884538  1
  O  O29  1  0.82672385  0.53221871  0.63925619  1
  O  O30  1  0.44403317  0.52408995  0.13703835  1
  O  O31  1  0.94425407  0.52466775  0.13718610  1
  O  O32  1  0.32531319  0.12927297  0.13423535  1
  O  O33  1  0.82578837  0.13051760  0.13405065  1
  O  O34  1  0.23982961  0.36009794  0.14422259  1
  O  O35  1  0.73959821  0.36085306  0.14361498  1
  O  O36  1  0.22106125  0.27897890  0.02919916  1
  O  O37  1  0.72106035  0.27966695  0.02864793  1
  O  O38  1  0.43035101  0.54514817  0.03063583  1
  O  O39  1  0.93039014  0.54415013  0.03061023  1
  O  O40  1  0.34953939  0.14184215  0.02712808  1
  O  O41  1  0.85004927  0.14305049  0.02689022  1
  O  O42  1  0.22704592  0.14995244  0.52615419  1
  O  O43  1  0.72122091  0.13607377  0.52223991  1
  O  O44  1  0.34794843  0.55396097  0.53096271  1
  O  O45  1  0.84756792  0.55291108  0.53131327  1
  O  O46  1  0.43208809  0.31098635  0.52980211  1
  O  O47  1  0.92863015  0.31554921  0.53237653  1
  O  O48  1  0.27132938  0.68279096  0.96922470  1
  O  O49  1  0.77116465  0.68208666  0.96891485  1
  O  O50  1  0.07107467  0.46600910  0.96623373  1
  O  O51  1  0.56933410  0.46117069  0.96874629  1
  O  O52  1  0.15753920  0.86058707  0.97015175  1
  O  O53  1  0.65824776  0.86072192  0.96996534  1
  O  O54  1  0.27168494  0.85222243  0.47031048  1
  O  O55  1  0.77820142  0.86767517  0.47303189  1
  O  O56  1  0.15383515  0.46113109  0.46738990  1
  O  O57  1  0.66286088  0.46325294  0.46759848  1
  O  O58  1  0.07123564  0.67831123  0.46604225  1
  O  O59  1  0.57617263  0.69254745  0.47409833  1
  O  O60  1  0.05457480  0.64302296  0.35911967  1
  O  O61  1  0.55822261  0.64159820  0.35534333  1
  O  O62  1  0.26379166  0.88534672  0.36412277  1
  O  O63  1  0.76533004  0.89232664  0.36681007  1
  O  O64  1  0.17476920  0.46581127  0.36009553  1
  O  O65  1  0.68098573  0.46284505  0.35995107  1
  O  O66  1  0.05505649  0.46734429  0.85939828  1
  O  O67  1  0.55512620  0.46968101  0.86205038  1
  O  O68  1  0.17365725  0.88786497  0.86197208  1
  O  O69  1  0.67537547  0.88724692  0.86174095  1
  O  O70  1  0.26913979  0.64011482  0.86241590  1
  O  O71  1  0.76852327  0.64339391  0.86170617  1
  O  O72  1  0.01176529  0.82309010  0.41316197  1
  O  O73  1  0.50987227  0.84163898  0.41345932  1
  O  O74  1  0.39992953  0.97416857  0.41176376  1
  O  O75  1  0.90538546  0.98849797  0.41154229  1
  O  O76  1  0.08576275  0.19527147  0.41284434  1
  O  O77  1  0.59054444  0.19683877  0.41411895  1
  O  O78  1  0.01114090  0.20131321  0.91378298  1
  O  O79  1  0.51116114  0.20058250  0.91402625  1
  O  O80  1  0.08769892  0.98367639  0.91491722  1
  O  O81  1  0.58850153  0.98283923  0.91408955  1
  O  O82  1  0.40393128  0.82439465  0.91330596  1
  O  O83  1  0.90318141  0.82515766  0.91228372  1
  O  O84  1  0.48692154  0.17697544  0.58827398  1
  O  O85  1  0.98463631  0.17669716  0.58706122  1
  O  O86  1  0.08629292  0.00994370  0.58718233  1
  O  O87  1  0.58332363  0.99938335  0.58861075  1
  O  O88  1  0.40854042  0.80457866  0.58641267  1
  O  O89  1  0.90556989  0.80725533  0.58532283  1
  O  O90  1  0.48937107  0.79806635  0.08613785  1
  O  O91  1  0.98948674  0.79785511  0.08593096  1
  O  O92  1  0.40443006  0.00362997  0.08492998  1
  O  O93  1  0.90510933  0.00548416  0.08483563  1
  O  O94  1  0.08627421  0.15343389  0.09041171  1
  O  O95  1  0.58639503  0.15364061  0.08931345  1
  O  O96  1  0.33832053  0.16781859  0.74740060  1
  O  O97  1  0.84318821  0.17330752  0.74496454  1
  O  O98  1  0.23628354  0.32825725  0.74480173  1
  O  O99  1  0.73759671  0.32265233  0.74651224  1
  O  O100  1  0.41916681  0.53720563  0.74604234  1
  O  O101  1  0.91899155  0.53544810  0.74670422  1
  O  O102  1  0.34370162  0.50985666  0.24743924  1
  O  O103  1  0.84275385  0.51112335  0.24651109  1
  O  O104  1  0.42079580  0.30946577  0.24629495  1
  O  O105  1  0.92025985  0.30989363  0.24612455  1
  O  O106  1  0.23540692  0.14811317  0.24395749  1
  O  O107  1  0.73630841  0.15424139  0.24357095  1
  O  O108  1  0.32932690  0.51561422  0.92137383  1
  O  O109  1  0.82848652  0.51542666  0.91996232  1
  O  O110  1  0.42946083  0.34824706  0.92218218  1
  O  O111  1  0.93013551  0.35083671  0.92102540  1
  O  O112  1  0.24477545  0.13717258  0.91864870  1
  O  O113  1  0.74548327  0.13694387  0.91811434  1
  O  O114  1  0.32590122  0.13415222  0.42060127  1
  O  O115  1  0.82726604  0.14303762  0.42174846  1
  O  O116  1  0.24235167  0.35959812  0.41939383  1
  O  O117  1  0.74504683  0.34420807  0.41890082  1
  O  O118  1  0.41731507  0.50001247  0.42077286  1
  O  O119  1  0.93015678  0.51074207  0.42154257  1
  O  O120  1  0.17954440  0.50887939  0.07749273  1
  O  O121  1  0.67953617  0.50964894  0.07741028  1
  O  O122  1  0.07173851  0.65689608  0.07526857  1
  O  O123  1  0.57183018  0.65795489  0.07533283  1
  O  O124  1  0.25070614  0.87223217  0.07807576  1
  O  O125  1  0.75121614  0.87340744  0.07788848  1
  O  O126  1  0.17872872  0.84645079  0.57786265  1
  O  O127  1  0.67507746  0.84074728  0.58066819  1
  O  O128  1  0.25375611  0.64124826  0.58018082  1
  O  O129  1  0.75207632  0.63626578  0.58004934  1
  O  O130  1  0.06958515  0.48666968  0.57623676  1
  O  O131  1  0.57004889  0.48715548  0.57691301  1
  O  O132  1  0.14947370  0.83766924  0.25764292  1
  O  O133  1  0.65451304  0.84346647  0.25448214  1
  O  O134  1  0.25104128  0.66654521  0.25223799  1
  O  O135  1  0.75246660  0.67130917  0.25588304  1
  O  O136  1  0.07308059  0.47872356  0.25753694  1
  O  O137  1  0.57515980  0.47319801  0.25476059  1
  O  O138  1  0.15200865  0.46514447  0.76015496  1
  O  O139  1  0.65971790  0.47186173  0.75870982  1
  O  O140  1  0.07255123  0.66941331  0.75868145  1
  O  O141  1  0.57574200  0.67948535  0.75710483  1
  O  O142  1  0.25393995  0.82536702  0.75377578  1
  O  O143  1  0.75552986  0.82837430  0.75545277  1
loop_
_geom_bond_atom_site_label_1
_geom_bond_atom_site_label_2
_geom_bond_distance
_geom_bond_site_symmetry_2
Na0 O134 2.344264 1_555
Na0 O102 2.407685 1_555
Na0 O34 2.428343 1_555
Na0 O106 2.529222 1_555
Na0 O136 2.754553 1_555
Na0 O64 2.835975 1_555
Na0 O20 2.864882 1_555
Na0 O0 2.932014 1_555
Na1 O135 2.361438 1_555
Na1 O103 2.396664 1_555
Na1 O35 2.448176 1_555
Na1 O107 2.521064 1_555
Na1 O137 2.648677 1_555
Na1 O65 2.787989 1_555
Na1 O21 2.918717 1_555
Na1 O1 2.986862 1_555
Na2 O103 2.344840 1_555
Na2 O132 2.489697 1_655
Na2 O136 2.546671 1_655
Na2 O105 2.606606 1_555
Na2 O3 2.625925 1_555
Na2 O60 2.649262 1_655
Na2 O31 2.853856 1_555
Na2 O22 2.922855 1_655
Na3 O102 2.381766 1_555
Na3 O61 2.434603 1_555
Na3 O133 2.548400 1_555
Na3 O137 2.551652 1_555
Na3 O104 2.582376 1_555
Na3 O2 2.757758 1_555
Na4 O142 2.430241 1_555
Na4 O100 2.456477 1_555
Na4 O98 2.568954 1_555
Na4 O28 2.668988 1_555
Na4 O12 2.684312 1_555
Na4 O138 2.696109 1_555
Na4 O70 2.810965 1_555
Na5 O143 2.446647 1_555
Na5 O101 2.467810 1_555
Na5 O139 2.529388 1_555
Na5 O99 2.560148 1_555
Na5 O29 2.626987 1_555
Na5 O13 2.701664 1_555
Na5 O71 2.806632 1_555
Na6 O97 2.365486 1_555
Na6 O138 2.515733 1_655
Na6 O140 2.521180 1_655
Na6 O101 2.647277 1_555
Na6 O66 2.699567 1_655
Na6 O11 2.700700 1_555
Na6 O25 2.756777 1_555
Na6 O14 2.839301 1_655
Na7 O96 2.329023 1_555
Na7 O26 2.342371 1_555
Na7 O142 2.436428 1_545
Na7 O98 2.627737 1_555
Na7 O140 2.710989 1_545
Na7 O16 2.824524 1_545
Na7 O68 2.924958 1_545
Na8 O97 2.392774 1_555
Na8 O27 2.429973 1_555
Na8 O143 2.446276 1_545
Na8 O99 2.561988 1_555
Na8 O141 2.637071 1_545
Na8 O17 2.885753 1_545
Na8 O69 2.911500 1_545
Na9 O87 2.351745 1_555
Na9 O127 2.408595 1_555
Na9 O59 2.445800 1_555
Na9 O131 2.528347 1_555
Na9 O88 2.636037 1_555
Na9 O44 2.905566 1_555
Na9 O17 2.975717 1_555
Na9 O24 2.995876 1_555
Na10 O126 2.347765 1_555
Na10 O84 2.528512 1_565
Na10 O12 2.548906 1_555
Na10 O88 2.590548 1_555
Na10 O128 2.605683 1_555
Na10 O26 2.787940 1_565
Na10 O54 2.933746 1_555
Na10 O46 2.990696 1_565
Na11 O127 2.387875 1_555
Na11 O89 2.487971 1_555
Na11 O85 2.510687 1_565
Na11 O13 2.591121 1_555
Na11 O129 2.598889 1_555
Na11 O55 2.784746 1_555
Na11 O27 2.827217 1_565
Na12 O94 2.396202 1_565
Na12 O124 2.432370 1_555
Na12 O36 2.551453 1_565
Na12 O122 2.576432 1_555
Na12 O91 2.576451 1_455
Na12 O52 2.731639 1_554
Na12 O22 2.789893 1_555
Na13 O95 2.394834 1_565
Na13 O125 2.432783 1_555
Na13 O37 2.563836 1_565
Na13 O123 2.563968 1_555
Na13 O90 2.574656 1_555
Na13 O53 2.733518 1_554
Na13 O23 2.800491 1_555
Na14 O120 2.373852 1_555
Na14 O18 2.412202 1_555
Na14 O92 2.503758 1_565
Na14 O90 2.547634 1_555
Na14 O124 2.723646 1_555
Na14 O34 2.782513 1_555
Na15 O19 2.363076 1_555
Na15 O121 2.367198 1_555
Na15 O93 2.516988 1_565
Na15 O91 2.559298 1_555
Na15 O125 2.717663 1_555
Na15 O35 2.770501 1_555
Na16 O73 2.383354 1_545
Na16 O43 2.457983 1_555
Na16 O77 2.556910 1_555
Na16 O117 2.588778 1_555
Na16 O115 2.627601 1_555
Na16 O59 2.726654 1_545
Na16 O63 2.940304 1_545
Na16 O1 3.032102 1_555
Na17 O118 2.333085 1_555
Na17 O73 2.404356 1_555
Na17 O74 2.444031 1_555
Na17 O2 2.526413 1_555
Na17 O116 2.532231 1_555
Na18 O86 2.348225 1_555
Na18 O76 2.477306 1_555
Na18 O72 2.526106 1_545
Na18 O89 2.696697 1_445
Na18 O85 2.767990 1_455
Na18 O75 2.841203 1_445
Na19 O77 2.432060 1_555
Na19 O73 2.447755 1_545
Na19 O87 2.497924 1_545
Na19 O84 2.703006 1_555
Na19 O88 2.712657 1_545
Na19 O74 2.731509 1_545
Na20 O94 2.461770 1_556
Na20 O78 2.471351 1_555
Na20 O80 2.503579 1_545
Na20 O93 2.616120 1_456
Na20 O83 2.754989 1_445
Na20 O91 2.766862 1_446
Na21 O79 2.445841 1_555
Na21 O95 2.450401 1_556
Na21 O81 2.520042 1_545
Na21 O92 2.633318 1_556
Na21 O82 2.730306 1_545
Na21 O90 2.785368 1_546
Na22 O96 2.299796 1_555
Na22 O110 2.542683 1_555
Na22 O100 2.579364 1_555
Na22 O112 2.603784 1_555
Na22 O98 2.828781 1_555
Na22 O108 2.831004 1_555
Na23 O97 2.439941 1_555
Na23 O113 2.466497 1_555
Na23 O111 2.609006 1_555
Na23 O101 2.649569 1_555
Na23 O99 2.657465 1_555
Na23 O109 2.701297 1_555
Na24 O118 2.467781 1_555
Na24 O102 2.502008 1_555
Na24 O104 2.522702 1_555
Na24 O114 2.600797 1_555
Na24 O116 2.675901 1_555
Na24 O106 2.752743 1_555
Na25 O103 2.391688 1_555
Na25 O105 2.542567 1_555
Na25 O117 2.562395 1_555
Na25 O119 2.618878 1_555
Na25 O107 2.705767 1_555
Na25 O115 2.716117 1_555
Na26 O120 2.406637 1_555
Na26 O134 2.428843 1_555
Na26 O124 2.610993 1_555
Na26 O136 2.681344 1_555
Na26 O122 2.778315 1_555
Na26 O132 2.848605 1_555
Na27 O121 2.435187 1_555
Na27 O135 2.477468 1_555
Na27 O137 2.606178 1_555
Na27 O125 2.645383 1_555
Na27 O133 2.764063 1_555
Na27 O123 2.800492 1_555
Na28 O126 2.292474 1_555
Na28 O128 2.492657 1_555
Na28 O130 2.606313 1_555
Na28 O142 2.624825 1_555
Na28 O140 2.782136 1_555
Na28 O138 2.956138 1_555
Na29 O127 2.372115 1_555
Na29 O129 2.493151 1_555
Na29 O131 2.571316 1_555
Na29 O143 2.669756 1_555
Na29 O141 2.723601 1_555
Na29 O139 2.788164 1_555
Mg0 O3 1.921307 1_555
Mg0 O75 2.093389 1_555
Mg0 O0 2.137868 1_665
Mg0 O5 2.175276 1_565
Mg0 O72 2.197184 1_655
Mg0 O76 2.291792 1_665
Mg1 O2 1.958870 1_555
Mg1 O73 2.045573 1_555
Mg1 O1 2.140210 1_565
Mg1 O74 2.148437 1_555
Mg1 O4 2.176567 1_565
Mg1 O77 2.334619 1_565
Mg2 O11 1.930581 1_555
Mg2 O83 2.108924 1_545
Mg2 O6 2.120365 1_655
Mg2 O9 2.174030 1_545
Mg2 O78 2.179719 1_655
Mg2 O80 2.298278 1_645
Mg3 O10 1.902683 1_555
Mg3 O7 2.121922 1_555
Mg3 O82 2.127590 1_545
Mg3 O79 2.173621 1_555
Mg3 O8 2.183370 1_545
Mg3 O81 2.317452 1_545
Mg4 O26 1.948915 1_555
Mg4 O96 2.002950 1_555
Mg4 O24 2.055654 1_555
Mg4 O28 2.269963 1_555
Mg4 O98 2.278161 1_555
Mg4 O100 2.373472 1_555
Mg5 O27 1.931063 1_555
Mg5 O97 2.055479 1_555
Mg5 O25 2.080792 1_555
Mg5 O29 2.190862 1_555
Mg5 O99 2.239833 1_555
Mg5 O101 2.376766 1_555
Mg6 O34 1.977239 1_555
Mg6 O102 2.032352 1_555
Mg6 O30 2.125467 1_555
Mg6 O106 2.185802 1_555
Mg6 O32 2.188282 1_555
Mg6 O104 2.301482 1_555
Mg7 O35 1.965610 1_555
Mg7 O103 2.032687 1_555
Mg7 O31 2.132167 1_555
Mg7 O107 2.153489 1_555
Mg7 O33 2.186789 1_555
Mg7 O105 2.314848 1_555
Mg8 O120 1.969830 1_555
Mg8 O50 2.042798 1_554
Mg8 O48 2.099137 1_554
Mg8 O122 2.118843 1_555
Mg8 O52 2.266221 1_554
Mg8 O124 2.321197 1_555
Mg9 O121 1.964307 1_555
Mg9 O51 2.031936 1_554
Mg9 O49 2.108299 1_554
Mg9 O123 2.118229 1_555
Mg9 O53 2.264036 1_554
Mg9 O125 2.334584 1_555
Mg10 O126 1.972771 1_555
Mg10 O58 2.049644 1_555
Mg10 O130 2.095200 1_555
Mg10 O54 2.113796 1_555
Mg10 O56 2.197642 1_555
Mg10 O128 2.337965 1_555
Mg11 O59 1.958806 1_555
Mg11 O127 2.068764 1_555
Mg11 O55 2.129579 1_555
Mg11 O131 2.161835 1_555
Mg11 O57 2.171788 1_555
Mg11 O129 2.318064 1_555
In0 O86 2.008436 1_565
In0 O13 2.060505 1_455
In0 O14 2.232389 1_565
In0 O16 2.232653 1_555
In0 O85 2.270281 1_465
In0 O89 2.277701 1_455
In1 O12 2.043182 1_545
In1 O87 2.058392 1_545
In1 O15 2.181981 1_555
In1 O84 2.227441 1_555
In1 O17 2.234315 1_545
In1 O88 2.338620 1_545
In2 O19 2.023046 1_545
In2 O94 2.055206 1_655
In2 O20 2.150043 1_655
In2 O22 2.263380 1_645
In2 O93 2.282635 1_555
In2 O91 2.399533 1_545
In3 O18 2.019714 1_545
In3 O95 2.052388 1_555
In3 O21 2.119421 1_555
In3 O23 2.242884 1_545
In3 O92 2.278836 1_555
In3 O90 2.370002 1_545
In4 O36 2.012675 1_556
In4 O40 2.164541 1_556
In4 O38 2.183594 1_556
In4 O108 2.196101 1_555
In4 O110 2.212976 1_555
In4 O112 2.236348 1_555
In5 O37 2.007450 1_556
In5 O41 2.164537 1_556
In5 O39 2.181932 1_556
In5 O109 2.214887 1_555
In5 O111 2.230747 1_555
In5 O113 2.238566 1_555
In6 O42 1.984052 1_555
In6 O118 2.077189 1_555
In6 O44 2.212135 1_555
In6 O46 2.216398 1_555
In6 O114 2.216787 1_555
In6 O116 2.290632 1_555
In7 O43 2.035074 1_555
In7 O45 2.115777 1_555
In7 O47 2.151301 1_555
In7 O119 2.224626 1_555
In7 O117 2.238048 1_555
In7 O115 2.248422 1_555
In8 O134 2.063816 1_555
In8 O62 2.100555 1_555
In8 O64 2.133534 1_555
In8 O60 2.185588 1_555
In8 O132 2.213097 1_555
In8 O136 2.263890 1_555
In9 O61 2.038439 1_555
In9 O135 2.071786 1_555
In9 O63 2.164809 1_555
In9 O65 2.178098 1_555
In9 O133 2.298552 1_555
In9 O137 2.329887 1_555
In10 O142 2.066887 1_555
In10 O68 2.113130 1_555
In10 O70 2.144597 1_555
In10 O66 2.170438 1_555
In10 O138 2.257435 1_555
In10 O140 2.321715 1_555
In11 O143 2.092912 1_555
In11 O67 2.118652 1_555
In11 O69 2.131658 1_555
In11 O71 2.182545 1_555
In11 O139 2.220619 1_555
In11 O141 2.257879 1_555
O0 S0 1.466566 1_555
O1 S1 1.478952 1_555
O2 Si0 1.613412 1_555
O3 Si1 1.603592 1_555
O4 S3 1.459405 1_555
O5 S2 1.450955 1_555
O6 S4 1.474797 1_555
O7 S5 1.467336 1_555
O8 S7 1.469698 1_555
O9 S6 1.471723 1_555
O10 Si2 1.591515 1_555
O11 Si3 1.606459 1_555
O12 Si2 1.677326 1_565
O13 Si3 1.669642 1_565
O14 S4 1.484712 1_555
O15 S5 1.480080 1_555
O16 S6 1.483824 1_455
O17 S7 1.504705 1_555
O18 Si0 1.661193 1_555
O19 Si1 1.673685 1_555
O20 S2 1.504778 1_455
O21 S3 1.500223 1_555
O22 S0 1.506541 1_565
O23 S1 1.503392 1_565
O24 S8 1.485205 1_555
O25 S9 1.488867 1_555
O26 Si4 1.636730 1_555
O27 Si5 1.622593 1_555
O28 S10 1.485249 1_555
O29 S11 1.489024 1_555
O30 S12 1.472464 1_555
O31 S13 1.474696 1_555
O32 S14 1.468478 1_555
O33 S15 1.468012 1_555
O34 Si6 1.628616 1_555
O35 Si7 1.626701 1_555
O36 Si6 1.658427 1_555
O37 Si7 1.659816 1_555
O38 S12 1.488527 1_555
O39 S13 1.488133 1_555
O40 S14 1.485836 1_555
O41 S15 1.487672 1_555
O42 Si4 1.636680 1_555
O43 Si5 1.652986 1_555
O44 S10 1.489261 1_555
O45 S11 1.482874 1_555
O46 S8 1.480747 1_555
O47 S9 1.487792 1_555
O48 S16 1.476479 1_555
O49 S17 1.475376 1_555
O50 S18 1.467510 1_555
O51 S19 1.471975 1_555
O52 S20 1.477943 1_555
O53 S21 1.480037 1_555
O54 S22 1.479042 1_555
O55 S23 1.476166 1_555
O56 S24 1.466180 1_555
O57 S25 1.458098 1_555
O58 S26 1.461647 1_555
O59 Si8 1.619536 1_555
O60 S26 1.518833 1_555
O61 Si8 1.661094 1_555
O62 S22 1.497133 1_555
O63 S23 1.496310 1_555
O64 S24 1.519896 1_555
O65 S25 1.495977 1_555
O66 S18 1.517374 1_555
O67 S19 1.500682 1_555
O68 S20 1.509222 1_555
O69 S21 1.505361 1_555
O70 S16 1.511811 1_555
O71 S17 1.504633 1_555
O72 S26 1.474378 1_555
O73 Si8 1.657370 1_555
O74 S22 1.478785 1_555
O75 S23 1.466724 1_555
O76 S24 1.472806 1_555
O77 S25 1.486570 1_555
O78 S18 1.473698 1_555
O79 S19 1.474858 1_555
O80 S20 1.480063 1_555
O81 S21 1.476190 1_555
O82 S16 1.469145 1_555
O83 S17 1.476295 1_555
O84 S8 1.498963 1_555
O85 S9 1.498474 1_555
O86 Si4 1.657484 1_555
O87 Si5 1.667533 1_565
O88 S10 1.510062 1_555
O89 S11 1.498027 1_555
O90 S12 1.505190 1_555
O91 S13 1.503443 1_555
O92 S14 1.494319 1_555
O93 S15 1.495700 1_555
O94 Si6 1.671886 1_555
O95 Si7 1.670183 1_555
O96 Si2 1.629728 1_555
O97 Si3 1.648677 1_555
O98 S4 1.478755 1_555
O99 S5 1.499850 1_555
O100 S7 1.483719 1_555
O101 S6 1.491323 1_555
O102 Si0 1.654794 1_555
O103 Si1 1.659123 1_555
O104 S3 1.480878 1_555
O105 S2 1.478041 1_555
O106 S0 1.473391 1_555
O107 S1 1.476049 1_555
O108 S16 1.496253 1_555
O109 S17 1.501439 1_555
O110 S19 1.502685 1_555
O111 S18 1.500391 1_655
O112 S20 1.496584 1_545
O113 S21 1.504229 1_545
O114 S22 1.478352 1_545
O115 S23 1.513017 1_545
O116 S24 1.500076 1_555
O117 S25 1.521326 1_555
O118 Si8 1.670058 1_555
O119 S26 1.507209 1_655
O120 Si6 1.636035 1_555
O121 Si7 1.634774 1_555
O122 S13 1.482330 1_455
O123 S12 1.481666 1_555
O124 S14 1.504506 1_565
O125 S15 1.502663 1_565
O126 Si4 1.646460 1_565
O127 Si5 1.652604 1_565
O128 S10 1.474063 1_555
O129 S11 1.479696 1_555
O130 S9 1.463253 1_455
O131 S8 1.469001 1_555
O132 S0 1.504124 1_565
O133 S1 1.490294 1_565
O134 Si0 1.673444 1_555
O135 Si1 1.668797 1_555
O136 S2 1.519314 1_455
O137 S3 1.508986 1_555
O138 S4 1.510972 1_555
O139 S5 1.499823 1_555
O140 S6 1.507083 1_455
O141 S7 1.499448 1_555
O142 Si2 1.720354 1_565
O143 Si3 1.685218 1_565
