# generated using pymatgen
data_DyMn2
_symmetry_space_group_name_H-M   'P 1'
_cell_length_a   5.38910479
_cell_length_b   5.07965017
_cell_length_c   5.38416484
_cell_angle_alpha   57.99743044
_cell_angle_beta   60.03095361
_cell_angle_gamma   57.86322145
_symmetry_Int_Tables_number   1
_chemical_formula_structural   DyMn2
_chemical_formula_sum   'Dy2 Mn4'
_cell_volume   100.86203838
_cell_formula_units_Z   2
loop_
 _symmetry_equiv_pos_site_id
 _symmetry_equiv_pos_as_xyz
  1  'x, y, z'
loop_
 _atom_site_type_symbol
 _atom_site_label
 _atom_site_symmetry_multiplicity
 _atom_site_fract_x
 _atom_site_fract_y
 _atom_site_fract_z
 _atom_site_occupancy
  Dy  Dy0  1  -0.00205379  0.00628636  -0.00211770  1
  Dy  Dy1  1  0.25205379  0.24371364  0.25211770  1
  Mn  Mn0  1  0.62500000  0.62500000  0.62500000  1
  Mn  Mn1  1  0.12500000  0.62500000  0.62500000  1
  Mn  Mn2  1  0.62500000  0.12500000  0.62500000  1
  Mn  Mn3  1  0.62500000  0.62500000  0.12500000  1
loop_
_geom_bond_atom_site_label_1
_geom_bond_atom_site_label_2
_geom_bond_distance
_geom_bond_site_symmetry_2
Dy0 Mn3 2.927602 1_455
Dy0 Mn0 2.927626 1_454
Dy0 Mn1 2.933468 1_554
Dy0 Dy1 3.059917 1_545
Dy0 Mn0 3.095412 1_544
Dy0 Mn3 3.095418 1_545
Dy0 Mn1 3.096434 1_544
Dy0 Mn1 3.096492 1_545
Dy0 Mn3 3.101799 1_445
Dy0 Mn0 3.101851 1_445
Dy0 Mn2 3.145237 1_454
Dy0 Mn2 3.145265 1_455
Dy0 Mn2 3.149670 1_554
Dy0 Dy1 3.252873 1_455
Dy0 Dy1 3.253188 1_555
Dy0 Dy1 3.253217 1_554
Dy1 Mn3 2.927602 1_545
Dy1 Mn0 2.927626 1_545
Dy1 Mn1 2.933468 1_545
Dy1 Mn0 3.095412 1_455
Dy1 Mn3 3.095418 1_455
Dy1 Mn1 3.096434 1_555
Dy1 Mn1 3.096492 1_554
Dy1 Mn3 3.101799 1_555
Dy1 Mn0 3.101851 1_554
Dy1 Mn2 3.145237 1_555
Dy1 Mn2 3.145265 1_554
Dy1 Mn2 3.149670 1_455
Mn0 Mn2 2.539825 1_565
Mn0 Mn2 2.539825 1_555
Mn0 Mn3 2.692082 1_555
Mn0 Mn3 2.692082 1_556
Mn0 Mn1 2.694552 1_655
Mn0 Mn1 2.694552 1_555
Mn1 Mn2 2.535829 1_555
Mn1 Mn2 2.535829 1_465
Mn1 Mn3 2.694578 1_555
Mn1 Mn3 2.694578 1_456
Mn2 Mn3 2.539870 1_546
Mn2 Mn3 2.539870 1_555
