# generated using pymatgen
data_Ba2Ce3Si3O12F
_symmetry_space_group_name_H-M   'P 1'
_cell_length_a   9.88461233
_cell_length_b   9.88461233
_cell_length_c   7.37167641
_cell_angle_alpha   90.00000000
_cell_angle_beta   90.00000000
_cell_angle_gamma   120.00000091
_symmetry_Int_Tables_number   1
_chemical_formula_structural   Ba2Ce3Si3O12F
_chemical_formula_sum   'Ba4 Ce6 Si6 O24 F2'
_cell_volume   623.75806335
_cell_formula_units_Z   2
loop_
 _symmetry_equiv_pos_site_id
 _symmetry_equiv_pos_as_xyz
  1  'x, y, z'
loop_
 _atom_site_type_symbol
 _atom_site_label
 _atom_site_symmetry_multiplicity
 _atom_site_fract_x
 _atom_site_fract_y
 _atom_site_fract_z
 _atom_site_occupancy
  Ba  Ba0  1  0.33333300  0.66666700  0.50663639  1
  Ba  Ba1  1  0.33333300  0.66666700  0.00038518  1
  Ba  Ba2  1  0.66666700  0.33333300  0.00663639  1
  Ba  Ba3  1  0.66666700  0.33333300  0.50038518  1
  Ce  Ce0  1  0.25015201  0.99632065  0.25362531  1
  Ce  Ce1  1  0.00367935  0.25383136  0.25362531  1
  Ce  Ce2  1  0.25383136  0.25015201  0.75362531  1
  Ce  Ce3  1  0.74616864  0.74984799  0.25362531  1
  Ce  Ce4  1  0.99632065  0.74616864  0.75362531  1
  Ce  Ce5  1  0.74984799  0.00367935  0.75362531  1
  Si  Si0  1  0.01746289  0.37897353  0.75360286  1
  Si  Si1  1  0.36151064  0.98253711  0.75360286  1
  Si  Si2  1  0.37897353  0.36151064  0.25360286  1
  Si  Si3  1  0.62102647  0.63848936  0.75360286  1
  Si  Si4  1  0.63848936  0.01746289  0.25360286  1
  Si  Si5  1  0.98253711  0.62102647  0.25360286  1
  O  O0  1  0.24301883  0.91211723  0.92881855  1
  O  O1  1  0.24273574  0.91268955  0.57851845  1
  O  O2  1  0.17130466  0.71753780  0.25379034  1
  O  O3  1  0.08548179  0.56778445  0.75315713  1
  O  O4  1  0.08731045  0.33004519  0.57851845  1
  O  O5  1  0.08788277  0.33090260  0.92881855  1
  O  O6  1  0.48230366  0.91451821  0.75315713  1
  O  O7  1  0.54623314  0.82869534  0.25379034  1
  O  O8  1  0.28246220  0.45376686  0.25379034  1
  O  O9  1  0.43221555  0.51769634  0.75315713  1
  O  O10  1  0.33090260  0.24301883  0.42881855  1
  O  O11  1  0.33004519  0.24273574  0.07851845  1
  O  O12  1  0.66995481  0.75726426  0.57851845  1
  O  O13  1  0.66909740  0.75698117  0.92881855  1
  O  O14  1  0.56778445  0.48230366  0.25315713  1
  O  O15  1  0.71753780  0.54623314  0.75379034  1
  O  O16  1  0.45376686  0.17130466  0.75379034  1
  O  O17  1  0.51769634  0.08548179  0.25315713  1
  O  O18  1  0.91268955  0.66995481  0.07851845  1
  O  O19  1  0.91211723  0.66909740  0.42881855  1
  O  O20  1  0.91451821  0.43221555  0.25315713  1
  O  O21  1  0.82869534  0.28246220  0.75379034  1
  O  O22  1  0.75698117  0.08788277  0.42881855  1
  O  O23  1  0.75726426  0.08731045  0.07851845  1
  F  F0  1  0.00000000  0.00000000  0.75644251  1
  F  F1  1  0.00000000  0.00000000  0.25644251  1
loop_
_geom_bond_atom_site_label_1
_geom_bond_atom_site_label_2
_geom_bond_distance
_geom_bond_site_symmetry_2
Ba0 O2 2.664092 1_555
Ba0 O7 2.664097 1_555
Ba0 O8 2.664099 1_555
Ba0 O3 2.804515 1_555
Ba0 O6 2.804517 1_555
Ba0 O9 2.804529 1_555
Ba0 O1 3.028915 1_555
Ba0 O4 3.028929 1_555
Ba0 O12 3.028934 1_555
Ba1 O2 2.666978 1_555
Ba1 O7 2.666982 1_555
Ba1 O8 2.666984 1_555
Ba1 O3 2.807897 1_554
Ba1 O6 2.807899 1_554
Ba1 O9 2.807911 1_554
Ba1 O5 3.021180 1_554
Ba1 O13 3.021180 1_554
Ba1 O0 3.021180 1_554
Ba2 O21 2.664092 1_554
Ba2 O16 2.664097 1_554
Ba2 O15 2.664099 1_554
Ba2 O20 2.804515 1_555
Ba2 O17 2.804517 1_555
Ba2 O14 2.804529 1_555
Ba2 O23 3.028915 1_555
Ba2 O18 3.028929 1_555
Ba2 O11 3.028934 1_555
Ba3 O21 2.666978 1_555
Ba3 O16 2.666982 1_555
Ba3 O15 2.666984 1_555
Ba3 O20 2.807897 1_555
Ba3 O17 2.807899 1_555
Ba3 O14 2.807911 1_555
Ba3 O19 3.021180 1_555
Ba3 O10 3.021180 1_555
Ba3 O22 3.021180 1_555
Ce0 O17 2.332334 1_565
Ce0 O2 2.460365 1_555
Ce0 F1 2.491126 1_565
Ce0 O11 2.509800 1_565
Ce0 O10 2.510968 1_565
Ce0 O1 2.522737 1_555
Ce0 O0 2.524292 1_554
Ce1 O20 2.332343 1_455
Ce1 O8 2.460365 1_555
Ce1 F1 2.491126 1_555
Ce1 O23 2.509798 1_455
Ce1 O22 2.510969 1_455
Ce1 O4 2.522736 1_555
Ce1 O5 2.524293 1_554
Ce2 O9 2.332336 1_555
Ce2 O16 2.460365 1_555
Ce2 F0 2.491126 1_555
Ce2 O4 2.509792 1_555
Ce2 O5 2.510976 1_555
Ce2 O11 2.522734 1_556
Ce2 O10 2.524295 1_555
Ce3 O14 2.332336 1_555
Ce3 O7 2.460365 1_555
Ce3 F1 2.491126 1_665
Ce3 O18 2.509792 1_555
Ce3 O19 2.510976 1_555
Ce3 O12 2.522734 1_555
Ce3 O13 2.524295 1_554
Ce4 O3 2.332343 1_655
Ce4 O15 2.460365 1_555
Ce4 F0 2.491126 1_665
Ce4 O1 2.509798 1_655
Ce4 O0 2.510969 1_655
Ce4 O18 2.522736 1_556
Ce4 O19 2.524293 1_555
Ce5 O6 2.332334 1_545
Ce5 O21 2.460365 1_555
Ce5 F0 2.491126 1_655
Ce5 O12 2.509800 1_545
Ce5 O13 2.510968 1_545
Ce5 O23 2.522737 1_556
Ce5 O22 2.524292 1_555
O0 Si1 1.646019 1_555
O1 Si1 1.646297 1_555
O2 Si5 1.616049 1_455
O3 Si0 1.637195 1_555
O4 Si0 1.646302 1_555
O5 Si0 1.646014 1_555
O6 Si1 1.637205 1_555
O7 Si4 1.616049 1_565
O8 Si2 1.616049 1_555
O9 Si3 1.637197 1_555
O10 Si2 1.646020 1_555
O11 Si2 1.646296 1_555
O12 Si3 1.646296 1_555
O13 Si3 1.646020 1_555
O14 Si2 1.637197 1_555
O15 Si3 1.616049 1_555
O16 Si1 1.616049 1_545
O17 Si4 1.637205 1_555
O18 Si5 1.646302 1_555
O19 Si5 1.646014 1_555
O20 Si5 1.637195 1_555
O21 Si0 1.616049 1_655
O22 Si4 1.646019 1_555
O23 Si4 1.646297 1_555
