# generated using pymatgen
data_KMn4O8
_symmetry_space_group_name_H-M   'P 1'
_cell_length_a   5.67729869
_cell_length_b   5.67730113
_cell_length_c   7.27443777
_cell_angle_alpha   67.01710836
_cell_angle_beta   67.01725749
_cell_angle_gamma   60.00604513
_symmetry_Int_Tables_number   1
_chemical_formula_structural   KMn4O8
_chemical_formula_sum   'K1 Mn4 O8'
_cell_volume   181.25560218
_cell_formula_units_Z   1
loop_
 _symmetry_equiv_pos_site_id
 _symmetry_equiv_pos_as_xyz
  1  'x, y, z'
loop_
 _atom_site_type_symbol
 _atom_site_label
 _atom_site_symmetry_multiplicity
 _atom_site_fract_x
 _atom_site_fract_y
 _atom_site_fract_z
 _atom_site_occupancy
  K  K0  1  -0.00000000  -0.00000000  -0.00000000  1
  Mn  Mn0  1  -0.00000000  0.50000000  0.50000000  1
  Mn  Mn1  1  0.50000000  -0.00000000  0.50000000  1
  Mn  Mn2  1  -0.00000000  -0.00000000  0.50000000  1
  Mn  Mn3  1  0.50000000  0.50000000  0.50000000  1
  O  O0  1  0.21664106  0.21664206  0.35014976  1
  O  O1  1  0.71839751  0.71839651  0.34808863  1
  O  O2  1  0.71839496  0.21521539  0.34806531  1
  O  O3  1  0.21521439  0.71839596  0.34806631  1
  O  O4  1  0.28160504  0.78478461  0.65193469  1
  O  O5  1  0.78478561  0.28160404  0.65193369  1
  O  O6  1  0.78335894  0.78335794  0.64985024  1
  O  O7  1  0.28160249  0.28160349  0.65191137  1
loop_
_geom_bond_atom_site_label_1
_geom_bond_atom_site_label_2
_geom_bond_distance
_geom_bond_site_symmetry_2
K0 O7 2.785069 1_554
K0 O1 2.785069 1_445
K0 O3 2.785950 1_545
K0 O5 2.785950 1_454
K0 O4 2.785953 1_544
K0 O2 2.785953 1_455
Mn0 O0 1.906080 1_555
Mn0 O6 1.906080 1_455
Mn0 O5 1.908339 1_455
Mn0 O3 1.908339 1_555
Mn0 O1 1.908467 1_455
Mn0 O7 1.908467 1_555
Mn1 O0 1.906080 1_555
Mn1 O6 1.906080 1_545
Mn1 O4 1.908340 1_545
Mn1 O2 1.908340 1_555
Mn1 O1 1.908476 1_545
Mn1 O7 1.908476 1_555
Mn2 O6 1.905850 1_445
Mn2 O0 1.905850 1_555
Mn2 O3 1.908583 1_545
Mn2 O5 1.908583 1_455
Mn2 O2 1.908588 1_455
Mn2 O4 1.908588 1_545
Mn3 O1 1.921722 1_555
Mn3 O7 1.921722 1_555
Mn3 O3 1.921967 1_555
Mn3 O5 1.921967 1_555
Mn3 O2 1.921972 1_555
Mn3 O4 1.921972 1_555
