# generated using pymatgen
data_MgCo5SnO12
_symmetry_space_group_name_H-M   'P 1'
_cell_length_a   5.15438437
_cell_length_b   5.09731557
_cell_length_c   10.00100905
_cell_angle_alpha   85.59247519
_cell_angle_beta   81.25047184
_cell_angle_gamma   59.13541672
_symmetry_Int_Tables_number   1
_chemical_formula_structural   MgCo5SnO12
_chemical_formula_sum   'Mg1 Co5 Sn1 O12'
_cell_volume   222.92500572
_cell_formula_units_Z   1
loop_
 _symmetry_equiv_pos_site_id
 _symmetry_equiv_pos_as_xyz
  1  'x, y, z'
loop_
 _atom_site_type_symbol
 _atom_site_label
 _atom_site_symmetry_multiplicity
 _atom_site_fract_x
 _atom_site_fract_y
 _atom_site_fract_z
 _atom_site_occupancy
  Mg  Mg0  1  0.92444500  0.33256000  0.25094200  1
  Co  Co0  1  0.18218200  0.66259600  0.50027900  1
  Co  Co1  1  0.65983100  0.65149700  0.00092000  1
  Co  Co2  1  0.32572300  0.31565800  0.99801600  1
  Co  Co3  1  0.84385100  0.33061800  0.51640900  1
  Co  Co4  1  0.51520100  0.99676000  0.49719500  1
  Sn  Sn0  1  0.99446400  0.98778800  0.98347500  1
  O  O0  1  0.95933100  0.63442800  0.10185300  1
  O  O1  1  0.39125700  0.62058000  0.90339200  1
  O  O2  1  0.18985700  0.31851700  0.40156300  1
  O  O3  1  0.57334100  0.64628900  0.40182000  1
  O  O4  1  0.49004900  0.31734300  0.59387800  1
  O  O5  1  0.16542200  0.00307500  0.59534200  1
  O  O6  1  0.80333100  0.67529700  0.59432500  1
  O  O7  1  0.65290200  0.33995700  0.11318700  1
  O  O8  1  0.29621600  0.99998200  0.10402900  1
  O  O9  1  0.99119500  0.36225300  0.89162500  1
  O  O10  1  0.65946300  0.98143600  0.89987200  1
  O  O11  1  0.86943900  0.02336400  0.40187900  1
loop_
_geom_bond_atom_site_label_1
_geom_bond_atom_site_label_2
_geom_bond_distance
_geom_bond_site_symmetry_2
Mg0 O7 2.093547 1_555
Mg0 O0 2.114916 1_555
Mg0 O2 2.157700 1_655
Mg0 O3 2.163348 1_555
Mg0 O11 2.192177 1_555
Mg0 O8 2.213118 1_645
Co0 O4 1.955733 1_555
Co0 O5 1.999548 1_565
Co0 O6 2.005722 1_455
Co0 O11 2.027725 1_465
Co0 O2 2.058010 1_555
Co0 O3 2.068371 1_555
Co1 O9 1.838950 1_554
Co1 O1 1.884365 1_554
Co1 O7 1.885647 1_555
Co1 O10 1.893627 1_554
Co1 O0 1.931948 1_555
Co1 O8 2.002274 1_555
Co2 O10 1.887167 1_545
Co2 O1 1.908089 1_555
Co2 O8 1.917358 1_546
Co2 O0 1.949206 1_456
Co2 O9 2.064179 1_455
Co2 O7 2.239018 1_556
Co3 O5 1.874605 1_655
Co3 O6 1.876721 1_555
Co3 O4 1.902415 1_555
Co3 O3 1.935801 1_555
Co3 O2 1.943848 1_655
Co3 O11 1.949382 1_555
Co4 O6 1.879263 1_555
Co4 O4 1.899852 1_565
Co4 O5 1.903121 1_565
Co4 O3 1.953644 1_555
Co4 O2 1.960032 1_565
Co4 O11 1.991376 1_565
O0 Sn0 2.149505 1_554
O1 Sn0 2.032781 1_455
O7 Sn0 2.103639 1_544
O8 Sn0 2.134899 1_454
O9 Sn0 2.046876 1_545
O10 Sn0 2.045107 1_555
