# generated using pymatgen
data_Na2Mg2SiSn2S5O24
_symmetry_space_group_name_H-M   'P 1'
_cell_length_a   8.73123970
_cell_length_b   8.72369554
_cell_length_c   22.90580470
_cell_angle_alpha   89.82723834
_cell_angle_beta   89.72631378
_cell_angle_gamma   120.13966521
_symmetry_Int_Tables_number   1
_chemical_formula_structural   Na2Mg2SiSn2S5O24
_chemical_formula_sum   'Na6 Mg6 Si3 Sn6 S15 O72'
_cell_volume   1508.78098405
_cell_formula_units_Z   3
loop_
 _symmetry_equiv_pos_site_id
 _symmetry_equiv_pos_as_xyz
  1  'x, y, z'
loop_
 _atom_site_type_symbol
 _atom_site_label
 _atom_site_symmetry_multiplicity
 _atom_site_fract_x
 _atom_site_fract_y
 _atom_site_fract_z
 _atom_site_occupancy
  Na  Na0  1  0.99986830  -0.00002065  0.49818233  1
  Na  Na1  1  0.99703200  0.98822652  0.99779107  1
  Na  Na2  1  0.66920332  0.32001906  0.82272114  1
  Na  Na3  1  0.65358905  0.32304828  0.33892393  1
  Na  Na4  1  0.31622068  0.67312994  0.16385012  1
  Na  Na5  1  0.34452134  0.67554263  0.66324976  1
  Mg  Mg0  1  0.01322135  0.00402685  0.35449942  1
  Mg  Mg1  1  0.99415224  0.00107233  0.84831157  1
  Mg  Mg2  1  0.66758590  0.32457039  0.68453184  1
  Mg  Mg3  1  0.66556771  0.33273844  0.48464184  1
  Mg  Mg4  1  0.32250911  0.66556429  0.02000819  1
  Mg  Mg5  1  0.33447702  0.66745018  0.51994943  1
  Si  Si0  1  0.29542514  0.00012718  0.25307285  1
  Si  Si1  1  0.71119178  0.01065767  0.75266670  1
  Si  Si2  1  0.96369968  0.62732244  0.08376636  1
  Sn  Sn0  1  0.98878015  0.99641002  0.64921015  1
  Sn  Sn1  1  0.00691012  0.98585553  0.15022974  1
  Sn  Sn2  1  0.66808118  0.33242686  0.18650570  1
  Sn  Sn3  1  0.67441184  0.34168522  0.98129993  1
  Sn  Sn4  1  0.33100028  0.67523563  0.31891917  1
  Sn  Sn5  1  0.34202067  0.67407897  0.81230655  1
  S  S0  1  0.70555705  0.70907121  0.25275415  1
  S  S1  1  0.00210596  0.28765380  0.25121917  1
  S  S2  1  0.29336951  0.28983190  0.75125649  1
  S  S3  1  0.99679627  0.70654830  0.75159701  1
  S  S4  1  0.96064085  0.33664992  0.58258455  1
  S  S5  1  0.37219206  0.04064733  0.58392816  1
  S  S6  1  0.66565791  0.62181822  0.58326532  1
  S  S7  1  0.66802062  0.03665567  0.08321836  1
  S  S8  1  0.37237401  0.33640783  0.08227711  1
  S  S9  1  0.62481140  0.66717736  0.91878441  1
  S  S10  1  0.04594423  0.37371450  0.91713342  1
  S  S11  1  0.33237813  0.96196661  0.91879469  1
  S  S12  1  0.63116159  0.96367954  0.41862633  1
  S  S13  1  0.33379912  0.37685052  0.41781732  1
  S  S14  1  0.03471461  0.66337487  0.41948687  1
  O  O0  1  0.20955913  0.03448089  0.30811789  1
  O  O1  1  0.81405308  0.79549303  0.30300413  1
  O  O2  1  0.97250357  0.17807509  0.30223213  1
  O  O3  1  0.21394417  0.18285905  0.80363115  1
  O  O4  1  0.98144976  0.79209207  0.80404329  1
  O  O5  1  0.82002262  0.02791452  0.80993052  1
  O  O6  1  0.78106738  0.95646742  0.69203397  1
  O  O7  1  0.18590030  0.21537486  0.69687038  1
  O  O8  1  0.04313165  0.81954519  0.69722012  1
  O  O9  1  0.77293832  0.81399271  0.19656326  1
  O  O10  1  0.02510886  0.21202207  0.19475914  1
  O  O11  1  0.18950925  0.96318158  0.19030289  1
  O  O12  1  0.88020759  0.35668615  0.63582812  1
  O  O13  1  0.47395864  0.12207433  0.63643000  1
  O  O14  1  0.64640939  0.52154826  0.63673958  1
  O  O15  1  0.87070027  0.50514318  0.14245499  1
  O  O16  1  0.63125318  0.11265583  0.13588117  1
  O  O17  1  0.47707340  0.35939597  0.13573884  1
  O  O18  1  0.44574527  0.29159605  0.02975768  1
  O  O19  1  0.83617761  0.54633045  0.02579451  1
  O  O20  1  0.70028511  0.14831022  0.02947654  1
  O  O21  1  0.44797855  0.14720601  0.53070016  1
  O  O22  1  0.69179690  0.54267749  0.53052885  1
  O  O23  1  0.85252778  0.30626051  0.53040006  1
  O  O24  1  0.53716150  0.68521392  0.97040194  1
  O  O25  1  0.14885678  0.46208017  0.96873416  1
  O  O26  1  0.31276084  0.85613702  0.97053213  1
  O  O27  1  0.54118138  0.84754801  0.46828011  1
  O  O28  1  0.31116900  0.46765778  0.46739579  1
  O  O29  1  0.15259740  0.69075074  0.46807338  1
  O  O30  1  0.10660085  0.62697130  0.36252562  1
  O  O31  1  0.52413751  0.89031113  0.36210453  1
  O  O32  1  0.36740771  0.48602887  0.36053949  1
  O  O33  1  0.12148093  0.48550082  0.86270672  1
  O  O34  1  0.36735636  0.88878139  0.86458660  1
  O  O35  1  0.51591759  0.63378060  0.86480844  1
  O  O36  1  0.02017060  0.82325577  0.41167822  1
  O  O37  1  0.80468379  0.97663429  0.40963924  1
  O  O38  1  0.17064162  0.20411863  0.41141384  1
  O  O39  1  0.02926017  0.19927827  0.91211166  1
  O  O40  1  0.17786040  0.98341628  0.91161567  1
  O  O41  1  0.80349415  0.81971308  0.91292040  1
  O  O42  1  0.98225938  0.17206681  0.58637721  1
  O  O43  1  0.18702245  0.02241325  0.58956458  1
  O  O44  1  0.83564377  0.80529336  0.58571033  1
  O  O45  1  0.96656846  0.81922511  0.08603966  1
  O  O46  1  0.83581347  0.03384950  0.09080826  1
  O  O47  1  0.19048463  0.17918636  0.08818509  1
  O  O48  1  0.68345735  0.17671030  0.74444425  1
  O  O49  1  0.47145557  0.31955838  0.74296526  1
  O  O50  1  0.83725884  0.53585234  0.74344687  1
  O  O51  1  0.69379424  0.53340789  0.24623316  1
  O  O52  1  0.84416850  0.31082046  0.24607785  1
  O  O53  1  0.49565210  0.17896187  0.24455628  1
  O  O54  1  0.63522017  0.49730630  0.92067209  1
  O  O55  1  0.86168668  0.35335459  0.92020335  1
  O  O56  1  0.49959341  0.14510510  0.92366195  1
  O  O57  1  0.64718630  0.13932236  0.42393777  1
  O  O58  1  0.49206218  0.35856376  0.42189734  1
  O  O59  1  0.85906207  0.50380667  0.42481351  1
  O  O60  1  0.36487532  0.49708445  0.07413490  1
  O  O61  1  0.15383418  0.64582437  0.07953344  1
  O  O62  1  0.51667420  0.86053705  0.07540700  1
  O  O63  1  0.34786206  0.86095194  0.57748307  1
  O  O64  1  0.51168069  0.64858310  0.57756272  1
  O  O65  1  0.14030529  0.49289950  0.57624763  1
  O  O66  1  0.31980386  0.82295323  0.25530480  1
  O  O67  1  0.52293971  0.67994468  0.25723592  1
  O  O68  1  0.16466329  0.46609892  0.25522126  1
  O  O69  1  0.29962762  0.46646167  0.75652529  1
  O  O70  1  0.15555137  0.68049661  0.75666176  1
  O  O71  1  0.50876031  0.82358372  0.75319896  1
loop_
_geom_bond_atom_site_label_1
_geom_bond_atom_site_label_2
_geom_bond_distance
_geom_bond_site_symmetry_2
Na0 O44 2.542949 1_545
Na0 O42 2.570130 1_555
Na0 O36 2.573683 1_645
Na0 O38 2.574614 1_655
Na0 O37 2.597336 1_545
Na0 O43 2.608440 1_655
Na1 O45 2.431775 1_556
Na1 O41 2.519888 1_555
Na1 O40 2.535381 1_655
Na1 O39 2.602558 1_665
Na1 O47 2.672797 1_666
Na1 O46 2.686729 1_566
Na2 O48 2.227310 1_555
Na2 O50 2.484955 1_555
Na2 O49 2.518289 1_555
Na2 O55 2.728350 1_555
Na2 O56 2.746663 1_555
Na2 O54 2.826545 1_555
Na3 O58 2.472639 1_555
Na3 O57 2.500834 1_555
Na3 O53 2.541288 1_555
Na3 O59 2.605220 1_555
Na3 O51 2.705759 1_555
Na3 O52 2.729282 1_555
Na4 O61 2.342403 1_555
Na4 O66 2.464488 1_555
Na4 O62 2.629235 1_555
Na4 O68 2.635158 1_555
Na4 O60 2.725424 1_555
Na4 O67 2.786897 1_555
Na5 O71 2.480692 1_555
Na5 O64 2.521490 1_555
Na5 O63 2.531679 1_555
Na5 O65 2.624798 1_555
Na5 O69 2.701084 1_555
Na5 O70 2.709397 1_555
Mg0 O0 1.913521 1_555
Mg0 O38 2.063290 1_555
Mg0 O36 2.071319 1_545
Mg0 O2 2.097685 1_455
Mg0 O37 2.122941 1_445
Mg0 O1 2.140205 1_445
Mg1 O5 1.873045 1_555
Mg1 O3 2.039707 1_655
Mg1 O4 2.042864 1_545
Mg1 O39 2.169477 1_655
Mg1 O41 2.186763 1_545
Mg1 O40 2.228924 1_645
Mg2 O48 1.933127 1_555
Mg2 O13 2.055033 1_555
Mg2 O12 2.055597 1_555
Mg2 O14 2.120157 1_555
Mg2 O49 2.151391 1_555
Mg2 O50 2.169126 1_555
Mg3 O22 2.025862 1_555
Mg3 O23 2.051870 1_555
Mg3 O21 2.055397 1_555
Mg3 O59 2.095958 1_555
Mg3 O57 2.133192 1_555
Mg3 O58 2.184698 1_555
Mg4 O61 1.944839 1_555
Mg4 O25 2.038656 1_554
Mg4 O26 2.046252 1_554
Mg4 O60 2.091305 1_555
Mg4 O24 2.118705 1_554
Mg4 O62 2.124897 1_555
Mg5 O28 2.046242 1_555
Mg5 O65 2.056868 1_555
Mg5 O27 2.060894 1_555
Mg5 O29 2.077466 1_555
Mg5 O63 2.101592 1_555
Mg5 O64 2.106281 1_555
O0 Si0 1.568603 1_555
O1 S0 1.445359 1_555
O2 S1 1.445076 1_655
O3 S2 1.458229 1_555
O4 S3 1.456818 1_555
O5 Si1 1.586042 1_555
O6 Si1 1.676331 1_565
O6 Sn0 1.928485 1_555
O7 S2 1.502758 1_555
O7 Sn0 2.128809 1_445
O8 S3 1.507999 1_455
O8 Sn0 2.131945 1_455
O9 S0 1.511760 1_555
O9 Sn1 2.107474 1_655
O10 S1 1.511266 1_555
O10 Sn1 2.158061 1_545
O11 Si0 1.656059 1_565
O11 Sn1 1.937292 1_555
O12 S4 1.458601 1_555
O13 S5 1.456663 1_555
O14 S6 1.462067 1_555
O15 Si2 1.647533 1_555
O15 Sn2 1.927451 1_555
O16 S7 1.487485 1_555
O16 Sn2 2.126418 1_555
O17 S8 1.484446 1_555
O17 Sn2 2.144721 1_555
O18 S8 1.502462 1_555
O18 Sn3 2.123428 1_554
O19 Si2 1.652876 1_555
O19 Sn3 1.927011 1_554
O20 S7 1.502457 1_555
O20 Sn3 2.118593 1_554
O21 S5 1.468420 1_555
O22 S6 1.465797 1_555
O23 S4 1.466812 1_555
O24 S9 1.456627 1_555
O25 S10 1.455580 1_555
O26 S11 1.455602 1_555
O27 S12 1.456849 1_555
O28 S13 1.454894 1_555
O29 S14 1.456260 1_555
O30 S14 1.546610 1_555
O30 Sn4 2.040613 1_555
O31 S12 1.541100 1_555
O31 Sn4 2.047519 1_555
O32 S13 1.556502 1_555
O32 Sn4 2.062680 1_555
O33 S10 1.509681 1_555
O33 Sn5 2.129123 1_555
O34 S11 1.496535 1_555
O34 Sn5 2.142681 1_555
O35 S9 1.500894 1_555
O35 Sn5 2.103828 1_555
O36 S14 1.473101 1_555
O37 S12 1.474959 1_555
O38 S13 1.472814 1_555
O39 S10 1.459012 1_555
O40 S11 1.462074 1_555
O41 S9 1.461118 1_555
O42 S4 1.541486 1_555
O42 Sn0 2.120831 1_545
O43 S5 1.547742 1_555
O43 Sn0 2.120212 1_445
O44 S6 1.543878 1_555
O44 Sn0 2.116045 1_555
O45 Si2 1.662642 1_555
O45 Sn1 1.975508 1_655
O46 S7 1.488485 1_555
O46 Sn1 2.214423 1_645
O47 S8 1.493667 1_555
O47 Sn1 2.163890 1_545
O48 Si1 1.594863 1_555
O49 S2 1.453624 1_555
O50 S3 1.453877 1_555
O51 S0 1.491538 1_555
O51 Sn2 2.149018 1_555
O52 S1 1.495862 1_655
O52 Sn2 2.137945 1_555
O53 Si0 1.668610 1_555
O53 Sn2 1.942444 1_555
O54 S9 1.530053 1_555
O54 Sn3 2.085283 1_555
O55 S10 1.528598 1_655
O55 Sn3 2.110137 1_555
O56 S11 1.535161 1_545
O56 Sn3 2.101915 1_555
O57 S12 1.472473 1_545
O58 S13 1.471788 1_555
O59 S14 1.469023 1_655
O60 S8 1.447244 1_555
O61 Si2 1.587673 1_455
O62 S7 1.450464 1_565
O63 S5 1.480405 1_565
O64 S6 1.481805 1_555
O65 S4 1.479596 1_455
O66 Si0 1.663384 1_565
O66 Sn4 1.977361 1_555
O67 S0 1.486231 1_555
O67 Sn4 2.171271 1_555
O68 S1 1.493159 1_555
O68 Sn4 2.223087 1_555
O69 S2 1.519358 1_555
O69 Sn5 2.096477 1_555
O70 S3 1.517956 1_455
O70 Sn5 2.095084 1_555
O71 Si1 1.700146 1_565
O71 Sn5 1.928035 1_555
