# generated using pymatgen
data_MgFe4(NiO4)2
_symmetry_space_group_name_H-M   'P 1'
_cell_length_a   6.15336321
_cell_length_b   6.39205422
_cell_length_c   6.15338415
_cell_angle_alpha   58.70842174
_cell_angle_beta   59.30101597
_cell_angle_gamma   58.70830162
_symmetry_Int_Tables_number   1
_chemical_formula_structural   MgFe4(NiO4)2
_chemical_formula_sum   'Mg1 Fe4 Ni2 O8'
_cell_volume   166.85441912
_cell_formula_units_Z   1
loop_
 _symmetry_equiv_pos_site_id
 _symmetry_equiv_pos_as_xyz
  1  'x, y, z'
loop_
 _atom_site_type_symbol
 _atom_site_label
 _atom_site_symmetry_multiplicity
 _atom_site_fract_x
 _atom_site_fract_y
 _atom_site_fract_z
 _atom_site_occupancy
  Mg  Mg0  1  0.20358384  0.79641551  0.20358514  1
  Fe  Fe0  1  0.89246833  0.10753365  0.89246538  1
  Fe  Fe1  1  0.29235109  0.20764864  0.29235063  1
  Fe  Fe2  1  0.62767043  0.08693478  0.62766936  1
  Fe  Fe3  1  0.62767043  0.65772544  0.62766936  1
  Ni  Ni0  1  0.16000144  0.56814384  0.70371088  1
  Ni  Ni1  1  0.70371272  0.56814252  0.16000223  1
  O  O0  1  0.38294893  0.40735401  0.38295003  1
  O  O1  1  0.42767137  0.33580286  0.90072191  1
  O  O2  1  0.38294893  0.82674702  0.38295003  1
  O  O3  1  0.90072039  0.33580345  0.42767272  1
  O  O4  1  0.33929200  0.92266351  0.81538098  1
  O  O5  1  0.86137077  0.43945834  0.86137236  1
  O  O6  1  0.81538556  0.92266091  0.33929362  1
  O  O7  1  0.86137077  0.83779853  0.86137236  1
loop_
_geom_bond_atom_site_label_1
_geom_bond_atom_site_label_2
_geom_bond_distance
_geom_bond_site_symmetry_2
Mg0 O6 1.927539 1_455
Mg0 O4 1.927577 1_554
Mg0 O0 2.040164 1_555
Mg0 O2 2.040164 1_555
Fe0 O5 1.941317 1_555
Fe0 O7 1.941323 1_545
Fe0 O4 2.248676 1_645
Fe0 O6 2.248712 1_546
Fe0 O3 2.430051 1_555
Fe0 O1 2.430054 1_555
Fe1 O1 1.944424 1_554
Fe1 O3 1.944425 1_455
Fe1 O2 2.011696 1_545
Fe1 O0 2.011702 1_555
Fe2 O7 2.006422 1_545
Fe2 O6 2.041669 1_545
Fe2 O4 2.041672 1_545
Fe2 O0 2.153545 1_555
Fe2 O3 2.345138 1_555
Fe2 O1 2.345146 1_555
Fe3 O5 2.006422 1_555
Fe3 O4 2.041672 1_555
Fe3 O6 2.041673 1_555
Fe3 O2 2.153545 1_555
Fe3 O3 2.345137 1_555
Fe3 O1 2.345151 1_555
Ni0 O7 1.978749 1_455
Ni0 O5 1.978749 1_455
Ni0 O1 2.003899 1_555
Ni0 O2 2.170700 1_555
Ni0 O0 2.170700 1_555
Ni1 O7 1.978747 1_554
Ni1 O5 1.978747 1_554
Ni1 O3 2.003891 1_555
Ni1 O2 2.170707 1_555
Ni1 O0 2.170707 1_555
