# generated using pymatgen
data_BAsPbO5
_symmetry_space_group_name_H-M   'P 1'
_cell_length_a   7.26578801
_cell_length_b   7.26578801
_cell_length_c   7.01246800
_cell_angle_alpha   90.00000000
_cell_angle_beta   90.00000000
_cell_angle_gamma   120.00000011
_symmetry_Int_Tables_number   1
_chemical_formula_structural   BAsPbO5
_chemical_formula_sum   'B3 As3 Pb3 O15'
_cell_volume   320.60254752
_cell_formula_units_Z   3
loop_
 _symmetry_equiv_pos_site_id
 _symmetry_equiv_pos_as_xyz
  1  'x, y, z'
loop_
 _atom_site_type_symbol
 _atom_site_label
 _atom_site_symmetry_multiplicity
 _atom_site_fract_x
 _atom_site_fract_y
 _atom_site_fract_z
 _atom_site_occupancy
  B  B0  1  0.77222100  0.42672300  0.56640400  1
  B  B1  1  0.65450300  0.22777900  0.23307100  1
  B  B2  1  0.57327700  0.34549700  0.89973800  1
  As  As0  1  0.66843000  0.73842500  0.71121000  1
  As  As1  1  0.06999600  0.33157000  0.37787700  1
  As  As2  1  0.26157500  0.93000400  0.04454300  1
  Pb  Pb0  1  0.06269900  0.33169700  0.87756000  1
  Pb  Pb1  1  0.26899800  0.93730100  0.54422600  1
  Pb  Pb2  1  0.66830300  0.73100200  0.21089300  1
  O  O0  1  0.66022800  0.37629300  0.09149500  1
  O  O1  1  0.62370700  0.28393600  0.42482800  1
  O  O2  1  0.71606400  0.33977200  0.75816200  1
  O  O3  1  0.82330500  0.92446400  0.87359800  1
  O  O4  1  0.10115900  0.17669500  0.54026500  1
  O  O5  1  0.07553600  0.89884100  0.20693200  1
  O  O6  1  0.48432500  0.99780900  0.19128500  1
  O  O7  1  0.00219100  0.48651500  0.52461800  1
  O  O8  1  0.51348500  0.51567500  0.85795200  1
  O  O9  1  0.20592200  0.73162700  0.88948400  1
  O  O10  1  0.26837300  0.47429500  0.22281800  1
  O  O11  1  0.52570500  0.79407800  0.55615100  1
  O  O12  1  0.34878600  0.14978200  0.88933000  1
  O  O13  1  0.85021800  0.19900400  0.22266300  1
  O  O14  1  0.80099600  0.65121400  0.55599600  1
loop_
_geom_bond_atom_site_label_1
_geom_bond_atom_site_label_2
_geom_bond_distance
_geom_bond_site_symmetry_2
B0 O1 1.451506 1_555
B0 O2 1.454664 1_555
B0 O7 1.529916 1_655
B0 O14 1.538999 1_555
B1 O0 1.451511 1_555
B1 O1 1.454662 1_555
B1 O6 1.529916 1_545
B1 O13 1.538992 1_555
B2 O2 1.451501 1_555
B2 O0 1.454657 1_556
B2 O8 1.529916 1_555
B2 O12 1.538996 1_555
As0 O11 1.685393 1_555
As0 O3 1.693835 1_555
As0 O8 1.767386 1_555
As0 O14 1.767566 1_555
As1 O10 1.685389 1_555
As1 O4 1.693832 1_555
As1 O7 1.767382 1_555
As1 O13 1.767571 1_455
As2 O9 1.685387 1_554
As2 O5 1.693842 1_555
As2 O6 1.767386 1_555
As2 O12 1.767567 1_564
O0 Pb2 2.682430 1_555
O1 Pb1 2.682433 1_545
O2 Pb0 2.682437 1_655
O3 Pb0 2.575757 1_665
O3 Pb2 2.693632 1_556
O4 Pb1 2.575757 1_545
O4 Pb0 2.693632 1_555
O5 Pb2 2.575757 1_455
O5 Pb1 2.693626 1_555
O6 Pb1 2.842313 1_555
O6 Pb2 2.855729 1_555
O7 Pb0 2.842316 1_555
O7 Pb1 2.855734 1_555
O8 Pb2 2.842313 1_556
O8 Pb0 2.855735 1_555
O9 Pb0 2.551421 1_555
O9 Pb1 2.760457 1_555
O10 Pb2 2.551421 1_555
O10 Pb0 2.760457 1_554
O11 Pb1 2.551421 1_555
O11 Pb2 2.760457 1_555
O12 Pb1 2.771475 1_545
O13 Pb0 2.771469 1_654
O14 Pb2 2.771469 1_555
