# generated using pymatgen
data_Co3B7IO13
_symmetry_space_group_name_H-M   'P 1'
_cell_length_a   8.66489074
_cell_length_b   8.66489074
_cell_length_c   8.66489074
_cell_angle_alpha   60.00000000
_cell_angle_beta   60.00000000
_cell_angle_gamma   60.00000000
_symmetry_Int_Tables_number   1
_chemical_formula_structural   Co3B7IO13
_chemical_formula_sum   'Co6 B14 I2 O26'
_cell_volume   460.01741649
_cell_formula_units_Z   2
loop_
 _symmetry_equiv_pos_site_id
 _symmetry_equiv_pos_as_xyz
  1  'x, y, z'
loop_
 _atom_site_type_symbol
 _atom_site_label
 _atom_site_symmetry_multiplicity
 _atom_site_fract_x
 _atom_site_fract_y
 _atom_site_fract_z
 _atom_site_occupancy
  Co  Co0  1  0.50000000  0.50000000  0.00000000  1
  Co  Co1  1  0.50000000  0.00000000  0.50000000  1
  Co  Co2  1  0.00000000  0.50000000  0.00000000  1
  Co  Co3  1  0.00000000  0.50000000  0.50000000  1
  Co  Co4  1  0.50000000  0.00000000  0.00000000  1
  Co  Co5  1  0.00000000  0.00000000  0.50000000  1
  B  B0  1  0.58029100  0.58029100  0.25912800  1
  B  B1  1  0.58029100  0.58029100  0.58029100  1
  B  B2  1  0.75912800  0.08029100  0.08029100  1
  B  B3  1  0.08029100  0.08029100  0.75912800  1
  B  B4  1  0.08029100  0.75912800  0.08029100  1
  B  B5  1  0.58029100  0.25912800  0.58029100  1
  B  B6  1  0.25912800  0.58029100  0.58029100  1
  B  B7  1  0.08029100  0.08029100  0.08029100  1
  B  B8  1  0.75000000  0.25000000  0.75000000  1
  B  B9  1  0.25000000  0.25000000  0.75000000  1
  B  B10  1  0.25000000  0.75000000  0.25000000  1
  B  B11  1  0.25000000  0.75000000  0.75000000  1
  B  B12  1  0.75000000  0.25000000  0.25000000  1
  B  B13  1  0.75000000  0.75000000  0.25000000  1
  I  I0  1  0.75000000  0.75000000  0.75000000  1
  I  I1  1  0.25000000  0.25000000  0.25000000  1
  O  O0  1  0.25636400  0.70275100  0.10435400  1
  O  O1  1  0.70275100  0.25636400  0.93653100  1
  O  O2  1  0.60435400  0.20275100  0.75636400  1
  O  O3  1  0.60435400  0.43653100  0.20275100  1
  O  O4  1  0.20275100  0.43653100  0.75636400  1
  O  O5  1  0.00000000  0.00000000  0.00000000  1
  O  O6  1  0.60435400  0.75636400  0.43653100  1
  O  O7  1  0.43653100  0.60435400  0.75636400  1
  O  O8  1  0.75636400  0.43653100  0.60435400  1
  O  O9  1  0.50000000  0.50000000  0.50000000  1
  O  O10  1  0.10435400  0.93653100  0.25636400  1
  O  O11  1  0.20275100  0.75636400  0.60435400  1
  O  O12  1  0.75636400  0.20275100  0.43653100  1
  O  O13  1  0.43653100  0.75636400  0.20275100  1
  O  O14  1  0.20275100  0.60435400  0.43653100  1
  O  O15  1  0.75636400  0.60435400  0.20275100  1
  O  O16  1  0.43653100  0.20275100  0.60435400  1
  O  O17  1  0.25636400  0.10435400  0.93653100  1
  O  O18  1  0.93653100  0.25636400  0.10435400  1
  O  O19  1  0.10435400  0.70275100  0.93653100  1
  O  O20  1  0.10435400  0.25636400  0.70275100  1
  O  O21  1  0.93653100  0.70275100  0.25636400  1
  O  O22  1  0.70275100  0.10435400  0.25636400  1
  O  O23  1  0.70275100  0.93653100  0.10435400  1
  O  O24  1  0.25636400  0.93653100  0.70275100  1
  O  O25  1  0.93653100  0.10435400  0.70275100  1
loop_
_geom_bond_atom_site_label_1
_geom_bond_atom_site_label_2
_geom_bond_distance
_geom_bond_site_symmetry_2
Co0 O3 2.081239 1_555
Co0 O7 2.081239 1_554
Co0 O1 2.081239 1_554
Co0 O0 2.081239 1_555
Co0 I0 3.063502 1_554
Co0 I1 3.063502 1_555
Co1 O6 2.081239 1_545
Co1 O16 2.081239 1_555
Co1 O24 2.081239 1_545
Co1 O22 2.081239 1_555
Co1 I0 3.063502 1_545
Co1 I1 3.063502 1_555
Co2 O15 2.081239 1_455
Co2 O4 2.081239 1_554
Co2 O18 2.081239 1_455
Co2 O19 2.081239 1_554
Co2 I0 3.063502 1_454
Co2 I1 3.063502 1_555
Co3 O8 2.081239 1_455
Co3 O14 2.081239 1_555
Co3 O20 2.081239 1_555
Co3 O21 2.081239 1_455
Co3 I0 3.063502 1_455
Co3 I1 3.063502 1_555
Co4 O2 2.081239 1_554
Co4 O13 2.081239 1_545
Co4 O17 2.081239 1_554
Co4 O23 2.081239 1_545
Co4 I0 3.063502 1_544
Co4 I1 3.063502 1_555
Co5 O12 2.081239 1_455
Co5 O11 2.081239 1_545
Co5 O10 2.081239 1_545
Co5 O25 2.081239 1_455
Co5 I0 3.063502 1_445
Co5 I1 3.063502 1_555
B0 O15 1.442460 1_555
B0 O13 1.442465 1_555
B0 O3 1.442469 1_555
B0 O9 1.704134 1_555
B1 O8 1.442463 1_555
B1 O6 1.442463 1_555
B1 O7 1.442463 1_555
B1 O9 1.704141 1_555
B2 O22 1.442460 1_555
B2 O1 1.442465 1_554
B2 O23 1.442469 1_545
B2 O5 1.704134 1_655
B3 O20 1.442460 1_555
B3 O24 1.442465 1_545
B3 O25 1.442469 1_455
B3 O5 1.704134 1_556
B4 O0 1.442460 1_555
B4 O21 1.442465 1_455
B4 O19 1.442469 1_554
B4 O5 1.704134 1_565
B5 O2 1.442460 1_555
B5 O12 1.442465 1_555
B5 O16 1.442469 1_555
B5 O9 1.704134 1_555
B6 O11 1.442460 1_555
B6 O4 1.442465 1_555
B6 O14 1.442469 1_555
B6 O9 1.704134 1_555
B7 O18 1.442463 1_455
B7 O17 1.442463 1_554
B7 O10 1.442463 1_545
B7 O5 1.704141 1_555
B8 O1 1.479129 1_555
B8 O25 1.479129 1_555
B8 O8 1.479129 1_555
B8 O2 1.479129 1_555
B9 O17 1.479129 1_555
B9 O20 1.479129 1_555
B9 O4 1.479129 1_555
B9 O16 1.479129 1_555
B10 O13 1.479129 1_555
B10 O0 1.479129 1_555
B10 O10 1.479129 1_555
B10 O14 1.479129 1_555
B11 O24 1.479129 1_555
B11 O19 1.479129 1_555
B11 O7 1.479129 1_555
B11 O11 1.479129 1_555
B12 O22 1.479129 1_555
B12 O18 1.479129 1_555
B12 O12 1.479129 1_555
B12 O3 1.479129 1_555
B13 O23 1.479129 1_555
B13 O21 1.479129 1_555
B13 O6 1.479129 1_555
B13 O15 1.479129 1_555
