# generated using pymatgen
data_MgCo3NiO8
_symmetry_space_group_name_H-M   'P 1'
_cell_length_a   5.80384696
_cell_length_b   5.80776605
_cell_length_c   5.88417100
_cell_angle_alpha   60.66719771
_cell_angle_beta   119.17034670
_cell_angle_gamma   120.96337390
_symmetry_Int_Tables_number   1
_chemical_formula_structural   MgCo3NiO8
_chemical_formula_sum   'Mg1 Co3 Ni1 O8'
_cell_volume   140.72939039
_cell_formula_units_Z   1
loop_
 _symmetry_equiv_pos_site_id
 _symmetry_equiv_pos_as_xyz
  1  'x, y, z'
loop_
 _atom_site_type_symbol
 _atom_site_label
 _atom_site_symmetry_multiplicity
 _atom_site_fract_x
 _atom_site_fract_y
 _atom_site_fract_z
 _atom_site_occupancy
  Mg  Mg0  1  0.88167300  0.12083200  0.63443800  1
  Co  Co0  1  0.49853600  0.50065700  0.00417000  1
  Co  Co1  1  0.49806500  0.99267900  0.00346300  1
  Co  Co2  1  0.00665100  0.50215400  0.00283300  1
  Ni  Ni0  1  0.50281500  0.49781500  0.50355600  1
  O  O0  1  0.75210100  0.70414000  0.79220500  1
  O  O1  1  0.74612500  0.25502800  0.78317100  1
  O  O2  1  0.25260900  0.74928700  0.78651000  1
  O  O3  1  0.29718600  0.24769700  0.79270300  1
  O  O4  1  0.69860200  0.75489600  0.19842200  1
  O  O5  1  0.74888700  0.24964500  0.22407400  1
  O  O6  1  0.25401400  0.74397400  0.20758900  1
  O  O7  1  0.24368800  0.30024400  0.19782000  1
loop_
_geom_bond_atom_site_label_1
_geom_bond_atom_site_label_2
_geom_bond_distance
_geom_bond_site_symmetry_2
Mg0 O3 1.969896 1_655
Mg0 O0 1.972487 1_545
Mg0 O1 1.990628 1_555
Mg0 O5 1.998373 1_555
Co0 O7 1.847407 1_555
Co0 O4 1.852180 1_555
Co0 O0 1.916648 1_554
Co0 O3 1.918144 1_554
Co0 O2 2.071101 1_554
Co0 O5 2.099860 1_555
Co1 O4 1.837915 1_555
Co1 O6 1.840853 1_555
Co1 O2 1.892194 1_554
Co1 O3 1.912746 1_564
Co1 O1 1.923918 1_564
Co1 O5 1.962650 1_565
Co2 O6 1.839054 1_555
Co2 O7 1.840444 1_555
Co2 O2 1.895017 1_554
Co2 O0 1.915395 1_454
Co2 O1 1.922556 1_454
Co2 O5 1.963152 1_455
Ni0 O1 2.049484 1_555
Ni0 O3 2.050168 1_555
Ni0 O0 2.056350 1_555
Ni0 O4 2.088233 1_555
Ni0 O6 2.096505 1_555
Ni0 O7 2.103381 1_555
