# generated using pymatgen
data_Cr(PO3)3
_symmetry_space_group_name_H-M   'P 1'
_cell_length_a   8.41166500
_cell_length_b   8.45250700
_cell_length_c   9.10591900
_cell_angle_alpha   90.00000000
_cell_angle_beta   90.00000000
_cell_angle_gamma   90.00000000
_symmetry_Int_Tables_number   1
_chemical_formula_structural   Cr(PO3)3
_chemical_formula_sum   'Cr4 P12 O36'
_cell_volume   647.42772025
_cell_formula_units_Z   4
loop_
 _symmetry_equiv_pos_site_id
 _symmetry_equiv_pos_as_xyz
  1  'x, y, z'
loop_
 _atom_site_type_symbol
 _atom_site_label
 _atom_site_symmetry_multiplicity
 _atom_site_fract_x
 _atom_site_fract_y
 _atom_site_fract_z
 _atom_site_occupancy
  Cr  Cr0  1  0.87521100  0.59702700  0.36315500  1
  Cr  Cr1  1  0.62478900  0.40297300  0.86315500  1
  Cr  Cr2  1  0.37521100  0.90297300  0.63684500  1
  Cr  Cr3  1  0.12478900  0.09702700  0.13684500  1
  P  P0  1  0.57200900  0.55255400  0.16600300  1
  P  P1  1  0.71538500  0.93886800  0.44490500  1
  P  P2  1  0.78461500  0.06113200  0.94490500  1
  P  P3  1  0.92799100  0.44744600  0.66600300  1
  P  P4  1  0.06841700  0.72738200  0.08170700  1
  P  P5  1  0.07200900  0.94744600  0.83399700  1
  P  P6  1  0.21538500  0.56113200  0.55509500  1
  P  P7  1  0.28461500  0.43886800  0.05509500  1
  P  P8  1  0.93158300  0.22738200  0.41829300  1
  P  P9  1  0.43158300  0.27261800  0.58170700  1
  P  P10  1  0.56841700  0.77261800  0.91829300  1
  P  P11  1  0.42799100  0.05255400  0.33399700  1
  O  O0  1  0.63372000  0.63525000  0.83214000  1
  O  O1  1  0.98182300  0.28801300  0.57995100  1
  O  O2  1  0.93398200  0.63750900  0.15113900  1
  O  O3  1  0.90004400  0.02616500  0.80438300  1
  O  O4  1  0.01817700  0.78801300  0.92004900  1
  O  O5  1  0.06601800  0.13750900  0.34886100  1
  O  O6  1  0.09995600  0.52616500  0.69561700  1
  O  O7  1  0.11160900  0.59440400  0.42307100  1
  O  O8  1  0.13372000  0.86475000  0.16786000  1
  O  O9  1  0.14231600  0.90447400  0.68784500  1
  O  O10  1  0.15460900  0.32760200  0.09918000  1
  O  O11  1  0.17028400  0.05405400  0.93108700  1
  O  O12  1  0.20691700  0.60974700  0.03108400  1
  O  O13  1  0.29308300  0.39025300  0.53108400  1
  O  O14  1  0.32971600  0.94594600  0.43108700  1
  O  O15  1  0.34539100  0.67239800  0.59918000  1
  O  O16  1  0.35768400  0.09552600  0.18784500  1
  O  O17  1  0.36628000  0.13525000  0.66786000  1
  O  O18  1  0.38839100  0.40559600  0.92307100  1
  O  O19  1  0.40004400  0.47383500  0.19561700  1
  O  O20  1  0.43398200  0.86249100  0.84886100  1
  O  O21  1  0.48182300  0.21198700  0.42004900  1
  O  O22  1  0.51817700  0.71198700  0.07995100  1
  O  O23  1  0.86628000  0.36475000  0.33214000  1
  O  O24  1  0.59995600  0.97383500  0.30438300  1
  O  O25  1  0.61160900  0.90559600  0.57692900  1
  O  O26  1  0.56601800  0.36249100  0.65113900  1
  O  O27  1  0.64231600  0.59552600  0.31215500  1
  O  O28  1  0.65460900  0.17239800  0.90082000  1
  O  O29  1  0.67028400  0.44594600  0.06891300  1
  O  O30  1  0.70691700  0.89025300  0.96891600  1
  O  O31  1  0.79308300  0.10974700  0.46891600  1
  O  O32  1  0.82971600  0.55405400  0.56891300  1
  O  O33  1  0.84539100  0.82760200  0.40082000  1
  O  O34  1  0.85768400  0.40447400  0.81215500  1
  O  O35  1  0.88839100  0.09440400  0.07692900  1
loop_
_geom_bond_atom_site_label_1
_geom_bond_atom_site_label_2
_geom_bond_distance
_geom_bond_site_symmetry_2
Cr0 O32 1.946490 1_555
Cr0 O23 1.984954 1_555
Cr0 O33 1.994719 1_555
Cr0 O27 2.013367 1_555
Cr0 O2 2.022052 1_555
Cr0 O7 2.062110 1_655
Cr1 O29 1.946490 1_556
Cr1 O0 1.984954 1_555
Cr1 O28 1.994719 1_555
Cr1 O34 2.013367 1_555
Cr1 O26 2.022052 1_555
Cr1 O18 2.062110 1_555
Cr2 O14 1.946490 1_555
Cr2 O17 1.984954 1_565
Cr2 O15 1.994719 1_555
Cr2 O9 2.013367 1_555
Cr2 O20 2.022052 1_555
Cr2 O25 2.062110 1_555
Cr3 O11 1.946490 1_554
Cr3 O8 1.984954 1_545
Cr3 O10 1.994719 1_555
Cr3 O16 2.013367 1_555
Cr3 O5 2.022052 1_555
Cr3 O35 2.062110 1_455
O0 P10 1.505106 1_555
O1 P8 1.614976 1_555
O1 P3 1.623297 1_555
O2 P4 1.501852 1_655
O3 P5 1.614880 1_645
O3 P2 1.633227 1_555
O4 P4 1.614976 1_556
O4 P5 1.623297 1_555
O5 P8 1.501852 1_455
O6 P3 1.614880 1_455
O6 P6 1.633227 1_555
O7 P6 1.512078 1_555
O8 P4 1.505106 1_555
O9 P5 1.500946 1_555
O10 P7 1.497176 1_555
O11 P5 1.508964 1_545
O12 P4 1.599502 1_555
O12 P7 1.600350 1_555
O13 P9 1.599502 1_555
O13 P6 1.600350 1_555
O14 P11 1.508964 1_565
O15 P6 1.497176 1_555
O16 P11 1.500946 1_555
O17 P9 1.505106 1_555
O18 P7 1.512078 1_556
O19 P0 1.614880 1_555
O19 P7 1.633227 1_555
O20 P10 1.501852 1_555
O21 P9 1.614976 1_555
O21 P11 1.623297 1_555
O22 P10 1.614976 1_554
O22 P0 1.623297 1_555
O23 P8 1.505106 1_555
O24 P11 1.614880 1_565
O24 P1 1.633227 1_555
O25 P1 1.512078 1_555
O26 P9 1.501852 1_555
O27 P0 1.500946 1_555
O28 P2 1.497176 1_555
O29 P0 1.508964 1_555
O30 P10 1.599502 1_555
O30 P2 1.600350 1_565
O31 P8 1.599502 1_555
O31 P1 1.600350 1_545
O32 P3 1.508964 1_555
O33 P1 1.497176 1_555
O34 P3 1.500946 1_555
O35 P2 1.512078 1_554
