# generated using pymatgen
data_CdO2
_symmetry_space_group_name_H-M   'P 1'
_cell_length_a   5.40471700
_cell_length_b   5.40471700
_cell_length_c   5.40471700
_cell_angle_alpha   90.00000000
_cell_angle_beta   90.00000000
_cell_angle_gamma   90.00000000
_symmetry_Int_Tables_number   1
_chemical_formula_structural   CdO2
_chemical_formula_sum   'Cd4 O8'
_cell_volume   157.87700372
_cell_formula_units_Z   4
loop_
 _symmetry_equiv_pos_site_id
 _symmetry_equiv_pos_as_xyz
  1  'x, y, z'
loop_
 _atom_site_type_symbol
 _atom_site_label
 _atom_site_symmetry_multiplicity
 _atom_site_fract_x
 _atom_site_fract_y
 _atom_site_fract_z
 _atom_site_occupancy
  Cd  Cd0  1  0.50000000  0.00000000  0.00000000  1
  Cd  Cd1  1  0.00000000  0.00000000  0.50000000  1
  Cd  Cd2  1  0.00000000  0.50000000  0.00000000  1
  Cd  Cd3  1  0.50000000  0.50000000  0.50000000  1
  O  O0  1  0.08032400  0.41967600  0.58032400  1
  O  O1  1  0.41967600  0.58032400  0.08032400  1
  O  O2  1  0.58032400  0.08032400  0.41967600  1
  O  O3  1  0.91967600  0.91967600  0.91967600  1
  O  O4  1  0.08032400  0.08032400  0.08032400  1
  O  O5  1  0.41967600  0.91967600  0.58032400  1
  O  O6  1  0.58032400  0.41967600  0.91967600  1
  O  O7  1  0.91967600  0.58032400  0.41967600  1
loop_
_geom_bond_atom_site_label_1
_geom_bond_atom_site_label_2
_geom_bond_distance
_geom_bond_site_symmetry_2
Cd0 O6 2.349852 1_554
Cd0 O2 2.349852 1_555
Cd0 O4 2.349852 1_555
Cd0 O3 2.349852 1_544
Cd0 O1 2.349852 1_545
Cd0 O5 2.349852 1_544
Cd1 O0 2.349852 1_555
Cd1 O5 2.349852 1_545
Cd1 O4 2.349852 1_555
Cd1 O3 2.349852 1_445
Cd1 O7 2.349852 1_445
Cd1 O2 2.349852 1_455
Cd2 O7 2.349852 1_455
Cd2 O4 2.349852 1_555
Cd2 O1 2.349852 1_555
Cd2 O3 2.349852 1_454
Cd2 O0 2.349852 1_554
Cd2 O6 2.349852 1_454
Cd3 O0 2.349852 1_555
Cd3 O2 2.349852 1_555
Cd3 O1 2.349852 1_555
Cd3 O7 2.349852 1_555
Cd3 O5 2.349852 1_555
Cd3 O6 2.349852 1_555
O0 O7 1.503865 1_455
O1 O6 1.503865 1_554
O2 O5 1.503865 1_545
O3 O4 1.503865 1_666
