# generated using pymatgen
data_MgV2Zn4O8
_symmetry_space_group_name_H-M   'P 1'
_cell_length_a   6.27350793
_cell_length_b   6.27350646
_cell_length_c   6.18782000
_cell_angle_alpha   60.45079913
_cell_angle_beta   60.45080671
_cell_angle_gamma   57.35620040
_symmetry_Int_Tables_number   1
_chemical_formula_structural   MgV2Zn4O8
_chemical_formula_sum   'Mg1 V2 Zn4 O8'
_cell_volume   169.59911715
_cell_formula_units_Z   1
loop_
 _symmetry_equiv_pos_site_id
 _symmetry_equiv_pos_as_xyz
  1  'x, y, z'
loop_
 _atom_site_type_symbol
 _atom_site_label
 _atom_site_symmetry_multiplicity
 _atom_site_fract_x
 _atom_site_fract_y
 _atom_site_fract_z
 _atom_site_occupancy
  Mg  Mg0  1  0.24031200  0.24031200  0.75968800  1
  V  V0  1  0.63952600  0.63952600  0.10393000  1
  V  V1  1  0.63952600  0.63952600  0.61701800  1
  Zn  Zn0  1  0.95112000  0.95112000  0.04888000  1
  Zn  Zn1  1  0.29817700  0.29817700  0.20182300  1
  Zn  Zn2  1  0.16290800  0.73292700  0.55208300  1
  Zn  Zn3  1  0.73292700  0.16290800  0.55208300  1
  O  O0  1  0.40773500  0.40773500  0.37534700  1
  O  O1  1  0.42919600  0.88935800  0.34072300  1
  O  O2  1  0.40773500  0.40773500  0.80918000  1
  O  O3  1  0.37658300  0.85350600  0.88495600  1
  O  O4  1  0.88935800  0.42919500  0.34072300  1
  O  O5  1  0.86069500  0.86069500  0.42053800  1
  O  O6  1  0.85350500  0.37658300  0.88495600  1
  O  O7  1  0.86069500  0.86069500  0.85807300  1
loop_
_geom_bond_atom_site_label_1
_geom_bond_atom_site_label_2
_geom_bond_distance
_geom_bond_site_symmetry_2
Mg0 O3 1.944351 1_545
Mg0 O6 1.944356 1_455
Mg0 O2 2.030976 1_555
Mg0 O0 2.030988 1_555
O0 Zn1 2.015730 1_555
O0 V0 2.124438 1_555
O0 Zn2 2.209170 1_555
O0 Zn3 2.209170 1_555
O1 Zn2 1.952447 1_555
O1 Zn1 2.059238 1_565
O1 V0 2.114600 1_555
O1 V1 2.114600 1_555
O2 Zn1 2.015746 1_556
O2 V1 2.124441 1_555
O2 Zn2 2.209155 1_555
O2 Zn3 2.209155 1_555
O3 V0 2.093003 1_556
O3 V1 2.093007 1_555
O3 Zn0 2.169582 1_456
O4 Zn3 1.952442 1_555
O4 Zn1 2.059239 1_655
O4 V0 2.114600 1_555
O4 V1 2.114604 1_555
O5 Zn0 1.925118 1_555
O5 V1 2.019325 1_555
O5 Zn3 2.034395 1_565
O5 Zn2 2.034395 1_655
O6 V1 2.093004 1_555
O6 V0 2.093004 1_556
O6 Zn0 2.169581 1_546
O7 Zn0 1.925112 1_556
O7 V0 2.019324 1_556
O7 Zn3 2.034395 1_565
O7 Zn2 2.034395 1_655
