# generated using pymatgen
data_MgMn12(O7F5)2
_symmetry_space_group_name_H-M   'P 1'
_cell_length_a   4.81258546
_cell_length_b   5.71602192
_cell_length_c   15.31686641
_cell_angle_alpha   89.05139906
_cell_angle_beta   90.18498079
_cell_angle_gamma   88.94637614
_symmetry_Int_Tables_number   1
_chemical_formula_structural   MgMn12(O7F5)2
_chemical_formula_sum   'Mg1 Mn12 O14 F10'
_cell_volume   421.21768120
_cell_formula_units_Z   1
loop_
 _symmetry_equiv_pos_site_id
 _symmetry_equiv_pos_as_xyz
  1  'x, y, z'
loop_
 _atom_site_type_symbol
 _atom_site_label
 _atom_site_symmetry_multiplicity
 _atom_site_fract_x
 _atom_site_fract_y
 _atom_site_fract_z
 _atom_site_occupancy
  Mg  Mg0  1  0.97916800  0.61230000  0.75206200  1
  Mn  Mn0  1  0.01318500  0.14887000  0.40391900  1
  Mn  Mn1  1  0.01626600  0.84194200  0.23927800  1
  Mn  Mn2  1  0.02636900  0.18673200  0.08427300  1
  Mn  Mn3  1  0.03594900  0.14275700  0.74367300  1
  Mn  Mn4  1  0.01947200  0.83587300  0.56907300  1
  Mn  Mn5  1  0.01905700  0.86866500  0.92580500  1
  Mn  Mn6  1  0.49361100  0.35258200  0.58932400  1
  Mn  Mn7  1  0.49363700  0.33743800  0.92541200  1
  Mn  Mn8  1  0.50150500  0.34435100  0.25505400  1
  Mn  Mn9  1  0.50854500  0.64223900  0.09617800  1
  Mn  Mn10  1  0.51565300  0.64738900  0.42156700  1
  Mn  Mn11  1  0.46954700  0.63730400  0.74820600  1
  O  O0  1  0.21910400  0.11076800  0.29726600  1
  O  O1  1  0.22208900  0.11417900  0.63618600  1
  O  O2  1  0.21293400  0.14070300  0.97652700  1
  O  O3  1  0.23123400  0.88667200  0.13550200  1
  O  O4  1  0.23670400  0.88104700  0.46265200  1
  O  O5  1  0.21710900  0.86456900  0.80199100  1
  O  O6  1  0.28997900  0.40651300  0.14814300  1
  O  O7  1  0.22614500  0.62317700  0.64302900  1
  O  O8  1  0.26400600  0.39559500  0.81056800  1
  O  O9  1  0.72721500  0.39760300  0.02983900  1
  O  O10  1  0.72690400  0.61733000  0.19648900  1
  O  O11  1  0.71865400  0.37313700  0.36194400  1
  O  O12  1  0.71226600  0.60432400  0.53100500  1
  O  O13  1  0.71925800  0.39066300  0.70080900  1
  F  F0  1  0.26602700  0.61365000  0.31790500  1
  F  F1  1  0.26142500  0.37206400  0.47994300  1
  F  F2  1  0.28494900  0.63016600  0.98461000  1
  F  F3  1  0.74534100  0.62468800  0.86113100  1
  F  F4  1  0.77580900  0.12941800  0.18331800  1
  F  F5  1  0.78082700  0.09749400  0.51752900  1
  F  F6  1  0.77201800  0.87281300  0.34499900  1
  F  F7  1  0.74098500  0.88030700  0.02968900  1
  F  F8  1  0.77907500  0.12481200  0.85275500  1
  F  F9  1  0.75020000  0.86891200  0.69651200  1
loop_
_geom_bond_atom_site_label_1
_geom_bond_atom_site_label_2
_geom_bond_distance
_geom_bond_site_symmetry_2
Mg0 O13 1.967419 1_555
Mg0 O5 2.016683 1_655
Mg0 O8 2.027161 1_655
Mg0 O7 2.053722 1_655
Mn0 O0 1.926767 1_555
Mn0 O11 1.991442 1_455
Mn0 O4 2.048809 1_545
Mn1 O3 1.915500 1_555
Mn1 O10 2.026056 1_455
Mn1 O0 2.048841 1_565
Mn2 O2 1.901112 1_554
Mn2 O9 2.028770 1_455
Mn2 O6 2.058160 1_555
Mn2 O3 2.101845 1_545
Mn3 O1 1.884868 1_555
Mn3 O5 1.995865 1_545
Mn3 O8 2.107899 1_555
Mn3 O13 2.155281 1_455
Mn4 O7 1.911343 1_555
Mn4 O4 1.955415 1_555
Mn4 O12 2.090340 1_455
Mn4 O1 2.154744 1_565
Mn5 O2 1.995190 1_565
Mn5 O5 2.125522 1_555
Mn6 O12 1.998764 1_555
Mn6 O1 2.029504 1_555
Mn6 O13 2.037544 1_555
Mn6 O7 2.168331 1_555
Mn7 O2 1.932888 1_555
Mn7 O9 1.990253 1_556
Mn7 O8 2.092995 1_555
Mn8 O6 1.949554 1_555
Mn8 O11 1.950355 1_555
Mn8 O0 2.022776 1_555
Mn8 O10 2.106714 1_555
Mn9 O10 1.860675 1_555
Mn9 O6 1.891426 1_555
Mn9 O3 2.015070 1_555
Mn9 O9 2.023647 1_555
Mn10 O12 1.932164 1_555
Mn10 O4 1.987305 1_555
Mn10 O11 2.059796 1_555
Mn11 O8 1.952536 1_555
Mn11 O5 1.956016 1_555
Mn11 O13 1.983940 1_555
Mn11 O7 1.992372 1_555
F0 Mn10 2.001950 1_555
F0 Mn1 2.116349 1_555
F0 Mn8 2.138337 1_555
F1 Mn6 2.011232 1_555
F1 Mn0 2.122987 1_555
F1 Mn10 2.191902 1_555
F2 Mn9 2.019333 1_556
F2 Mn5 2.048161 1_555
F2 Mn7 2.150552 1_555
F3 Mg0 2.018751 1_555
F3 Mn11 2.176263 1_555
F3 Mn5 2.183174 1_655
F3 Mn7 2.271566 1_555
F4 Mn2 1.967926 1_655
F4 Mn8 2.110396 1_555
F4 Mn1 2.156625 1_645
F5 Mn4 2.017562 1_645
F5 Mn0 2.091064 1_655
F5 Mn6 2.287949 1_555
F6 Mn1 2.012252 1_655
F6 Mn10 2.139090 1_555
F6 Mn0 2.181557 1_665
F7 Mn9 2.039051 1_555
F7 Mn5 2.083544 1_654
F7 Mn2 2.404729 1_665
F8 Mn3 2.083905 1_655
F8 Mn7 2.143811 1_555
F8 Mn5 2.145866 1_645
F9 Mg0 1.995715 1_555
F9 Mn11 2.059572 1_555
F9 Mn3 2.230094 1_665
F9 Mn4 2.354723 1_655
