# generated using pymatgen
data_MgCr4O8
_symmetry_space_group_name_H-M   'P 1'
_cell_length_a   2.99528317
_cell_length_b   4.93616040
_cell_length_c   10.68137490
_cell_angle_alpha   89.92623878
_cell_angle_beta   89.81556160
_cell_angle_gamma   107.51929696
_symmetry_Int_Tables_number   1
_chemical_formula_structural   MgCr4O8
_chemical_formula_sum   'Mg1 Cr4 O8'
_cell_volume   150.59973191
_cell_formula_units_Z   1
loop_
 _symmetry_equiv_pos_site_id
 _symmetry_equiv_pos_as_xyz
  1  'x, y, z'
loop_
 _atom_site_type_symbol
 _atom_site_label
 _atom_site_symmetry_multiplicity
 _atom_site_fract_x
 _atom_site_fract_y
 _atom_site_fract_z
 _atom_site_occupancy
  Mg  Mg0  1  0.26721900  0.53344800  0.24981600  1
  Cr  Cr0  1  0.88112400  0.75769400  0.03916400  1
  Cr  Cr1  1  0.12888400  0.28626900  0.90756100  1
  Cr  Cr2  1  0.87160400  0.74989500  0.45967400  1
  Cr  Cr3  1  0.15740300  0.27748300  0.59216400  1
  O  O0  1  0.23855500  0.48023200  0.42767500  1
  O  O1  1  0.78159700  0.52957800  0.61765100  1
  O  O2  1  0.75490500  0.53934400  0.88151700  1
  O  O3  1  0.24651600  0.48800000  0.07187200  1
  O  O4  1  0.89658500  0.79425100  0.25152000  1
  O  O5  1  0.08128000  0.15452300  0.75088000  1
  O  O6  1  0.53515600  0.03408500  0.98152800  1
  O  O7  1  0.49250600  0.02519800  0.51897700  1
loop_
_geom_bond_atom_site_label_1
_geom_bond_atom_site_label_2
_geom_bond_distance
_geom_bond_site_symmetry_2
Mg0 O3 1.913182 1_555
Mg0 O0 1.915625 1_555
Mg0 O4 1.936608 1_455
Mg0 O4 1.936631 1_555
Cr0 O2 1.975735 1_554
Cr0 O3 1.992629 1_655
Cr0 O3 1.994614 1_555
Cr0 O6 2.041404 1_564
Cr0 O6 2.111642 1_664
Cr0 O4 2.275167 1_555
Cr1 O5 1.786782 1_555
Cr1 O2 1.932954 1_455
Cr1 O2 1.933767 1_555
Cr1 O6 1.998011 1_455
Cr1 O3 1.998306 1_556
Cr1 O6 2.137825 1_555
Cr2 O1 1.979538 1_555
Cr2 O0 1.992448 1_555
Cr2 O0 1.994067 1_655
Cr2 O7 2.048157 1_665
Cr2 O7 2.112804 1_565
Cr2 O4 2.232650 1_555
Cr3 O5 1.790525 1_555
Cr3 O1 1.929142 1_555
Cr3 O1 1.931810 1_455
Cr3 O7 1.979749 1_555
Cr3 O0 1.998472 1_555
Cr3 O7 2.155826 1_455
