# generated using pymatgen
data_Ta(NiTe)2
_symmetry_space_group_name_H-M   'P 1'
_cell_length_a   3.57647700
_cell_length_b   6.47133700
_cell_length_c   18.02380700
_cell_angle_alpha   90.00000000
_cell_angle_beta   90.00000000
_cell_angle_gamma   90.00000000
_symmetry_Int_Tables_number   1
_chemical_formula_structural   Ta(NiTe)2
_chemical_formula_sum   'Ta4 Ni8 Te8'
_cell_volume   417.15358612
_cell_formula_units_Z   4
loop_
 _symmetry_equiv_pos_site_id
 _symmetry_equiv_pos_as_xyz
  1  'x, y, z'
loop_
 _atom_site_type_symbol
 _atom_site_label
 _atom_site_symmetry_multiplicity
 _atom_site_fract_x
 _atom_site_fract_y
 _atom_site_fract_z
 _atom_site_occupancy
  Ta  Ta0  1  0.25000000  0.90578000  0.72484500  1
  Ta  Ta1  1  0.75000000  0.09422000  0.27515500  1
  Ta  Ta2  1  0.25000000  0.40578000  0.77515500  1
  Ta  Ta3  1  0.75000000  0.59422000  0.22484500  1
  Ni  Ni0  1  0.25000000  0.28871300  0.18556000  1
  Ni  Ni1  1  0.75000000  0.71128700  0.81444000  1
  Ni  Ni2  1  0.75000000  0.21128700  0.68556000  1
  Ni  Ni3  1  0.25000000  0.78871300  0.31444000  1
  Ni  Ni4  1  0.25000000  0.89787100  0.18680500  1
  Ni  Ni5  1  0.75000000  0.10212900  0.81319500  1
  Ni  Ni6  1  0.25000000  0.39787100  0.31319500  1
  Ni  Ni7  1  0.75000000  0.60212900  0.68680500  1
  Te  Te0  1  0.25000000  0.59434100  0.09782600  1
  Te  Te1  1  0.75000000  0.40565900  0.90217400  1
  Te  Te2  1  0.75000000  0.90565900  0.59782600  1
  Te  Te3  1  0.25000000  0.09434100  0.40217400  1
  Te  Te4  1  0.75000000  0.59159700  0.38835400  1
  Te  Te5  1  0.25000000  0.40840300  0.61164600  1
  Te  Te6  1  0.75000000  0.09159700  0.11164600  1
  Te  Te7  1  0.25000000  0.90840300  0.88835400  1
loop_
_geom_bond_atom_site_label_1
_geom_bond_atom_site_label_2
_geom_bond_distance
_geom_bond_site_symmetry_2
Ta0 Te2 2.904995 1_555
Ta0 Te2 2.904995 1_455
Ta0 Te7 2.947104 1_555
Ta1 Te3 2.904995 1_555
Ta1 Te3 2.904995 1_655
Ta1 Te6 2.947104 1_555
Ta2 Te1 2.904995 1_455
Ta2 Te1 2.904995 1_555
Ta2 Te5 2.947104 1_555
Ta3 Te0 2.904995 1_555
Ta3 Te0 2.904995 1_655
Ta3 Te4 2.947104 1_555
Ni0 Ni6 2.406482 1_555
Ni0 Ni4 2.529370 1_545
Ni0 Te0 2.532250 1_555
Ni0 Te6 2.568998 1_455
Ni0 Te6 2.568998 1_555
Ni0 Ta1 2.718394 1_555
Ni0 Ta1 2.718394 1_455
Ni0 Ta3 2.758231 1_455
Ni0 Ta3 2.758231 1_555
Ni1 Ni7 2.406482 1_555
Ni1 Ni5 2.529370 1_565
Ni1 Te1 2.532250 1_555
Ni1 Te7 2.568998 1_655
Ni1 Te7 2.568998 1_555
Ni1 Ta0 2.718394 1_655
Ni1 Ta0 2.718394 1_555
Ni1 Ta2 2.758231 1_655
Ni1 Ta2 2.758231 1_555
Ni2 Ni5 2.406482 1_555
Ni2 Ni7 2.529370 1_555
Ni2 Te2 2.532250 1_545
Ni2 Te5 2.568998 1_555
Ni2 Te5 2.568998 1_655
Ni2 Ta2 2.718394 1_555
Ni2 Ta2 2.718394 1_655
Ni2 Ta0 2.758231 1_645
Ni2 Ta0 2.758231 1_545
Ni3 Ni4 2.406482 1_555
Ni3 Ni6 2.529370 1_555
Ni3 Te3 2.532250 1_565
Ni3 Te4 2.568998 1_555
Ni3 Te4 2.568998 1_455
Ni3 Ta3 2.718394 1_455
Ni3 Ta3 2.718394 1_555
Ni3 Ta1 2.758231 1_565
Ni3 Ta1 2.758231 1_465
Ni4 Te0 2.535792 1_555
Ni4 Te6 2.569933 1_565
Ni4 Te6 2.569933 1_465
Ni4 Ta1 2.710733 1_565
Ni4 Ta1 2.710733 1_465
Ni4 Ta3 2.743941 1_455
Ni4 Ta3 2.743941 1_555
Ni5 Te1 2.535792 1_555
Ni5 Te7 2.569933 1_645
Ni5 Te7 2.569933 1_545
Ni5 Ta0 2.710733 1_645
Ni5 Ta0 2.710733 1_545
Ni5 Ta2 2.743941 1_555
Ni5 Ta2 2.743941 1_655
Ni6 Te3 2.535792 1_555
Ni6 Te4 2.569933 1_555
Ni6 Te4 2.569933 1_455
Ni6 Ta3 2.710733 1_455
Ni6 Ta3 2.710733 1_555
Ni6 Ta1 2.743941 1_555
Ni6 Ta1 2.743941 1_455
Ni7 Te2 2.535792 1_555
Ni7 Te5 2.569933 1_555
Ni7 Te5 2.569933 1_655
Ni7 Ta2 2.710733 1_555
Ni7 Ta2 2.710733 1_655
Ni7 Ta0 2.743941 1_555
Ni7 Ta0 2.743941 1_655
