# generated using pymatgen
data_Y3TaP2(SO6)4
_symmetry_space_group_name_H-M   'P 1'
_cell_length_a   9.14905280
_cell_length_b   9.14869638
_cell_length_c   23.56709651
_cell_angle_alpha   90.03554473
_cell_angle_beta   89.94855727
_cell_angle_gamma   119.91758574
_symmetry_Int_Tables_number   1
_chemical_formula_structural   Y3TaP2(SO6)4
_chemical_formula_sum   'Y9 Ta3 P6 S12 O72'
_cell_volume   1709.74736310
_cell_formula_units_Z   3
loop_
 _symmetry_equiv_pos_site_id
 _symmetry_equiv_pos_as_xyz
  1  'x, y, z'
loop_
 _atom_site_type_symbol
 _atom_site_label
 _atom_site_symmetry_multiplicity
 _atom_site_fract_x
 _atom_site_fract_y
 _atom_site_fract_z
 _atom_site_occupancy
  Y  Y0  1  0.99724015  0.99978804  0.35575550  1
  Y  Y1  1  0.99515817  0.00152239  0.85719999  1
  Y  Y2  1  0.99162125  0.99680636  0.64911589  1
  Y  Y3  1  0.00148737  0.00894158  0.14407827  1
  Y  Y4  1  0.66640351  0.32867109  0.69029744  1
  Y  Y5  1  0.67178429  0.33457267  0.19099130  1
  Y  Y6  1  0.67239880  0.33751857  0.47496304  1
  Y  Y7  1  0.33220203  0.66573047  0.02116331  1
  Y  Y8  1  0.33051062  0.66959132  0.52409415  1
  Ta  Ta0  1  0.66714406  0.33319521  0.97184547  1
  Ta  Ta1  1  0.32141468  0.65989200  0.31391580  1
  Ta  Ta2  1  0.33976712  0.67250157  0.81688541  1
  P  P0  1  0.00837410  0.29665846  0.25163840  1
  P  P1  1  0.69911535  0.99014400  0.75245460  1
  P  P2  1  0.61435735  0.65702056  0.91721018  1
  P  P3  1  0.04502460  0.38750965  0.91674109  1
  P  P4  1  0.34160650  0.95707317  0.91709492  1
  P  P5  1  0.04857451  0.66613827  0.41595797  1
  S  S0  1  0.29047532  0.98862198  0.25203765  1
  S  S1  1  0.69672540  0.70962297  0.25203709  1
  S  S2  1  0.29203735  0.30478860  0.75277585  1
  S  S3  1  0.01296739  0.70825061  0.75292174  1
  S  S4  1  0.95609170  0.33099191  0.58331552  1
  S  S5  1  0.37483970  0.04609298  0.58323272  1
  S  S6  1  0.66817101  0.62326839  0.58322295  1
  S  S7  1  0.94436729  0.61536292  0.08039050  1
  S  S8  1  0.66815875  0.05511526  0.08029484  1
  S  S9  1  0.38725949  0.33063223  0.08060709  1
  S  S10  1  0.61181208  0.94710152  0.41433206  1
  S  S11  1  0.33504016  0.38655806  0.41457974  1
  O  O0  1  0.21255198  0.01689640  0.30167136  1
  O  O1  1  0.80563734  0.78653896  0.30138360  1
  O  O2  1  0.98276040  0.18874789  0.30344740  1
  O  O3  1  0.21442133  0.19553387  0.80197541  1
  O  O4  1  0.98409517  0.78757293  0.80217765  1
  O  O5  1  0.80993337  0.01744398  0.80376094  1
  O  O6  1  0.77013108  0.95090116  0.69919989  1
  O  O7  1  0.18784196  0.23364214  0.70143739  1
  O  O8  1  0.04794379  0.81294862  0.70151890  1
  O  O9  1  0.76995635  0.81451915  0.20076682  1
  O  O10  1  0.04620268  0.22348953  0.19836249  1
  O  O11  1  0.18507891  0.95255555  0.20088954  1
  O  O12  1  0.87668415  0.35686217  0.63394148  1
  O  O13  1  0.48000818  0.12690345  0.63382614  1
  O  O14  1  0.64428979  0.51962874  0.63403698  1
  O  O15  1  0.86803226  0.51484809  0.13188925  1
  O  O16  1  0.64451950  0.13094507  0.13197447  1
  O  O17  1  0.48596863  0.35314385  0.13224662  1
  O  O18  1  0.47872933  0.31337813  0.02968895  1
  O  O19  1  0.83526450  0.52326725  0.02958298  1
  O  O20  1  0.68679446  0.16454234  0.02960641  1
  O  O21  1  0.45579453  0.14839693  0.53183744  1
  O  O22  1  0.69037442  0.54158261  0.53192077  1
  O  O23  1  0.85211562  0.30728991  0.53217872  1
  O  O24  1  0.53622139  0.68238724  0.96955822  1
  O  O25  1  0.14516883  0.46440751  0.96987288  1
  O  O26  1  0.31751664  0.85449898  0.96953578  1
  O  O27  1  0.53851962  0.84725889  0.46556215  1
  O  O28  1  0.31116237  0.46301953  0.46534646  1
  O  O29  1  0.15784428  0.69091967  0.46720024  1
  O  O30  1  0.15323369  0.64951251  0.36228064  1
  O  O31  1  0.50333618  0.85435282  0.36336466  1
  O  O32  1  0.35378916  0.49799567  0.36328895  1
  O  O33  1  0.13488735  0.50607813  0.86466119  1
  O  O34  1  0.37038518  0.86424577  0.86482658  1
  O  O35  1  0.49427416  0.62922991  0.86481490  1
  O  O36  1  0.03292719  0.81970490  0.40332230  1
  O  O37  1  0.77937067  0.96707873  0.40572698  1
  O  O38  1  0.18712179  0.22083189  0.40522220  1
  O  O39  1  0.01018069  0.21118460  0.90544906  1
  O  O40  1  0.20170494  0.99175745  0.90326530  1
  O  O41  1  0.79053782  0.79614845  0.90477467  1
  O  O42  1  0.97501676  0.18094599  0.59073210  1
  O  O43  1  0.20591715  0.02636221  0.59134357  1
  O  O44  1  0.81985841  0.79156711  0.58998581  1
  O  O45  1  0.95726727  0.78207039  0.08617708  1
  O  O46  1  0.82225651  0.04166308  0.08545163  1
  O  O47  1  0.22031347  0.17562598  0.08544826  1
  O  O48  1  0.66593653  0.13563749  0.74269485  1
  O  O49  1  0.46314348  0.33314539  0.74362714  1
  O  O50  1  0.86849700  0.53857260  0.74365266  1
  O  O51  1  0.66972468  0.53870245  0.24317228  1
  O  O52  1  0.86362027  0.33092802  0.24227052  1
  O  O53  1  0.46070784  0.13245336  0.24327701  1
  O  O54  1  0.62816983  0.48962979  0.92875788  1
  O  O55  1  0.86131406  0.37032829  0.92920246  1
  O  O56  1  0.50901161  0.13824279  0.92893804  1
  O  O57  1  0.62249157  0.11243284  0.41809042  1
  O  O58  1  0.48908467  0.37523696  0.41729020  1
  O  O59  1  0.87894279  0.50368669  0.41826677  1
  O  O60  1  0.36607367  0.47797511  0.07338689  1
  O  O61  1  0.11218045  0.63465920  0.07321500  1
  O  O62  1  0.52066814  0.88728047  0.07303152  1
  O  O63  1  0.35867539  0.87787858  0.57707162  1
  O  O64  1  0.51892659  0.64278890  0.57584881  1
  O  O65  1  0.12461728  0.48051718  0.57638294  1
  O  O66  1  0.31229766  0.83605983  0.26410535  1
  O  O67  1  0.52585318  0.69156494  0.26454193  1
  O  O68  1  0.17067516  0.47892464  0.26622925  1
  O  O69  1  0.30852692  0.47608738  0.76543159  1
  O  O70  1  0.16663502  0.68950883  0.76539088  1
  O  O71  1  0.51815485  0.82764933  0.76844029  1
loop_
_geom_bond_atom_site_label_1
_geom_bond_atom_site_label_2
_geom_bond_distance
_geom_bond_site_symmetry_2
O0 S0 1.457912 1_545
O0 Y0 2.284251 1_445
O1 S1 1.463612 1_555
O1 Y0 2.260661 1_555
O2 P0 1.513466 1_655
O2 Y0 2.181086 1_545
O3 S2 1.462771 1_555
O3 Y1 2.305420 1_455
O4 S3 1.460662 1_655
O4 Y1 2.307041 1_565
O5 P1 1.517098 1_545
O5 Y1 2.174713 1_555
O6 P1 1.535211 1_555
O6 Y2 2.196216 1_555
O7 S2 1.475950 1_555
O7 Y2 2.357674 1_445
O8 S3 1.477295 1_555
O8 Y2 2.342726 1_455
O9 S1 1.479335 1_555
O9 Y3 2.382279 1_665
O10 P0 1.540643 1_555
O10 Y3 2.203082 1_555
O11 S0 1.475106 1_555
O11 Y3 2.397764 1_565
O12 S4 1.475446 1_555
O12 Y4 2.243356 1_555
O13 S5 1.478326 1_555
O13 Y4 2.224352 1_555
O14 S6 1.474839 1_555
O14 Y4 2.281867 1_555
O15 S7 1.471606 1_555
O15 Y5 2.220011 1_555
O16 S8 1.469550 1_555
O16 Y5 2.236306 1_555
O17 S9 1.468061 1_555
O17 Y5 2.264577 1_555
O18 S9 1.514916 1_555
O18 Ta0 2.132386 1_554
O19 S7 1.517225 1_555
O19 Ta0 2.138694 1_554
O20 S8 1.513002 1_555
O20 Ta0 2.132088 1_554
O21 S5 1.483232 1_555
O21 Y6 2.301151 1_555
O22 S6 1.487080 1_555
O22 Y6 2.237253 1_555
O23 S4 1.483343 1_555
O23 Y6 2.248607 1_555
O24 P2 1.500147 1_555
O24 Y7 2.167689 1_556
O25 P3 1.503432 1_555
O25 Y7 2.153768 1_556
O26 P4 1.500414 1_555
O26 Y7 2.171468 1_556
O27 S10 1.459663 1_555
O27 Y8 2.253669 1_555
O28 S11 1.455821 1_555
O28 Y8 2.276681 1_555
O29 P5 1.511603 1_555
O29 Y8 2.154774 1_555
O30 P5 1.638031 1_555
O30 Ta1 1.878038 1_555
O31 S10 1.519402 1_555
O31 Ta1 2.083412 1_555
O32 S11 1.535145 1_555
O32 Ta1 2.018862 1_555
O33 P3 1.571398 1_555
O33 Ta2 2.061791 1_555
O34 P4 1.590309 1_555
O34 Ta2 1.984989 1_555
O35 P2 1.587395 1_555
O35 Ta2 1.998126 1_555
O36 P5 1.511368 1_555
O36 Y0 2.148754 1_455
O37 S10 1.464456 1_555
O37 Y0 2.202486 1_555
O38 S11 1.460225 1_555
O38 Y0 2.227760 1_445
O39 P3 1.503772 1_555
O39 Y1 2.173870 1_455
O40 P4 1.500417 1_555
O40 Y1 2.220306 1_465
O41 P2 1.502411 1_555
O41 Y1 2.186825 1_565
O42 S4 1.477276 1_555
O42 Y2 2.238933 1_545
O43 S5 1.476098 1_555
O43 Y2 2.288598 1_445
O44 S6 1.480104 1_555
O44 Y2 2.234818 1_555
O45 S7 1.476091 1_555
O45 Y3 2.343838 1_665
O46 S8 1.480200 1_555
O46 Y3 2.276349 1_655
O47 S9 1.481978 1_555
O47 Y3 2.279278 1_555
O48 P1 1.523274 1_545
O48 Y4 2.153795 1_555
O49 S2 1.469287 1_555
O49 Y4 2.260798 1_555
O50 S3 1.468984 1_655
O50 Y4 2.268669 1_555
O51 S1 1.471121 1_555
O51 Y5 2.243323 1_555
O52 P0 1.521762 1_655
O52 Y5 2.145754 1_555
O53 S0 1.468089 1_545
O53 Y5 2.259092 1_555
O54 P2 1.621377 1_555
O54 Ta0 1.928223 1_555
O55 P3 1.634503 1_655
O55 Ta0 1.917407 1_555
O56 P4 1.624450 1_545
O56 Ta0 1.929553 1_555
O57 S10 1.468903 1_545
O57 Y6 2.303299 1_555
O58 S11 1.465225 1_555
O58 Y6 2.315439 1_555
O59 P5 1.523007 1_655
O59 Y6 2.190827 1_555
O60 S9 1.464442 1_555
O60 Y7 2.257353 1_555
O61 S7 1.464995 1_455
O61 Y7 2.250100 1_555
O62 S8 1.463263 1_565
O62 Y7 2.256138 1_555
O63 S5 1.477848 1_565
O63 Y8 2.182701 1_555
O64 S6 1.473175 1_555
O64 Y8 2.223776 1_555
O65 S4 1.473500 1_455
O65 Y8 2.192553 1_555
O66 S0 1.532127 1_555
O66 Ta1 2.029579 1_555
O67 S1 1.516481 1_555
O67 Ta1 2.095774 1_555
O68 P0 1.622970 1_555
O68 Ta1 1.904971 1_555
O69 S2 1.526883 1_555
O69 Ta2 2.065601 1_555
O70 S3 1.527616 1_555
O70 Ta2 2.062898 1_555
O71 P1 1.624028 1_555
O71 Ta2 1.915658 1_555
