# generated using pymatgen
data_MgFe6(OF)6
_symmetry_space_group_name_H-M   'P 1'
_cell_length_a   6.92571631
_cell_length_b   15.17863182
_cell_length_c   3.09353283
_cell_angle_alpha   90.05113601
_cell_angle_beta   89.66489439
_cell_angle_gamma   135.56620002
_symmetry_Int_Tables_number   1
_chemical_formula_structural   MgFe6(OF)6
_chemical_formula_sum   'Mg1 Fe6 O6 F6'
_cell_volume   227.66194205
_cell_formula_units_Z   1
loop_
 _symmetry_equiv_pos_site_id
 _symmetry_equiv_pos_as_xyz
  1  'x, y, z'
loop_
 _atom_site_type_symbol
 _atom_site_label
 _atom_site_symmetry_multiplicity
 _atom_site_fract_x
 _atom_site_fract_y
 _atom_site_fract_z
 _atom_site_occupancy
  Mg  Mg0  1  0.54110700  0.50399600  0.01275500  1
  Fe  Fe0  1  0.96483100  0.00194200  0.01242100  1
  Fe  Fe1  1  0.00152600  0.33823500  0.00761900  1
  Fe  Fe2  1  0.16047700  0.72990900  0.02145800  1
  Fe  Fe3  1  0.42725100  0.29460300  0.51133200  1
  Fe  Fe4  1  0.45540200  0.65607200  0.51400400  1
  Fe  Fe5  1  0.50038500  0.99940600  0.51421500  1
  O  O0  1  0.28178400  0.37000600  0.51418700  1
  O  O1  1  0.22132100  0.67541300  0.52052300  1
  O  O2  1  0.25394100  0.18621000  0.01292000  1
  O  O3  1  0.32091400  0.54404800  0.01483700  1
  O  O4  1  0.29554500  0.89545100  0.01647600  1
  O  O5  1  0.76354900  0.98383000  0.51456300  1
  F  F0  1  0.18595500  0.01006500  0.51290800  1
  F  F1  1  0.69176900  0.43425300  0.01007100  1
  F  F2  1  0.71740800  0.79696000  0.01349100  1
  F  F3  1  0.71481900  0.13790300  0.00962400  1
  F  F4  1  0.75703500  0.31191000  0.50784600  1
  F  F5  1  0.76498000  0.63442000  0.50875200  1
loop_
_geom_bond_atom_site_label_1
_geom_bond_atom_site_label_2
_geom_bond_distance
_geom_bond_site_symmetry_2
Mg0 O3 2.004773 1_555
Mg0 O0 2.127131 1_555
Mg0 O0 2.133317 1_554
Fe0 O2 1.958107 1_655
Fe0 O5 1.964695 1_545
Fe0 O5 1.966712 1_544
Fe1 O3 2.187334 1_555
Fe1 O0 2.227092 1_554
Fe1 O0 2.270071 1_555
Fe2 O1 1.936773 1_554
Fe2 O1 1.937269 1_555
Fe2 O4 1.957570 1_555
Fe3 O2 1.928164 1_556
Fe3 O2 1.929189 1_555
Fe3 O0 1.992876 1_555
Fe4 O1 1.842309 1_555
Fe4 O3 1.971114 1_556
Fe4 O3 1.973236 1_555
Fe5 O4 1.922920 1_555
Fe5 O4 1.923090 1_556
Fe5 O5 1.998292 1_555
F0 Fe0 2.109821 1_456
F0 Fe0 2.124948 1_455
F0 Fe5 2.296002 1_545
F1 Mg0 1.945984 1_555
F1 Fe3 2.163500 1_555
F1 Fe3 2.170527 1_554
F2 Fe4 2.166683 1_555
F2 Fe4 2.176821 1_554
F2 Fe0 2.236675 1_565
F3 Fe5 2.129747 1_544
F3 Fe1 2.136855 1_655
F3 Fe5 2.140459 1_545
F4 Fe1 2.103734 1_655
F4 Fe3 2.104421 1_555
F4 Fe1 2.116700 1_656
F5 Mg0 2.077564 1_555
F5 Mg0 2.085118 1_556
F5 Fe4 2.389793 1_555
F5 Fe2 2.482290 1_655
F5 Fe2 2.548739 1_656
