# generated using pymatgen
data_K3H(SeO4)2
_symmetry_space_group_name_H-M   'P 1'
_cell_length_a   8.25216351
_cell_length_b   8.25216351
_cell_length_c   10.34552328
_cell_angle_alpha   77.43093385
_cell_angle_beta   77.43093385
_cell_angle_gamma   42.83042892
_symmetry_Int_Tables_number   1
_chemical_formula_structural   K3H(SeO4)2
_chemical_formula_sum   'K6 H2 Se4 O16'
_cell_volume   465.67967900
_cell_formula_units_Z   2
loop_
 _symmetry_equiv_pos_site_id
 _symmetry_equiv_pos_as_xyz
  1  'x, y, z'
loop_
 _atom_site_type_symbol
 _atom_site_label
 _atom_site_symmetry_multiplicity
 _atom_site_fract_x
 _atom_site_fract_y
 _atom_site_fract_z
 _atom_site_occupancy
  K  K0  1  0.75719500  0.24280500  0.25000000  1
  K  K1  1  0.24280500  0.75719500  0.75000000  1
  K  K2  1  0.53896600  0.07169200  0.65203600  1
  K  K3  1  0.92830800  0.46103400  0.84796400  1
  K  K4  1  0.07169200  0.53896600  0.15203600  1
  K  K5  1  0.46103400  0.92830800  0.34796400  1
  H  H0  1  0.00000000  0.00000000  0.00000000  1
  H  H1  1  0.00000000  0.00000000  0.50000000  1
  Se  Se0  1  0.11236800  0.65508800  0.46133900  1
  Se  Se1  1  0.34491200  0.88763200  0.03866100  1
  Se  Se2  1  0.88763200  0.34491200  0.53866100  1
  Se  Se3  1  0.65508800  0.11236800  0.96133900  1
  O  O0  1  0.41120500  0.33442700  0.88139200  1
  O  O1  1  0.66557300  0.58879500  0.61860800  1
  O  O2  1  0.58879500  0.66557300  0.11860800  1
  O  O3  1  0.33442700  0.41120500  0.38139200  1
  O  O4  1  0.59442600  0.09559100  0.12527500  1
  O  O5  1  0.90440900  0.40557400  0.37472500  1
  O  O6  1  0.40557400  0.90440900  0.87472500  1
  O  O7  1  0.09559100  0.59442600  0.62527500  1
  O  O8  1  0.85056500  0.83220800  0.39967300  1
  O  O9  1  0.16779300  0.14943500  0.10032700  1
  O  O10  1  0.14943500  0.16779300  0.60032700  1
  O  O11  1  0.83220700  0.85056500  0.89967300  1
  O  O12  1  0.16962300  0.82489600  0.43847500  1
  O  O13  1  0.17510400  0.83037700  0.06152500  1
  O  O14  1  0.83037700  0.17510400  0.56152500  1
  O  O15  1  0.82489600  0.16962300  0.93847500  1
loop_
_geom_bond_atom_site_label_1
_geom_bond_atom_site_label_2
_geom_bond_distance
_geom_bond_site_symmetry_2
K0 O2 2.756340 1_555
K0 O3 2.756340 1_555
K0 O5 2.962253 1_555
K0 O4 2.962253 1_555
K0 O8 2.979693 1_545
K0 O9 2.979700 1_655
K1 O1 2.756340 1_555
K1 O0 2.756340 1_555
K1 O7 2.962253 1_555
K1 O6 2.962253 1_555
K1 O11 2.979700 1_455
K1 O10 2.979700 1_565
K2 O10 2.841249 1_555
K2 O6 2.857595 1_545
K2 O7 2.973726 1_555
K2 O14 3.011666 1_555
K2 O8 3.033845 1_545
K2 O0 3.039749 1_555
K2 O11 3.152133 1_545
K2 O7 3.173921 1_645
K2 O3 3.200750 1_555
K2 O1 3.380368 1_545
K3 O11 2.841249 1_555
K3 O7 2.857595 1_655
K3 O6 2.973726 1_555
K3 O15 3.011666 1_555
K3 O9 3.033847 1_656
K3 O1 3.039749 1_555
K3 O10 3.152133 1_655
K3 O6 3.173921 1_645
K3 O2 3.200750 1_556
K3 O0 3.380368 1_655
K4 O9 2.841249 1_555
K4 O5 2.857595 1_455
K4 O4 2.973726 1_555
K4 O13 3.011666 1_555
K4 O11 3.033847 1_454
K4 O3 3.039749 1_555
K4 O8 3.152137 1_455
K4 O4 3.173921 1_465
K4 O0 3.200750 1_554
K4 O2 3.380368 1_455
K5 O8 2.841254 1_555
K5 O4 2.857595 1_565
K5 O5 2.973726 1_555
K5 O12 3.011666 1_555
K5 O10 3.033847 1_565
K5 O2 3.039749 1_555
K5 O9 3.152133 1_565
K5 O5 3.173921 1_465
K5 O1 3.200750 1_555
K5 O3 3.380368 1_565
H0 O13 1.224055 1_545
H0 O15 1.224055 1_454
H1 O12 1.224055 1_545
H1 O14 1.224055 1_455
O0 Se3 1.657708 1_555
O1 Se2 1.657708 1_555
O2 Se1 1.657708 1_555
O3 Se0 1.657708 1_555
O4 Se3 1.666173 1_554
O5 Se2 1.666173 1_555
O6 Se1 1.666173 1_556
O7 Se0 1.666173 1_555
O8 Se0 1.665321 1_655
O9 Se1 1.665322 1_545
O10 Se2 1.665322 1_455
O11 Se3 1.665322 1_565
O12 Se0 1.738093 1_555
O13 Se1 1.738093 1_555
O14 Se2 1.738093 1_555
O15 Se3 1.738093 1_555
