# generated using pymatgen
data_MgCo2(BiO3)4
_symmetry_space_group_name_H-M   'P 1'
_cell_length_a   5.10303856
_cell_length_b   5.10303192
_cell_length_c   10.36559317
_cell_angle_alpha   90.00002316
_cell_angle_beta   90.00004553
_cell_angle_gamma   84.06191324
_symmetry_Int_Tables_number   1
_chemical_formula_structural   MgCo2(BiO3)4
_chemical_formula_sum   'Mg1 Co2 Bi4 O12'
_cell_volume   268.48171451
_cell_formula_units_Z   1
loop_
 _symmetry_equiv_pos_site_id
 _symmetry_equiv_pos_as_xyz
  1  'x, y, z'
loop_
 _atom_site_type_symbol
 _atom_site_label
 _atom_site_symmetry_multiplicity
 _atom_site_fract_x
 _atom_site_fract_y
 _atom_site_fract_z
 _atom_site_occupancy
  Mg  Mg0  1  0.26714118  0.26714118  0.50000000  1
  Co  Co0  1  0.02395548  0.02395548  0.00000000  1
  Co  Co1  1  0.61600543  0.61600543  0.50000000  1
  Bi  Bi0  1  0.97556562  0.97556662  0.30953806  1
  Bi  Bi1  1  0.97556662  0.97556662  0.69046294  1
  Bi  Bi2  1  0.47477408  0.47477508  0.15933931  1
  Bi  Bi3  1  0.47477108  0.47477108  0.84066069  1
  O  O0  1  0.29952306  0.82911831  0.50000000  1
  O  O1  1  0.16601336  0.78995572  0.14462766  1
  O  O2  1  0.16601536  0.78995872  0.85537234  1
  O  O3  1  0.28365711  0.28365411  0.31121000  1
  O  O4  1  0.28365611  0.28365611  0.68878800  1
  O  O5  1  0.28302567  0.28302667  1.00000000  1
  O  O6  1  0.65728423  0.65728423  0.00000000  1
  O  O7  1  0.67200492  0.67200592  0.32178519  1
  O  O8  1  0.67200492  0.67200593  0.67821681  1
  O  O9  1  0.78995672  0.16601336  0.14462766  1
  O  O10  1  0.78995972  0.16601636  0.85537234  1
  O  O11  1  0.82911931  0.29952305  0.50000000  1
loop_
_geom_bond_atom_site_label_1
_geom_bond_atom_site_label_2
_geom_bond_distance
_geom_bond_site_symmetry_2
Mg0 O4 1.960900 1_555
Mg0 O3 1.960921 1_555
Mg0 O11 2.224228 1_455
Mg0 O0 2.224230 1_545
Co0 O5 1.963988 1_554
Co0 O10 2.004927 1_454
Co0 O2 2.004929 1_544
Co0 O9 2.004932 1_455
Co0 O1 2.004934 1_545
Co1 O0 1.851376 1_555
Co1 O11 1.851377 1_555
Co1 O7 1.895456 1_555
Co1 O8 1.895475 1_555
Bi0 O9 2.138504 1_565
Bi0 O1 2.138511 1_655
Bi0 O7 2.304762 1_555
Bi0 O3 2.335659 1_665
Bi0 O11 2.633149 1_565
Bi0 O0 2.633154 1_655
Bi1 O2 2.138498 1_655
Bi1 O10 2.138499 1_565
Bi1 O8 2.304765 1_555
Bi1 O4 2.335659 1_665
Bi1 O11 2.633158 1_565
Bi1 O0 2.633161 1_655
Bi2 O1 2.137372 1_555
Bi2 O9 2.137383 1_555
Bi2 O3 2.139481 1_555
Bi2 O6 2.154589 1_555
Bi2 O5 2.200218 1_554
Bi2 O7 2.251871 1_555
Bi3 O2 2.137380 1_555
Bi3 O10 2.137380 1_555
Bi3 O4 2.139474 1_555
Bi3 O6 2.154604 1_556
Bi3 O5 2.200202 1_555
Bi3 O8 2.251875 1_555
