# generated using pymatgen
data_MgGa4(CuO4)2
_symmetry_space_group_name_H-M   'P 1'
_cell_length_a   6.48271919
_cell_length_b   6.48359766
_cell_length_c   6.48392906
_cell_angle_alpha   120.20083584
_cell_angle_beta   90.31350532
_cell_angle_gamma   59.82937006
_symmetry_Int_Tables_number   1
_chemical_formula_structural   MgGa4(CuO4)2
_chemical_formula_sum   'Mg1 Ga4 Cu2 O8'
_cell_volume   192.14911908
_cell_formula_units_Z   1
loop_
 _symmetry_equiv_pos_site_id
 _symmetry_equiv_pos_as_xyz
  1  'x, y, z'
loop_
 _atom_site_type_symbol
 _atom_site_label
 _atom_site_symmetry_multiplicity
 _atom_site_fract_x
 _atom_site_fract_y
 _atom_site_fract_z
 _atom_site_occupancy
  Mg  Mg0  1  0.24994500  0.50001500  0.25014800  1
  Ga  Ga0  1  0.82200200  0.78442500  0.39302500  1
  Ga  Ga1  1  0.39359900  0.78441600  0.39131200  1
  Ga  Ga2  1  0.39309500  0.21549900  0.82192200  1
  Ga  Ga3  1  0.39141400  0.21554500  0.39356400  1
  Cu  Cu0  1  0.74953600  0.50088000  0.75037800  1
  Cu  Cu1  1  0.00019900  0.99970400  0.99979300  1
  O  O0  1  0.60885000  0.78315800  0.60778400  1
  O  O1  1  0.60800500  0.78316500  0.17531300  1
  O  O2  1  0.13304900  0.73372700  0.60102000  1
  O  O3  1  0.13336500  0.73346200  0.13282300  1
  O  O4  1  0.13287400  0.26627400  0.13319400  1
  O  O5  1  0.60070100  0.26639300  0.13308400  1
  O  O6  1  0.60784000  0.21668100  0.60875600  1
  O  O7  1  0.17552600  0.21665600  0.60788500  1
loop_
_geom_bond_atom_site_label_1
_geom_bond_atom_site_label_2
_geom_bond_distance
_geom_bond_site_symmetry_2
Mg0 O5 1.855022 1_555
Mg0 O4 1.855080 1_555
Mg0 O2 1.855410 1_555
Mg0 O3 1.855561 1_555
Ga0 O0 1.972925 1_555
Ga0 O1 1.973746 1_555
Ga0 O6 1.976058 1_565
Ga0 Mg0 2.263263 1_655
Ga0 O4 2.392409 1_655
Ga0 O2 2.396420 1_655
Ga0 O3 2.415756 1_655
Ga1 O1 1.972812 1_555
Ga1 O0 1.973815 1_555
Ga1 O7 1.975986 1_565
Ga1 Mg0 2.263600 1_555
Ga1 O5 2.391850 1_555
Ga1 O3 2.395090 1_555
Ga1 O2 2.417133 1_555
Ga2 O6 1.972530 1_555
Ga2 O7 1.973272 1_555
Ga2 O0 1.976455 1_545
Ga2 Mg0 2.264508 1_556
Ga2 O3 2.391510 1_556
Ga2 O5 2.395331 1_556
Ga2 O4 2.416223 1_556
Ga3 O7 1.972550 1_555
Ga3 O6 1.973323 1_555
Ga3 O1 1.976625 1_545
Ga3 Mg0 2.263518 1_555
Ga3 O2 2.392496 1_555
Ga3 O4 2.396029 1_555
Ga3 O5 2.415948 1_555
Cu0 O1 2.247085 1_556
Cu0 O0 2.247567 1_555
Cu0 O6 2.252129 1_555
Cu0 O7 2.252902 1_655
Cu1 O2 2.108699 1_555
Cu1 O4 2.111184 1_566
Cu1 O3 2.112108 1_556
Cu1 O5 2.112782 1_466
