# generated using pymatgen
data_Ti2CCl2
_symmetry_space_group_name_H-M   'P 1'
_cell_length_a   3.23379600
_cell_length_b   3.23379508
_cell_length_c   9.25702800
_cell_angle_alpha   90.00000000
_cell_angle_beta   90.00000000
_cell_angle_gamma   119.99998897
_symmetry_Int_Tables_number   1
_chemical_formula_structural   Ti2CCl2
_chemical_formula_sum   'Ti2 C1 Cl2'
_cell_volume   83.83538683
_cell_formula_units_Z   1
loop_
 _symmetry_equiv_pos_site_id
 _symmetry_equiv_pos_as_xyz
  1  'x, y, z'
loop_
 _atom_site_type_symbol
 _atom_site_label
 _atom_site_symmetry_multiplicity
 _atom_site_fract_x
 _atom_site_fract_y
 _atom_site_fract_z
 _atom_site_occupancy
  Ti  Ti0  1  0.33333300  0.66666700  0.61752300  1
  Ti  Ti1  1  0.66666700  0.33333300  0.38247700  1
  C  C0  1  0.00000000  0.00000000  0.50000000  1
  Cl  Cl0  1  0.33333300  0.66666700  0.20025200  1
  Cl  Cl1  1  0.66666700  0.33333300  0.79974800  1
loop_
_geom_bond_atom_site_label_1
_geom_bond_atom_site_label_2
_geom_bond_distance
_geom_bond_site_symmetry_2
C0 Ti0 2.160870 1_545
C0 Ti1 2.160870 1_455
C0 Ti0 2.160873 1_555
C0 Ti1 2.160873 1_445
C0 Ti0 2.160873 1_445
C0 Ti1 2.160873 1_555
Cl0 Ti1 2.516209 1_565
Cl0 Ti1 2.516209 1_455
Cl0 Ti1 2.516213 1_555
Cl1 Ti0 2.516209 1_545
Cl1 Ti0 2.516209 1_655
Cl1 Ti0 2.516213 1_555
