# generated using pymatgen
data_Zr2Nb2Si3(SO8)3
_symmetry_space_group_name_H-M   'P 1'
_cell_length_a   9.02514621
_cell_length_b   8.99898437
_cell_length_c   23.15535880
_cell_angle_alpha   90.73932944
_cell_angle_beta   89.97741930
_cell_angle_gamma   120.02667107
_symmetry_Int_Tables_number   1
_chemical_formula_structural   Zr2Nb2Si3(SO8)3
_chemical_formula_sum   'Zr6 Nb6 Si9 S9 O72'
_cell_volume   1628.04461307
_cell_formula_units_Z   3
loop_
 _symmetry_equiv_pos_site_id
 _symmetry_equiv_pos_as_xyz
  1  'x, y, z'
loop_
 _atom_site_type_symbol
 _atom_site_label
 _atom_site_symmetry_multiplicity
 _atom_site_fract_x
 _atom_site_fract_y
 _atom_site_fract_z
 _atom_site_occupancy
  Zr  Zr0  1  0.99064603  0.00891592  0.35727008  1
  Zr  Zr1  1  0.01383142  0.01309541  0.85416484  1
  Zr  Zr2  1  0.66663477  0.33819807  0.69139473  1
  Zr  Zr3  1  0.67864060  0.34445968  0.18741624  1
  Zr  Zr4  1  0.32007203  0.66639222  0.02366618  1
  Zr  Zr5  1  0.34799988  0.67046335  0.52716224  1
  Nb  Nb0  1  0.98492181  0.01086056  0.64351343  1
  Nb  Nb1  1  0.01128126  0.01648642  0.13841125  1
  Nb  Nb2  1  0.65464372  0.34076237  0.97574981  1
  Nb  Nb3  1  0.67754814  0.33081731  0.48264679  1
  Nb  Nb4  1  0.33348652  0.67219427  0.31088850  1
  Nb  Nb5  1  0.34194022  0.68064398  0.80524786  1
  Si  Si0  1  0.00045696  0.28870125  0.24994822  1
  Si  Si1  1  0.28649293  0.28857113  0.74946282  1
  Si  Si2  1  0.71706202  0.00592253  0.75159081  1
  Si  Si3  1  0.95861882  0.33862930  0.58584610  1
  Si  Si4  1  0.67589236  0.62219439  0.58491394  1
  Si  Si5  1  0.95000757  0.62147671  0.08284063  1
  Si  Si6  1  0.38697911  0.34150723  0.08389337  1
  Si  Si7  1  0.33348678  0.95286198  0.91677475  1
  Si  Si8  1  0.61613170  0.95752251  0.41797829  1
  S  S0  1  0.28614944  0.99849180  0.24983195  1
  S  S1  1  0.71010759  0.71447208  0.25025076  1
  S  S2  1  0.00353374  0.71578143  0.75010435  1
  S  S3  1  0.37697341  0.04928778  0.58339288  1
  S  S4  1  0.66877024  0.04754915  0.08263181  1
  S  S5  1  0.61904095  0.66807039  0.91610212  1
  S  S6  1  0.04169872  0.38080209  0.91637893  1
  S  S7  1  0.33879426  0.38306017  0.41590941  1
  S  S8  1  0.04506290  0.66500246  0.41626537  1
  O  O0  1  0.20618301  0.02116162  0.30219841  1
  O  O1  1  0.81769053  0.79198268  0.30245339  1
  O  O2  1  0.97924156  0.17101885  0.30538983  1
  O  O3  1  0.19941980  0.17236744  0.80582829  1
  O  O4  1  0.97661955  0.79194709  0.80267434  1
  O  O5  1  0.82613957  0.01953480  0.80770959  1
  O  O6  1  0.80238907  0.96558556  0.69336206  1
  O  O7  1  0.16001732  0.18842862  0.69325882  1
  O  O8  1  0.03560770  0.82068016  0.69855056  1
  O  O9  1  0.78582194  0.81952944  0.19906216  1
  O  O10  1  0.02833754  0.18810517  0.19379881  1
  O  O11  1  0.17602207  0.96489609  0.19788696  1
  O  O12  1  0.86380341  0.36130262  0.63955183  1
  O  O13  1  0.48514910  0.12270275  0.63425852  1
  O  O14  1  0.63834895  0.50103754  0.63876591  1
  O  O15  1  0.86568054  0.50520057  0.13936827  1
  O  O16  1  0.64064547  0.12267881  0.13557647  1
  O  O17  1  0.49261471  0.35298302  0.14084155  1
  O  O18  1  0.47448329  0.30179122  0.02639713  1
  O  O19  1  0.82688746  0.52318077  0.02644804  1
  O  O20  1  0.70174431  0.15531466  0.03181288  1
  O  O21  1  0.46160568  0.15761354  0.53041663  1
  O  O22  1  0.69277706  0.52011916  0.52563335  1
  O  O23  1  0.83016638  0.30060856  0.52646893  1
  O  O24  1  0.54159682  0.69004625  0.96864667  1
  O  O25  1  0.15033396  0.45736557  0.96877817  1
  O  O26  1  0.31510504  0.83968616  0.97262552  1
  O  O27  1  0.52378028  0.83499208  0.47097324  1
  O  O28  1  0.30203008  0.45618369  0.46704455  1
  O  O29  1  0.15085426  0.69388543  0.46718908  1
  O  O30  1  0.12894625  0.63658737  0.36299789  1
  O  O31  1  0.49354806  0.85366958  0.35970166  1
  O  O32  1  0.35948296  0.49085813  0.36381040  1
  O  O33  1  0.12119155  0.48629015  0.86558015  1
  O  O34  1  0.36043205  0.85334082  0.86022596  1
  O  O35  1  0.50957737  0.63232731  0.86436752  1
  O  O36  1  0.02626796  0.81550819  0.40481871  1
  O  O37  1  0.80260023  0.97621497  0.40631199  1
  O  O38  1  0.18779749  0.20853246  0.40621013  1
  O  O39  1  0.02020651  0.20759660  0.91013466  1
  O  O40  1  0.17068277  0.97691397  0.90784440  1
  O  O41  1  0.79200371  0.81217518  0.90863961  1
  O  O42  1  0.97287695  0.16314701  0.59115012  1
  O  O43  1  0.20672347  0.03064549  0.58966583  1
  O  O44  1  0.84883857  0.80987594  0.59412812  1
  O  O45  1  0.96739803  0.81085380  0.09830829  1
  O  O46  1  0.82484771  0.02803891  0.09238650  1
  O  O47  1  0.19342469  0.16328299  0.09340673  1
  O  O48  1  0.68524749  0.16078475  0.73975582  1
  O  O49  1  0.47327966  0.31528860  0.74045310  1
  O  O50  1  0.85534637  0.54302458  0.74386492  1
  O  O51  1  0.68525031  0.54083671  0.24373120  1
  O  O52  1  0.83602047  0.30914695  0.24078612  1
  O  O53  1  0.45691849  0.14354226  0.24194663  1
  O  O54  1  0.63550661  0.50725557  0.92403990  1
  O  O55  1  0.86969533  0.36159644  0.92662692  1
  O  O56  1  0.51010645  0.14448554  0.92894882  1
  O  O57  1  0.63436552  0.14725036  0.42662366  1
  O  O58  1  0.49030884  0.36467265  0.42281418  1
  O  O59  1  0.87319307  0.50964588  0.42243617  1
  O  O60  1  0.35846928  0.49800199  0.07105787  1
  O  O61  1  0.13833151  0.64825487  0.07467207  1
  O  O62  1  0.52311844  0.87412258  0.07498235  1
  O  O63  1  0.35671829  0.87765029  0.57316109  1
  O  O64  1  0.51264981  0.64701701  0.57334073  1
  O  O65  1  0.13912006  0.49783767  0.56885890  1
  O  O66  1  0.30106371  0.83791998  0.25897541  1
  O  O67  1  0.53493474  0.69411522  0.26033253  1
  O  O68  1  0.17305757  0.47930871  0.26421564  1
  O  O69  1  0.29988042  0.47636808  0.76466760  1
  O  O70  1  0.15759995  0.69352492  0.75911788  1
  O  O71  1  0.52496893  0.82736562  0.76028336  1
loop_
_geom_bond_atom_site_label_1
_geom_bond_atom_site_label_2
_geom_bond_distance
_geom_bond_site_symmetry_2
Nb0 O6 1.884437 1_545
Nb0 O42 1.884699 1_555
Nb0 O7 1.950429 1_655
Nb0 O44 1.952413 1_545
Nb0 O43 2.289236 1_655
Nb0 O8 2.366987 1_645
Nb1 O47 1.842338 1_555
Nb1 O45 1.914657 1_445
Nb1 O10 1.940313 1_555
Nb1 O46 2.038875 1_455
Nb1 O11 2.243147 1_545
Nb1 O9 2.388882 1_445
Nb2 O18 1.892237 1_556
Nb2 O56 1.908299 1_555
Nb2 O19 1.971606 1_556
Nb2 O54 2.003437 1_555
Nb2 O55 2.176128 1_555
Nb2 O20 2.327504 1_556
Nb3 O23 1.839499 1_555
Nb3 O22 1.906218 1_555
Nb3 O57 1.965786 1_555
Nb3 O21 2.110415 1_555
Nb3 O59 2.205328 1_555
Nb3 O58 2.322909 1_555
Nb4 O31 1.903672 1_555
Nb4 O68 1.927397 1_555
Nb4 O66 2.058653 1_555
Nb4 O67 2.088096 1_555
Nb4 O30 2.093456 1_555
Nb4 O32 2.157458 1_555
Nb5 O71 1.845894 1_555
Nb5 O69 1.914062 1_555
Nb5 O34 1.937325 1_555
Nb5 O70 2.029750 1_555
Nb5 O35 2.242189 1_555
Nb5 O33 2.356563 1_555
O0 S0 1.474134 1_545
O0 Zr0 2.282418 1_455
O1 S1 1.480462 1_555
O1 Zr0 2.178668 1_565
O2 Si0 1.624257 1_655
O2 Zr0 1.943529 1_555
O3 Si1 1.620649 1_555
O3 Zr1 1.936444 1_555
O4 S2 1.468134 1_655
O4 Zr1 2.182898 1_665
O5 Si2 1.596532 1_555
O5 Zr1 2.032536 1_655
O6 Si2 1.676021 1_565
O7 Si1 1.658365 1_555
O8 S2 1.468080 1_555
O9 S1 1.465396 1_555
O10 Si0 1.664503 1_555
O11 S0 1.488905 1_555
O12 Si3 1.577253 1_555
O12 Zr2 2.070096 1_555
O13 S3 1.453334 1_555
O13 Zr2 2.224954 1_555
O14 Si4 1.588546 1_555
O14 Zr2 2.029370 1_555
O15 Si5 1.620165 1_555
O15 Zr3 1.943201 1_555
O16 S4 1.474654 1_555
O16 Zr3 2.189809 1_555
O17 Si6 1.599183 1_555
O17 Zr3 2.029810 1_555
O18 Si6 1.671311 1_555
O19 Si5 1.646175 1_555
O20 S4 1.467675 1_555
O21 S3 1.524265 1_555
O22 Si4 1.690737 1_555
O23 Si3 1.715675 1_555
O24 S5 1.462675 1_555
O24 Zr4 2.290115 1_556
O25 S6 1.487092 1_555
O25 Zr4 2.134545 1_556
O26 Si7 1.613073 1_555
O26 Zr4 1.987040 1_556
O27 Si8 1.590811 1_555
O27 Zr5 2.024617 1_555
O28 S7 1.463962 1_555
O28 Zr5 2.226831 1_555
O29 S8 1.454026 1_555
O29 Zr5 2.350221 1_555
O30 S8 1.531253 1_555
O31 Si8 1.688838 1_555
O32 S7 1.509961 1_555
O33 S6 1.464924 1_555
O34 Si7 1.662294 1_555
O35 S5 1.479008 1_555
O36 S8 1.473991 1_555
O36 Zr0 2.225882 1_465
O37 Si8 1.628171 1_555
O37 Zr0 1.940028 1_565
O38 S7 1.491094 1_555
O38 Zr0 2.104101 1_455
O39 S6 1.476353 1_555
O39 Zr1 2.141788 1_555
O40 Si7 1.602566 1_555
O40 Zr1 2.031759 1_565
O41 S5 1.458741 1_555
O41 Zr1 2.302710 1_665
O42 Si3 1.653417 1_555
O43 S3 1.467189 1_555
O44 Si4 1.639200 1_555
O45 Si5 1.665477 1_555
O46 S4 1.521463 1_555
O47 Si6 1.696234 1_555
O48 Si2 1.584317 1_555
O48 Zr2 2.036135 1_555
O49 Si1 1.593284 1_555
O49 Zr2 2.005635 1_555
O50 S2 1.462850 1_655
O50 Zr2 2.139245 1_555
O51 S1 1.468935 1_555
O51 Zr3 2.159171 1_555
O52 Si0 1.598698 1_655
O52 Zr3 2.027042 1_555
O53 S0 1.450882 1_545
O53 Zr3 2.302966 1_555
O54 S5 1.540222 1_555
O55 S6 1.492731 1_655
O56 Si7 1.682503 1_545
O57 Si8 1.640804 1_545
O58 S7 1.466337 1_555
O59 S8 1.488515 1_655
O60 Si6 1.584723 1_555
O60 Zr4 2.046787 1_555
O61 Si5 1.604268 1_455
O61 Zr4 1.961486 1_555
O62 S4 1.461126 1_565
O62 Zr4 2.186450 1_555
O63 S3 1.477577 1_565
O63 Zr5 2.102123 1_555
O64 Si4 1.619726 1_555
O64 Zr5 1.927927 1_555
O65 Si3 1.593545 1_455
O65 Zr5 2.001417 1_555
O66 S0 1.534110 1_555
O67 S1 1.516065 1_555
O68 Si0 1.670193 1_555
O69 Si1 1.665808 1_555
O70 S2 1.515621 1_555
O71 Si2 1.687643 1_565
