# generated using pymatgen
data_Mn4(PO4)3
_symmetry_space_group_name_H-M   'P 1'
_cell_length_a   6.31950200
_cell_length_b   9.99864400
_cell_length_c   15.21965100
_cell_angle_alpha   90.00000000
_cell_angle_beta   90.00000000
_cell_angle_gamma   90.00000000
_symmetry_Int_Tables_number   1
_chemical_formula_structural   Mn4(PO4)3
_chemical_formula_sum   'Mn16 P12 O48'
_cell_volume   961.67572842
_cell_formula_units_Z   4
loop_
 _symmetry_equiv_pos_site_id
 _symmetry_equiv_pos_as_xyz
  1  'x, y, z'
loop_
 _atom_site_type_symbol
 _atom_site_label
 _atom_site_symmetry_multiplicity
 _atom_site_fract_x
 _atom_site_fract_y
 _atom_site_fract_z
 _atom_site_occupancy
  Mn  Mn0  1  0.85508700  0.56615200  0.38165800  1
  Mn  Mn1  1  0.85508700  0.56615200  0.11834200  1
  Mn  Mn2  1  0.83390500  0.15991700  0.39701500  1
  Mn  Mn3  1  0.83390500  0.15991700  0.10298500  1
  Mn  Mn4  1  0.66609500  0.65991700  0.89701500  1
  Mn  Mn5  1  0.66609500  0.65991700  0.60298500  1
  Mn  Mn6  1  0.64491300  0.06615200  0.88165800  1
  Mn  Mn7  1  0.64491300  0.06615200  0.61834200  1
  Mn  Mn8  1  0.35508700  0.93384800  0.38165800  1
  Mn  Mn9  1  0.35508700  0.93384800  0.11834200  1
  Mn  Mn10  1  0.33390500  0.34008300  0.39701500  1
  Mn  Mn11  1  0.33390500  0.34008300  0.10298500  1
  Mn  Mn12  1  0.16609500  0.84008300  0.89701500  1
  Mn  Mn13  1  0.16609500  0.84008300  0.60298500  1
  Mn  Mn14  1  0.14491300  0.43384800  0.88165800  1
  Mn  Mn15  1  0.14491300  0.43384800  0.61834200  1
  P  P0  1  0.01238100  0.40261500  0.25000000  1
  P  P1  1  0.14776400  0.13501400  0.56719600  1
  P  P2  1  0.14776400  0.13501400  0.93280400  1
  P  P3  1  0.35223600  0.63501400  0.06719600  1
  P  P4  1  0.35223600  0.63501400  0.43280400  1
  P  P5  1  0.48761900  0.90261500  0.75000000  1
  P  P6  1  0.51238100  0.09738500  0.25000000  1
  P  P7  1  0.64776400  0.36498600  0.56719600  1
  P  P8  1  0.64776400  0.36498600  0.93280400  1
  P  P9  1  0.85223600  0.86498600  0.06719600  1
  P  P10  1  0.85223600  0.86498600  0.43280400  1
  P  P11  1  0.98761900  0.59738500  0.75000000  1
  O  O0  1  0.89552300  0.78920600  0.52113300  1
  O  O1  1  0.89552300  0.78920600  0.97886700  1
  O  O2  1  0.90959300  0.35400000  0.16235100  1
  O  O3  1  0.83630800  0.46727400  0.94017900  1
  O  O4  1  0.83630800  0.46727400  0.55982100  1
  O  O5  1  0.80349700  0.75934300  0.36291800  1
  O  O6  1  0.80349700  0.75934300  0.13708200  1
  O  O7  1  0.74848700  0.62721400  0.75000000  1
  O  O8  1  0.75151300  0.12721400  0.25000000  1
  O  O9  1  0.69650300  0.25934300  0.86291800  1
  O  O10  1  0.69650300  0.25934300  0.63708200  1
  O  O11  1  0.66369200  0.96727400  0.44017900  1
  O  O12  1  0.96146300  0.04019100  0.90678800  1
  O  O13  1  0.96146300  0.04019100  0.59321200  1
  O  O14  1  0.96069500  0.55538800  0.25000000  1
  O  O15  1  0.90959300  0.35400000  0.33764900  1
  O  O16  1  0.03853700  0.95980900  0.09321200  1
  O  O17  1  0.03853700  0.95980900  0.40678800  1
  O  O18  1  0.03930500  0.44461200  0.75000000  1
  O  O19  1  0.09040700  0.64600000  0.66235100  1
  O  O20  1  0.09040700  0.64600000  0.83764900  1
  O  O21  1  0.10447700  0.21079400  0.02113300  1
  O  O22  1  0.10447700  0.21079400  0.47886700  1
  O  O23  1  0.16369200  0.53272600  0.05982100  1
  O  O24  1  0.16369200  0.53272600  0.44017900  1
  O  O25  1  0.19650300  0.24065700  0.63708200  1
  O  O26  1  0.19650300  0.24065700  0.86291800  1
  O  O27  1  0.25151300  0.37278600  0.25000000  1
  O  O28  1  0.24848700  0.87278600  0.75000000  1
  O  O29  1  0.66369200  0.96727400  0.05982100  1
  O  O30  1  0.30349700  0.74065700  0.36291800  1
  O  O31  1  0.33630800  0.03272600  0.55982100  1
  O  O32  1  0.33630800  0.03272600  0.94017900  1
  O  O33  1  0.39552300  0.71079400  0.52113300  1
  O  O34  1  0.39552300  0.71079400  0.97886700  1
  O  O35  1  0.40959300  0.14600000  0.16235100  1
  O  O36  1  0.40959300  0.14600000  0.33764900  1
  O  O37  1  0.46069500  0.94461200  0.25000000  1
  O  O38  1  0.46146300  0.45980900  0.59321200  1
  O  O39  1  0.46146300  0.45980900  0.90678800  1
  O  O40  1  0.53853700  0.54019100  0.09321200  1
  O  O41  1  0.53853700  0.54019100  0.40678800  1
  O  O42  1  0.53930500  0.05538800  0.75000000  1
  O  O43  1  0.59040700  0.85400000  0.66235100  1
  O  O44  1  0.59040700  0.85400000  0.83764900  1
  O  O45  1  0.60447700  0.28920600  0.02113300  1
  O  O46  1  0.60447700  0.28920600  0.47886700  1
  O  O47  1  0.30349700  0.74065700  0.13708200  1
loop_
_geom_bond_atom_site_label_1
_geom_bond_atom_site_label_2
_geom_bond_distance
_geom_bond_site_symmetry_2
Mn0 O5 1.979622 1_555
Mn0 O41 2.053148 1_555
Mn0 O14 2.114749 1_555
Mn0 O24 2.169882 1_655
Mn0 O15 2.250979 1_555
Mn1 O6 1.979622 1_555
Mn1 O40 2.053148 1_555
Mn1 O14 2.114749 1_555
Mn1 O23 2.169882 1_655
Mn1 O2 2.250979 1_555
Mn2 O22 2.175864 1_655
Mn2 O15 2.193387 1_555
Mn2 O11 2.301900 1_545
Mn2 O46 2.307629 1_555
Mn2 O8 2.320454 1_555
Mn2 O17 2.386976 1_645
Mn3 O21 2.175864 1_655
Mn3 O2 2.193387 1_555
Mn3 O29 2.301900 1_545
Mn3 O45 2.307629 1_555
Mn3 O8 2.320454 1_555
Mn3 O16 2.386976 1_645
Mn4 O34 2.175864 1_555
Mn4 O44 2.193387 1_555
Mn4 O3 2.301900 1_555
Mn4 O1 2.307629 1_555
Mn4 O7 2.320454 1_555
Mn4 O39 2.386976 1_555
Mn5 O33 2.175864 1_555
Mn5 O43 2.193387 1_555
Mn5 O4 2.301900 1_555
Mn5 O0 2.307629 1_555
Mn5 O7 2.320454 1_555
Mn5 O38 2.386976 1_555
Mn6 O9 1.979622 1_555
Mn6 O12 2.053148 1_555
Mn6 O42 2.114749 1_555
Mn6 O32 2.169882 1_555
Mn6 O44 2.250979 1_545
Mn7 O10 1.979622 1_555
Mn7 O13 2.053148 1_555
Mn7 O42 2.114749 1_555
Mn7 O31 2.169882 1_555
Mn7 O43 2.250979 1_545
Mn8 O30 1.979622 1_555
Mn8 O17 2.053148 1_555
Mn8 O37 2.114749 1_555
Mn8 O11 2.169882 1_555
Mn8 O36 2.250979 1_565
Mn9 O47 1.979622 1_555
Mn9 O16 2.053148 1_555
Mn9 O37 2.114749 1_555
Mn9 O29 2.169882 1_555
Mn9 O35 2.250979 1_565
Mn10 O46 2.175864 1_555
Mn10 O36 2.193387 1_555
Mn10 O24 2.301900 1_555
Mn10 O22 2.307629 1_555
Mn10 O27 2.320454 1_555
Mn10 O41 2.386976 1_555
Mn11 O45 2.175864 1_555
Mn11 O35 2.193387 1_555
Mn11 O23 2.301900 1_555
Mn11 O21 2.307629 1_555
Mn11 O27 2.320454 1_555
Mn11 O40 2.386976 1_555
Mn12 O1 2.175864 1_455
Mn12 O20 2.193387 1_555
Mn12 O32 2.301900 1_565
Mn12 O34 2.307629 1_555
Mn12 O28 2.320454 1_555
Mn12 O12 2.386976 1_465
Mn13 O0 2.175864 1_455
Mn13 O19 2.193387 1_555
Mn13 O31 2.301900 1_565
Mn13 O33 2.307629 1_555
Mn13 O28 2.320454 1_555
Mn13 O13 2.386976 1_465
Mn14 O26 1.979622 1_555
Mn14 O39 2.053148 1_555
Mn14 O18 2.114749 1_555
Mn14 O3 2.169882 1_455
Mn14 O20 2.250979 1_555
Mn15 O25 1.979622 1_555
Mn15 O38 2.053148 1_555
Mn15 O18 2.114749 1_555
Mn15 O4 2.169882 1_455
Mn15 O19 2.250979 1_555
O0 P10 1.567219 1_555
O1 P9 1.567219 1_556
O2 P0 1.561326 1_655
O3 P8 1.574256 1_555
O4 P7 1.574256 1_555
O5 P10 1.530340 1_555
O6 P9 1.530340 1_555
O7 P11 1.540345 1_555
O8 P6 1.540345 1_555
O9 P8 1.530340 1_555
O10 P7 1.530340 1_555
O11 P10 1.574256 1_555
O12 P2 1.562620 1_655
O13 P1 1.562620 1_655
O14 P0 1.562054 1_655
O15 P0 1.561326 1_655
O16 P9 1.562620 1_455
O17 P10 1.562620 1_455
O18 P11 1.562054 1_455
O19 P11 1.561326 1_455
O20 P11 1.561326 1_455
O21 P2 1.567219 1_554
O22 P1 1.567219 1_555
O23 P3 1.574256 1_555
O24 P4 1.574256 1_555
O25 P1 1.530340 1_555
O26 P2 1.530340 1_555
O27 P0 1.540345 1_555
O28 P5 1.540345 1_555
O29 P9 1.574256 1_555
O30 P4 1.530340 1_555
O31 P1 1.574256 1_555
O32 P2 1.574256 1_555
O33 P4 1.567219 1_555
O34 P3 1.567219 1_556
O35 P6 1.561326 1_555
O36 P6 1.561326 1_555
O37 P6 1.562054 1_565
O38 P7 1.562620 1_555
O39 P8 1.562620 1_555
O40 P3 1.562620 1_555
O41 P4 1.562620 1_555
O42 P5 1.562054 1_545
O43 P5 1.561326 1_555
O44 P5 1.561326 1_555
O45 P8 1.567219 1_554
O46 P7 1.567219 1_555
O47 P3 1.530340 1_555
