# generated using pymatgen
data_Mn5Cr2O12
_symmetry_space_group_name_H-M   'P 1'
_cell_length_a   5.20716420
_cell_length_b   5.17443407
_cell_length_c   10.02796710
_cell_angle_alpha   82.92380962
_cell_angle_beta   98.12462148
_cell_angle_gamma   58.28779175
_symmetry_Int_Tables_number   1
_chemical_formula_structural   Mn5Cr2O12
_chemical_formula_sum   'Mn5 Cr2 O12'
_cell_volume   221.20312607
_cell_formula_units_Z   1
loop_
 _symmetry_equiv_pos_site_id
 _symmetry_equiv_pos_as_xyz
  1  'x, y, z'
loop_
 _atom_site_type_symbol
 _atom_site_label
 _atom_site_symmetry_multiplicity
 _atom_site_fract_x
 _atom_site_fract_y
 _atom_site_fract_z
 _atom_site_occupancy
  Mn  Mn0  1  0.07165400  0.07171900  0.24973300  1
  Mn  Mn1  1  0.00805900  0.54208800  0.97822000  1
  Mn  Mn2  1  0.54233500  0.01364400  0.52242000  1
  Mn  Mn3  1  0.41347800  0.41316700  0.25049400  1
  Mn  Mn4  1  0.57784600  0.57138800  0.75004900  1
  Cr  Cr0  1  0.24928400  0.26741400  0.74656600  1
  Cr  Cr1  1  0.74026900  0.74209400  0.25010400  1
  O  O0  1  0.97688200  0.26281900  0.87409700  1
  O  O1  1  0.26864500  0.98156500  0.62669200  1
  O  O2  1  0.16496600  0.34489200  0.35976300  1
  O  O3  1  0.34538900  0.16653300  0.13872500  1
  O  O4  1  0.32466600  0.49461900  0.85390300  1
  O  O5  1  0.51055200  0.31866200  0.64322100  1
  O  O6  1  0.45470000  0.69844300  0.34883800  1
  O  O7  1  0.69434900  0.45236900  0.15165900  1
  O  O8  1  0.59785600  0.84236700  0.86509700  1
  O  O9  1  0.84683300  0.59816900  0.63736000  1
  O  O10  1  0.76874200  0.02459900  0.36552600  1
  O  O11  1  0.02207300  0.77202800  0.13752900  1
loop_
_geom_bond_atom_site_label_1
_geom_bond_atom_site_label_2
_geom_bond_distance
_geom_bond_site_symmetry_2
Mn0 O6 1.900868 1_545
Mn0 O7 1.901329 1_455
Mn0 O2 2.099127 1_555
Mn0 O11 2.122766 1_545
Mn0 O3 2.135582 1_555
Mn0 O10 2.178972 1_455
Mn1 O8 1.911872 1_455
Mn1 O0 1.943000 1_455
Mn1 O3 2.072213 1_556
Mn1 O11 2.121264 1_556
Mn1 O4 2.136134 1_555
Mn2 O9 1.937447 1_545
Mn2 O1 1.943990 1_545
Mn2 O5 2.058880 1_555
Mn2 O2 2.079438 1_555
Mn2 O10 2.107376 1_555
Mn2 O6 2.675016 1_545
Mn3 O10 1.926272 1_555
Mn3 O3 1.930383 1_555
Mn3 O11 1.932782 1_555
Mn3 O2 1.945777 1_555
Mn3 O6 1.956932 1_555
Mn3 O7 1.958204 1_555
Mn4 O5 1.923881 1_555
Mn4 O0 1.925208 1_555
Mn4 O4 1.953757 1_555
Mn4 O1 1.955722 1_555
Mn4 O8 1.956045 1_555
Mn4 O9 1.967461 1_555
Cr0 O4 1.836391 1_555
Cr0 O9 1.907614 1_455
Cr0 O5 1.924908 1_555
Cr0 O1 1.989598 1_545
Cr0 O8 2.023323 1_545
Cr0 O0 2.046648 1_455
Cr1 O7 1.988469 1_555
Cr1 O6 1.989133 1_555
Cr1 O10 2.023548 1_565
Cr1 O11 2.028734 1_655
Cr1 O3 2.073113 1_565
Cr1 O2 2.073991 1_655
