# generated using pymatgen
data_Ca9Zn4Sb9
_symmetry_space_group_name_H-M   'P 1'
_cell_length_a   4.53529749
_cell_length_b   12.49026830
_cell_length_c   21.84935085
_cell_angle_alpha   90.00000000
_cell_angle_beta   90.00000000
_cell_angle_gamma   90.00000000
_symmetry_Int_Tables_number   1
_chemical_formula_structural   Ca9Zn4Sb9
_chemical_formula_sum   'Ca18 Zn8 Sb18'
_cell_volume   1237.70197953
_cell_formula_units_Z   2
loop_
 _symmetry_equiv_pos_site_id
 _symmetry_equiv_pos_as_xyz
  1  'x, y, z'
loop_
 _atom_site_type_symbol
 _atom_site_label
 _atom_site_symmetry_multiplicity
 _atom_site_fract_x
 _atom_site_fract_y
 _atom_site_fract_z
 _atom_site_occupancy
  Ca  Ca0  1  0.50000000  0.00000000  0.00000000  1
  Ca  Ca1  1  0.50000000  0.50000000  0.50000000  1
  Ca  Ca2  1  0.00000000  0.86632792  0.86260343  1
  Ca  Ca3  1  0.00000000  0.13367208  0.13739657  1
  Ca  Ca4  1  -0.00000000  0.36632792  0.63739657  1
  Ca  Ca5  1  0.00000000  0.63367208  0.36260343  1
  Ca  Ca6  1  -0.00000000  0.56428780  0.90895988  1
  Ca  Ca7  1  0.00000000  0.43571220  0.09104012  1
  Ca  Ca8  1  -0.00000000  0.06428780  0.59104012  1
  Ca  Ca9  1  -0.00000000  0.93571220  0.40895988  1
  Ca  Ca10  1  0.00000000  0.62234876  0.73690853  1
  Ca  Ca11  1  -0.00000000  0.37765124  0.26309147  1
  Ca  Ca12  1  0.00000000  0.12234876  0.76309147  1
  Ca  Ca13  1  -0.00000000  0.87765124  0.23690853  1
  Ca  Ca14  1  0.50000000  0.78730202  0.60235951  1
  Ca  Ca15  1  0.50000000  0.21269798  0.39764049  1
  Ca  Ca16  1  0.50000000  0.28730202  0.89764049  1
  Ca  Ca17  1  0.50000000  0.71269798  0.10235951  1
  Zn  Zn0  1  0.50000000  0.72304472  0.95407692  1
  Zn  Zn1  1  0.50000000  0.27695528  0.04592308  1
  Zn  Zn2  1  0.50000000  0.22304472  0.54592308  1
  Zn  Zn3  1  0.50000000  0.77695528  0.45407692  1
  Zn  Zn4  1  0.50000000  0.88310158  0.76292383  1
  Zn  Zn5  1  0.50000000  0.11689842  0.23707617  1
  Zn  Zn6  1  0.50000000  0.38310158  0.73707617  1
  Zn  Zn7  1  0.50000000  0.61689842  0.26292383  1
  Sb  Sb0  1  0.50000000  0.50000000  0.00000000  1
  Sb  Sb1  1  0.50000000  0.00000000  0.50000000  1
  Sb  Sb2  1  0.00000000  0.69491733  0.50483687  1
  Sb  Sb3  1  0.00000000  0.30508267  0.49516313  1
  Sb  Sb4  1  0.00000000  0.19491733  0.99516313  1
  Sb  Sb5  1  0.00000000  0.80508267  0.00483687  1
  Sb  Sb6  1  0.00000000  0.88020285  0.69564089  1
  Sb  Sb7  1  0.00000000  0.11979715  0.30435911  1
  Sb  Sb8  1  0.00000000  0.38020285  0.80435911  1
  Sb  Sb9  1  0.00000000  0.61979715  0.19564089  1
  Sb  Sb10  1  0.50000000  0.54025876  0.64717417  1
  Sb  Sb11  1  0.50000000  0.45974124  0.35282583  1
  Sb  Sb12  1  0.50000000  0.04025876  0.85282583  1
  Sb  Sb13  1  0.50000000  0.95974124  0.14717417  1
  Sb  Sb14  1  0.50000000  0.69227473  0.83247747  1
  Sb  Sb15  1  0.50000000  0.30772527  0.16752253  1
  Sb  Sb16  1  0.50000000  0.19227473  0.66752253  1
  Sb  Sb17  1  0.50000000  0.80772527  0.33247747  1
loop_
_geom_bond_atom_site_label_1
_geom_bond_atom_site_label_2
_geom_bond_distance
_geom_bond_site_symmetry_2
Ca0 Sb13 3.254738 1_545
Ca0 Sb12 3.254738 1_554
Ca0 Sb5 3.328743 1_545
Ca0 Sb4 3.328743 1_654
Ca0 Sb4 3.328743 1_554
Ca0 Sb5 3.328743 1_645
Ca0 Zn1 3.601829 1_555
Ca0 Zn0 3.601829 1_544
Ca1 Sb10 3.254738 1_555
Ca1 Sb11 3.254738 1_555
Ca1 Sb3 3.328743 1_655
Ca1 Sb2 3.328743 1_555
Ca1 Sb2 3.328743 1_655
Ca1 Sb3 3.328743 1_555
Ca1 Zn2 3.601829 1_555
Ca1 Zn3 3.601829 1_555
Ca2 Sb12 3.147599 1_565
Ca2 Sb12 3.147599 1_465
Ca2 Zn4 3.151115 1_555
Ca2 Zn4 3.151115 1_455
Ca2 Sb5 3.200473 1_556
Ca2 Sb14 3.209619 1_455
Ca2 Sb14 3.209619 1_555
Ca2 Zn0 3.512778 1_555
Ca2 Zn0 3.512778 1_455
Ca3 Sb13 3.147599 1_545
Ca3 Sb13 3.147599 1_445
Ca3 Zn5 3.151115 1_455
Ca3 Zn5 3.151115 1_555
Ca3 Sb4 3.200473 1_554
Ca3 Sb15 3.209619 1_455
Ca3 Sb15 3.209619 1_555
Ca3 Zn1 3.512778 1_455
Ca3 Zn1 3.512778 1_555
Ca4 Sb10 3.147599 1_455
Ca4 Sb10 3.147599 1_555
Ca4 Zn6 3.151115 1_455
Ca4 Zn6 3.151115 1_555
Ca4 Sb3 3.200473 1_555
Ca4 Sb16 3.209619 1_555
Ca4 Sb16 3.209619 1_455
Ca4 Zn2 3.512778 1_455
Ca4 Zn2 3.512778 1_555
Ca5 Sb11 3.147599 1_455
Ca5 Sb11 3.147599 1_555
Ca5 Zn7 3.151115 1_555
Ca5 Zn7 3.151115 1_455
Ca5 Sb2 3.200473 1_555
Ca5 Sb17 3.209619 1_455
Ca5 Sb17 3.209619 1_555
Ca5 Zn3 3.512778 1_555
Ca5 Zn3 3.512778 1_455
Ca6 Sb0 3.121503 1_456
Ca6 Sb0 3.121503 1_556
Ca6 Zn0 3.169534 1_455
Ca6 Zn0 3.169534 1_555
Ca6 Sb14 3.238869 1_455
Ca6 Sb14 3.238869 1_555
Ca6 Sb8 3.241908 1_555
Ca7 Sb0 3.121503 1_455
Ca7 Sb0 3.121503 1_555
Ca7 Zn1 3.169534 1_455
Ca7 Zn1 3.169534 1_555
Ca7 Sb15 3.238869 1_555
Ca7 Sb15 3.238869 1_455
Ca7 Sb9 3.241908 1_555
Ca8 Sb1 3.121503 1_455
Ca8 Sb1 3.121503 1_555
Ca8 Zn2 3.169534 1_555
Ca8 Zn2 3.169534 1_455
Ca8 Sb16 3.238869 1_555
Ca8 Sb16 3.238869 1_455
Ca8 Sb6 3.241908 1_545
Ca9 Sb1 3.121503 1_565
Ca9 Sb1 3.121503 1_465
Ca9 Zn3 3.169534 1_555
Ca9 Zn3 3.169534 1_455
Ca9 Sb17 3.238869 1_455
Ca9 Sb17 3.238869 1_555
Ca9 Sb7 3.241908 1_565
Ca10 Sb10 3.168221 1_455
Ca10 Sb10 3.168221 1_555
Ca10 Sb14 3.203949 1_455
Ca10 Sb14 3.203949 1_555
Ca10 Sb6 3.344504 1_555
Ca10 Sb8 3.364424 1_555
Ca11 Sb11 3.168221 1_555
Ca11 Sb11 3.168221 1_455
Ca11 Sb15 3.203949 1_455
Ca11 Sb15 3.203949 1_555
Ca11 Sb7 3.344504 1_555
Ca11 Sb9 3.364424 1_555
Ca12 Sb12 3.168221 1_555
Ca12 Sb12 3.168221 1_455
Ca12 Sb16 3.203949 1_555
Ca12 Sb16 3.203949 1_455
Ca12 Sb8 3.344504 1_555
Ca12 Sb6 3.364424 1_545
Ca13 Sb13 3.168221 1_455
Ca13 Sb13 3.168221 1_555
Ca13 Sb17 3.203949 1_455
Ca13 Sb17 3.203949 1_555
Ca13 Sb9 3.344504 1_555
Ca13 Sb7 3.364424 1_565
Ca14 Sb10 3.237272 1_555
Ca14 Zn3 3.242455 1_555
Ca14 Sb6 3.262309 1_555
Ca14 Sb6 3.262309 1_655
Ca14 Sb2 3.318746 1_655
Ca14 Sb2 3.318746 1_555
Ca14 Sb1 3.472707 1_565
Ca15 Sb11 3.237272 1_555
Ca15 Zn2 3.242455 1_555
Ca15 Sb7 3.262309 1_655
Ca15 Sb7 3.262309 1_555
Ca15 Sb3 3.318746 1_555
Ca15 Sb3 3.318746 1_655
Ca15 Sb1 3.472707 1_555
Ca16 Sb12 3.237272 1_555
Ca16 Zn1 3.242455 1_556
Ca16 Sb8 3.262309 1_555
Ca16 Sb8 3.262309 1_655
Ca16 Sb4 3.318746 1_655
Ca16 Sb4 3.318746 1_555
Ca16 Sb0 3.472707 1_556
Ca17 Sb13 3.237272 1_555
Ca17 Zn0 3.242455 1_554
Ca17 Sb9 3.262309 1_655
Ca17 Sb9 3.262309 1_555
Ca17 Sb5 3.318746 1_555
Ca17 Sb5 3.318746 1_655
Ca17 Sb0 3.472707 1_555
Sb0 Zn1 2.961075 1_555
Sb0 Zn0 2.961075 1_554
Sb1 Zn3 2.961075 1_545
Sb1 Zn2 2.961075 1_555
Sb2 Zn3 2.724377 1_555
Sb2 Zn3 2.724377 1_455
Sb3 Zn2 2.724377 1_555
Sb3 Zn2 2.724377 1_455
Sb4 Zn1 2.724377 1_456
Sb4 Zn1 2.724377 1_556
Sb5 Zn0 2.724377 1_554
Sb5 Zn0 2.724377 1_454
Sb6 Zn4 2.702721 1_455
Sb6 Zn4 2.702721 1_555
Sb7 Zn5 2.702721 1_455
Sb7 Zn5 2.702721 1_555
Sb8 Zn6 2.702721 1_455
Sb8 Zn6 2.702721 1_555
Sb9 Zn7 2.702721 1_455
Sb9 Zn7 2.702721 1_555
Sb10 Zn6 2.776975 1_555
Sb11 Zn7 2.776975 1_555
Sb12 Zn4 2.776975 1_545
Sb13 Zn5 2.776975 1_565
Sb14 Zn0 2.684522 1_555
Sb14 Zn4 2.826741 1_555
Sb15 Zn1 2.684522 1_555
Sb15 Zn5 2.826741 1_555
Sb16 Zn2 2.684522 1_555
Sb16 Zn6 2.826741 1_555
Sb17 Zn3 2.684522 1_555
Sb17 Zn7 2.826741 1_555
