# generated using pymatgen
data_Na6Y4Ti4Si5S7O48
_symmetry_space_group_name_H-M   'P 1'
_cell_length_a   18.06239067
_cell_length_b   8.99791997
_cell_length_c   23.15105535
_cell_angle_alpha   90.00469715
_cell_angle_beta   89.79542928
_cell_angle_gamma   119.92113651
_symmetry_Int_Tables_number   1
_chemical_formula_structural   Na6Y4Ti4Si5S7O48
_chemical_formula_sum   'Na18 Y12 Ti12 Si15 S21 O144'
_cell_volume   3261.06726659
_cell_formula_units_Z   3
loop_
 _symmetry_equiv_pos_site_id
 _symmetry_equiv_pos_as_xyz
  1  'x, y, z'
loop_
 _atom_site_type_symbol
 _atom_site_label
 _atom_site_symmetry_multiplicity
 _atom_site_fract_x
 _atom_site_fract_y
 _atom_site_fract_z
 _atom_site_occupancy
  Na  Na0  1  0.99715907  0.62556588  0.25677039  1
  Na  Na1  1  0.50113779  0.62717616  0.25014905  1
  Na  Na2  1  0.00153981  0.38194565  0.74785808  1
  Na  Na3  1  0.49708915  0.36021801  0.75400689  1
  Na  Na4  1  0.66454217  0.30895685  0.92062816  1
  Na  Na5  1  0.16531122  0.01062283  0.43337725  1
  Na  Na6  1  0.00026038  0.99618187  0.51040205  1
  Na  Na7  1  0.49936802  0.98295051  0.50030752  1
  Na  Na8  1  0.00147581  0.01187138  0.99261691  1
  Na  Na9  1  0.50154550  0.00779297  0.00625936  1
  Na  Na10  1  0.32965428  0.32118415  0.84112733  1
  Na  Na11  1  0.82731886  0.32803131  0.82067681  1
  Na  Na12  1  0.34285016  0.34972871  0.32906122  1
  Na  Na13  1  0.82484357  0.33289294  0.34642733  1
  Na  Na14  1  0.19089422  0.65995541  0.16182911  1
  Na  Na15  1  0.67296516  0.65536337  0.15900940  1
  Na  Na16  1  0.17619115  0.69577524  0.66151357  1
  Na  Na17  1  0.68596252  0.69384638  0.66980795  1
  Y  Y0  1  0.99411193  0.98908448  0.36051951  1
  Y  Y1  1  0.49778439  0.00514766  0.85744883  1
  Y  Y2  1  0.32196508  0.33474075  0.67758882  1
  Y  Y3  1  0.82579382  0.31364056  0.68628414  1
  Y  Y4  1  0.33095236  0.34533804  0.18419371  1
  Y  Y5  1  0.82016824  0.31120713  0.17787636  1
  Y  Y6  1  0.83282372  0.32193436  0.98905296  1
  Y  Y7  1  0.33470323  0.35044298  0.49155297  1
  Y  Y8  1  0.16919612  0.66461267  0.31380263  1
  Y  Y9  1  0.67251962  0.65433573  0.31390489  1
  Y  Y10  1  0.17403813  0.69208770  0.81393226  1
  Y  Y11  1  0.66599390  0.65819085  0.80998409  1
  Ti  Ti0  1  0.49877299  0.02037933  0.35131245  1
  Ti  Ti1  1  0.99883162  0.97669454  0.85023773  1
  Ti  Ti2  1  0.99837095  0.97918394  0.65062385  1
  Ti  Ti3  1  0.51335129  0.00213610  0.64046816  1
  Ti  Ti4  1  0.00478025  0.01974131  0.13667892  1
  Ti  Ti5  1  0.49686468  0.01710715  0.14950310  1
  Ti  Ti6  1  0.32368349  0.31311162  0.98097777  1
  Ti  Ti7  1  0.82440941  0.33626906  0.48174668  1
  Ti  Ti8  1  0.16200846  0.66462011  0.01520740  1
  Ti  Ti9  1  0.66164339  0.65029179  0.02303831  1
  Ti  Ti10  1  0.16139571  0.67288654  0.52550289  1
  Ti  Ti11  1  0.66107088  0.65528925  0.51717060  1
  Si  Si0  1  0.36130461  0.72758776  0.25078946  1
  Si  Si1  1  0.49922658  0.29306208  0.24958441  1
  Si  Si2  1  0.64148419  0.28473205  0.74874617  1
  Si  Si3  1  0.00212093  0.70756630  0.74917130  1
  Si  Si4  1  0.86210980  0.99672739  0.75092383  1
  Si  Si5  1  0.17341323  0.02901871  0.58007143  1
  Si  Si6  1  0.68877454  0.02852426  0.58035360  1
  Si  Si7  1  0.33391598  0.65686335  0.58380662  1
  Si  Si8  1  0.82923531  0.01443753  0.08288173  1
  Si  Si9  1  0.18804238  0.34819555  0.08127349  1
  Si  Si10  1  0.67322977  0.32043992  0.07991356  1
  Si  Si11  1  0.51521588  0.37990912  0.91968399  1
  Si  Si12  1  0.16117774  0.96143088  0.91960889  1
  Si  Si13  1  0.66187820  0.36159677  0.41915162  1
  Si  Si14  1  0.01712600  0.64836201  0.41835026  1
  S  S0  1  0.13976166  0.99905961  0.24772261  1
  S  S1  1  0.63994856  0.00659211  0.25247473  1
  S  S2  1  0.85973804  0.71470477  0.24393047  1
  S  S3  1  0.99935020  0.28713958  0.24517457  1
  S  S4  1  0.14008446  0.27373960  0.75264249  1
  S  S5  1  0.49722655  0.70876756  0.74583415  1
  S  S6  1  0.35705920  0.00424310  0.74441708  1
  S  S7  1  0.49087050  0.33711123  0.58507518  1
  S  S8  1  0.98124889  0.33113590  0.58038232  1
  S  S9  1  0.83010852  0.63080678  0.57919388  1
  S  S10  1  0.48239205  0.63417651  0.08059954  1
  S  S11  1  0.99096757  0.64499756  0.08699956  1
  S  S12  1  0.32973047  0.02939665  0.08022355  1
  S  S13  1  0.30905278  0.65336530  0.92240386  1
  S  S14  1  0.81644127  0.67366849  0.91963299  1
  S  S15  1  0.02203039  0.37384170  0.91635783  1
  S  S16  1  0.66781468  0.95779538  0.91973193  1
  S  S17  1  0.31741238  0.96314952  0.41877478  1
  S  S18  1  0.80848669  0.96421805  0.42171925  1
  S  S19  1  0.16982285  0.37310433  0.41932142  1
  S  S20  1  0.52092514  0.66976812  0.41587372  1
  O  O0  1  0.10186442  0.01098430  0.30340187  1
  O  O1  1  0.59685302  0.01699434  0.30586049  1
  O  O2  1  0.41994296  0.83361371  0.30840884  1
  O  O3  1  0.90382146  0.79393499  0.29924028  1
  O  O4  1  0.50053630  0.18530103  0.30796689  1
  O  O5  1  0.99446358  0.19409895  0.29857088  1
  O  O6  1  0.09722461  0.17643559  0.80608081  1
  O  O7  1  0.60035790  0.19783247  0.81146382  1
  O  O8  1  0.48755681  0.78670969  0.79916865  1
  O  O9  1  0.00248340  0.81693727  0.80777347  1
  O  O10  1  0.39905986  0.00943887  0.80026296  1
  O  O11  1  0.92113514  0.00462373  0.80861047  1
  O  O12  1  0.40529246  0.00153780  0.69448509  1
  O  O13  1  0.91628585  0.99330200  0.69273790  1
  O  O14  1  0.09270662  0.18839249  0.69928051  1
  O  O15  1  0.58063286  0.15765156  0.69493806  1
  O  O16  1  0.00811595  0.82443937  0.69186518  1
  O  O17  1  0.49701856  0.80151951  0.69312538  1
  O  O18  1  0.41524467  0.83533896  0.19240093  1
  O  O19  1  0.90986793  0.81626168  0.19430712  1
  O  O20  1  0.00177249  0.19164577  0.19336415  1
  O  O21  1  0.50500368  0.18898063  0.19215792  1
  O  O22  1  0.08713434  0.99400007  0.19834071  1
  O  O23  1  0.59258080  0.99710303  0.19918730  1
  O  O24  1  0.45261201  0.36329553  0.63796562  1
  O  O25  1  0.95408211  0.37108496  0.63611895  1
  O  O26  1  0.23771110  0.10943720  0.63371246  1
  O  O27  1  0.74209030  0.08297586  0.63863915  1
  O  O28  1  0.30785084  0.52967808  0.63907971  1
  O  O29  1  0.81401616  0.52848573  0.63170046  1
  O  O30  1  0.45366990  0.53845159  0.13681810  1
  O  O31  1  0.95293628  0.54251968  0.14002982  1
  O  O32  1  0.31380701  0.09980429  0.13319818  1
  O  O33  1  0.81009849  0.09015886  0.14064767  1
  O  O34  1  0.23822510  0.39023295  0.14130446  1
  O  O35  1  0.73620391  0.36892858  0.13478239  1
  O  O36  1  0.24010029  0.31104081  0.03061484  1
  O  O37  1  0.71346806  0.29248794  0.02088957  1
  O  O38  1  0.42414312  0.53465831  0.03379241  1
  O  O39  1  0.93540221  0.56804080  0.03647731  1
  O  O40  1  0.34298473  0.14087805  0.02961754  1
  O  O41  1  0.86044206  0.14571178  0.02902778  1
  O  O42  1  0.21365339  0.13475756  0.52038573  1
  O  O43  1  0.74256823  0.17124837  0.52924171  1
  O  O44  1  0.36105158  0.58260802  0.52858702  1
  O  O45  1  0.84346706  0.54638094  0.52802246  1
  O  O46  1  0.43680421  0.31061165  0.53411046  1
  O  O47  1  0.92450659  0.31675399  0.53273623  1
  O  O48  1  0.25778260  0.66966797  0.97010781  1
  O  O49  1  0.77509052  0.69222391  0.97193099  1
  O  O50  1  0.07590589  0.47176766  0.96786751  1
  O  O51  1  0.58844305  0.50578337  0.96766505  1
  O  O52  1  0.15293639  0.82819917  0.97310414  1
  O  O53  1  0.66986488  0.86678166  0.97138491  1
  O  O54  1  0.27577376  0.86099797  0.47062643  1
  O  O55  1  0.75956386  0.84561120  0.46909555  1
  O  O56  1  0.16806127  0.46545003  0.47025579  1
  O  O57  1  0.65196261  0.47523656  0.47213151  1
  O  O58  1  0.09158301  0.67511115  0.46550982  1
  O  O59  1  0.57365303  0.67686896  0.46671692  1
  O  O60  1  0.04768164  0.62621945  0.35341744  1
  O  O61  1  0.56171659  0.65707584  0.36134502  1
  O  O62  1  0.26367318  0.88335022  0.36663327  1
  O  O63  1  0.76628821  0.89835902  0.36541649  1
  O  O64  1  0.17475745  0.46249729  0.36448314  1
  O  O65  1  0.68795195  0.47428182  0.36062567  1
  O  O66  1  0.06355969  0.46842323  0.86251233  1
  O  O67  1  0.54494395  0.46692968  0.85609157  1
  O  O68  1  0.18699883  0.89976663  0.86164175  1
  O  O69  1  0.67207295  0.87672640  0.86552645  1
  O  O70  1  0.26570547  0.63217616  0.86655206  1
  O  O71  1  0.76297059  0.64483213  0.86787017  1
  O  O72  1  0.01571768  0.83186562  0.42064917  1
  O  O73  1  0.51388405  0.82618539  0.41540487  1
  O  O74  1  0.40287586  0.97663521  0.41189559  1
  O  O75  1  0.89486076  0.98005244  0.42162940  1
  O  O76  1  0.09081173  0.19863533  0.41839761  1
  O  O77  1  0.57664467  0.17170130  0.41158983  1
  O  O78  1  0.01508393  0.20367676  0.91626688  1
  O  O79  1  0.51285062  0.19461644  0.92444837  1
  O  O80  1  0.07590608  0.97967634  0.91337047  1
  O  O81  1  0.58824041  0.97194706  0.92117991  1
  O  O82  1  0.39389649  0.80968611  0.92334001  1
  O  O83  1  0.90225667  0.83131068  0.91313746  1
  O  O84  1  0.50485625  0.18932524  0.58991229  1
  O  O85  1  0.98866275  0.17478974  0.58454618  1
  O  O86  1  0.07987195  0.01317643  0.59215932  1
  O  O87  1  0.59230311  0.01035969  0.58741651  1
  O  O88  1  0.41700829  0.84750972  0.59761310  1
  O  O89  1  0.90778485  0.80393828  0.58504812  1
  O  O90  1  0.48966344  0.80490542  0.08567230  1
  O  O91  1  0.00553849  0.82273226  0.09424195  1
  O  O92  1  0.40764887  0.01220195  0.08634133  1
  O  O93  1  0.91556246  0.99137345  0.09653446  1
  O  O94  1  0.08982251  0.17232698  0.09005500  1
  O  O95  1  0.57972165  0.14859075  0.09313270  1
  O  O96  1  0.34944363  0.16306128  0.74475007  1
  O  O97  1  0.86346253  0.17838301  0.75068569  1
  O  O98  1  0.22719885  0.29567874  0.75203835  1
  O  O99  1  0.73604133  0.31097136  0.74593295  1
  O  O100  1  0.42459762  0.52716302  0.74394964  1
  O  O101  1  0.91802638  0.52356240  0.74862065  1
  O  O102  1  0.35878427  0.54305539  0.25076121  1
  O  O103  1  0.85233741  0.54164610  0.24378442  1
  O  O104  1  0.41338995  0.30552652  0.24957978  1
  O  O105  1  0.92479738  0.31519505  0.24325775  1
  O  O106  1  0.22733386  0.14590000  0.24474853  1
  O  O107  1  0.72719200  0.15949841  0.25214436  1
  O  O108  1  0.31890378  0.50060031  0.93047433  1
  O  O109  1  0.82752556  0.52014986  0.92370636  1
  O  O110  1  0.41985420  0.35437707  0.93648520  1
  O  O111  1  0.93809719  0.36352908  0.92130368  1
  O  O112  1  0.24665365  0.15079082  0.93363461  1
  O  O113  1  0.74213278  0.13951776  0.91872654  1
  O  O114  1  0.32768794  0.13803128  0.42230826  1
  O  O115  1  0.81974229  0.13760446  0.42915870  1
  O  O116  1  0.24421925  0.34250005  0.41829716  1
  O  O117  1  0.74725382  0.34236335  0.43273068  1
  O  O118  1  0.43560685  0.51221107  0.41932745  1
  O  O119  1  0.92144552  0.48620842  0.43366614  1
  O  O120  1  0.16832269  0.50334422  0.06466976  1
  O  O121  1  0.65725036  0.48602530  0.07094568  1
  O  O122  1  0.07620613  0.65893733  0.07769767  1
  O  O123  1  0.57087393  0.66146014  0.07105305  1
  O  O124  1  0.25475057  0.85290882  0.07068451  1
  O  O125  1  0.74727036  0.82496584  0.07004087  1
  O  O126  1  0.15625382  0.82976907  0.57142296  1
  O  O127  1  0.66897042  0.83495271  0.56045982  1
  O  O128  1  0.24806866  0.67265390  0.56844003  1
  O  O129  1  0.75485926  0.65633079  0.56902079  1
  O  O130  1  0.07092458  0.47996573  0.56972762  1
  O  O131  1  0.57626117  0.49712754  0.57646188  1
  O  O132  1  0.14168616  0.83447429  0.24732756  1
  O  O133  1  0.64630215  0.84751509  0.25439155  1
  O  O134  1  0.26750676  0.71009374  0.25045381  1
  O  O135  1  0.77431032  0.70039943  0.24376904  1
  O  O136  1  0.07807791  0.46020726  0.24408881  1
  O  O137  1  0.58266755  0.48537923  0.24886041  1
  O  O138  1  0.14576484  0.44470067  0.75476048  1
  O  O139  1  0.63770466  0.46287559  0.74250529  1
  O  O140  1  0.08678792  0.68667019  0.74847025  1
  O  O141  1  0.57773005  0.70174730  0.74615479  1
  O  O142  1  0.27064352  0.84827785  0.74395285  1
  O  O143  1  0.76907636  0.82839289  0.75167402  1
loop_
_geom_bond_atom_site_label_1
_geom_bond_atom_site_label_2
_geom_bond_distance
_geom_bond_site_symmetry_2
Na0 O132 2.344478 1_655
Na0 O103 2.353333 1_555
Na0 O60 2.418335 1_655
Na0 O105 2.442677 1_555
Na0 O136 2.569549 1_655
Na0 O31 2.814329 1_555
Na0 O3 2.939395 1_555
Na1 O102 2.289671 1_555
Na1 O133 2.372994 1_555
Na1 O137 2.381482 1_555
Na1 O104 2.512460 1_555
Na1 O30 2.754866 1_555
Na1 O61 2.760981 1_555
Na2 O97 2.240733 1_455
Na2 O138 2.380367 1_555
Na2 O140 2.382726 1_555
Na2 O101 2.411814 1_455
Na2 O25 2.714499 1_455
Na2 O66 2.838546 1_555
Na3 O139 2.242703 1_555
Na3 O96 2.364177 1_555
Na3 O100 2.447359 1_555
Na3 O67 2.537881 1_555
Na3 O141 2.670404 1_555
Na3 O24 2.810861 1_555
Na3 O10 2.942069 1_555
Na4 O79 2.399904 1_555
Na4 O37 2.517148 1_556
Na4 O113 2.534088 1_555
Na4 O109 2.589048 1_555
Na4 O81 2.631650 1_545
Na4 O7 2.755898 1_555
Na4 O71 2.900185 1_555
Na4 O51 2.937555 1_555
Na5 O42 2.259823 1_555
Na5 O72 2.375868 1_545
Na5 O114 2.573378 1_555
Na5 O116 2.611765 1_555
Na5 O76 2.658454 1_555
Na5 O58 2.724558 1_545
Na6 O86 2.339604 1_565
Na6 O89 2.421999 1_455
Na6 O85 2.430207 1_465
Na6 O72 2.643605 1_555
Na6 O76 2.744786 1_565
Na6 O75 2.760692 1_455
Na7 O73 2.507345 1_555
Na7 O87 2.560595 1_565
Na7 O77 2.581940 1_565
Na7 O88 2.634554 1_555
Na7 O74 2.675261 1_555
Na7 O84 2.752923 1_565
Na8 O80 2.372346 1_545
Na8 O78 2.395314 1_555
Na8 O83 2.520991 1_445
Na8 O94 2.728785 1_556
Na8 O93 2.813870 1_446
Na8 O91 2.926347 1_546
Na9 O95 2.424679 1_555
Na9 O79 2.471867 1_554
Na9 O92 2.521882 1_555
Na9 O90 2.523029 1_545
Na9 O81 2.630114 1_544
Na9 O82 2.685456 1_544
Na10 O112 2.620956 1_555
Na10 O110 2.675327 1_555
Na10 O108 2.689204 1_555
Na10 O98 2.708277 1_555
Na10 O96 2.762536 1_555
Na10 O100 2.870489 1_555
Na11 O99 2.346034 1_555
Na11 O101 2.380721 1_555
Na11 O97 2.394573 1_555
Na11 O113 2.787358 1_555
Na11 O109 2.944595 1_555
Na11 O111 2.988045 1_555
Na12 O104 2.378263 1_555
Na12 O102 2.427373 1_555
Na12 O118 2.625343 1_555
Na12 O116 2.702613 1_555
Na12 O106 2.781744 1_555
Na12 O114 2.799948 1_555
Na13 O117 2.462218 1_555
Na13 O115 2.569517 1_555
Na13 O119 2.578772 1_555
Na13 O107 2.755224 1_555
Na13 O103 2.912609 1_555
Na13 O105 3.040668 1_555
Na14 O134 2.392795 1_555
Na14 O120 2.577676 1_555
Na14 O124 2.604349 1_555
Na14 O136 2.707133 1_555
Na14 O122 2.845154 1_555
Na14 O132 2.924570 1_555
Na14 O34 2.985544 1_555
Na15 O121 2.476073 1_555
Na15 O125 2.511992 1_555
Na15 O135 2.578972 1_555
Na15 O137 2.610394 1_555
Na15 O123 2.770845 1_555
Na15 O133 2.986613 1_555
Na16 O142 2.474564 1_555
Na16 O126 2.524351 1_555
Na16 O140 2.551855 1_555
Na16 O128 2.573163 1_555
Na16 O130 2.871609 1_555
Na16 O138 2.969810 1_555
Na17 O143 2.349103 1_555
Na17 O139 2.468681 1_555
Na17 O141 2.657984 1_555
Na17 O129 2.739565 1_555
Na17 O131 2.874110 1_555
Na17 O127 2.917137 1_555
O0 S0 1.486146 1_545
O0 Y0 2.274734 1_445
O1 S1 1.485939 1_555
O1 Ti0 2.070535 1_555
O2 Si0 1.677262 1_555
O2 Ti0 1.860314 1_565
O3 S2 1.490877 1_555
O3 Y0 2.216965 1_555
O4 Si1 1.670606 1_555
O4 Ti0 1.778482 1_555
O5 S3 1.470532 1_555
O5 Y0 2.334205 1_545
O6 S4 1.487810 1_555
O6 Ti1 2.057791 1_445
O7 Si2 1.638438 1_555
O7 Y1 2.086525 1_555
O8 S5 1.472235 1_555
O8 Y1 2.314488 1_565
O9 Si3 1.674089 1_555
O9 Ti1 1.769484 1_455
O10 S6 1.490264 1_555
O10 Y1 2.240446 1_555
O11 Si4 1.691112 1_545
O11 Ti1 1.822888 1_545
O12 S6 1.452529 1_555
O12 Ti3 2.312037 1_555
O13 Si4 1.671455 1_555
O13 Ti2 1.828263 1_555
O14 S4 1.483249 1_555
O14 Ti2 2.128219 1_445
O15 Si2 1.680212 1_555
O15 Ti3 1.827385 1_555
O16 Si3 1.662331 1_555
O16 Ti2 1.768396 1_455
O17 S5 1.479493 1_555
O17 Ti3 2.073210 1_565
O18 Si0 1.662810 1_555
O18 Ti5 1.849074 1_565
O19 S2 1.463564 1_555
O19 Ti4 2.218983 1_665
O20 S3 1.488589 1_455
O20 Ti4 2.049553 1_555
O21 Si1 1.658848 1_555
O21 Ti5 1.778322 1_555
O22 S0 1.475551 1_555
O22 Ti4 2.159427 1_565
O23 S1 1.481843 1_565
O23 Ti5 2.160809 1_565
O24 S7 1.479427 1_555
O24 Y2 2.419885 1_555
O25 S8 1.485394 1_555
O25 Y3 2.402368 1_555
O26 Si5 1.608214 1_555
O26 Y2 2.095349 1_555
O27 Si6 1.589564 1_555
O27 Y3 2.165937 1_555
O28 Si7 1.620865 1_555
O28 Y2 2.093900 1_555
O29 S9 1.463032 1_555
O29 Y3 2.406618 1_555
O30 S10 1.501518 1_555
O30 Y4 2.296966 1_555
O31 S11 1.480422 1_555
O31 Y5 2.420023 1_555
O32 S12 1.472177 1_555
O32 Y4 2.385440 1_555
O33 Si8 1.613591 1_555
O33 Y5 2.090905 1_555
O34 Si9 1.600948 1_555
O34 Y4 2.154349 1_555
O35 Si10 1.616449 1_555
O35 Y5 2.088504 1_555
O36 Si9 1.636166 1_555
O36 Ti6 1.886711 1_554
O37 Si10 1.622942 1_555
O37 Y6 2.163324 1_554
O38 S10 1.466683 1_555
O38 Ti6 2.273396 1_554
O39 S11 1.473020 1_555
O39 Y6 2.337324 1_554
O40 S12 1.481468 1_555
O40 Ti6 2.081669 1_554
O41 Si8 1.611956 1_555
O41 Y6 2.100529 1_554
O42 Si5 1.626654 1_555
O42 Y7 2.179254 1_555
O43 Si6 1.655508 1_555
O43 Ti7 1.843349 1_555
O44 Si7 1.625736 1_555
O44 Y7 2.082385 1_555
O45 S9 1.489771 1_555
O45 Ti7 2.047821 1_555
O46 S7 1.475992 1_555
O46 Y7 2.274337 1_555
O47 S8 1.469572 1_555
O47 Ti7 2.241687 1_555
O48 S13 1.492311 1_555
O48 Ti8 1.998381 1_556
O49 S14 1.472944 1_555
O49 Ti9 2.225461 1_556
O50 S15 1.515959 1_555
O50 Ti8 1.987608 1_556
O51 Si11 1.667912 1_555
O51 Ti9 1.838204 1_556
O52 Si12 1.677502 1_555
O52 Ti8 1.839932 1_556
O53 S16 1.460391 1_555
O53 Ti9 2.226463 1_556
O54 S17 1.468192 1_555
O54 Ti10 2.289148 1_555
O55 S18 1.474878 1_555
O55 Ti11 2.069584 1_555
O56 S19 1.451848 1_555
O56 Ti10 2.314501 1_555
O57 Si13 1.662212 1_555
O57 Ti11 1.863885 1_555
O58 Si14 1.657149 1_555
O58 Ti10 1.886061 1_555
O59 S20 1.497973 1_555
O59 Ti11 2.052874 1_555
O60 Si14 1.645546 1_555
O60 Y8 2.237644 1_555
O61 S20 1.492256 1_555
O61 Y9 2.290381 1_555
O62 S17 1.492593 1_555
O62 Y8 2.223873 1_555
O63 S18 1.479027 1_555
O63 Y9 2.327205 1_555
O64 S19 1.481403 1_555
O64 Y8 2.208517 1_555
O65 Si13 1.614002 1_555
O65 Y9 2.079748 1_555
O66 S15 1.482412 1_555
O66 Y10 2.296759 1_555
O67 Si11 1.626036 1_555
O67 Y11 2.260863 1_555
O68 Si12 1.606210 1_555
O68 Y10 2.081305 1_555
O69 S16 1.472399 1_555
O69 Y11 2.305926 1_555
O70 S13 1.476333 1_555
O70 Y10 2.328310 1_555
O71 S14 1.481351 1_555
O71 Y11 2.259519 1_555
O72 Si14 1.664829 1_555
O72 Y0 2.155529 1_455
O73 S20 1.475036 1_555
O73 Ti0 2.410080 1_565
O74 S17 1.494791 1_555
O74 Ti0 2.103564 1_565
O75 S18 1.494159 1_555
O75 Y0 2.249118 1_555
O76 S19 1.505582 1_555
O76 Y0 2.265433 1_445
O77 Si13 1.642538 1_555
O77 Ti0 1.970483 1_555
O78 S15 1.472568 1_555
O78 Ti1 2.449239 1_445
O79 Si11 1.650045 1_555
O79 Y1 2.219499 1_555
O80 Si12 1.635208 1_555
O80 Ti1 2.013034 1_455
O81 S16 1.505129 1_555
O81 Y1 2.332350 1_565
O82 S13 1.475543 1_555
O82 Y1 2.372541 1_565
O83 S14 1.497393 1_555
O83 Ti1 2.140168 1_555
O84 S7 1.476476 1_555
O84 Ti3 2.118908 1_555
O85 S8 1.481329 1_555
O85 Ti2 2.403944 1_545
O86 Si5 1.646108 1_555
O86 Ti2 1.905071 1_445
O87 Si6 1.674402 1_555
O87 Ti3 1.851982 1_555
O88 Si7 1.652957 1_555
O88 Ti3 1.882837 1_565
O89 S9 1.494833 1_555
O89 Ti2 2.216265 1_555
O90 S10 1.479786 1_555
O90 Ti5 2.366331 1_565
O91 S11 1.495103 1_455
O91 Ti4 2.032639 1_565
O92 S12 1.497800 1_555
O92 Ti5 2.163976 1_555
O93 Si8 1.703133 1_565
O93 Ti4 1.768079 1_665
O94 Si9 1.699892 1_555
O94 Ti4 1.814959 1_555
O95 Si10 1.651751 1_555
O95 Ti5 1.887465 1_555
O96 S6 1.502401 1_555
O96 Y2 2.412669 1_555
O97 Si4 1.622483 1_545
O97 Y3 2.236225 1_555
O98 S4 1.484929 1_555
O98 Y2 2.324448 1_555
O99 Si2 1.604348 1_555
O99 Y3 2.116799 1_555
O100 S5 1.501626 1_555
O100 Y2 2.369066 1_555
O101 Si3 1.593686 1_655
O101 Y3 2.302900 1_555
O102 Si0 1.638175 1_555
O102 Y4 2.214860 1_555
O103 S2 1.494992 1_555
O103 Y5 2.401872 1_555
O104 Si1 1.609297 1_555
O104 Y4 2.277119 1_555
O105 S3 1.489493 1_555
O105 Y5 2.411789 1_555
O106 S0 1.471986 1_545
O106 Y4 2.306427 1_555
O107 S1 1.487690 1_555
O107 Y5 2.309275 1_555
O108 S13 1.483334 1_555
O108 Ti6 2.089698 1_555
O109 S14 1.494374 1_555
O109 Y6 2.377092 1_555
O110 Si11 1.664754 1_555
O110 Ti6 1.886832 1_555
O111 S15 1.475975 1_655
O111 Y6 2.341936 1_555
O112 Si12 1.664737 1_545
O112 Ti6 1.803802 1_555
O113 S16 1.512018 1_545
O113 Y6 2.316152 1_555
O114 S17 1.491977 1_545
O114 Y7 2.449126 1_555
O115 S18 1.479441 1_545
O115 Ti7 2.129502 1_555
O116 S19 1.500354 1_555
O116 Y7 2.335748 1_555
O117 Si13 1.666290 1_555
O117 Ti7 1.822201 1_555
O118 S20 1.486839 1_555
O118 Y7 2.359751 1_555
O119 Si14 1.649682 1_655
O119 Ti7 1.938682 1_555
O120 Si9 1.649425 1_555
O120 Ti8 1.896422 1_555
O121 Si10 1.666063 1_555
O121 Ti9 1.817609 1_555
O122 S11 1.495827 1_455
O122 Ti8 2.098192 1_555
O123 S10 1.506457 1_555
O123 Ti9 2.021156 1_555
O124 S12 1.503756 1_565
O124 Ti8 2.123616 1_555
O125 Si8 1.634564 1_565
O125 Ti9 1.906067 1_555
O126 Si5 1.672255 1_565
O126 Ti10 1.805908 1_555
O127 Si6 1.659286 1_565
O127 Ti11 1.846287 1_555
O128 Si7 1.665793 1_555
O128 Ti10 1.858321 1_555
O129 S9 1.506417 1_555
O129 Ti11 2.075928 1_555
O130 S8 1.520219 1_455
O130 Ti10 1.972406 1_555
O131 S7 1.508024 1_555
O131 Ti11 2.016569 1_555
O132 S0 1.498594 1_555
O132 Y8 2.390571 1_555
O133 S1 1.492601 1_565
O133 Y9 2.443394 1_555
O134 Si0 1.621494 1_555
O134 Y8 2.174422 1_555
O135 S2 1.483044 1_555
O135 Y9 2.325339 1_555
O136 S3 1.496121 1_455
O136 Y8 2.386411 1_555
O137 Si1 1.632249 1_555
O137 Y9 2.183661 1_555
O138 S4 1.490587 1_555
O138 Y10 2.441879 1_555
O139 Si2 1.644435 1_555
O139 Y11 2.213490 1_555
O140 Si3 1.631261 1_555
O140 Y10 2.173287 1_555
O141 S5 1.486647 1_555
O141 Y11 2.349285 1_555
O142 S6 1.490214 1_565
O142 Y10 2.275594 1_555
O143 Si4 1.605891 1_555
O143 Y11 2.184533 1_555
