# generated using pymatgen
data_Sr2MgCdWO6
_symmetry_space_group_name_H-M   'P 1'
_cell_length_a   6.47591528
_cell_length_b   6.56059041
_cell_length_c   6.23295931
_cell_angle_alpha   124.32664038
_cell_angle_beta   123.89063961
_cell_angle_gamma   85.84628406
_symmetry_Int_Tables_number   1
_chemical_formula_structural   Sr2MgCdWO6
_chemical_formula_sum   'Sr2 Mg1 Cd1 W1 O6'
_cell_volume   169.84826520
_cell_formula_units_Z   1
loop_
 _symmetry_equiv_pos_site_id
 _symmetry_equiv_pos_as_xyz
  1  'x, y, z'
loop_
 _atom_site_type_symbol
 _atom_site_label
 _atom_site_symmetry_multiplicity
 _atom_site_fract_x
 _atom_site_fract_y
 _atom_site_fract_z
 _atom_site_occupancy
  Sr  Sr0  1  0.70298500  0.38955700  0.60048000  1
  Sr  Sr1  1  0.10250400  0.78907700  0.39952000  1
  Mg  Mg0  1  0.44735100  0.76011100  0.00000000  1
  Cd  Cd0  1  0.53573700  0.33815800  0.00000000  1
  W  W0  1  0.00630700  0.02084100  0.00000000  1
  O  O0  1  0.73100100  0.85214900  0.00000000  1
  O  O1  1  0.14750300  0.73268900  0.00000000  1
  O  O2  1  0.87495500  0.31465200  0.00000000  1
  O  O3  1  0.33324800  0.08587700  0.00000000  1
  O  O4  1  0.28398700  0.31239400  0.54071100  1
  O  O5  1  0.74327600  0.77168300  0.45928900  1
loop_
_geom_bond_atom_site_label_1
_geom_bond_atom_site_label_2
_geom_bond_distance
_geom_bond_site_symmetry_2
Mg0 O1 1.963039 1_555
Mg0 O0 1.974705 1_555
Mg0 O3 2.210187 1_565
Mg0 O4 2.351868 1_554
Mg0 O5 2.351868 1_555
Cd0 O3 2.184792 1_555
Cd0 O2 2.190982 1_555
Cd0 O5 2.273986 1_555
Cd0 O4 2.273986 1_554
O0 W0 2.165467 1_665
O0 Sr1 2.548909 1_655
O0 Sr0 2.548911 1_554
O1 W0 2.039475 1_565
O1 Sr0 2.485458 1_454
O1 Sr1 2.485462 1_555
O2 W0 2.049774 1_655
O2 Sr1 2.427117 1_655
O2 Sr0 2.427118 1_554
O3 W0 2.189893 1_555
O3 Sr1 2.449018 1_544
O3 Sr0 2.449019 1_555
O4 W0 2.172522 1_555
O4 Sr0 2.572266 1_555
O5 W0 2.172522 1_666
O5 Sr1 2.572260 1_655
