# generated using pymatgen
data_Ba(YS2)2
_symmetry_space_group_name_H-M   'P 1'
_cell_length_a   4.05201593
_cell_length_b   12.30207801
_cell_length_c   14.56308398
_cell_angle_alpha   90.00000000
_cell_angle_beta   90.00000000
_cell_angle_gamma   90.00000000
_symmetry_Int_Tables_number   1
_chemical_formula_structural   Ba(YS2)2
_chemical_formula_sum   'Ba4 Y8 S16'
_cell_volume   725.94375686
_cell_formula_units_Z   4
loop_
 _symmetry_equiv_pos_site_id
 _symmetry_equiv_pos_as_xyz
  1  'x, y, z'
loop_
 _atom_site_type_symbol
 _atom_site_label
 _atom_site_symmetry_multiplicity
 _atom_site_fract_x
 _atom_site_fract_y
 _atom_site_fract_z
 _atom_site_occupancy
  Ba  Ba0  1  0.25000000  0.75765293  0.83828848  1
  Ba  Ba1  1  0.75000000  0.24234707  0.16171152  1
  Ba  Ba2  1  0.25000000  0.25765293  0.66171152  1
  Ba  Ba3  1  0.75000000  0.74234707  0.33828848  1
  Y  Y0  1  0.25000000  0.92124009  0.10171975  1
  Y  Y1  1  0.75000000  0.07875991  0.89828025  1
  Y  Y2  1  0.25000000  0.42124009  0.39828025  1
  Y  Y3  1  0.75000000  0.57875991  0.60171975  1
  Y  Y4  1  0.25000000  0.93284993  0.60879479  1
  Y  Y5  1  0.75000000  0.06715007  0.39120521  1
  Y  Y6  1  0.25000000  0.43284993  0.89120521  1
  Y  Y7  1  0.75000000  0.56715007  0.10879479  1
  S  S0  1  0.75000000  0.79275093  0.66306089  1
  S  S1  1  0.25000000  0.20724907  0.33693911  1
  S  S2  1  0.75000000  0.29275093  0.83693911  1
  S  S3  1  0.25000000  0.70724907  0.16306089  1
  S  S4  1  0.75000000  0.87617312  0.97709404  1
  S  S5  1  0.25000000  0.12382688  0.02290596  1
  S  S6  1  0.75000000  0.37617312  0.52290596  1
  S  S7  1  0.25000000  0.62382688  0.47709404  1
  S  S8  1  0.25000000  0.91918414  0.42327059  1
  S  S9  1  0.75000000  0.08081586  0.57672941  1
  S  S10  1  0.25000000  0.41918414  0.07672941  1
  S  S11  1  0.75000000  0.58081586  0.92327059  1
  S  S12  1  0.25000000  0.52229549  0.71690635  1
  S  S13  1  0.75000000  0.47770451  0.28309365  1
  S  S14  1  0.25000000  0.02229549  0.78309365  1
  S  S15  1  0.75000000  0.97770451  0.21690635  1
loop_
_geom_bond_atom_site_label_1
_geom_bond_atom_site_label_2
_geom_bond_distance
_geom_bond_site_symmetry_2
Ba0 S4 3.211979 1_455
Ba0 S4 3.211979 1_555
Ba0 S11 3.220094 1_555
Ba0 S11 3.220094 1_455
Ba0 S0 3.286807 1_455
Ba0 S0 3.286807 1_555
Ba0 S14 3.353414 1_565
Ba0 S12 3.392346 1_555
Ba1 S5 3.211979 1_555
Ba1 S5 3.211979 1_655
Ba1 S10 3.220094 1_555
Ba1 S10 3.220094 1_655
Ba1 S1 3.286807 1_655
Ba1 S1 3.286807 1_555
Ba1 S15 3.353414 1_545
Ba1 S13 3.392346 1_555
Ba2 S6 3.211979 1_555
Ba2 S6 3.211979 1_455
Ba2 S9 3.220094 1_555
Ba2 S9 3.220094 1_455
Ba2 S2 3.286807 1_555
Ba2 S2 3.286807 1_455
Ba2 S12 3.353414 1_555
Ba2 S14 3.392346 1_555
Ba3 S7 3.211979 1_555
Ba3 S7 3.211979 1_655
Ba3 S8 3.220094 1_555
Ba3 S8 3.220094 1_655
Ba3 S3 3.286807 1_555
Ba3 S3 3.286807 1_655
Ba3 S13 3.353414 1_555
Ba3 S15 3.392346 1_555
S0 Y4 2.774840 1_555
S0 Y4 2.774840 1_655
S0 Y3 2.779973 1_555
S1 Y5 2.774840 1_555
S1 Y5 2.774840 1_455
S1 Y2 2.779973 1_555
S2 Y6 2.774840 1_655
S2 Y6 2.774840 1_555
S2 Y1 2.779973 1_555
S3 Y7 2.774840 1_455
S3 Y7 2.774840 1_555
S3 Y0 2.779973 1_555
S4 Y1 2.743835 1_565
S4 Y0 2.775982 1_656
S4 Y0 2.775982 1_556
S5 Y0 2.743835 1_545
S5 Y1 2.775982 1_554
S5 Y1 2.775982 1_454
S6 Y3 2.743835 1_555
S6 Y2 2.775982 1_655
S6 Y2 2.775982 1_555
S7 Y2 2.743835 1_555
S7 Y3 2.775982 1_555
S7 Y3 2.775982 1_455
S8 Y4 2.707030 1_555
S8 Y5 2.763371 1_565
S8 Y5 2.763371 1_465
S9 Y5 2.707030 1_555
S9 Y4 2.763371 1_645
S9 Y4 2.763371 1_545
S10 Y6 2.707030 1_554
S10 Y7 2.763371 1_555
S10 Y7 2.763371 1_455
S11 Y7 2.707030 1_556
S11 Y6 2.763371 1_655
S11 Y6 2.763371 1_555
S12 Y3 2.720502 1_555
S12 Y3 2.720502 1_455
S12 Y6 2.766572 1_555
S13 Y2 2.720502 1_655
S13 Y2 2.720502 1_555
S13 Y7 2.766572 1_555
S14 Y1 2.720502 1_455
S14 Y1 2.720502 1_555
S14 Y4 2.766572 1_545
S15 Y0 2.720502 1_655
S15 Y0 2.720502 1_555
S15 Y5 2.766572 1_565
