# generated using pymatgen
data_Sm4Bi3
_symmetry_space_group_name_H-M   'P 1'
_cell_length_a   8.27213705
_cell_length_b   8.27213646
_cell_length_c   8.27213797
_cell_angle_alpha   109.47121420
_cell_angle_beta   109.47121273
_cell_angle_gamma   109.47122278
_symmetry_Int_Tables_number   1
_chemical_formula_structural   Sm4Bi3
_chemical_formula_sum   'Sm8 Bi6'
_cell_volume   435.74393933
_cell_formula_units_Z   2
loop_
 _symmetry_equiv_pos_site_id
 _symmetry_equiv_pos_as_xyz
  1  'x, y, z'
loop_
 _atom_site_type_symbol
 _atom_site_label
 _atom_site_symmetry_multiplicity
 _atom_site_fract_x
 _atom_site_fract_y
 _atom_site_fract_z
 _atom_site_occupancy
  Sm  Sm0  1  0.14341629  0.14341629  0.14341629  1
  Sm  Sm1  1  0.85658371  0.50000000  -0.00000000  1
  Sm  Sm2  1  0.00000000  0.85658371  0.50000000  1
  Sm  Sm3  1  0.50000000  -0.00000000  0.85658371  1
  Sm  Sm4  1  0.00000000  0.35658371  0.50000000  1
  Sm  Sm5  1  0.50000000  -0.00000000  0.35658371  1
  Sm  Sm6  1  0.35658371  0.50000000  -0.00000000  1
  Sm  Sm7  1  0.64341629  0.64341629  0.64341629  1
  Bi  Bi0  1  0.25000000  0.62500000  0.37500000  1
  Bi  Bi1  1  0.37500000  0.25000000  0.62500000  1
  Bi  Bi2  1  0.12500000  0.75000000  0.87500000  1
  Bi  Bi3  1  0.87500000  0.12500000  0.75000000  1
  Bi  Bi4  1  0.62500000  0.37500000  0.25000000  1
  Bi  Bi5  1  0.75000000  0.87500000  0.12500000  1
loop_
_geom_bond_atom_site_label_1
_geom_bond_atom_site_label_2
_geom_bond_distance
_geom_bond_site_symmetry_2
Bi0 Sm5 3.189202 1_565
Bi0 Sm4 3.189202 1_555
Bi0 Sm7 3.189203 1_555
Bi0 Sm1 3.189203 1_455
Bi0 Sm2 3.429576 1_555
Bi0 Sm0 3.429576 1_555
Bi0 Sm6 3.429577 1_555
Bi0 Sm3 3.429577 1_565
Bi1 Sm7 3.189202 1_555
Bi1 Sm2 3.189202 1_545
Bi1 Sm5 3.189203 1_555
Bi1 Sm6 3.189203 1_556
Bi1 Sm3 3.429576 1_555
Bi1 Sm4 3.429577 1_555
Bi1 Sm1 3.429577 1_556
Bi1 Sm0 3.429577 1_555
Bi2 Sm1 3.189202 1_456
Bi2 Sm3 3.189202 1_565
Bi2 Sm0 3.189203 1_566
Bi2 Sm4 3.189203 1_555
Bi2 Sm6 3.429576 1_556
Bi2 Sm2 3.429577 1_555
Bi2 Sm7 3.429577 1_455
Bi2 Sm5 3.429577 1_566
Bi3 Sm1 3.189203 1_556
Bi3 Sm2 3.189203 1_645
Bi3 Sm0 3.189203 1_656
Bi3 Sm5 3.189203 1_555
Bi3 Sm7 3.429576 1_545
Bi3 Sm4 3.429576 1_655
Bi3 Sm3 3.429576 1_555
Bi3 Sm6 3.429577 1_656
Bi4 Sm6 3.189203 1_555
Bi4 Sm4 3.189203 1_655
Bi4 Sm7 3.189203 1_555
Bi4 Sm3 3.189203 1_554
Bi4 Sm5 3.429576 1_555
Bi4 Sm1 3.429576 1_555
Bi4 Sm0 3.429577 1_555
Bi4 Sm2 3.429577 1_655
Bi5 Sm0 3.189202 1_665
Bi5 Sm6 3.189202 1_555
Bi5 Sm3 3.189203 1_564
Bi5 Sm2 3.189203 1_655
Bi5 Sm1 3.429576 1_555
Bi5 Sm5 3.429577 1_565
Bi5 Sm4 3.429577 1_665
Bi5 Sm7 3.429577 1_554
