# generated using pymatgen
data_Na2Hf4Zr4Si5S7O48
_symmetry_space_group_name_H-M   'P 1'
_cell_length_a   18.01517741
_cell_length_b   9.01278911
_cell_length_c   23.42663263
_cell_angle_alpha   89.94267722
_cell_angle_beta   89.99866546
_cell_angle_gamma   120.08052928
_symmetry_Int_Tables_number   1
_chemical_formula_structural   Na2Hf4Zr4Si5S7O48
_chemical_formula_sum   'Na6 Hf12 Zr12 Si15 S21 O144'
_cell_volume   3291.43260022
_cell_formula_units_Z   3
loop_
 _symmetry_equiv_pos_site_id
 _symmetry_equiv_pos_as_xyz
  1  'x, y, z'
loop_
 _atom_site_type_symbol
 _atom_site_label
 _atom_site_symmetry_multiplicity
 _atom_site_fract_x
 _atom_site_fract_y
 _atom_site_fract_z
 _atom_site_occupancy
  Na  Na0  1  0.99450423  0.99964288  0.49896040  1
  Na  Na1  1  0.49351486  0.99175152  0.99265339  1
  Na  Na2  1  0.34234114  0.35021915  0.83525787  1
  Na  Na3  1  0.83336341  0.34245735  0.82930148  1
  Na  Na4  1  0.33599608  0.32846896  0.33108237  1
  Na  Na5  1  0.83618924  0.33254999  0.33982096  1
  Hf  Hf0  1  0.49853744  0.00506134  0.35789452  1
  Hf  Hf1  1  0.99762708  0.99128453  0.85748975  1
  Hf  Hf2  1  0.50255556  0.99375215  0.64755293  1
  Hf  Hf3  1  0.00207925  0.99856471  0.14365493  1
  Hf  Hf4  1  0.33720880  0.34997232  0.68613569  1
  Hf  Hf5  1  0.83195169  0.32382692  0.18344929  1
  Hf  Hf6  1  0.16781089  0.65509823  0.01628325  1
  Hf  Hf7  1  0.66113628  0.66297118  0.02463934  1
  Hf  Hf8  1  0.16164039  0.66113539  0.52712210  1
  Hf  Hf9  1  0.66690255  0.68133420  0.51815449  1
  Hf  Hf10  1  0.66130427  0.66597133  0.31341294  1
  Hf  Hf11  1  0.16289610  0.65727596  0.81231644  1
  Zr  Zr0  1  0.00070430  0.98950753  0.35682302  1
  Zr  Zr1  1  0.49904523  -0.00010738  0.85241769  1
  Zr  Zr2  1  0.00000669  0.99644417  0.64784223  1
  Zr  Zr3  1  0.49884068  0.00326967  0.14667019  1
  Zr  Zr4  1  0.83940883  0.34725808  0.69023923  1
  Zr  Zr5  1  0.34053055  0.33160125  0.18944736  1
  Zr  Zr6  1  0.34183045  0.35703895  0.97590314  1
  Zr  Zr7  1  0.83995151  0.32517285  0.97827069  1
  Zr  Zr8  1  0.34091590  0.35504183  0.48134368  1
  Zr  Zr9  1  0.84034462  0.32418970  0.47804556  1
  Zr  Zr10  1  0.15991656  0.67432173  0.30999245  1
  Zr  Zr11  1  0.65457167  0.64330105  0.80662889  1
  Si  Si0  1  0.14438130  0.00837960  0.24899183  1
  Si  Si1  1  0.50367823  0.29143028  0.25178627  1
  Si  Si2  1  0.64411957  0.28065625  0.74858519  1
  Si  Si3  1  0.00359241  0.71521792  0.75194875  1
  Si  Si4  1  0.49783398  0.71127458  0.75070152  1
  Si  Si5  1  0.97759210  0.32562233  0.58501058  1
  Si  Si6  1  0.33482055  0.63282715  0.58438790  1
  Si  Si7  1  0.47827308  0.62871047  0.08440065  1
  Si  Si8  1  0.83386946  0.03773521  0.08358812  1
  Si  Si9  1  0.31195356  0.67115791  0.91451151  1
  Si  Si10  1  0.02356917  0.37563726  0.91495063  1
  Si  Si11  1  0.52406949  0.37287534  0.91830888  1
  Si  Si12  1  0.81006067  0.95205979  0.41454271  1
  Si  Si13  1  0.02315956  0.66557079  0.41888972  1
  Si  Si14  1  0.52204470  0.66903719  0.41552052  1
  S  S0  1  0.64546521  0.00390819  0.25063033  1
  S  S1  1  0.35612517  0.71231445  0.25196578  1
  S  S2  1  0.85501359  0.70806278  0.24875894  1
  S  S3  1  0.99808486  0.28650264  0.24896072  1
  S  S4  1  0.14468469  0.28588253  0.75089480  1
  S  S5  1  0.35361153  0.00049238  0.74871246  1
  S  S6  1  0.85696360  0.00023217  0.75193408  1
  S  S7  1  0.47902970  0.33287020  0.58369952  1
  S  S8  1  0.19005698  0.04627715  0.58317389  1
  S  S9  1  0.68885265  0.04544633  0.58346872  1
  S  S10  1  0.83081491  0.62156371  0.58212903  1
  S  S11  1  0.97796748  0.62204283  0.08380164  1
  S  S12  1  0.33035437  0.03952888  0.08229104  1
  S  S13  1  0.18867540  0.33388318  0.08397065  1
  S  S14  1  0.69033253  0.33497122  0.08302379  1
  S  S15  1  0.81005819  0.66586351  0.91712473  1
  S  S16  1  0.16617840  0.95181499  0.91661035  1
  S  S17  1  0.66748269  0.95455764  0.91730434  1
  S  S18  1  0.30973465  0.95379390  0.41682873  1
  S  S19  1  0.16771953  0.38067438  0.41675614  1
  S  S20  1  0.66639655  0.38106383  0.41665216  1
  O  O0  1  0.09725107  0.03134208  0.30507932  1
  O  O1  1  0.60556520  0.03085242  0.30145735  1
  O  O2  1  0.41149656  0.79543006  0.30237473  1
  O  O3  1  0.90929654  0.78538851  0.30029132  1
  O  O4  1  0.48837991  0.16433611  0.30576600  1
  O  O5  1  0.98089667  0.18239203  0.30074417  1
  O  O6  1  0.10328891  0.17890936  0.80161166  1
  O  O7  1  0.59966164  0.16706694  0.80579579  1
  O  O8  1  0.47904974  0.79149416  0.80700964  1
  O  O9  1  0.98832034  0.81199559  0.80575935  1
  O  O10  1  0.40770077  0.03627217  0.80048815  1
  O  O11  1  0.91303844  0.02960781  0.80230911  1
  O  O12  1  0.39457924  0.97575457  0.69783046  1
  O  O13  1  0.89814138  0.97918880  0.69958008  1
  O  O14  1  0.09228097  0.20862000  0.69862899  1
  O  O15  1  0.58433689  0.19708396  0.69270005  1
  O  O16  1  0.01164814  0.82916767  0.69485381  1
  O  O17  1  0.50910618  0.82422339  0.69403024  1
  O  O18  1  0.39625579  0.81629172  0.19976975  1
  O  O19  1  0.89674475  0.81548715  0.19772639  1
  O  O20  1  0.00861526  0.20318925  0.19795944  1
  O  O21  1  0.51166288  0.19342624  0.19503692  1
  O  O22  1  0.08307427  0.97527406  0.19398458  1
  O  O23  1  0.59404129  0.97877321  0.19850891  1
  O  O24  1  0.43627315  0.35974204  0.63413758  1
  O  O25  1  0.93019093  0.35337353  0.63906292  1
  O  O26  1  0.24140571  0.12590142  0.63480109  1
  O  O27  1  0.74226697  0.12229090  0.63402803  1
  O  O28  1  0.31868340  0.49963280  0.63764225  1
  O  O29  1  0.81899499  0.51946096  0.63422307  1
  O  O30  1  0.43084361  0.50729435  0.13948926  1
  O  O31  1  0.93441838  0.51260117  0.13516609  1
  O  O32  1  0.31887744  0.11841179  0.13474870  1
  O  O33  1  0.82004726  0.14008020  0.13842878  1
  O  O34  1  0.24163701  0.36192648  0.13491955  1
  O  O35  1  0.74314955  0.35652516  0.13535652  1
  O  O36  1  0.22465165  0.29953448  0.03255346  1
  O  O37  1  0.73049928  0.30854675  0.03241401  1
  O  O38  1  0.41715619  0.53882458  0.02862516  1
  O  O39  1  0.92326453  0.54460508  0.03301260  1
  O  O40  1  0.34517741  0.14752120  0.03178307  1
  O  O41  1  0.84977867  0.16849880  0.02989107  1
  O  O42  1  0.22980040  0.15129047  0.53147071  1
  O  O43  1  0.72780656  0.15124029  0.53154949  1
  O  O44  1  0.34917010  0.53348356  0.52908637  1
  O  O45  1  0.84538413  0.54256390  0.53123384  1
  O  O46  1  0.42385580  0.30511158  0.53214182  1
  O  O47  1  0.91816827  0.29647350  0.52791725  1
  O  O48  1  0.26452726  0.69186721  0.97246622  1
  O  O49  1  0.77257471  0.69453280  0.96881590  1
  O  O50  1  0.07881276  0.46892066  0.97275113  1
  O  O51  1  0.58377850  0.47255392  0.97339106  1
  O  O52  1  0.15154887  0.84493381  0.96861108  1
  O  O53  1  0.65904096  0.85252809  0.96904612  1
  O  O54  1  0.27187490  0.84939356  0.46780232  1
  O  O55  1  0.76529682  0.83583976  0.47212374  1
  O  O56  1  0.15761039  0.46397153  0.46784709  1
  O  O57  1  0.65186818  0.45767468  0.46824828  1
  O  O58  1  0.08476196  0.69480939  0.47236384  1
  O  O59  1  0.57932824  0.68912234  0.47228165  1
  O  O60  1  0.06654779  0.63590981  0.36109682  1
  O  O61  1  0.56658026  0.63619377  0.36013329  1
  O  O62  1  0.25801600  0.87189303  0.36453025  1
  O  O63  1  0.75279928  0.85795119  0.35876333  1
  O  O64  1  0.18157208  0.48280448  0.36453130  1
  O  O65  1  0.68011460  0.48705930  0.36517256  1
  O  O66  1  0.06747521  0.49850970  0.86011256  1
  O  O67  1  0.56592195  0.49500333  0.86218939  1
  O  O68  1  0.18009421  0.87339694  0.86556077  1
  O  O69  1  0.68373347  0.88370127  0.86581022  1
  O  O70  1  0.25250861  0.64817053  0.85972238  1
  O  O71  1  0.75962988  0.64257310  0.86544039  1
  O  O72  1  0.01330206  0.83649559  0.41151988  1
  O  O73  1  0.51153004  0.83446283  0.40303471  1
  O  O74  1  0.39648894  0.97352424  0.40769265  1
  O  O75  1  0.90734573  0.98344960  0.40839776  1
  O  O76  1  0.08887753  0.20864314  0.41122642  1
  O  O77  1  0.58933160  0.20825202  0.40773322  1
  O  O78  1  0.01178004  0.18815694  0.90368030  1
  O  O79  1  0.51334948  0.18384128  0.91281905  1
  O  O80  1  0.08905967  0.96973437  0.90816180  1
  O  O81  1  0.59023520  0.97139164  0.91341142  1
  O  O82  1  0.40746818  0.83593707  0.91269348  1
  O  O83  1  0.89781105  0.81970416  0.90910150  1
  O  O84  1  0.48641088  0.18068917  0.59180032  1
  O  O85  1  0.98962696  0.15782988  0.59127654  1
  O  O86  1  0.10271868  0.02614381  0.58944747  1
  O  O87  1  0.60234765  0.02315174  0.59034822  1
  O  O88  1  0.41731192  0.81747043  0.59432302  1
  O  O89  1  0.90840471  0.79689871  0.58929441  1
  O  O90  1  0.49016930  0.82040636  0.09287124  1
  O  O91  1  0.98532405  0.79172786  0.09315855  1
  O  O92  1  0.40794505  0.01934849  0.09012595  1
  O  O93  1  0.91815909  0.02552127  0.09834147  1
  O  O94  1  0.10062128  0.18321789  0.09349524  1
  O  O95  1  0.60410497  0.18048388  0.09105745  1
  O  O96  1  0.34235186  0.15291775  0.73953354  1
  O  O97  1  0.84819482  0.15430067  0.74520404  1
  O  O98  1  0.23030573  0.29964944  0.74316388  1
  O  O99  1  0.73903206  0.29933878  0.74050380  1
  O  O100  1  0.41438825  0.51370763  0.74199945  1
  O  O101  1  0.91721513  0.52493876  0.74562315  1
  O  O102  1  0.34665837  0.54022349  0.24519756  1
  O  O103  1  0.84626146  0.53435234  0.24021618  1
  O  O104  1  0.41737745  0.30946566  0.24562766  1
  O  O105  1  0.92244454  0.31462294  0.24024864  1
  O  O106  1  0.23913952  0.17538108  0.24125175  1
  O  O107  1  0.73288712  0.16256530  0.24275959  1
  O  O108  1  0.31455144  0.49107318  0.92118084  1
  O  O109  1  0.82162556  0.51377886  0.92517602  1
  O  O110  1  0.42642596  0.34813314  0.92410681  1
  O  O111  1  0.92789146  0.35858787  0.92241000  1
  O  O112  1  0.24143043  0.12417288  0.92473237  1
  O  O113  1  0.74349838  0.13373313  0.92515721  1
  O  O114  1  0.32001889  0.12709547  0.42269037  1
  O  O115  1  0.81507844  0.13916412  0.42099895  1
  O  O116  1  0.24249711  0.35266883  0.42371716  1
  O  O117  1  0.74179055  0.35883802  0.42360778  1
  O  O118  1  0.42650227  0.49524083  0.42211044  1
  O  O119  1  0.92529949  0.50134888  0.42269816  1
  O  O120  1  0.17795603  0.48647589  0.07531758  1
  O  O121  1  0.68265790  0.48857910  0.07735164  1
  O  O122  1  0.06314899  0.64199875  0.07657736  1
  O  O123  1  0.57122884  0.64684008  0.07383403  1
  O  O124  1  0.25419629  0.86812288  0.07499131  1
  O  O125  1  0.75215748  0.85481184  0.07077267  1
  O  O126  1  0.18085899  0.87530070  0.57584918  1
  O  O127  1  0.67911583  0.87133619  0.57444683  1
  O  O128  1  0.25110294  0.64633024  0.56974180  1
  O  O129  1  0.75461893  0.64030468  0.57399314  1
  O  O130  1  0.07016087  0.49457160  0.57368310  1
  O  O131  1  0.56388676  0.48689352  0.57433917  1
  O  O132  1  0.15588948  0.83948023  0.25907383  1
  O  O133  1  0.65739016  0.85499295  0.25771119  1
  O  O134  1  0.27103647  0.69405939  0.26029371  1
  O  O135  1  0.77013880  0.68817099  0.25723329  1
  O  O136  1  0.07569695  0.45707526  0.25576653  1
  O  O137  1  0.58800853  0.47643788  0.26052511  1
  O  O138  1  0.15583249  0.45827793  0.75760296  1
  O  O139  1  0.65983111  0.47404199  0.75815758  1
  O  O140  1  0.08792116  0.69967705  0.76060302  1
  O  O141  1  0.58369189  0.69707784  0.75709416  1
  O  O142  1  0.26890120  0.84859277  0.75802784  1
  O  O143  1  0.77311564  0.84796792  0.76000407  1
loop_
_geom_bond_atom_site_label_1
_geom_bond_atom_site_label_2
_geom_bond_distance
_geom_bond_site_symmetry_2
Na0 O75 2.599788 1_555
Na0 O85 2.617093 1_565
Na0 O72 2.641599 1_655
Na0 O89 2.715547 1_555
Na0 O76 2.728519 1_665
Na0 O86 2.808136 1_665
Na1 O82 2.388957 1_555
Na1 O79 2.448704 1_565
Na1 O81 2.614749 1_555
Na1 O90 2.792836 1_556
Na1 O92 2.835092 1_566
Na1 O95 2.964435 1_566
Na2 O108 2.560490 1_555
Na2 O110 2.579914 1_555
Na2 O100 2.589428 1_555
Na2 O98 2.831262 1_555
Na2 O112 2.850902 1_555
Na2 O96 2.863433 1_555
Na3 O101 2.516458 1_555
Na3 O99 2.589612 1_555
Na3 O97 2.699894 1_555
Na3 O111 2.726075 1_555
Na3 O109 2.794232 1_555
Na3 O113 2.853222 1_555
Na4 O104 2.537462 1_555
Na4 O106 2.639996 1_555
Na4 O118 2.648598 1_555
Na4 O102 2.711493 1_555
Na4 O114 2.729644 1_555
Na4 O116 2.821924 1_555
Na5 O115 2.475463 1_555
Na5 O119 2.493792 1_555
Na5 O117 2.684332 1_555
Na5 O107 2.851288 1_555
Na5 O105 2.852055 1_555
Na5 O103 2.906269 1_555
Hf0 O4 1.960948 1_555
Hf0 O73 1.973498 1_545
Hf0 O74 2.072912 1_545
Hf0 O77 2.096179 1_555
Hf0 O2 2.180674 1_545
Hf0 O1 2.251603 1_555
Hf1 O9 1.959641 1_555
Hf1 O78 1.983597 1_665
Hf1 O83 2.072549 1_555
Hf1 O80 2.116693 1_655
Hf1 O11 2.153927 1_565
Hf1 O6 2.228282 1_665
Hf2 O17 1.926503 1_555
Hf2 O15 1.986212 1_565
Hf2 O88 1.998953 1_555
Hf2 O87 2.149362 1_565
Hf2 O12 2.209223 1_555
Hf2 O84 2.261846 1_565
Hf3 O93 1.959415 1_465
Hf3 O22 1.967218 1_555
Hf3 O94 2.082394 1_565
Hf3 O91 2.099053 1_455
Hf3 O19 2.187485 1_455
Hf3 O20 2.195568 1_565
Hf4 O28 1.915619 1_555
Hf4 O100 1.941845 1_555
Hf4 O24 2.125746 1_555
Hf4 O98 2.196045 1_555
Hf4 O96 2.210915 1_555
Hf4 O26 2.239284 1_555
Hf5 O33 1.883717 1_555
Hf5 O35 2.094645 1_555
Hf5 O31 2.104615 1_555
Hf5 O105 2.137888 1_555
Hf5 O107 2.150271 1_555
Hf5 O103 2.224841 1_555
Hf6 O48 1.902563 1_554
Hf6 O50 1.932065 1_554
Hf6 O120 2.128363 1_555
Hf6 O52 2.181528 1_554
Hf6 O124 2.238267 1_555
Hf6 O122 2.310968 1_555
Hf7 O123 1.932941 1_555
Hf7 O51 1.983815 1_554
Hf7 O125 2.002021 1_555
Hf7 O53 2.162527 1_554
Hf7 O121 2.180063 1_555
Hf7 O49 2.290895 1_554
Hf8 O130 1.917280 1_555
Hf8 O128 1.956423 1_555
Hf8 O58 2.019039 1_555
Hf8 O126 2.117357 1_555
Hf8 O56 2.228643 1_555
Hf8 O54 2.317598 1_555
Hf9 O59 1.939011 1_555
Hf9 O55 1.940762 1_555
Hf9 O127 2.084898 1_555
Hf9 O129 2.220342 1_555
Hf9 O57 2.227352 1_555
Hf9 O131 2.232210 1_555
Hf10 O61 1.929308 1_555
Hf10 O137 1.984914 1_555
Hf10 O63 1.996060 1_555
Hf10 O133 2.173941 1_555
Hf10 O65 2.174656 1_555
Hf10 O135 2.285278 1_555
Hf11 O66 1.946086 1_555
Hf11 O140 1.988626 1_555
Hf11 O70 1.994751 1_555
Hf11 O138 2.156767 1_555
Hf11 O68 2.201337 1_555
Hf11 O142 2.220862 1_555
O0 Si0 1.633037 1_555
O0 Zr0 1.994575 1_545
O1 S0 1.472737 1_555
O2 S1 1.484427 1_555
O3 S2 1.489286 1_555
O3 Zr0 2.195037 1_655
O4 Si1 1.633342 1_555
O5 S3 1.467796 1_555
O5 Zr0 2.343645 1_645
O6 S4 1.474532 1_555
O7 Si2 1.631283 1_555
O7 Zr1 2.001882 1_555
O8 Si4 1.620014 1_555
O8 Zr1 2.028534 1_565
O9 Si3 1.633510 1_655
O10 S5 1.486789 1_555
O10 Zr1 2.198996 1_555
O11 S6 1.488572 1_555
O12 S5 1.476721 1_565
O13 S6 1.493982 1_565
O13 Zr2 2.138770 1_655
O14 S4 1.489330 1_555
O14 Zr2 2.157268 1_545
O15 Si2 1.621763 1_555
O16 Si3 1.647014 1_555
O16 Zr2 1.960479 1_555
O17 Si4 1.621775 1_555
O18 S1 1.488144 1_555
O18 Zr3 2.162505 1_565
O19 S2 1.483190 1_555
O20 S3 1.473743 1_455
O21 Si1 1.642567 1_555
O21 Zr3 1.970153 1_555
O22 Si0 1.624784 1_565
O23 S0 1.480101 1_565
O23 Zr3 2.200927 1_565
O24 S7 1.495215 1_555
O25 Si5 1.615514 1_555
O25 Zr4 2.006116 1_555
O26 S8 1.473032 1_555
O27 S9 1.463605 1_555
O27 Zr4 2.314355 1_555
O28 Si6 1.652023 1_555
O29 S10 1.477439 1_555
O29 Zr4 2.198681 1_555
O30 Si7 1.628770 1_555
O30 Zr5 1.984411 1_555
O31 S11 1.502734 1_555
O32 S12 1.485768 1_555
O32 Zr5 2.177078 1_555
O33 Si8 1.672123 1_555
O34 S13 1.468918 1_555
O34 Zr5 2.316901 1_555
O35 S14 1.503786 1_555
O36 S13 1.472628 1_555
O36 Zr6 2.321192 1_554
O37 S14 1.469455 1_555
O37 Zr7 2.285300 1_554
O38 Si7 1.638261 1_555
O38 Zr6 1.956190 1_554
O39 S11 1.478577 1_555
O39 Zr7 2.199590 1_554
O40 S12 1.468271 1_555
O40 Zr6 2.322142 1_554
O41 Si8 1.646798 1_555
O41 Zr7 1.932579 1_554
O42 S8 1.481172 1_555
O42 Zr8 2.251436 1_555
O43 S9 1.485894 1_555
O43 Zr9 2.222424 1_555
O44 Si6 1.667700 1_555
O44 Zr8 1.903526 1_555
O45 S10 1.478665 1_555
O45 Zr9 2.293526 1_555
O46 S7 1.503590 1_555
O46 Zr8 2.127037 1_555
O47 Si5 1.650096 1_555
O47 Zr9 1.934832 1_555
O48 Si9 1.663864 1_555
O49 S15 1.471276 1_555
O50 Si10 1.641464 1_555
O51 Si11 1.631849 1_555
O52 S16 1.491495 1_555
O53 S17 1.481751 1_555
O54 S18 1.459764 1_555
O55 Si12 1.648479 1_555
O56 S19 1.472469 1_555
O57 S20 1.479557 1_555
O58 Si13 1.605590 1_555
O59 Si14 1.636820 1_555
O60 Si13 1.650940 1_555
O60 Zr10 1.948793 1_555
O61 Si14 1.629026 1_555
O62 S18 1.492136 1_555
O62 Zr10 2.185514 1_555
O63 Si12 1.617489 1_555
O64 S19 1.474400 1_555
O64 Zr10 2.331246 1_555
O65 S20 1.479574 1_555
O66 Si10 1.619086 1_555
O67 Si11 1.635112 1_555
O67 Zr11 1.971747 1_555
O68 S16 1.473730 1_555
O69 S17 1.462094 1_555
O69 Zr11 2.399509 1_555
O70 Si9 1.617218 1_555
O71 S15 1.464513 1_555
O71 Zr11 2.343693 1_555
O72 Si13 1.645667 1_555
O72 Zr0 1.976218 1_555
O73 Si14 1.620678 1_555
O74 S18 1.497123 1_555
O75 Si12 1.635624 1_555
O75 Zr0 2.049194 1_655
O76 S19 1.493652 1_555
O76 Zr0 2.215511 1_545
O77 S20 1.493332 1_555
O78 Si10 1.615898 1_555
O79 Si11 1.620840 1_555
O79 Zr1 2.096110 1_555
O80 S16 1.490069 1_555
O81 S17 1.476345 1_555
O81 Zr1 2.286673 1_565
O82 Si9 1.614445 1_555
O82 Zr1 2.109781 1_565
O83 S15 1.503056 1_555
O84 S7 1.455068 1_555
O85 Si5 1.638222 1_555
O85 Zr2 2.043392 1_645
O86 S8 1.497963 1_555
O86 Zr2 2.206713 1_545
O87 S9 1.476818 1_555
O88 Si6 1.598041 1_555
O89 S10 1.505161 1_555
O89 Zr2 2.206555 1_655
O90 Si7 1.643113 1_555
O90 Zr3 2.018705 1_565
O91 S11 1.483906 1_555
O92 S12 1.508457 1_555
O92 Zr3 2.166720 1_555
O93 Si8 1.613972 1_555
O94 S13 1.500054 1_555
O95 S14 1.489448 1_555
O95 Zr3 2.191810 1_555
O96 S5 1.501134 1_555
O97 S6 1.482376 1_555
O97 Zr4 2.231356 1_555
O98 S4 1.495167 1_555
O99 Si2 1.642907 1_555
O99 Zr4 2.014713 1_555
O100 Si4 1.670181 1_555
O101 Si3 1.646161 1_655
O101 Zr4 1.991666 1_555
O102 S1 1.481627 1_555
O102 Zr5 2.247261 1_555
O103 S2 1.506399 1_555
O104 Si1 1.648545 1_555
O104 Zr5 1.991226 1_555
O105 S3 1.519499 1_555
O106 Si0 1.623657 1_555
O106 Zr5 2.051843 1_555
O107 S0 1.516919 1_555
O108 Si9 1.654262 1_555
O108 Zr6 1.984008 1_555
O109 S15 1.497884 1_555
O109 Zr7 2.259205 1_555
O110 Si11 1.664090 1_555
O110 Zr6 1.980942 1_555
O111 Si10 1.661189 1_655
O111 Zr7 1.958035 1_555
O112 S16 1.475375 1_545
O112 Zr6 2.305027 1_555
O113 S17 1.516829 1_545
O113 Zr7 2.131562 1_555
O114 S18 1.484302 1_545
O114 Zr8 2.341111 1_555
O115 Si12 1.649989 1_545
O115 Zr9 2.004407 1_555
O116 S19 1.498615 1_555
O116 Zr8 2.220077 1_555
O117 S20 1.477893 1_555
O117 Zr9 2.330511 1_555
O118 Si14 1.654339 1_555
O118 Zr8 1.985668 1_555
O119 Si13 1.640340 1_655
O119 Zr9 2.029555 1_555
O120 S13 1.495149 1_555
O121 S14 1.464563 1_555
O122 S11 1.462572 1_455
O123 Si7 1.617997 1_555
O124 S12 1.474460 1_565
O125 Si8 1.594782 1_565
O126 S8 1.475151 1_565
O127 S9 1.504201 1_565
O128 Si6 1.609689 1_555
O129 S10 1.476986 1_555
O130 Si5 1.619797 1_455
O131 S7 1.477896 1_555
O132 Si0 1.652777 1_565
O132 Zr10 1.936133 1_555
O133 S0 1.470919 1_565
O134 S1 1.470368 1_555
O134 Zr10 2.244340 1_555
O135 S2 1.461034 1_555
O136 S3 1.479711 1_455
O136 Zr10 2.185540 1_555
O137 Si1 1.609851 1_555
O138 S4 1.472039 1_555
O139 Si2 1.635393 1_555
O139 Zr11 1.942646 1_555
O140 Si3 1.606844 1_555
O141 Si4 1.621599 1_555
O141 Zr11 1.957386 1_555
O142 S5 1.468277 1_565
O143 S6 1.456782 1_565
O143 Zr11 2.281080 1_555
