# generated using pymatgen
data_Li3CrPCO7
_symmetry_space_group_name_H-M   'P 1'
_cell_length_a   5.09938033
_cell_length_b   12.98311806
_cell_length_c   8.64750065
_cell_angle_alpha   89.99268084
_cell_angle_beta   84.83285645
_cell_angle_gamma   90.00744376
_symmetry_Int_Tables_number   1
_chemical_formula_structural   Li3CrPCO7
_chemical_formula_sum   'Li12 Cr4 P4 C4 O28'
_cell_volume   570.18859686
_cell_formula_units_Z   4
loop_
 _symmetry_equiv_pos_site_id
 _symmetry_equiv_pos_as_xyz
  1  'x, y, z'
loop_
 _atom_site_type_symbol
 _atom_site_label
 _atom_site_symmetry_multiplicity
 _atom_site_fract_x
 _atom_site_fract_y
 _atom_site_fract_z
 _atom_site_occupancy
  Li  Li0  1  0.84886000  0.12505400  0.08322100  1
  Li  Li1  1  0.84878300  0.62495700  0.08330900  1
  Li  Li2  1  0.15114500  0.37490800  0.91677400  1
  Li  Li3  1  0.15131900  0.87501000  0.91671000  1
  Li  Li4  1  0.76905300  0.48665800  0.71082200  1
  Li  Li5  1  0.76891600  0.98664300  0.71079100  1
  Li  Li6  1  0.23119700  0.01333200  0.28913300  1
  Li  Li7  1  0.23088200  0.51333100  0.28927300  1
  Li  Li8  1  0.76878300  0.26326700  0.71096400  1
  Li  Li9  1  0.76900300  0.76333000  0.71081900  1
  Li  Li10  1  0.23107500  0.23672300  0.28902500  1
  Li  Li11  1  0.23108000  0.73663400  0.28919600  1
  Cr  Cr0  1  0.75962200  0.87506400  0.33090100  1
  Cr  Cr1  1  0.24040900  0.62517900  0.66914900  1
  Cr  Cr2  1  0.75946200  0.37498800  0.33094400  1
  Cr  Cr3  1  0.23990500  0.12522600  0.66884100  1
  P  P0  1  0.69855600  0.12498700  0.41805800  1
  P  P1  1  0.69841800  0.62499700  0.41813300  1
  P  P2  1  0.30148400  0.37497800  0.58193500  1
  P  P3  1  0.30153300  0.87502500  0.58189800  1
  C  C0  1  0.65788600  0.37490900  0.01221600  1
  C  C1  1  0.65782400  0.87502000  0.01214400  1
  C  C2  1  0.34222200  0.12505600  0.98778700  1
  C  C3  1  0.34217600  0.62498000  0.98788300  1
  O  O0  1  0.21087700  0.37497800  0.41556400  1
  O  O1  1  0.21080800  0.87499800  0.41555300  1
  O  O2  1  0.78928200  0.12496900  0.58440400  1
  O  O3  1  0.78913700  0.62498300  0.58449600  1
  O  O4  1  0.86098000  0.37489400  0.09585600  1
  O  O5  1  0.86107400  0.87505900  0.09572800  1
  O  O6  1  0.13907600  0.12508000  0.90416300  1
  O  O7  1  0.13901400  0.62502300  0.90424000  1
  O  O8  1  0.57921400  0.12509800  0.92485300  1
  O  O9  1  0.57918500  0.62498700  0.92488000  1
  O  O10  1  0.42085500  0.37484300  0.07513200  1
  O  O11  1  0.42090700  0.87500900  0.07518600  1
  O  O12  1  0.38965100  0.12508800  0.43546900  1
  O  O13  1  0.38948700  0.62507900  0.43556600  1
  O  O14  1  0.61044400  0.37482000  0.56452600  1
  O  O15  1  0.61045600  0.87498500  0.56445500  1
  O  O16  1  0.71377200  0.37498900  0.86281900  1
  O  O17  1  0.71344800  0.87498200  0.86276300  1
  O  O18  1  0.28642600  0.12499500  0.13716200  1
  O  O19  1  0.28641100  0.62493500  0.13721600  1
  O  O20  1  0.19508700  0.28141100  0.68100400  1
  O  O21  1  0.19540300  0.78143300  0.68103100  1
  O  O22  1  0.19558300  0.46860700  0.68094300  1
  O  O23  1  0.19549900  0.96864800  0.68084200  1
  O  O24  1  0.80477700  0.21855900  0.31898500  1
  O  O25  1  0.80469600  0.71855700  0.31900700  1
  O  O26  1  0.80452200  0.03136400  0.31903300  1
  O  O27  1  0.80433100  0.53135400  0.31919700  1
loop_
_geom_bond_atom_site_label_1
_geom_bond_atom_site_label_2
_geom_bond_distance
_geom_bond_site_symmetry_2
Li0 O8 2.026174 1_554
Li0 O6 2.043274 1_654
Li0 O18 2.320307 1_655
Li0 O24 2.366227 1_555
Li0 O26 2.367539 1_555
Li1 O9 2.026382 1_554
Li1 O7 2.043390 1_654
Li1 O19 2.320532 1_655
Li1 O25 2.366373 1_555
Li1 O27 2.367530 1_555
Li2 O10 2.026352 1_556
Li2 O4 2.043247 1_456
Li2 O16 2.319377 1_455
Li2 O20 2.366205 1_555
Li2 O22 2.367748 1_555
Li3 O11 2.026644 1_556
Li3 O5 2.043132 1_456
Li3 O17 2.321845 1_455
Li3 O21 2.366080 1_555
Li3 O23 2.367591 1_555
Li4 O16 1.960031 1_555
Li4 O3 2.099608 1_555
Li4 O14 2.132469 1_555
Li4 O22 2.179770 1_655
Li5 O17 1.959891 1_555
Li5 O2 2.099895 1_565
Li5 O15 2.130767 1_555
Li5 O23 2.179976 1_655
Li6 O18 1.959803 1_555
Li6 O1 2.100131 1_545
Li6 O12 2.131620 1_555
Li6 O26 2.180479 1_455
Li7 O19 1.959854 1_555
Li7 O0 2.099762 1_555
Li7 O13 2.131649 1_555
Li7 O27 2.179848 1_455
Li8 O16 1.959920 1_555
Li8 O2 2.100620 1_555
Li8 O14 2.130050 1_555
Li8 O20 2.178715 1_655
Li9 O17 1.959986 1_555
Li9 O3 2.100101 1_555
Li9 O15 2.131008 1_555
Li9 O21 2.179098 1_655
Li10 O18 1.960168 1_555
Li10 O0 2.100045 1_555
Li10 O12 2.131329 1_555
Li10 O24 2.178713 1_455
Li11 O19 1.960546 1_555
Li11 O1 2.100443 1_555
Li11 O13 2.129848 1_555
Li11 O25 2.178987 1_455
Cr0 O26 2.043637 1_565
Cr0 O25 2.046495 1_555
Cr0 O5 2.052780 1_555
Cr0 O15 2.093060 1_555
Cr0 O1 2.476444 1_655
Cr1 O21 2.043192 1_555
Cr1 O22 2.047077 1_555
Cr1 O7 2.052046 1_555
Cr1 O13 2.093170 1_555
Cr1 O3 2.476867 1_455
Cr2 O27 2.044429 1_555
Cr2 O24 2.045645 1_555
Cr2 O4 2.052123 1_555
Cr2 O14 2.093078 1_555
Cr2 O0 2.477454 1_655
Cr3 O20 2.042299 1_555
Cr3 O23 2.046999 1_545
Cr3 O6 2.053513 1_555
Cr3 O12 2.092414 1_555
Cr3 O2 2.472997 1_455
C0 O10 1.280054 1_555
C0 O16 1.297664 1_554
C0 O4 1.315535 1_555
C1 O11 1.279899 1_555
C1 O17 1.297356 1_554
C1 O5 1.315900 1_555
C2 O8 1.279927 1_555
C2 O18 1.297419 1_556
C2 O6 1.315671 1_555
C3 O9 1.280208 1_555
C3 O19 1.297044 1_556
C3 O7 1.315841 1_555
O0 P2 1.550178 1_555
O1 P3 1.550193 1_555
O2 P0 1.550204 1_555
O3 P1 1.550330 1_555
O12 P0 1.568848 1_555
O13 P1 1.568980 1_555
O14 P2 1.569128 1_555
O15 P3 1.568940 1_555
O20 P2 1.555590 1_555
O21 P3 1.555725 1_555
O22 P2 1.555472 1_555
O23 P3 1.555325 1_555
O24 P0 1.555391 1_555
O25 P1 1.555594 1_555
O26 P0 1.555586 1_555
O27 P1 1.555309 1_555
