# generated using pymatgen
data_SrH2I2O7
_symmetry_space_group_name_H-M   'P 1'
_cell_length_a   7.66337232
_cell_length_b   7.66337232
_cell_length_c   8.99054962
_cell_angle_alpha   55.77591016
_cell_angle_beta   55.77591016
_cell_angle_gamma   61.95568605
_symmetry_Int_Tables_number   1
_chemical_formula_structural   SrH2I2O7
_chemical_formula_sum   'Sr2 H4 I4 O14'
_cell_volume   351.71622046
_cell_formula_units_Z   2
loop_
 _symmetry_equiv_pos_site_id
 _symmetry_equiv_pos_as_xyz
  1  'x, y, z'
loop_
 _atom_site_type_symbol
 _atom_site_label
 _atom_site_symmetry_multiplicity
 _atom_site_fract_x
 _atom_site_fract_y
 _atom_site_fract_z
 _atom_site_occupancy
  Sr  Sr0  1  0.16001000  0.83999000  0.25000000  1
  Sr  Sr1  1  0.83999000  0.16001000  0.75000000  1
  H  H0  1  0.26110500  0.79372700  0.80790600  1
  H  H1  1  0.20627300  0.73889500  0.69209400  1
  H  H2  1  0.73889500  0.20627300  0.19209400  1
  H  H3  1  0.79372700  0.26110500  0.30790600  1
  I  I0  1  0.34171400  0.28615500  0.67256000  1
  I  I1  1  0.71384500  0.65828600  0.82744000  1
  I  I2  1  0.28615500  0.34171400  0.17256000  1
  I  I3  1  0.65828600  0.71384500  0.32744000  1
  O  O0  1  0.16136900  0.83863100  0.75000000  1
  O  O1  1  0.83863100  0.16136900  0.25000000  1
  O  O2  1  0.76405000  0.59400300  0.63677900  1
  O  O3  1  0.40599700  0.23595000  0.86322100  1
  O  O4  1  0.23595000  0.40599700  0.36322100  1
  O  O5  1  0.59400300  0.76405000  0.13677900  1
  O  O6  1  0.41371800  0.74257800  0.92967200  1
  O  O7  1  0.25742200  0.58628200  0.57032800  1
  O  O8  1  0.58628200  0.25742200  0.07032800  1
  O  O9  1  0.74257800  0.41371800  0.42967200  1
  O  O10  1  0.78039800  0.92241400  0.67199500  1
  O  O11  1  0.07758600  0.21960200  0.82800500  1
  O  O12  1  0.21960200  0.07758600  0.32800500  1
  O  O13  1  0.92241400  0.78039800  0.17199500  1
loop_
_geom_bond_atom_site_label_1
_geom_bond_atom_site_label_2
_geom_bond_distance
_geom_bond_site_symmetry_2
H0 O0 0.986095 1_555
H1 O0 0.986095 1_555
H2 O1 0.986095 1_555
H3 O1 0.986095 1_555
I0 O11 1.815826 1_555
I0 O3 1.832705 1_555
I0 O7 1.856042 1_555
I1 O10 1.815826 1_555
I1 O2 1.832705 1_555
I1 O6 1.856042 1_555
I2 O12 1.815826 1_555
I2 O4 1.832705 1_555
I2 O8 1.856042 1_555
I3 O13 1.815826 1_555
I3 O5 1.832705 1_555
I3 O9 1.856042 1_555
O0 Sr1 2.535287 1_465
O1 Sr0 2.535287 1_645
O2 Sr1 2.733923 1_555
O3 Sr1 2.733923 1_555
O4 Sr0 2.733923 1_555
O5 Sr0 2.733923 1_555
O6 Sr0 2.717806 1_556
O7 Sr0 2.717806 1_555
O8 Sr1 2.717806 1_554
O9 Sr1 2.717806 1_555
O10 Sr1 2.567909 1_565
O11 Sr1 2.567909 1_455
O12 Sr0 2.567909 1_545
O13 Sr0 2.567909 1_655
