# generated using pymatgen
data_MgFe4(OF)4
_symmetry_space_group_name_H-M   'P 1'
_cell_length_a   6.64375515
_cell_length_b   5.70439853
_cell_length_c   5.41583597
_cell_angle_alpha   93.49505390
_cell_angle_beta   62.37265185
_cell_angle_gamma   64.86600236
_symmetry_Int_Tables_number   1
_chemical_formula_structural   MgFe4(OF)4
_chemical_formula_sum   'Mg1 Fe4 O4 F4'
_cell_volume   155.88847319
_cell_formula_units_Z   1
loop_
 _symmetry_equiv_pos_site_id
 _symmetry_equiv_pos_as_xyz
  1  'x, y, z'
loop_
 _atom_site_type_symbol
 _atom_site_label
 _atom_site_symmetry_multiplicity
 _atom_site_fract_x
 _atom_site_fract_y
 _atom_site_fract_z
 _atom_site_occupancy
  Mg  Mg0  1  0.78501344  0.36734833  0.74632814  1
  Fe  Fe0  1  0.18406946  0.93208418  0.01673065  1
  Fe  Fe1  1  0.73012703  0.67965450  0.30097358  1
  Fe  Fe2  1  0.30659852  0.30770143  0.66489752  1
  Fe  Fe3  1  0.75872533  0.90558847  0.85790747  1
  O  O0  1  0.48142247  0.98436900  0.76678768  1
  O  O1  1  0.98214383  0.27925044  0.95381095  1
  O  O2  1  0.06295763  0.71045653  0.91659737  1
  O  O3  1  0.50775676  0.06373237  0.28468103  1
  F  F0  1  0.45161055  0.63580069  0.08952449  1
  F  F1  1  0.97363522  0.52486644  0.49550948  1
  F  F2  1  0.56956508  0.45495985  0.56080275  1
  F  F3  1  0.97398368  0.01245677  0.45824489  1
loop_
_geom_bond_atom_site_label_1
_geom_bond_atom_site_label_2
_geom_bond_distance
_geom_bond_site_symmetry_2
Mg0 O1 2.026119 1_555
Fe0 O2 1.930055 1_554
Fe0 O0 1.973242 1_554
Fe0 O1 2.021671 1_464
Fe1 O3 2.094154 1_565
Fe1 O1 2.205348 1_554
Fe1 O0 2.296857 1_555
Fe1 O2 2.315059 1_654
Fe2 O3 1.865877 1_555
Fe2 O0 1.988505 1_545
Fe2 O2 2.041907 1_555
Fe2 O1 2.078764 1_455
Fe3 O3 1.957047 1_566
Fe3 O0 2.001651 1_555
Fe3 O2 2.037954 1_655
F0 Mg0 1.912959 1_554
F0 Fe0 2.085798 1_555
F1 Mg0 1.936389 1_555
F1 Fe3 2.203319 1_555
F1 Fe1 2.233324 1_555
F2 Mg0 2.023762 1_555
F2 Fe2 2.113461 1_555
F2 Fe1 2.179494 1_555
F3 Mg0 1.935980 1_555
F3 Fe0 2.025697 1_645
F3 Fe3 2.265516 1_545
