# generated using pymatgen
data_MgV2NiO6
_symmetry_space_group_name_H-M   'P 1'
_cell_length_a   5.39614784
_cell_length_b   5.45641086
_cell_length_c   5.44692715
_cell_angle_alpha   55.90097933
_cell_angle_beta   55.66531063
_cell_angle_gamma   55.71700306
_symmetry_Int_Tables_number   1
_chemical_formula_structural   MgV2NiO6
_chemical_formula_sum   'Mg1 V2 Ni1 O6'
_cell_volume   102.25420240
_cell_formula_units_Z   1
loop_
 _symmetry_equiv_pos_site_id
 _symmetry_equiv_pos_as_xyz
  1  'x, y, z'
loop_
 _atom_site_type_symbol
 _atom_site_label
 _atom_site_symmetry_multiplicity
 _atom_site_fract_x
 _atom_site_fract_y
 _atom_site_fract_z
 _atom_site_occupancy
  Mg  Mg0  1  0.19174500  0.23814700  0.16394900  1
  V  V0  1  0.97804100  0.02965300  0.95864600  1
  V  V1  1  0.47507700  0.52254700  0.46284300  1
  Ni  Ni0  1  0.68387400  0.72210900  0.66893900  1
  O  O0  1  0.12159800  0.79074400  0.35595200  1
  O  O1  1  0.36872000  0.14264000  0.74676100  1
  O  O2  1  0.76637800  0.40831000  0.08517600  1
  O  O3  1  0.26543700  0.64946700  0.84520800  1
  O  O4  1  0.62450700  0.91508500  0.22631600  1
  O  O5  1  0.86917500  0.30709800  0.58145000  1
loop_
_geom_bond_atom_site_label_1
_geom_bond_atom_site_label_2
_geom_bond_distance
_geom_bond_site_symmetry_2
Mg0 O3 2.016694 1_554
Mg0 O5 2.024643 1_455
Mg0 O4 2.064483 1_545
Mg0 O2 2.139664 1_455
Mg0 O1 2.160205 1_554
Mg0 O0 2.219991 1_545
Ni0 O2 2.048746 1_556
Ni0 O1 2.053835 1_565
Ni0 O3 2.076847 1_555
Ni0 O0 2.089022 1_655
Ni0 O5 2.115739 1_555
Ni0 O4 2.160736 1_555
O0 V1 1.808762 1_555
O0 V0 2.138472 1_464
O1 V1 1.939751 1_555
O1 V0 2.019448 1_455
O2 V1 1.943559 1_555
O2 V0 2.024469 1_554
O3 V0 1.955038 1_465
O3 V1 2.043012 1_555
O4 V0 1.827534 1_564
O4 V1 2.139461 1_555
O5 V0 1.931395 1_555
O5 V1 2.050288 1_555
