# generated using pymatgen
data_Rb2Ta15O32
_symmetry_space_group_name_H-M   'P 1'
_cell_length_a   12.80101586
_cell_length_b   12.80101587
_cell_length_c   12.80101522
_cell_angle_alpha   35.60458538
_cell_angle_beta   35.60458534
_cell_angle_gamma   35.60458987
_symmetry_Int_Tables_number   1
_chemical_formula_structural   Rb2Ta15O32
_chemical_formula_sum   'Rb2 Ta15 O32'
_cell_volume   635.48516601
_cell_formula_units_Z   1
loop_
 _symmetry_equiv_pos_site_id
 _symmetry_equiv_pos_as_xyz
  1  'x, y, z'
loop_
 _atom_site_type_symbol
 _atom_site_label
 _atom_site_symmetry_multiplicity
 _atom_site_fract_x
 _atom_site_fract_y
 _atom_site_fract_z
 _atom_site_occupancy
  Rb  Rb0  1  0.14015828  0.14015828  0.14015828  1
  Rb  Rb1  1  0.85984172  0.85984172  0.85984172  1
  Ta  Ta0  1  0.50000000  0.50000000  0.50000000  1
  Ta  Ta1  1  0.70002628  0.02584472  0.57065957  1
  Ta  Ta2  1  0.02584472  0.57065957  0.70002628  1
  Ta  Ta3  1  0.57065957  0.70002628  0.02584472  1
  Ta  Ta4  1  0.29997372  0.97415528  0.42934043  1
  Ta  Ta5  1  0.97415528  0.42934043  0.29997372  1
  Ta  Ta6  1  0.42934043  0.29997372  0.97415528  1
  Ta  Ta7  1  0.05395974  0.81453054  0.22758127  1
  Ta  Ta8  1  0.81453054  0.22758127  0.05395974  1
  Ta  Ta9  1  0.22758127  0.05395974  0.81453054  1
  Ta  Ta10  1  0.94604026  0.18546946  0.77241873  1
  Ta  Ta11  1  0.18546946  0.77241873  0.94604026  1
  Ta  Ta12  1  0.77241873  0.94604026  0.18546946  1
  Ta  Ta13  1  0.36214939  0.36214939  0.36214939  1
  Ta  Ta14  1  0.63785061  0.63785061  0.63785061  1
  O  O0  1  0.46688608  0.67438510  0.26172055  1
  O  O1  1  0.67438510  0.26172055  0.46688608  1
  O  O2  1  0.26172055  0.46688608  0.67438510  1
  O  O3  1  0.53311392  0.32561490  0.73827945  1
  O  O4  1  0.32561490  0.73827945  0.53311392  1
  O  O5  1  0.73827945  0.53311392  0.32561490  1
  O  O6  1  0.96678205  0.84813568  0.55410544  1
  O  O7  1  0.84813568  0.55410544  0.96678205  1
  O  O8  1  0.55410544  0.96678205  0.84813568  1
  O  O9  1  0.03321795  0.15186432  0.44589456  1
  O  O10  1  0.15186432  0.44589456  0.03321795  1
  O  O11  1  0.44589456  0.03321795  0.15186432  1
  O  O12  1  0.73624898  0.73624898  0.73624898  1
  O  O13  1  0.26375102  0.26375102  0.26375102  1
  O  O14  1  0.85881888  0.03969530  0.29939993  1
  O  O15  1  0.03969530  0.29939993  0.85881888  1
  O  O16  1  0.29939993  0.85881888  0.03969530  1
  O  O17  1  0.57048299  0.16898448  0.26017308  1
  O  O18  1  0.26017308  0.57048299  0.16898448  1
  O  O19  1  0.16898448  0.26017308  0.57048299  1
  O  O20  1  0.42951701  0.83101552  0.73982692  1
  O  O21  1  0.73982692  0.42951701  0.83101552  1
  O  O22  1  0.83101552  0.73982692  0.42951701  1
  O  O23  1  0.54331681  0.84432225  0.42953026  1
  O  O24  1  0.42953026  0.54331681  0.84432225  1
  O  O25  1  0.84432225  0.42953026  0.54331681  1
  O  O26  1  0.45668319  0.15567775  0.57046974  1
  O  O27  1  0.57046974  0.45668319  0.15567775  1
  O  O28  1  0.15567775  0.57046974  0.45668319  1
  O  O29  1  0.70060007  0.14118112  0.96030470  1
  O  O30  1  0.96030470  0.70060007  0.14118112  1
  O  O31  1  0.14118112  0.96030470  0.70060007  1
loop_
_geom_bond_atom_site_label_1
_geom_bond_atom_site_label_2
_geom_bond_distance
_geom_bond_site_symmetry_2
O0 Ta3 1.887984 1_555
O0 Ta0 1.989544 1_555
O0 Rb0 3.226381 1_565
O1 Ta1 1.887985 1_555
O1 Ta0 1.989544 1_555
O1 Rb0 3.226381 1_655
O2 Ta2 1.887985 1_555
O2 Ta0 1.989544 1_555
O2 Rb0 3.226380 1_556
O3 Ta6 1.887984 1_555
O3 Ta0 1.989544 1_555
O3 Rb1 3.226381 1_545
O4 Ta4 1.887985 1_555
O4 Ta0 1.989544 1_555
O4 Rb1 3.226381 1_455
O5 Ta5 1.887985 1_555
O5 Ta0 1.989544 1_555
O5 Rb1 3.226380 1_554
O6 Ta2 1.953949 1_655
O6 Ta1 1.963637 1_565
O6 Rb1 3.020215 1_555
O6 Rb0 3.022440 1_665
O7 Ta3 1.953949 1_556
O7 Ta2 1.963637 1_655
O7 Rb1 3.020215 1_555
O7 Rb0 3.022440 1_656
O8 Ta1 1.953949 1_565
O8 Ta3 1.963637 1_556
O8 Rb1 3.020215 1_555
O8 Rb0 3.022440 1_566
O9 Ta5 1.953949 1_455
O9 Ta4 1.963637 1_545
O9 Rb0 3.020215 1_555
O9 Rb1 3.022440 1_445
O10 Ta6 1.953949 1_554
O10 Ta5 1.963637 1_455
O10 Rb0 3.020215 1_555
O10 Rb1 3.022440 1_454
O11 Ta4 1.953949 1_545
O11 Ta6 1.963637 1_554
O11 Rb0 3.020215 1_555
O11 Rb1 3.022440 1_544
O12 Ta3 2.115657 1_556
O12 Ta1 2.115657 1_565
O12 Ta2 2.115657 1_655
O13 Ta6 2.115657 1_554
O13 Ta4 2.115657 1_545
O13 Ta5 2.115657 1_455
O14 Ta7 2.063866 1_645
O14 Ta1 2.080417 1_555
O14 Ta8 2.090167 1_555
O14 Rb0 3.179647 1_655
O15 Ta8 2.063866 1_456
O15 Ta2 2.080417 1_555
O15 Ta9 2.090167 1_555
O15 Rb0 3.179647 1_556
O16 Ta9 2.063866 1_564
O16 Ta3 2.080417 1_555
O16 Ta7 2.090167 1_555
O16 Rb0 3.179647 1_565
O17 Ta13 1.948126 1_555
O17 Ta12 2.040418 1_545
O17 Ta8 2.114550 1_555
O18 Ta13 1.948125 1_555
O18 Ta11 2.040418 1_554
O18 Ta7 2.114550 1_555
O19 Ta13 1.948125 1_555
O19 Ta10 2.040418 1_455
O19 Ta9 2.114550 1_555
O20 Ta14 1.948126 1_555
O20 Ta9 2.040418 1_565
O20 Ta11 2.114550 1_555
O21 Ta14 1.948125 1_555
O21 Ta8 2.040418 1_556
O21 Ta10 2.114550 1_555
O22 Ta14 1.948125 1_555
O22 Ta7 2.040418 1_655
O22 Ta12 2.114550 1_555
O23 Ta4 2.013154 1_555
O23 Ta14 2.036374 1_555
O23 Ta12 2.180015 1_555
O24 Ta6 2.013154 1_555
O24 Ta14 2.036374 1_555
O24 Ta11 2.180015 1_555
O25 Ta5 2.013154 1_555
O25 Ta14 2.036374 1_555
O25 Ta10 2.180015 1_555
O26 Ta1 2.013154 1_555
O26 Ta13 2.036374 1_555
O26 Ta9 2.180015 1_555
O27 Ta3 2.013154 1_555
O27 Ta13 2.036374 1_555
O27 Ta8 2.180015 1_555
O28 Ta2 2.013154 1_555
O28 Ta13 2.036374 1_555
O28 Ta7 2.180015 1_555
O29 Ta12 2.063866 1_546
O29 Ta6 2.080417 1_555
O29 Ta10 2.090167 1_555
O29 Rb1 3.179647 1_545
O30 Ta11 2.063866 1_654
O30 Ta5 2.080417 1_555
O30 Ta12 2.090167 1_555
O30 Rb1 3.179647 1_554
O31 Ta10 2.063866 1_465
O31 Ta4 2.080417 1_555
O31 Ta11 2.090167 1_555
O31 Rb1 3.179647 1_455
