# generated using pymatgen
data_MgTi2(PS3)4
_symmetry_space_group_name_H-M   'P 1'
_cell_length_a   7.05280171
_cell_length_b   6.65389438
_cell_length_c   11.24193618
_cell_angle_alpha   101.04069681
_cell_angle_beta   102.42812599
_cell_angle_gamma   109.44883776
_symmetry_Int_Tables_number   1
_chemical_formula_structural   MgTi2(PS3)4
_chemical_formula_sum   'Mg1 Ti2 P4 S12'
_cell_volume   465.54607843
_cell_formula_units_Z   1
loop_
 _symmetry_equiv_pos_site_id
 _symmetry_equiv_pos_as_xyz
  1  'x, y, z'
loop_
 _atom_site_type_symbol
 _atom_site_label
 _atom_site_symmetry_multiplicity
 _atom_site_fract_x
 _atom_site_fract_y
 _atom_site_fract_z
 _atom_site_occupancy
  Mg  Mg0  1  0.51772900  0.51762100  0.03500900  1
  Ti  Ti0  1  0.84457500  0.84460400  0.68902400  1
  Ti  Ti1  1  0.60391800  0.10387000  0.20753800  1
  P  P0  1  0.73638900  0.86661500  0.37775600  1
  P  P1  1  0.60607200  0.99600600  0.87499200  1
  P  P2  1  0.26893100  0.87901200  0.87496200  1
  P  P3  1  0.64173100  0.51148400  0.37768800  1
  S  S0  1  0.69144400  0.73259000  0.87804100  1
  S  S1  1  0.18676700  0.14566900  0.87820500  1
  S  S2  1  0.97530500  0.03739500  0.54308100  1
  S  S3  1  0.56781700  0.50589300  0.54287100  1
  S  S4  1  0.29349200  0.77637300  0.03826000  1
  S  S5  1  0.74502000  0.26202000  0.03830200  1
  S  S6  1  0.39001300  0.33960200  0.21408300  1
  S  S7  1  0.82448500  0.87484900  0.21419600  1
  S  S8  1  0.65219700  0.09208600  0.72069200  1
  S  S9  1  0.06843300  0.62870700  0.72073600  1
  S  S10  1  0.46941800  0.92950800  0.35886800  1
  S  S11  1  0.88978200  0.42961600  0.35902900  1
loop_
_geom_bond_atom_site_label_1
_geom_bond_atom_site_label_2
_geom_bond_distance
_geom_bond_site_symmetry_2
Mg0 S6 2.692675 1_555
Mg0 S7 2.693342 1_555
Mg0 S5 2.697732 1_555
Mg0 S4 2.698292 1_555
Mg0 S0 2.718687 1_554
Mg0 S1 2.718832 1_554
P0 S10 2.037688 1_555
P0 S2 2.037861 1_565
P0 S7 2.068245 1_555
P1 S8 2.013112 1_565
P1 S0 2.037826 1_555
P1 S5 2.071180 1_566
P2 S9 2.012437 1_555
P2 S1 2.038215 1_565
P2 S4 2.070903 1_556
P3 S11 2.037193 1_555
P3 S3 2.037577 1_555
P3 S6 2.068655 1_555
S0 Ti0 2.701027 1_555
S1 Ti0 2.701861 1_445
S2 Ti0 2.420155 1_545
S3 Ti0 2.420892 1_555
S4 Ti1 2.569952 1_565
S5 Ti1 2.569390 1_555
S6 Ti1 2.514174 1_555
S7 Ti1 2.513953 1_565
S8 Ti0 2.480038 1_545
S9 Ti0 2.479464 1_455
S10 Ti1 2.420292 1_565
S11 Ti1 2.421024 1_555
