# generated using pymatgen
data_BaCoBP2HO9
_symmetry_space_group_name_H-M   'P 1'
_cell_length_a   8.12313483
_cell_length_b   8.38714567
_cell_length_c   10.74535165
_cell_angle_alpha   79.41001572
_cell_angle_beta   87.08932933
_cell_angle_gamma   88.48925798
_symmetry_Int_Tables_number   1
_chemical_formula_structural   BaCoBP2HO9
_chemical_formula_sum   'Ba4 Co4 B4 P8 H4 O36'
_cell_volume   718.57420621
_cell_formula_units_Z   4
loop_
 _symmetry_equiv_pos_site_id
 _symmetry_equiv_pos_as_xyz
  1  'x, y, z'
loop_
 _atom_site_type_symbol
 _atom_site_label
 _atom_site_symmetry_multiplicity
 _atom_site_fract_x
 _atom_site_fract_y
 _atom_site_fract_z
 _atom_site_occupancy
  Ba  Ba0  1  0.69030600  0.88556100  0.13852100  1
  Ba  Ba1  1  0.69026000  0.88455400  0.63831200  1
  Ba  Ba2  1  0.30986800  0.11535200  0.36182500  1
  Ba  Ba3  1  0.30952500  0.11422100  0.86130300  1
  Co  Co0  1  0.19986000  0.80211200  0.63687100  1
  Co  Co1  1  0.80013100  0.19786200  0.36318400  1
  Co  Co2  1  0.20081400  0.80428500  0.13632600  1
  Co  Co3  1  0.79868600  0.19600500  0.86425200  1
  B  B0  1  0.74431100  0.54816700  0.44343300  1
  B  B1  1  0.74437000  0.54707700  0.94336300  1
  B  B2  1  0.25597600  0.45279000  0.05667100  1
  B  B3  1  0.25569700  0.45186600  0.55648200  1
  P  P0  1  0.94073000  0.81754500  0.38733300  1
  P  P1  1  0.94007800  0.81676600  0.88823500  1
  P  P2  1  0.05976100  0.18335800  0.11179300  1
  P  P3  1  0.05910900  0.18254100  0.61264500  1
  P  P4  1  0.56820600  0.30111800  0.09991700  1
  P  P5  1  0.56891000  0.30251900  0.59948600  1
  P  P6  1  0.43115500  0.69758900  0.40046100  1
  P  P7  1  0.43185900  0.69869100  0.90010900  1
  H  H0  1  0.94679500  0.45297000  0.36638100  1
  H  H1  1  0.94674700  0.45266800  0.86554100  1
  H  H2  1  0.05369300  0.54790800  0.13379600  1
  H  H3  1  0.05323000  0.54693300  0.63369700  1
  O  O0  1  0.62021600  0.19431100  0.22386500  1
  O  O1  1  0.62149400  0.19621500  0.72366100  1
  O  O2  1  0.37876000  0.80406700  0.27636000  1
  O  O3  1  0.37991800  0.80558300  0.77615600  1
  O  O4  1  0.13687200  0.34025100  0.02039300  1
  O  O5  1  0.13668200  0.33924900  0.52049100  1
  O  O6  1  0.86336600  0.66075100  0.47941000  1
  O  O7  1  0.86335000  0.65957700  0.97971100  1
  O  O8  1  0.79651300  0.94542400  0.37760900  1
  O  O9  1  0.79566900  0.94418000  0.87828300  1
  O  O10  1  0.20393800  0.05546200  0.12200000  1
  O  O11  1  0.20335500  0.05463800  0.62251500  1
  O  O12  1  0.17290300  0.55768800  0.13614100  1
  O  O13  1  0.17241800  0.55740400  0.63549500  1
  O  O14  1  0.82761000  0.44259000  0.36446100  1
  O  O15  1  0.82754700  0.44234500  0.86389800  1
  O  O16  1  0.42877900  0.79570700  0.00869500  1
  O  O17  1  0.42771500  0.79405200  0.50945700  1
  O  O18  1  0.57233000  0.20593000  0.49057100  1
  O  O19  1  0.57089900  0.20379400  0.99149000  1
  O  O20  1  0.67428800  0.45711700  0.06535100  1
  O  O21  1  0.67419300  0.45892900  0.56543200  1
  O  O22  1  0.32584000  0.54116200  0.43449900  1
  O  O23  1  0.32581000  0.54260700  0.93455100  1
  O  O24  1  0.98250800  0.77901000  0.25466100  1
  O  O25  1  0.98347600  0.77866600  0.75549900  1
  O  O26  1  0.01646200  0.22132000  0.24452900  1
  O  O27  1  0.01697000  0.22136400  0.74514500  1
  O  O28  1  0.38722400  0.35957900  0.13348600  1
  O  O29  1  0.38735400  0.35930000  0.63340200  1
  O  O30  1  0.61270200  0.64068000  0.36655800  1
  O  O31  1  0.61291200  0.64028800  0.86656900  1
  O  O32  1  0.91350000  0.13812700  0.04297900  1
  O  O33  1  0.91279100  0.13734600  0.54426600  1
  O  O34  1  0.08723700  0.86263000  0.45557300  1
  O  O35  1  0.08632000  0.86219500  0.95690000  1
loop_
_geom_bond_atom_site_label_1
_geom_bond_atom_site_label_2
_geom_bond_distance
_geom_bond_site_symmetry_2
Ba0 O24 2.787304 1_555
Ba0 O16 2.792671 1_555
Ba0 O32 2.835919 1_565
Ba0 O9 2.840354 1_554
Ba0 O8 2.884204 1_555
Ba0 O2 2.898956 1_555
Ba0 O0 2.934775 1_565
Ba0 O30 2.946432 1_555
Ba0 O19 3.004996 1_564
Ba0 O7 3.047137 1_554
Ba1 O17 2.795204 1_555
Ba1 O25 2.798122 1_555
Ba1 O33 2.830746 1_565
Ba1 O8 2.846953 1_555
Ba1 O3 2.887217 1_555
Ba1 O9 2.890170 1_555
Ba1 O31 2.944844 1_555
Ba1 O1 2.956001 1_565
Ba1 O18 3.024691 1_565
Ba1 O6 3.034982 1_555
Ba2 O18 2.794228 1_555
Ba2 O26 2.800110 1_555
Ba2 O34 2.830259 1_545
Ba2 O11 2.847359 1_555
Ba2 O0 2.887774 1_555
Ba2 O10 2.890929 1_555
Ba2 O28 2.945289 1_555
Ba2 O2 2.953780 1_545
Ba2 O17 3.023532 1_545
Ba2 O5 3.034159 1_555
Ba3 O27 2.790946 1_555
Ba3 O19 2.793069 1_555
Ba3 O35 2.832934 1_545
Ba3 O10 2.845443 1_556
Ba3 O11 2.880265 1_555
Ba3 O1 2.901689 1_555
Ba3 O3 2.933296 1_545
Ba3 O29 2.946682 1_555
Ba3 O16 3.007907 1_546
Ba3 O4 3.048051 1_556
Co0 O13 2.073132 1_555
Co0 O11 2.095960 1_565
Co0 O25 2.109891 1_455
Co0 O3 2.149590 1_555
Co0 O34 2.163975 1_555
Co0 O17 2.252756 1_555
Co1 O14 2.073132 1_555
Co1 O8 2.095177 1_545
Co1 O26 2.109703 1_655
Co1 O0 2.149134 1_555
Co1 O33 2.162074 1_555
Co1 O18 2.252252 1_555
Co2 O10 2.084604 1_565
Co2 O12 2.086942 1_555
Co2 O24 2.120901 1_455
Co2 O2 2.138532 1_555
Co2 O35 2.152245 1_554
Co2 O16 2.255321 1_555
Co3 O15 2.084770 1_555
Co3 O9 2.090354 1_545
Co3 O27 2.125245 1_655
Co3 O1 2.138616 1_555
Co3 O32 2.146884 1_556
Co3 O19 2.250968 1_555
B0 O14 1.465714 1_555
B0 O21 1.479571 1_555
B0 O6 1.482109 1_555
B0 O30 1.495893 1_555
B1 O15 1.463904 1_555
B1 O20 1.481526 1_556
B1 O7 1.482842 1_555
B1 O31 1.496915 1_555
B2 O12 1.464557 1_555
B2 O23 1.481485 1_554
B2 O4 1.483448 1_555
B2 O28 1.495785 1_555
B3 O13 1.465712 1_555
B3 O22 1.479681 1_555
B3 O5 1.482144 1_555
B3 O29 1.496593 1_555
H0 O14 0.975942 1_555
H1 O15 0.975750 1_555
H2 O12 0.975965 1_555
H3 O13 0.975943 1_555
O0 P4 1.534107 1_555
O1 P5 1.535671 1_555
O2 P6 1.535188 1_555
O3 P7 1.534275 1_555
O4 P2 1.610727 1_555
O5 P3 1.614626 1_555
O6 P0 1.614128 1_555
O7 P1 1.611686 1_555
O8 P0 1.561616 1_555
O9 P1 1.560166 1_555
O10 P2 1.561369 1_555
O11 P3 1.561889 1_555
O16 P7 1.539171 1_554
O17 P6 1.539747 1_555
O18 P5 1.539710 1_555
O19 P4 1.539555 1_556
O20 P4 1.562278 1_555
O21 P5 1.561140 1_555
O22 P6 1.561392 1_555
O23 P7 1.562630 1_555
O24 P0 1.538318 1_555
O25 P1 1.539878 1_555
O26 P2 1.539307 1_555
O27 P3 1.537957 1_555
O28 P4 1.582714 1_555
O29 P5 1.583298 1_555
O30 P6 1.583540 1_555
O31 P7 1.583006 1_555
O32 P2 1.522609 1_655
O33 P3 1.520212 1_655
O34 P0 1.520282 1_455
O35 P1 1.522167 1_455
