# generated using pymatgen
data_Na4Mg2Nb2Si3(SO8)3
_symmetry_space_group_name_H-M   'P 1'
_cell_length_a   8.97644748
_cell_length_b   8.97134238
_cell_length_c   22.66468358
_cell_angle_alpha   89.68530597
_cell_angle_beta   90.28901681
_cell_angle_gamma   120.50165471
_symmetry_Int_Tables_number   1
_chemical_formula_structural   Na4Mg2Nb2Si3(SO8)3
_chemical_formula_sum   'Na12 Mg6 Nb6 Si9 S9 O72'
_cell_volume   1572.59375210
_cell_formula_units_Z   3
loop_
 _symmetry_equiv_pos_site_id
 _symmetry_equiv_pos_as_xyz
  1  'x, y, z'
loop_
 _atom_site_type_symbol
 _atom_site_label
 _atom_site_symmetry_multiplicity
 _atom_site_fract_x
 _atom_site_fract_y
 _atom_site_fract_z
 _atom_site_occupancy
  Na  Na0  1  0.36945724  0.35082896  0.24509681  1
  Na  Na1  1  0.64419159  0.63060787  0.74657279  1
  Na  Na2  1  0.02436765  0.68131465  0.59091164  1
  Na  Na3  1  0.32093854  0.96929582  0.07868434  1
  Na  Na4  1  0.69959568  0.02567208  0.90775617  1
  Na  Na5  1  0.98605431  0.30450179  0.42291931  1
  Na  Na6  1  0.01150196  0.01587254  0.49990566  1
  Na  Na7  1  0.01063938  0.00183651  0.99026897  1
  Na  Na8  1  0.67896317  0.33381192  0.82126819  1
  Na  Na9  1  0.64710606  0.31830991  0.32954272  1
  Na  Na10  1  0.34858868  0.66941971  0.15472520  1
  Na  Na11  1  0.33221322  0.65091722  0.65715517  1
  Mg  Mg0  1  0.01355177  0.00214673  0.35226369  1
  Mg  Mg1  1  0.00602571  0.99690799  0.84996749  1
  Mg  Mg2  1  0.68036603  0.33522151  0.68705149  1
  Mg  Mg3  1  0.65282599  0.31845613  0.18344567  1
  Mg  Mg4  1  0.33991493  0.66831208  0.01890902  1
  Mg  Mg5  1  0.33876872  0.64883998  0.52190361  1
  Nb  Nb0  1  0.98162970  0.99455722  0.64805985  1
  Nb  Nb1  1  0.01004548  0.00084018  0.14147375  1
  Nb  Nb2  1  0.65139463  0.31458626  0.98082916  1
  Nb  Nb3  1  0.66202563  0.34177362  0.48596897  1
  Nb  Nb4  1  0.34028275  0.67033744  0.31338608  1
  Nb  Nb5  1  0.32898357  0.68285049  0.80932717  1
  Si  Si0  1  0.29691713  0.00337919  0.25229151  1
  Si  Si1  1  0.99145596  0.70890099  0.75107932  1
  Si  Si2  1  0.71229086  0.01387710  0.75687930  1
  Si  Si3  1  0.96251522  0.33670494  0.58422354  1
  Si  Si4  1  0.65726234  0.62795725  0.59064738  1
  Si  Si5  1  0.66386426  0.03577062  0.08657965  1
  Si  Si6  1  0.38315301  0.35224414  0.08738569  1
  Si  Si7  1  0.31445471  0.95145792  0.92071572  1
  Si  Si8  1  0.33033691  0.36618625  0.41811747  1
  S  S0  1  0.71545160  0.71379834  0.25223377  1
  S  S1  1  0.99558287  0.28835149  0.25101843  1
  S  S2  1  0.28810899  0.28884357  0.75154140  1
  S  S3  1  0.37473652  0.04171740  0.58475574  1
  S  S4  1  0.95176125  0.61697627  0.08539047  1
  S  S5  1  0.62410098  0.66356710  0.91763678  1
  S  S6  1  0.04500168  0.37992801  0.91839343  1
  S  S7  1  0.62536529  0.95745574  0.41751951  1
  S  S8  1  0.04408084  0.66954999  0.41749573  1
  O  O0  1  0.19711415  0.02845707  0.30476525  1
  O  O1  1  0.80923110  0.79997365  0.30546555  1
  O  O2  1  0.97106341  0.18996491  0.30532356  1
  O  O3  1  0.20621646  0.18946786  0.80445942  1
  O  O4  1  0.97125787  0.80300158  0.80600008  1
  O  O5  1  0.81608717  0.02737963  0.81542210  1
  O  O6  1  0.80535446  0.96957501  0.69773317  1
  O  O7  1  0.17939525  0.21072945  0.69706191  1
  O  O8  1  0.03534634  0.83344585  0.68954216  1
  O  O9  1  0.79122558  0.81857057  0.19786259  1
  O  O10  1  0.02802763  0.20369236  0.19921905  1
  O  O11  1  0.17101023  0.97127627  0.19115960  1
  O  O12  1  0.86157666  0.36058298  0.63619242  1
  O  O13  1  0.47815175  0.12327362  0.63670630  1
  O  O14  1  0.63708830  0.51382871  0.64648566  1
  O  O15  1  0.86952621  0.52058203  0.13883983  1
  O  O16  1  0.63915617  0.13401919  0.13935073  1
  O  O17  1  0.48203174  0.36800537  0.14735863  1
  O  O18  1  0.47638311  0.30332805  0.03015366  1
  O  O19  1  0.84726862  0.54128839  0.03106562  1
  O  O20  1  0.69996204  0.16330448  0.02422643  1
  O  O21  1  0.46298447  0.15716215  0.52921888  1
  O  O22  1  0.69521727  0.52661226  0.53043961  1
  O  O23  1  0.83568960  0.30049345  0.51994523  1
  O  O24  1  0.53530163  0.68216850  0.96840281  1
  O  O25  1  0.14649609  0.46279449  0.97083451  1
  O  O26  1  0.31066808  0.84964868  0.97865103  1
  O  O27  1  0.53728878  0.85607093  0.46894053  1
  O  O28  1  0.30031599  0.46881620  0.46840107  1
  O  O29  1  0.14438378  0.69499639  0.47053805  1
  O  O30  1  0.13439907  0.64194557  0.36435708  1
  O  O31  1  0.51350540  0.87001045  0.36166126  1
  O  O32  1  0.35954529  0.49566260  0.35607062  1
  O  O33  1  0.12955149  0.48322754  0.86367070  1
  O  O34  1  0.35954448  0.85823174  0.86230374  1
  O  O35  1  0.52070483  0.63307309  0.86209821  1
  O  O36  1  0.01057170  0.81029770  0.40732244  1
  O  O37  1  0.79615387  0.97633097  0.40874975  1
  O  O38  1  0.15562103  0.18120089  0.41059798  1
  O  O39  1  0.01168155  0.20201226  0.91338173  1
  O  O40  1  0.16533328  0.99413074  0.91194502  1
  O  O41  1  0.79548209  0.82221057  0.91354395  1
  O  O42  1  0.98465473  0.16293053  0.58987671  1
  O  O43  1  0.20280408  0.03002615  0.58520756  1
  O  O44  1  0.85278479  0.81428956  0.58880653  1
  O  O45  1  0.96760548  0.79819711  0.08869573  1
  O  O46  1  0.84185479  0.02155164  0.09383016  1
  O  O47  1  0.18979026  0.15431575  0.09028928  1
  O  O48  1  0.66410374  0.15680399  0.74436493  1
  O  O49  1  0.46094961  0.31400263  0.74439664  1
  O  O50  1  0.82638140  0.52069462  0.74493280  1
  O  O51  1  0.69020392  0.53937465  0.24734916  1
  O  O52  1  0.85561129  0.32310757  0.24169483  1
  O  O53  1  0.48647111  0.17198183  0.24700542  1
  O  O54  1  0.64738605  0.50896678  0.92462360  1
  O  O55  1  0.86856396  0.36757166  0.92117577  1
  O  O56  1  0.51234607  0.14781463  0.92266230  1
  O  O57  1  0.64492011  0.13351383  0.41714671  1
  O  O58  1  0.50979477  0.35237873  0.42259997  1
  O  O59  1  0.87250989  0.49912825  0.41882545  1
  O  O60  1  0.33543008  0.49505974  0.07436558  1
  O  O61  1  0.12801466  0.65098087  0.07966518  1
  O  O62  1  0.49630188  0.85080852  0.07669825  1
  O  O63  1  0.35014390  0.87137378  0.57327405  1
  O  O64  1  0.51058267  0.67086914  0.57822886  1
  O  O65  1  0.14278641  0.51309888  0.57458683  1
  O  O66  1  0.30883153  0.82113730  0.25972532  1
  O  O67  1  0.53132752  0.69067887  0.25518678  1
  O  O68  1  0.16686175  0.46340058  0.25508509  1
  O  O69  1  0.30848302  0.46822144  0.75615197  1
  O  O70  1  0.17067347  0.68882557  0.75761440  1
  O  O71  1  0.52304023  0.81416632  0.75916847  1
loop_
_geom_bond_atom_site_label_1
_geom_bond_atom_site_label_2
_geom_bond_distance
_geom_bond_site_symmetry_2
Na0 O53 2.321454 1_555
Na0 O17 2.410973 1_555
Na0 O51 2.491800 1_555
Na0 O68 2.499903 1_555
Na0 O67 2.639429 1_555
Na0 O0 2.832450 1_555
Na0 O10 2.844803 1_555
Na0 O32 2.859704 1_555
Na1 O50 2.299206 1_555
Na1 O71 2.408790 1_555
Na1 O49 2.456370 1_555
Na1 O14 2.490851 1_555
Na1 O69 2.607125 1_555
Na1 O6 2.842376 1_555
Na1 O35 2.853024 1_555
Na1 O4 2.863431 1_555
Na2 O65 2.276577 1_555
Na2 O44 2.379391 1_455
Na2 O63 2.561524 1_555
Na2 O8 2.600836 1_555
Na2 O12 2.679997 1_455
Na2 O43 2.698182 1_565
Na2 O22 2.889939 1_455
Na2 O29 2.917303 1_555
Na3 O62 2.304287 1_555
Na3 O61 2.476704 1_555
Na3 O47 2.490350 1_565
Na3 O26 2.495025 1_554
Na3 O45 2.743813 1_455
Na3 O18 2.805660 1_565
Na3 O16 2.816278 1_565
Na3 O11 2.892999 1_555
Na4 O5 2.340648 1_555
Na4 O41 2.383471 1_545
Na4 O39 2.422122 1_655
Na4 O56 2.453482 1_555
Na4 O55 2.661626 1_555
Na4 O34 2.822380 1_545
Na4 O20 2.919683 1_556
Na4 O24 2.986887 1_545
Na5 O38 2.309823 1_655
Na5 O59 2.428986 1_555
Na5 O37 2.566537 1_545
Na5 O23 2.576581 1_555
Na5 O28 2.638076 1_655
Na5 O57 2.641385 1_555
Na5 O2 2.839672 1_555
Na5 O30 2.929349 1_655
Na6 O38 2.452804 1_555
Na6 O42 2.512789 1_455
Na6 O43 2.539805 1_555
Na6 O44 2.594927 1_445
Na6 O37 2.720782 1_445
Na6 O36 2.798446 1_545
Na7 O40 2.282093 1_545
Na7 O41 2.487652 1_445
Na7 O39 2.492112 1_555
Na7 O47 2.713026 1_556
Na7 O45 2.776851 1_446
Na7 O46 2.854557 1_456
Na8 O50 2.300960 1_555
Na8 O48 2.321762 1_555
Na8 O49 2.552027 1_555
Na8 O55 2.749748 1_555
Na8 O56 2.785950 1_555
Na8 O54 2.921682 1_555
Na9 O53 2.319520 1_555
Na9 O58 2.544942 1_555
Na9 O57 2.573403 1_555
Na9 O51 2.596368 1_555
Na9 O52 2.724704 1_555
Na9 O59 2.735514 1_555
Na10 O62 2.309841 1_555
Na10 O60 2.370570 1_555
Na10 O61 2.545269 1_555
Na10 O67 2.749732 1_555
Na10 O66 2.860184 1_555
Na10 O68 2.860361 1_555
Na11 O64 2.351602 1_555
Na11 O65 2.404420 1_555
Na11 O63 2.681516 1_555
Na11 O69 2.715902 1_555
Na11 O71 2.806334 1_555
Na11 O70 2.818670 1_555
Mg0 O0 1.884139 1_555
Mg0 O38 1.970157 1_555
Mg0 O1 2.098377 1_445
Mg0 O36 2.109569 1_545
Mg0 O2 2.178313 1_455
Mg0 O37 2.250333 1_445
Mg1 O4 1.892463 1_455
Mg1 O40 2.008549 1_555
Mg1 O5 2.012962 1_465
Mg1 O3 2.031057 1_565
Mg1 O41 2.258389 1_455
Mg1 O39 2.321123 1_565
Mg2 O12 1.914876 1_555
Mg2 O50 2.000083 1_555
Mg2 O48 2.003155 1_555
Mg2 O14 2.043492 1_555
Mg2 O13 2.170633 1_555
Mg2 O49 2.290684 1_555
Mg3 O16 1.887467 1_555
Mg3 O17 1.972869 1_555
Mg3 O53 2.010181 1_555
Mg3 O15 2.124409 1_555
Mg3 O52 2.226517 1_555
Mg3 O51 2.343066 1_555
Mg4 O60 1.978087 1_555
Mg4 O26 1.990698 1_554
Mg4 O62 2.009626 1_555
Mg4 O24 2.049211 1_554
Mg4 O25 2.086749 1_554
Mg4 O61 2.293956 1_555
Mg5 O28 1.910335 1_555
Mg5 O64 1.928956 1_555
Mg5 O65 1.958080 1_555
Mg5 O27 2.169525 1_555
Mg5 O63 2.273571 1_555
Mg5 O29 2.297627 1_555
Nb0 O6 1.864585 1_555
Nb0 O44 1.966241 1_555
Nb0 O8 1.973213 1_655
Nb0 O42 1.989540 1_565
Nb0 O7 2.157522 1_665
Nb0 O43 2.335473 1_665
Nb1 O47 1.895006 1_555
Nb1 O46 1.935466 1_455
Nb1 O11 1.948209 1_545
Nb1 O45 2.048733 1_445
Nb1 O10 2.185559 1_555
Nb1 O9 2.215247 1_445
Nb2 O20 1.892392 1_556
Nb2 O18 1.892973 1_556
Nb2 O56 1.908870 1_555
Nb2 O54 2.168854 1_555
Nb2 O19 2.213472 1_556
Nb2 O55 2.221033 1_555
Nb3 O22 1.835278 1_555
Nb3 O23 1.931599 1_555
Nb3 O21 1.972842 1_555
Nb3 O58 2.012414 1_555
Nb3 O59 2.275159 1_555
Nb3 O57 2.384501 1_555
Nb4 O32 1.917874 1_555
Nb4 O66 1.937864 1_555
Nb4 O31 2.000165 1_555
Nb4 O30 2.086960 1_555
Nb4 O67 2.101578 1_555
Nb4 O68 2.165274 1_555
Nb5 O70 1.858988 1_555
Nb5 O34 1.889922 1_555
Nb5 O71 1.907011 1_555
Nb5 O33 2.161615 1_555
Nb5 O69 2.203978 1_555
Nb5 O35 2.311973 1_555
O0 Si0 1.576687 1_555
O1 S0 1.449579 1_555
O2 S1 1.461510 1_555
O3 S2 1.451056 1_555
O4 Si1 1.569773 1_555
O5 Si2 1.586834 1_555
O6 Si2 1.734081 1_565
O7 S2 1.507043 1_555
O8 Si1 1.700135 1_455
O9 S0 1.487095 1_555
O10 S1 1.509229 1_455
O11 Si0 1.714106 1_565
O12 Si3 1.569959 1_555
O13 S3 1.446516 1_555
O14 Si4 1.575636 1_555
O15 S4 1.452506 1_555
O16 Si5 1.571404 1_555
O17 Si6 1.586801 1_555
O18 Si6 1.722076 1_555
O19 S4 1.485883 1_555
O20 Si5 1.738323 1_555
O21 S3 1.564436 1_555
O22 Si4 1.771327 1_555
O23 Si3 1.771165 1_555
O24 S5 1.460646 1_555
O25 S6 1.451419 1_555
O26 Si7 1.585984 1_555
O27 S7 1.441625 1_555
O28 Si8 1.576606 1_555
O29 S8 1.446191 1_555
O30 S8 1.544693 1_555
O31 S7 1.557208 1_555
O32 Si8 1.752776 1_555
O33 S6 1.502002 1_555
O34 Si7 1.725460 1_555
O35 S5 1.501666 1_555
O36 S8 1.455919 1_555
O37 S7 1.468902 1_555
O38 Si8 1.612810 1_555
O39 S6 1.472094 1_555
O40 Si7 1.579417 1_555
O41 S5 1.475888 1_555
O42 Si3 1.672848 1_555
O43 S3 1.492929 1_555
O44 Si4 1.702412 1_555
O45 S4 1.560625 1_555
O46 Si5 1.673323 1_555
O47 Si6 1.743918 1_555
O48 Si2 1.571462 1_555
O49 S2 1.459778 1_555
O50 Si1 1.589565 1_555
O51 S0 1.467620 1_555
O52 S1 1.454247 1_555
O53 Si0 1.607759 1_555
O54 S5 1.511290 1_555
O55 S6 1.532105 1_655
O56 Si7 1.756161 1_545
O57 S7 1.498018 1_545
O58 Si8 1.679708 1_555
O59 S8 1.523171 1_655
O60 Si6 1.569690 1_555
O61 S4 1.457641 1_455
O62 Si5 1.591557 1_565
O63 S3 1.453687 1_565
O64 Si4 1.571831 1_555
O65 Si3 1.603368 1_455
O66 Si0 1.699175 1_565
O67 S0 1.559536 1_555
O68 S1 1.545222 1_455
O69 S2 1.528717 1_555
O70 Si1 1.712844 1_455
O71 Si2 1.734600 1_565
