# generated using pymatgen
data_MgMn4O6
_symmetry_space_group_name_H-M   'P 1'
_cell_length_a   5.35387218
_cell_length_b   6.07017282
_cell_length_c   5.35362246
_cell_angle_alpha   118.82458460
_cell_angle_beta   60.14761600
_cell_angle_gamma   116.02384720
_symmetry_Int_Tables_number   1
_chemical_formula_structural   MgMn4O6
_chemical_formula_sum   'Mg1 Mn4 O6'
_cell_volume   127.60128235
_cell_formula_units_Z   1
loop_
 _symmetry_equiv_pos_site_id
 _symmetry_equiv_pos_as_xyz
  1  'x, y, z'
loop_
 _atom_site_type_symbol
 _atom_site_label
 _atom_site_symmetry_multiplicity
 _atom_site_fract_x
 _atom_site_fract_y
 _atom_site_fract_z
 _atom_site_occupancy
  Mg  Mg0  1  0.25351295  0.76169984  0.25198052  1
  Mn  Mn0  1  0.01779651  0.07522499  0.02511471  1
  Mn  Mn1  1  0.65853780  0.98388935  0.65943700  1
  Mn  Mn2  1  0.46628196  0.42715162  0.47742359  1
  Mn  Mn3  1  0.83357286  0.51409390  0.83959724  1
  O  O0  1  0.27275762  0.75283553  0.60541841  1
  O  O1  1  0.03510877  0.24800942  0.74827337  1
  O  O2  1  0.44223352  0.21667105  0.04589512  1
  O  O3  1  0.62621239  0.74439971  0.89049092  1
  O  O4  1  0.88279016  0.75001381  0.24864328  1
  O  O5  1  0.76119645  0.27601078  0.45772583  1
loop_
_geom_bond_atom_site_label_1
_geom_bond_atom_site_label_2
_geom_bond_distance
_geom_bond_site_symmetry_2
Mg0 O4 1.963499 1_455
Mg0 O3 1.970131 1_554
Mg0 O0 1.972551 1_555
Mn0 O5 2.077652 1_455
Mn0 O2 2.088256 1_555
Mn0 O1 2.140590 1_554
Mn0 O3 2.315549 1_444
Mn0 O0 2.406714 1_544
Mn0 O4 2.452811 1_445
Mn1 O2 1.962127 1_566
Mn1 O0 1.994565 1_555
Mn1 O4 2.037152 1_555
Mn1 O1 2.060171 1_665
Mn1 O3 2.230137 1_555
Mn1 O5 2.238958 1_565
Mn2 O2 2.071658 1_555
Mn2 O5 2.087569 1_555
Mn2 O1 2.144608 1_555
Mn2 O0 2.288175 1_555
Mn2 O3 2.379859 1_555
Mn2 O4 2.464623 1_555
Mn3 O5 1.966368 1_555
Mn3 O3 1.988617 1_555
Mn3 O4 2.033517 1_556
Mn3 O1 2.062693 1_655
Mn3 O0 2.242291 1_655
Mn3 O2 2.273512 1_556
