# generated using pymatgen
data_Na6La2Nb2Si5SO24
_symmetry_space_group_name_H-M   'P 1'
_cell_length_a   9.42060342
_cell_length_b   9.41293445
_cell_length_c   23.05800698
_cell_angle_alpha   89.77832203
_cell_angle_beta   90.56776583
_cell_angle_gamma   119.90112355
_symmetry_Int_Tables_number   1
_chemical_formula_structural   Na6La2Nb2Si5SO24
_chemical_formula_sum   'Na18 La6 Nb6 Si15 S3 O72'
_cell_volume   1772.41878683
_cell_formula_units_Z   3
loop_
 _symmetry_equiv_pos_site_id
 _symmetry_equiv_pos_as_xyz
  1  'x, y, z'
loop_
 _atom_site_type_symbol
 _atom_site_label
 _atom_site_symmetry_multiplicity
 _atom_site_fract_x
 _atom_site_fract_y
 _atom_site_fract_z
 _atom_site_occupancy
  Na  Na0  1  0.65638360  0.01983755  0.24796263  1
  Na  Na1  1  0.35729479  0.33839059  0.25519077  1
  Na  Na2  1  0.99450881  0.63540999  0.24976920  1
  Na  Na3  1  0.98603986  0.34991135  0.74589087  1
  Na  Na4  1  0.29777083  0.34255908  0.58217738  1
  Na  Na5  1  0.65785248  0.95206107  0.57994219  1
  Na  Na6  1  0.68673357  0.69673455  0.07300852  1
  Na  Na7  1  0.01861297  0.33474680  0.08154199  1
  Na  Na8  1  0.95280811  0.66519762  0.90481584  1
  Na  Na9  1  0.72401950  0.03662451  0.91276287  1
  Na  Na10  1  0.32472755  0.30637824  0.90540966  1
  Na  Na11  1  0.69887666  0.67876806  0.41594385  1
  Na  Na12  1  0.01511872  0.02576007  0.49856812  1
  Na  Na13  1  0.98721243  0.99681151  0.99788184  1
  Na  Na14  1  0.66215464  0.34749873  0.82828855  1
  Na  Na15  1  0.66320757  0.31776642  0.33738003  1
  Na  Na16  1  0.33346550  0.69960574  0.16383737  1
  Na  Na17  1  0.33068349  0.68254809  0.66545212  1
  La  La0  1  0.00929547  0.01744970  0.35435723  1
  La  La1  1  0.99311057  0.99631238  0.83190711  1
  La  La2  1  0.66757502  0.32865975  0.17859344  1
  La  La3  1  0.68695096  0.34405012  0.98357695  1
  La  La4  1  0.33792426  0.68024703  0.01473091  1
  La  La5  1  0.31934154  0.66460121  0.52405264  1
  Nb  Nb0  1  0.99214704  0.98852261  0.64964696  1
  Nb  Nb1  1  0.99355745  0.99153237  0.15607742  1
  Nb  Nb2  1  0.66590287  0.33662705  0.68527259  1
  Nb  Nb3  1  0.65131378  0.31805720  0.48396091  1
  Nb  Nb4  1  0.35115532  0.67154686  0.31502169  1
  Nb  Nb5  1  0.33658390  0.65028604  0.80469957  1
  Si  Si0  1  0.29647494  0.98877287  0.25331515  1
  Si  Si1  1  0.69651691  0.70158526  0.25531088  1
  Si  Si2  1  0.01332051  0.30856737  0.24922198  1
  Si  Si3  1  0.30614171  0.29614420  0.74800263  1
  Si  Si4  1  0.00234231  0.69246367  0.74998936  1
  Si  Si5  1  0.68909400  0.99826768  0.74721836  1
  Si  Si6  1  0.94196729  0.31421975  0.58730750  1
  Si  Si7  1  0.36827686  0.05303005  0.58811336  1
  Si  Si8  1  0.68448806  0.62522747  0.58348708  1
  Si  Si9  1  0.98258188  0.66009049  0.08827335  1
  Si  Si10  1  0.67949084  0.01745493  0.08785729  1
  Si  Si11  1  0.62964562  0.66514391  0.91293871  1
  Si  Si12  1  0.03987190  0.37114132  0.91156959  1
  Si  Si13  1  0.62099274  0.96875978  0.42252932  1
  Si  Si14  1  0.35303377  0.37832463  0.42236986  1
  S  S0  1  0.33918568  0.31681324  0.08410176  1
  S  S1  1  0.33618323  0.96680437  0.90801405  1
  S  S2  1  0.02097080  0.64261093  0.41245477  1
  O  O0  1  0.22654342  0.03586879  0.30775444  1
  O  O1  1  0.80316358  0.76383407  0.31304849  1
  O  O2  1  0.95393219  0.18128150  0.30163127  1
  O  O3  1  0.25372862  0.21263587  0.81058079  1
  O  O4  1  0.96711922  0.74445696  0.81199183  1
  O  O5  1  0.79286404  0.05347383  0.80721168  1
  O  O6  1  0.80576285  0.97324812  0.69669789  1
  O  O7  1  0.16168595  0.18992917  0.69769082  1
  O  O8  1  0.02040563  0.83322354  0.69961784  1
  O  O9  1  0.80562514  0.83561467  0.20033231  1
  O  O10  1  0.03950499  0.20727876  0.19255278  1
  O  O11  1  0.16555709  0.97101651  0.19806108  1
  O  O12  1  0.84287621  0.32467903  0.64282815  1
  O  O13  1  0.49103245  0.17247753  0.63810748  1
  O  O14  1  0.67910356  0.51009002  0.63739300  1
  O  O15  1  0.88899150  0.55434603  0.14464897  1
  O  O16  1  0.65895871  0.09876751  0.14615042  1
  O  O17  1  0.43490468  0.33709857  0.13735194  1
  O  O18  1  0.42601738  0.30799430  0.03199364  1
  O  O19  1  0.86487108  0.58320351  0.02962789  1
  O  O20  1  0.70416341  0.13010323  0.02927477  1
  O  O21  1  0.46500038  0.17009644  0.52784530  1
  O  O22  1  0.69857012  0.52993167  0.52435602  1
  O  O23  1  0.82138335  0.30127891  0.53006187  1
  O  O24  1  0.55933524  0.68363988  0.97451127  1
  O  O25  1  0.12821817  0.45056624  0.97309248  1
  O  O26  1  0.32151532  0.88717175  0.96480114  1
  O  O27  1  0.53816307  0.87179995  0.48105814  1
  O  O28  1  0.34128133  0.46401263  0.48053623  1
  O  O29  1  0.11575991  0.66135342  0.46583324  1
  O  O30  1  0.11455779  0.64136469  0.36020342  1
  O  O31  1  0.49408467  0.85785687  0.36412384  1
  O  O32  1  0.36514986  0.50701394  0.36447522  1
  O  O33  1  0.15816836  0.49521603  0.85628892  1
  O  O34  1  0.34039014  0.86462757  0.86023212  1
  O  O35  1  0.50164246  0.66334875  0.85892536  1
  O  O36  1  0.98874256  0.78042087  0.41159139  1
  O  O37  1  0.79304324  0.97215915  0.41708949  1
  O  O38  1  0.20285996  0.19491377  0.41981058  1
  O  O39  1  0.02279164  0.18993415  0.90845437  1
  O  O40  1  0.19230647  0.99120748  0.90504842  1
  O  O41  1  0.81316893  0.82427036  0.90813930  1
  O  O42  1  0.94888641  0.13931828  0.59153141  1
  O  O43  1  0.18913994  0.04481757  0.59331834  1
  O  O44  1  0.84799621  0.81253724  0.59341766  1
  O  O45  1  0.99076306  0.84049253  0.09562640  1
  O  O46  1  0.85961914  0.02188823  0.09336364  1
  O  O47  1  0.17704962  0.16459487  0.08664974  1
  O  O48  1  0.66475929  0.15520915  0.73287127  1
  O  O49  1  0.49295343  0.33865110  0.73526885  1
  O  O50  1  0.85065911  0.50563201  0.73694716  1
  O  O51  1  0.63704219  0.51269025  0.24239203  1
  O  O52  1  0.87103261  0.35608251  0.24238437  1
  O  O53  1  0.48329794  0.13411808  0.24511179  1
  O  O54  1  0.62300965  0.48827566  0.90832625  1
  O  O55  1  0.86231969  0.36536572  0.90664324  1
  O  O56  1  0.49027109  0.12795213  0.90780222  1
  O  O57  1  0.63475372  0.15293125  0.42468418  1
  O  O58  1  0.53473483  0.38458316  0.42162392  1
  O  O59  1  0.86174913  0.48587991  0.41396381  1
  O  O60  1  0.31373480  0.45968435  0.08137345  1
  O  O61  1  0.15686887  0.66628033  0.08616132  1
  O  O62  1  0.53762231  0.82552511  0.08677627  1
  O  O63  1  0.36855450  0.88307803  0.59015157  1
  O  O64  1  0.52336484  0.64546706  0.58659744  1
  O  O65  1  0.12862817  0.46318140  0.58882690  1
  O  O66  1  0.28911579  0.80755000  0.25890627  1
  O  O67  1  0.52524828  0.71723738  0.25960314  1
  O  O68  1  0.19314830  0.48018205  0.26014477  1
  O  O69  1  0.31029831  0.47895194  0.75193533  1
  O  O70  1  0.17147648  0.67754029  0.75286917  1
  O  O71  1  0.51134932  0.82687218  0.75390634  1
loop_
_geom_bond_atom_site_label_1
_geom_bond_atom_site_label_2
_geom_bond_distance
_geom_bond_site_symmetry_2
Na0 O53 2.359314 1_555
Na0 O16 2.456300 1_555
Na0 O67 2.490726 1_545
Na0 O2 2.719716 1_555
Na0 O52 2.782822 1_555
Na0 O9 2.943799 1_545
Na1 O51 2.329155 1_555
Na1 O68 2.499604 1_555
Na1 O53 2.728504 1_555
Na1 O0 2.756978 1_555
Na1 O17 2.822407 1_555
Na1 O32 2.963910 1_555
Na1 O10 2.969210 1_555
Na2 O52 2.290303 1_555
Na2 O66 2.424881 1_655
Na2 O15 2.579883 1_555
Na2 O30 2.765339 1_655
Na2 O68 2.899737 1_655
Na3 O50 2.381996 1_555
Na3 O48 2.658094 1_555
Na3 O69 2.668261 1_655
Na3 O12 2.672868 1_555
Na3 O70 2.686138 1_655
Na3 O5 2.838085 1_555
Na3 O33 2.951936 1_655
Na3 O7 2.962212 1_655
Na4 O65 2.379420 1_555
Na4 O43 2.471450 1_555
Na4 O28 2.549266 1_555
Na4 O64 2.571603 1_555
Na4 O42 2.872411 1_455
Na5 O42 2.422030 1_565
Na5 O63 2.480283 1_555
Na5 O27 2.480709 1_555
Na5 O64 2.512453 1_555
Na5 O44 2.713176 1_555
Na6 O62 2.292015 1_555
Na6 O24 2.532662 1_554
Na6 O45 2.533404 1_555
Na6 O19 2.605450 1_555
Na6 O46 2.695649 1_565
Na7 O60 2.419307 1_555
Na7 O46 2.567960 1_455
Na7 O47 2.680540 1_555
Na7 O61 2.719177 1_555
Na7 O25 2.723160 1_554
Na7 O20 2.862921 1_455
Na7 O10 2.869158 1_555
Na8 O4 2.246977 1_555
Na8 O41 2.438264 1_555
Na8 O55 2.508969 1_555
Na8 O54 2.697798 1_555
Na8 O40 2.757615 1_655
Na8 O19 2.992819 1_556
Na9 O39 2.443208 1_655
Na9 O5 2.508965 1_555
Na9 O41 2.527715 1_545
Na9 O55 2.696944 1_555
Na9 O56 2.735458 1_555
Na9 O20 2.866886 1_556
Na10 O3 2.324772 1_555
Na10 O54 2.456112 1_555
Na10 O39 2.488375 1_555
Na10 O40 2.582179 1_545
Na10 O56 2.804441 1_555
Na11 O36 2.404587 1_555
Na11 O58 2.410071 1_555
Na11 O37 2.443770 1_555
Na11 O1 2.546092 1_555
Na11 O22 2.860179 1_555
Na11 O59 2.903867 1_555
Na11 O32 2.963044 1_555
Na12 O38 2.488920 1_555
Na12 O42 2.614552 1_455
Na12 O37 2.652938 1_445
Na12 O43 2.670533 1_555
Na12 O44 2.859014 1_445
Na12 O36 2.978391 1_445
Na13 O46 2.585926 1_566
Na13 O41 2.629031 1_555
Na13 O47 2.649245 1_666
Na13 O39 2.654442 1_665
Na13 O45 2.695868 1_556
Na13 O40 2.915862 1_655
Na14 O54 2.411942 1_555
Na14 O55 2.543006 1_555
Na14 O56 2.635789 1_555
Na14 O49 2.636162 1_555
Na14 O50 2.686915 1_555
Na14 O48 2.862426 1_555
Na15 O57 2.470533 1_555
Na15 O59 2.475074 1_555
Na15 O58 2.539416 1_555
Na15 O53 2.724536 1_555
Na15 O52 2.852362 1_555
Na15 O51 2.938284 1_555
Na16 O61 2.344992 1_555
Na16 O62 2.457601 1_555
Na16 O66 2.543795 1_555
Na16 O67 2.791516 1_555
Na16 O68 2.871455 1_555
Na16 O60 2.891019 1_555
Na17 O63 2.453650 1_555
Na17 O70 2.510635 1_555
Na17 O71 2.559213 1_555
Na17 O65 2.655471 1_555
Na17 O69 2.701343 1_555
Na17 O64 2.724821 1_555
La0 O2 2.214295 1_455
La0 O0 2.249827 1_555
La0 O38 2.306799 1_555
La0 O37 2.368980 1_445
La0 O1 2.395041 1_445
La0 O36 2.511705 1_445
La1 O5 2.271726 1_565
La1 O4 2.306186 1_555
La1 O3 2.334049 1_665
La1 O41 2.426082 1_555
La1 O39 2.454020 1_665
La1 O40 2.528744 1_655
La2 O15 2.253443 1_555
La2 O16 2.255022 1_555
La2 O52 2.314661 1_555
La2 O53 2.362429 1_555
La2 O51 2.402583 1_555
La2 O17 2.417997 1_555
La3 O19 2.286007 1_556
La3 O20 2.344784 1_556
La3 O55 2.375147 1_555
La3 O54 2.448048 1_555
La3 O18 2.573656 1_556
La3 O56 2.613260 1_555
La4 O24 2.276713 1_554
La4 O25 2.284487 1_554
La4 O26 2.328617 1_554
La4 O61 2.338742 1_555
La4 O62 2.357880 1_555
La4 O60 2.496824 1_555
La5 O28 2.241074 1_555
La5 O27 2.247937 1_555
La5 O29 2.317772 1_555
La5 O65 2.385034 1_555
La5 O63 2.413865 1_555
La5 O64 2.468729 1_555
Nb0 O8 1.975930 1_655
Nb0 O44 2.002036 1_555
Nb0 O6 2.016319 1_555
Nb0 O7 2.081968 1_665
Nb0 O43 2.115114 1_665
Nb0 O42 2.127852 1_565
Nb1 O9 1.939926 1_555
Nb1 O11 1.969613 1_655
Nb1 O45 1.985497 1_555
Nb1 O46 2.021116 1_565
Nb1 O10 2.036784 1_665
Nb1 O47 2.330603 1_665
Nb2 O14 1.920064 1_555
Nb2 O13 1.929693 1_555
Nb2 O12 1.992522 1_555
Nb2 O49 2.013024 1_555
Nb2 O48 2.021938 1_555
Nb2 O50 2.047638 1_555
Nb3 O21 1.905625 1_555
Nb3 O23 1.984701 1_555
Nb3 O57 2.019617 1_555
Nb3 O22 2.040632 1_555
Nb3 O58 2.076467 1_555
Nb3 O59 2.439643 1_555
Nb4 O31 1.949689 1_555
Nb4 O67 1.960020 1_555
Nb4 O32 1.975646 1_555
Nb4 O68 2.090109 1_555
Nb4 O66 2.091131 1_555
Nb4 O30 2.355082 1_555
Nb5 O69 1.937410 1_555
Nb5 O35 1.941230 1_555
Nb5 O33 1.987667 1_555
Nb5 O71 2.034675 1_555
Nb5 O70 2.066887 1_555
Nb5 O34 2.378756 1_555
O0 Si0 1.586850 1_545
O1 Si1 1.586728 1_555
O2 Si2 1.594607 1_655
O3 Si3 1.600658 1_555
O4 Si4 1.603204 1_655
O5 Si5 1.616034 1_545
O6 Si5 1.704707 1_555
O7 Si3 1.678843 1_555
O8 Si4 1.703146 1_555
O9 Si1 1.725045 1_555
O10 Si2 1.711076 1_555
O11 Si0 1.713830 1_555
O12 Si6 1.623669 1_555
O13 Si7 1.617909 1_555
O14 Si8 1.630376 1_555
O15 Si9 1.611089 1_555
O16 Si10 1.609540 1_555
O17 S0 1.471524 1_555
O18 S0 1.485800 1_555
O19 Si9 1.661246 1_555
O20 Si10 1.659047 1_555
O21 Si7 1.728546 1_555
O22 Si8 1.677171 1_555
O23 Si6 1.697399 1_555
O24 Si11 1.618712 1_555
O25 Si12 1.621257 1_555
O26 S1 1.479258 1_555
O27 Si13 1.601394 1_555
O28 Si14 1.600621 1_555
O29 S2 1.471809 1_555
O30 S2 1.503490 1_555
O31 Si13 1.751397 1_555
O32 Si14 1.764962 1_555
O33 Si12 1.717467 1_555
O34 S1 1.479031 1_555
O35 Si11 1.719187 1_555
O36 S2 1.472289 1_655
O37 Si13 1.611243 1_555
O38 Si14 1.596720 1_555
O39 Si12 1.633253 1_555
O40 S1 1.484257 1_555
O41 Si11 1.632640 1_555
O42 Si6 1.682195 1_555
O43 Si7 1.655952 1_555
O44 Si8 1.679928 1_555
O45 Si9 1.670256 1_555
O46 Si10 1.680048 1_555
O47 S0 1.486133 1_555
O48 Si5 1.636067 1_545
O49 Si3 1.628116 1_555
O50 Si4 1.647792 1_655
O51 Si1 1.603648 1_555
O52 Si2 1.616992 1_655
O53 Si0 1.615243 1_545
O54 Si11 1.638418 1_555
O55 Si12 1.649010 1_655
O56 S1 1.487564 1_545
O57 Si13 1.673648 1_545
O58 Si14 1.683400 1_555
O59 S2 1.490627 1_655
O60 S0 1.480051 1_555
O61 Si9 1.614853 1_455
O62 Si10 1.625757 1_565
O63 Si7 1.601560 1_565
O64 Si8 1.623566 1_555
O65 Si6 1.612562 1_455
O66 Si0 1.676866 1_555
O67 Si1 1.695587 1_555
O68 Si2 1.676044 1_555
O69 Si3 1.704324 1_555
O70 Si4 1.668495 1_555
O71 Si5 1.655372 1_555
