# generated using pymatgen
data_Na5ScTa3Si5PO24
_symmetry_space_group_name_H-M   'P 1'
_cell_length_a   9.03230283
_cell_length_b   9.03635680
_cell_length_c   22.49269571
_cell_angle_alpha   90.10554435
_cell_angle_beta   89.96699290
_cell_angle_gamma   119.94823310
_symmetry_Int_Tables_number   1
_chemical_formula_structural   Na5ScTa3Si5PO24
_chemical_formula_sum   'Na15 Sc3 Ta9 Si15 P3 O72'
_cell_volume   1590.70460207
_cell_formula_units_Z   3
loop_
 _symmetry_equiv_pos_site_id
 _symmetry_equiv_pos_as_xyz
  1  'x, y, z'
loop_
 _atom_site_type_symbol
 _atom_site_label
 _atom_site_symmetry_multiplicity
 _atom_site_fract_x
 _atom_site_fract_y
 _atom_site_fract_z
 _atom_site_occupancy
  Na  Na0  1  0.99134640  0.63063257  0.24183255  1
  Na  Na1  1  0.63231408  0.62042611  0.74611077  1
  Na  Na2  1  0.98741653  0.36538165  0.74569044  1
  Na  Na3  1  0.37711434  0.01143222  0.74787091  1
  Na  Na4  1  0.31872898  0.97608020  0.08406164  1
  Na  Na5  1  0.66391920  0.68666656  0.08385358  1
  Na  Na6  1  0.96658528  0.28851402  0.41348220  1
  Na  Na7  1  0.32092981  0.03225879  0.41167787  1
  Na  Na8  1  0.70943957  0.67851285  0.41424725  1
  Na  Na9  1  0.99841998  0.99959560  0.50090279  1
  Na  Na10  1  0.99921527  0.01156683  0.99520441  1
  Na  Na11  1  0.66575240  0.33358073  0.83374373  1
  Na  Na12  1  0.64773476  0.31623337  0.32273153  1
  Na  Na13  1  0.33307639  0.65504724  0.16458728  1
  Na  Na14  1  0.33185764  0.66182951  0.66360585  1
  Sc  Sc0  1  0.00454611  0.00269223  0.35353812  1
  Sc  Sc1  1  0.67002175  0.33861810  0.68603426  1
  Sc  Sc2  1  0.65786661  0.32504699  0.18375582  1
  Ta  Ta0  1  0.99975109  0.99926710  0.85755397  1
  Ta  Ta1  1  0.99667268  0.99942322  0.64390186  1
  Ta  Ta2  1  0.00386248  0.00400034  0.14600926  1
  Ta  Ta3  1  0.66707655  0.33189476  0.97753932  1
  Ta  Ta4  1  0.67065429  0.33566861  0.48181156  1
  Ta  Ta5  1  0.32930147  0.66384786  0.01823486  1
  Ta  Ta6  1  0.33375065  0.66465751  0.52249598  1
  Ta  Ta7  1  0.33657249  0.66915103  0.31105425  1
  Ta  Ta8  1  0.33278710  0.66558365  0.81340894  1
  Si  Si0  1  0.29722647  0.00186788  0.25287935  1
  Si  Si1  1  0.28405272  0.28629526  0.75053866  1
  Si  Si2  1  0.00375378  0.71599896  0.75019544  1
  Si  Si3  1  0.71135586  0.99656797  0.75093608  1
  Si  Si4  1  0.96104541  0.33260445  0.58576611  1
  Si  Si5  1  0.66840733  0.62875758  0.58579509  1
  Si  Si6  1  0.95744429  0.62016487  0.08639551  1
  Si  Si7  1  0.66807364  0.04380553  0.08256787  1
  Si  Si8  1  0.37808499  0.33602324  0.08322195  1
  Si  Si9  1  0.62356350  0.66518034  0.91680345  1
  Si  Si10  1  0.04031325  0.37574561  0.91540228  1
  Si  Si11  1  0.33544091  0.95975488  0.91632130  1
  Si  Si12  1  0.61841780  0.95660662  0.41734637  1
  Si  Si13  1  0.33698027  0.38077601  0.41690359  1
  Si  Si14  1  0.04395202  0.66240017  0.41652979  1
  P  P0  1  0.70720397  0.71099635  0.25140332  1
  P  P1  1  0.00327955  0.29331560  0.25267364  1
  P  P2  1  0.37451058  0.04214232  0.58402018  1
  O  O0  1  0.20459040  0.01004478  0.31342688  1
  O  O1  1  0.80889723  0.79815289  0.30788288  1
  O  O2  1  0.98587725  0.19748709  0.31053718  1
  O  O3  1  0.18711981  0.16545134  0.80781475  1
  O  O4  1  0.97810439  0.81224249  0.80752165  1
  O  O5  1  0.83426579  0.02338291  0.80772162  1
  O  O6  1  0.80444068  0.96438356  0.69239360  1
  O  O7  1  0.16025168  0.19548825  0.69226784  1
  O  O8  1  0.03748011  0.84068341  0.69220427  1
  O  O9  1  0.79915035  0.82322965  0.19505817  1
  O  O10  1  0.01584401  0.19007220  0.19826189  1
  O  O11  1  0.16859514  0.97625407  0.19472713  1
  O  O12  1  0.88125547  0.35935121  0.64589490  1
  O  O13  1  0.47610628  0.11678451  0.64082624  1
  O  O14  1  0.63612183  0.52148955  0.64602616  1
  O  O15  1  0.88739123  0.52095309  0.14785799  1
  O  O16  1  0.61347362  0.11637149  0.13835164  1
  O  O17  1  0.50137649  0.38585166  0.13984617  1
  O  O18  1  0.46463903  0.29275191  0.02624540  1
  O  O19  1  0.82395136  0.52521365  0.03078628  1
  O  O20  1  0.69797427  0.16613978  0.02471260  1
  O  O21  1  0.47042689  0.15661496  0.52839260  1
  O  O22  1  0.68554664  0.52375310  0.52690272  1
  O  O23  1  0.83743428  0.30944717  0.52669539  1
  O  O24  1  0.52840878  0.68821566  0.97491931  1
  O  O25  1  0.16332188  0.47775268  0.97181503  1
  O  O26  1  0.31432923  0.84367839  0.97485300  1
  O  O27  1  0.52238363  0.83269680  0.47321300  1
  O  O28  1  0.31137582  0.47876070  0.47350748  1
  O  O29  1  0.17080251  0.69184171  0.47179797  1
  O  O30  1  0.13151106  0.62734951  0.35686457  1
  O  O31  1  0.49237784  0.86282962  0.35873987  1
  O  O32  1  0.37089148  0.50675861  0.35918825  1
  O  O33  1  0.13459541  0.49217844  0.85588127  1
  O  O34  1  0.35625961  0.86163555  0.85735630  1
  O  O35  1  0.50433486  0.64248341  0.85780032  1
  O  O36  1  0.01436446  0.82480169  0.41402841  1
  O  O37  1  0.80774944  0.98060344  0.41337238  1
  O  O38  1  0.16855708  0.19285376  0.41478552  1
  O  O39  1  0.02430460  0.18842269  0.91149460  1
  O  O40  1  0.16309515  0.97487044  0.91135852  1
  O  O41  1  0.81100126  0.83666389  0.91119177  1
  O  O42  1  0.98049981  0.16129058  0.58698556  1
  O  O43  1  0.19599951  0.02768571  0.58579691  1
  O  O44  1  0.84523838  0.81489373  0.58696817  1
  O  O45  1  0.97452056  0.81512500  0.09181115  1
  O  O46  1  0.83431275  0.01549786  0.09161936  1
  O  O47  1  0.18823576  0.16082203  0.09253687  1
  O  O48  1  0.68578470  0.16110147  0.74739600  1
  O  O49  1  0.47254949  0.30676555  0.74788990  1
  O  O50  1  0.83651743  0.52670701  0.74817324  1
  O  O51  1  0.69535655  0.53678911  0.24681888  1
  O  O52  1  0.85528654  0.32856413  0.24679162  1
  O  O53  1  0.48455518  0.16427237  0.24756736  1
  O  O54  1  0.63897327  0.49378993  0.92356103  1
  O  O55  1  0.85514467  0.36360299  0.92275702  1
  O  O56  1  0.50728698  0.14676000  0.92175361  1
  O  O57  1  0.62678727  0.14220973  0.42344904  1
  O  O58  1  0.50978801  0.36454195  0.42374633  1
  O  O59  1  0.85633043  0.48541167  0.42370843  1
  O  O60  1  0.35122803  0.50080029  0.07316104  1
  O  O61  1  0.15540523  0.66357429  0.07515491  1
  O  O62  1  0.50422893  0.84797937  0.07318071  1
  O  O63  1  0.35136361  0.86179474  0.57414069  1
  O  O64  1  0.50423353  0.65738305  0.57504088  1
  O  O65  1  0.14928249  0.50309245  0.57507079  1
  O  O66  1  0.29627847  0.81431980  0.25369525  1
  O  O67  1  0.52635336  0.69524432  0.25409073  1
  O  O68  1  0.17506202  0.47118216  0.25312613  1
  O  O69  1  0.29821347  0.47581155  0.75527688  1
  O  O70  1  0.17946458  0.70242189  0.75502457  1
  O  O71  1  0.52395342  0.81932727  0.75520946  1
loop_
_geom_bond_atom_site_label_1
_geom_bond_atom_site_label_2
_geom_bond_distance
_geom_bond_site_symmetry_2
Na0 O15 2.323198 1_555
Na0 O51 2.369720 1_555
Na0 O52 2.371739 1_555
Na0 O66 2.418033 1_655
Na0 O68 2.698723 1_655
Na0 O30 2.887863 1_655
Na0 O11 2.908231 1_655
Na1 O50 2.383500 1_555
Na1 O14 2.427229 1_555
Na1 O71 2.446440 1_555
Na1 O49 2.456456 1_555
Na1 O69 2.630524 1_555
Na1 O35 2.812816 1_555
Na2 O48 2.410471 1_555
Na2 O12 2.431219 1_555
Na2 O50 2.443232 1_555
Na2 O69 2.475020 1_655
Na2 O70 2.655582 1_655
Na2 O33 2.774074 1_655
Na3 O49 2.359735 1_555
Na3 O48 2.416089 1_555
Na3 O70 2.456463 1_545
Na3 O13 2.580501 1_555
Na3 O71 2.664547 1_545
Na3 O34 2.772983 1_545
Na4 O61 2.455561 1_555
Na4 O62 2.478319 1_555
Na4 O47 2.485068 1_565
Na4 O16 2.610378 1_565
Na4 O45 2.701327 1_455
Na4 O26 2.721897 1_554
Na4 O18 2.804090 1_565
Na4 O11 2.834264 1_555
Na5 O45 2.449157 1_555
Na5 O60 2.473591 1_555
Na5 O62 2.522659 1_555
Na5 O46 2.580889 1_565
Na5 O17 2.675165 1_555
Na5 O24 2.742735 1_554
Na5 O19 2.782043 1_555
Na5 O9 2.785396 1_555
Na6 O38 2.377113 1_655
Na6 O37 2.411305 1_545
Na6 O59 2.444921 1_555
Na6 O2 2.490817 1_555
Na6 O57 2.677102 1_555
Na6 O23 2.845383 1_555
Na6 O30 2.945152 1_655
Na6 O28 3.021208 1_655
Na7 O0 2.412204 1_555
Na7 O57 2.438970 1_555
Na7 O38 2.449208 1_555
Na7 O36 2.449869 1_545
Na7 O58 2.623527 1_555
Na7 O21 2.907942 1_555
Na7 O31 2.918605 1_545
Na7 O29 2.996404 1_545
Na8 O36 2.387023 1_655
Na8 O37 2.412608 1_555
Na8 O58 2.498109 1_555
Na8 O1 2.595546 1_555
Na8 O59 2.676481 1_555
Na8 O22 2.852043 1_555
Na8 O32 2.924357 1_555
Na8 O27 2.982568 1_555
Na9 O42 2.476985 1_565
Na9 O44 2.480049 1_555
Na9 O43 2.538752 1_665
Na9 O38 2.548107 1_665
Na9 O36 2.559150 1_655
Na9 O37 2.564980 1_555
Na10 O39 2.408224 1_655
Na10 O41 2.503773 1_545
Na10 O40 2.518380 1_645
Na10 O46 2.640361 1_556
Na10 O47 2.687223 1_656
Na10 O45 2.746056 1_546
Na11 O49 2.532396 1_555
Na11 O56 2.532558 1_555
Na11 O50 2.539788 1_555
Na11 O48 2.550303 1_555
Na11 O55 2.558731 1_555
Na11 O54 2.563978 1_555
Na12 O53 2.211292 1_555
Na12 O51 2.495676 1_555
Na12 O52 2.496566 1_555
Na12 O57 2.712254 1_555
Na12 O58 2.727926 1_555
Na12 O59 2.856884 1_555
Na13 O68 2.530767 1_555
Na13 O60 2.532929 1_555
Na13 O67 2.569171 1_555
Na13 O66 2.581713 1_555
Na13 O61 2.599123 1_555
Na13 O62 2.641014 1_555
Na14 O65 2.524704 1_555
Na14 O64 2.540202 1_555
Na14 O69 2.582914 1_555
Na14 O70 2.599122 1_555
Na14 O71 2.609424 1_555
Na14 O63 2.653425 1_555
O0 Si0 1.618737 1_555
O0 Sc0 1.990383 1_555
O1 P0 1.534016 1_555
O1 Sc0 2.080279 1_665
O2 P1 1.528561 1_655
O2 Sc0 2.089298 1_655
O3 Si1 1.633402 1_555
O3 Ta0 1.958933 1_445
O4 Si2 1.633810 1_655
O4 Ta0 1.955549 1_555
O5 Si3 1.629256 1_545
O5 Ta0 1.966225 1_545
O6 Si3 1.663380 1_555
O6 Ta1 1.937735 1_555
O7 Si1 1.650202 1_555
O7 Ta1 1.971445 1_445
O8 Si2 1.651033 1_555
O8 Ta1 1.976842 1_455
O9 P0 1.577034 1_555
O9 Ta2 2.071955 1_665
O10 P1 1.575582 1_555
O10 Ta2 2.007830 1_555
O11 Si0 1.687141 1_565
O11 Ta2 1.962878 1_565
O12 Si4 1.605782 1_555
O12 Sc1 2.032770 1_555
O13 P2 1.519797 1_555
O13 Sc1 2.146875 1_555
O14 Si5 1.606903 1_555
O14 Sc1 2.035994 1_555
O15 Si6 1.597645 1_555
O15 Sc2 2.103043 1_555
O16 Si7 1.602083 1_555
O16 Sc2 1.999489 1_555
O17 Si8 1.601213 1_555
O17 Sc2 2.013518 1_555
O18 Si8 1.645804 1_555
O18 Ta3 2.005495 1_554
O19 Si6 1.649053 1_555
O19 Ta3 2.004159 1_554
O20 Si7 1.641712 1_555
O20 Ta3 1.967419 1_554
O21 P2 1.579515 1_555
O21 Ta4 2.017139 1_555
O22 Si5 1.679519 1_555
O22 Ta4 1.923778 1_555
O23 Si4 1.680208 1_555
O23 Ta4 1.924481 1_555
O24 Si9 1.633114 1_555
O24 Ta5 1.958402 1_556
O25 Si10 1.633684 1_555
O25 Ta5 1.908868 1_556
O26 Si11 1.635523 1_555
O26 Ta5 1.958698 1_556
O27 Si12 1.618440 1_555
O27 Ta6 1.964269 1_555
O28 Si13 1.630457 1_555
O28 Ta6 1.931657 1_555
O29 Si14 1.620179 1_555
O29 Ta6 1.972519 1_555
O30 Si14 1.665573 1_555
O30 Ta7 1.983850 1_555
O31 Si12 1.669200 1_555
O31 Ta7 1.931220 1_555
O32 Si13 1.652852 1_555
O32 Ta7 1.970284 1_555
O33 Si10 1.653429 1_555
O33 Ta8 1.943043 1_555
O34 Si11 1.656007 1_555
O34 Ta8 1.944068 1_555
O35 Si9 1.656266 1_555
O35 Ta8 1.940846 1_555
O36 Si14 1.618668 1_555
O36 Sc0 2.143268 1_565
O37 Si12 1.615273 1_555
O37 Sc0 2.157476 1_665
O38 Si13 1.618848 1_555
O38 Sc0 2.120657 1_555
O39 Si10 1.627579 1_555
O39 Ta0 2.014206 1_445
O40 Si11 1.633070 1_555
O40 Ta0 2.004425 1_455
O41 Si9 1.632336 1_555
O41 Ta0 2.006013 1_555
O42 Si4 1.643124 1_555
O42 Ta1 2.005035 1_545
O43 P2 1.551783 1_555
O43 Ta1 2.134038 1_445
O44 Si5 1.642694 1_555
O44 Ta1 2.002052 1_555
O45 Si6 1.694181 1_555
O45 Ta2 2.002601 1_665
O46 Si7 1.656949 1_555
O46 Ta2 2.003544 1_655
O47 Si8 1.667655 1_555
O47 Ta2 1.968698 1_555
O48 Si3 1.616641 1_545
O48 Sc1 2.175950 1_555
O49 Si1 1.619246 1_555
O49 Sc1 2.164701 1_555
O50 Si2 1.621627 1_655
O50 Sc1 2.132014 1_555
O51 P0 1.526896 1_555
O51 Sc2 2.265251 1_555
O52 P1 1.526838 1_655
O52 Sc2 2.266518 1_555
O53 Si0 1.597517 1_555
O53 Sc2 2.087016 1_555
O54 Si9 1.630093 1_555
O54 Ta3 2.014046 1_555
O55 Si10 1.628858 1_655
O55 Ta3 1.999723 1_555
O56 Si11 1.631064 1_545
O56 Ta3 2.009935 1_555
O57 Si12 1.646223 1_545
O57 Ta4 2.058373 1_555
O58 Si13 1.646342 1_555
O58 Ta4 2.065662 1_555
O59 Si14 1.658418 1_655
O59 Ta4 2.022320 1_555
O60 Si8 1.639837 1_555
O60 Ta5 2.008640 1_555
O61 Si6 1.647559 1_455
O61 Ta5 2.024846 1_555
O62 Si7 1.658410 1_565
O62 Ta5 2.040134 1_555
O63 P2 1.551611 1_565
O63 Ta6 2.063425 1_555
O64 Si5 1.645580 1_555
O64 Ta6 1.968692 1_555
O65 Si4 1.645503 1_455
O65 Ta6 1.970124 1_555
O66 Si0 1.690626 1_565
O66 Ta7 2.000308 1_555
O67 P0 1.568438 1_555
O67 Ta7 2.056844 1_555
O68 P1 1.581418 1_555
O68 Ta7 2.100965 1_555
O69 Si1 1.655641 1_555
O69 Ta8 2.050716 1_555
O70 Si2 1.655388 1_555
O70 Ta8 2.053574 1_555
O71 Si3 1.653228 1_555
O71 Ta8 2.057708 1_555
