# generated using pymatgen
data_U3S5
_symmetry_space_group_name_H-M   'P 1'
_cell_length_a   7.46860755
_cell_length_b   8.02007232
_cell_length_c   11.91876519
_cell_angle_alpha   90.00000000
_cell_angle_beta   90.00000000
_cell_angle_gamma   90.00000000
_symmetry_Int_Tables_number   1
_chemical_formula_structural   U3S5
_chemical_formula_sum   'U12 S20'
_cell_volume   713.91940675
_cell_formula_units_Z   4
loop_
 _symmetry_equiv_pos_site_id
 _symmetry_equiv_pos_as_xyz
  1  'x, y, z'
loop_
 _atom_site_type_symbol
 _atom_site_label
 _atom_site_symmetry_multiplicity
 _atom_site_fract_x
 _atom_site_fract_y
 _atom_site_fract_z
 _atom_site_occupancy
  U  U0  1  0.92628682  0.75000000  0.49124164  1
  U  U1  1  0.42628682  0.25000000  0.00875836  1
  U  U2  1  0.07371318  0.25000000  0.50875836  1
  U  U3  1  0.57371318  0.75000000  0.99124164  1
  U  U4  1  0.47936304  0.99937126  0.32212698  1
  U  U5  1  0.97936304  0.00062874  0.17787302  1
  U  U6  1  0.52063696  0.49937126  0.67787302  1
  U  U7  1  0.02063696  0.50062874  0.82212698  1
  U  U8  1  0.52063696  0.00062874  0.67787302  1
  U  U9  1  0.02063696  0.99937126  0.82212698  1
  U  U10  1  0.47936304  0.50062874  0.32212698  1
  U  U11  1  0.97936304  0.49937126  0.17787302  1
  S  S0  1  0.17181591  0.75000000  0.31337935  1
  S  S1  1  0.67181591  0.25000000  0.18662065  1
  S  S2  1  0.82818409  0.25000000  0.68662065  1
  S  S3  1  0.32818409  0.75000000  0.81337935  1
  S  S4  1  0.54089563  0.75000000  0.50099600  1
  S  S5  1  0.04089563  0.25000000  -0.00099600  1
  S  S6  1  0.45910437  0.25000000  0.49900400  1
  S  S7  1  0.95910437  0.75000000  0.00099600  1
  S  S8  1  0.80135182  0.75000000  0.71630608  1
  S  S9  1  0.30135182  0.25000000  0.78369392  1
  S  S10  1  0.19864818  0.25000000  0.28369392  1
  S  S11  1  0.69864818  0.75000000  0.21630608  1
  S  S12  1  0.16256686  0.54290182  0.59943349  1
  S  S13  1  0.66256686  0.45709818  0.90056651  1
  S  S14  1  0.83743314  0.04290182  0.40056651  1
  S  S15  1  0.33743314  0.95709818  0.09943349  1
  S  S16  1  0.83743314  0.45709818  0.40056651  1
  S  S17  1  0.33743314  0.54290182  0.09943349  1
  S  S18  1  0.16256686  0.95709818  0.59943349  1
  S  S19  1  0.66256686  0.04290182  0.90056651  1
loop_
_geom_bond_atom_site_label_1
_geom_bond_atom_site_label_2
_geom_bond_distance
_geom_bond_site_symmetry_2
S0 U0 2.802971 1_455
S0 U11 2.952080 1_455
S0 U5 2.952080 1_465
S0 U10 3.047416 1_555
S0 U4 3.047416 1_555
S1 U1 2.802971 1_555
S1 U4 2.952080 1_545
S1 U10 2.952080 1_555
S1 U5 3.047416 1_555
S1 U11 3.047416 1_555
S2 U2 2.802971 1_655
S2 U7 2.952080 1_655
S2 U9 2.952080 1_645
S2 U6 3.047416 1_555
S2 U8 3.047416 1_555
S3 U3 2.802971 1_555
S3 U8 2.952080 1_565
S3 U6 2.952080 1_555
S3 U9 3.047416 1_555
S3 U7 3.047416 1_555
S4 U0 2.880683 1_555
S4 U8 2.916772 1_565
S4 U6 2.916772 1_555
S4 U10 2.959069 1_555
S4 U4 2.959069 1_555
S5 U1 2.880683 1_555
S5 U7 2.916772 1_554
S5 U9 2.916772 1_544
S5 U5 2.959069 1_455
S5 U11 2.959069 1_455
S6 U2 2.880683 1_555
S6 U10 2.916772 1_555
S6 U4 2.916772 1_545
S6 U6 2.959069 1_555
S6 U8 2.959069 1_555
S7 U3 2.880683 1_554
S7 U5 2.916772 1_565
S7 U11 2.916772 1_555
S7 U9 2.959069 1_654
S7 U7 2.959069 1_654
S8 U0 2.840143 1_555
S8 U9 2.876266 1_655
S8 U7 2.876266 1_655
S8 U8 2.940356 1_565
S8 U6 2.940356 1_555
S9 U1 2.840143 1_556
S9 U6 2.876266 1_555
S9 U8 2.876266 1_555
S9 U9 2.940356 1_545
S9 U7 2.940356 1_555
S10 U2 2.840143 1_555
S10 U11 2.876266 1_455
S10 U5 2.876266 1_455
S10 U4 2.940356 1_545
S10 U10 2.940356 1_555
S11 U3 2.840143 1_554
S11 U10 2.876266 1_555
S11 U4 2.876266 1_555
S11 U11 2.940356 1_555
S11 U5 2.940356 1_565
S12 U2 2.669572 1_555
S12 U0 2.745119 1_455
S12 U6 2.854422 1_555
S12 U7 2.878112 1_555
S13 U3 2.669572 1_555
S13 U1 2.745119 1_556
S13 U7 2.854422 1_655
S13 U6 2.878112 1_555
S14 U0 2.669572 1_545
S14 U2 2.745119 1_655
S14 U4 2.854422 1_545
S14 U5 2.878112 1_555
S15 U1 2.669572 1_565
S15 U3 2.745119 1_554
S15 U5 2.854422 1_465
S15 U4 2.878112 1_555
S16 U0 2.669572 1_555
S16 U2 2.745119 1_655
S16 U10 2.854422 1_555
S16 U11 2.878112 1_555
S17 U1 2.669572 1_555
S17 U3 2.745119 1_554
S17 U11 2.854422 1_455
S17 U10 2.878112 1_555
S18 U2 2.669572 1_565
S18 U0 2.745119 1_455
S18 U8 2.854422 1_565
S18 U9 2.878112 1_555
S19 U3 2.669572 1_545
S19 U1 2.745119 1_556
S19 U9 2.854422 1_645
S19 U8 2.878112 1_555
