# generated using pymatgen
data_V(HgO2)2
_symmetry_space_group_name_H-M   'P 1'
_cell_length_a   16.72018997
_cell_length_b   3.65396690
_cell_length_c   14.84681102
_cell_angle_alpha   75.84087188
_cell_angle_beta   90.00000000
_cell_angle_gamma   90.00000000
_symmetry_Int_Tables_number   1
_chemical_formula_structural   V(HgO2)2
_chemical_formula_sum   'V8 Hg16 O32'
_cell_volume   879.50963967
_cell_formula_units_Z   8
loop_
 _symmetry_equiv_pos_site_id
 _symmetry_equiv_pos_as_xyz
  1  'x, y, z'
loop_
 _atom_site_type_symbol
 _atom_site_label
 _atom_site_symmetry_multiplicity
 _atom_site_fract_x
 _atom_site_fract_y
 _atom_site_fract_z
 _atom_site_occupancy
  V  V0  1  0.82789540  0.12591897  0.87052872  1
  V  V1  1  0.32789540  0.87408103  0.62947128  1
  V  V2  1  0.17210460  0.87408103  0.12947128  1
  V  V3  1  0.67210460  0.12591897  0.37052872  1
  V  V4  1  0.67763033  0.61610124  0.88102165  1
  V  V5  1  0.17763033  0.38389876  0.61897835  1
  V  V6  1  0.32236967  0.38389876  0.11897835  1
  V  V7  1  0.82236967  0.61610124  0.38102165  1
  Hg  Hg0  1  0.67909893  0.85683185  0.12577152  1
  Hg  Hg1  1  -0.00000000  0.00000000  0.50000000  1
  Hg  Hg2  1  0.50000000  0.50000000  0.50000000  1
  Hg  Hg3  1  -0.00000000  0.50000000  -0.00000000  1
  Hg  Hg4  1  0.50000000  0.00000000  -0.00000000  1
  Hg  Hg5  1  0.17909893  0.14316815  0.37422848  1
  Hg  Hg6  1  0.32090107  0.14316815  0.87422848  1
  Hg  Hg7  1  0.82090107  0.85683185  0.62577152  1
  Hg  Hg8  1  0.49460471  0.74211852  0.25114306  1
  Hg  Hg9  1  0.99460471  0.25788148  0.24885694  1
  Hg  Hg10  1  0.50539529  0.25788148  0.74885694  1
  Hg  Hg11  1  0.00539529  0.74211852  0.75114306  1
  Hg  Hg12  1  0.83060570  0.99358740  0.12383651  1
  Hg  Hg13  1  0.33060570  0.00641260  0.37616349  1
  Hg  Hg14  1  0.16939430  0.00641260  0.87616349  1
  Hg  Hg15  1  0.66939430  0.99358740  0.62383651  1
  O  O0  1  0.62391261  0.22226546  0.27017583  1
  O  O1  1  0.12391261  0.77773454  0.22982417  1
  O  O2  1  0.37608739  0.77773454  0.72982417  1
  O  O3  1  0.87608739  0.22226546  0.77017583  1
  O  O4  1  0.79038419  0.12278919  0.37464145  1
  O  O5  1  0.29038419  0.87721081  0.12535855  1
  O  O6  1  0.20961581  0.87721081  0.62535855  1
  O  O7  1  0.70961581  0.12278919  0.87464145  1
  O  O8  1  0.60510836  0.04244169  0.45743331  1
  O  O9  1  0.10510836  0.95755831  0.04256669  1
  O  O10  1  0.39489164  0.95755831  0.54256669  1
  O  O11  1  0.89489164  0.04244169  0.95743331  1
  O  O12  1  0.55192760  0.79763738  0.12616699  1
  O  O13  1  0.05192760  0.20236262  0.37383301  1
  O  O14  1  0.44807240  0.20236262  0.87383301  1
  O  O15  1  0.94807240  0.79763738  0.62616699  1
  O  O16  1  0.38772126  0.29031685  0.20707916  1
  O  O17  1  0.88772126  0.70968315  0.29292084  1
  O  O18  1  0.61227874  0.70968315  0.79292084  1
  O  O19  1  0.11227874  0.29031685  0.70707916  1
  O  O20  1  0.70386803  0.61886881  0.37808221  1
  O  O21  1  0.20386803  0.38113119  0.12191779  1
  O  O22  1  0.29613197  0.38113119  0.62191779  1
  O  O23  1  0.79613197  0.61886881  0.87808221  1
  O  O24  1  0.87209456  0.51556976  0.48053952  1
  O  O25  1  0.37209456  0.48443024  0.01946048  1
  O  O26  1  0.12790544  0.48443024  0.51946048  1
  O  O27  1  0.62790544  0.51556976  0.98053952  1
  O  O28  1  0.43388577  0.63039174  0.37582029  1
  O  O29  1  0.56611423  0.36960826  0.62417971  1
  O  O30  1  0.93388577  0.36960826  0.12417971  1
  O  O31  1  0.06611423  0.63039174  0.87582029  1
loop_
_geom_bond_atom_site_label_1
_geom_bond_atom_site_label_2
_geom_bond_distance
_geom_bond_site_symmetry_2
Hg0 O12 2.137164 1_555
Hg1 O13 2.032673 1_555
Hg1 O15 2.032673 1_445
Hg2 O28 2.101996 1_555
Hg2 O29 2.101996 1_555
Hg2 O10 2.607710 1_555
Hg2 O8 2.607710 1_555
Hg2 O8 2.608394 1_565
Hg2 O10 2.608394 1_545
Hg3 O31 2.101996 1_554
Hg3 O30 2.101996 1_455
Hg3 O9 2.607710 1_555
Hg3 O11 2.607710 1_454
Hg3 O9 2.608394 1_545
Hg3 O11 2.608394 1_464
Hg4 O14 2.032673 1_554
Hg4 O12 2.032673 1_545
Hg5 O13 2.137164 1_555
Hg6 O14 2.137164 1_555
Hg7 O15 2.137164 1_555
Hg8 O12 2.053897 1_555
Hg8 O28 2.062541 1_555
Hg8 O16 2.622117 1_555
Hg8 O16 2.644438 1_565
Hg9 O13 2.053897 1_655
Hg9 O30 2.062541 1_555
Hg9 O17 2.622117 1_555
Hg9 O17 2.644438 1_545
Hg10 O14 2.053897 1_555
Hg10 O29 2.062541 1_555
Hg10 O18 2.622117 1_555
Hg10 O18 2.644438 1_545
Hg11 O15 2.053897 1_455
Hg11 O31 2.062541 1_555
Hg11 O19 2.622117 1_555
Hg11 O19 2.644438 1_565
Hg12 O30 2.207553 1_565
Hg13 O28 2.207553 1_545
Hg14 O31 2.207553 1_545
Hg15 O29 2.207553 1_565
O0 V3 1.654227 1_555
O1 V2 1.654227 1_555
O2 V1 1.654227 1_555
O3 V0 1.654227 1_555
O4 V7 1.904651 1_555
O4 V7 1.907078 1_545
O4 V3 1.978546 1_555
O5 V6 1.904651 1_555
O5 V6 1.907078 1_565
O5 V2 1.978546 1_555
O6 V5 1.904651 1_555
O6 V5 1.907078 1_565
O6 V1 1.978546 1_555
O7 V4 1.904651 1_555
O7 V4 1.907078 1_545
O7 V0 1.978546 1_555
O8 V3 1.679311 1_555
O9 V2 1.679311 1_555
O10 V1 1.679311 1_555
O11 V0 1.679311 1_555
O16 V6 1.674213 1_555
O17 V7 1.674213 1_555
O18 V4 1.674213 1_555
O19 V5 1.674213 1_555
O20 V3 1.904113 1_565
O20 V3 1.907317 1_555
O20 V7 1.981822 1_555
O21 V2 1.904113 1_545
O21 V2 1.907317 1_555
O21 V6 1.981822 1_555
O22 V1 1.904113 1_545
O22 V1 1.907317 1_555
O22 V5 1.981822 1_555
O23 V0 1.904113 1_565
O23 V0 1.907317 1_555
O23 V4 1.981822 1_555
O24 V7 1.656419 1_555
O25 V6 1.656419 1_555
O26 V5 1.656419 1_555
O27 V4 1.656419 1_555
