# generated using pymatgen
data_Na8CaHf3Si5SO24
_symmetry_space_group_name_H-M   'P 1'
_cell_length_a   9.29386803
_cell_length_b   9.30073822
_cell_length_c   22.76658892
_cell_angle_alpha   90.32491322
_cell_angle_beta   89.81421707
_cell_angle_gamma   120.00615355
_symmetry_Int_Tables_number   1
_chemical_formula_structural   Na8CaHf3Si5SO24
_chemical_formula_sum   'Na24 Ca3 Hf9 Si15 S3 O72'
_cell_volume   1704.15289128
_cell_formula_units_Z   3
loop_
 _symmetry_equiv_pos_site_id
 _symmetry_equiv_pos_as_xyz
  1  'x, y, z'
loop_
 _atom_site_type_symbol
 _atom_site_label
 _atom_site_symmetry_multiplicity
 _atom_site_fract_x
 _atom_site_fract_y
 _atom_site_fract_z
 _atom_site_occupancy
  Na  Na0  1  0.65275076  0.02449158  0.24608158  1
  Na  Na1  1  0.35846919  0.36200667  0.23970456  1
  Na  Na2  1  0.99151523  0.61494709  0.24159722  1
  Na  Na3  1  0.63175615  0.61813462  0.74752002  1
  Na  Na4  1  0.98840043  0.36602642  0.75476728  1
  Na  Na5  1  0.38295276  0.01209380  0.74804450  1
  Na  Na6  1  0.32207328  0.33610688  0.58953549  1
  Na  Na7  1  0.03031179  0.70675701  0.58212801  1
  Na  Na8  1  0.65609252  0.96452069  0.59242765  1
  Na  Na9  1  0.31190616  0.97009848  0.07710212  1
  Na  Na10  1  0.66039814  0.68810055  0.07648646  1
  Na  Na11  1  0.02855490  0.34790474  0.07926837  1
  Na  Na12  1  0.96657892  0.66646204  0.91407643  1
  Na  Na13  1  0.69924403  0.03323636  0.91377208  1
  Na  Na14  1  0.33423895  0.30032018  0.91398237  1
  Na  Na15  1  0.96420563  0.28489711  0.41085551  1
  Na  Na16  1  0.31933068  0.02800881  0.42093294  1
  Na  Na17  1  0.71308337  0.68141468  0.42119734  1
  Na  Na18  1  0.00062708  0.99307512  0.49612428  1
  Na  Na19  1  0.00025903  0.99886791  0.99412418  1
  Na  Na20  1  0.66601734  0.33274473  0.82666794  1
  Na  Na21  1  0.68576818  0.33094242  0.33518888  1
  Na  Na22  1  0.32595128  0.65890120  0.15746680  1
  Na  Na23  1  0.34607092  0.67695297  0.67336486  1
  Ca  Ca0  1  0.99915696  0.00366624  0.35434978  1
  Ca  Ca1  1  0.65817051  0.33053487  0.68570031  1
  Ca  Ca2  1  0.67126112  0.33327995  0.17528093  1
  Hf  Hf0  1  0.99942355  0.99901190  0.85274907  1
  Hf  Hf1  1  0.00189626  0.99079070  0.65176678  1
  Hf  Hf2  1  0.00334265  0.01597035  0.14206801  1
  Hf  Hf3  1  0.66848404  0.33499486  0.98215401  1
  Hf  Hf4  1  0.65629907  0.33596549  0.47999114  1
  Hf  Hf5  1  0.33298710  0.66670684  0.01454454  1
  Hf  Hf6  1  0.33959476  0.67406018  0.51643002  1
  Hf  Hf7  1  0.32554482  0.65662058  0.31973055  1
  Hf  Hf8  1  0.33533310  0.66706170  0.81451868  1
  Si  Si0  1  0.00312841  0.30463982  0.25252501  1
  Si  Si1  1  0.28636237  0.29393754  0.75142011  1
  Si  Si2  1  0.00773671  0.70819395  0.75264080  1
  Si  Si3  1  0.70700774  0.99429186  0.75145979  1
  Si  Si4  1  0.36481971  0.03166525  0.58305475  1
  Si  Si5  1  0.66703049  0.63682701  0.58349602  1
  Si  Si6  1  0.97048230  0.63680922  0.08478176  1
  Si  Si7  1  0.66095185  0.03042059  0.08426803  1
  Si  Si8  1  0.37003782  0.33907656  0.08450379  1
  Si  Si9  1  0.62769928  0.66457144  0.91649979  1
  Si  Si10  1  0.03796851  0.37261372  0.91622346  1
  Si  Si11  1  0.33524379  0.96253436  0.91676405  1
  Si  Si12  1  0.62232584  0.96341235  0.41574635  1
  Si  Si13  1  0.33834075  0.37601544  0.41886302  1
  Si  Si14  1  0.03398842  0.65589058  0.41892460  1
  S  S0  1  0.29418493  0.99419934  0.25028209  1
  S  S1  1  0.70028260  0.70611302  0.25012490  1
  S  S2  1  0.96406100  0.33331293  0.58128418  1
  O  O0  1  0.21490843  0.00702567  0.30404823  1
  O  O1  1  0.79688350  0.77965978  0.30359412  1
  O  O2  1  0.98140577  0.19970170  0.31062774  1
  O  O3  1  0.18756243  0.17870003  0.80827295  1
  O  O4  1  0.98706069  0.80549438  0.80920968  1
  O  O5  1  0.81974289  0.00955218  0.80894745  1
  O  O6  1  0.79939575  0.97291912  0.69168301  1
  O  O7  1  0.17334717  0.20205222  0.69153924  1
  O  O8  1  0.02968600  0.82258591  0.69296272  1
  O  O9  1  0.78963190  0.80975637  0.19761902  1
  O  O10  1  0.02519353  0.20182417  0.19480316  1
  O  O11  1  0.18892108  0.97584041  0.19765357  1
  O  O12  1  0.89491441  0.36226468  0.63481492  1
  O  O13  1  0.48045177  0.09569837  0.64006221  1
  O  O14  1  0.62722937  0.52622304  0.64118124  1
  O  O15  1  0.90973190  0.53383734  0.14484027  1
  O  O16  1  0.61971419  0.08885903  0.14530789  1
  O  O17  1  0.46640144  0.37450910  0.14591521  1
  O  O18  1  0.46669318  0.30596707  0.03001564  1
  O  O19  1  0.84064674  0.54073209  0.02985956  1
  O  O20  1  0.69795537  0.16123899  0.03000381  1
  O  O21  1  0.46369762  0.15639661  0.52603968  1
  O  O22  1  0.69643675  0.54008145  0.52619135  1
  O  O23  1  0.85728591  0.31301589  0.52924932  1
  O  O24  1  0.53851345  0.69255724  0.97405927  1
  O  O25  1  0.15463649  0.46122914  0.97383272  1
  O  O26  1  0.30653093  0.84532949  0.97406952  1
  O  O27  1  0.52176404  0.84699290  0.47189128  1
  O  O28  1  0.31648878  0.47182162  0.47484377  1
  O  O29  1  0.14885655  0.67492192  0.47515591  1
  O  O30  1  0.12858482  0.63358479  0.35963287  1
  O  O31  1  0.50576282  0.87143459  0.35666096  1
  O  O32  1  0.36500210  0.49360267  0.35992512  1
  O  O33  1  0.12816683  0.49262990  0.85942337  1
  O  O34  1  0.36517164  0.87152517  0.85996110  1
  O  O35  1  0.50787288  0.63488561  0.85965406  1
  O  O36  1  0.01411530  0.81779866  0.41597547  1
  O  O37  1  0.80160666  0.97665637  0.41721009  1
  O  O38  1  0.18255402  0.19081267  0.41739971  1
  O  O39  1  0.01748668  0.18668006  0.91254281  1
  O  O40  1  0.16947315  0.98268776  0.91295498  1
  O  O41  1  0.81329651  0.83068145  0.91310418  1
  O  O42  1  0.97719082  0.17993959  0.58406502  1
  O  O43  1  0.18294553  0.02543445  0.58644160  1
  O  O44  1  0.83644135  0.82366541  0.58588451  1
  O  O45  1  0.98540672  0.82210693  0.09204778  1
  O  O46  1  0.83339072  0.01565250  0.08953555  1
  O  O47  1  0.18404231  0.16462266  0.08794167  1
  O  O48  1  0.69182027  0.15938882  0.75097234  1
  O  O49  1  0.46786246  0.31135153  0.75210113  1
  O  O50  1  0.84660224  0.52587942  0.75009018  1
  O  O51  1  0.67107949  0.53518457  0.24530755  1
  O  O52  1  0.84153806  0.32920983  0.24915081  1
  O  O53  1  0.46052510  0.14413348  0.24639915  1
  O  O54  1  0.64478627  0.49749380  0.92380251  1
  O  O55  1  0.85377869  0.35585223  0.92370585  1
  O  O56  1  0.50260895  0.14660761  0.92441397  1
  O  O57  1  0.63708405  0.14693389  0.42200225  1
  O  O58  1  0.51348285  0.37029289  0.42151157  1
  O  O59  1  0.85406700  0.48267583  0.42259246  1
  O  O60  1  0.33817228  0.49499528  0.07397898  1
  O  O61  1  0.15724229  0.66384770  0.07372403  1
  O  O62  1  0.50558153  0.84263997  0.07323439  1
  O  O63  1  0.32615240  0.83877122  0.57378989  1
  O  O64  1  0.50276603  0.66067538  0.57470692  1
  O  O65  1  0.13469855  0.47961991  0.57444464  1
  O  O66  1  0.30999562  0.84025053  0.25131689  1
  O  O67  1  0.53513717  0.70114721  0.25238398  1
  O  O68  1  0.18201291  0.49094698  0.25265956  1
  O  O69  1  0.29674402  0.47625422  0.75466206  1
  O  O70  1  0.18163162  0.70251471  0.75506586  1
  O  O71  1  0.52472805  0.82194314  0.75476446  1
loop_
_geom_bond_atom_site_label_1
_geom_bond_atom_site_label_2
_geom_bond_distance
_geom_bond_site_symmetry_2
Na0 O16 2.433178 1_555
Na0 O52 2.478010 1_555
Na0 O53 2.533396 1_555
Na0 O67 2.641119 1_545
Na0 O66 2.763747 1_545
Na0 O31 2.881640 1_545
Na1 O17 2.334814 1_555
Na1 O68 2.484867 1_555
Na1 O51 2.524138 1_555
Na1 O53 2.637404 1_555
Na1 O67 2.746146 1_555
Na1 O10 2.871651 1_555
Na1 O32 2.980219 1_555
Na2 O52 2.309491 1_555
Na2 O15 2.327610 1_555
Na2 O68 2.564462 1_655
Na2 O66 2.645090 1_655
Na2 O51 2.686234 1_555
Na2 O30 2.944546 1_655
Na3 O49 2.475433 1_555
Na3 O50 2.538034 1_555
Na3 O71 2.547763 1_555
Na3 O14 2.556335 1_555
Na3 O69 2.711414 1_555
Na3 O35 2.832503 1_555
Na4 O50 2.433289 1_555
Na4 O48 2.449480 1_555
Na4 O69 2.514920 1_655
Na4 O33 2.685022 1_655
Na4 O70 2.719923 1_655
Na4 O12 2.863192 1_555
Na5 O49 2.485730 1_555
Na5 O48 2.487636 1_555
Na5 O70 2.536093 1_545
Na5 O13 2.602289 1_555
Na5 O71 2.687459 1_545
Na5 O34 2.836836 1_545
Na6 O43 2.507468 1_555
Na6 O64 2.642789 1_555
Na6 O7 2.673276 1_555
Na6 O65 2.695591 1_555
Na6 O14 2.744950 1_555
Na6 O42 2.782653 1_455
Na6 O28 2.918526 1_555
Na6 O21 2.962528 1_555
Na7 O63 2.392923 1_555
Na7 O44 2.528555 1_455
Na7 O43 2.568885 1_565
Na7 O65 2.734817 1_555
Na7 O8 2.739183 1_555
Na7 O29 2.744689 1_555
Na8 O64 2.478428 1_555
Na8 O44 2.596208 1_555
Na8 O6 2.607611 1_555
Na8 O42 2.641331 1_565
Na8 O13 2.700880 1_565
Na8 O63 2.714153 1_555
Na8 O27 2.984522 1_555
Na9 O61 2.467472 1_555
Na9 O26 2.600643 1_554
Na9 O62 2.604812 1_555
Na9 O47 2.624836 1_565
Na9 O45 2.653172 1_455
Na9 O18 2.917234 1_565
Na9 O16 2.943461 1_565
Na9 O11 2.980083 1_555
Na10 O62 2.492400 1_555
Na10 O24 2.605367 1_554
Na10 O60 2.611069 1_555
Na10 O45 2.653180 1_555
Na10 O46 2.654823 1_565
Na10 O19 2.842588 1_555
Na10 O9 2.992493 1_555
Na10 O17 3.005021 1_555
Na11 O60 2.495713 1_555
Na11 O61 2.563059 1_555
Na11 O25 2.649741 1_554
Na11 O46 2.700596 1_455
Na11 O47 2.739088 1_555
Na11 O15 2.882491 1_455
Na11 O20 2.894406 1_455
Na11 O10 2.960257 1_555
Na12 O55 2.543501 1_555
Na12 O41 2.557268 1_555
Na12 O40 2.580730 1_655
Na12 O54 2.600350 1_555
Na12 O4 2.682197 1_555
Na12 O19 2.886480 1_556
Na12 O33 2.968333 1_655
Na12 O26 3.059488 1_655
Na13 O56 2.536112 1_555
Na13 O39 2.561953 1_655
Na13 O41 2.582594 1_545
Na13 O55 2.607950 1_555
Na13 O5 2.687289 1_555
Na13 O20 2.897961 1_556
Na13 O34 2.955680 1_545
Na14 O54 2.539446 1_555
Na14 O40 2.558835 1_545
Na14 O39 2.583148 1_555
Na14 O56 2.606279 1_555
Na14 O3 2.716223 1_555
Na14 O18 2.907143 1_556
Na14 O35 2.970691 1_555
Na14 O25 3.056677 1_555
Na15 O2 2.442141 1_555
Na15 O37 2.488704 1_545
Na15 O59 2.525635 1_555
Na15 O38 2.585634 1_655
Na15 O57 2.655322 1_555
Na15 O23 2.925012 1_555
Na16 O38 2.417105 1_555
Na16 O36 2.516801 1_545
Na16 O57 2.584234 1_555
Na16 O21 2.708901 1_555
Na16 O58 2.764958 1_555
Na16 O0 2.807602 1_555
Na17 O36 2.429113 1_655
Na17 O37 2.442989 1_555
Na17 O58 2.538861 1_555
Na17 O22 2.701016 1_555
Na17 O59 2.749152 1_555
Na17 O1 2.812926 1_555
Na18 O36 2.484357 1_555
Na18 O38 2.522106 1_565
Na18 O37 2.531467 1_455
Na18 O44 2.568783 1_455
Na18 O43 2.587520 1_565
Na18 O42 2.722644 1_465
Na19 O40 2.474974 1_555
Na19 O41 2.477504 1_455
Na19 O39 2.506337 1_565
Na19 O47 2.684924 1_566
Na19 O46 2.713740 1_466
Na19 O45 2.739448 1_456
Na20 O49 2.441940 1_555
Na20 O48 2.445310 1_555
Na20 O50 2.466611 1_555
Na20 O54 2.745610 1_555
Na20 O55 2.759799 1_555
Na20 O56 2.765464 1_555
Na21 O52 2.436712 1_555
Na21 O59 2.485621 1_555
Na21 O57 2.509594 1_555
Na21 O58 2.667891 1_555
Na21 O53 2.799463 1_555
Na21 O51 2.849510 1_555
Na22 O60 2.467496 1_555
Na22 O61 2.487574 1_555
Na22 O62 2.558886 1_555
Na22 O68 2.618405 1_555
Na22 O66 2.763943 1_555
Na22 O67 2.803094 1_555
Na23 O71 2.400394 1_555
Na23 O70 2.488354 1_555
Na23 O69 2.509581 1_555
Na23 O64 2.717384 1_555
Na23 O63 2.785439 1_555
Na23 O65 2.945358 1_555
Ca0 O2 2.159832 1_555
Ca0 O37 2.237821 1_545
Ca0 O38 2.239541 1_655
Ca0 O36 2.290267 1_645
Ca0 O0 2.292594 1_655
Ca0 O1 2.297688 1_545
Ca1 O13 2.226063 1_555
Ca1 O14 2.229085 1_555
Ca1 O49 2.261750 1_555
Ca1 O50 2.306707 1_555
Ca1 O48 2.316805 1_555
Ca1 O12 2.368176 1_555
Ca2 O15 2.177516 1_555
Ca2 O16 2.181349 1_555
Ca2 O17 2.227191 1_555
Ca2 O52 2.326386 1_555
Ca2 O51 2.457083 1_555
Ca2 O53 2.473434 1_555
Hf0 O3 1.990139 1_665
Hf0 O5 1.992072 1_565
Hf0 O4 2.002226 1_555
Hf0 O39 2.146947 1_665
Hf0 O41 2.152158 1_555
Hf0 O40 2.157765 1_655
Hf1 O8 1.953489 1_555
Hf1 O6 2.018211 1_455
Hf1 O7 2.019258 1_565
Hf1 O43 2.143343 1_565
Hf1 O44 2.151349 1_455
Hf1 O42 2.441387 1_465
Hf2 O46 1.983125 1_455
Hf2 O47 1.983423 1_555
Hf2 O10 2.024253 1_555
Hf2 O45 2.062287 1_445
Hf2 O11 2.319242 1_545
Hf2 O9 2.328963 1_445
Hf3 O18 2.064237 1_556
Hf3 O19 2.080072 1_556
Hf3 O20 2.082795 1_556
Hf3 O55 2.104253 1_555
Hf3 O54 2.110719 1_555
Hf3 O56 2.111871 1_555
Hf4 O58 2.019011 1_555
Hf4 O21 2.027344 1_555
Hf4 O22 2.030050 1_555
Hf4 O59 2.108096 1_555
Hf4 O57 2.127687 1_555
Hf4 O23 2.281993 1_555
Hf5 O25 2.020003 1_554
Hf5 O24 2.021814 1_554
Hf5 O26 2.024096 1_554
Hf5 O62 2.097558 1_555
Hf5 O61 2.103922 1_555
Hf5 O60 2.117950 1_555
Hf6 O27 1.940445 1_555
Hf6 O29 2.012609 1_555
Hf6 O28 2.014364 1_555
Hf6 O63 2.058021 1_555
Hf6 O64 2.068646 1_555
Hf6 O65 2.282015 1_555
Hf7 O30 1.954772 1_555
Hf7 O32 1.960794 1_555
Hf7 O31 2.036437 1_555
Hf7 O68 2.101454 1_555
Hf7 O67 2.344730 1_555
Hf7 O66 2.375336 1_555
Hf8 O35 2.052080 1_555
Hf8 O34 2.053203 1_555
Hf8 O33 2.065446 1_555
Hf8 O70 2.114253 1_555
Hf8 O69 2.115231 1_555
Hf8 O71 2.120077 1_555
O0 S0 1.461452 1_545
O1 S1 1.462599 1_555
O2 Si0 1.599679 1_655
O3 Si1 1.640400 1_555
O4 Si2 1.635124 1_655
O5 Si3 1.639792 1_545
O6 Si3 1.670010 1_555
O7 Si1 1.670447 1_555
O8 Si2 1.678409 1_555
O9 S1 1.501242 1_555
O10 Si0 1.692207 1_555
O11 S0 1.503350 1_555
O12 S2 1.461174 1_555
O13 Si4 1.598183 1_555
O14 Si5 1.597303 1_555
O15 Si6 1.604554 1_555
O16 Si7 1.603062 1_555
O17 Si8 1.604103 1_555
O18 Si8 1.644918 1_555
O19 Si6 1.654292 1_555
O20 Si7 1.649446 1_555
O21 Si4 1.678771 1_555
O22 Si5 1.678315 1_555
O23 S2 1.497175 1_555
O24 Si9 1.636125 1_555
O25 Si10 1.636559 1_555
O26 Si11 1.638458 1_555
O27 Si12 1.635716 1_555
O28 Si13 1.620499 1_555
O29 Si14 1.620872 1_555
O30 Si14 1.676209 1_555
O31 Si12 1.668645 1_555
O32 Si13 1.673731 1_555
O33 Si10 1.641456 1_555
O34 Si11 1.639198 1_555
O35 Si9 1.639853 1_555
O36 Si14 1.607998 1_555
O37 Si12 1.608596 1_555
O38 Si13 1.603035 1_555
O39 Si10 1.644086 1_555
O40 Si11 1.645036 1_555
O41 Si9 1.644160 1_555
O42 S2 1.492962 1_555
O43 Si4 1.663640 1_555
O44 Si5 1.662713 1_555
O45 Si6 1.665700 1_555
O46 Si7 1.680254 1_555
O47 Si8 1.679936 1_555
O48 Si3 1.610858 1_545
O49 Si1 1.612073 1_555
O50 Si2 1.606532 1_655
O51 S1 1.476377 1_555
O52 Si0 1.630253 1_655
O53 S0 1.478742 1_545
O54 Si9 1.648492 1_555
O55 Si10 1.647786 1_655
O56 Si11 1.647941 1_545
O57 Si12 1.647958 1_545
O58 Si13 1.656308 1_555
O59 Si14 1.644607 1_655
O60 Si8 1.637692 1_555
O61 Si6 1.643368 1_455
O62 Si7 1.635068 1_565
O63 Si4 1.656390 1_565
O64 Si5 1.661648 1_555
O65 S2 1.494435 1_455
O66 S0 1.511009 1_555
O67 S1 1.512986 1_555
O68 Si0 1.698589 1_555
O69 Si1 1.650780 1_555
O70 Si2 1.644322 1_555
O71 Si3 1.652139 1_555
