# generated using pymatgen
data_Na2Y6Ta2Si3(S3O16)3
_symmetry_space_group_name_H-M   'P 1'
_cell_length_a   18.20413352
_cell_length_b   9.12580313
_cell_length_c   23.96199482
_cell_angle_alpha   89.92980161
_cell_angle_beta   90.10035261
_cell_angle_gamma   120.16937848
_symmetry_Int_Tables_number   1
_chemical_formula_structural   Na2Y6Ta2Si3(S3O16)3
_chemical_formula_sum   'Na6 Y18 Ta6 Si9 S27 O144'
_cell_volume   3441.51950106
_cell_formula_units_Z   3
loop_
 _symmetry_equiv_pos_site_id
 _symmetry_equiv_pos_as_xyz
  1  'x, y, z'
loop_
 _atom_site_type_symbol
 _atom_site_label
 _atom_site_symmetry_multiplicity
 _atom_site_fract_x
 _atom_site_fract_y
 _atom_site_fract_z
 _atom_site_occupancy
  Na  Na0  1  0.99869545  0.98338375  0.49933396  1
  Na  Na1  1  0.50247646  0.01617761  0.99645079  1
  Na  Na2  1  0.34571893  0.33814624  0.83538850  1
  Na  Na3  1  0.83923331  0.36598178  0.83056647  1
  Na  Na4  1  0.34089464  0.31562800  0.33763340  1
  Na  Na5  1  0.84467040  0.34953959  0.34520725  1
  Y  Y0  1  0.00570722  0.99082095  0.36005700  1
  Y  Y1  1  0.50447158  0.01796792  0.85713878  1
  Y  Y2  1  0.00096415  0.99347510  0.64863441  1
  Y  Y3  1  0.50233301  0.00936880  0.14931611  1
  Y  Y4  1  0.32582819  0.33690505  0.68172832  1
  Y  Y5  1  0.84128260  0.34024245  0.68431389  1
  Y  Y6  1  0.34554882  0.33972845  0.18902754  1
  Y  Y7  1  0.82440006  0.31203715  0.18270267  1
  Y  Y8  1  0.33366846  0.33217565  0.98111135  1
  Y  Y9  1  0.84007849  0.33572627  0.98222397  1
  Y  Y10  1  0.34084847  0.34576510  0.48375707  1
  Y  Y11  1  0.82798987  0.32620287  0.48468404  1
  Y  Y12  1  0.16104259  0.65985545  0.01920319  1
  Y  Y13  1  0.66267352  0.67394789  0.52322389  1
  Y  Y14  1  0.16143422  0.67366683  0.31306503  1
  Y  Y15  1  0.66866654  0.66387939  0.30832214  1
  Y  Y16  1  0.16839334  0.67415303  0.80666292  1
  Y  Y17  1  0.66074915  0.64809017  0.81063145  1
  Ta  Ta0  1  0.49245670  0.00289663  0.35590889  1
  Ta  Ta1  1  0.99232505  0.98146204  0.85397141  1
  Ta  Ta2  1  0.49784308  0.99052454  0.64344561  1
  Ta  Ta3  1  0.99505642  0.00008987  0.14586789  1
  Ta  Ta4  1  0.67535586  0.66770765  0.01424298  1
  Ta  Ta5  1  0.17380574  0.68145611  0.51515438  1
  Si  Si0  1  0.49602690  0.28386404  0.25313874  1
  Si  Si1  1  0.99341140  0.70208912  0.75238819  1
  Si  Si2  1  0.68633873  0.04263185  0.58693958  1
  Si  Si3  1  0.32932269  0.62920434  0.58279765  1
  Si  Si4  1  0.82953679  0.03070912  0.08254427  1
  Si  Si5  1  0.81237399  0.66174882  0.91303458  1
  Si  Si6  1  0.52093210  0.37605166  0.91888947  1
  Si  Si7  1  0.31152779  0.96408007  0.41379616  1
  Si  Si8  1  0.01848088  0.65925646  0.41886353  1
  S  S0  1  0.14189000  0.00484885  0.24539429  1
  S  S1  1  0.64402487  0.00902033  0.25519737  1
  S  S2  1  0.35877017  0.71166445  0.25404320  1
  S  S3  1  0.86152430  0.71613451  0.24754209  1
  S  S4  1  0.99904527  0.27881832  0.24751130  1
  S  S5  1  0.14415019  0.27864919  0.75561360  1
  S  S6  1  0.64168037  0.27947425  0.74614011  1
  S  S7  1  0.49783032  0.71877412  0.74829847  1
  S  S8  1  0.36113016  0.00888560  0.74829727  1
  S  S9  1  0.85940036  0.00738265  0.75452184  1
  S  S10  1  0.47895836  0.32035066  0.58748780  1
  S  S11  1  0.98978093  0.34392925  0.57948115  1
  S  S12  1  0.18490627  0.02915636  0.57912121  1
  S  S13  1  0.83534718  0.63330797  0.58179327  1
  S  S14  1  0.48771555  0.63382354  0.07982835  1
  S  S15  1  0.98040915  0.63900065  0.08766003  1
  S  S16  1  0.33283629  0.03495906  0.08232119  1
  S  S17  1  0.18092777  0.32271950  0.08734492  1
  S  S18  1  0.68511481  0.34079610  0.07896263  1
  S  S19  1  0.31261612  0.66740219  0.91744612  1
  S  S20  1  0.02206971  0.36540871  0.91234279  1
  S  S21  1  0.16127176  0.96099378  0.91374831  1
  S  S22  1  0.66638591  0.94940461  0.91912867  1
  S  S23  1  0.81357987  0.95949674  0.41577265  1
  S  S24  1  0.16734287  0.38395480  0.41908824  1
  S  S25  1  0.66210627  0.36140043  0.41262456  1
  S  S26  1  0.52050791  0.67680601  0.41105763  1
  O  O0  1  0.10504348  0.02862902  0.29725499  1
  O  O1  1  0.59583045  0.01981262  0.30336626  1
  O  O2  1  0.41465910  0.80287229  0.30394845  1
  O  O3  1  0.91236622  0.79358445  0.29806093  1
  O  O4  1  0.48763374  0.15573424  0.30739318  1
  O  O5  1  0.98731516  0.17727358  0.29750471  1
  O  O6  1  0.09556508  0.17112427  0.80443085  1
  O  O7  1  0.60435541  0.18311357  0.79851648  1
  O  O8  1  0.48661868  0.79656486  0.79899969  1
  O  O9  1  0.98778701  0.81690434  0.80813844  1
  O  O10  1  0.41053015  0.03174887  0.80008345  1
  O  O11  1  0.91573718  0.02374357  0.80488659  1
  O  O12  1  0.40674042  0.99616437  0.69905516  1
  O  O13  1  0.89930699  0.99201282  0.70337086  1
  O  O14  1  0.09786660  0.20828588  0.70297877  1
  O  O15  1  0.58568640  0.18244719  0.69826380  1
  O  O16  1  0.00341703  0.81223304  0.69757204  1
  O  O17  1  0.50113160  0.82203184  0.69801818  1
  O  O18  1  0.39850033  0.80677064  0.20247547  1
  O  O19  1  0.90919777  0.82411205  0.19710622  1
  O  O20  1  0.00328797  0.18073418  0.19623957  1
  O  O21  1  0.50367648  0.19619045  0.19693836  1
  O  O22  1  0.08630473  0.99124751  0.19664198  1
  O  O23  1  0.59827006  0.98753308  0.20214249  1
  O  O24  1  0.43814734  0.35164768  0.63548135  1
  O  O25  1  0.95474261  0.37423165  0.63101772  1
  O  O26  1  0.23367282  0.09966196  0.63113099  1
  O  O27  1  0.74697854  0.13375969  0.63991462  1
  O  O28  1  0.30827899  0.50933059  0.63727691  1
  O  O29  1  0.82891807  0.53838932  0.63282627  1
  O  O30  1  0.44983004  0.53196678  0.13146618  1
  O  O31  1  0.94010026  0.52773170  0.13579977  1
  O  O32  1  0.32356829  0.11693247  0.13288812  1
  O  O33  1  0.81025409  0.10724748  0.13777761  1
  O  O34  1  0.23727261  0.35627060  0.13527942  1
  O  O35  1  0.73385401  0.36779074  0.13114074  1
  O  O36  1  0.21203063  0.27913976  0.03721387  1
  O  O37  1  0.72826956  0.31564535  0.03143173  1
  O  O38  1  0.42808182  0.54902273  0.03254145  1
  O  O39  1  0.92755375  0.57737134  0.03734746  1
  O  O40  1  0.34455698  0.14103973  0.03272510  1
  O  O41  1  0.85842323  0.15844329  0.03071719  1
  O  O42  1  0.22783257  0.13995398  0.53133925  1
  O  O43  1  0.72011122  0.15716862  0.53149660  1
  O  O44  1  0.35589506  0.55697590  0.53027386  1
  O  O45  1  0.85044160  0.55608131  0.53221069  1
  O  O46  1  0.42598613  0.27927882  0.53710643  1
  O  O47  1  0.93185586  0.31036823  0.53174486  1
  O  O48  1  0.27024320  0.68620291  0.96805577  1
  O  O49  1  0.76438500  0.68782611  0.97000811  1
  O  O50  1  0.07038399  0.43787672  0.96514605  1
  O  O51  1  0.58380842  0.49126546  0.97267896  1
  O  O52  1  0.14537017  0.85699587  0.96466928  1
  O  O53  1  0.66054414  0.84458521  0.96968756  1
  O  O54  1  0.26312985  0.84226585  0.46993683  1
  O  O55  1  0.77244515  0.85633864  0.46587072  1
  O  O56  1  0.16096198  0.47557686  0.46902439  1
  O  O57  1  0.64532176  0.42843967  0.46330679  1
  O  O58  1  0.08274600  0.67144013  0.47185484  1
  O  O59  1  0.56782866  0.70302753  0.46336624  1
  O  O60  1  0.05944247  0.64383342  0.36051558  1
  O  O61  1  0.56382883  0.65172148  0.36351805  1
  O  O62  1  0.25735547  0.87297149  0.35925755  1
  O  O63  1  0.76576398  0.87535077  0.36477569  1
  O  O64  1  0.17609902  0.47624132  0.36724785  1
  O  O65  1  0.67507442  0.47058407  0.36404280  1
  O  O66  1  0.06584473  0.48025481  0.86551439  1
  O  O67  1  0.55944219  0.47551491  0.86103697  1
  O  O68  1  0.17818533  0.88301932  0.86565115  1
  O  O69  1  0.67545636  0.87417042  0.86772350  1
  O  O70  1  0.26424894  0.65381324  0.86675078  1
  O  O71  1  0.75561240  0.64182537  0.85996699  1
  O  O72  1  0.01738657  0.83952042  0.42142591  1
  O  O73  1  0.51316122  0.83151677  0.40059556  1
  O  O74  1  0.40588353  0.96965196  0.40416132  1
  O  O75  1  0.90070138  0.98153360  0.41247122  1
  O  O76  1  0.08751040  0.21573206  0.41841705  1
  O  O77  1  0.58448133  0.18635397  0.40201299  1
  O  O78  1  0.01537231  0.19798490  0.90302964  1
  O  O79  1  0.51725952  0.19260243  0.92138575  1
  O  O80  1  0.08425806  0.97777434  0.90386584  1
  O  O81  1  0.58655630  0.95635604  0.91902142  1
  O  O82  1  0.39929001  0.81777443  0.91504424  1
  O  O83  1  0.90635038  0.84384745  0.90373392  1
  O  O84  1  0.48834833  0.16917880  0.60046750  1
  O  O85  1  0.00099031  0.19430007  0.58599328  1
  O  O86  1  0.09874130  0.00703726  0.58392547  1
  O  O87  1  0.58829075  0.01611988  0.60299058  1
  O  O88  1  0.41008191  0.82045279  0.60204845  1
  O  O89  1  0.90979248  0.81046518  0.58505391  1
  O  O90  1  0.49785656  0.80472700  0.08569689  1
  O  O91  1  0.99325890  0.81330808  0.10070501  1
  O  O92  1  0.40817302  0.01291688  0.08603991  1
  O  O93  1  0.91222953  0.00064603  0.10174583  1
  O  O94  1  0.09312403  0.16932925  0.10035443  1
  O  O95  1  0.59889945  0.19047500  0.08364894  1
  O  O96  1  0.34916944  0.15742375  0.74296764  1
  O  O97  1  0.85604713  0.16507484  0.75493111  1
  O  O98  1  0.22759764  0.28499937  0.75454597  1
  O  O99  1  0.72671098  0.29940060  0.74086436  1
  O  O100  1  0.42245553  0.54545103  0.74232343  1
  O  O101  1  0.90783053  0.52050257  0.75463962  1
  O  O102  1  0.35336831  0.54372601  0.25227651  1
  O  O103  1  0.85117613  0.54718682  0.23968567  1
  O  O104  1  0.40881274  0.29360590  0.25414184  1
  O  O105  1  0.92402979  0.29925825  0.23967749  1
  O  O106  1  0.22603448  0.15761924  0.23791242  1
  O  O107  1  0.72799114  0.17003545  0.25334503  1
  O  O108  1  0.31837168  0.51144105  0.92215224  1
  O  O109  1  0.83143678  0.51055903  0.92412737  1
  O  O110  1  0.42480310  0.34766117  0.92534732  1
  O  O111  1  0.93568477  0.34255462  0.91724403  1
  O  O112  1  0.23437265  0.13451572  0.92081002  1
  O  O113  1  0.74046399  0.12141034  0.92604320  1
  O  O114  1  0.33132616  0.15468843  0.42287785  1
  O  O115  1  0.82098246  0.12824754  0.41899390  1
  O  O116  1  0.24116259  0.35910338  0.42533937  1
  O  O117  1  0.73589625  0.33639053  0.41648135  1
  O  O118  1  0.43322053  0.52855119  0.41498309  1
  O  O119  1  0.92322038  0.49820899  0.42347578  1
  O  O120  1  0.16657979  0.46597118  0.07739104  1
  O  O121  1  0.67677280  0.49433993  0.06969423  1
  O  O122  1  0.06577708  0.66362367  0.07821668  1
  O  O123  1  0.57109208  0.64823820  0.06960119  1
  O  O124  1  0.25569767  0.86665399  0.07503189  1
  O  O125  1  0.75009628  0.84247889  0.06607097  1
  O  O126  1  0.17613216  0.85842329  0.56995400  1
  O  O127  1  0.66631505  0.85126439  0.57576247  1
  O  O128  1  0.24913862  0.65598863  0.56549531  1
  O  O129  1  0.75757299  0.64317698  0.57472966  1
  O  O130  1  0.07448835  0.49628888  0.56869154  1
  O  O131  1  0.56424043  0.46417891  0.57823462  1
  O  O132  1  0.14606326  0.84933177  0.24670155  1
  O  O133  1  0.65732196  0.86403445  0.26169154  1
  O  O134  1  0.27521599  0.69360819  0.26071696  1
  O  O135  1  0.78048737  0.71265568  0.24894061  1
  O  O136  1  0.07852332  0.44066798  0.24730084  1
  O  O137  1  0.57876527  0.46454945  0.26288337  1
  O  O138  1  0.15693193  0.44950282  0.76268984  1
  O  O139  1  0.64545061  0.44421427  0.74770486  1
  O  O140  1  0.07800159  0.69373015  0.76386765  1
  O  O141  1  0.57685932  0.71414737  0.74936430  1
  O  O142  1  0.27842642  0.85087684  0.75144025  1
  O  O143  1  0.77632594  0.85750523  0.76185648  1
loop_
_geom_bond_atom_site_label_1
_geom_bond_atom_site_label_2
_geom_bond_distance
_geom_bond_site_symmetry_2
Na0 O72 2.404514 1_655
Na0 O89 2.600988 1_555
Na0 O86 2.658043 1_665
Na0 O76 2.724813 1_665
Na0 O75 2.733427 1_555
Na0 O85 2.819073 1_665
Na1 O79 2.336458 1_555
Na1 O81 2.633520 1_545
Na1 O95 2.676917 1_556
Na1 O82 2.681260 1_545
Na1 O92 2.741872 1_556
Na1 O90 2.851542 1_546
Na2 O110 2.567232 1_555
Na2 O98 2.747911 1_555
Na2 O96 2.782426 1_555
Na2 O100 2.801379 1_555
Na2 O108 2.806104 1_555
Na2 O112 2.823253 1_555
Na3 O101 2.256030 1_555
Na3 O109 2.642657 1_555
Na3 O97 2.704443 1_555
Na3 O111 2.793890 1_555
Na3 O99 2.814590 1_555
Na4 O104 2.414735 1_555
Na4 O114 2.469112 1_555
Na4 O118 2.598292 1_555
Na4 O102 2.843233 1_555
Na4 O116 2.934237 1_555
Na4 O106 3.020180 1_555
Na5 O119 2.334458 1_555
Na5 O115 2.551259 1_555
Na5 O117 2.573847 1_555
Na5 O107 2.921560 1_555
O0 S0 1.480260 1_555
O0 Y0 2.243848 1_545
O1 S1 1.484024 1_555
O1 Ta0 2.205923 1_555
O2 S2 1.518202 1_555
O2 Ta0 2.070980 1_565
O3 S3 1.470449 1_555
O3 Y0 2.292928 1_655
O4 Si0 1.702379 1_555
O4 Ta0 1.850221 1_555
O5 S4 1.462422 1_555
O5 Y0 2.412164 1_645
O6 S5 1.497313 1_555
O6 Ta1 2.161086 1_445
O7 S6 1.486547 1_555
O7 Y1 2.190920 1_555
O8 S7 1.473166 1_555
O8 Y1 2.339674 1_565
O9 Si1 1.733396 1_555
O9 Ta1 1.829528 1_555
O10 S8 1.483311 1_555
O10 Y1 2.239870 1_555
O11 S9 1.540368 1_555
O11 Ta1 2.002487 1_545
O12 S8 1.481815 1_565
O12 Ta2 2.149974 1_555
O13 S9 1.468221 1_565
O13 Y2 2.264673 1_655
O14 S5 1.472210 1_555
O14 Y2 2.274385 1_545
O15 S6 1.493436 1_555
O15 Ta2 2.129164 1_545
O16 Si1 1.606980 1_455
O16 Y2 2.045001 1_555
O17 S7 1.511189 1_555
O17 Ta2 2.040884 1_555
O18 S2 1.474047 1_555
O18 Y3 2.259154 1_565
O19 S3 1.525103 1_555
O19 Ta3 2.002093 1_565
O20 S4 1.545661 1_455
O20 Ta3 1.988190 1_455
O21 Si0 1.608835 1_555
O21 Y3 2.042596 1_555
O22 S0 1.507973 1_565
O22 Ta3 2.091266 1_465
O23 S1 1.476876 1_565
O23 Y3 2.243556 1_565
O24 S10 1.474157 1_555
O24 Y4 2.271102 1_555
O25 S11 1.479602 1_555
O25 Y5 2.314635 1_555
O26 S12 1.476219 1_555
O26 Y4 2.306585 1_555
O27 Si2 1.611359 1_555
O27 Y5 2.092077 1_555
O28 Si3 1.620079 1_555
O28 Y4 2.052444 1_555
O29 S13 1.468126 1_555
O29 Y5 2.290243 1_555
O30 S14 1.492150 1_555
O30 Y6 2.289040 1_555
O31 S15 1.466738 1_555
O31 Y7 2.325863 1_555
O32 S16 1.478531 1_555
O32 Y6 2.300147 1_555
O33 Si4 1.616499 1_555
O33 Y7 2.058656 1_555
O34 S17 1.464991 1_555
O34 Y6 2.419990 1_555
O35 S18 1.479295 1_555
O35 Y7 2.310109 1_555
O36 S17 1.466836 1_555
O36 Y8 2.424104 1_554
O37 S18 1.466976 1_555
O37 Y9 2.280277 1_554
O38 S14 1.488185 1_555
O38 Y8 2.229070 1_554
O39 S15 1.466029 1_555
O39 Y9 2.369306 1_554
O40 S16 1.478341 1_555
O40 Y8 2.225472 1_554
O41 Si4 1.600069 1_555
O41 Y9 2.148551 1_554
O42 S12 1.466303 1_555
O42 Y10 2.275826 1_555
O43 Si2 1.609049 1_555
O43 Y11 2.110229 1_555
O44 Si3 1.605339 1_555
O44 Y10 2.122761 1_555
O45 S13 1.477024 1_555
O45 Y11 2.237697 1_555
O46 S10 1.470222 1_555
O46 Y10 2.311000 1_555
O47 S11 1.478565 1_555
O47 Y11 2.265914 1_555
O48 S19 1.493956 1_555
O48 Y12 2.244781 1_556
O49 Si5 1.702207 1_555
O49 Ta4 1.868245 1_556
O50 S20 1.491760 1_555
O50 Y12 2.267991 1_556
O51 Si6 1.692754 1_555
O51 Ta4 1.913876 1_556
O52 S21 1.481753 1_555
O52 Y12 2.352539 1_556
O53 S22 1.513075 1_555
O53 Ta4 2.061615 1_556
O54 Si7 1.684562 1_555
O54 Ta5 1.890891 1_555
O55 S23 1.476442 1_555
O55 Y13 2.305044 1_555
O56 S24 1.498311 1_555
O56 Ta5 2.090238 1_555
O57 S25 1.460661 1_555
O57 Y13 2.544747 1_555
O58 Si8 1.690486 1_555
O58 Ta5 1.916929 1_555
O59 S26 1.469745 1_555
O59 Y13 2.357887 1_555
O60 Si8 1.624879 1_555
O60 Y14 2.076706 1_555
O61 S26 1.468744 1_555
O61 Y15 2.280250 1_555
O62 Si7 1.595522 1_555
O62 Y14 2.094825 1_555
O63 S23 1.472190 1_555
O63 Y15 2.290841 1_555
O64 S24 1.463198 1_555
O64 Y14 2.340815 1_555
O65 S25 1.471524 1_555
O65 Y15 2.260181 1_555
O66 S20 1.467436 1_555
O66 Y16 2.299482 1_555
O67 Si6 1.611772 1_555
O67 Y17 2.103343 1_555
O68 S21 1.467269 1_555
O68 Y16 2.308033 1_555
O69 S22 1.460355 1_555
O69 Y17 2.377034 1_555
O70 S19 1.467361 1_555
O70 Y16 2.338495 1_555
O71 Si5 1.588984 1_555
O71 Y17 2.115402 1_555
O72 Si8 1.656369 1_555
O72 Y0 2.098350 1_555
O73 S26 1.504289 1_555
O73 Ta0 2.078855 1_565
O74 Si7 1.708751 1_555
O74 Ta0 1.854073 1_565
O75 S23 1.497274 1_555
O75 Y0 2.254748 1_655
O76 S24 1.492166 1_555
O76 Y0 2.305108 1_545
O77 S25 1.531065 1_555
O77 Ta0 2.002205 1_555
O78 S20 1.487475 1_555
O78 Ta1 2.152433 1_445
O79 Si6 1.642559 1_555
O79 Y1 2.143802 1_555
O80 S21 1.503189 1_555
O80 Ta1 2.069016 1_455
O81 S22 1.486120 1_555
O81 Y1 2.362724 1_565
O82 S19 1.483175 1_555
O82 Y1 2.327281 1_565
O83 Si5 1.697316 1_555
O83 Ta1 1.864350 1_555
O84 S10 1.504971 1_555
O84 Ta2 2.006747 1_545
O85 S11 1.486597 1_455
O85 Y2 2.367310 1_545
O86 S12 1.482130 1_555
O86 Y2 2.318519 1_545
O87 Si2 1.720577 1_555
O87 Ta2 1.823122 1_545
O88 Si3 1.685470 1_555
O88 Ta2 1.857730 1_555
O89 S13 1.501394 1_555
O89 Y2 2.253063 1_655
O90 S14 1.482349 1_555
O90 Y3 2.381550 1_565
O91 S15 1.519771 1_555
O91 Ta3 2.006485 1_565
O92 S16 1.485280 1_555
O92 Y3 2.298845 1_555
O93 Si4 1.722038 1_555
O93 Ta3 1.842102 1_555
O94 S17 1.537298 1_555
O94 Ta3 1.998289 1_455
O95 S18 1.481188 1_555
O95 Y3 2.319662 1_555
O96 S8 1.482334 1_555
O96 Y4 2.389154 1_555
O97 S9 1.470738 1_555
O97 Y5 2.431978 1_555
O98 S5 1.491071 1_555
O98 Y4 2.371518 1_555
O99 S6 1.470640 1_555
O99 Y5 2.356370 1_555
O100 S7 1.491142 1_555
O100 Y4 2.336106 1_555
O101 Si1 1.606640 1_555
O101 Y5 2.238302 1_555
O102 S2 1.486240 1_555
O102 Y6 2.350049 1_555
O103 S3 1.468565 1_555
O103 Y7 2.379179 1_555
O104 Si0 1.634365 1_555
O104 Y6 2.101725 1_555
O105 S4 1.479836 1_555
O105 Y7 2.317410 1_555
O106 S0 1.475140 1_555
O106 Y6 2.288547 1_555
O107 S1 1.496686 1_555
O107 Y7 2.311685 1_555
O108 S19 1.482850 1_555
O108 Y8 2.280488 1_555
O109 Si5 1.604603 1_555
O109 Y9 2.180453 1_555
O110 Si6 1.642718 1_555
O110 Y8 2.080738 1_555
O111 S20 1.483637 1_655
O111 Y9 2.314655 1_555
O112 S21 1.479487 1_545
O112 Y8 2.308457 1_555
O113 S22 1.477214 1_545
O113 Y9 2.314940 1_555
O114 Si7 1.604207 1_545
O114 Y10 2.213647 1_555
O115 S23 1.478967 1_545
O115 Y11 2.352030 1_555
O116 S24 1.478265 1_555
O116 Y10 2.340959 1_555
O117 S25 1.474011 1_555
O117 Y11 2.374191 1_555
O118 S26 1.484451 1_555
O118 Y10 2.347239 1_555
O119 Si8 1.618029 1_655
O119 Y11 2.211003 1_555
O120 S17 1.475238 1_555
O120 Y12 2.292934 1_555
O121 S18 1.499590 1_555
O121 Ta4 2.074854 1_555
O122 S15 1.472034 1_455
O122 Y12 2.253220 1_555
O123 S14 1.477028 1_555
O123 Ta4 2.250103 1_555
O124 S16 1.481017 1_565
O124 Y12 2.247195 1_555
O125 Si4 1.643368 1_565
O125 Ta4 1.937809 1_555
O126 S12 1.500648 1_565
O126 Ta5 2.066500 1_555
O127 Si2 1.617225 1_565
O127 Y13 2.025983 1_555
O128 Si3 1.648803 1_555
O128 Ta5 1.924481 1_555
O129 S13 1.472606 1_555
O129 Y13 2.250735 1_555
O130 S11 1.491113 1_455
O130 Ta5 2.168412 1_555
O131 S10 1.460997 1_555
O131 Y13 2.273175 1_555
O132 S0 1.459173 1_565
O132 Y14 2.370648 1_555
O133 S1 1.467894 1_565
O133 Y15 2.236262 1_555
O134 S2 1.454350 1_555
O134 Y14 2.350851 1_555
O135 S3 1.459954 1_555
O135 Y15 2.337588 1_555
O136 S4 1.458420 1_455
O136 Y14 2.461031 1_555
O137 Si0 1.595443 1_555
O137 Y15 2.044303 1_555
O138 S5 1.466215 1_555
O138 Y16 2.220661 1_555
O139 S6 1.470612 1_555
O139 Y17 2.301595 1_555
O140 Si1 1.602897 1_455
O140 Y16 2.019974 1_555
O141 S7 1.460509 1_555
O141 Y17 2.401274 1_555
O142 S8 1.472983 1_565
O142 Y16 2.263023 1_555
O143 S9 1.452581 1_565
O143 Y17 2.325212 1_555
