# generated using pymatgen
data_MgV4(OF)6
_symmetry_space_group_name_H-M   'P 1'
_cell_length_a   5.05700015
_cell_length_b   9.42224589
_cell_length_c   5.25691536
_cell_angle_alpha   104.21312294
_cell_angle_beta   117.83825800
_cell_angle_gamma   74.79141149
_symmetry_Int_Tables_number   1
_chemical_formula_structural   MgV4(OF)6
_chemical_formula_sum   'Mg1 V4 O6 F6'
_cell_volume   211.50402697
_cell_formula_units_Z   1
loop_
 _symmetry_equiv_pos_site_id
 _symmetry_equiv_pos_as_xyz
  1  'x, y, z'
loop_
 _atom_site_type_symbol
 _atom_site_label
 _atom_site_symmetry_multiplicity
 _atom_site_fract_x
 _atom_site_fract_y
 _atom_site_fract_z
 _atom_site_occupancy
  Mg  Mg0  1  0.88934600  0.43980800  0.15359000  1
  V  V0  1  0.95732100  0.99315400  0.99025500  1
  V  V1  1  0.70584500  0.76732000  0.26207300  1
  V  V2  1  0.54348000  0.48860400  0.52195800  1
  V  V3  1  0.25431000  0.24367800  0.71996900  1
  O  O0  1  0.37245700  0.87597800  0.21139900  1
  O  O1  1  0.80026300  0.87403300  0.05083900  1
  O  O2  1  0.27590700  0.37500300  0.49752500  1
  O  O3  1  0.71168300  0.60697200  0.44370100  1
  O  O4  1  0.59292900  0.12138300  0.77396700  1
  O  O5  1  0.90509100  0.37258900  0.76315700  1
  F  F0  1  0.11440100  0.61480900  0.27429800  1
  F  F1  1  0.99505400  0.13401600  0.35552400  1
  F  F2  1  0.52828800  0.36729600  0.12174900  1
  F  F3  1  0.19108600  0.12200700  0.96064500  1
  F  F4  1  0.55609400  0.60975600  0.89756100  1
  F  F5  1  0.96894500  0.87216200  0.62679000  1
loop_
_geom_bond_atom_site_label_1
_geom_bond_atom_site_label_2
_geom_bond_distance
_geom_bond_site_symmetry_2
Mg0 O2 2.019434 1_655
Mg0 O5 2.026807 1_554
Mg0 O3 2.229705 1_555
O0 V1 1.664451 1_555
O0 V0 2.027933 1_454
O1 V0 1.694551 1_554
O1 V1 1.940975 1_555
O2 V2 1.877018 1_555
O2 V3 1.952223 1_555
O3 V2 1.785079 1_555
O3 V1 1.963110 1_555
O4 V3 1.735521 1_555
O4 V0 1.922979 1_545
O5 V2 1.900780 1_555
O5 V3 1.938878 1_655
F0 Mg0 2.052590 1_455
F0 V2 2.141348 1_555
F0 V1 2.168263 1_455
F1 V3 1.962081 1_655
F1 V0 2.006060 1_544
F2 Mg0 2.035076 1_555
F2 V2 2.110177 1_555
F2 V3 2.154741 1_554
F3 V0 1.978228 1_445
F3 V3 2.073554 1_555
F4 V2 2.004893 1_555
F4 V1 2.070511 1_556
F4 Mg0 2.177106 1_556
F5 V1 1.949131 1_555
F5 V0 1.988462 1_555
