# generated using pymatgen
data_Na6ScTa3(SiO4)6
_symmetry_space_group_name_H-M   'P 1'
_cell_length_a   15.78744464
_cell_length_b   9.07357360
_cell_length_c   9.08906557
_cell_angle_alpha   90.49154408
_cell_angle_beta   125.02062740
_cell_angle_gamma   89.68035073
_symmetry_Int_Tables_number   1
_chemical_formula_structural   Na6ScTa3(SiO4)6
_chemical_formula_sum   'Na12 Sc2 Ta6 Si12 O48'
_cell_volume   1066.22367139
_cell_formula_units_Z   2
loop_
 _symmetry_equiv_pos_site_id
 _symmetry_equiv_pos_as_xyz
  1  'x, y, z'
loop_
 _atom_site_type_symbol
 _atom_site_label
 _atom_site_symmetry_multiplicity
 _atom_site_fract_x
 _atom_site_fract_y
 _atom_site_fract_z
 _atom_site_occupancy
  Na  Na0  1  0.25060633  0.75027007  0.99897289  1
  Na  Na1  1  0.74565009  0.74851801  0.48607418  1
  Na  Na2  1  0.75060633  0.25027007  0.99897289  1
  Na  Na3  1  0.24565009  0.24851801  0.48607418  1
  Na  Na4  1  0.50542615  0.09197022  0.76399012  1
  Na  Na5  1  0.50156275  0.88270468  0.23429688  1
  Na  Na6  1  0.00542615  0.59197022  0.76399012  1
  Na  Na7  1  0.00156275  0.38270468  0.23429688  1
  Na  Na8  1  0.80156326  0.93086330  0.20787797  1
  Na  Na9  1  0.18544534  0.07305398  0.80335957  1
  Na  Na10  1  0.30156326  0.43086330  0.20787797  1
  Na  Na11  1  0.68544534  0.57305398  0.80335957  1
  Sc  Sc0  1  0.10484144  0.24435609  0.06802030  1
  Sc  Sc1  1  0.60484144  0.74435609  0.06802030  1
  Ta  Ta0  1  0.10640000  0.75094168  0.56365641  1
  Ta  Ta1  1  0.89442335  0.75329296  0.92896917  1
  Ta  Ta2  1  0.89298195  0.25001956  0.43577495  1
  Ta  Ta3  1  0.60640000  0.25094168  0.56365641  1
  Ta  Ta4  1  0.39442335  0.25329296  0.92896917  1
  Ta  Ta5  1  0.39298195  0.75001956  0.43577495  1
  Si  Si0  1  0.99652425  0.95930998  0.74668801  1
  Si  Si1  1  0.00069649  0.04166676  0.25404320  1
  Si  Si2  1  0.49652425  0.45930998  0.74668801  1
  Si  Si3  1  0.50069649  0.54166676  0.25404320  1
  Si  Si4  1  0.35571187  0.89312156  0.76133193  1
  Si  Si5  1  0.64699710  0.89533783  0.74903050  1
  Si  Si6  1  0.64609087  0.11339989  0.24397961  1
  Si  Si7  1  0.35675527  0.10174071  0.25196360  1
  Si  Si8  1  0.85571187  0.39312156  0.76133193  1
  Si  Si9  1  0.14699710  0.39533783  0.74903050  1
  Si  Si10  1  0.14609087  0.61339989  0.24397961  1
  Si  Si11  1  0.85675527  0.60174071  0.25196360  1
  O  O0  1  0.15232959  0.57445394  0.72923607  1
  O  O1  1  0.84898247  0.57602629  0.75737325  1
  O  O2  1  0.85619520  0.42002582  0.26082665  1
  O  O3  1  0.15739781  0.43618013  0.25039218  1
  O  O4  1  0.65232959  0.07445394  0.72923607  1
  O  O5  1  0.34898247  0.07602629  0.75737325  1
  O  O6  1  0.35619520  0.92002582  0.26082665  1
  O  O7  1  0.65739781  0.93618013  0.25039218  1
  O  O8  1  0.42713894  0.56390856  0.56590515  1
  O  O9  1  0.57395156  0.56329097  0.91569614  1
  O  O10  1  0.56038587  0.43493877  0.43120574  1
  O  O11  1  0.43384542  0.42653061  0.08007277  1
  O  O12  1  0.92713894  0.06390856  0.56590515  1
  O  O13  1  0.07395156  0.06329097  0.91569614  1
  O  O14  1  0.06038587  0.93493877  0.43120574  1
  O  O15  1  0.93384542  0.92653061  0.08007277  1
  O  O16  1  0.25001662  0.83467605  0.73801277  1
  O  O17  1  0.74315377  0.81032966  0.76029253  1
  O  O18  1  0.74429154  0.18964898  0.25607928  1
  O  O19  1  0.26640531  0.18716836  0.24921530  1
  O  O20  1  0.75001662  0.33467605  0.73801277  1
  O  O21  1  0.24315377  0.31032966  0.76029253  1
  O  O22  1  0.24429154  0.68964898  0.25607928  1
  O  O23  1  0.76640531  0.68716836  0.24921530  1
  O  O24  1  0.36386724  0.85056081  0.59077295  1
  O  O25  1  0.64930260  0.87069544  0.92701717  1
  O  O26  1  0.64313773  0.16709911  0.41382407  1
  O  O27  1  0.35532397  0.13981189  0.07079612  1
  O  O28  1  0.86386724  0.35056081  0.59077295  1
  O  O29  1  0.14930260  0.37069544  0.92701717  1
  O  O30  1  0.14313773  0.66709911  0.41382407  1
  O  O31  1  0.85532397  0.63981189  0.07079612  1
  O  O32  1  0.45772572  0.83600024  0.94517390  1
  O  O33  1  0.53825769  0.82287830  0.57264466  1
  O  O34  1  0.53598072  0.17055625  0.06035934  1
  O  O35  1  0.46954546  0.15801298  0.42773139  1
  O  O36  1  0.95772572  0.33600024  0.94517390  1
  O  O37  1  0.03825769  0.32287830  0.57264466  1
  O  O38  1  0.03598072  0.67055625  0.06035934  1
  O  O39  1  0.96954546  0.65801298  0.42773139  1
  O  O40  1  0.07313717  0.84497803  0.72985336  1
  O  O41  1  0.91760977  0.85152193  0.75972928  1
  O  O42  1  0.91159110  0.13689100  0.25688670  1
  O  O43  1  0.07875021  0.15324859  0.25287396  1
  O  O44  1  0.57313717  0.34497803  0.72985336  1
  O  O45  1  0.41760977  0.35152193  0.75972928  1
  O  O46  1  0.41159110  0.63689100  0.25688670  1
  O  O47  1  0.57875021  0.65324859  0.25287396  1
loop_
_geom_bond_atom_site_label_1
_geom_bond_atom_site_label_2
_geom_bond_distance
_geom_bond_site_symmetry_2
Na0 O22 2.462408 1_556
Na0 O46 2.487391 1_556
Na0 O16 2.493634 1_555
Na0 O6 2.495580 1_556
Na0 O0 2.560760 1_555
Na0 O40 2.591329 1_555
Na1 O47 2.401372 1_555
Na1 O23 2.416391 1_555
Na1 O7 2.457628 1_555
Na1 O1 2.571395 1_555
Na1 O17 2.572279 1_555
Na1 O41 2.582348 1_555
Na2 O18 2.462408 1_556
Na2 O42 2.487391 1_556
Na2 O20 2.493634 1_555
Na2 O2 2.495580 1_556
Na2 O4 2.560760 1_555
Na2 O44 2.591329 1_555
Na3 O43 2.401372 1_555
Na3 O19 2.416391 1_555
Na3 O3 2.457628 1_555
Na3 O5 2.571395 1_555
Na3 O21 2.572279 1_555
Na3 O45 2.582348 1_555
Na4 O5 2.440909 1_555
Na4 O4 2.517883 1_555
Na4 O34 2.544951 1_556
Na4 O44 2.632384 1_555
Na4 O45 2.715404 1_555
Na4 O25 2.742863 1_545
Na4 O35 2.839259 1_555
Na4 O24 2.868520 1_545
Na5 O32 2.336875 1_554
Na5 O47 2.364258 1_555
Na5 O7 2.430765 1_555
Na5 O6 2.462689 1_555
Na5 O46 2.722575 1_555
Na5 O33 2.840405 1_555
Na6 O1 2.440909 1_455
Na6 O0 2.517883 1_555
Na6 O38 2.544951 1_556
Na6 O40 2.632384 1_555
Na6 O41 2.715404 1_455
Na6 O29 2.742863 1_555
Na6 O39 2.839259 1_455
Na6 O28 2.868520 1_455
Na7 O36 2.336875 1_454
Na7 O43 2.364258 1_555
Na7 O3 2.430765 1_555
Na7 O2 2.462689 1_455
Na7 O42 2.722575 1_455
Na7 O37 2.840405 1_555
Na8 O25 2.353872 1_554
Na8 O23 2.367675 1_555
Na8 O42 2.417507 1_565
Na8 O7 2.517878 1_555
Na8 O18 2.633704 1_565
Na8 O15 2.914617 1_555
Na8 O12 2.920935 1_565
Na9 O27 2.445172 1_556
Na9 O21 2.462535 1_555
Na9 O13 2.492933 1_555
Na9 O40 2.555465 1_545
Na9 O16 2.592020 1_545
Na9 O5 2.842681 1_555
Na10 O29 2.353872 1_554
Na10 O19 2.367675 1_555
Na10 O46 2.417507 1_555
Na10 O3 2.517878 1_555
Na10 O22 2.633704 1_555
Na10 O11 2.914617 1_555
Na10 O8 2.920935 1_555
Na11 O31 2.445172 1_556
Na11 O17 2.462535 1_555
Na11 O9 2.492933 1_555
Na11 O44 2.555465 1_555
Na11 O20 2.592020 1_555
Na11 O1 2.842681 1_555
O0 Si9 1.644608 1_555
O0 Ta0 2.032488 1_555
O1 Si8 1.661783 1_555
O1 Ta1 2.054235 1_555
O2 Si11 1.651781 1_555
O2 Ta2 2.053638 1_555
O3 Si10 1.614758 1_555
O3 Sc0 2.203080 1_555
O4 Si5 1.644608 1_545
O4 Ta3 2.032488 1_555
O5 Si4 1.661783 1_545
O5 Ta4 2.054235 1_555
O6 Si7 1.651781 1_565
O6 Ta5 2.053638 1_555
O7 Si6 1.614758 1_565
O7 Sc1 2.203080 1_555
O8 Si2 1.658291 1_555
O8 Ta5 1.957925 1_555
O9 Si2 1.605272 1_555
O9 Sc1 2.012151 1_556
O10 Si3 1.641245 1_555
O10 Ta3 1.944599 1_555
O11 Si3 1.665569 1_555
O11 Ta4 1.933184 1_554
O12 Si0 1.658291 1_545
O12 Ta2 1.957925 1_555
O13 Si0 1.605272 1_445
O13 Sc0 2.012151 1_556
O14 Si1 1.641245 1_565
O14 Ta0 1.944599 1_555
O15 Si1 1.665569 1_665
O15 Ta1 1.933184 1_554
O16 Si4 1.646995 1_555
O16 Ta0 2.025842 1_555
O17 Si5 1.649211 1_555
O17 Ta1 2.029569 1_555
O18 Si6 1.645987 1_555
O18 Ta2 2.019073 1_555
O19 Si7 1.607221 1_555
O19 Sc0 2.160106 1_555
O20 Si8 1.646995 1_555
O20 Ta3 2.025842 1_555
O21 Si9 1.649211 1_555
O21 Ta4 2.029569 1_555
O22 Si10 1.645987 1_555
O22 Ta5 2.019073 1_555
O23 Si11 1.607221 1_555
O23 Sc1 2.160106 1_555
O24 Si4 1.669478 1_555
O24 Ta5 1.935116 1_555
O25 Si5 1.614593 1_555
O25 Sc1 2.125078 1_556
O26 Si6 1.640769 1_555
O26 Ta3 1.911436 1_555
O27 Si7 1.672794 1_555
O27 Ta4 2.011500 1_554
O28 Si8 1.669478 1_555
O28 Ta2 1.935116 1_555
O29 Si9 1.614593 1_555
O29 Sc0 2.125078 1_556
O30 Si10 1.640769 1_555
O30 Ta0 1.911436 1_555
O31 Si11 1.672794 1_555
O31 Ta1 2.011500 1_554
O32 Si4 1.603546 1_555
O32 Sc1 2.085782 1_556
O33 Si5 1.668908 1_555
O33 Ta5 1.993235 1_555
O34 Si6 1.658658 1_555
O34 Ta4 1.979313 1_554
O35 Si7 1.647672 1_555
O35 Ta3 1.960670 1_555
O36 Si8 1.603546 1_555
O36 Sc0 2.085782 1_656
O37 Si9 1.668908 1_555
O37 Ta2 1.993235 1_455
O38 Si10 1.658658 1_555
O38 Ta1 1.979313 1_454
O39 Si11 1.647672 1_555
O39 Ta0 1.960670 1_655
O40 Si0 1.660796 1_455
O40 Ta0 2.041806 1_555
O41 Si0 1.645545 1_555
O41 Ta1 1.991979 1_555
O42 Si1 1.659495 1_655
O42 Ta2 2.073613 1_555
O43 Si1 1.603989 1_555
O43 Sc0 2.120827 1_555
O44 Si2 1.660796 1_555
O44 Ta3 2.041806 1_555
O45 Si2 1.645545 1_555
O45 Ta4 1.991979 1_555
O46 Si3 1.659495 1_555
O46 Ta5 2.073613 1_555
O47 Si3 1.603989 1_555
O47 Sc1 2.120827 1_555
