# generated using pymatgen
data_MgV4O7F5
_symmetry_space_group_name_H-M   'P 1'
_cell_length_a   5.13643260
_cell_length_b   5.52995175
_cell_length_c   9.14807522
_cell_angle_alpha   72.63421918
_cell_angle_beta   92.41744439
_cell_angle_gamma   61.18148181
_symmetry_Int_Tables_number   1
_chemical_formula_structural   MgV4O7F5
_chemical_formula_sum   'Mg1 V4 O7 F5'
_cell_volume   211.83888197
_cell_formula_units_Z   1
loop_
 _symmetry_equiv_pos_site_id
 _symmetry_equiv_pos_as_xyz
  1  'x, y, z'
loop_
 _atom_site_type_symbol
 _atom_site_label
 _atom_site_symmetry_multiplicity
 _atom_site_fract_x
 _atom_site_fract_y
 _atom_site_fract_z
 _atom_site_occupancy
  Mg  Mg0  1  0.96844700  0.12178400  0.64915600  1
  V  V0  1  0.72135000  0.47994200  0.26358900  1
  V  V1  1  0.50609500  0.99812600  0.49101500  1
  V  V2  1  0.28282700  0.51327500  0.74021900  1
  V  V3  1  0.98267500  0.96006300  0.03674200  1
  O  O0  1  0.93572800  0.77181200  0.58827300  1
  O  O1  1  0.90049100  0.74049700  0.16530200  1
  O  O2  1  0.38037000  0.77397300  0.08837200  1
  O  O3  1  0.41249800  0.79697800  0.66185200  1
  O  O4  1  0.54159700  0.25158300  0.33128700  1
  O  O5  1  0.60998700  0.25192300  0.90318900  1
  O  O6  1  0.03068200  0.27469100  0.42820500  1
  F  F0  1  0.93846800  0.23855800  0.13507700  1
  F  F1  1  0.49929300  0.75174500  0.37726100  1
  F  F2  1  0.51889800  0.27084200  0.61475100  1
  F  F3  1  0.03888900  0.78247600  0.86574500  1
  F  F4  1  0.09420500  0.25923300  0.79568000  1
loop_
_geom_bond_atom_site_label_1
_geom_bond_atom_site_label_2
_geom_bond_distance
_geom_bond_site_symmetry_2
Mg0 O6 2.048799 1_655
Mg0 O3 2.084576 1_645
Mg0 O0 2.243448 1_545
O0 V2 1.817142 1_655
O0 V1 1.932577 1_555
O1 V3 1.649001 1_555
O1 V0 2.075040 1_555
O2 V3 1.748342 1_455
O2 V0 1.934548 1_555
O3 V1 1.857975 1_555
O3 V2 1.948124 1_555
O4 V1 1.783030 1_545
O4 V0 1.880464 1_555
O5 V2 1.815580 1_555
O5 V3 1.846369 1_546
O6 V0 1.766289 1_455
O6 V1 2.094938 1_545
F0 V3 1.933830 1_545
F0 V0 2.004957 1_555
F1 V1 1.956951 1_555
F1 V0 2.005434 1_555
F2 V2 2.013408 1_555
F2 Mg0 2.014749 1_555
F2 V1 2.160644 1_545
F3 V3 2.043664 1_456
F3 V2 2.109099 1_555
F3 Mg0 2.154806 1_465
F4 Mg0 1.949400 1_455
F4 V2 2.024306 1_555
