# generated using pymatgen
data_Ba2NdMgSbO6
_symmetry_space_group_name_H-M   'P 1'
_cell_length_a   7.40553021
_cell_length_b   7.40629678
_cell_length_c   7.40239428
_cell_angle_alpha   49.61645855
_cell_angle_beta   49.60755664
_cell_angle_gamma   49.60744714
_symmetry_Int_Tables_number   1
_chemical_formula_structural   Ba2NdMgSbO6
_chemical_formula_sum   'Ba2 Nd1 Mg1 Sb1 O6'
_cell_volume   216.56010330
_cell_formula_units_Z   1
loop_
 _symmetry_equiv_pos_site_id
 _symmetry_equiv_pos_as_xyz
  1  'x, y, z'
loop_
 _atom_site_type_symbol
 _atom_site_label
 _atom_site_symmetry_multiplicity
 _atom_site_fract_x
 _atom_site_fract_y
 _atom_site_fract_z
 _atom_site_occupancy
  Ba  Ba0  1  0.72812239  0.72624694  0.72808852  1
  Ba  Ba1  1  0.17996492  0.17902890  0.18010703  1
  Nd  Nd0  1  0.99533024  0.99399044  0.99527310  1
  Mg  Mg0  1  0.39852551  0.39660656  0.39813659  1
  Sb  Sb0  1  0.55073926  0.55042558  0.55148585  1
  O  O0  1  0.62316239  0.30984606  0.86825831  1
  O  O1  1  0.30899593  0.86777361  0.62260171  1
  O  O2  1  0.86739528  0.62280825  0.30833864  1
  O  O3  1  0.31289846  0.75355430  0.15460019  1
  O  O4  1  0.15448296  0.31140839  0.75492146  1
  O  O5  1  0.75538266  0.15289396  0.31318862  1
loop_
_geom_bond_atom_site_label_1
_geom_bond_atom_site_label_2
_geom_bond_distance
_geom_bond_site_symmetry_2
Ba0 O4 2.626358 1_655
Ba0 O3 2.627417 1_556
Ba0 O5 2.627903 1_565
Ba0 O0 3.017750 1_555
Ba0 O1 3.034194 1_555
Ba0 O2 3.035148 1_555
Ba1 O5 2.724249 1_455
Ba1 O4 2.726590 1_554
Ba1 O3 2.728428 1_545
Ba1 O1 2.893684 1_545
Ba1 O2 2.897693 1_455
Ba1 O0 2.905776 1_554
Nd0 O4 2.352596 1_665
Nd0 O3 2.353396 1_656
Nd0 O5 2.353632 1_566
Nd0 O2 2.469877 1_556
Nd0 O1 2.470246 1_655
Nd0 O0 2.470789 1_565
Mg0 O4 1.942157 1_555
Mg0 O5 1.942204 1_555
Mg0 O3 1.942742 1_555
O0 Sb0 1.984516 1_555
O1 Sb0 1.983637 1_555
O2 Sb0 1.983623 1_555
