# generated using pymatgen
data_Ce(Sn3Ru2)2
_symmetry_space_group_name_H-M   'P 1'
_cell_length_a   6.91769041
_cell_length_b   6.91769041
_cell_length_c   6.91769041
_cell_angle_alpha   120.18457926
_cell_angle_beta   120.18457926
_cell_angle_gamma   89.68059556
_symmetry_Int_Tables_number   1
_chemical_formula_structural   Ce(Sn3Ru2)2
_chemical_formula_sum   'Ce1 Sn6 Ru4'
_cell_volume   233.42518818
_cell_formula_units_Z   1
loop_
 _symmetry_equiv_pos_site_id
 _symmetry_equiv_pos_as_xyz
  1  'x, y, z'
loop_
 _atom_site_type_symbol
 _atom_site_label
 _atom_site_symmetry_multiplicity
 _atom_site_fract_x
 _atom_site_fract_y
 _atom_site_fract_z
 _atom_site_occupancy
  Ce  Ce0  1  0.00000000  0.00000000  -0.00000000  1
  Sn  Sn0  1  0.50000000  0.00000000  0.50000000  1
  Sn  Sn1  1  0.52948526  0.87933894  0.00000000  1
  Sn  Sn2  1  0.12066106  0.12066106  0.65014533  1
  Sn  Sn3  1  0.47051474  0.47051474  0.34985467  1
  Sn  Sn4  1  0.87933894  0.52948526  -0.00000000  1
  Sn  Sn5  1  0.00000000  0.50000000  0.50000000  1
  Ru  Ru0  1  0.59748171  0.24717433  0.00000000  1
  Ru  Ru1  1  0.24717433  0.59748171  0.00000000  1
  Ru  Ru2  1  0.40251829  0.40251829  0.64969061  1
  Ru  Ru3  1  0.75282567  0.75282567  0.35030939  1
loop_
_geom_bond_atom_site_label_1
_geom_bond_atom_site_label_2
_geom_bond_distance
_geom_bond_site_symmetry_2
Ce0 Ru3 3.259438 1_444
Ce0 Ru2 3.259443 1_555
Ce0 Ru1 3.259450 1_545
Ce0 Ru0 3.259450 1_455
Ce0 Sn3 3.364700 1_555
Ce0 Sn4 3.364702 1_445
Ce0 Sn1 3.364702 1_445
Ce0 Sn2 3.364709 1_554
Ce0 Sn5 3.449191 1_544
Ce0 Sn5 3.449191 1_555
Ce0 Sn0 3.449191 1_454
Ce0 Sn0 3.449191 1_555
Ce0 Sn2 3.752172 1_555
Ce0 Sn3 3.752177 1_444
Ce0 Sn1 3.752179 1_545
Ce0 Sn4 3.752179 1_455
Ru0 Sn1 2.590259 1_545
Ru0 Sn0 2.657490 1_554
Ru0 Sn5 2.657490 1_655
Ru0 Sn2 2.716271 1_554
Ru0 Sn3 2.716275 1_555
Ru0 Sn4 2.767337 1_555
Ru1 Sn4 2.590259 1_455
Ru1 Sn0 2.657490 1_565
Ru1 Sn5 2.657490 1_554
Ru1 Sn2 2.716271 1_554
Ru1 Sn3 2.716275 1_555
Ru1 Sn1 2.767337 1_555
Ru2 Sn3 2.590239 1_555
Ru2 Sn5 2.657490 1_555
Ru2 Sn0 2.657490 1_555
Ru2 Sn1 2.716272 1_556
Ru2 Sn4 2.716272 1_556
Ru2 Sn2 2.767342 1_555
Ru3 Sn2 2.590263 1_665
Ru3 Sn0 2.657484 1_565
Ru3 Sn5 2.657484 1_655
Ru3 Sn1 2.716281 1_555
Ru3 Sn4 2.716281 1_555
Ru3 Sn3 2.767332 1_555
