# generated using pymatgen
data_Na2Sc3TaSi2(SO6)4
_symmetry_space_group_name_H-M   'P 1'
_cell_length_a   8.89361228
_cell_length_b   8.88146733
_cell_length_c   23.18181351
_cell_angle_alpha   90.21962432
_cell_angle_beta   89.68781991
_cell_angle_gamma   119.93951541
_symmetry_Int_Tables_number   1
_chemical_formula_structural   Na2Sc3TaSi2(SO6)4
_chemical_formula_sum   'Na6 Sc9 Ta3 Si6 S12 O72'
_cell_volume   1586.71351768
_cell_formula_units_Z   3
loop_
 _symmetry_equiv_pos_site_id
 _symmetry_equiv_pos_as_xyz
  1  'x, y, z'
loop_
 _atom_site_type_symbol
 _atom_site_label
 _atom_site_symmetry_multiplicity
 _atom_site_fract_x
 _atom_site_fract_y
 _atom_site_fract_z
 _atom_site_occupancy
  Na  Na0  1  0.00040799  0.99182894  0.49803775  1
  Na  Na1  1  0.99750365  0.98276214  0.99800274  1
  Na  Na2  1  0.65302971  0.32928670  0.83352251  1
  Na  Na3  1  0.68037068  0.33633570  0.33088280  1
  Na  Na4  1  0.32008594  0.65972605  0.15948318  1
  Na  Na5  1  0.33113584  0.65951967  0.66801030  1
  Sc  Sc0  1  0.99586885  0.00050078  0.35157079  1
  Sc  Sc1  1  0.01498952  0.00011415  0.85563097  1
  Sc  Sc2  1  0.01120447  0.01360015  0.65134538  1
  Sc  Sc3  1  0.00041498  0.00236139  0.14426751  1
  Sc  Sc4  1  0.65555133  0.33396808  0.68825088  1
  Sc  Sc5  1  0.68909515  0.34183284  0.18541615  1
  Sc  Sc6  1  0.67897957  0.34358550  0.47831757  1
  Sc  Sc7  1  0.33254994  0.67876801  0.01881656  1
  Sc  Sc8  1  0.32420112  0.67039440  0.51776555  1
  Ta  Ta0  1  0.66495981  0.34476317  0.97832947  1
  Ta  Ta1  1  0.31619133  0.65721163  0.31188084  1
  Ta  Ta2  1  0.34414537  0.66625476  0.81716540  1
  Si  Si0  1  0.99151094  0.28016238  0.24992721  1
  Si  Si1  1  0.29081468  0.29403303  0.75086547  1
  Si  Si2  1  0.96461013  0.62971450  0.08378603  1
  Si  Si3  1  0.62872235  0.67575372  0.91996020  1
  Si  Si4  1  0.33579586  0.95925226  0.91798588  1
  Si  Si5  1  0.03858254  0.67148662  0.41820756  1
  S  S0  1  0.29239750  0.00121760  0.25078771  1
  S  S1  1  0.70583451  0.70816905  0.25101149  1
  S  S2  1  0.00188404  0.70733168  0.74977246  1
  S  S3  1  0.70844358  -0.00031507  0.75058154  1
  S  S4  1  0.95710230  0.33170071  0.58354309  1
  S  S5  1  0.37608324  0.04279767  0.58287074  1
  S  S6  1  0.66721937  0.62703658  0.58311787  1
  S  S7  1  0.66693649  0.04573126  0.08294729  1
  S  S8  1  0.37917887  0.33425098  0.08403023  1
  S  S9  1  0.04329306  0.37815194  0.91735687  1
  S  S10  1  0.62062891  0.95434620  0.41669474  1
  S  S11  1  0.33365676  0.37853150  0.41657348  1
  O  O0  1  0.21068860  0.02082122  0.30323472  1
  O  O1  1  0.81253946  0.78551369  0.30283915  1
  O  O2  1  0.97669458  0.17487647  0.30834791  1
  O  O3  1  0.20188609  0.17669571  0.80620455  1
  O  O4  1  0.96943681  0.78225213  0.80128859  1
  O  O5  1  0.81009373  0.02354439  0.80191620  1
  O  O6  1  0.78097446  0.96547579  0.69756937  1
  O  O7  1  0.17475721  0.21036071  0.69224582  1
  O  O8  1  0.02909351  0.81356339  0.69735432  1
  O  O9  1  0.77987245  0.81398343  0.19918622  1
  O  O10  1  0.03552428  0.20386857  0.19323313  1
  O  O11  1  0.18473975  0.96034793  0.19925749  1
  O  O12  1  0.87670585  0.35767566  0.63530580  1
  O  O13  1  0.48172668  0.12439840  0.63484824  1
  O  O14  1  0.64196361  0.51917916  0.63479543  1
  O  O15  1  0.86654860  0.50908123  0.13946394  1
  O  O16  1  0.63884321  0.12334560  0.13540857  1
  O  O17  1  0.48256399  0.35370763  0.13527385  1
  O  O18  1  0.46585927  0.30831090  0.03005410  1
  O  O19  1  0.83285879  0.52011873  0.02655027  1
  O  O20  1  0.68790732  0.15367904  0.03078837  1
  O  O21  1  0.45724008  0.14817960  0.53079625  1
  O  O22  1  0.69126888  0.54267654  0.53088148  1
  O  O23  1  0.85157108  0.30874480  0.53118380  1
  O  O24  1  0.53094239  0.68783594  0.97514612  1
  O  O25  1  0.14688725  0.45475607  0.96855507  1
  O  O26  1  0.30211284  0.83955036  0.97292000  1
  O  O27  1  0.54197926  0.84824006  0.46883141  1
  O  O28  1  0.31056114  0.46089306  0.46835067  1
  O  O29  1  0.16110739  0.69417705  0.47294493  1
  O  O30  1  0.14436407  0.64411942  0.36071862  1
  O  O31  1  0.51333211  0.86812614  0.36440595  1
  O  O32  1  0.36104526  0.49120890  0.36394209  1
  O  O33  1  0.12508515  0.49020049  0.86411051  1
  O  O34  1  0.36157963  0.86014164  0.85913361  1
  O  O35  1  0.49908807  0.63291926  0.86046957  1
  O  O36  1  0.02204061  0.84179247  0.40968736  1
  O  O37  1  0.79477984  0.97438241  0.41090532  1
  O  O38  1  0.17839366  0.20701873  0.40968774  1
  O  O39  1  0.01763080  0.20449507  0.90828998  1
  O  O40  1  0.17227086  0.98745178  0.91046222  1
  O  O41  1  0.81446866  0.83791177  0.90698307  1
  O  O42  1  0.97228403  0.17239181  0.58786753  1
  O  O43  1  0.19910036  0.02031572  0.58881004  1
  O  O44  1  0.82384535  0.80055585  0.58909817  1
  O  O45  1  0.97378212  0.81764895  0.08834347  1
  O  O46  1  0.82653008  0.03324708  0.08720894  1
  O  O47  1  0.20756055  0.17419378  0.08611183  1
  O  O48  1  0.68538784  0.15245227  0.74232522  1
  O  O49  1  0.48671403  0.32166588  0.74211246  1
  O  O50  1  0.85008469  0.53027309  0.74186512  1
  O  O51  1  0.67536006  0.53022208  0.24510574  1
  O  O52  1  0.82995248  0.31542860  0.24717174  1
  O  O53  1  0.46545556  0.15206269  0.24449378  1
  O  O54  1  0.64118743  0.49231846  0.92484922  1
  O  O55  1  0.86807311  0.36432790  0.92246301  1
  O  O56  1  0.51732050  0.14944571  0.92633608  1
  O  O57  1  0.63306377  0.12654515  0.42222874  1
  O  O58  1  0.49033418  0.36179744  0.42092384  1
  O  O59  1  0.85144535  0.49131008  0.42194532  1
  O  O60  1  0.36256707  0.48831298  0.07666426  1
  O  O61  1  0.15021467  0.63966504  0.07863036  1
  O  O62  1  0.51425159  0.87063743  0.07827207  1
  O  O63  1  0.36031494  0.86755366  0.57819395  1
  O  O64  1  0.50988127  0.64336719  0.57686354  1
  O  O65  1  0.13417785  0.48674953  0.57733101  1
  O  O66  1  0.31646502  0.84081937  0.26018486  1
  O  O67  1  0.52988828  0.69442042  0.26115075  1
  O  O68  1  0.17527970  0.48334605  0.26107547  1
  O  O69  1  0.30897546  0.49116766  0.75864757  1
  O  O70  1  0.16044008  0.69042946  0.75668028  1
  O  O71  1  0.52765489  0.83954063  0.75675763  1
loop_
_geom_bond_atom_site_label_1
_geom_bond_atom_site_label_2
_geom_bond_distance
_geom_bond_site_symmetry_2
Na0 O36 2.497635 1_555
Na0 O44 2.671409 1_455
Na0 O37 2.683912 1_455
Na0 O43 2.684165 1_565
Na0 O38 2.707037 1_565
Na0 O42 2.709218 1_465
Na1 O45 2.508152 1_556
Na1 O40 2.537229 1_655
Na1 O41 2.585202 1_555
Na1 O47 2.719770 1_666
Na1 O46 2.725587 1_566
Na1 O39 2.812629 1_665
Na2 O49 2.572150 1_555
Na2 O56 2.590567 1_555
Na2 O54 2.591557 1_555
Na2 O48 2.727270 1_555
Na2 O55 2.729381 1_555
Na2 O50 2.763756 1_555
Na3 O52 2.405357 1_555
Na3 O59 2.566720 1_555
Na3 O51 2.650485 1_555
Na3 O53 2.690093 1_555
Na3 O57 2.714928 1_555
Na3 O58 2.757523 1_555
Na4 O61 2.363649 1_555
Na4 O60 2.586551 1_555
Na4 O62 2.607282 1_555
Na4 O68 2.764141 1_555
Na4 O66 2.838952 1_555
Na4 O67 2.932520 1_555
Na5 O69 2.532727 1_555
Na5 O70 2.642512 1_555
Na5 O71 2.658618 1_555
Na5 O65 2.678472 1_555
Na5 O64 2.683460 1_555
Na5 O63 2.713174 1_555
O0 S0 1.466847 1_555
O0 Sc0 2.138290 1_455
O1 S1 1.473555 1_555
O1 Sc0 2.115758 1_565
O2 Si0 1.615753 1_555
O2 Sc0 1.925860 1_555
O3 Si1 1.591780 1_555
O3 Sc1 1.981479 1_555
O4 S2 1.460842 1_655
O4 Sc1 2.167832 1_665
O5 S3 1.448078 1_555
O5 Sc1 2.306449 1_655
O6 S3 1.484178 1_565
O6 Sc2 2.151633 1_665
O7 Si1 1.645042 1_555
O7 Sc2 1.879808 1_555
O8 S2 1.484254 1_555
O8 Sc2 2.148902 1_565
O9 S1 1.463727 1_555
O9 Sc3 2.231745 1_665
O10 Si0 1.609968 1_455
O10 Sc3 2.004848 1_555
O11 S0 1.462092 1_565
O11 Sc3 2.255794 1_565
O12 S4 1.468854 1_555
O12 Sc4 2.231949 1_555
O13 S5 1.478453 1_555
O13 Sc4 2.125533 1_555
O14 S6 1.481328 1_555
O14 Sc4 2.114647 1_555
O15 Si2 1.624836 1_555
O15 Sc5 1.867018 1_555
O16 S7 1.476073 1_555
O16 Sc5 2.105201 1_555
O17 S8 1.462247 1_555
O17 Sc5 2.225693 1_555
O18 S8 1.541943 1_555
O18 Ta0 2.021302 1_554
O19 Si2 1.717410 1_555
O19 Ta0 1.894300 1_554
O20 S7 1.497972 1_555
O20 Ta0 2.182878 1_554
O21 S5 1.476178 1_555
O21 Sc6 2.225931 1_555
O22 S6 1.491192 1_555
O22 Sc6 2.101281 1_555
O23 S4 1.488366 1_555
O23 Sc6 2.109812 1_555
O24 Si3 1.576183 1_555
O24 Sc7 1.995965 1_556
O25 S9 1.449284 1_555
O25 Sc7 2.183217 1_556
O26 Si4 1.590611 1_555
O26 Sc7 1.909205 1_556
O27 S10 1.476370 1_555
O27 Sc8 2.114041 1_555
O28 S11 1.469191 1_555
O28 Sc8 2.132825 1_555
O29 Si5 1.622369 1_555
O29 Sc8 1.884685 1_555
O30 Si5 1.712405 1_555
O30 Ta1 1.853472 1_555
O31 S10 1.497462 1_555
O31 Ta1 2.189317 1_555
O32 S11 1.520606 1_555
O32 Ta1 2.096504 1_555
O33 S9 1.523204 1_555
O33 Ta2 2.091431 1_555
O34 Si4 1.696351 1_555
O34 Ta2 1.912628 1_555
O35 Si3 1.717954 1_555
O35 Ta2 1.849022 1_555
O36 Si5 1.604131 1_555
O36 Sc0 2.049778 1_465
O37 S10 1.473554 1_555
O37 Sc0 2.169264 1_565
O38 S11 1.467508 1_555
O38 Sc0 2.201667 1_455
O39 S9 1.456612 1_555
O39 Sc1 2.174042 1_555
O40 Si4 1.604646 1_555
O40 Sc1 1.939702 1_565
O41 Si3 1.586426 1_555
O41 Sc1 2.024456 1_665
O42 S4 1.490684 1_555
O42 Sc2 2.186986 1_655
O43 S5 1.490131 1_555
O43 Sc2 2.184582 1_555
O44 S6 1.480632 1_555
O44 Sc2 2.301561 1_665
O45 Si2 1.632991 1_555
O45 Sc3 2.006809 1_665
O46 S7 1.481670 1_555
O46 Sc3 2.159838 1_655
O47 S8 1.478752 1_555
O47 Sc3 2.173213 1_555
O48 S3 1.483138 1_555
O48 Sc4 2.164914 1_555
O49 Si1 1.645168 1_555
O49 Sc4 1.908543 1_555
O50 S2 1.486766 1_655
O50 Sc4 2.138610 1_555
O51 S1 1.470084 1_555
O51 Sc5 2.216644 1_555
O52 Si0 1.617733 1_555
O52 Sc5 1.997293 1_555
O53 S0 1.458030 1_555
O53 Sc5 2.305244 1_555
O54 Si3 1.691501 1_555
O54 Ta0 1.895002 1_555
O55 S9 1.504867 1_655
O55 Ta0 2.152552 1_555
O56 Si4 1.666135 1_545
O56 Ta0 1.978302 1_555
O57 S10 1.482401 1_545
O57 Sc6 2.184951 1_555
O58 S11 1.477249 1_555
O58 Sc6 2.215407 1_555
O59 Si5 1.636852 1_655
O59 Sc6 1.940198 1_555
O60 S8 1.458447 1_555
O60 Sc7 2.280979 1_555
O61 Si2 1.612205 1_455
O61 Sc7 2.022361 1_555
O62 S7 1.471898 1_565
O62 Sc7 2.161598 1_555
O63 S5 1.494951 1_565
O63 Sc8 2.134584 1_555
O64 S6 1.484946 1_555
O64 Sc8 2.254856 1_555
O65 S4 1.493828 1_455
O65 Sc8 2.159514 1_555
O66 S0 1.558824 1_565
O66 Ta1 2.026419 1_555
O67 S1 1.524544 1_555
O67 Ta1 2.110917 1_555
O68 Si0 1.746857 1_455
O68 Ta1 1.847337 1_555
O69 Si1 1.685146 1_555
O69 Ta2 1.964467 1_555
O70 S2 1.500201 1_555
O70 Ta2 2.249193 1_555
O71 S3 1.531357 1_565
O71 Ta2 2.116052 1_555
