# generated using pymatgen
data_MgTi3O6
_symmetry_space_group_name_H-M   'P 1'
_cell_length_a   5.90037800
_cell_length_b   5.93963067
_cell_length_c   5.84593560
_cell_angle_alpha   90.70406461
_cell_angle_beta   90.00000000
_cell_angle_gamma   119.78163996
_symmetry_Int_Tables_number   1
_chemical_formula_structural   MgTi3O6
_chemical_formula_sum   'Mg1 Ti3 O6'
_cell_volume   177.80001810
_cell_formula_units_Z   1
loop_
 _symmetry_equiv_pos_site_id
 _symmetry_equiv_pos_as_xyz
  1  'x, y, z'
loop_
 _atom_site_type_symbol
 _atom_site_label
 _atom_site_symmetry_multiplicity
 _atom_site_fract_x
 _atom_site_fract_y
 _atom_site_fract_z
 _atom_site_occupancy
  Mg  Mg0  1  0.87612100  0.00000000  0.83333300  1
  Ti  Ti0  1  0.49362800  0.49996600  0.00678000  1
  Ti  Ti1  1  0.99366200  0.50003400  0.65988700  1
  Ti  Ti2  1  0.51623700  0.00000000  0.33333300  1
  O  O0  1  0.48276100  0.26897800  0.21761600  1
  O  O1  1  0.21378300  0.73102200  0.44905100  1
  O  O2  1  0.79505900  0.63109900  0.80262200  1
  O  O3  1  0.16396000  0.36890100  0.86404500  1
  O  O4  1  0.75970200  0.13795000  0.57559500  1
  O  O5  1  0.62175300  0.86205000  0.09107100  1
loop_
_geom_bond_atom_site_label_1
_geom_bond_atom_site_label_2
_geom_bond_distance
_geom_bond_site_symmetry_2
Mg0 O5 2.000719 1_546
Mg0 O4 2.000722 1_555
Mg0 O2 2.002828 1_545
Mg0 O3 2.002829 1_655
O0 Ti0 1.832964 1_555
O0 Ti2 1.840949 1_555
O1 Ti1 1.832964 1_455
O1 Ti2 1.840951 1_565
O2 Ti1 1.888314 1_555
O2 Ti0 1.959863 1_556
O3 Ti0 1.888314 1_556
O3 Ti1 1.959864 1_455
O4 Ti2 1.882277 1_555
O4 Ti1 1.948962 1_555
O5 Ti2 1.882280 1_565
O5 Ti0 1.948960 1_555
