# generated using pymatgen
data_Na12Ca4Ta2Si6(SO12)3
_symmetry_space_group_name_H-M   'P 1'
_cell_length_a   9.45076816
_cell_length_b   9.43184727
_cell_length_c   22.69223108
_cell_angle_alpha   90.32953718
_cell_angle_beta   90.00000000
_cell_angle_gamma   120.06638227
_symmetry_Int_Tables_number   1
_chemical_formula_structural   Na12Ca4Ta2Si6(SO12)3
_chemical_formula_sum   'Na24 Ca8 Ta4 Si12 S6 O72'
_cell_volume   1750.53667649
_cell_formula_units_Z   2
loop_
 _symmetry_equiv_pos_site_id
 _symmetry_equiv_pos_as_xyz
  1  'x, y, z'
loop_
 _atom_site_type_symbol
 _atom_site_label
 _atom_site_symmetry_multiplicity
 _atom_site_fract_x
 _atom_site_fract_y
 _atom_site_fract_z
 _atom_site_occupancy
  Na  Na0  1  0.65720681  0.02217162  0.25861789  1
  Na  Na1  1  0.33269254  0.32425009  0.25415034  1
  Na  Na2  1  0.00106811  0.64580344  0.23448111  1
  Na  Na3  1  0.64473532  0.64580344  0.73448111  1
  Na  Na4  1  0.99155755  0.32425009  0.75415034  1
  Na  Na5  1  0.36496481  0.02217162  0.75861789  1
  Na  Na6  1  0.30962393  0.35206711  0.58613460  1
  Na  Na7  1  0.02847246  0.70934919  0.57251768  1
  Na  Na8  1  0.66470731  0.93951483  0.57962492  1
  Na  Na9  1  0.27480852  0.93951483  0.07962492  1
  Na  Na10  1  0.68087773  0.70934919  0.07251768  1
  Na  Na11  1  0.04244418  0.35206711  0.08613460  1
  Na  Na12  1  0.00274636  0.70184104  0.91661312  1
  Na  Na13  1  0.70991132  0.01947623  0.90432318  1
  Na  Na14  1  0.30339797  0.28202055  0.90513905  1
  Na  Na15  1  0.97862158  0.28202055  0.40513905  1
  Na  Na16  1  0.30956391  0.01947623  0.40432318  1
  Na  Na17  1  0.69909368  0.70184104  0.41661312  1
  Na  Na18  1  0.98748054  0.98907236  0.49000058  1
  Na  Na19  1  0.00159182  0.98907236  0.99000058  1
  Na  Na20  1  0.64731142  0.31680828  0.82494866  1
  Na  Na21  1  0.66949786  0.31680828  0.32494866  1
  Na  Na22  1  0.29703276  0.66354388  0.16967671  1
  Na  Na23  1  0.36651013  0.66354388  0.66967671  1
  Ca  Ca0  1  0.00235416  0.00143894  0.34637994  1
  Ca  Ca1  1  0.99908478  0.00143894  0.84637994  1
  Ca  Ca2  1  0.98844271  0.00272843  0.65279537  1
  Ca  Ca3  1  0.01428572  0.00272843  0.15279537  1
  Ca  Ca4  1  0.66158782  0.33519509  0.68439255  1
  Ca  Ca5  1  0.67360827  0.33519509  0.18439255  1
  Ca  Ca6  1  0.33043768  0.66704863  0.01372300  1
  Ca  Ca7  1  0.33660995  0.66704863  0.51372300  1
  Ta  Ta0  1  0.67893480  0.34400979  0.97378666  1
  Ta  Ta1  1  0.66507599  0.34400979  0.47378666  1
  Ta  Ta2  1  0.32296735  0.66635457  0.32340390  1
  Ta  Ta3  1  0.34338621  0.66635457  0.82340390  1
  Si  Si0  1  0.31006598  0.98934757  0.25194120  1
  Si  Si1  1  0.00911855  0.31636439  0.25145374  1
  Si  Si2  1  0.30724584  0.31636439  0.75145374  1
  Si  Si3  1  0.67928158  0.98934757  0.75194120  1
  Si  Si4  1  0.67194689  0.63502773  0.58375169  1
  Si  Si5  1  0.96308183  0.63502773  0.08375169  1
  Si  Si6  1  0.63524129  0.66280969  0.92307103  1
  Si  Si7  1  0.03435073  0.37027274  0.92058992  1
  Si  Si8  1  0.34061853  0.97005156  0.92276626  1
  Si  Si9  1  0.62943203  0.97005156  0.42276626  1
  Si  Si10  1  0.33592101  0.37027274  0.42058992  1
  Si  Si11  1  0.02756740  0.66280969  0.42307103  1
  S  S0  1  0.67852500  0.69532102  0.25154087  1
  S  S1  1  0.01679602  0.69532102  0.75154087  1
  S  S2  1  0.95134199  0.32864223  0.58018568  1
  S  S3  1  0.37365630  0.04705821  0.57989217  1
  S  S4  1  0.67340291  0.04705821  0.07989217  1
  S  S5  1  0.37730124  0.32864223  0.08018568  1
  O  O0  1  0.22257588  0.01433840  0.30860410  1
  O  O1  1  0.78008919  0.76936441  0.30403661  1
  O  O2  1  0.97266569  0.19700438  0.30691701  1
  O  O3  1  0.22433869  0.19700438  0.80691701  1
  O  O4  1  0.98927522  0.76936441  0.80403661  1
  O  O5  1  0.79176252  0.01433840  0.80860410  1
  O  O6  1  0.74557752  0.94337161  0.69192886  1
  O  O7  1  0.19677749  0.24720072  0.69097435  1
  O  O8  1  0.03506915  0.79336442  0.69802923  1
  O  O9  1  0.75829528  0.79336442  0.19802923  1
  O  O10  1  0.05042323  0.24720072  0.19097435  1
  O  O11  1  0.19779409  0.94337161  0.19192886  1
  O  O12  1  0.87181131  0.33066772  0.63549016  1
  O  O13  1  0.46150592  0.12237405  0.63457146  1
  O  O14  1  0.67310587  0.54483624  0.64307519  1
  O  O15  1  0.87173137  0.54483624  0.14307519  1
  O  O16  1  0.66086913  0.12237405  0.13457146  1
  O  O17  1  0.45885741  0.33066772  0.13549016  1
  O  O18  1  0.47557247  0.32248127  0.02830023  1
  O  O19  1  0.83361985  0.50717083  0.02646287  1
  O  O20  1  0.67384201  0.14783322  0.02768403  1
  O  O21  1  0.47399220  0.14783322  0.52768403  1
  O  O22  1  0.67355197  0.50717083  0.52646287  1
  O  O23  1  0.84690980  0.32248127  0.52830023  1
  O  O24  1  0.56720034  0.69403836  0.98279106  1
  O  O25  1  0.12513274  0.43982163  0.98185816  1
  O  O26  1  0.31070216  0.87290875  0.98301268  1
  O  O27  1  0.56220560  0.87290875  0.48301268  1
  O  O28  1  0.31468788  0.43982163  0.48185816  1
  O  O29  1  0.12683701  0.69403836  0.48279106  1
  O  O30  1  0.14072211  0.63981140  0.36864355  1
  O  O31  1  0.49717821  0.85882787  0.36746381  1
  O  O32  1  0.36628309  0.50441490  0.36565562  1
  O  O33  1  0.13813082  0.50441490  0.86565562  1
  O  O34  1  0.36164866  0.85882787  0.86746381  1
  O  O35  1  0.49908830  0.63981140  0.86864355  1
  O  O36  1  0.97982438  0.79963893  0.40961774  1
  O  O37  1  0.81015047  0.00017771  0.41064027  1
  O  O38  1  0.18955333  0.18621617  0.41045927  1
  O  O39  1  0.99666284  0.18621617  0.91045927  1
  O  O40  1  0.19002724  0.00017771  0.91064027  1
  O  O41  1  0.81981455  0.79963893  0.90961774  1
  O  O42  1  0.96646733  0.17917962  0.57601841  1
  O  O43  1  0.21397612  0.04258805  0.57751675  1
  O  O44  1  0.84104237  0.80982798  0.57311166  1
  O  O45  1  0.96878561  0.80982798  0.07311166  1
  O  O46  1  0.82861193  0.04258805  0.07751675  1
  O  O47  1  0.21271229  0.17917962  0.07601841  1
  O  O48  1  0.64927736  0.14551761  0.74902857  1
  O  O49  1  0.49798431  0.36087110  0.75015744  1
  O  O50  1  0.88111128  0.52283899  0.74618326  1
  O  O51  1  0.64172871  0.52283899  0.24618326  1
  O  O52  1  0.86288779  0.36087110  0.25015744  1
  O  O53  1  0.49624125  0.14551761  0.24902857  1
  O  O54  1  0.62557891  0.47689632  0.92411798  1
  O  O55  1  0.84944804  0.36575908  0.92143842  1
  O  O56  1  0.51964128  0.14959314  0.92469726  1
  O  O57  1  0.62995287  0.14959314  0.42469726  1
  O  O58  1  0.51631204  0.36575908  0.42143842  1
  O  O59  1  0.85131841  0.47689632  0.42411798  1
  O  O60  1  0.36430793  0.47907264  0.07841711  1
  O  O61  1  0.14229508  0.64753665  0.08389915  1
  O  O62  1  0.53119326  0.87782887  0.07750460  1
  O  O63  1  0.34663461  0.87782887  0.57750460  1
  O  O64  1  0.50524056  0.64753665  0.58389915  1
  O  O65  1  0.11476371  0.47907264  0.57841711  1
  O  O66  1  0.32617882  0.81909605  0.26353843  1
  O  O67  1  0.51807112  0.69289285  0.25770189  1
  O  O68  1  0.18673771  0.49704886  0.26455099  1
  O  O69  1  0.31031014  0.49704886  0.76455099  1
  O  O70  1  0.17482072  0.69289285  0.75770189  1
  O  O71  1  0.49291623  0.81909605  0.76353843  1
loop_
_geom_bond_atom_site_label_1
_geom_bond_atom_site_label_2
_geom_bond_distance
_geom_bond_site_symmetry_2
Na0 O53 2.343343 1_555
Na0 O67 2.698548 1_545
Na0 O66 2.732526 1_545
Na0 O52 2.793829 1_555
Na0 O2 2.803909 1_555
Na0 O31 2.910434 1_545
Na0 O16 2.969147 1_555
Na1 O51 2.567785 1_555
Na1 O68 2.619717 1_555
Na1 O10 2.783029 1_555
Na1 O53 2.802327 1_555
Na1 O0 2.854394 1_555
Na1 O17 2.933491 1_555
Na1 O32 2.966614 1_555
Na2 O15 2.348237 1_455
Na2 O52 2.355562 1_455
Na2 O11 2.658717 1_555
Na2 O66 2.739042 1_555
Na2 O68 2.826839 1_555
Na3 O14 2.348240 1_555
Na3 O49 2.355562 1_555
Na3 O6 2.658717 1_555
Na3 O71 2.739050 1_555
Na3 O69 2.826848 1_555
Na4 O50 2.567778 1_555
Na4 O69 2.619709 1_655
Na4 O7 2.783029 1_655
Na4 O48 2.802319 1_555
Na4 O5 2.854394 1_555
Na4 O12 2.933488 1_555
Na4 O33 2.966613 1_655
Na5 O48 2.343351 1_555
Na5 O70 2.698549 1_545
Na5 O71 2.732518 1_545
Na5 O49 2.793828 1_555
Na5 O3 2.803909 1_555
Na5 O34 2.910431 1_545
Na5 O13 2.969148 1_555
Na6 O64 2.454784 1_555
Na6 O28 2.503878 1_555
Na6 O43 2.593308 1_555
Na6 O7 2.597240 1_555
Na6 O65 2.658928 1_555
Na6 O42 2.815334 1_455
Na7 O29 2.271976 1_555
Na7 O44 2.391227 1_455
Na7 O63 2.605660 1_555
Na7 O65 2.679260 1_555
Na7 O43 2.727602 1_565
Na7 O8 2.944187 1_555
Na8 O27 2.348155 1_555
Na8 O64 2.389359 1_555
Na8 O44 2.517084 1_555
Na8 O42 2.606187 1_565
Na8 O6 2.655374 1_555
Na8 O63 2.761208 1_555
Na9 O26 2.348150 1_554
Na9 O61 2.389358 1_555
Na9 O45 2.517092 1_455
Na9 O47 2.606194 1_565
Na9 O11 2.655377 1_555
Na9 O62 2.761189 1_555
Na10 O24 2.271984 1_554
Na10 O45 2.391218 1_555
Na10 O62 2.605677 1_555
Na10 O60 2.679274 1_555
Na10 O46 2.727602 1_565
Na10 O9 2.944186 1_555
Na11 O61 2.454788 1_555
Na11 O25 2.503875 1_554
Na11 O46 2.593310 1_455
Na11 O10 2.597238 1_555
Na11 O60 2.658911 1_555
Na11 O47 2.815326 1_555
Na12 O41 2.337638 1_455
Na12 O40 2.466359 1_565
Na12 O4 2.654772 1_455
Na12 O55 2.749796 1_455
Na13 O5 2.314091 1_555
Na13 O39 2.358783 1_555
Na13 O56 2.675466 1_555
Na13 O41 2.748344 1_545
Na13 O55 2.868257 1_555
Na13 O34 2.969306 1_545
Na14 O40 2.319486 1_555
Na14 O3 2.355472 1_555
Na14 O39 2.571215 1_455
Na14 O54 2.686657 1_555
Na15 O37 2.319485 1_555
Na15 O2 2.355474 1_555
Na15 O38 2.571224 1_655
Na15 O59 2.686642 1_555
Na16 O0 2.314088 1_555
Na16 O38 2.358775 1_555
Na16 O57 2.675483 1_555
Na16 O36 2.748337 1_445
Na16 O58 2.868259 1_555
Na16 O31 2.969306 1_545
Na17 O36 2.337647 1_555
Na17 O37 2.466358 1_565
Na17 O1 2.654774 1_555
Na17 O58 2.749796 1_555
Na18 O44 2.454107 1_555
Na18 O37 2.498159 1_565
Na18 O36 2.521457 1_555
Na18 O38 2.615906 1_665
Na18 O42 2.716820 1_565
Na18 O43 2.772464 1_665
Na19 O45 2.454107 1_456
Na19 O40 2.498159 1_565
Na19 O41 2.521457 1_455
Na19 O39 2.615906 1_465
Na19 O47 2.716820 1_566
Na19 O46 2.772464 1_466
Na20 O48 2.361473 1_555
Na20 O49 2.374990 1_555
Na20 O56 2.683475 1_555
Na20 O50 2.755127 1_555
Na20 O54 2.767291 1_555
Na20 O55 2.785928 1_555
Na21 O53 2.361473 1_555
Na21 O52 2.374990 1_555
Na21 O57 2.683475 1_555
Na21 O51 2.755127 1_555
Na21 O59 2.767291 1_555
Na21 O58 2.785928 1_555
Na22 O61 2.392816 1_555
Na22 O66 2.514779 1_555
Na22 O68 2.566376 1_555
Na22 O67 2.800830 1_555
Na22 O60 2.964301 1_555
Na22 O62 2.987294 1_555
Na23 O64 2.392816 1_555
Na23 O71 2.514778 1_555
Na23 O69 2.566376 1_555
Na23 O70 2.800830 1_555
Na23 O65 2.964301 1_555
Na23 O63 2.987294 1_555
Ca0 O2 2.195579 1_455
Ca0 O0 2.197444 1_555
Ca0 O38 2.272241 1_555
Ca0 O36 2.313579 1_445
Ca0 O37 2.324788 1_455
Ca0 O1 2.344264 1_445
Ca1 O3 2.195579 1_655
Ca1 O5 2.197444 1_555
Ca1 O39 2.272241 1_555
Ca1 O41 2.313579 1_545
Ca1 O40 2.324788 1_655
Ca1 O4 2.344264 1_545
Ca2 O6 2.255748 1_545
Ca2 O7 2.317758 1_655
Ca2 O44 2.437820 1_545
Ca2 O8 2.458131 1_645
Ca2 O42 2.495593 1_555
Ca2 O43 2.609026 1_655
Ca3 O11 2.255748 1_545
Ca3 O10 2.317758 1_555
Ca3 O45 2.437820 1_445
Ca3 O9 2.458131 1_445
Ca3 O47 2.495593 1_555
Ca3 O46 2.609026 1_455
Ca4 O14 2.146228 1_555
Ca4 O49 2.246657 1_555
Ca4 O13 2.248026 1_555
Ca4 O48 2.277505 1_555
Ca4 O12 2.294559 1_555
Ca4 O50 2.386398 1_555
Ca5 O15 2.146228 1_555
Ca5 O52 2.246657 1_555
Ca5 O16 2.248026 1_555
Ca5 O53 2.277505 1_555
Ca5 O17 2.294559 1_555
Ca5 O51 2.386398 1_555
Ca6 O26 2.160751 1_554
Ca6 O25 2.167075 1_554
Ca6 O24 2.235083 1_554
Ca6 O61 2.325268 1_555
Ca6 O62 2.415428 1_555
Ca6 O60 2.449416 1_555
Ca7 O27 2.160751 1_555
Ca7 O28 2.167075 1_555
Ca7 O29 2.235083 1_555
Ca7 O64 2.325268 1_555
Ca7 O63 2.415428 1_555
Ca7 O65 2.449416 1_555
O0 Si0 1.607588 1_545
O1 S0 1.465218 1_555
O2 Si1 1.611767 1_655
O3 Si2 1.611767 1_555
O4 S1 1.465218 1_655
O5 Si3 1.607588 1_545
O6 Si3 1.643347 1_555
O7 Si2 1.645086 1_555
O8 S1 1.487404 1_555
O9 S0 1.487404 1_555
O10 Si1 1.645086 1_555
O11 Si0 1.643347 1_555
O12 S2 1.467787 1_555
O13 S3 1.460274 1_555
O14 Si4 1.599525 1_555
O15 Si5 1.599525 1_555
O16 S4 1.460274 1_555
O17 S5 1.467787 1_555
O18 S5 1.518382 1_555
O18 Ta0 2.208428 1_554
O19 Si5 1.773363 1_555
O19 Ta0 1.912804 1_554
O20 S4 1.521847 1_555
O20 Ta0 2.204224 1_554
O21 S3 1.521847 1_555
O21 Ta1 2.204224 1_555
O22 Si4 1.773363 1_555
O22 Ta1 1.912804 1_555
O23 S2 1.518382 1_555
O23 Ta1 2.208428 1_555
O24 Si6 1.588069 1_555
O25 Si7 1.589009 1_555
O26 Si8 1.594772 1_555
O27 Si9 1.594772 1_555
O28 Si10 1.589009 1_555
O29 Si11 1.588069 1_555
O30 Si11 1.716230 1_555
O30 Ta2 1.911537 1_555
O31 Si9 1.705472 1_555
O31 Ta2 1.997547 1_555
O32 Si10 1.700419 1_555
O32 Ta2 2.015722 1_555
O33 Si7 1.700419 1_555
O33 Ta3 2.015722 1_555
O34 Si8 1.705472 1_555
O34 Ta3 1.997547 1_555
O35 Si6 1.716230 1_555
O35 Ta3 1.911537 1_555
O36 Si11 1.596973 1_655
O37 Si9 1.608757 1_545
O38 Si10 1.602878 1_555
O39 Si7 1.602881 1_655
O40 Si8 1.608748 1_545
O41 Si6 1.596979 1_555
O42 S2 1.488972 1_555
O43 S3 1.489391 1_555
O44 Si4 1.641613 1_555
O45 Si5 1.641617 1_555
O46 S4 1.489382 1_555
O47 S5 1.488977 1_555
O48 Si3 1.635256 1_545
O49 Si2 1.633541 1_555
O50 S1 1.487655 1_655
O51 S0 1.487658 1_555
O52 Si1 1.633532 1_655
O53 Si0 1.635262 1_545
O54 Si6 1.709889 1_555
O54 Ta0 1.935218 1_555
O55 Si7 1.726647 1_655
O55 Ta0 1.929151 1_555
O56 Si8 1.691273 1_545
O56 Ta0 2.019938 1_555
O57 Si9 1.691263 1_545
O57 Ta1 2.019938 1_555
O58 Si10 1.726666 1_555
O58 Ta1 1.929151 1_555
O59 Si11 1.709881 1_655
O59 Ta1 1.935218 1_555
O60 S5 1.484931 1_555
O61 Si5 1.637781 1_455
O62 S4 1.485403 1_565
O63 S3 1.485396 1_565
O64 Si4 1.637800 1_555
O65 S2 1.484920 1_455
O66 Si0 1.709056 1_555
O66 Ta2 1.974973 1_555
O67 S0 1.511561 1_555
O67 Ta2 2.286316 1_555
O68 Si1 1.714098 1_555
O68 Ta2 1.976502 1_555
O69 Si2 1.714103 1_555
O69 Ta3 1.976502 1_555
O70 S1 1.511551 1_555
O70 Ta3 2.286316 1_555
O71 Si3 1.709062 1_555
O71 Ta3 1.974973 1_555
