# generated using pymatgen
data_MgCo2(AgO2)2
_symmetry_space_group_name_H-M   'P 1'
_cell_length_a   3.09196433
_cell_length_b   3.09196267
_cell_length_c   14.16624109
_cell_angle_alpha   90.00000000
_cell_angle_beta   90.00000000
_cell_angle_gamma   120.00000534
_symmetry_Int_Tables_number   1
_chemical_formula_structural   MgCo2(AgO2)2
_chemical_formula_sum   'Mg1 Co2 Ag2 O4'
_cell_volume   117.28810077
_cell_formula_units_Z   1
loop_
 _symmetry_equiv_pos_site_id
 _symmetry_equiv_pos_as_xyz
  1  'x, y, z'
loop_
 _atom_site_type_symbol
 _atom_site_label
 _atom_site_symmetry_multiplicity
 _atom_site_fract_x
 _atom_site_fract_y
 _atom_site_fract_z
 _atom_site_occupancy
  Mg  Mg0  1  0.33333300  0.66666700  0.62377814  1
  Co  Co0  1  0.00000000  0.00000000  0.02182398  1
  Co  Co1  1  0.00000000  0.00000000  0.44771490  1
  Ag  Ag0  1  0.66666700  0.33333300  0.79599254  1
  Ag  Ag1  1  0.33333300  0.66666700  0.24094892  1
  O  O0  1  0.66666700  0.33333300  0.56334074  1
  O  O1  1  0.33333300  0.66666700  0.39152917  1
  O  O2  1  0.66666700  0.33333300  0.95234970  1
  O  O3  1  0.33333300  0.66666700  0.09272990  1
loop_
_geom_bond_atom_site_label_1
_geom_bond_atom_site_label_2
_geom_bond_distance
_geom_bond_site_symmetry_2
Mg0 O0 1.979840 1_565
Mg0 O0 1.979841 1_455
Mg0 O0 1.979845 1_555
Co0 O2 2.038472 1_454
Co0 O2 2.038474 1_444
Co0 O2 2.038475 1_554
Co0 O3 2.048341 1_545
Co0 O3 2.048343 1_555
Co0 O3 2.048344 1_445
Co1 O1 1.954549 1_545
Co1 O1 1.954551 1_555
Co1 O1 1.954552 1_445
Co1 O0 2.422753 1_455
Co1 O0 2.422754 1_445
Co1 O0 2.422755 1_555
Ag0 O2 2.214993 1_555
Ag1 O3 2.099706 1_555
Ag1 O1 2.133156 1_555
