# generated using pymatgen
data_MgFe6(O5F)2
_symmetry_space_group_name_H-M   'P 1'
_cell_length_a   11.35061476
_cell_length_b   6.76713041
_cell_length_c   2.95801909
_cell_angle_alpha   89.97066691
_cell_angle_beta   90.06779916
_cell_angle_gamma   71.16339639
_symmetry_Int_Tables_number   1
_chemical_formula_structural   MgFe6(O5F)2
_chemical_formula_sum   'Mg1 Fe6 O10 F2'
_cell_volume   215.03985237
_cell_formula_units_Z   1
loop_
 _symmetry_equiv_pos_site_id
 _symmetry_equiv_pos_as_xyz
  1  'x, y, z'
loop_
 _atom_site_type_symbol
 _atom_site_label
 _atom_site_symmetry_multiplicity
 _atom_site_fract_x
 _atom_site_fract_y
 _atom_site_fract_z
 _atom_site_occupancy
  Mg  Mg0  1  0.83185600  0.83778600  0.50798100  1
  Fe  Fe0  1  0.04131500  0.99437400  0.00886400  1
  Fe  Fe1  1  0.04041300  0.47058200  0.50718200  1
  Fe  Fe2  1  0.33204600  0.34499800  0.01251900  1
  Fe  Fe3  1  0.62006800  0.20493100  0.51304400  1
  Fe  Fe4  1  0.33728400  0.80762200  0.51335300  1
  Fe  Fe5  1  0.63871300  0.66885600  0.01242500  1
  O  O0  1  0.02647900  0.29341200  0.00726600  1
  O  O1  1  0.97118000  0.70700100  0.00805500  1
  O  O2  1  0.21637400  0.41008100  0.51165200  1
  O  O3  1  0.44630800  0.24899900  0.51302900  1
  O  O4  1  0.15138600  0.90033600  0.50984500  1
  O  O5  1  0.35096200  0.62178300  0.01340000  1
  O  O6  1  0.63503400  0.37847300  0.01314400  1
  O  O7  1  0.52168800  0.76007000  0.51236200  1
  O  O8  1  0.75377300  0.61311500  0.51251700  1
  O  O9  1  0.69159100  0.98158700  0.01071100  1
  F  F0  1  0.32388200  0.02574400  0.01321600  1
  F  F1  1  0.90089500  0.07025100  0.50776800  1
loop_
_geom_bond_atom_site_label_1
_geom_bond_atom_site_label_2
_geom_bond_distance
_geom_bond_site_symmetry_2
Mg0 O8 1.991828 1_555
Mg0 O1 2.135794 1_556
Mg0 O1 2.138708 1_555
Mg0 O9 2.153583 1_555
Mg0 O9 2.167899 1_556
Fe0 O4 1.907017 1_554
Fe0 O4 1.908719 1_555
Fe0 O0 1.975700 1_565
Fe0 O1 2.327068 1_455
Fe1 O2 1.904932 1_555
Fe1 O0 1.942123 1_556
Fe1 O0 1.942395 1_555
Fe1 O1 2.130720 1_455
Fe1 O1 2.136725 1_456
Fe2 O2 1.931204 1_555
Fe2 O2 1.932406 1_554
Fe2 O3 1.935570 1_555
Fe2 O3 1.936118 1_554
Fe2 O5 1.952967 1_555
Fe3 O3 1.897111 1_555
Fe3 O6 1.929316 1_555
Fe3 O6 1.930383 1_556
Fe3 O9 2.076792 1_546
Fe3 O9 2.089056 1_545
Fe4 O5 1.914421 1_556
Fe4 O5 1.915484 1_555
Fe4 O4 1.997787 1_555
Fe4 O7 2.012388 1_555
Fe5 O8 1.926900 1_555
Fe5 O8 1.929150 1_554
Fe5 O7 1.948946 1_554
Fe5 O7 1.951527 1_555
Fe5 O6 1.978937 1_555
Fe5 O9 2.378900 1_555
F0 Fe4 2.059806 1_545
F0 Fe4 2.060567 1_544
F0 Fe2 2.192108 1_555
F1 Mg0 1.970998 1_545
F1 Fe0 2.111819 1_645
F1 Fe0 2.113350 1_646
