# generated using pymatgen
data_Na8CaSi5Ge3SO24
_symmetry_space_group_name_H-M   'P 1'
_cell_length_a   9.02787048
_cell_length_b   9.00896072
_cell_length_c   21.99189042
_cell_angle_alpha   92.18693360
_cell_angle_beta   89.23421432
_cell_angle_gamma   120.27852197
_symmetry_Int_Tables_number   1
_chemical_formula_structural   Na8CaSi5Ge3SO24
_chemical_formula_sum   'Na24 Ca3 Si15 Ge9 S3 O72'
_cell_volume   1543.47987965
_cell_formula_units_Z   3
loop_
 _symmetry_equiv_pos_site_id
 _symmetry_equiv_pos_as_xyz
  1  'x, y, z'
loop_
 _atom_site_type_symbol
 _atom_site_label
 _atom_site_symmetry_multiplicity
 _atom_site_fract_x
 _atom_site_fract_y
 _atom_site_fract_z
 _atom_site_occupancy
  Na  Na0  1  0.64616931  0.01465001  0.24508869  1
  Na  Na1  1  0.36084940  0.35915914  0.23968190  1
  Na  Na2  1  0.99980619  0.63191383  0.24361137  1
  Na  Na3  1  0.62386069  0.60963035  0.75054992  1
  Na  Na4  1  0.98532271  0.37052460  0.75548625  1
  Na  Na5  1  0.39320750  0.01041130  0.74923912  1
  Na  Na6  1  0.31062170  0.33483296  0.59222081  1
  Na  Na7  1  0.02791180  0.69660424  0.58095135  1
  Na  Na8  1  0.66357864  0.97499318  0.59666793  1
  Na  Na9  1  0.31491037  0.97516908  0.07736373  1
  Na  Na10  1  0.66153337  0.69029447  0.07538129  1
  Na  Na11  1  0.02860197  0.35447439  0.07436206  1
  Na  Na12  1  0.96139774  0.66750619  0.91233228  1
  Na  Na13  1  0.70205757  0.03595823  0.91188493  1
  Na  Na14  1  0.33494698  0.29595698  0.91332780  1
  Na  Na15  1  0.95841768  0.27899409  0.41568126  1
  Na  Na16  1  0.31504909  0.02907806  0.42124817  1
  Na  Na17  1  0.71588999  0.68388874  0.42215952  1
  Na  Na18  1  0.00093578  0.00029955  0.50130469  1
  Na  Na19  1  0.00036197  0.00033777  0.99344795  1
  Na  Na20  1  0.66544521  0.33282276  0.83060645  1
  Na  Na21  1  0.68289352  0.33282314  0.33227349  1
  Na  Na22  1  0.33473398  0.66917248  0.15875742  1
  Na  Na23  1  0.34496904  0.67539223  0.67050749  1
  Ca  Ca0  1  0.00173236  0.00027890  0.35609367  1
  Ca  Ca1  1  0.65923541  0.33236117  0.68695236  1
  Ca  Ca2  1  0.67276311  0.33706090  0.17134923  1
  Si  Si0  1  0.00899368  0.30471278  0.25296453  1
  Si  Si1  1  0.27003299  0.28163711  0.75489407  1
  Si  Si2  1  0.01642312  0.71831060  0.75620708  1
  Si  Si3  1  0.71446364  0.98505099  0.75507066  1
  Si  Si4  1  0.36710733  0.03280100  0.58226147  1
  Si  Si5  1  0.66264942  0.63499230  0.58413949  1
  Si  Si6  1  0.97405697  0.64260619  0.08325530  1
  Si  Si7  1  0.66041776  0.03317805  0.08071799  1
  Si  Si8  1  0.37278439  0.34728368  0.07978334  1
  Si  Si9  1  0.61962764  0.66140610  0.91417069  1
  Si  Si10  1  0.04355824  0.38140023  0.91510850  1
  Si  Si11  1  0.33856776  0.95738714  0.91623371  1
  Si  Si12  1  0.60464420  0.95541603  0.41700729  1
  Si  Si13  1  0.34398898  0.38632443  0.42183069  1
  Si  Si14  1  0.03347854  0.64419639  0.42276326  1
  Ge  Ge0  1  0.99877981  0.00120786  0.85598829  1
  Ge  Ge1  1  0.00185622  0.97383992  0.65562278  1
  Ge  Ge2  1  0.00939195  0.03399002  0.13235712  1
  Ge  Ge3  1  0.66913831  0.33710446  0.98026074  1
  Ge  Ge4  1  0.64809120  0.33685371  0.47720726  1
  Ge  Ge5  1  0.33447615  0.67111133  0.01290703  1
  Ge  Ge6  1  0.34627998  0.68225363  0.51712357  1
  Ge  Ge7  1  0.31232384  0.63630409  0.32596189  1
  Ge  Ge8  1  0.33512452  0.66431789  0.81274109  1
  S  S0  1  0.29937025  0.99413978  0.24768068  1
  S  S1  1  0.69216320  0.70306606  0.24900033  1
  S  S2  1  0.96685779  0.33495355  0.57903532  1
  O  O0  1  0.21517134  0.99652881  0.30553581  1
  O  O1  1  0.78791644  0.78187878  0.30620902  1
  O  O2  1  0.98826825  0.20210168  0.31259660  1
  O  O3  1  0.18206990  0.16888820  0.81526724  1
  O  O4  1  0.98398099  0.81381971  0.81507358  1
  O  O5  1  0.82780223  0.01335250  0.81641218  1
  O  O6  1  0.80697669  0.95833152  0.69178217  1
  O  O7  1  0.15373894  0.18680378  0.69101742  1
  O  O8  1  0.04228710  0.82123911  0.69135078  1
  O  O9  1  0.78422701  0.80006047  0.19472727  1
  O  O10  1  0.03741613  0.20293157  0.18849990  1
  O  O11  1  0.19736152  0.98572970  0.19338273  1
  O  O12  1  0.89220957  0.35821171  0.63594108  1
  O  O13  1  0.48572293  0.08778163  0.64138965  1
  O  O14  1  0.60852483  0.52197060  0.64321610  1
  O  O15  1  0.92557486  0.54116447  0.14510656  1
  O  O16  1  0.61609110  0.07841939  0.14694055  1
  O  O17  1  0.46367742  0.38452301  0.14472721  1
  O  O18  1  0.47408401  0.30240454  0.02548909  1
  O  O19  1  0.82808859  0.54421521  0.02808062  1
  O  O20  1  0.70692140  0.17874083  0.02855945  1
  O  O21  1  0.46216915  0.17054710  0.52453745  1
  O  O22  1  0.70552742  0.53895617  0.52446429  1
  O  O23  1  0.85891914  0.31663231  0.52491467  1
  O  O24  1  0.52990003  0.69581765  0.97361144  1
  O  O25  1  0.16826636  0.47016880  0.97430267  1
  O  O26  1  0.30119560  0.83514964  0.97413033  1
  O  O27  1  0.52154894  0.84587954  0.47728558  1
  O  O28  1  0.31723093  0.48612072  0.47990017  1
  O  O29  1  0.15688565  0.66777452  0.47924011  1
  O  O30  1  0.11592978  0.61389080  0.35731239  1
  O  O31  1  0.47498895  0.85244253  0.35580996  1
  O  O32  1  0.37474718  0.49598553  0.35851762  1
  O  O33  1  0.12579428  0.50572400  0.85630513  1
  O  O34  1  0.38429613  0.87114057  0.85654091  1
  O  O35  1  0.49375243  0.61811365  0.85421550  1
  O  O36  1  0.01172620  0.81054138  0.42152110  1
  O  O37  1  0.79332035  0.98004950  0.41637351  1
  O  O38  1  0.18514383  0.19400353  0.42342843  1
  O  O39  1  0.01898168  0.18472071  0.91335961  1
  O  O40  1  0.16912588  0.98393975  0.91315608  1
  O  O41  1  0.81509852  0.83552141  0.91273857  1
  O  O42  1  0.98036396  0.17750768  0.57832952  1
  O  O43  1  0.17669359  0.02127724  0.58930310  1
  O  O44  1  0.84716943  0.82561083  0.58960590  1
  O  O45  1  0.98752434  0.83733993  0.09212353  1
  O  O46  1  0.83925969  0.01785510  0.08316947  1
  O  O47  1  0.17993714  0.16448147  0.07976285  1
  O  O48  1  0.69460959  0.15275423  0.75296583  1
  O  O49  1  0.45903659  0.30521992  0.75442274  1
  O  O50  1  0.84957077  0.52968277  0.75391132  1
  O  O51  1  0.66274676  0.52487916  0.24722216  1
  O  O52  1  0.84731204  0.33263317  0.24682139  1
  O  O53  1  0.47132792  0.15288575  0.24929974  1
  O  O54  1  0.64114491  0.48961904  0.92221410  1
  O  O55  1  0.85083950  0.36185183  0.92472700  1
  O  O56  1  0.51469314  0.15079371  0.92458792  1
  O  O57  1  0.61325151  0.14423473  0.42123509  1
  O  O58  1  0.52547193  0.38259460  0.42139123  1
  O  O59  1  0.84418142  0.46408155  0.42514758  1
  O  O60  1  0.34190328  0.50900178  0.06944821  1
  O  O61  1  0.16486554  0.66943462  0.06883628  1
  O  O62  1  0.49600409  0.83986770  0.06805931  1
  O  O63  1  0.32765528  0.83122818  0.57227725  1
  O  O64  1  0.49919674  0.66957305  0.57399659  1
  O  O65  1  0.14358242  0.49056590  0.57776634  1
  O  O66  1  0.31370636  0.83567523  0.24399854  1
  O  O67  1  0.52433844  0.70095976  0.25039230  1
  O  O68  1  0.19883596  0.49799301  0.25590117  1
  O  O69  1  0.27877070  0.47123962  0.75553480  1
  O  O70  1  0.19699907  0.71263304  0.75774875  1
  O  O71  1  0.52449723  0.80387431  0.75600411  1
loop_
_geom_bond_atom_site_label_1
_geom_bond_atom_site_label_2
_geom_bond_distance
_geom_bond_site_symmetry_2
Na0 O16 2.308757 1_555
Na0 O53 2.453679 1_555
Na0 O67 2.469222 1_545
Na0 O52 2.500641 1_555
Na0 O66 2.593795 1_545
Na1 O17 2.246196 1_555
Na1 O51 2.361070 1_555
Na1 O68 2.372274 1_555
Na1 O53 2.529328 1_555
Na1 O67 2.662082 1_555
Na1 O10 2.756179 1_555
Na1 O32 2.823494 1_555
Na2 O15 2.271901 1_555
Na2 O52 2.332096 1_555
Na2 O66 2.480760 1_655
Na2 O68 2.642184 1_655
Na2 O51 2.689990 1_555
Na2 O30 2.765973 1_655
Na3 O71 2.333541 1_555
Na3 O49 2.375222 1_555
Na3 O14 2.443538 1_555
Na3 O50 2.482825 1_555
Na3 O35 2.566841 1_555
Na3 O69 2.712337 1_555
Na4 O50 2.309990 1_555
Na4 O69 2.327583 1_655
Na4 O48 2.354456 1_555
Na4 O33 2.513796 1_655
Na4 O70 2.684195 1_655
Na4 O12 2.751998 1_555
Na5 O48 2.352527 1_555
Na5 O70 2.367906 1_545
Na5 O49 2.409797 1_555
Na5 O13 2.509002 1_555
Na5 O71 2.671877 1_545
Na5 O34 2.695982 1_545
Na6 O43 2.447376 1_555
Na6 O65 2.554191 1_555
Na6 O14 2.587879 1_555
Na6 O42 2.592606 1_455
Na6 O7 2.596028 1_555
Na6 O64 2.655182 1_555
Na6 O21 2.845582 1_555
Na6 O28 2.851979 1_555
Na7 O63 2.350387 1_555
Na7 O44 2.436523 1_455
Na7 O43 2.529249 1_565
Na7 O65 2.546290 1_555
Na7 O29 2.572463 1_555
Na7 O8 2.612599 1_555
Na7 O22 2.797263 1_455
Na7 O12 2.955108 1_455
Na8 O64 2.412300 1_555
Na8 O13 2.470763 1_565
Na8 O6 2.523124 1_555
Na8 O42 2.536531 1_565
Na8 O44 2.609366 1_555
Na8 O63 2.681772 1_555
Na8 O27 2.871055 1_555
Na9 O61 2.379393 1_555
Na9 O62 2.486383 1_555
Na9 O26 2.528287 1_554
Na9 O47 2.546256 1_565
Na9 O45 2.585931 1_455
Na9 O11 2.766980 1_555
Na9 O18 2.828134 1_565
Na9 O16 2.837558 1_565
Na10 O62 2.475569 1_555
Na10 O60 2.500481 1_555
Na10 O46 2.550716 1_565
Na10 O24 2.561847 1_554
Na10 O45 2.571386 1_555
Na10 O19 2.631368 1_555
Na10 O9 2.805107 1_555
Na10 O17 2.896653 1_555
Na11 O60 2.445903 1_555
Na11 O61 2.466110 1_555
Na11 O25 2.508780 1_554
Na11 O46 2.639060 1_455
Na11 O47 2.681124 1_555
Na11 O20 2.697212 1_455
Na11 O15 2.730108 1_455
Na11 O10 2.923574 1_555
Na12 O55 2.435462 1_555
Na12 O41 2.459728 1_555
Na12 O40 2.499970 1_655
Na12 O4 2.507282 1_555
Na12 O54 2.512366 1_555
Na12 O33 2.800096 1_655
Na12 O19 2.819169 1_556
Na12 O26 2.970065 1_655
Na13 O56 2.395721 1_555
Na13 O5 2.423920 1_555
Na13 O39 2.473010 1_655
Na13 O41 2.482707 1_545
Na13 O55 2.544395 1_555
Na13 O34 2.752387 1_545
Na13 O20 2.816828 1_556
Na14 O54 2.418382 1_555
Na14 O40 2.428670 1_545
Na14 O3 2.482714 1_555
Na14 O39 2.501677 1_555
Na14 O56 2.565204 1_555
Na14 O18 2.768358 1_556
Na14 O35 2.865471 1_555
Na14 O25 2.948339 1_555
Na15 O37 2.330155 1_545
Na15 O59 2.364148 1_555
Na15 O2 2.396656 1_555
Na15 O38 2.530728 1_655
Na15 O23 2.622965 1_555
Na15 O57 2.717578 1_555
Na15 O30 2.948385 1_655
Na16 O38 2.309875 1_555
Na16 O57 2.346796 1_555
Na16 O36 2.436937 1_545
Na16 O21 2.588616 1_555
Na16 O0 2.666917 1_545
Na16 O58 2.765907 1_555
Na16 O31 2.962243 1_545
Na17 O36 2.315673 1_655
Na17 O58 2.369611 1_555
Na17 O37 2.401325 1_555
Na17 O22 2.621244 1_555
Na17 O1 2.693160 1_555
Na17 O59 2.755326 1_555
Na17 O32 2.997780 1_555
Na17 O27 3.011279 1_555
Na18 O42 2.353027 1_455
Na18 O36 2.438236 1_545
Na18 O38 2.443260 1_555
Na18 O43 2.459749 1_555
Na18 O44 2.476478 1_445
Na18 O37 2.599578 1_445
Na19 O41 2.350838 1_445
Na19 O40 2.365631 1_545
Na19 O39 2.413185 1_555
Na19 O47 2.422554 1_556
Na19 O46 2.482841 1_456
Na19 O45 2.635106 1_446
Na20 O48 2.413231 1_555
Na20 O49 2.434262 1_555
Na20 O50 2.435945 1_555
Na20 O54 2.487105 1_555
Na20 O56 2.597336 1_555
Na20 O55 2.600780 1_555
Na21 O52 2.379630 1_555
Na21 O59 2.418486 1_555
Na21 O57 2.500622 1_555
Na21 O53 2.520070 1_555
Na21 O58 2.561830 1_555
Na21 O51 2.664345 1_555
Na22 O60 2.412145 1_555
Na22 O66 2.421424 1_555
Na22 O61 2.519425 1_555
Na22 O62 2.522255 1_555
Na22 O67 2.574294 1_555
Na22 O68 2.592487 1_555
Na23 O71 2.350635 1_555
Na23 O70 2.431544 1_555
Na23 O69 2.522022 1_555
Na23 O64 2.536203 1_555
Na23 O65 2.650464 1_555
Na23 O63 2.669075 1_555
Ca0 O2 2.143465 1_455
Ca0 O1 2.205185 1_445
Ca0 O38 2.221407 1_555
Ca0 O37 2.221868 1_445
Ca0 O0 2.226170 1_545
Ca0 O36 2.312365 1_545
Ca1 O13 2.169262 1_555
Ca1 O14 2.231229 1_555
Ca1 O49 2.244638 1_555
Ca1 O50 2.251379 1_555
Ca1 O12 2.280216 1_555
Ca1 O48 2.353828 1_555
Ca2 O16 2.165399 1_555
Ca2 O15 2.176475 1_555
Ca2 O17 2.225122 1_555
Ca2 O52 2.319043 1_555
Ca2 O51 2.364355 1_555
Ca2 O53 2.467766 1_555
Ge0 O4 1.826813 1_545
Ge0 O3 1.834400 1_655
Ge0 O5 1.834545 1_555
Ge0 O39 1.975177 1_655
Ge0 O41 2.031328 1_545
Ge0 O40 2.068261 1_645
Ge1 O8 1.799090 1_555
Ge1 O7 1.851676 1_565
Ge1 O6 1.862900 1_455
Ge1 O44 1.966462 1_455
Ge1 O43 2.026582 1_565
Ge2 O47 1.822456 1_555
Ge2 O46 1.832383 1_455
Ge2 O10 1.838896 1_555
Ge2 O45 1.868910 1_445
Ge2 O11 2.391501 1_545
Ge2 O9 2.506193 1_445
Ge3 O18 1.899928 1_556
Ge3 O56 1.946586 1_555
Ge3 O55 1.957173 1_555
Ge3 O19 1.958865 1_556
Ge3 O20 1.973855 1_556
Ge3 O54 2.018409 1_555
Ge4 O58 1.853894 1_555
Ge4 O22 1.892611 1_555
Ge4 O21 1.918821 1_555
Ge4 O59 1.938620 1_555
Ge4 O57 1.980485 1_555
Ge4 O23 2.274693 1_555
Ge5 O25 1.851218 1_554
Ge5 O24 1.867328 1_554
Ge5 O26 1.884730 1_554
Ge5 O62 1.892063 1_555
Ge5 O61 1.945635 1_555
Ge5 O60 1.980684 1_555
Ge6 O27 1.775854 1_555
Ge6 O28 1.813585 1_555
Ge6 O63 1.843528 1_555
Ge6 O29 1.854590 1_555
Ge6 O64 1.923362 1_555
Ge6 O65 2.243505 1_555
Ge7 O32 1.796231 1_555
Ge7 O30 1.810153 1_555
Ge7 O31 1.850311 1_555
Ge7 O68 1.893302 1_555
Ge7 O67 2.372634 1_555
Ge8 O34 1.907090 1_555
Ge8 O35 1.928997 1_555
Ge8 O69 1.955741 1_555
Ge8 O70 1.958277 1_555
Ge8 O33 1.965678 1_555
Ge8 O71 1.988873 1_555
O0 S0 1.478406 1_555
O1 S1 1.475209 1_555
O2 Si0 1.587744 1_655
O3 Si1 1.639070 1_555
O4 Si2 1.631277 1_655
O5 Si3 1.636879 1_545
O6 Si3 1.684870 1_555
O7 Si1 1.687858 1_555
O8 Si2 1.680011 1_555
O9 S1 1.483127 1_555
O10 Si0 1.744941 1_555
O11 S0 1.493946 1_555
O12 S2 1.471077 1_555
O13 Si4 1.592524 1_555
O14 Si5 1.595533 1_555
O15 Si6 1.597676 1_555
O16 Si7 1.597134 1_555
O17 Si8 1.594649 1_555
O18 Si8 1.652986 1_555
O19 Si6 1.666535 1_555
O20 Si7 1.660859 1_555
O21 Si4 1.704455 1_555
O22 Si5 1.690620 1_555
O23 S2 1.499079 1_555
O24 Si9 1.629448 1_555
O25 Si10 1.628967 1_555
O26 Si11 1.633581 1_555
O27 Si12 1.618830 1_555
O28 Si13 1.618851 1_555
O29 Si14 1.614684 1_555
O30 Si14 1.687232 1_555
O31 Si12 1.701123 1_555
O32 Si13 1.676256 1_555
O33 Si10 1.650565 1_555
O34 Si11 1.651850 1_555
O35 Si9 1.654046 1_555
O36 Si14 1.607834 1_555
O37 Si12 1.602884 1_555
O38 Si13 1.599192 1_555
O39 Si10 1.669984 1_555
O40 Si11 1.665768 1_555
O41 Si9 1.669292 1_555
O42 S2 1.483141 1_555
O43 Si4 1.674506 1_555
O44 Si5 1.686215 1_555
O45 Si6 1.699997 1_555
O46 Si7 1.690095 1_555
O47 Si8 1.688757 1_555
O48 Si3 1.611062 1_545
O49 Si1 1.609608 1_555
O50 Si2 1.604220 1_655
O51 S1 1.488142 1_555
O52 Si0 1.609401 1_655
O53 S0 1.488390 1_545
O54 Si9 1.670070 1_555
O55 Si10 1.669379 1_655
O56 Si11 1.669586 1_545
O57 Si12 1.662263 1_545
O58 Si13 1.655494 1_555
O59 Si14 1.662529 1_655
O60 Si8 1.639674 1_555
O61 Si6 1.642470 1_455
O62 Si7 1.637354 1_565
O63 Si4 1.670993 1_565
O64 Si5 1.673910 1_555
O65 S2 1.502629 1_455
O66 S0 1.496185 1_555
O67 S1 1.505536 1_555
O68 Si0 1.720026 1_555
O69 Si1 1.669257 1_555
O70 Si2 1.657427 1_555
O71 Si3 1.668708 1_555
