# generated using pymatgen
data_CeZn3
_symmetry_space_group_name_H-M   'P 1'
_cell_length_a   4.57145727
_cell_length_b   6.56406505
_cell_length_c   10.32576315
_cell_angle_alpha   90.00000000
_cell_angle_beta   90.00000000
_cell_angle_gamma   90.00000000
_symmetry_Int_Tables_number   1
_chemical_formula_structural   CeZn3
_chemical_formula_sum   'Ce4 Zn12'
_cell_volume   309.84871548
_cell_formula_units_Z   4
loop_
 _symmetry_equiv_pos_site_id
 _symmetry_equiv_pos_as_xyz
  1  'x, y, z'
loop_
 _atom_site_type_symbol
 _atom_site_label
 _atom_site_symmetry_multiplicity
 _atom_site_fract_x
 _atom_site_fract_y
 _atom_site_fract_z
 _atom_site_occupancy
  Ce  Ce0  1  0.75000000  0.24561207  0.84881535  1
  Ce  Ce1  1  0.75000000  0.74561207  0.65118465  1
  Ce  Ce2  1  0.25000000  0.75438793  0.15118465  1
  Ce  Ce3  1  0.25000000  0.25438793  0.34881535  1
  Zn  Zn0  1  0.75000000  0.94633866  0.37493093  1
  Zn  Zn1  1  0.75000000  0.44633866  0.12506907  1
  Zn  Zn2  1  0.25000000  0.05366134  0.62506907  1
  Zn  Zn3  1  0.25000000  0.55366134  0.87493093  1
  Zn  Zn4  1  0.75000000  0.56670986  0.36442251  1
  Zn  Zn5  1  0.75000000  0.06670986  0.13557749  1
  Zn  Zn6  1  0.25000000  0.43329014  0.63557749  1
  Zn  Zn7  1  0.25000000  0.93329014  0.86442251  1
  Zn  Zn8  1  0.75000000  0.25698518  0.54708691  1
  Zn  Zn9  1  0.75000000  0.75698518  0.95291309  1
  Zn  Zn10  1  0.25000000  0.74301482  0.45291309  1
  Zn  Zn11  1  0.25000000  0.24301482  0.04708691  1
loop_
_geom_bond_atom_site_label_1
_geom_bond_atom_site_label_2
_geom_bond_distance
_geom_bond_site_symmetry_2
Ce0 Zn3 3.063655 1_555
Ce0 Zn3 3.063655 1_655
Ce0 Zn11 3.068600 1_656
Ce0 Zn11 3.068600 1_556
Ce0 Zn7 3.074645 1_545
Ce0 Zn7 3.074645 1_645
Ce0 Zn8 3.116471 1_555
Ce0 Zn1 3.142126 1_556
Ce0 Zn5 3.185402 1_556
Ce0 Zn9 3.382701 1_545
Ce0 Zn6 3.404457 1_555
Ce0 Zn6 3.404457 1_655
Ce0 Zn2 3.485659 1_655
Ce0 Zn2 3.485659 1_555
Ce0 Zn9 3.524589 1_555
Ce0 Ce1 3.864731 1_555
Ce0 Ce1 3.864731 1_545
Ce1 Zn2 3.063655 1_665
Ce1 Zn2 3.063655 1_565
Ce1 Zn10 3.068600 1_655
Ce1 Zn10 3.068600 1_555
Ce1 Zn6 3.074645 1_555
Ce1 Zn6 3.074645 1_655
Ce1 Zn9 3.116471 1_555
Ce1 Zn0 3.142126 1_555
Ce1 Zn4 3.185402 1_555
Ce1 Zn8 3.382701 1_555
Ce1 Zn7 3.404457 1_655
Ce1 Zn7 3.404457 1_555
Ce1 Zn3 3.485659 1_655
Ce1 Zn3 3.485659 1_555
Ce1 Zn8 3.524589 1_565
Ce2 Zn1 3.063655 1_555
Ce2 Zn1 3.063655 1_455
Ce2 Zn9 3.068600 1_554
Ce2 Zn9 3.068600 1_454
Ce2 Zn5 3.074645 1_465
Ce2 Zn5 3.074645 1_565
Ce2 Zn10 3.116471 1_555
Ce2 Zn3 3.142126 1_554
Ce2 Zn7 3.185402 1_554
Ce2 Zn11 3.382701 1_565
Ce2 Zn4 3.404457 1_555
Ce2 Zn4 3.404457 1_455
Ce2 Zn0 3.485659 1_455
Ce2 Zn0 3.485659 1_555
Ce2 Zn11 3.524589 1_555
Ce2 Ce3 3.864731 1_565
Ce2 Ce3 3.864731 1_555
Ce3 Zn0 3.063655 1_445
Ce3 Zn0 3.063655 1_545
Ce3 Zn8 3.068600 1_455
Ce3 Zn8 3.068600 1_555
Ce3 Zn4 3.074645 1_455
Ce3 Zn4 3.074645 1_555
Ce3 Zn11 3.116471 1_555
Ce3 Zn2 3.142126 1_555
Ce3 Zn6 3.185402 1_555
Ce3 Zn10 3.382701 1_555
Ce3 Zn5 3.404457 1_455
Ce3 Zn5 3.404457 1_555
Ce3 Zn1 3.485659 1_555
Ce3 Zn1 3.485659 1_455
Ce3 Zn10 3.524589 1_545
Zn0 Zn4 2.494269 1_555
Zn0 Zn5 2.594734 1_565
Zn0 Zn8 2.705172 1_565
Zn0 Zn10 2.766619 1_555
Zn0 Zn10 2.766619 1_655
Zn1 Zn5 2.494269 1_555
Zn1 Zn4 2.594734 1_555
Zn1 Zn9 2.705172 1_554
Zn1 Zn11 2.766619 1_655
Zn1 Zn11 2.766619 1_555
Zn2 Zn6 2.494269 1_555
Zn2 Zn7 2.594734 1_545
Zn2 Zn8 2.766619 1_555
Zn2 Zn8 2.766619 1_455
Zn3 Zn7 2.494269 1_555
Zn3 Zn6 2.594734 1_555
Zn3 Zn9 2.766619 1_455
Zn3 Zn9 2.766619 1_555
Zn4 Zn8 2.773241 1_555
Zn5 Zn9 2.773241 1_544
Zn6 Zn8 2.720065 1_555
Zn6 Zn8 2.720065 1_455
Zn7 Zn9 2.720065 1_555
Zn7 Zn9 2.720065 1_455
Zn10 Zn2 2.705172 1_565
Zn10 Zn4 2.720065 1_455
Zn10 Zn4 2.720065 1_555
Zn10 Zn6 2.773241 1_555
Zn11 Zn3 2.705172 1_554
Zn11 Zn5 2.720065 1_455
Zn11 Zn5 2.720065 1_555
Zn11 Zn7 2.773241 1_544
