# generated using pymatgen
data_USbAs
_symmetry_space_group_name_H-M   'P 1'
_cell_length_a   4.15317289
_cell_length_b   4.15317289
_cell_length_c   8.65866874
_cell_angle_alpha   90.00000000
_cell_angle_beta   90.00000000
_cell_angle_gamma   90.00000000
_symmetry_Int_Tables_number   1
_chemical_formula_structural   USbAs
_chemical_formula_sum   'U2 Sb2 As2'
_cell_volume   149.35203547
_cell_formula_units_Z   2
loop_
 _symmetry_equiv_pos_site_id
 _symmetry_equiv_pos_as_xyz
  1  'x, y, z'
loop_
 _atom_site_type_symbol
 _atom_site_label
 _atom_site_symmetry_multiplicity
 _atom_site_fract_x
 _atom_site_fract_y
 _atom_site_fract_z
 _atom_site_occupancy
  U  U0  1  0.75000000  0.75000000  0.69729360  1
  U  U1  1  0.25000000  0.25000000  0.30270640  1
  Sb  Sb0  1  0.25000000  0.75000000  0.00000000  1
  Sb  Sb1  1  0.75000000  0.25000000  0.00000000  1
  As  As0  1  0.75000000  0.75000000  0.36007926  1
  As  As1  1  0.25000000  0.25000000  0.63992074  1
loop_
_geom_bond_atom_site_label_1
_geom_bond_atom_site_label_2
_geom_bond_distance
_geom_bond_site_symmetry_2
Sb0 Sb1 2.936737 1_565
Sb0 Sb1 2.936737 1_455
Sb0 Sb1 2.936737 1_555
Sb0 Sb1 2.936737 1_465
Sb0 U1 3.343955 1_565
Sb0 U1 3.343955 1_555
Sb0 U0 3.343955 1_554
Sb0 U0 3.343955 1_454
Sb1 U1 3.343955 1_655
Sb1 U1 3.343955 1_555
Sb1 U0 3.343955 1_544
Sb1 U0 3.343955 1_554
As0 U0 2.919827 1_555
As0 U1 2.978457 1_565
As0 U1 2.978457 1_655
As0 U1 2.978457 1_665
As0 U1 2.978457 1_555
As1 U1 2.919827 1_555
As1 U0 2.978457 1_445
As1 U0 2.978457 1_455
As1 U0 2.978457 1_545
As1 U0 2.978457 1_555
