# generated using pymatgen
data_Na6TaAl3Si4(SO12)2
_symmetry_space_group_name_H-M   'P 1'
_cell_length_a   8.77383194
_cell_length_b   8.82909742
_cell_length_c   21.88234272
_cell_angle_alpha   89.64343950
_cell_angle_beta   89.70533629
_cell_angle_gamma   120.04734780
_symmetry_Int_Tables_number   1
_chemical_formula_structural   Na6TaAl3Si4(SO12)2
_chemical_formula_sum   'Na18 Ta3 Al9 Si12 S6 O72'
_cell_volume   1467.21745885
_cell_formula_units_Z   3
loop_
 _symmetry_equiv_pos_site_id
 _symmetry_equiv_pos_as_xyz
  1  'x, y, z'
loop_
 _atom_site_type_symbol
 _atom_site_label
 _atom_site_symmetry_multiplicity
 _atom_site_fract_x
 _atom_site_fract_y
 _atom_site_fract_z
 _atom_site_occupancy
  Na  Na0  1  0.62385270  0.99865107  0.25191085  1
  Na  Na1  1  0.63709280  0.62592833  0.75045701  1
  Na  Na2  1  0.00119071  0.36562156  0.74571448  1
  Na  Na3  1  0.29834014  0.33954814  0.58456011  1
  Na  Na4  1  0.02547080  0.69436075  0.58687687  1
  Na  Na5  1  0.67328985  0.96575016  0.57895162  1
  Na  Na6  1  0.29833602  0.95650745  0.08676941  1
  Na  Na7  1  0.66946769  0.70564705  0.07983351  1
  Na  Na8  1  0.02787426  0.33512164  0.08346769  1
  Na  Na9  1  0.97124357  0.67760527  0.91427124  1
  Na  Na10  1  0.32953919  0.29814768  0.91204787  1
  Na  Na11  1  0.68837407  0.66953355  0.41462880  1
  Na  Na12  1  0.00027494  0.01527240  0.49573543  1
  Na  Na13  1  0.98724607  0.99457133  0.99632056  1
  Na  Na14  1  0.65648309  0.32518067  0.82946775  1
  Na  Na15  1  0.64789184  0.32046953  0.32908922  1
  Na  Na16  1  0.32240350  0.67134170  0.16970094  1
  Na  Na17  1  0.32747968  0.66153709  0.66450059  1
  Ta  Ta0  1  0.68001790  0.33467084  0.97817008  1
  Ta  Ta1  1  0.67095665  0.33166297  0.47605535  1
  Ta  Ta2  1  0.32639350  0.66388636  0.81310113  1
  Al  Al0  1  0.02200885  0.02936725  0.35429190  1
  Al  Al1  1  0.01090816  0.99672393  0.85607120  1
  Al  Al2  1  0.00102680  0.00363952  0.64855044  1
  Al  Al3  1  0.99645625  0.97933606  0.14941306  1
  Al  Al4  1  0.67747896  0.36176173  0.68751037  1
  Al  Al5  1  0.66310071  0.31741508  0.18572212  1
  Al  Al6  1  0.33227933  0.67776978  0.01695279  1
  Al  Al7  1  0.34557053  0.64854008  0.51694491  1
  Al  Al8  1  0.34143310  0.68200377  0.31624937  1
  Si  Si0  1  0.28663916  0.99897742  0.25033162  1
  Si  Si1  1  0.29019873  0.27448662  0.74836851  1
  Si  Si2  1  0.00115677  0.72138338  0.74867727  1
  Si  Si3  1  0.96104335  0.33525211  0.58706424  1
  Si  Si4  1  0.66985567  0.63200974  0.58495659  1
  Si  Si5  1  0.95865228  0.62317436  0.08840063  1
  Si  Si6  1  0.66812191  0.03421342  0.08800328  1
  Si  Si7  1  0.62653616  0.67974590  0.91911999  1
  Si  Si8  1  0.04863350  0.36798331  0.91996050  1
  Si  Si9  1  0.33286310  0.95605200  0.91827539  1
  Si  Si10  1  0.62474650  0.94919612  0.41466311  1
  Si  Si11  1  0.32216705  0.37875468  0.41367943  1
  S  S0  1  0.71003288  0.70430463  0.25015921  1
  S  S1  1  0.00466511  0.29184083  0.24942215  1
  S  S2  1  0.71415764  0.00396465  0.74927217  1
  S  S3  1  0.37846919  0.04449693  0.58524279  1
  S  S4  1  0.37601775  0.33310958  0.08601707  1
  S  S5  1  0.05492816  0.67267176  0.41604270  1
  O  O0  1  0.18471759  0.02429730  0.30786960  1
  O  O1  1  0.81645934  0.78692857  0.30499480  1
  O  O2  1  0.96490360  0.17251344  0.30347449  1
  O  O3  1  0.19549324  0.16927186  0.81049247  1
  O  O4  1  0.96177228  0.80123106  0.80919068  1
  O  O5  1  0.82206859  0.03239039  0.80344097  1
  O  O6  1  0.78938163  0.96913012  0.69318610  1
  O  O7  1  0.16221961  0.19944469  0.68900612  1
  O  O8  1  0.02827362  0.83519789  0.68713728  1
  O  O9  1  0.79148347  0.82274489  0.19466327  1
  O  O10  1  0.02848548  0.20972702  0.19343444  1
  O  O11  1  0.17242432  0.97428782  0.18779835  1
  O  O12  1  0.86083569  0.36262629  0.64523595  1
  O  O13  1  0.49208582  0.12432759  0.63800325  1
  O  O14  1  0.62529021  0.49941609  0.64241416  1
  O  O15  1  0.85022983  0.48664881  0.14278178  1
  O  O16  1  0.62677929  0.12638364  0.14393500  1
  O  O17  1  0.49223364  0.36370084  0.13816573  1
  O  O18  1  0.45168654  0.29940215  0.02916713  1
  O  O19  1  0.83313953  0.53889053  0.02584512  1
  O  O20  1  0.70438342  0.16853152  0.02799666  1
  O  O21  1  0.45838067  0.15758853  0.52900248  1
  O  O22  1  0.70440026  0.53760076  0.52494591  1
  O  O23  1  0.82783535  0.29666159  0.52808248  1
  O  O24  1  0.52803090  0.69335005  0.97922416  1
  O  O25  1  0.16952122  0.46301714  0.97834738  1
  O  O26  1  0.29289251  0.83351380  0.97773833  1
  O  O27  1  0.53265449  0.83341488  0.47720395  1
  O  O28  1  0.30018118  0.45786423  0.47808189  1
  O  O29  1  0.15432960  0.69475691  0.47320654  1
  O  O30  1  0.13042186  0.63868488  0.36253988  1
  O  O31  1  0.50527415  0.87064744  0.35506640  1
  O  O32  1  0.36669251  0.51374903  0.35709429  1
  O  O33  1  0.12769892  0.49865442  0.85854580  1
  O  O34  1  0.37075371  0.86750340  0.85829173  1
  O  O35  1  0.50123854  0.63231437  0.85736276  1
  O  O36  1  0.02020469  0.81916083  0.41061979  1
  O  O37  1  0.81838380  0.96437423  0.40505186  1
  O  O38  1  0.15870938  0.18185725  0.41027736  1
  O  O39  1  0.02529249  0.18001315  0.90851338  1
  O  O40  1  0.16123783  0.97650492  0.91097776  1
  O  O41  1  0.82153142  0.84195016  0.90927876  1
  O  O42  1  0.98067039  0.16052957  0.59153658  1
  O  O43  1  0.20223524  0.02963344  0.58866621  1
  O  O44  1  0.84589654  0.82484746  0.59133027  1
  O  O45  1  0.97698040  0.81742618  0.09117227  1
  O  O46  1  0.85002672  0.02591022  0.09576815  1
  O  O47  1  0.19768215  0.17607117  0.09099725  1
  O  O48  1  0.69083875  0.15720623  0.74203908  1
  O  O49  1  0.48995240  0.30637086  0.74128664  1
  O  O50  1  0.83237304  0.51770806  0.74470552  1
  O  O51  1  0.69335163  0.53173172  0.24180290  1
  O  O52  1  0.84090714  0.30556441  0.24440967  1
  O  O53  1  0.49023423  0.17477376  0.24253648  1
  O  O54  1  0.63893420  0.49643029  0.92459408  1
  O  O55  1  0.85878506  0.36525849  0.92126929  1
  O  O56  1  0.50145065  0.15475512  0.92435204  1
  O  O57  1  0.64712934  0.14730797  0.42390723  1
  O  O58  1  0.50887908  0.36532926  0.42348762  1
  O  O59  1  0.87011317  0.50893230  0.42107970  1
  O  O60  1  0.35866931  0.49046437  0.07992095  1
  O  O61  1  0.14992167  0.63651392  0.07831003  1
  O  O62  1  0.49521241  0.84226836  0.07780632  1
  O  O63  1  0.35578496  0.86829569  0.57701010  1
  O  O64  1  0.49460248  0.65224171  0.57845052  1
  O  O65  1  0.15042255  0.51650908  0.57592764  1
  O  O66  1  0.31431878  0.82418661  0.25749363  1
  O  O67  1  0.53332026  0.69120405  0.25371077  1
  O  O68  1  0.16018512  0.46532354  0.25682833  1
  O  O69  1  0.31640527  0.48103172  0.75446380  1
  O  O70  1  0.17443745  0.69117255  0.75286027  1
  O  O71  1  0.53730185  0.84023624  0.75359611  1
loop_
_geom_bond_atom_site_label_1
_geom_bond_atom_site_label_2
_geom_bond_distance
_geom_bond_site_symmetry_2
Na0 O66 2.359692 1_555
Na0 O53 2.378787 1_565
Na0 O52 2.412448 1_565
Na0 O67 2.416608 1_555
Na0 O31 2.494315 1_555
Na0 O16 2.606219 1_565
Na0 O2 2.835465 1_565
Na0 O9 2.904702 1_555
Na1 O50 2.345868 1_555
Na1 O69 2.439748 1_555
Na1 O71 2.451847 1_555
Na1 O49 2.455471 1_555
Na1 O14 2.601447 1_555
Na1 O35 2.633774 1_555
Na1 O4 2.794531 1_555
Na1 O6 2.901501 1_555
Na2 O48 2.406954 1_455
Na2 O69 2.430937 1_555
Na2 O50 2.447278 1_455
Na2 O70 2.495876 1_555
Na2 O12 2.519412 1_455
Na2 O33 2.732459 1_555
Na2 O7 2.787317 1_555
Na2 O5 2.832766 1_455
Na3 O64 2.416051 1_555
Na3 O42 2.422987 1_455
Na3 O43 2.427313 1_555
Na3 O65 2.488078 1_555
Na3 O28 2.544168 1_555
Na3 O7 2.576314 1_555
Na3 O14 2.797982 1_555
Na3 O21 2.880363 1_555
Na4 O65 2.334733 1_555
Na4 O44 2.374181 1_455
Na4 O63 2.517244 1_555
Na4 O8 2.522704 1_555
Na4 O43 2.563969 1_565
Na4 O29 2.726218 1_555
Na4 O22 2.801050 1_455
Na4 O12 2.827286 1_455
Na5 O42 2.382342 1_565
Na5 O64 2.403038 1_555
Na5 O44 2.408572 1_555
Na5 O63 2.470581 1_555
Na5 O27 2.542001 1_555
Na5 O6 2.698822 1_555
Na5 O23 2.755072 1_565
Na5 O13 2.896234 1_565
Na6 O62 2.404851 1_555
Na6 O45 2.448547 1_455
Na6 O61 2.456977 1_555
Na6 O47 2.502448 1_565
Na6 O11 2.507061 1_555
Na6 O26 2.618262 1_554
Na6 O16 2.801908 1_565
Na6 O18 2.901797 1_565
Na7 O62 2.375155 1_555
Na7 O45 2.378757 1_555
Na7 O60 2.420165 1_555
Na7 O46 2.481692 1_565
Na7 O24 2.508940 1_554
Na7 O9 2.735041 1_555
Na7 O19 2.783355 1_555
Na7 O17 2.896964 1_555
Na8 O61 2.319891 1_555
Na8 O46 2.383479 1_455
Na8 O47 2.512697 1_555
Na8 O60 2.514102 1_555
Na8 O25 2.577557 1_554
Na8 O10 2.643689 1_555
Na8 O20 2.751276 1_455
Na8 O15 2.827146 1_455
Na9 O40 2.310699 1_655
Na9 O41 2.398126 1_555
Na9 O55 2.422890 1_555
Na9 O54 2.535517 1_555
Na9 O4 2.558736 1_555
Na9 O19 2.715753 1_556
Na9 O26 2.821646 1_655
Na9 O33 2.836604 1_655
Na10 O39 2.331205 1_555
Na10 O54 2.400763 1_555
Na10 O56 2.421280 1_555
Na10 O40 2.459139 1_545
Na10 O3 2.516866 1_555
Na10 O18 2.780926 1_556
Na10 O35 2.809391 1_555
Na10 O25 2.871721 1_555
Na11 O37 2.266872 1_555
Na11 O58 2.342229 1_555
Na11 O36 2.524589 1_655
Na11 O59 2.614805 1_555
Na11 O1 2.620595 1_555
Na11 O22 2.708605 1_555
Na11 O32 2.759212 1_555
Na11 O27 2.796484 1_555
Na12 O38 2.341820 1_555
Na12 O37 2.451935 1_445
Na12 O42 2.513908 1_455
Na12 O44 2.585282 1_445
Na12 O36 2.614887 1_545
Na12 O43 2.665804 1_555
Na13 O41 2.378228 1_555
Na13 O39 2.427124 1_665
Na13 O40 2.462045 1_655
Na13 O46 2.564330 1_566
Na13 O45 2.564943 1_556
Na13 O47 2.717856 1_666
Na14 O49 2.382396 1_555
Na14 O50 2.452673 1_555
Na14 O56 2.511520 1_555
Na14 O48 2.535255 1_555
Na14 O55 2.593774 1_555
Na14 O54 2.629031 1_555
Na15 O53 2.330373 1_555
Na15 O58 2.525759 1_555
Na15 O51 2.547403 1_555
Na15 O52 2.552000 1_555
Na15 O57 2.567597 1_555
Na15 O59 2.730456 1_555
Na16 O66 2.375610 1_555
Na16 O61 2.440671 1_555
Na16 O62 2.501875 1_555
Na16 O68 2.511095 1_555
Na16 O67 2.559055 1_555
Na16 O60 2.655698 1_555
Na17 O64 2.407578 1_555
Na17 O65 2.424719 1_555
Na17 O70 2.437501 1_555
Na17 O69 2.495724 1_555
Na17 O63 2.560665 1_555
Na17 O71 2.616464 1_555
Al0 O0 1.766787 1_555
Al0 O38 1.780611 1_555
Al0 O37 1.923507 1_445
Al0 O2 1.925430 1_455
Al0 O36 2.214930 1_545
Al0 O1 2.276144 1_445
Al1 O3 1.852610 1_565
Al1 O40 1.861325 1_555
Al1 O4 1.870512 1_455
Al1 O41 1.915791 1_455
Al1 O39 1.942091 1_565
Al1 O5 2.169852 1_465
Al2 O8 1.823271 1_545
Al2 O7 1.831943 1_555
Al2 O42 1.932798 1_455
Al2 O44 1.950054 1_445
Al2 O6 1.976388 1_445
Al2 O43 2.110235 1_555
Al3 O11 1.781285 1_655
Al3 O45 1.864732 1_555
Al3 O9 1.897592 1_555
Al3 O46 1.932929 1_565
Al3 O10 2.144613 1_665
Al3 O47 2.155520 1_665
Al4 O14 1.790977 1_555
Al4 O12 1.848285 1_555
Al4 O50 1.863914 1_555
Al4 O49 1.870330 1_555
Al4 O13 2.201287 1_555
Al4 O48 2.210408 1_555
Al5 O16 1.807305 1_555
Al5 O15 1.822380 1_555
Al5 O53 1.865567 1_555
Al5 O17 2.030198 1_555
Al5 O52 2.067923 1_555
Al5 O51 2.164769 1_555
Al6 O26 1.791882 1_554
Al6 O24 1.843287 1_554
Al6 O25 1.915414 1_554
Al6 O61 1.970653 1_555
Al6 O62 1.972472 1_555
Al6 O60 2.246201 1_555
Al7 O28 1.750961 1_555
Al7 O27 1.843757 1_555
Al7 O64 1.870321 1_555
Al7 O65 1.978918 1_555
Al7 O29 2.143656 1_555
Al7 O63 2.314942 1_555
Al8 O31 1.787314 1_555
Al8 O32 1.835755 1_555
Al8 O66 1.888829 1_555
Al8 O30 1.966398 1_555
Al8 O67 2.133493 1_555
Al8 O68 2.210223 1_555
O0 Si0 1.620805 1_545
O1 S0 1.477899 1_555
O2 S1 1.497615 1_655
O3 Si1 1.612786 1_555
O4 Si2 1.618863 1_655
O5 S2 1.463462 1_555
O6 S2 1.495357 1_565
O7 Si1 1.633361 1_555
O8 Si2 1.618723 1_555
O9 S0 1.518501 1_555
O10 S1 1.493460 1_555
O11 Si0 1.650222 1_555
O12 Si3 1.629997 1_555
O13 S3 1.463480 1_555
O14 Si4 1.619390 1_555
O15 Si5 1.611266 1_555
O16 Si6 1.610970 1_555
O17 S4 1.467941 1_555
O18 S4 1.506943 1_555
O18 Ta0 2.168782 1_554
O19 Si5 1.687535 1_555
O19 Ta0 1.938124 1_554
O20 Si6 1.682342 1_555
O20 Ta0 1.919038 1_554
O21 S3 1.509265 1_555
O21 Ta1 2.065939 1_555
O22 Si4 1.665418 1_555
O22 Ta1 2.007442 1_555
O23 Si3 1.664350 1_555
O23 Ta1 1.929737 1_555
O24 Si7 1.607925 1_555
O25 Si8 1.611653 1_555
O26 Si9 1.607611 1_555
O27 Si10 1.647667 1_555
O28 Si11 1.629573 1_555
O29 S5 1.485694 1_555
O30 S5 1.447381 1_555
O31 Si10 1.605547 1_555
O32 Si11 1.617633 1_555
O33 Si8 1.669720 1_555
O33 Ta2 1.890377 1_555
O34 Si9 1.647172 1_555
O34 Ta2 1.920069 1_555
O35 Si7 1.664774 1_555
O35 Ta2 1.951740 1_555
O36 S5 1.474026 1_555
O37 Si10 1.648201 1_555
O38 Si11 1.609482 1_555
O39 Si8 1.588812 1_555
O40 Si9 1.612452 1_555
O41 Si7 1.600963 1_555
O42 Si3 1.638079 1_555
O43 S3 1.486336 1_555
O44 Si4 1.635715 1_555
O45 Si5 1.642011 1_555
O46 Si6 1.643555 1_555
O47 S4 1.485374 1_555
O48 S2 1.473892 1_555
O49 Si1 1.636298 1_555
O50 Si2 1.664563 1_655
O51 S0 1.468615 1_555
O52 S1 1.505609 1_655
O53 Si0 1.687043 1_545
O54 Si7 1.679224 1_555
O54 Ta0 2.010761 1_555
O55 Si8 1.653880 1_655
O55 Ta0 1.906544 1_555
O56 Si9 1.640008 1_545
O56 Ta0 1.978583 1_555
O57 Si10 1.673267 1_545
O57 Ta1 1.918343 1_555
O58 Si11 1.715082 1_555
O58 Ta1 1.967136 1_555
O59 S5 1.542760 1_655
O59 Ta1 2.041150 1_555
O60 S4 1.476751 1_555
O61 Si5 1.636093 1_455
O62 Si6 1.629983 1_565
O63 S3 1.478529 1_565
O64 Si4 1.641194 1_555
O65 Si3 1.646026 1_455
O66 Si0 1.684592 1_555
O67 S0 1.497452 1_555
O68 S1 1.465128 1_555
O69 Si1 1.726163 1_555
O69 Ta2 2.036114 1_555
O70 Si2 1.672776 1_555
O70 Ta2 1.977123 1_555
O71 S2 1.502297 1_565
O71 Ta2 2.146783 1_555
