# generated using pymatgen
data_Na6Sc3NbSi4(SO12)2
_symmetry_space_group_name_H-M   'P 1'
_cell_length_a   9.12706619
_cell_length_b   9.13804470
_cell_length_c   22.84490504
_cell_angle_alpha   89.80171066
_cell_angle_beta   90.39618446
_cell_angle_gamma   119.96353897
_symmetry_Int_Tables_number   1
_chemical_formula_structural   Na6Sc3NbSi4(SO12)2
_chemical_formula_sum   'Na18 Sc9 Nb3 Si12 S6 O72'
_cell_volume   1650.64442604
_cell_formula_units_Z   3
loop_
 _symmetry_equiv_pos_site_id
 _symmetry_equiv_pos_as_xyz
  1  'x, y, z'
loop_
 _atom_site_type_symbol
 _atom_site_label
 _atom_site_symmetry_multiplicity
 _atom_site_fract_x
 _atom_site_fract_y
 _atom_site_fract_z
 _atom_site_occupancy
  Na  Na0  1  0.62283584  0.99910412  0.25156714  1
  Na  Na1  1  0.63790085  0.62597563  0.75095527  1
  Na  Na2  1  0.00230262  0.36652732  0.74571180  1
  Na  Na3  1  0.29699299  0.34187664  0.58428762  1
  Na  Na4  1  0.02443518  0.69156047  0.58720292  1
  Na  Na5  1  0.67423306  0.96290792  0.57856264  1
  Na  Na6  1  0.29847136  0.95423743  0.08591341  1
  Na  Na7  1  0.67046586  0.70944313  0.07907821  1
  Na  Na8  1  0.02762308  0.33697379  0.08268642  1
  Na  Na9  1  0.97204004  0.68085427  0.91490049  1
  Na  Na10  1  0.32723049  0.29620924  0.91308171  1
  Na  Na11  1  0.68727292  0.67224480  0.41565257  1
  Na  Na12  1  0.99711813  0.01537911  0.49592960  1
  Na  Na13  1  0.98468163  0.99404503  0.99533197  1
  Na  Na14  1  0.65546229  0.32678069  0.83000235  1
  Na  Na15  1  0.64736566  0.31990149  0.33052591  1
  Na  Na16  1  0.32179203  0.67390569  0.16883232  1
  Na  Na17  1  0.32642377  0.65950861  0.66564595  1
  Sc  Sc0  1  0.02304727  0.02138208  0.35334414  1
  Sc  Sc1  1  0.00642472  0.99723783  0.85279873  1
  Sc  Sc2  1  0.00511088  0.00304869  0.65057053  1
  Sc  Sc3  1  0.00221499  0.98604924  0.14981105  1
  Sc  Sc4  1  0.67146270  0.34956998  0.68569978  1
  Sc  Sc5  1  0.66518271  0.32523218  0.18536953  1
  Sc  Sc6  1  0.33509039  0.67595000  0.01584810  1
  Sc  Sc7  1  0.34091975  0.65485183  0.51526562  1
  Sc  Sc8  1  0.34131075  0.67712828  0.31730316  1
  Nb  Nb0  1  0.68368490  0.33504330  0.97623783  1
  Nb  Nb1  1  0.67333406  0.33291250  0.47765785  1
  Nb  Nb2  1  0.32317394  0.66109948  0.81740844  1
  Si  Si0  1  0.29680216  0.99904252  0.24994458  1
  Si  Si1  1  0.29628283  0.29196897  0.75106429  1
  Si  Si2  1  0.00433005  0.71017464  0.75013309  1
  Si  Si3  1  0.96063031  0.33487383  0.58523609  1
  Si  Si4  1  0.66819981  0.62836638  0.58278606  1
  Si  Si5  1  0.95833674  0.62303054  0.08490590  1
  Si  Si6  1  0.66773733  0.03957332  0.08496765  1
  Si  Si7  1  0.62659206  0.67072154  0.91878969  1
  Si  Si8  1  0.04458432  0.36931274  0.91924286  1
  Si  Si9  1  0.33696184  0.96115015  0.91768144  1
  Si  Si10  1  0.62989448  0.95882473  0.41699572  1
  Si  Si11  1  0.33214663  0.37253487  0.41658067  1
  S  S0  1  0.70704505  0.70505676  0.25075394  1
  S  S1  1  0.00259289  0.29372926  0.24912467  1
  S  S2  1  0.70524991  0.99822963  0.75018124  1
  S  S3  1  0.37962649  0.04548415  0.58271844  1
  S  S4  1  0.37748032  0.33357821  0.08310897  1
  S  S5  1  0.04146377  0.66683807  0.41747083  1
  O  O0  1  0.19627348  0.02158256  0.30456609  1
  O  O1  1  0.80937631  0.78619661  0.30341713  1
  O  O2  1  0.97103281  0.18228311  0.30055559  1
  O  O3  1  0.20407394  0.18537290  0.80903267  1
  O  O4  1  0.96384436  0.78857701  0.80706199  1
  O  O5  1  0.81333028  0.02707629  0.80149231  1
  O  O6  1  0.77927661  0.96755899  0.69619967  1
  O  O7  1  0.17526860  0.21771702  0.69210496  1
  O  O8  1  0.03152191  0.81952337  0.69021000  1
  O  O9  1  0.78551871  0.81353922  0.19720348  1
  O  O10  1  0.02263160  0.21400941  0.19509885  1
  O  O11  1  0.18524788  0.97725637  0.18942097  1
  O  O12  1  0.86910865  0.35827463  0.64222035  1
  O  O13  1  0.48468211  0.12038157  0.63507584  1
  O  O14  1  0.62923858  0.50707693  0.63973953  1
  O  O15  1  0.85869132  0.49874859  0.13828860  1
  O  O16  1  0.63154026  0.12568252  0.14072960  1
  O  O17  1  0.48443100  0.36095053  0.13481017  1
  O  O18  1  0.45310203  0.30441366  0.02961633  1
  O  O19  1  0.83317404  0.52828135  0.02507200  1
  O  O20  1  0.69130686  0.17125332  0.02800569  1
  O  O21  1  0.46004959  0.15398839  0.53007006  1
  O  O22  1  0.69319356  0.52554770  0.52650212  1
  O  O23  1  0.82879983  0.30738506  0.52884596  1
  O  O24  1  0.53834834  0.68797475  0.97698613  1
  O  O25  1  0.15658577  0.45599415  0.97657604  1
  O  O26  1  0.29830845  0.84472466  0.97509721  1
  O  O27  1  0.54119402  0.84847939  0.47593748  1
  O  O28  1  0.30751889  0.45272918  0.47706013  1
  O  O29  1  0.13894278  0.68993262  0.47168645  1
  O  O30  1  0.11684541  0.63620993  0.36602543  1
  O  O31  1  0.51348431  0.88194546  0.35825888  1
  O  O32  1  0.37619597  0.50140412  0.36180851  1
  O  O33  1  0.13025775  0.49879396  0.86083422  1
  O  O34  1  0.36424649  0.86126899  0.86121439  1
  O  O35  1  0.49957680  0.63485866  0.86012829  1
  O  O36  1  0.00898752  0.80952034  0.41086560  1
  O  O37  1  0.81153937  0.96702643  0.40949230  1
  O  O38  1  0.17081887  0.18323287  0.41319568  1
  O  O39  1  0.02350733  0.18724833  0.90940752  1
  O  O40  1  0.17159844  0.98229526  0.91050777  1
  O  O41  1  0.81653073  0.82463418  0.91078563  1
  O  O42  1  0.97612062  0.16323380  0.58607972  1
  O  O43  1  0.20935253  0.03149026  0.58687512  1
  O  O44  1  0.84124125  0.81338783  0.58639119  1
  O  O45  1  0.97234458  0.81043993  0.08618211  1
  O  O46  1  0.84423441  0.03392562  0.08790389  1
  O  O47  1  0.20503535  0.18097869  0.08867533  1
  O  O48  1  0.68645595  0.14925097  0.74299329  1
  O  O49  1  0.48780871  0.32280122  0.74585899  1
  O  O50  1  0.84133574  0.51519398  0.74607890  1
  O  O51  1  0.68861630  0.53640279  0.24326230  1
  O  O52  1  0.84520847  0.30656097  0.24449527  1
  O  O53  1  0.48940024  0.16685493  0.24589063  1
  O  O54  1  0.63391926  0.48941958  0.92441386  1
  O  O55  1  0.86047241  0.36894146  0.92159685  1
  O  O56  1  0.50298600  0.15320273  0.92495973  1
  O  O57  1  0.64777591  0.15044883  0.42741439  1
  O  O58  1  0.51160609  0.36204014  0.42752739  1
  O  O59  1  0.86438501  0.50964162  0.42272966  1
  O  O60  1  0.35807573  0.48553257  0.07804374  1
  O  O61  1  0.14349687  0.63819785  0.07894829  1
  O  O62  1  0.50183419  0.85136272  0.07898531  1
  O  O63  1  0.35542785  0.87295244  0.57556474  1
  O  O64  1  0.50057097  0.65132898  0.57892400  1
  O  O65  1  0.14230625  0.50966368  0.57743389  1
  O  O66  1  0.32124194  0.83052955  0.25396603  1
  O  O67  1  0.53737479  0.69348968  0.25414269  1
  O  O68  1  0.15291102  0.46270588  0.25634923  1
  O  O69  1  0.31665654  0.48888349  0.75843351  1
  O  O70  1  0.17423379  0.68505136  0.75779161  1
  O  O71  1  0.53620880  0.84040399  0.75601048  1
loop_
_geom_bond_atom_site_label_1
_geom_bond_atom_site_label_2
_geom_bond_distance
_geom_bond_site_symmetry_2
Na0 O53 2.389800 1_565
Na0 O66 2.391442 1_555
Na0 O67 2.496939 1_555
Na0 O52 2.518808 1_565
Na0 O31 2.651656 1_555
Na0 O16 2.765200 1_565
Na1 O49 2.403003 1_555
Na1 O50 2.523096 1_555
Na1 O69 2.555720 1_555
Na1 O71 2.556165 1_555
Na1 O14 2.751814 1_555
Na1 O35 2.822776 1_555
Na1 O4 2.871545 1_555
Na1 O6 2.990806 1_555
Na2 O50 2.449082 1_455
Na2 O69 2.520475 1_555
Na2 O70 2.539253 1_555
Na2 O48 2.556813 1_455
Na2 O12 2.634984 1_455
Na2 O7 2.832620 1_555
Na2 O33 2.882877 1_555
Na2 O5 2.979833 1_455
Na3 O64 2.493219 1_555
Na3 O43 2.534026 1_555
Na3 O42 2.543430 1_455
Na3 O65 2.554648 1_555
Na3 O28 2.631495 1_555
Na3 O7 2.710663 1_555
Na3 O14 2.909756 1_555
Na4 O65 2.400449 1_555
Na4 O44 2.427785 1_455
Na4 O8 2.617326 1_555
Na4 O63 2.636416 1_555
Na4 O43 2.694580 1_565
Na4 O29 2.847905 1_555
Na4 O12 2.924097 1_455
Na4 O22 2.956300 1_455
Na5 O42 2.435112 1_565
Na5 O64 2.472068 1_555
Na5 O44 2.509425 1_555
Na5 O63 2.599132 1_555
Na5 O27 2.602618 1_555
Na5 O6 2.840352 1_555
Na6 O62 2.470215 1_555
Na6 O61 2.507210 1_555
Na6 O45 2.584558 1_455
Na6 O47 2.605951 1_565
Na6 O11 2.637794 1_555
Na6 O26 2.725140 1_554
Na6 O16 2.909894 1_565
Na7 O45 2.434006 1_555
Na7 O62 2.458556 1_555
Na7 O60 2.547243 1_555
Na7 O46 2.578812 1_565
Na7 O24 2.580711 1_554
Na7 O9 2.875860 1_555
Na8 O61 2.407136 1_555
Na8 O46 2.419719 1_455
Na8 O60 2.619984 1_555
Na8 O47 2.640832 1_555
Na8 O25 2.680852 1_554
Na8 O10 2.791070 1_555
Na8 O15 2.914286 1_455
Na8 O20 2.931346 1_455
Na9 O41 2.368479 1_555
Na9 O40 2.429860 1_655
Na9 O55 2.506852 1_555
Na9 O4 2.664196 1_555
Na9 O54 2.691686 1_555
Na9 O19 2.852982 1_556
Na9 O26 2.916256 1_655
Na9 O33 2.969410 1_655
Na10 O39 2.433771 1_555
Na10 O54 2.464967 1_555
Na10 O40 2.485886 1_545
Na10 O56 2.537734 1_555
Na10 O3 2.604208 1_555
Na10 O18 2.878528 1_556
Na10 O35 2.941467 1_555
Na10 O25 2.996539 1_555
Na11 O37 2.347363 1_555
Na11 O58 2.477979 1_555
Na11 O36 2.555705 1_655
Na11 O59 2.690928 1_555
Na11 O32 2.747516 1_555
Na11 O1 2.786085 1_555
Na11 O22 2.873966 1_555
Na11 O27 2.907464 1_555
Na12 O38 2.455755 1_655
Na12 O37 2.485078 1_545
Na12 O42 2.527250 1_555
Na12 O44 2.663264 1_545
Na12 O36 2.749284 1_645
Na12 O43 2.784265 1_655
Na13 O41 2.467568 1_555
Na13 O39 2.540940 1_665
Na13 O46 2.599583 1_566
Na13 O40 2.628150 1_655
Na13 O45 2.631658 1_556
Na13 O47 2.836233 1_666
Na14 O49 2.437631 1_555
Na14 O50 2.573444 1_555
Na14 O56 2.640346 1_555
Na14 O48 2.674192 1_555
Na14 O54 2.686874 1_555
Na14 O55 2.694320 1_555
Na15 O53 2.395619 1_555
Na15 O58 2.667340 1_555
Na15 O51 2.696110 1_555
Na15 O57 2.697942 1_555
Na15 O52 2.721906 1_555
Na15 O59 2.811319 1_555
Na16 O66 2.420241 1_555
Na16 O61 2.529635 1_555
Na16 O62 2.627676 1_555
Na16 O68 2.672497 1_555
Na16 O67 2.701760 1_555
Na16 O60 2.824553 1_555
Na17 O65 2.536468 1_555
Na17 O64 2.572969 1_555
Na17 O69 2.602520 1_555
Na17 O70 2.604402 1_555
Na17 O71 2.732698 1_555
Na17 O63 2.751963 1_555
Nb0 O20 1.932420 1_556
Nb0 O55 1.945144 1_555
Nb0 O19 1.951985 1_556
Nb0 O56 2.025516 1_555
Nb0 O54 2.054041 1_555
Nb0 O18 2.332205 1_556
Nb1 O23 1.934190 1_555
Nb1 O57 1.942420 1_555
Nb1 O58 1.981978 1_555
Nb1 O22 2.017108 1_555
Nb1 O59 2.103943 1_555
Nb1 O21 2.176187 1_555
Nb2 O33 1.920826 1_555
Nb2 O34 1.952017 1_555
Nb2 O35 1.991097 1_555
Nb2 O70 2.005058 1_555
Nb2 O69 2.053129 1_555
Nb2 O71 2.296110 1_555
O0 Si0 1.627188 1_545
O0 Sc0 1.939820 1_555
O1 S0 1.472546 1_555
O1 Sc0 2.350009 1_665
O2 S1 1.484572 1_655
O2 Sc0 2.125699 1_655
O3 Si1 1.611969 1_555
O3 Sc1 2.030924 1_545
O4 Si2 1.618261 1_655
O4 Sc1 2.036275 1_655
O5 S2 1.463909 1_545
O5 Sc1 2.236823 1_645
O6 S2 1.502967 1_555
O6 Sc2 2.190884 1_665
O7 Si1 1.652775 1_555
O7 Sc2 2.027230 1_555
O8 Si2 1.637548 1_555
O8 Sc2 2.020142 1_565
O9 S0 1.512214 1_555
O9 Sc3 2.114795 1_655
O10 S1 1.493271 1_555
O10 Sc3 2.251436 1_545
O11 Si0 1.663728 1_555
O11 Sc3 1.930982 1_555
O12 Si3 1.622827 1_555
O12 Sc4 2.031747 1_555
O13 S3 1.467225 1_555
O13 Sc4 2.247894 1_555
O14 Si4 1.628024 1_555
O14 Sc4 1.964827 1_555
O15 Si5 1.605672 1_555
O15 Sc5 2.001854 1_555
O16 Si6 1.619723 1_555
O16 Sc5 1.977027 1_555
O17 S4 1.467192 1_555
O17 Sc5 2.161283 1_555
O18 S4 1.496140 1_555
O19 Si5 1.709289 1_555
O20 Si6 1.709393 1_555
O21 S3 1.498486 1_555
O22 Si4 1.677681 1_555
O23 Si3 1.687979 1_555
O24 Si7 1.607540 1_555
O24 Sc6 2.015022 1_556
O25 Si8 1.602418 1_555
O25 Sc6 2.054370 1_556
O26 Si9 1.612021 1_555
O26 Sc6 1.964916 1_556
O27 Si10 1.635704 1_555
O27 Sc7 2.014990 1_555
O28 Si11 1.634730 1_555
O28 Sc7 1.926443 1_555
O29 S5 1.472794 1_555
O29 Sc7 2.248324 1_555
O30 S5 1.462448 1_555
O30 Sc8 2.199858 1_555
O31 Si10 1.632223 1_555
O31 Sc8 1.975271 1_555
O32 Si11 1.624163 1_555
O32 Sc8 2.051475 1_555
O33 Si8 1.694460 1_555
O34 Si9 1.672951 1_555
O35 Si7 1.687983 1_555
O36 S5 1.481448 1_555
O36 Sc0 2.286464 1_565
O37 Si10 1.631964 1_555
O37 Sc0 2.165799 1_665
O38 Si11 1.619108 1_555
O38 Sc0 1.967725 1_555
O39 Si8 1.593023 1_555
O39 Sc1 2.110424 1_545
O40 Si9 1.621665 1_555
O40 Sc1 2.050930 1_555
O41 Si7 1.607467 1_555
O41 Sc1 2.129113 1_655
O42 Si3 1.643675 1_555
O42 Sc2 2.179403 1_655
O43 S3 1.498013 1_555
O43 Sc2 2.282722 1_555
O44 Si4 1.640602 1_555
O44 Sc2 2.188225 1_665
O45 Si5 1.652763 1_555
O45 Sc3 2.082323 1_655
O46 Si6 1.638197 1_555
O46 Sc3 2.206414 1_645
O47 S4 1.499033 1_555
O47 Sc3 2.296752 1_545
O48 S2 1.481689 1_545
O48 Sc4 2.305175 1_555
O49 Si1 1.630933 1_555
O49 Sc4 2.092439 1_555
O50 Si2 1.657663 1_655
O50 Sc4 2.058643 1_555
O51 S0 1.474879 1_555
O51 Sc5 2.262758 1_555
O52 S1 1.501468 1_655
O52 Sc5 2.191143 1_555
O53 Si0 1.660962 1_545
O53 Sc5 2.068236 1_555
O54 Si7 1.695543 1_555
O55 Si8 1.679942 1_655
O56 Si9 1.657078 1_545
O57 Si10 1.693048 1_545
O58 Si11 1.704598 1_555
O59 S5 1.540267 1_655
O60 S4 1.489003 1_555
O60 Sc6 2.331092 1_555
O61 Si5 1.631811 1_455
O61 Sc6 2.164188 1_555
O62 Si6 1.633054 1_565
O62 Sc6 2.124802 1_555
O63 S3 1.488160 1_565
O63 Sc7 2.374886 1_555
O64 Si4 1.646596 1_555
O64 Sc7 2.063115 1_555
O65 Si3 1.639819 1_455
O65 Sc7 2.164147 1_555
O66 Si0 1.664715 1_555
O66 Sc8 2.081092 1_555
O67 S0 1.501132 1_555
O67 Sc8 2.252450 1_555
O68 S1 1.475234 1_555
O68 Sc8 2.314153 1_555
O69 Si1 1.722857 1_555
O70 Si2 1.685125 1_555
O71 S2 1.502315 1_555
