# generated using pymatgen
data_Tl2GeTe3
_symmetry_space_group_name_H-M   'P 1'
_cell_length_a   8.55729200
_cell_length_b   8.77385200
_cell_length_c   22.00823500
_cell_angle_alpha   90.00000000
_cell_angle_beta   90.00000000
_cell_angle_gamma   90.00000000
_symmetry_Int_Tables_number   1
_chemical_formula_structural   Tl2GeTe3
_chemical_formula_sum   'Tl16 Ge8 Te24'
_cell_volume   1652.38738484
_cell_formula_units_Z   8
loop_
 _symmetry_equiv_pos_site_id
 _symmetry_equiv_pos_as_xyz
  1  'x, y, z'
loop_
 _atom_site_type_symbol
 _atom_site_label
 _atom_site_symmetry_multiplicity
 _atom_site_fract_x
 _atom_site_fract_y
 _atom_site_fract_z
 _atom_site_occupancy
  Tl  Tl0  1  0.77011900  0.54610000  0.50706500  1
  Tl  Tl1  1  0.27011900  0.95390000  0.99293500  1
  Tl  Tl2  1  0.72988100  0.04610000  0.49293500  1
  Tl  Tl3  1  0.22988100  0.45390000  0.00706500  1
  Tl  Tl4  1  0.22988100  0.45390000  0.49293500  1
  Tl  Tl5  1  0.72988100  0.04610000  0.00706500  1
  Tl  Tl6  1  0.27011900  0.95390000  0.50706500  1
  Tl  Tl7  1  0.77011900  0.54610000  0.99293500  1
  Tl  Tl8  1  0.82209100  0.47906300  0.66822100  1
  Tl  Tl9  1  0.32209100  0.02093700  0.83177900  1
  Tl  Tl10  1  0.67790900  0.97906300  0.33177900  1
  Tl  Tl11  1  0.17790900  0.52093700  0.16822100  1
  Tl  Tl12  1  0.17790900  0.52093700  0.33177900  1
  Tl  Tl13  1  0.67790900  0.97906300  0.16822100  1
  Tl  Tl14  1  0.32209100  0.02093700  0.66822100  1
  Tl  Tl15  1  0.82209100  0.47906300  0.83177900  1
  Ge  Ge0  1  0.82638500  0.98522500  0.83127200  1
  Ge  Ge1  1  0.82638500  0.98522500  0.66872800  1
  Ge  Ge2  1  0.32638500  0.51477500  0.83127200  1
  Ge  Ge3  1  0.67361500  0.48522500  0.33127200  1
  Ge  Ge4  1  0.17361500  0.01477500  0.16872800  1
  Ge  Ge5  1  0.17361500  0.01477500  0.33127200  1
  Ge  Ge6  1  0.67361500  0.48522500  0.16872800  1
  Ge  Ge7  1  0.32638500  0.51477500  0.66872800  1
  Te  Te0  1  0.48519000  0.33849100  0.59325000  1
  Te  Te1  1  0.98519000  0.16150900  0.90675000  1
  Te  Te2  1  0.01481000  0.83849100  0.40675000  1
  Te  Te3  1  0.51481000  0.66150900  0.09325000  1
  Te  Te4  1  0.51481000  0.66150900  0.40675000  1
  Te  Te5  1  0.01481000  0.83849100  0.09325000  1
  Te  Te6  1  0.98519000  0.16150900  0.59325000  1
  Te  Te7  1  0.48519000  0.33849100  0.90675000  1
  Te  Te8  1  0.62577400  0.81251300  0.61000400  1
  Te  Te9  1  0.62577400  0.81251300  0.88999600  1
  Te  Te10  1  0.12577400  0.68748700  0.61000400  1
  Te  Te11  1  0.87422600  0.31251300  0.11000400  1
  Te  Te12  1  0.37422600  0.18748700  0.38999600  1
  Te  Te13  1  0.37422600  0.18748700  0.11000400  1
  Te  Te14  1  0.87422600  0.31251300  0.38999600  1
  Te  Te15  1  0.12577400  0.68748700  0.88999600  1
  Te  Te16  1  0.99737100  0.82560400  0.75000000  1
  Te  Te17  1  0.49737100  0.67439600  0.75000000  1
  Te  Te18  1  0.50262900  0.32560400  0.25000000  1
  Te  Te19  1  0.00262900  0.17439600  0.25000000  1
  Te  Te20  1  0.66820500  0.15516900  0.75000000  1
  Te  Te21  1  0.16820500  0.34483100  0.75000000  1
  Te  Te22  1  0.83179500  0.65516900  0.25000000  1
  Te  Te23  1  0.33179500  0.84483100  0.25000000  1
loop_
_geom_bond_atom_site_label_1
_geom_bond_atom_site_label_2
_geom_bond_distance
_geom_bond_site_symmetry_2
Ge0 Te9 2.629377 1_555
Ge0 Te1 2.645439 1_565
Ge0 Te20 2.693467 1_565
Ge0 Te16 2.702137 1_555
Ge1 Te8 2.629377 1_555
Ge1 Te6 2.645439 1_565
Ge1 Te20 2.693467 1_565
Ge1 Te16 2.702137 1_555
Ge2 Te15 2.629377 1_555
Ge2 Te7 2.645439 1_555
Ge2 Te21 2.693467 1_555
Ge2 Te17 2.702137 1_555
Ge3 Te14 2.629377 1_555
Ge3 Te4 2.645439 1_555
Ge3 Te22 2.693467 1_555
Ge3 Te18 2.702137 1_555
Ge4 Te13 2.629377 1_555
Ge4 Te5 2.645439 1_545
Ge4 Te23 2.693467 1_545
Ge4 Te19 2.702137 1_555
Ge5 Te12 2.629377 1_555
Ge5 Te2 2.645439 1_545
Ge5 Te23 2.693467 1_545
Ge5 Te19 2.702137 1_555
Ge6 Te11 2.629377 1_555
Ge6 Te3 2.645439 1_555
Ge6 Te22 2.693467 1_555
Ge6 Te18 2.702137 1_555
Ge7 Te10 2.629377 1_555
Ge7 Te0 2.645439 1_555
Ge7 Te21 2.693467 1_555
Ge7 Te17 2.702137 1_555
Te0 Tl4 3.266903 1_555
Te0 Tl14 3.526064 1_555
Te0 Tl8 3.543312 1_555
Te0 Tl0 3.586177 1_555
Te1 Tl5 3.266903 1_556
Te1 Tl15 3.526064 1_555
Te1 Tl9 3.543312 1_655
Te1 Tl1 3.586177 1_645
Te2 Tl6 3.266903 1_555
Te2 Tl12 3.526064 1_555
Te2 Tl10 3.543312 1_455
Te2 Tl2 3.586177 1_465
Te3 Tl7 3.266903 1_554
Te3 Tl13 3.526064 1_555
Te3 Tl11 3.543312 1_555
Te3 Tl3 3.586177 1_555
Te4 Tl0 3.266903 1_555
Te4 Tl10 3.526064 1_555
Te4 Tl12 3.543312 1_555
Te4 Tl4 3.586177 1_555
Te5 Tl1 3.266903 1_554
Te5 Tl11 3.526064 1_555
Te5 Tl13 3.543312 1_455
Te5 Tl5 3.586177 1_465
Te6 Tl2 3.266903 1_555
Te6 Tl8 3.526064 1_555
Te6 Tl14 3.543312 1_655
Te6 Tl6 3.586177 1_645
Te7 Tl3 3.266903 1_556
Te7 Tl9 3.526064 1_555
Te7 Tl15 3.543312 1_555
Te7 Tl7 3.586177 1_555
Te8 Tl2 3.410600 1_565
Te8 Tl14 3.426215 1_565
Te8 Tl0 3.481666 1_555
Te9 Tl5 3.410600 1_566
Te9 Tl9 3.426215 1_565
Te9 Tl7 3.481666 1_555
Te10 Tl4 3.410600 1_555
Te10 Tl8 3.426215 1_455
Te10 Tl6 3.481666 1_555
Te11 Tl7 3.410600 1_554
Te11 Tl11 3.426215 1_655
Te11 Tl5 3.481666 1_555
Te12 Tl6 3.410600 1_545
Te12 Tl10 3.426215 1_545
Te12 Tl4 3.481666 1_555
Te13 Tl1 3.410600 1_544
Te13 Tl13 3.426215 1_545
Te13 Tl3 3.481666 1_555
Te14 Tl0 3.410600 1_555
Te14 Tl12 3.426215 1_655
Te14 Tl2 3.481666 1_555
Te15 Tl3 3.410600 1_556
Te15 Tl15 3.426215 1_455
Te15 Tl1 3.481666 1_555
