# generated using pymatgen
data_CsReF8
_symmetry_space_group_name_H-M   'P 1'
_cell_length_a   7.77976452
_cell_length_b   7.77976452
_cell_length_c   5.13288672
_cell_angle_alpha   90.00000000
_cell_angle_beta   90.00000000
_cell_angle_gamma   90.00000000
_symmetry_Int_Tables_number   1
_chemical_formula_structural   CsReF8
_chemical_formula_sum   'Cs2 Re2 F16'
_cell_volume   310.66661358
_cell_formula_units_Z   2
loop_
 _symmetry_equiv_pos_site_id
 _symmetry_equiv_pos_as_xyz
  1  'x, y, z'
loop_
 _atom_site_type_symbol
 _atom_site_label
 _atom_site_symmetry_multiplicity
 _atom_site_fract_x
 _atom_site_fract_y
 _atom_site_fract_z
 _atom_site_occupancy
  Cs  Cs0  1  0.00000000  0.00000000  0.50000000  1
  Cs  Cs1  1  0.50000000  0.50000000  0.50000000  1
  Re  Re0  1  0.00000000  0.50000000  0.10835908  1
  Re  Re1  1  0.50000000  0.00000000  0.89164092  1
  F  F0  1  0.70743698  0.00000000  0.08978311  1
  F  F1  1  0.29256302  0.00000000  0.08978311  1
  F  F2  1  0.50000000  0.20743698  0.08978311  1
  F  F3  1  0.50000000  0.79256302  0.08978311  1
  F  F4  1  0.85385735  0.35385735  0.31306516  1
  F  F5  1  0.85385735  0.64614265  0.31306516  1
  F  F6  1  0.14614265  0.35385735  0.31306516  1
  F  F7  1  0.14614265  0.64614265  0.31306516  1
  F  F8  1  0.64614265  0.85385735  0.68693484  1
  F  F9  1  0.35385735  0.14614265  0.68693484  1
  F  F10  1  0.35385735  0.85385735  0.68693484  1
  F  F11  1  0.64614265  0.14614265  0.68693484  1
  F  F12  1  0.00000000  0.29256302  0.91021689  1
  F  F13  1  0.79256302  0.50000000  0.91021689  1
  F  F14  1  0.20743698  0.50000000  0.91021689  1
  F  F15  1  0.00000000  0.70743698  0.91021689  1
loop_
_geom_bond_atom_site_label_1
_geom_bond_atom_site_label_2
_geom_bond_distance
_geom_bond_site_symmetry_2
Cs0 F0 3.100651 1_455
Cs0 F12 3.100651 1_555
Cs0 F15 3.100651 1_545
Cs0 F1 3.100651 1_555
Cs0 F8 3.129208 1_445
Cs0 F5 3.129208 1_445
Cs0 F11 3.129208 1_455
Cs0 F10 3.129208 1_545
Cs0 F7 3.129208 1_545
Cs0 F6 3.129208 1_555
Cs0 F9 3.129208 1_555
Cs0 F4 3.129208 1_455
Cs1 F3 3.100651 1_555
Cs1 F2 3.100651 1_555
Cs1 F13 3.100651 1_555
Cs1 F14 3.100651 1_555
Cs1 F6 3.129208 1_555
Cs1 F9 3.129208 1_555
Cs1 F11 3.129208 1_555
Cs1 F4 3.129208 1_555
Cs1 F7 3.129208 1_555
Cs1 F10 3.129208 1_555
Cs1 F8 3.129208 1_555
Cs1 F5 3.129208 1_555
F0 Re1 1.907553 1_554
F1 Re1 1.907553 1_554
F2 Re1 1.907553 1_554
F3 Re1 1.907553 1_564
F4 Re0 1.920775 1_655
F5 Re0 1.920775 1_655
F6 Re0 1.920775 1_555
F7 Re0 1.920775 1_555
F8 Re1 1.920775 1_565
F9 Re1 1.920775 1_555
F10 Re1 1.920775 1_565
F11 Re1 1.920775 1_555
F12 Re0 1.907553 1_556
F13 Re0 1.907553 1_656
F14 Re0 1.907553 1_556
F15 Re0 1.907553 1_556
