# generated using pymatgen
data_Na42Mg8Ta16Si33(SO48)3
_symmetry_space_group_name_H-M   'P 1'
_cell_length_a   18.17882853
_cell_length_b   9.10149976
_cell_length_c   22.40165305
_cell_angle_alpha   89.91404147
_cell_angle_beta   90.17506329
_cell_angle_gamma   120.05867434
_symmetry_Int_Tables_number   1
_chemical_formula_structural   Na42Mg8Ta16Si33(SO48)3
_chemical_formula_sum   'Na42 Mg8 Ta16 Si33 S3 O144'
_cell_volume   3207.97111851
_cell_formula_units_Z   1
loop_
 _symmetry_equiv_pos_site_id
 _symmetry_equiv_pos_as_xyz
  1  'x, y, z'
loop_
 _atom_site_type_symbol
 _atom_site_label
 _atom_site_symmetry_multiplicity
 _atom_site_fract_x
 _atom_site_fract_y
 _atom_site_fract_z
 _atom_site_occupancy
  Na  Na0  1  0.31637406  0.98475130  0.25281908  1
  Na  Na1  1  0.81790231  0.98597253  0.25352103  1
  Na  Na2  1  0.17941128  0.38178802  0.25262425  1
  Na  Na3  1  0.68027250  0.38336795  0.25259858  1
  Na  Na4  1  0.00489102  0.63445442  0.25788124  1
  Na  Na5  1  0.50410535  0.63273169  0.25622525  1
  Na  Na6  1  0.31799251  0.65103101  0.75400898  1
  Na  Na7  1  0.81058992  0.63963765  0.75274265  1
  Na  Na8  1  0.00305402  0.37771314  0.75510933  1
  Na  Na9  1  0.51094501  0.37636776  0.75503012  1
  Na  Na10  1  0.17972983  0.97636883  0.75301717  1
  Na  Na11  1  0.67936626  0.98143217  0.75281814  1
  Na  Na12  1  0.14402418  0.32157361  0.58345539  1
  Na  Na13  1  0.64347449  0.31791566  0.58990485  1
  Na  Na14  1  0.01557914  0.71227867  0.58824411  1
  Na  Na15  1  0.51809497  0.71899054  0.58897037  1
  Na  Na16  1  0.34102997  0.96395893  0.58889668  1
  Na  Na17  1  0.84094349  0.96841998  0.58910321  1
  Na  Na18  1  0.33965986  0.71520544  0.08827168  1
  Na  Na19  1  0.83979967  0.71544627  0.08897978  1
  Na  Na20  1  0.01775427  0.31852510  0.08837759  1
  Na  Na21  1  0.51644835  0.31681560  0.08774897  1
  Na  Na22  1  0.48583424  0.66409213  0.91430378  1
  Na  Na23  1  0.98860355  0.66145141  0.91442689  1
  Na  Na24  1  0.34630455  0.02607218  0.91507486  1
  Na  Na25  1  0.84407986  0.02723316  0.91416049  1
  Na  Na26  1  0.66578552  0.30634969  0.91385096  1
  Na  Na27  1  0.48777904  0.31418890  0.41458621  1
  Na  Na28  1  0.34315980  0.66114515  0.41419936  1
  Na  Na29  1  0.84554782  0.66094008  0.41473292  1
  Na  Na30  1  0.00313911  0.00510857  0.50448085  1
  Na  Na31  1  0.50463642  0.00008823  0.50673194  1
  Na  Na32  1  0.00905834  0.00850120  0.00876545  1
  Na  Na33  1  0.50333425  0.99906871  0.00774860  1
  Na  Na34  1  0.33207976  0.33402477  0.83630161  1
  Na  Na35  1  0.83282577  0.33265261  0.83232629  1
  Na  Na36  1  0.33024213  0.32858315  0.33461932  1
  Na  Na37  1  0.83610351  0.32972023  0.33706287  1
  Na  Na38  1  0.16681012  0.66363702  0.17057199  1
  Na  Na39  1  0.66748633  0.66356831  0.17088729  1
  Na  Na40  1  0.16749005  0.67808999  0.67159153  1
  Na  Na41  1  0.66676220  0.66618498  0.67566408  1
  Mg  Mg0  1  0.99626755  0.98946092  0.64521276  1
  Mg  Mg1  1  0.49988834  0.99972519  0.64809066  1
  Mg  Mg2  1  0.99849692  0.00232687  0.14507219  1
  Mg  Mg3  1  0.49830117  0.00227036  0.14451846  1
  Mg  Mg4  1  0.16590993  0.65847954  0.31776600  1
  Mg  Mg5  1  0.66719436  0.65950342  0.31758069  1
  Mg  Mg6  1  0.16722162  0.67501696  0.81836848  1
  Mg  Mg7  1  0.66638669  0.66663216  0.81450943  1
  Ta  Ta0  1  0.99349758  0.99955798  0.35742067  1
  Ta  Ta1  1  0.49454190  0.99695704  0.35608677  1
  Ta  Ta2  1  0.99517320  0.99272009  0.85610569  1
  Ta  Ta3  1  0.49855523  0.99901726  0.85184137  1
  Ta  Ta4  1  0.33893453  0.33535051  0.68487208  1
  Ta  Ta5  1  0.83261498  0.33296023  0.68800969  1
  Ta  Ta6  1  0.33734633  0.33938231  0.18447749  1
  Ta  Ta7  1  0.83832912  0.34122677  0.18487496  1
  Ta  Ta8  1  0.33028504  0.33387381  0.98063380  1
  Ta  Ta9  1  0.83356137  0.33328002  0.98131063  1
  Ta  Ta10  1  0.33073192  0.33075198  0.47934647  1
  Ta  Ta11  1  0.83482965  0.32999431  0.47891079  1
  Ta  Ta12  1  0.16692427  0.66861605  0.01979479  1
  Ta  Ta13  1  0.66620320  0.66862817  0.02097170  1
  Ta  Ta14  1  0.16466580  0.66441159  0.51812379  1
  Ta  Ta15  1  0.66681050  0.66735068  0.51887968  1
  Si  Si0  1  0.35243548  0.70828595  0.24673199  1
  Si  Si1  1  0.85319630  0.70987890  0.24717095  1
  Si  Si2  1  0.00166405  0.29336482  0.24697656  1
  Si  Si3  1  0.50147037  0.29415119  0.24700359  1
  Si  Si4  1  0.64488821  0.29245077  0.74688302  1
  Si  Si5  1  0.00263357  0.71043108  0.74679003  1
  Si  Si6  1  0.50047115  0.70876119  0.74697257  1
  Si  Si7  1  0.35157021  0.99546078  0.74657091  1
  Si  Si8  1  0.85406024  0.99835718  0.74650199  1
  Si  Si9  1  0.48103582  0.33366039  0.58091412  1
  Si  Si10  1  0.97983872  0.33455379  0.58447185  1
  Si  Si11  1  0.18731418  0.04108932  0.58387182  1
  Si  Si12  1  0.68836254  0.04268381  0.58257518  1
  Si  Si13  1  0.33252340  0.62457773  0.58309210  1
  Si  Si14  1  0.83279423  0.62290535  0.58206198  1
  Si  Si15  1  0.48167709  0.63081140  0.08196513  1
  Si  Si16  1  0.98285785  0.63258398  0.08222573  1
  Si  Si17  1  0.33111382  0.04066263  0.08285576  1
  Si  Si18  1  0.83118000  0.03953937  0.08396959  1
  Si  Si19  1  0.18564914  0.32958663  0.08390406  1
  Si  Si20  1  0.68612717  0.32918656  0.08327423  1
  Si  Si21  1  0.31004838  0.66275390  0.91352576  1
  Si  Si22  1  0.80952452  0.66274217  0.91554297  1
  Si  Si23  1  0.02318915  0.37585795  0.91494792  1
  Si  Si24  1  0.52070255  0.37603644  0.91535652  1
  Si  Si25  1  0.16740016  0.96067583  0.91480512  1
  Si  Si26  1  0.66666493  0.95723969  0.91457196  1
  Si  Si27  1  0.30775619  0.95722782  0.41377182  1
  Si  Si28  1  0.80796680  0.95793328  0.41337710  1
  Si  Si29  1  0.16486394  0.37248436  0.41434081  1
  Si  Si30  1  0.66737434  0.37276335  0.41502919  1
  Si  Si31  1  0.02178330  0.66784417  0.41319518  1
  Si  Si32  1  0.52238299  0.66981679  0.41443717  1
  S  S0  1  0.14389089  0.00145238  0.24923740  1
  S  S1  1  0.64381593  0.00171815  0.24948173  1
  S  S2  1  0.14402909  0.28620526  0.74847444  1
  O  O0  1  0.10520358  0.03131195  0.30355383  1
  O  O1  1  0.60373085  0.03007603  0.30375862  1
  O  O2  1  0.41667729  0.80043902  0.30772388  1
  O  O3  1  0.91659135  0.79927395  0.30778172  1
  O  O4  1  0.48538914  0.16574115  0.30738943  1
  O  O5  1  0.98523373  0.16102796  0.30554769  1
  O  O6  1  0.10342692  0.17722188  0.80263464  1
  O  O7  1  0.59853593  0.16438695  0.80767168  1
  O  O8  1  0.48182037  0.79937347  0.80738709  1
  O  O9  1  0.98705103  0.80773560  0.80720457  1
  O  O10  1  0.41560677  0.03367899  0.80727164  1
  O  O11  1  0.91796245  0.03238623  0.80761438  1
  O  O12  1  0.39473358  0.97125553  0.68860749  1
  O  O13  1  0.89930139  0.97563852  0.68947597  1
  O  O14  1  0.09501158  0.21231158  0.69490429  1
  O  O15  1  0.58842128  0.20860484  0.68887202  1
  O  O16  1  0.02004682  0.82918100  0.69006600  1
  O  O17  1  0.51314045  0.81868689  0.68867016  1
  O  O18  1  0.39920374  0.82172042  0.18993695  1
  O  O19  1  0.89849782  0.82127165  0.18957550  1
  O  O20  1  0.01710184  0.20966512  0.18943885  1
  O  O21  1  0.51738836  0.20822438  0.19040588  1
  O  O22  1  0.09235866  0.97688107  0.19596542  1
  O  O23  1  0.59187364  0.97650112  0.19609103  1
  O  O24  1  0.43411885  0.36855615  0.64029260  1
  O  O25  1  0.93447110  0.37117917  0.64274511  1
  O  O26  1  0.25081226  0.13469637  0.64270301  1
  O  O27  1  0.75154137  0.13301673  0.64177613  1
  O  O28  1  0.31479425  0.49461023  0.64131815  1
  O  O29  1  0.81561873  0.49695020  0.64094101  1
  O  O30  1  0.43408128  0.49878183  0.14096506  1
  O  O31  1  0.93418671  0.49961324  0.14073278  1
  O  O32  1  0.31765358  0.13669668  0.14205869  1
  O  O33  1  0.81746806  0.13637798  0.14227600  1
  O  O34  1  0.25077121  0.36585269  0.14242062  1
  O  O35  1  0.75122696  0.36465079  0.14138561  1
  O  O36  1  0.23965943  0.31575639  0.02760055  1
  O  O37  1  0.73870349  0.31676648  0.02518125  1
  O  O38  1  0.42004433  0.52739483  0.02514679  1
  O  O39  1  0.92015045  0.52705403  0.02531162  1
  O  O40  1  0.34333636  0.16494252  0.02594159  1
  O  O41  1  0.84223747  0.16260032  0.02623986  1
  O  O42  1  0.23974935  0.16702547  0.52795656  1
  O  O43  1  0.74048014  0.16953720  0.52736199  1
  O  O44  1  0.34355933  0.52340413  0.52609834  1
  O  O45  1  0.84462024  0.52488023  0.52511351  1
  O  O46  1  0.41882569  0.31358396  0.52508315  1
  O  O47  1  0.91718734  0.30959585  0.52813303  1
  O  O48  1  0.26523213  0.69833468  0.97288549  1
  O  O49  1  0.76756856  0.70092712  0.97495323  1
  O  O50  1  0.08161279  0.46844046  0.97501296  1
  O  O51  1  0.58373881  0.46688023  0.97475060  1
  O  O52  1  0.14879922  0.82872065  0.97214925  1
  O  O53  1  0.65068568  0.82888478  0.97272727  1
  O  O54  1  0.26578646  0.83309621  0.47362911  1
  O  O55  1  0.76488063  0.83164596  0.47308120  1
  O  O56  1  0.15220749  0.46705407  0.47485790  1
  O  O57  1  0.64883985  0.46458089  0.47402384  1
  O  O58  1  0.08224125  0.69375516  0.47397411  1
  O  O59  1  0.58179342  0.69434876  0.47456053  1
  O  O60  1  0.05984603  0.63691677  0.35457785  1
  O  O61  1  0.55798750  0.62538856  0.35674138  1
  O  O62  1  0.25739977  0.88160699  0.35400080  1
  O  O63  1  0.75669172  0.88102950  0.35376040  1
  O  O64  1  0.19098067  0.49097097  0.35710871  1
  O  O65  1  0.68772590  0.48729026  0.35701572  1
  O  O66  1  0.05778855  0.49079610  0.85669022  1
  O  O67  1  0.55773055  0.49219036  0.85788612  1
  O  O68  1  0.18888973  0.89163741  0.85609158  1
  O  O69  1  0.68990062  0.88744601  0.85708821  1
  O  O70  1  0.25678682  0.63145707  0.85398851  1
  O  O71  1  0.75373614  0.62318538  0.85737971  1
  O  O72  1  0.00862403  0.83669970  0.41011300  1
  O  O73  1  0.50875390  0.83645847  0.40998686  1
  O  O74  1  0.40563280  0.97459658  0.41057496  1
  O  O75  1  0.90371635  0.96898084  0.41100910  1
  O  O76  1  0.08130132  0.18141333  0.40860787  1
  O  O77  1  0.57921088  0.18465088  0.40906833  1
  O  O78  1  0.00907789  0.18153523  0.90958156  1
  O  O79  1  0.51158385  0.18452004  0.91129663  1
  O  O80  1  0.08007012  0.97481192  0.90886147  1
  O  O81  1  0.58044726  0.97564374  0.91123091  1
  O  O82  1  0.40675516  0.83838619  0.91055638  1
  O  O83  1  0.90665465  0.83696618  0.91087600  1
  O  O84  1  0.48873011  0.16748586  0.58364892  1
  O  O85  1  0.99248963  0.17325961  0.58801963  1
  O  O86  1  0.09655575  0.02751229  0.58672441  1
  O  O87  1  0.59599443  0.02211461  0.58459318  1
  O  O88  1  0.41546886  0.80803998  0.58452959  1
  O  O89  1  0.91530758  0.80830180  0.58401929  1
  O  O90  1  0.48569263  0.80745235  0.08733687  1
  O  O91  1  0.98557106  0.80792476  0.08674551  1
  O  O92  1  0.41449565  0.02382039  0.08473880  1
  O  O93  1  0.91488594  0.02451933  0.08445111  1
  O  O94  1  0.09307833  0.17102643  0.08658199  1
  O  O95  1  0.59313261  0.17096325  0.08573262  1
  O  O96  1  0.34458803  0.17581011  0.74421238  1
  O  O97  1  0.85011501  0.17985270  0.74503557  1
  O  O98  1  0.23124928  0.30140775  0.74601850  1
  O  O99  1  0.73993904  0.30083258  0.74456295  1
  O  O100  1  0.40785683  0.51658670  0.74419168  1
  O  O101  1  0.91119895  0.52305239  0.74476848  1
  O  O102  1  0.34553737  0.51420922  0.24483475  1
  O  O103  1  0.84524813  0.51410387  0.24422624  1
  O  O104  1  0.40887223  0.29889429  0.24505553  1
  O  O105  1  0.90895871  0.29896532  0.24459126  1
  O  O106  1  0.23152826  0.16201716  0.24523843  1
  O  O107  1  0.73056356  0.16088359  0.24576317  1
  O  O108  1  0.32936865  0.50530106  0.92455918  1
  O  O109  1  0.82724081  0.50251978  0.92515112  1
  O  O110  1  0.42419629  0.34718966  0.92588578  1
  O  O111  1  0.92538266  0.34772140  0.92588846  1
  O  O112  1  0.25122823  0.14867948  0.92649125  1
  O  O113  1  0.74925720  0.15165066  0.92571519  1
  O  O114  1  0.32951366  0.15409286  0.42478540  1
  O  O115  1  0.82508909  0.14958686  0.42529269  1
  O  O116  1  0.25036362  0.35380774  0.42696127  1
  O  O117  1  0.75147284  0.35450416  0.42665245  1
  O  O118  1  0.42522947  0.50314367  0.42564187  1
  O  O119  1  0.92451960  0.50600161  0.42547105  1
  O  O120  1  0.18419812  0.51059490  0.07657819  1
  O  O121  1  0.68450804  0.51034777  0.07657427  1
  O  O122  1  0.07190923  0.62874596  0.07723197  1
  O  O123  1  0.57148163  0.62787613  0.07703176  1
  O  O124  1  0.24553053  0.85149843  0.07655260  1
  O  O125  1  0.74547498  0.85102107  0.07740892  1
  O  O126  1  0.18316820  0.85628545  0.57686910  1
  O  O127  1  0.68383776  0.85623248  0.57579603  1
  O  O128  1  0.24401596  0.63348010  0.57737040  1
  O  O129  1  0.74447106  0.63360192  0.57608564  1
  O  O130  1  0.07318133  0.51219720  0.57742471  1
  O  O131  1  0.57280155  0.51148145  0.57706507  1
  O  O132  1  0.15698699  0.85533984  0.25533029  1
  O  O133  1  0.65560116  0.85391363  0.25619007  1
  O  O134  1  0.25902575  0.68570380  0.25341135  1
  O  O135  1  0.75905311  0.68566743  0.25342738  1
  O  O136  1  0.07978522  0.48520006  0.25411246  1
  O  O137  1  0.57958765  0.48619904  0.25418648  1
  O  O138  1  0.15588184  0.45876247  0.75580617  1
  O  O139  1  0.65951160  0.48015514  0.75529603  1
  O  O140  1  0.08124638  0.67588736  0.75440485  1
  O  O141  1  0.57929279  0.67817044  0.75503101  1
  O  O142  1  0.25798643  0.83146223  0.75389800  1
  O  O143  1  0.76044074  0.83816482  0.75434417  1
loop_
_geom_bond_atom_site_label_1
_geom_bond_atom_site_label_2
_geom_bond_distance
_geom_bond_site_symmetry_2
Na0 O134 2.377508 1_555
Na0 O62 2.483654 1_555
Na0 O104 2.493317 1_565
Na0 O132 2.523449 1_555
Na0 O106 2.738852 1_565
Na0 O32 2.833250 1_565
Na0 O4 2.925926 1_565
Na0 O18 2.951407 1_555
Na1 O135 2.384494 1_555
Na1 O63 2.477297 1_555
Na1 O105 2.484279 1_565
Na1 O133 2.569373 1_555
Na1 O107 2.759510 1_565
Na1 O33 2.843393 1_565
Na1 O5 2.877275 1_565
Na1 O19 2.943660 1_555
Na2 O134 2.394947 1_555
Na2 O136 2.423859 1_555
Na2 O64 2.510947 1_555
Na2 O106 2.612731 1_555
Na2 O102 2.638117 1_555
Na2 O34 2.829785 1_555
Na2 O20 2.917927 1_555
Na2 O0 2.997398 1_555
Na3 O135 2.382037 1_555
Na3 O137 2.438011 1_555
Na3 O65 2.502154 1_555
Na3 O107 2.610745 1_555
Na3 O103 2.621694 1_555
Na3 O35 2.853185 1_555
Na3 O21 2.915968 1_555
Na3 O1 3.017537 1_555
Na4 O136 2.357957 1_555
Na4 O60 2.378087 1_555
Na4 O132 2.474254 1_555
Na4 O103 2.554752 1_455
Na4 O105 2.668073 1_455
Na4 O31 2.907593 1_455
Na4 O3 2.916289 1_455
Na5 O137 2.344669 1_555
Na5 O133 2.466420 1_555
Na5 O61 2.466950 1_555
Na5 O102 2.533639 1_555
Na5 O104 2.649881 1_555
Na5 O30 2.865003 1_555
Na5 O2 2.938285 1_555
Na5 O23 3.024801 1_555
Na6 O142 2.383540 1_555
Na6 O70 2.470115 1_555
Na6 O100 2.493981 1_555
Na6 O138 2.565724 1_555
Na6 O98 2.760005 1_555
Na6 O8 2.842068 1_555
Na6 O28 2.886186 1_555
Na6 O12 2.917823 1_555
Na7 O139 2.379116 1_555
Na7 O143 2.397467 1_555
Na7 O71 2.538478 1_555
Na7 O101 2.539612 1_555
Na7 O99 2.687880 1_555
Na7 O29 2.845649 1_555
Na8 O140 2.349733 1_555
Na8 O97 2.450604 1_455
Na8 O66 2.488955 1_555
Na8 O138 2.491924 1_555
Na8 O101 2.607919 1_455
Na8 O25 2.793018 1_455
Na9 O139 2.372905 1_555
Na9 O141 2.381179 1_555
Na9 O67 2.498169 1_555
Na9 O96 2.646349 1_555
Na9 O100 2.755316 1_555
Na9 O24 2.905376 1_555
Na9 O15 2.947105 1_555
Na9 O10 2.947480 1_555
Na10 O142 2.375488 1_555
Na10 O140 2.404307 1_555
Na10 O68 2.464762 1_555
Na10 O96 2.620747 1_565
Na10 O98 2.622486 1_565
Na10 O26 2.827840 1_565
Na10 O16 2.880079 1_555
Na10 O6 3.009491 1_565
Na11 O143 2.407992 1_555
Na11 O141 2.429056 1_555
Na11 O69 2.525836 1_555
Na11 O99 2.547627 1_565
Na11 O97 2.704341 1_565
Na11 O27 2.830011 1_565
Na12 O86 2.366282 1_555
Na12 O85 2.386899 1_455
Na12 O128 2.492510 1_555
Na12 O130 2.631239 1_555
Na12 O14 2.671054 1_555
Na12 O56 2.736586 1_555
Na13 O87 2.383220 1_555
Na13 O15 2.432307 1_555
Na13 O84 2.438730 1_555
Na13 O129 2.537388 1_555
Na13 O131 2.664709 1_555
Na13 O57 2.896714 1_555
Na13 O29 2.937818 1_555
Na14 O89 2.385374 1_455
Na14 O86 2.483724 1_565
Na14 O16 2.502221 1_555
Na14 O130 2.526773 1_555
Na14 O126 2.658571 1_555
Na14 O58 2.876571 1_555
Na14 O25 2.952408 1_455
Na15 O88 2.379220 1_555
Na15 O87 2.390115 1_565
Na15 O17 2.430822 1_555
Na15 O131 2.551834 1_555
Na15 O127 2.638120 1_555
Na15 O59 2.870543 1_555
Na16 O84 2.381858 1_565
Na16 O88 2.404071 1_555
Na16 O12 2.422610 1_555
Na16 O126 2.539125 1_555
Na16 O128 2.628617 1_555
Na16 O54 2.883201 1_555
Na17 O85 2.433319 1_565
Na17 O89 2.437058 1_555
Na17 O13 2.470151 1_555
Na17 O127 2.522407 1_555
Na17 O129 2.663228 1_555
Na17 O55 2.912086 1_555
Na17 O27 2.955327 1_565
Na17 O47 3.019307 1_565
Na18 O90 2.349528 1_555
Na18 O92 2.432834 1_565
Na18 O18 2.497739 1_555
Na18 O120 2.499639 1_555
Na18 O124 2.580396 1_555
Na18 O48 2.882241 1_554
Na19 O91 2.345098 1_555
Na19 O93 2.437221 1_565
Na19 O19 2.471207 1_555
Na19 O121 2.499786 1_555
Na19 O125 2.577972 1_555
Na19 O49 2.841337 1_554
Na20 O94 2.349638 1_555
Na20 O93 2.377389 1_455
Na20 O20 2.467567 1_555
Na20 O122 2.493664 1_555
Na20 O120 2.643052 1_555
Na20 O50 2.842456 1_554
Na21 O95 2.358376 1_555
Na21 O92 2.366314 1_555
Na21 O123 2.497156 1_555
Na21 O21 2.505099 1_555
Na21 O121 2.666744 1_555
Na21 O51 2.846821 1_554
Na22 O108 2.473219 1_555
Na22 O81 2.473448 1_555
Na22 O110 2.530594 1_555
Na22 O82 2.621732 1_555
Na22 O8 2.708869 1_555
Na22 O38 2.768061 1_556
Na22 O67 2.796055 1_555
Na22 O53 2.902155 1_555
Na23 O80 2.482744 1_655
Na23 O111 2.500454 1_555
Na23 O109 2.550966 1_555
Na23 O83 2.675886 1_555
Na23 O9 2.751448 1_555
Na23 O66 2.764073 1_655
Na23 O39 2.774879 1_556
Na23 O52 2.830552 1_655
Na24 O82 2.453087 1_545
Na24 O112 2.496725 1_555
Na24 O110 2.541616 1_555
Na24 O79 2.602870 1_555
Na24 O10 2.711968 1_555
Na24 O40 2.801293 1_556
Na24 O68 2.811765 1_545
Na24 O48 2.888431 1_545
Na25 O83 2.504499 1_545
Na25 O113 2.505933 1_555
Na25 O111 2.538311 1_555
Na25 O78 2.600233 1_655
Na25 O11 2.731139 1_555
Na25 O69 2.742205 1_545
Na25 O41 2.806086 1_556
Na25 O49 2.910452 1_545
Na26 O79 2.444618 1_555
Na26 O113 2.548010 1_555
Na26 O109 2.571700 1_555
Na26 O81 2.606148 1_545
Na26 O7 2.689009 1_555
Na26 O37 2.800119 1_556
Na26 O71 2.802667 1_555
Na26 O51 2.902068 1_555
Na27 O77 2.476439 1_555
Na27 O114 2.501264 1_555
Na27 O118 2.504771 1_555
Na27 O74 2.677199 1_545
Na27 O4 2.746688 1_555
Na27 O61 2.776364 1_555
Na27 O46 2.776771 1_555
Na27 O57 2.861105 1_555
Na28 O116 2.454672 1_555
Na28 O74 2.487858 1_555
Na28 O118 2.550565 1_555
Na28 O73 2.608892 1_555
Na28 O64 2.716559 1_555
Na28 O2 2.719516 1_555
Na28 O44 2.802664 1_555
Na28 O54 2.902235 1_555
Na29 O117 2.448885 1_555
Na29 O75 2.452632 1_555
Na29 O119 2.476361 1_555
Na29 O72 2.570761 1_655
Na29 O3 2.715571 1_555
Na29 O45 2.760113 1_555
Na29 O65 2.800343 1_555
Na29 O55 2.927981 1_555
Na30 O86 2.440287 1_555
Na30 O89 2.464832 1_445
Na30 O85 2.487863 1_455
Na30 O76 2.632627 1_555
Na30 O72 2.644320 1_545
Na30 O75 2.672615 1_445
Na31 O87 2.343183 1_555
Na31 O84 2.413730 1_555
Na31 O88 2.426907 1_545
Na31 O73 2.653840 1_545
Na31 O77 2.678051 1_555
Na31 O74 2.737251 1_545
Na32 O94 2.299551 1_555
Na32 O91 2.404303 1_445
Na32 O93 2.468841 1_455
Na32 O80 2.680563 1_544
Na32 O78 2.721382 1_554
Na32 O83 2.790247 1_444
Na33 O95 2.365734 1_565
Na33 O90 2.399376 1_555
Na33 O92 2.452791 1_565
Na33 O81 2.646657 1_554
Na33 O79 2.697677 1_564
Na33 O82 2.715832 1_554
Na34 O108 2.535410 1_555
Na34 O112 2.571398 1_555
Na34 O110 2.573928 1_555
Na34 O100 2.574935 1_555
Na34 O96 2.592458 1_555
Na34 O98 2.640540 1_555
Na35 O99 2.508387 1_555
Na35 O97 2.511265 1_555
Na35 O101 2.532524 1_555
Na35 O109 2.625410 1_555
Na35 O113 2.626880 1_555
Na35 O111 2.644051 1_555
Na36 O102 2.549449 1_555
Na36 O104 2.558874 1_555
Na36 O114 2.563524 1_555
Na36 O106 2.605663 1_555
Na36 O116 2.606569 1_555
Na36 O118 2.627459 1_555
Na37 O115 2.509655 1_555
Na37 O119 2.546890 1_555
Na37 O105 2.552160 1_555
Na37 O117 2.610282 1_555
Na37 O103 2.623200 1_555
Na37 O107 2.693962 1_555
Na38 O134 2.437038 1_555
Na38 O136 2.465308 1_555
Na38 O122 2.623051 1_555
Na38 O120 2.632049 1_555
Na38 O124 2.638912 1_555
Na38 O132 2.646782 1_555
Na39 O135 2.424275 1_555
Na39 O137 2.463028 1_555
Na39 O125 2.624924 1_555
Na39 O121 2.636169 1_555
Na39 O123 2.642668 1_555
Na39 O133 2.662150 1_555
Na40 O142 2.396511 1_555
Na40 O140 2.426150 1_555
Na40 O126 2.597027 1_555
Na40 O130 2.657673 1_555
Na40 O128 2.672376 1_555
Na40 O138 2.675366 1_555
Na41 O143 2.403416 1_555
Na41 O139 2.415615 1_555
Na41 O141 2.427554 1_555
Na41 O131 2.712161 1_555
Na41 O129 2.738718 1_555
Na41 O127 2.747387 1_555
Mg0 O13 1.973426 1_555
Mg0 O16 1.987258 1_655
Mg0 O89 2.080229 1_555
Mg0 O86 2.130999 1_665
Mg0 O85 2.133723 1_565
Mg0 O14 2.218673 1_665
Mg1 O15 1.992537 1_565
Mg1 O17 1.997800 1_555
Mg1 O12 2.014654 1_555
Mg1 O88 2.176749 1_555
Mg1 O84 2.181361 1_565
Mg1 O87 2.185154 1_565
Mg2 O19 2.004807 1_545
Mg2 O20 2.006864 1_655
Mg2 O94 2.096112 1_655
Mg2 O91 2.116984 1_545
Mg2 O93 2.118810 1_555
Mg2 O22 2.155942 1_645
Mg3 O18 2.005364 1_545
Mg3 O21 2.010680 1_555
Mg3 O95 2.102317 1_555
Mg3 O90 2.106014 1_545
Mg3 O92 2.106876 1_555
Mg3 O23 2.161047 1_545
Mg4 O64 1.999600 1_555
Mg4 O60 2.016520 1_555
Mg4 O62 2.040174 1_555
Mg4 O136 2.119283 1_555
Mg4 O134 2.144476 1_555
Mg4 O132 2.339891 1_555
Mg5 O65 1.989055 1_555
Mg5 O63 2.019837 1_555
Mg5 O61 2.049280 1_555
Mg5 O137 2.125441 1_555
Mg5 O135 2.127410 1_555
Mg5 O133 2.330470 1_555
Mg6 O68 1.995335 1_555
Mg6 O70 2.020563 1_555
Mg6 O66 2.042176 1_555
Mg6 O142 2.119105 1_555
Mg6 O140 2.120064 1_555
Mg6 O138 2.341093 1_555
Mg7 O71 2.053945 1_555
Mg7 O67 2.057186 1_555
Mg7 O69 2.067420 1_555
Mg7 O141 2.108634 1_555
Mg7 O139 2.109258 1_555
Mg7 O143 2.123916 1_555
O0 S0 1.498904 1_555
O0 Ta0 2.255958 1_445
O1 S1 1.506910 1_555
O1 Ta1 2.195157 1_545
O2 Si0 1.716565 1_555
O2 Ta1 1.958750 1_555
O3 Si1 1.699448 1_555
O3 Ta0 1.989366 1_555
O4 Si3 1.713679 1_555
O4 Ta1 1.956410 1_545
O5 Si2 1.702582 1_655
O5 Ta0 1.935888 1_545
O6 S2 1.506372 1_555
O6 Ta2 2.196655 1_445
O7 Si4 1.715038 1_555
O7 Ta3 1.952927 1_545
O8 Si6 1.706755 1_555
O8 Ta3 1.958514 1_555
O9 Si5 1.718566 1_655
O9 Ta2 1.952432 1_555
O10 Si7 1.706251 1_545
O10 Ta3 1.958719 1_545
O11 Si8 1.717771 1_545
O11 Ta2 1.943600 1_545
O12 Si7 1.590761 1_555
O13 Si8 1.590179 1_555
O14 S2 1.442920 1_555
O15 Si4 1.592156 1_555
O16 Si5 1.593314 1_555
O17 Si6 1.589630 1_555
O18 Si0 1.590859 1_555
O19 Si1 1.592776 1_555
O20 Si2 1.593669 1_555
O21 Si3 1.592108 1_555
O22 S0 1.461456 1_565
O23 S1 1.466839 1_565
O24 Si9 1.696241 1_555
O24 Ta4 1.889048 1_555
O25 Si10 1.666945 1_555
O25 Ta5 1.985673 1_555
O26 Si11 1.674542 1_555
O26 Ta4 1.964436 1_555
O27 Si12 1.673879 1_555
O27 Ta5 1.966213 1_555
O28 Si13 1.679434 1_555
O28 Ta4 1.968746 1_555
O29 Si14 1.670573 1_555
O29 Ta5 1.972369 1_555
O30 Si15 1.702989 1_555
O30 Ta6 1.896783 1_555
O31 Si16 1.701457 1_555
O31 Ta7 1.892690 1_555
O32 Si17 1.674061 1_555
O32 Ta6 1.943147 1_555
O33 Si18 1.664495 1_555
O33 Ta7 1.955865 1_555
O34 Si19 1.682014 1_555
O34 Ta6 1.947493 1_555
O35 Si20 1.675874 1_555
O35 Ta7 1.957015 1_555
O36 Si19 1.643950 1_555
O36 Ta8 1.893740 1_554
O37 Si20 1.654131 1_555
O37 Ta9 1.926730 1_554
O38 Si15 1.643099 1_555
O38 Ta8 1.968595 1_554
O39 Si16 1.656957 1_555
O39 Ta9 1.942794 1_554
O40 Si17 1.643172 1_555
O40 Ta8 1.951853 1_554
O41 Si18 1.655013 1_555
O41 Ta9 1.921161 1_554
O42 Si11 1.643128 1_555
O42 Ta10 1.918087 1_555
O43 Si12 1.633262 1_555
O43 Ta11 1.936485 1_555
O44 Si13 1.645734 1_555
O44 Ta10 1.954524 1_555
O45 Si14 1.633077 1_555
O45 Ta11 1.984255 1_555
O46 Si9 1.631452 1_555
O46 Ta10 1.969507 1_555
O47 Si10 1.635394 1_555
O47 Ta11 1.938964 1_555
O48 Si21 1.676032 1_555
O48 Ta12 1.974239 1_556
O49 Si22 1.657380 1_555
O49 Ta13 2.003185 1_556
O50 Si23 1.657317 1_555
O50 Ta12 1.973911 1_556
O51 Si24 1.676873 1_555
O51 Ta13 1.982363 1_556
O52 Si25 1.672759 1_555
O52 Ta12 1.960958 1_556
O53 Si26 1.674557 1_555
O53 Ta13 1.944386 1_556
O54 Si27 1.671746 1_555
O54 Ta14 1.977158 1_555
O55 Si28 1.680286 1_555
O55 Ta15 1.950118 1_555
O56 Si29 1.683881 1_555
O56 Ta14 1.952833 1_555
O57 Si30 1.687173 1_555
O57 Ta15 1.980386 1_555
O58 Si31 1.688053 1_555
O58 Ta14 1.919813 1_555
O59 Si32 1.667561 1_555
O59 Ta15 1.950644 1_555
O60 Si31 1.576098 1_555
O61 Si32 1.588022 1_555
O62 Si27 1.571193 1_555
O63 Si28 1.576062 1_555
O64 Si29 1.587072 1_555
O65 Si30 1.588995 1_555
O66 Si23 1.592148 1_555
O67 Si24 1.586359 1_555
O68 Si25 1.590260 1_555
O69 Si26 1.585799 1_555
O70 Si21 1.585691 1_555
O71 Si22 1.575881 1_555
O72 Si31 1.670851 1_555
O72 Ta0 2.016707 1_455
O73 Si32 1.657561 1_555
O73 Ta1 2.007344 1_555
O74 Si27 1.707319 1_555
O74 Ta1 1.955875 1_555
O75 Si28 1.693483 1_555
O75 Ta0 1.933477 1_555
O76 Si29 1.643589 1_555
O76 Ta0 1.987482 1_445
O77 Si30 1.663826 1_555
O77 Ta1 2.014177 1_545
O78 Si23 1.659593 1_555
O78 Ta2 2.005340 1_445
O79 Si24 1.668840 1_555
O79 Ta3 2.069979 1_545
O80 Si25 1.660691 1_555
O80 Ta2 2.011314 1_455
O81 Si26 1.659051 1_555
O81 Ta3 2.082264 1_555
O82 Si21 1.683893 1_555
O82 Ta3 2.053273 1_555
O83 Si22 1.684900 1_555
O83 Ta2 1.956026 1_555
O84 Si9 1.588200 1_555
O85 Si10 1.597509 1_555
O86 Si11 1.593061 1_555
O87 Si12 1.594410 1_555
O88 Si13 1.593876 1_555
O89 Si14 1.601075 1_555
O90 Si15 1.577169 1_555
O91 Si16 1.575141 1_555
O92 Si17 1.598510 1_555
O93 Si18 1.594549 1_555
O94 Si19 1.576595 1_555
O95 Si20 1.579956 1_555
O96 Si7 1.709290 1_545
O96 Ta4 2.007236 1_555
O97 Si8 1.689213 1_545
O97 Ta5 2.027631 1_555
O98 S2 1.522140 1_555
O98 Ta4 2.283241 1_555
O99 Si4 1.691948 1_555
O99 Ta5 2.011785 1_555
O100 Si6 1.716802 1_555
O100 Ta4 1.995649 1_555
O101 Si5 1.683266 1_655
O101 Ta5 2.042141 1_555
O102 Si0 1.707618 1_555
O102 Ta6 2.037180 1_555
O103 Si1 1.715397 1_555
O103 Ta7 2.016502 1_555
O104 Si3 1.705783 1_555
O104 Ta6 2.033656 1_555
O105 Si2 1.712046 1_655
O105 Ta7 2.017120 1_555
O106 S0 1.532948 1_555
O106 Ta6 2.248921 1_555
O107 S1 1.517981 1_555
O107 Ta7 2.276154 1_555
O108 Si21 1.655511 1_555
O108 Ta8 2.008138 1_555
O109 Si22 1.657016 1_555
O109 Ta9 2.034494 1_555
O110 Si24 1.656292 1_555
O110 Ta8 2.058751 1_555
O111 Si23 1.683242 1_655
O111 Ta9 2.034047 1_555
O112 Si25 1.644819 1_545
O112 Ta8 1.986546 1_555
O113 Si26 1.668874 1_545
O113 Ta9 2.022154 1_555
O114 Si27 1.648795 1_545
O114 Ta10 2.012384 1_555
O115 Si28 1.633346 1_545
O115 Ta11 1.970666 1_555
O116 Si29 1.669272 1_555
O116 Ta10 1.962550 1_555
O117 Si30 1.638486 1_555
O117 Ta11 2.010838 1_555
O118 Si32 1.673645 1_555
O118 Ta10 2.041341 1_555
O119 Si31 1.662634 1_655
O119 Ta11 2.011809 1_555
O120 Si19 1.668654 1_555
O120 Ta12 2.056624 1_555
O121 Si20 1.670303 1_555
O121 Ta13 2.051786 1_555
O122 Si16 1.640786 1_455
O122 Ta12 2.038373 1_555
O123 Si15 1.650128 1_555
O123 Ta13 2.012895 1_555
O124 Si17 1.649449 1_565
O124 Ta12 2.010389 1_555
O125 Si18 1.647531 1_565
O125 Ta13 2.007371 1_555
O126 Si11 1.653213 1_565
O126 Ta14 2.076159 1_555
O127 Si12 1.664469 1_565
O127 Ta15 2.036643 1_555
O128 Si13 1.655614 1_555
O128 Ta14 2.077391 1_555
O129 Si14 1.661514 1_555
O129 Ta15 2.037624 1_555
O130 Si10 1.664588 1_455
O130 Ta14 2.037095 1_555
O131 Si9 1.644826 1_555
O131 Ta15 2.052184 1_555
O132 S0 1.469764 1_565
O133 S1 1.471759 1_565
O134 Si0 1.612433 1_555
O135 Si1 1.618861 1_555
O136 Si2 1.614418 1_555
O137 Si3 1.615739 1_555
O138 S2 1.483753 1_555
O139 Si4 1.603275 1_555
O140 Si5 1.618237 1_555
O141 Si6 1.600371 1_555
O142 Si7 1.614392 1_555
O143 Si8 1.602608 1_555
