# generated using pymatgen
data_Li(MoO3)3
_symmetry_space_group_name_H-M   'P 1'
_cell_length_a   7.58790603
_cell_length_b   13.46020463
_cell_length_c   16.01815177
_cell_angle_alpha   103.28965804
_cell_angle_beta   96.67261256
_cell_angle_gamma   106.93006620
_symmetry_Int_Tables_number   1
_chemical_formula_structural   Li(MoO3)3
_chemical_formula_sum   'Li8 Mo24 O72'
_cell_volume   1493.43638405
_cell_formula_units_Z   8
loop_
 _symmetry_equiv_pos_site_id
 _symmetry_equiv_pos_as_xyz
  1  'x, y, z'
loop_
 _atom_site_type_symbol
 _atom_site_label
 _atom_site_symmetry_multiplicity
 _atom_site_fract_x
 _atom_site_fract_y
 _atom_site_fract_z
 _atom_site_occupancy
  Li  Li0  1  0.76233463  0.97786786  0.59262127  1
  Li  Li1  1  0.23766537  0.02213214  0.40737873  1
  Li  Li2  1  0.14307617  0.44775678  0.13537490  1
  Li  Li3  1  0.85692383  0.55224322  0.86462510  1
  Li  Li4  1  0.53075420  0.85685957  0.86801203  1
  Li  Li5  1  0.46924580  0.14314043  0.13198797  1
  Li  Li6  1  0.39364772  0.23942349  0.59809793  1
  Li  Li7  1  0.60635228  0.76057651  0.40190207  1
  Mo  Mo0  1  0.39362129  0.57826469  0.89559632  1
  Mo  Mo1  1  0.60637871  0.42173531  0.10440368  1
  Mo  Mo2  1  0.02067801  0.35988009  0.88432138  1
  Mo  Mo3  1  0.97932199  0.64011991  0.11567862  1
  Mo  Mo4  1  0.01837238  0.85075585  0.89566985  1
  Mo  Mo5  1  0.98162762  0.14924415  0.10433015  1
  Mo  Mo6  1  0.38087077  0.05974227  0.88114812  1
  Mo  Mo7  1  0.61912923  0.94025773  0.11885188  1
  Mo  Mo8  1  0.13744945  0.94463681  0.16333055  1
  Mo  Mo9  1  0.86255055  0.05536319  0.83666945  1
  Mo  Mo10  1  0.49878508  0.66594554  0.16196152  1
  Mo  Mo11  1  0.50121492  0.33405446  0.83803848  1
  Mo  Mo12  1  0.40579267  0.76208172  0.60157193  1
  Mo  Mo13  1  0.59420733  0.23791828  0.39842807  1
  Mo  Mo14  1  0.25336409  0.96002023  0.59813576  1
  Mo  Mo15  1  0.74663591  0.03997977  0.40186424  1
  Mo  Mo16  1  0.88931636  0.75466259  0.59397325  1
  Mo  Mo17  1  0.11068364  0.24533741  0.40602675  1
  Mo  Mo18  1  0.75824652  0.46383560  0.60317849  1
  Mo  Mo19  1  0.24175348  0.53616440  0.39682151  1
  Mo  Mo20  1  0.90999568  0.26542055  0.59825377  1
  Mo  Mo21  1  0.09000432  0.73457945  0.40174623  1
  Mo  Mo22  1  0.26964786  0.46950627  0.59601393  1
  Mo  Mo23  1  0.73035214  0.53049373  0.40398607  1
  O  O0  1  0.77355658  0.38383911  0.85513505  1
  O  O1  1  0.22644342  0.61616089  0.14486495  1
  O  O2  1  0.55600591  0.50590549  0.85921328  1
  O  O3  1  0.44399409  0.49409451  0.14078672  1
  O  O4  1  0.48194151  0.20013667  0.85157755  1
  O  O5  1  0.51805849  0.79986333  0.14842245  1
  O  O6  1  0.56570206  0.39084062  0.98915934  1
  O  O7  1  0.43429794  0.60915938  0.01084066  1
  O  O8  1  0.32450308  0.51980410  0.70720689  1
  O  O9  1  0.67549692  0.48019590  0.29279311  1
  O  O10  1  0.13346318  0.50568373  0.85951135  1
  O  O11  1  0.86653682  0.49431627  0.14048865  1
  O  O12  1  0.95500975  0.29572511  0.71070711  1
  O  O13  1  0.04499025  0.70427489  0.28929289  1
  O  O14  1  0.89410553  0.19948538  0.85284783  1
  O  O15  1  0.10589447  0.80051462  0.14715217  1
  O  O16  1  0.07290582  0.89910385  0.01084764  1
  O  O17  1  0.92709418  0.10089615  0.98915236  1
  O  O18  1  0.93502330  0.77829866  0.70464335  1
  O  O19  1  0.06497670  0.22170134  0.29535665  1
  O  O20  1  0.39496867  0.98373918  0.14575698  1
  O  O21  1  0.60503133  0.01626082  0.85424302  1
  O  O22  1  0.87896051  0.93163614  0.14292283  1
  O  O23  1  0.12103949  0.06836386  0.85707717  1
  O  O24  1  0.18376786  0.98931456  0.27729367  1
  O  O25  1  0.81623214  0.01068544  0.72270633  1
  O  O26  1  0.17429195  0.10253478  0.14300936  1
  O  O27  1  0.82570805  0.89746522  0.85699064  1
  O  O28  1  0.93948324  0.71021417  0.86823260  1
  O  O29  1  0.06051676  0.28978583  0.13176740  1
  O  O30  1  0.75192551  0.10258396  0.14042202  1
  O  O31  1  0.24807449  0.89741604  0.85957798  1
  O  O32  1  0.30124742  0.00336996  0.71174260  1
  O  O33  1  0.69875258  0.99663004  0.28825740  1
  O  O34  1  0.56565958  0.89847185  0.00674411  1
  O  O35  1  0.43434042  0.10152815  0.99325589  1
  O  O36  1  0.45169261  0.30339814  0.72388446  1
  O  O37  1  0.54830739  0.69660186  0.27611554  1
  O  O38  1  0.74043396  0.66525682  0.14128087  1
  O  O39  1  0.25956604  0.33474318  0.85871913  1
  O  O40  1  0.55042217  0.29974189  0.13141235  1
  O  O41  1  0.44957783  0.70025811  0.86858765  1
  O  O42  1  0.06127416  0.39539822  0.99625187  1
  O  O43  1  0.93872584  0.60460178  0.00374813  1
  O  O44  1  0.51101779  0.55191974  0.42734305  1
  O  O45  1  0.48898221  0.44808026  0.57265695  1
  O  O46  1  0.00795138  0.57105224  0.41422796  1
  O  O47  1  0.99204862  0.42894776  0.58577204  1
  O  O48  1  0.17081221  0.40020988  0.44006277  1
  O  O49  1  0.82918779  0.59979012  0.55993723  1
  O  O50  1  0.29458719  0.59417630  0.55705659  1
  O  O51  1  0.70541281  0.40582370  0.44294341  1
  O  O52  1  0.83754508  0.70106220  0.42984674  1
  O  O53  1  0.16245492  0.29893780  0.57015326  1
  O  O54  1  0.46820221  0.90994790  0.58439511  1
  O  O55  1  0.53179779  0.09005210  0.41560489  1
  O  O56  1  0.67504212  0.29722424  0.57277644  1
  O  O57  1  0.32495788  0.70277576  0.42722356  1
  O  O58  1  0.14873916  0.77236237  0.56586508  1
  O  O59  1  0.85126084  0.22763763  0.43413492  1
  O  O60  1  0.82566943  0.12103336  0.55966326  1
  O  O61  1  0.17433057  0.87896664  0.44033674  1
  O  O62  1  0.44208067  0.78145867  0.71169719  1
  O  O63  1  0.55791933  0.21854133  0.28830281  1
  O  O64  1  0.64749084  0.75802144  0.56688096  1
  O  O65  1  0.35250916  0.24197856  0.43311904  1
  O  O66  1  0.97985134  0.90492609  0.58135400  1
  O  O67  1  0.02014866  0.09507391  0.41864600  1
  O  O68  1  0.30443253  0.07853810  0.56346635  1
  O  O69  1  0.69556747  0.92146190  0.43653365  1
  O  O70  1  0.19776436  0.48498254  0.28599015  1
  O  O71  1  0.80223564  0.51501746  0.71400985  1
loop_
_geom_bond_atom_site_label_1
_geom_bond_atom_site_label_2
_geom_bond_distance
_geom_bond_site_symmetry_2
Li0 O25 1.994456 1_565
Li0 O60 2.051937 1_565
Li0 O54 2.126555 1_555
Li0 O66 2.156897 1_555
Li0 O69 2.386036 1_555
Li1 O24 1.994456 1_545
Li1 O61 2.051937 1_545
Li1 O55 2.126555 1_555
Li1 O67 2.156897 1_555
Li1 O68 2.386036 1_555
Li2 O29 2.018993 1_555
Li2 O1 2.132031 1_555
Li2 O42 2.133040 1_554
Li2 O3 2.170223 1_555
Li2 O70 2.309604 1_555
Li2 O11 2.363216 1_455
Li3 O28 2.018993 1_555
Li3 O0 2.132031 1_555
Li3 O43 2.133040 1_556
Li3 O2 2.170223 1_555
Li3 O71 2.309604 1_555
Li3 O10 2.363216 1_655
Li4 O41 2.019097 1_555
Li4 O21 2.124134 1_565
Li4 O34 2.127618 1_556
Li4 O27 2.182352 1_555
Li4 O31 2.359147 1_555
Li4 O62 2.407199 1_555
Li5 O40 2.019097 1_555
Li5 O20 2.124134 1_545
Li5 O35 2.127618 1_554
Li5 O26 2.182352 1_555
Li5 O30 2.359147 1_555
Li5 O63 2.407199 1_555
Li6 O36 1.941751 1_555
Li6 O68 1.990537 1_555
Li6 O56 2.169726 1_555
Li6 O53 2.172643 1_555
Li7 O37 1.941751 1_555
Li7 O69 1.990537 1_555
Li7 O57 2.169726 1_555
Li7 O52 2.172643 1_555
Mo0 O41 1.739837 1_555
Mo0 O7 1.765170 1_556
Mo0 O2 1.846979 1_555
Mo0 O10 1.880808 1_555
Mo1 O40 1.739837 1_555
Mo1 O6 1.765170 1_554
Mo1 O3 1.846979 1_555
Mo1 O11 1.880808 1_555
Mo2 O42 1.711670 1_555
Mo2 O14 2.004263 1_455
Mo2 O39 2.008620 1_555
Mo2 O0 2.014071 1_455
Mo2 O10 2.049720 1_555
Mo3 O43 1.711670 1_555
Mo3 O15 2.004263 1_655
Mo3 O38 2.008620 1_555
Mo3 O1 2.014071 1_655
Mo3 O11 2.049720 1_555
Mo4 O28 1.739885 1_455
Mo4 O16 1.764166 1_556
Mo4 O27 1.849396 1_455
Mo4 O31 1.878866 1_555
Mo5 O29 1.739885 1_655
Mo5 O17 1.764166 1_554
Mo5 O26 1.849396 1_655
Mo5 O30 1.878866 1_555
Mo6 O35 1.714390 1_555
Mo6 O23 2.006591 1_555
Mo6 O4 2.008856 1_555
Mo6 O21 2.013837 1_555
Mo6 O31 2.049016 1_545
Mo7 O34 1.714390 1_555
Mo7 O22 2.006591 1_555
Mo7 O5 2.008856 1_555
Mo7 O20 2.013837 1_555
Mo7 O30 2.049016 1_565
Mo8 O24 1.743743 1_555
Mo8 O15 1.836216 1_555
Mo8 O22 1.899824 1_455
Mo8 O20 1.942025 1_555
Mo8 O26 2.166643 1_565
Mo8 O16 2.332430 1_555
Mo9 O25 1.743743 1_555
Mo9 O14 1.836216 1_555
Mo9 O23 1.899824 1_655
Mo9 O21 1.942025 1_555
Mo9 O27 2.166643 1_545
Mo9 O17 2.332430 1_555
Mo10 O37 1.748754 1_555
Mo10 O5 1.830631 1_555
Mo10 O38 1.903048 1_555
Mo10 O1 1.942185 1_555
Mo10 O3 2.164481 1_555
Mo10 O7 2.310758 1_555
Mo11 O36 1.748754 1_555
Mo11 O4 1.830631 1_555
Mo11 O39 1.903048 1_555
Mo11 O0 1.942185 1_555
Mo11 O2 2.164481 1_555
Mo11 O6 2.310758 1_555
Mo12 O62 1.699801 1_555
Mo12 O64 1.989099 1_555
Mo12 O54 1.998599 1_555
Mo12 O58 2.021152 1_555
Mo12 O50 2.082509 1_555
Mo13 O63 1.699801 1_555
Mo13 O65 1.989099 1_555
Mo13 O55 1.998599 1_555
Mo13 O59 2.021152 1_555
Mo13 O51 2.082509 1_555
Mo14 O32 1.737454 1_565
Mo14 O68 1.760893 1_565
Mo14 O66 1.952377 1_455
Mo14 O54 1.953263 1_555
Mo14 O58 2.326831 1_555
Mo14 O61 2.436755 1_555
Mo15 O33 1.737454 1_545
Mo15 O69 1.760893 1_545
Mo15 O67 1.952377 1_655
Mo15 O55 1.953263 1_555
Mo15 O59 2.326831 1_555
Mo15 O60 2.436755 1_555
Mo16 O18 1.702246 1_555
Mo16 O64 1.851943 1_555
Mo16 O49 1.927893 1_555
Mo16 O66 2.003650 1_555
Mo16 O58 2.028921 1_655
Mo16 O52 2.511852 1_555
Mo17 O19 1.702246 1_555
Mo17 O65 1.851943 1_555
Mo17 O48 1.927893 1_555
Mo17 O67 2.003650 1_555
Mo17 O59 2.028921 1_455
Mo17 O53 2.511852 1_555
Mo18 O71 1.704063 1_555
Mo18 O45 1.981492 1_555
Mo18 O47 1.996381 1_555
Mo18 O49 2.052805 1_555
Mo18 O56 2.065658 1_555
Mo18 O51 2.452627 1_555
Mo19 O70 1.704063 1_555
Mo19 O44 1.981492 1_555
Mo19 O46 1.996381 1_555
Mo19 O48 2.052805 1_555
Mo19 O57 2.065658 1_555
Mo19 O50 2.452627 1_555
Mo20 O12 1.722146 1_555
Mo20 O60 1.788896 1_555
Mo20 O53 1.966268 1_655
Mo20 O56 1.970768 1_555
Mo20 O47 2.169240 1_555
Mo20 O59 2.519788 1_555
Mo21 O13 1.722146 1_555
Mo21 O61 1.788896 1_555
Mo21 O52 1.966268 1_455
Mo21 O57 1.970768 1_555
Mo21 O46 2.169240 1_555
Mo21 O58 2.519788 1_555
Mo22 O8 1.706796 1_555
Mo22 O45 1.835115 1_555
Mo22 O50 1.888150 1_555
Mo22 O47 1.992647 1_455
Mo22 O53 2.121586 1_555
Mo22 O48 2.399727 1_555
Mo23 O9 1.706796 1_555
Mo23 O44 1.835115 1_555
Mo23 O51 1.888150 1_555
Mo23 O46 1.992647 1_655
Mo23 O52 2.121586 1_555
Mo23 O49 2.399727 1_555
