# generated using pymatgen
data_Na4Ge2Te5
_symmetry_space_group_name_H-M   'P 1'
_cell_length_a   7.94659431
_cell_length_b   9.62234048
_cell_length_c   10.70674134
_cell_angle_alpha   68.66466502
_cell_angle_beta   70.80855732
_cell_angle_gamma   68.01314188
_symmetry_Int_Tables_number   1
_chemical_formula_structural   Na4Ge2Te5
_chemical_formula_sum   'Na8 Ge4 Te10'
_cell_volume   689.33129598
_cell_formula_units_Z   2
loop_
 _symmetry_equiv_pos_site_id
 _symmetry_equiv_pos_as_xyz
  1  'x, y, z'
loop_
 _atom_site_type_symbol
 _atom_site_label
 _atom_site_symmetry_multiplicity
 _atom_site_fract_x
 _atom_site_fract_y
 _atom_site_fract_z
 _atom_site_occupancy
  Na  Na0  1  0.27014058  0.43975914  0.42655741  1
  Na  Na1  1  0.72985942  0.56024086  0.57344259  1
  Na  Na2  1  0.87258590  0.36823937  0.18878690  1
  Na  Na3  1  0.12741410  0.63176063  0.81121310  1
  Na  Na4  1  0.67913636  0.04779871  0.58555814  1
  Na  Na5  1  0.32086364  0.95220129  0.41444186  1
  Na  Na6  1  0.46358481  0.73633474  0.01933209  1
  Na  Na7  1  0.53641519  0.26366526  0.98066791  1
  Ge  Ge0  1  0.89524872  0.76262700  0.14457844  1
  Ge  Ge1  1  0.10475128  0.23737300  0.85542156  1
  Ge  Ge2  1  0.91487230  0.94019293  0.25371004  1
  Ge  Ge3  1  0.08512770  0.05980707  0.74628996  1
  Te  Te0  1  0.81048644  0.46916980  0.87324140  1
  Te  Te1  1  0.18951356  0.53083020  0.12675860  1
  Te  Te2  1  0.39492169  0.84380082  0.71917749  1
  Te  Te3  1  0.60507831  0.15619918  0.28082251  1
  Te  Te4  1  0.98685524  0.23127659  0.52046375  1
  Te  Te5  1  0.01314476  0.76872341  0.47953625  1
  Te  Te6  1  0.39462040  0.32876381  0.71452634  1
  Te  Te7  1  0.60537960  0.67123619  0.28547366  1
  Te  Te8  1  0.80575876  0.94204532  0.90633364  1
  Te  Te9  1  0.19424124  0.05795468  0.09366636  1
loop_
_geom_bond_atom_site_label_1
_geom_bond_atom_site_label_2
_geom_bond_distance
_geom_bond_site_symmetry_2
Na0 Te5 3.196349 1_555
Na0 Te1 3.219721 1_555
Na0 Te6 3.231609 1_555
Na0 Te4 3.244811 1_455
Na0 Te3 3.448660 1_555
Na0 Te7 3.699865 1_555
Na1 Te4 3.196349 1_555
Na1 Te0 3.219721 1_555
Na1 Te7 3.231609 1_555
Na1 Te5 3.244811 1_655
Na1 Te2 3.448660 1_555
Na1 Te6 3.699865 1_555
Na2 Te3 3.171810 1_555
Na2 Te7 3.193144 1_555
Na2 Te1 3.213446 1_655
Na2 Te0 3.309150 1_554
Na2 Te9 3.357313 1_655
Na2 Te4 3.604271 1_555
Na3 Te2 3.171810 1_555
Na3 Te6 3.193144 1_555
Na3 Te0 3.213446 1_455
Na3 Te1 3.309150 1_556
Na3 Te8 3.357313 1_455
Na3 Te5 3.604271 1_555
Na4 Te2 3.186337 1_545
Na4 Te3 3.225847 1_555
Na4 Te6 3.227157 1_555
Na4 Te5 3.231847 1_645
Na4 Te4 3.286198 1_555
Na4 Te8 3.578513 1_545
Na5 Te3 3.186337 1_565
Na5 Te2 3.225847 1_555
Na5 Te7 3.227157 1_555
Na5 Te4 3.231847 1_465
Na5 Te5 3.286198 1_555
Na5 Te9 3.578513 1_565
Na6 Te1 3.146342 1_555
Na6 Te2 3.163383 1_554
Na6 Te7 3.172592 1_555
Na6 Te9 3.241047 1_565
Na6 Te0 3.382198 1_554
Na6 Te8 3.591685 1_554
Na7 Te0 3.146342 1_555
Na7 Te3 3.163383 1_556
Na7 Te6 3.172592 1_555
Na7 Te8 3.241047 1_545
Na7 Te1 3.382198 1_556
Na7 Te9 3.591685 1_556
Ge0 Ge2 2.465943 1_555
Ge0 Te1 2.567151 1_655
Ge0 Te7 2.573310 1_555
Ge0 Te8 2.657412 1_554
Ge1 Ge3 2.465943 1_555
Ge1 Te0 2.567151 1_455
Ge1 Te6 2.573310 1_555
Ge1 Te9 2.657412 1_556
Ge2 Te5 2.559679 1_655
Ge2 Te3 2.569561 1_565
Ge2 Te9 2.668062 1_665
Ge3 Te4 2.559679 1_455
Ge3 Te2 2.569561 1_545
Ge3 Te8 2.668062 1_445
