# generated using pymatgen
data_Na4Mg(NiO2)5
_symmetry_space_group_name_H-M   'P 1'
_cell_length_a   5.18549267
_cell_length_b   5.50759510
_cell_length_c   8.22801581
_cell_angle_alpha   112.78179138
_cell_angle_beta   103.17648492
_cell_angle_gamma   98.39435566
_symmetry_Int_Tables_number   1
_chemical_formula_structural   Na4Mg(NiO2)5
_chemical_formula_sum   'Na4 Mg1 Ni5 O10'
_cell_volume   203.64370679
_cell_formula_units_Z   1
loop_
 _symmetry_equiv_pos_site_id
 _symmetry_equiv_pos_as_xyz
  1  'x, y, z'
loop_
 _atom_site_type_symbol
 _atom_site_label
 _atom_site_symmetry_multiplicity
 _atom_site_fract_x
 _atom_site_fract_y
 _atom_site_fract_z
 _atom_site_occupancy
  Na  Na0  1  0.77720547  0.70708207  0.71083289  1
  Na  Na1  1  0.57161308  0.29565321  0.29791161  1
  Na  Na2  1  0.38475491  0.90238414  0.91100596  1
  Na  Na3  1  0.98397783  0.10213667  0.10378473  1
  Mg  Mg0  1  0.17361349  0.49657917  0.50733134  1
  Ni  Ni0  1  0.81803271  0.11441589  0.60186667  1
  Ni  Ni1  1  0.41637328  0.30912325  0.79831958  1
  Ni  Ni2  1  0.61805017  0.70526506  0.20402365  1
  Ni  Ni3  1  0.21443553  0.90827857  0.40493361  1
  Ni  Ni4  1  0.02094012  0.51089212  0.00375018  1
  O  O0  1  0.91439928  0.07621009  0.37390207  1
  O  O1  1  0.71519633  0.67055242  0.96988977  1
  O  O2  1  0.96686604  0.55242688  0.27628447  1
  O  O3  1  0.75928689  0.16195221  0.83855081  1
  O  O4  1  0.45801268  0.26802252  0.53983578  1
  O  O5  1  0.51614229  0.75925075  0.45248466  1
  O  O6  1  0.27725760  0.86344461  0.17225202  1
  O  O7  1  0.09049671  0.46900689  0.73608322  1
  O  O8  1  0.32251430  0.34523829  0.03672623  1
  O  O9  1  0.15083128  0.91750218  0.62504576  1
loop_
_geom_bond_atom_site_label_1
_geom_bond_atom_site_label_2
_geom_bond_distance
_geom_bond_site_symmetry_2
Na0 O7 2.254049 1_655
Na0 O1 2.304986 1_555
Na0 O3 2.337264 1_565
Na0 O4 2.387778 1_555
Na0 O5 2.389223 1_555
Na0 O9 2.489252 1_655
Na1 O4 2.252884 1_555
Na1 O6 2.319240 1_545
Na1 O8 2.377687 1_555
Na1 O0 2.391028 1_555
Na1 O2 2.397355 1_555
Na1 O5 2.466977 1_555
Na2 O7 2.317721 1_555
Na2 O1 2.353833 1_555
Na2 O8 2.356125 1_566
Na2 O6 2.417769 1_556
Na2 O9 2.427844 1_555
Na2 O3 2.558960 1_565
Na3 O1 2.260755 1_544
Na3 O6 2.263870 1_645
Na3 O8 2.346543 1_655
Na3 O2 2.359768 1_555
Na3 O0 2.384643 1_555
Na3 O3 2.395483 1_554
Mg0 O7 2.079299 1_555
Mg0 O4 2.110430 1_555
Mg0 O2 2.116118 1_455
Mg0 O9 2.172477 1_555
Mg0 O0 2.196004 1_455
Mg0 O5 2.360545 1_555
Ni0 O7 1.960235 1_655
Ni0 O3 1.962843 1_555
Ni0 O0 1.991124 1_555
Ni0 O5 2.038246 1_545
Ni0 O9 2.178823 1_645
Ni0 O4 2.196042 1_555
Ni1 O1 2.069374 1_555
Ni1 O7 2.069381 1_555
Ni1 O8 2.070200 1_556
Ni1 O3 2.070931 1_555
Ni1 O9 2.106468 1_545
Ni1 O4 2.114702 1_555
Ni2 O1 2.046185 1_554
Ni2 O8 2.052410 1_555
Ni2 O6 2.089375 1_555
Ni2 O0 2.093248 1_565
Ni2 O5 2.148171 1_555
Ni2 O2 2.162321 1_555
Ni3 O9 1.896671 1_555
Ni3 O5 1.902362 1_555
Ni3 O2 1.910210 1_455
Ni3 O4 1.918338 1_565
Ni3 O0 1.939892 1_465
Ni3 O6 1.942715 1_555
Ni4 O3 1.938227 1_454
Ni4 O1 1.939037 1_454
Ni4 O8 1.940709 1_555
Ni4 O6 1.944368 1_555
Ni4 O7 2.242034 1_554
Ni4 O2 2.251113 1_455
