# generated using pymatgen
data_Eu2Si3Pd
_symmetry_space_group_name_H-M   'P 1'
_cell_length_a   8.29439178
_cell_length_b   8.29443379
_cell_length_c   4.34583618
_cell_angle_alpha   90.00000000
_cell_angle_beta   90.00000000
_cell_angle_gamma   120.00015937
_symmetry_Int_Tables_number   1
_chemical_formula_structural   Eu2Si3Pd
_chemical_formula_sum   'Eu4 Si6 Pd2'
_cell_volume   258.92535194
_cell_formula_units_Z   2
loop_
 _symmetry_equiv_pos_site_id
 _symmetry_equiv_pos_as_xyz
  1  'x, y, z'
loop_
 _atom_site_type_symbol
 _atom_site_label
 _atom_site_symmetry_multiplicity
 _atom_site_fract_x
 _atom_site_fract_y
 _atom_site_fract_z
 _atom_site_occupancy
  Eu  Eu0  1  0.50000000  0.50000000  -0.00000000  1
  Eu  Eu1  1  -0.00000000  0.50000000  -0.00000000  1
  Eu  Eu2  1  0.50000000  -0.00000000  -0.00000000  1
  Eu  Eu3  1  -0.00000000  -0.00000000  -0.00000000  1
  Si  Si0  1  0.83562785  0.67132230  0.50000000  1
  Si  Si1  1  0.16437215  0.83569646  0.50000000  1
  Si  Si2  1  0.67129447  0.83564824  0.50000000  1
  Si  Si3  1  0.16437215  0.32867770  0.50000000  1
  Si  Si4  1  0.83562785  0.16430354  0.50000000  1
  Si  Si5  1  0.32870553  0.16435176  0.50000000  1
  Pd  Pd0  1  0.33337747  0.66668924  0.50000000  1
  Pd  Pd1  1  0.66662253  0.33331076  0.50000000  1
loop_
_geom_bond_atom_site_label_1
_geom_bond_atom_site_label_2
_geom_bond_distance
_geom_bond_site_symmetry_2
Eu0 Pd0 3.233256 1_555
Eu0 Pd0 3.233256 1_554
Eu0 Pd1 3.233256 1_555
Eu0 Pd1 3.233256 1_554
Eu0 Si0 3.245717 1_554
Eu0 Si0 3.245717 1_555
Eu0 Si3 3.245717 1_555
Eu0 Si3 3.245717 1_554
Eu0 Si5 3.245832 1_554
Eu0 Si5 3.245832 1_555
Eu0 Si2 3.245832 1_555
Eu0 Si2 3.245832 1_554
Eu1 Pd1 3.233597 1_455
Eu1 Pd1 3.233597 1_454
Eu1 Pd0 3.233597 1_554
Eu1 Pd0 3.233597 1_555
Eu1 Si3 3.246079 1_554
Eu1 Si3 3.246079 1_555
Eu1 Si0 3.246079 1_455
Eu1 Si0 3.246079 1_454
Eu1 Si4 3.246090 1_454
Eu1 Si1 3.246090 1_555
Eu1 Si1 3.246090 1_554
Eu1 Si4 3.246090 1_455
Eu2 Pd1 3.233251 1_555
Eu2 Pd1 3.233251 1_554
Eu2 Pd0 3.233251 1_545
Eu2 Pd0 3.233251 1_544
Eu2 Si4 3.245717 1_555
Eu2 Si4 3.245717 1_554
Eu2 Si1 3.245717 1_545
Eu2 Si1 3.245717 1_544
Eu2 Si5 3.245821 1_554
Eu2 Si2 3.245821 1_544
Eu2 Si5 3.245821 1_555
Eu2 Si2 3.245821 1_545
Eu3 Si4 3.208674 1_455
Eu3 Si4 3.208674 1_454
Eu3 Si1 3.208674 1_544
Eu3 Si1 3.208674 1_545
Eu3 Si0 3.208685 1_445
Eu3 Si0 3.208685 1_444
Eu3 Si3 3.208685 1_554
Eu3 Si3 3.208685 1_555
Eu3 Si2 3.208824 1_444
Eu3 Si2 3.208824 1_445
Eu3 Si5 3.208824 1_555
Eu3 Si5 3.208824 1_554
Si0 Si2 2.360818 1_555
Si0 Si1 2.361417 1_655
Si1 Si5 2.360790 1_565
Si2 Si4 2.360790 1_565
Si3 Si5 2.360818 1_555
Si3 Si4 2.361417 1_455
Pd0 Si2 2.427306 1_555
Pd0 Si3 2.427997 1_555
Pd0 Si1 2.428004 1_555
Pd1 Si5 2.427306 1_555
Pd1 Si0 2.427997 1_555
Pd1 Si4 2.428004 1_555
