# generated using pymatgen
data_MgV2Bi4O11
_symmetry_space_group_name_H-M   'P 1'
_cell_length_a   5.81056126
_cell_length_b   6.18899939
_cell_length_c   8.17280594
_cell_angle_alpha   81.43238760
_cell_angle_beta   104.14560440
_cell_angle_gamma   86.37091964
_symmetry_Int_Tables_number   1
_chemical_formula_structural   MgV2Bi4O11
_chemical_formula_sum   'Mg1 V2 Bi4 O11'
_cell_volume   280.28692149
_cell_formula_units_Z   1
loop_
 _symmetry_equiv_pos_site_id
 _symmetry_equiv_pos_as_xyz
  1  'x, y, z'
loop_
 _atom_site_type_symbol
 _atom_site_label
 _atom_site_symmetry_multiplicity
 _atom_site_fract_x
 _atom_site_fract_y
 _atom_site_fract_z
 _atom_site_occupancy
  Mg  Mg0  1  0.75851158  0.78855675  0.80908413  1
  V  V0  1  0.49664424  0.45336626  0.01553886  1
  V  V1  1  0.03699159  0.05187072  0.03258502  1
  Bi  Bi0  1  0.11398867  0.44681478  0.27724450  1
  Bi  Bi1  1  0.23405592  0.93437922  0.54493872  1
  Bi  Bi2  1  0.65735534  0.89084627  0.29717467  1
  Bi  Bi3  1  0.75707112  0.34728715  0.59881134  1
  O  O0  1  0.99310653  0.65994120  0.43946841  1
  O  O1  1  0.87812335  0.19047094  0.40996555  1
  O  O2  1  0.24972037  0.30747136  0.98351897  1
  O  O3  1  0.23949394  0.00977194  0.27053581  1
  O  O4  1  0.45974157  0.67061235  0.84718513  1
  O  O5  1  0.60804941  0.79062700  0.55340851  1
  O  O6  1  0.39157706  0.27469924  0.52835025  1
  O  O7  1  0.76349437  0.28552686  0.03543609  1
  O  O8  1  0.49724769  0.56178172  0.20717510  1
  O  O9  1  0.92422957  0.05300927  0.78242177  1
  O  O10  1  0.91451469  0.77403398  0.06032018  1
loop_
_geom_bond_atom_site_label_1
_geom_bond_atom_site_label_2
_geom_bond_distance
_geom_bond_site_symmetry_2
Mg0 O9 1.961955 1_565
Mg0 O4 2.000124 1_555
Mg0 O10 2.017618 1_556
Mg0 O5 2.056348 1_555
Bi0 O0 2.202267 1_455
Bi0 O6 2.336921 1_555
Bi0 O1 2.461914 1_455
Bi0 O10 2.493293 1_455
Bi0 O8 2.548734 1_555
Bi0 O3 2.768591 1_555
Bi1 O3 2.229995 1_565
Bi1 O5 2.276426 1_555
Bi1 O6 2.347765 1_565
Bi1 O0 2.394882 1_455
Bi1 O1 2.440337 1_465
Bi1 O4 2.725926 1_555
Bi2 O5 2.186547 1_555
Bi2 O0 2.289903 1_555
Bi2 O8 2.430206 1_555
Bi2 O3 2.439676 1_565
Bi2 O1 2.483241 1_565
Bi3 O6 2.154938 1_555
Bi3 O1 2.170085 1_555
Bi3 O9 2.182121 1_555
Bi3 O5 2.766749 1_555
Bi3 O0 2.789149 1_555
O2 V0 1.730097 1_556
O2 V1 2.119418 1_556
O3 V1 1.981446 1_555
O4 V0 1.736378 1_556
O7 V0 1.769801 1_555
O7 V1 2.086726 1_655
O8 V0 1.792753 1_555
O9 V1 1.987420 1_656
O10 V1 1.905848 1_665
