# generated using pymatgen
data_Tl2SnSe3
_symmetry_space_group_name_H-M   'P 1'
_cell_length_a   8.17387029
_cell_length_b   8.35302216
_cell_length_c   21.46689467
_cell_angle_alpha   90.00000000
_cell_angle_beta   90.00000000
_cell_angle_gamma   90.00000000
_symmetry_Int_Tables_number   1
_chemical_formula_structural   Tl2SnSe3
_chemical_formula_sum   'Tl16 Sn8 Se24'
_cell_volume   1465.68485609
_cell_formula_units_Z   8
loop_
 _symmetry_equiv_pos_site_id
 _symmetry_equiv_pos_as_xyz
  1  'x, y, z'
loop_
 _atom_site_type_symbol
 _atom_site_label
 _atom_site_symmetry_multiplicity
 _atom_site_fract_x
 _atom_site_fract_y
 _atom_site_fract_z
 _atom_site_occupancy
  Tl  Tl0  1  0.67499337  0.98640086  0.66744825  1
  Tl  Tl1  1  0.82500663  0.48640086  0.16744825  1
  Tl  Tl2  1  0.17499337  0.51359914  0.66744825  1
  Tl  Tl3  1  0.67499337  0.98640086  0.83255175  1
  Tl  Tl4  1  0.32500663  0.01359914  0.33255175  1
  Tl  Tl5  1  0.17499337  0.51359914  0.83255175  1
  Tl  Tl6  1  0.82500663  0.48640086  0.33255175  1
  Tl  Tl7  1  0.32500663  0.01359914  0.16744825  1
  Tl  Tl8  1  0.26853046  0.95002247  0.49328431  1
  Tl  Tl9  1  0.76853046  0.54997753  0.00671569  1
  Tl  Tl10  1  0.23146954  0.45002247  0.50671569  1
  Tl  Tl11  1  0.73146954  0.04997753  0.99328431  1
  Tl  Tl12  1  0.73146954  0.04997753  0.50671569  1
  Tl  Tl13  1  0.23146954  0.45002247  0.99328431  1
  Tl  Tl14  1  0.76853046  0.54997753  0.49328431  1
  Tl  Tl15  1  0.26853046  0.95002247  0.00671569  1
  Sn  Sn0  1  0.17509137  0.00903030  0.66627374  1
  Sn  Sn1  1  0.67509137  0.49096970  0.66627374  1
  Sn  Sn2  1  0.32490863  0.50903030  0.16627374  1
  Sn  Sn3  1  0.82490863  0.99096970  0.33372626  1
  Sn  Sn4  1  0.82490863  0.99096970  0.16627374  1
  Sn  Sn5  1  0.32490863  0.50903030  0.33372626  1
  Sn  Sn6  1  0.67509137  0.49096970  0.83372626  1
  Sn  Sn7  1  0.17509137  0.00903030  0.83372626  1
  Se  Se0  1  0.01387072  0.83478370  0.90809625  1
  Se  Se1  1  0.51387072  0.66521630  0.59190375  1
  Se  Se2  1  0.48612928  0.33478370  0.09190375  1
  Se  Se3  1  0.98612928  0.16521630  0.40809625  1
  Se  Se4  1  0.98612928  0.16521630  0.09190375  1
  Se  Se5  1  0.48612928  0.33478370  0.40809625  1
  Se  Se6  1  0.51387072  0.66521630  0.90809625  1
  Se  Se7  1  0.01387072  0.83478370  0.59190375  1
  Se  Se8  1  0.12849424  0.68051848  0.39382526  1
  Se  Se9  1  0.62849424  0.81948152  0.10617474  1
  Se  Se10  1  0.37150576  0.18051848  0.60617474  1
  Se  Se11  1  0.87150576  0.31948152  0.89382526  1
  Se  Se12  1  0.87150576  0.31948152  0.60617474  1
  Se  Se13  1  0.37150576  0.18051848  0.89382526  1
  Se  Se14  1  0.62849424  0.81948152  0.39382526  1
  Se  Se15  1  0.33400832  0.84121299  0.75000000  1
  Se  Se16  1  0.00892393  0.16413212  0.75000000  1
  Se  Se17  1  0.50892393  0.33586788  0.75000000  1
  Se  Se18  1  0.49107607  0.66413212  0.25000000  1
  Se  Se19  1  0.99107607  0.83586788  0.25000000  1
  Se  Se20  1  0.66599168  0.15878701  0.25000000  1
  Se  Se21  1  0.16599168  0.34121299  0.25000000  1
  Se  Se22  1  0.83400832  0.65878701  0.75000000  1
  Se  Se23  1  0.12849424  0.68051848  0.10617474  1
loop_
_geom_bond_atom_site_label_1
_geom_bond_atom_site_label_2
_geom_bond_distance
_geom_bond_site_symmetry_2
Se0 Sn7 2.530576 1_565
Se0 Tl15 3.121117 1_556
Se1 Sn1 2.530576 1_555
Se1 Tl14 3.121117 1_555
Se2 Sn2 2.530576 1_555
Se2 Tl13 3.121117 1_554
Se3 Sn3 2.530576 1_545
Se3 Tl12 3.121117 1_555
Se4 Sn4 2.530576 1_545
Se4 Tl11 3.121117 1_554
Se5 Sn5 2.530576 1_555
Se5 Tl10 3.121117 1_555
Se6 Sn6 2.530576 1_555
Se6 Tl9 3.121117 1_556
Se7 Sn0 2.530576 1_565
Se7 Tl8 3.121117 1_555
Se8 Sn5 2.508760 1_555
Se8 Tl10 3.207538 1_555
Se8 Tl6 3.242380 1_455
Se8 Tl8 3.307042 1_555
Se9 Sn4 2.508760 1_555
Se9 Tl11 3.207538 1_564
Se9 Tl7 3.242380 1_565
Se9 Tl9 3.307042 1_555
Se10 Sn0 2.508760 1_555
Se10 Tl8 3.207538 1_545
Se10 Tl0 3.242380 1_545
Se10 Tl10 3.307042 1_555
Se11 Sn6 2.508760 1_555
Se11 Tl9 3.207538 1_556
Se11 Tl5 3.242380 1_655
Se11 Tl11 3.307042 1_555
Se12 Sn1 2.508760 1_555
Se12 Tl14 3.207538 1_555
Se12 Tl2 3.242380 1_655
Se12 Tl12 3.307042 1_555
Se13 Sn7 2.508760 1_555
Se13 Tl15 3.207538 1_546
Se13 Tl3 3.242380 1_545
Se13 Tl13 3.307042 1_555
Se14 Sn3 2.508760 1_555
Se14 Tl12 3.207538 1_565
Se14 Tl4 3.242380 1_565
Se14 Tl14 3.307042 1_555
Se15 Sn0 2.623499 1_565
Se15 Sn7 2.623499 1_565
Se16 Sn0 2.598794 1_555
Se16 Sn7 2.598794 1_555
Se17 Sn6 2.598794 1_555
Se17 Sn1 2.598794 1_555
Se18 Sn2 2.598794 1_555
Se18 Sn5 2.598794 1_555
Se19 Sn4 2.598794 1_555
Se19 Sn3 2.598794 1_555
Se20 Sn4 2.623499 1_545
Se20 Sn3 2.623499 1_545
Se21 Sn5 2.623499 1_555
Se21 Sn2 2.623499 1_555
Se22 Sn6 2.623499 1_555
Se22 Sn1 2.623499 1_555
Se23 Sn2 2.508760 1_555
Se23 Tl13 3.207538 1_554
Se23 Tl1 3.242380 1_455
Se23 Tl15 3.307042 1_555
