# generated using pymatgen
data_MgMn4ZnS8
_symmetry_space_group_name_H-M   'P 1'
_cell_length_a   7.15394069
_cell_length_b   7.00569762
_cell_length_c   7.15813529
_cell_angle_alpha   60.70199854
_cell_angle_beta   61.76289355
_cell_angle_gamma   60.68313885
_symmetry_Int_Tables_number   1
_chemical_formula_structural   MgMn4ZnS8
_chemical_formula_sum   'Mg1 Mn4 Zn1 S8'
_cell_volume   259.61233382
_cell_formula_units_Z   1
loop_
 _symmetry_equiv_pos_site_id
 _symmetry_equiv_pos_as_xyz
  1  'x, y, z'
loop_
 _atom_site_type_symbol
 _atom_site_label
 _atom_site_symmetry_multiplicity
 _atom_site_fract_x
 _atom_site_fract_y
 _atom_site_fract_z
 _atom_site_occupancy
  Mg  Mg0  1  0.00000000  0.00000000  0.50000000  1
  Mn  Mn0  1  0.00000000  0.50000000  0.50000000  1
  Mn  Mn1  1  0.50000000  0.50000000  0.00000000  1
  Mn  Mn2  1  0.50000000  0.50000000  0.50000000  1
  Mn  Mn3  1  0.50000000  0.00000000  0.50000000  1
  Zn  Zn0  1  0.50000000  0.00000000  0.00000000  1
  S  S0  1  0.26428200  0.23752700  0.26342200  1
  S  S1  1  0.28101100  0.25004500  0.71889900  1
  S  S2  1  0.26428200  0.73476900  0.26342200  1
  S  S3  1  0.71628600  0.25347600  0.27676200  1
  S  S4  1  0.28371400  0.74652400  0.72323800  1
  S  S5  1  0.71898900  0.74995500  0.28110100  1
  S  S6  1  0.73571800  0.26523100  0.73657800  1
  S  S7  1  0.73571800  0.76247300  0.73657800  1
loop_
_geom_bond_atom_site_label_1
_geom_bond_atom_site_label_2
_geom_bond_distance
_geom_bond_site_symmetry_2
Mg0 S6 2.550442 1_455
Mg0 S2 2.550442 1_545
Mg0 S0 2.550443 1_555
Mg0 S7 2.550443 1_445
Mg0 S3 2.566845 1_455
Mg0 S4 2.566845 1_545
Mn0 S1 2.531985 1_555
Mn0 S5 2.531985 1_455
Mn0 S7 2.537139 1_455
Mn0 S0 2.537139 1_555
Mn0 S2 2.537139 1_555
Mn0 S6 2.537139 1_455
Mn1 S4 2.497333 1_554
Mn1 S3 2.497333 1_555
Mn1 S2 2.532726 1_555
Mn1 S6 2.532726 1_554
Mn1 S0 2.532727 1_555
Mn1 S7 2.532727 1_554
Mn2 S1 2.377861 1_555
Mn2 S5 2.377861 1_555
Mn2 S3 2.382207 1_555
Mn2 S4 2.382207 1_555
Mn2 S6 2.382593 1_555
Mn2 S2 2.382593 1_555
Mn3 S1 2.377861 1_555
Mn3 S5 2.377861 1_545
Mn3 S3 2.382207 1_555
Mn3 S4 2.382207 1_545
Mn3 S7 2.382593 1_545
Mn3 S0 2.382593 1_555
S0 Zn0 2.546053 1_555
S1 Zn0 2.533257 1_556
S2 Zn0 2.546053 1_565
S5 Zn0 2.533257 1_565
S6 Zn0 2.546053 1_556
S7 Zn0 2.546053 1_566
