# generated using pymatgen
data_Ni20(SnB2)3
_symmetry_space_group_name_H-M   'P 1'
_cell_length_a   7.54755737
_cell_length_b   7.54755737
_cell_length_c   7.54755737
_cell_angle_alpha   60.00000000
_cell_angle_beta   60.00000000
_cell_angle_gamma   60.00000000
_symmetry_Int_Tables_number   1
_chemical_formula_structural   Ni20(SnB2)3
_chemical_formula_sum   'Ni20 Sn3 B6'
_cell_volume   304.02148167
_cell_formula_units_Z   1
loop_
 _symmetry_equiv_pos_site_id
 _symmetry_equiv_pos_as_xyz
  1  'x, y, z'
loop_
 _atom_site_type_symbol
 _atom_site_label
 _atom_site_symmetry_multiplicity
 _atom_site_fract_x
 _atom_site_fract_y
 _atom_site_fract_z
 _atom_site_occupancy
  Ni  Ni0  1  0.00000000  0.00000000  0.65868900  1
  Ni  Ni1  1  0.38554200  0.84337500  0.38554200  1
  Ni  Ni2  1  0.65868900  0.34131100  0.00000000  1
  Ni  Ni3  1  0.00000000  0.34131100  0.65868900  1
  Ni  Ni4  1  0.65868900  0.00000000  0.00000000  1
  Ni  Ni5  1  0.00000000  0.00000000  0.34131100  1
  Ni  Ni6  1  0.65868900  0.00000000  0.34131100  1
  Ni  Ni7  1  0.00000000  0.34131100  0.00000000  1
  Ni  Ni8  1  0.00000000  0.65868900  0.34131100  1
  Ni  Ni9  1  0.34131100  0.00000000  0.00000000  1
  Ni  Ni10  1  0.00000000  0.65868900  0.00000000  1
  Ni  Ni11  1  0.34131100  0.00000000  0.65868900  1
  Ni  Ni12  1  0.38554200  0.38554200  0.38554200  1
  Ni  Ni13  1  0.34131100  0.65868900  0.00000000  1
  Ni  Ni14  1  0.61445800  0.15662500  0.61445800  1
  Ni  Ni15  1  0.38554200  0.38554200  0.84337500  1
  Ni  Ni16  1  0.84337500  0.38554200  0.38554200  1
  Ni  Ni17  1  0.61445800  0.61445800  0.61445800  1
  Ni  Ni18  1  0.15662500  0.61445800  0.61445800  1
  Ni  Ni19  1  0.61445800  0.61445800  0.15662500  1
  Sn  Sn0  1  0.25000000  0.25000000  0.25000000  1
  Sn  Sn1  1  0.75000000  0.75000000  0.75000000  1
  Sn  Sn2  1  0.00000000  0.00000000  0.00000000  1
  B  B0  1  0.72476000  0.72476000  0.27524000  1
  B  B1  1  0.72476000  0.27524000  0.72476000  1
  B  B2  1  0.27524000  0.72476000  0.27524000  1
  B  B3  1  0.72476000  0.27524000  0.27524000  1
  B  B4  1  0.27524000  0.72476000  0.72476000  1
  B  B5  1  0.27524000  0.27524000  0.72476000  1
loop_
_geom_bond_atom_site_label_1
_geom_bond_atom_site_label_2
_geom_bond_distance
_geom_bond_site_symmetry_2
Ni0 Sn2 2.576064 1_556
Ni1 Sn0 2.505849 1_565
Ni2 Sn2 2.576064 1_655
Ni3 Sn2 2.576064 1_556
Ni4 Sn2 2.576064 1_655
Ni5 Sn2 2.576064 1_555
Ni6 Sn2 2.576064 1_655
Ni7 Sn2 2.576064 1_555
Ni8 Sn2 2.576064 1_565
Ni9 Sn2 2.576064 1_555
Ni10 Sn2 2.576064 1_565
Ni11 Sn2 2.576064 1_556
Ni12 Sn0 2.505855 1_555
Ni13 Sn2 2.576064 1_565
Ni14 Sn1 2.505849 1_545
Ni15 Sn0 2.505849 1_556
Ni16 Sn0 2.505849 1_655
Ni17 Sn1 2.505855 1_555
Ni18 Sn1 2.505849 1_455
Ni19 Sn1 2.505849 1_554
B0 Ni17 2.090763 1_555
B0 Ni16 2.090763 1_555
B0 Ni1 2.090763 1_555
B0 Ni19 2.090770 1_555
B0 Ni6 2.136405 1_565
B0 Ni8 2.136405 1_655
B0 Ni4 2.136405 1_565
B0 Ni10 2.136405 1_655
B1 Ni17 2.090763 1_555
B1 Ni16 2.090763 1_555
B1 Ni15 2.090763 1_555
B1 Ni14 2.090770 1_555
B1 Ni2 2.136405 1_556
B1 Ni3 2.136405 1_655
B1 Ni4 2.136405 1_556
B1 Ni0 2.136405 1_655
B2 Ni12 2.090763 1_555
B2 Ni19 2.090763 1_555
B2 Ni18 2.090763 1_555
B2 Ni1 2.090770 1_555
B2 Ni9 2.136405 1_565
B2 Ni5 2.136405 1_565
B2 Ni13 2.136405 1_555
B2 Ni8 2.136405 1_555
B3 Ni12 2.090763 1_555
B3 Ni19 2.090763 1_555
B3 Ni14 2.090763 1_555
B3 Ni16 2.090770 1_555
B3 Ni5 2.136405 1_655
B3 Ni7 2.136405 1_655
B3 Ni6 2.136405 1_555
B3 Ni2 2.136405 1_555
B4 Ni17 2.090763 1_555
B4 Ni1 2.090763 1_555
B4 Ni15 2.090763 1_555
B4 Ni18 2.090770 1_555
B4 Ni11 2.136405 1_565
B4 Ni13 2.136405 1_556
B4 Ni0 2.136405 1_565
B4 Ni10 2.136405 1_556
B5 Ni12 2.090763 1_555
B5 Ni18 2.090763 1_555
B5 Ni14 2.090763 1_555
B5 Ni15 2.090770 1_555
B5 Ni9 2.136405 1_556
B5 Ni7 2.136405 1_556
B5 Ni11 2.136405 1_555
B5 Ni3 2.136405 1_555
