# generated using pymatgen
data_Hf2P2SO12
_symmetry_space_group_name_H-M   'P 1'
_cell_length_a   8.88289937
_cell_length_b   8.89345632
_cell_length_c   22.91506856
_cell_angle_alpha   90.12970198
_cell_angle_beta   90.00000000
_cell_angle_gamma   119.96074059
_symmetry_Int_Tables_number   1
_chemical_formula_structural   Hf2P2SO12
_chemical_formula_sum   'Hf12 P12 S6 O72'
_cell_volume   1568.36557671
_cell_formula_units_Z   6
loop_
 _symmetry_equiv_pos_site_id
 _symmetry_equiv_pos_as_xyz
  1  'x, y, z'
loop_
 _atom_site_type_symbol
 _atom_site_label
 _atom_site_symmetry_multiplicity
 _atom_site_fract_x
 _atom_site_fract_y
 _atom_site_fract_z
 _atom_site_occupancy
  Hf  Hf0  1  -0.00014741  0.00304545  0.35605310  1
  Hf  Hf1  1  0.00319286  0.00304545  0.85605310  1
  Hf  Hf2  1  0.99229106  0.00561610  0.64395220  1
  Hf  Hf3  1  0.01332504  0.00561610  0.14395220  1
  Hf  Hf4  1  0.66651959  0.33637845  0.68938610  1
  Hf  Hf5  1  0.66985986  0.33637845  0.18938610  1
  Hf  Hf6  1  0.65895806  0.33894910  0.97728520  1
  Hf  Hf7  1  0.67999204  0.33894910  0.47728520  1
  Hf  Hf8  1  0.33318559  0.66971245  0.02272010  1
  Hf  Hf9  1  0.33652586  0.66971245  0.52272010  1
  Hf  Hf10  1  0.32562406  0.67228310  0.31061920  1
  Hf  Hf11  1  0.34665804  0.67228310  0.81061920  1
  P  P0  1  0.28915867  0.00304786  0.25035211  1
  P  P1  1  0.00056881  0.28725954  0.24995056  1
  P  P2  1  0.28669073  0.28725954  0.74995056  1
  P  P3  1  0.71388919  0.00304786  0.75035211  1
  P  P4  1  0.95582567  0.33638086  0.58368511  1
  P  P5  1  0.66723581  0.62059254  0.58328356  1
  P  P6  1  0.95335773  0.62059254  0.08328356  1
  P  P7  1  0.38055619  0.33638086  0.08368511  1
  P  P8  1  0.62249167  0.66971486  0.91701911  1
  P  P9  1  0.33390181  0.95392654  0.91661756  1
  P  P10  1  0.62002373  0.95392654  0.41661756  1
  P  P11  1  0.04722219  0.66971486  0.41701911  1
  S  S0  1  0.71131294  0.71290221  0.24991507  1
  S  S1  1  0.00158927  0.71290221  0.74991507  1
  S  S2  1  0.37797994  0.04623521  0.58324807  1
  S  S3  1  0.66825627  0.04623521  0.08324807  1
  S  S4  1  0.04464594  0.37956921  0.91658207  1
  S  S5  1  0.33492227  0.37956921  0.41658207  1
  O  O0  1  0.20174270  0.02911398  0.30415600  1
  O  O1  1  0.82067093  0.79099469  0.30221178  1
  O  O2  1  0.97096344  0.17239961  0.30400191  1
  O  O3  1  0.20143617  0.17239961  0.80400191  1
  O  O4  1  0.97032376  0.79099469  0.80221178  1
  O  O5  1  0.82737127  0.02911398  0.80415600  1
  O  O6  1  0.79663336  0.96929586  0.69620372  1
  O  O7  1  0.17293620  0.19927664  0.69576997  1
  O  O8  1  0.03005028  0.81985761  0.69778930  1
  O  O9  1  0.78980733  0.81985761  0.19778930  1
  O  O10  1  0.02634044  0.19927664  0.19576997  1
  O  O11  1  0.17266250  0.96929586  0.19620372  1
  O  O12  1  0.86840970  0.36244698  0.63748900  1
  O  O13  1  0.48733793  0.12432769  0.63554478  1
  O  O14  1  0.63763044  0.50573261  0.63733491  1
  O  O15  1  0.86810317  0.50573261  0.13733491  1
  O  O16  1  0.63699076  0.12432769  0.13554478  1
  O  O17  1  0.49403827  0.36244698  0.13748900  1
  O  O18  1  0.46330036  0.30262886  0.02953672  1
  O  O19  1  0.83960320  0.53260964  0.02910297  1
  O  O20  1  0.69671728  0.15319061  0.03112230  1
  O  O21  1  0.45647433  0.15319061  0.53112230  1
  O  O22  1  0.69300744  0.53260964  0.52910297  1
  O  O23  1  0.83932950  0.30262886  0.52953672  1
  O  O24  1  0.53507570  0.69578098  0.97082300  1
  O  O25  1  0.15400393  0.45766169  0.96887878  1
  O  O26  1  0.30429644  0.83906661  0.97066891  1
  O  O27  1  0.53476917  0.83906661  0.47066891  1
  O  O28  1  0.30365676  0.45766169  0.46887878  1
  O  O29  1  0.16070427  0.69578098  0.47082300  1
  O  O30  1  0.12996636  0.63596286  0.36287072  1
  O  O31  1  0.50626920  0.86594364  0.36243697  1
  O  O32  1  0.36338328  0.48652461  0.36445630  1
  O  O33  1  0.12314033  0.48652461  0.86445630  1
  O  O34  1  0.35967344  0.86594364  0.86243697  1
  O  O35  1  0.50599550  0.63596286  0.86287072  1
  O  O36  1  0.02506594  0.82762481  0.40636786  1
  O  O37  1  0.80104255  0.97505699  0.40669104  1
  O  O38  1  0.17934942  0.20552674  0.40872555  1
  O  O39  1  0.02617732  0.20552674  0.90872555  1
  O  O40  1  0.17401444  0.97505699  0.90669104  1
  O  O41  1  0.80255887  0.82762481  0.90636786  1
  O  O42  1  0.97597991  0.17530166  0.59205015  1
  O  O43  1  0.20358362  0.02371732  0.59234773  1
  O  O44  1  0.82844185  0.79996294  0.59346194  1
  O  O45  1  0.97152109  0.79996294  0.09346194  1
  O  O46  1  0.82013370  0.02371732  0.09234773  1
  O  O47  1  0.19932174  0.17530166  0.09205015  1
  O  O48  1  0.69173294  0.16095781  0.73970086  1
  O  O49  1  0.46770955  0.30838999  0.74002404  1
  O  O50  1  0.84601642  0.53885974  0.74205855  1
  O  O51  1  0.69284432  0.53885974  0.24205855  1
  O  O52  1  0.84068144  0.30838999  0.24002404  1
  O  O53  1  0.46922587  0.16095781  0.23970086  1
  O  O54  1  0.64264691  0.50863466  0.92538315  1
  O  O55  1  0.87025062  0.35705032  0.92568073  1
  O  O56  1  0.49510885  0.13329594  0.92679494  1
  O  O57  1  0.63818809  0.13329594  0.42679494  1
  O  O58  1  0.48680070  0.35705032  0.42568073  1
  O  O59  1  0.86598874  0.50863466  0.42538315  1
  O  O60  1  0.35839894  0.49429181  0.07303486  1
  O  O61  1  0.13437555  0.64172399  0.07335804  1
  O  O62  1  0.51268242  0.87219374  0.07539255  1
  O  O63  1  0.35951032  0.87219374  0.57539255  1
  O  O64  1  0.50734744  0.64172399  0.57335804  1
  O  O65  1  0.13589187  0.49429181  0.57303486  1
  O  O66  1  0.30931291  0.84196866  0.25871715  1
  O  O67  1  0.53691662  0.69038432  0.25901473  1
  O  O68  1  0.16177485  0.46662994  0.26012894  1
  O  O69  1  0.30485409  0.46662994  0.76012894  1
  O  O70  1  0.15346670  0.69038432  0.75901473  1
  O  O71  1  0.53265474  0.84196866  0.75871715  1
loop_
_geom_bond_atom_site_label_1
_geom_bond_atom_site_label_2
_geom_bond_distance
_geom_bond_site_symmetry_2
Hf0 O37 2.022240 1_445
Hf0 O2 2.037442 1_455
Hf0 O36 2.042188 1_545
Hf0 O0 2.066434 1_555
Hf0 O38 2.089063 1_555
Hf0 O1 2.145562 1_445
Hf1 O40 2.022240 1_545
Hf1 O3 2.037442 1_555
Hf1 O41 2.042188 1_445
Hf1 O5 2.066434 1_455
Hf1 O39 2.089063 1_555
Hf1 O4 2.145562 1_445
Hf2 O42 1.984791 1_555
Hf2 O6 1.999917 1_545
Hf2 O44 2.033148 1_545
Hf2 O7 2.044875 1_655
Hf2 O43 2.155472 1_655
Hf2 O8 2.219543 1_645
Hf3 O47 1.984791 1_555
Hf3 O11 1.999917 1_545
Hf3 O45 2.033148 1_445
Hf3 O10 2.044875 1_555
Hf3 O46 2.155472 1_455
Hf3 O9 2.219543 1_445
Hf4 O49 2.022240 1_555
Hf4 O14 2.037442 1_555
Hf4 O48 2.042188 1_555
Hf4 O12 2.066434 1_555
Hf4 O50 2.089063 1_555
Hf4 O13 2.145562 1_555
Hf5 O52 2.022240 1_555
Hf5 O15 2.037442 1_555
Hf5 O53 2.042188 1_555
Hf5 O17 2.066434 1_555
Hf5 O51 2.089063 1_555
Hf5 O16 2.145562 1_555
Hf6 O54 1.984791 1_555
Hf6 O18 1.999917 1_556
Hf6 O56 2.033148 1_555
Hf6 O19 2.044875 1_556
Hf6 O55 2.155472 1_555
Hf6 O20 2.219543 1_556
Hf7 O59 1.984791 1_555
Hf7 O23 1.999917 1_555
Hf7 O57 2.033148 1_555
Hf7 O22 2.044875 1_555
Hf7 O58 2.155472 1_555
Hf7 O21 2.219543 1_555
Hf8 O61 2.022240 1_555
Hf8 O26 2.037442 1_554
Hf8 O60 2.042188 1_555
Hf8 O24 2.066434 1_554
Hf8 O62 2.089063 1_555
Hf8 O25 2.145562 1_554
Hf9 O64 2.022240 1_555
Hf9 O27 2.037442 1_555
Hf9 O65 2.042188 1_555
Hf9 O29 2.066434 1_555
Hf9 O63 2.089063 1_555
Hf9 O28 2.145562 1_555
Hf10 O66 1.984791 1_555
Hf10 O30 1.999917 1_555
Hf10 O68 2.033148 1_555
Hf10 O31 2.044875 1_555
Hf10 O67 2.155472 1_555
Hf10 O32 2.219543 1_555
Hf11 O71 1.984791 1_555
Hf11 O35 1.999917 1_555
Hf11 O69 2.033148 1_555
Hf11 O34 2.044875 1_555
Hf11 O70 2.155472 1_555
Hf11 O33 2.219543 1_555
O0 P0 1.534697 1_555
O1 S0 1.478002 1_555
O2 P1 1.544067 1_655
O3 P2 1.544067 1_555
O4 S1 1.478002 1_655
O5 P3 1.534697 1_555
O6 P3 1.545523 1_565
O7 P2 1.542932 1_555
O8 S1 1.469830 1_555
O9 S0 1.469830 1_555
O10 P1 1.542932 1_555
O11 P0 1.545523 1_565
O12 P4 1.534697 1_555
O13 S2 1.478002 1_555
O14 P5 1.544067 1_555
O15 P6 1.544067 1_555
O16 S3 1.478002 1_555
O17 P7 1.534697 1_555
O18 P7 1.545523 1_555
O19 P6 1.542932 1_555
O20 S3 1.469830 1_555
O21 S2 1.469830 1_555
O22 P5 1.542932 1_555
O23 P4 1.545523 1_555
O24 P8 1.534697 1_555
O25 S4 1.478002 1_555
O26 P9 1.544067 1_555
O27 P10 1.544067 1_555
O28 S5 1.478002 1_555
O29 P11 1.534697 1_555
O30 P11 1.545523 1_555
O31 P10 1.542932 1_555
O32 S5 1.469830 1_555
O33 S4 1.469830 1_555
O34 P9 1.542932 1_555
O35 P8 1.545523 1_555
O36 P11 1.532373 1_555
O37 P10 1.539808 1_555
O38 S5 1.483317 1_555
O39 S4 1.483321 1_555
O40 P9 1.539799 1_555
O41 P8 1.532379 1_555
O42 P4 1.542207 1_555
O43 S2 1.474367 1_555
O44 P5 1.538310 1_555
O45 P6 1.538314 1_555
O46 S3 1.474358 1_555
O47 P7 1.542212 1_555
O48 P3 1.532373 1_555
O49 P2 1.539808 1_555
O50 S1 1.483317 1_655
O51 S0 1.483321 1_555
O52 P1 1.539799 1_655
O53 P0 1.532379 1_555
O54 P8 1.542218 1_555
O55 S4 1.474352 1_655
O56 P9 1.538306 1_545
O57 P10 1.538298 1_545
O58 S5 1.474369 1_555
O59 P11 1.542208 1_655
O60 P7 1.532384 1_555
O61 P6 1.539792 1_455
O62 S3 1.483313 1_565
O63 S2 1.483306 1_565
O64 P5 1.539809 1_555
O65 P4 1.532373 1_455
O66 P0 1.542207 1_565
O67 S0 1.474367 1_555
O68 P1 1.538310 1_555
O69 P2 1.538314 1_555
O70 S1 1.474358 1_555
O71 P3 1.542212 1_565
