# generated using pymatgen
data_SbP2O7
_symmetry_space_group_name_H-M   'P 1'
_cell_length_a   8.58444000
_cell_length_b   7.33230100
_cell_length_c   9.19781561
_cell_angle_alpha   66.16746079
_cell_angle_beta   90.00000000
_cell_angle_gamma   90.00000000
_symmetry_Int_Tables_number   1
_chemical_formula_structural   SbP2O7
_chemical_formula_sum   'Sb4 P8 O28'
_cell_volume   529.57812491
_cell_formula_units_Z   4
loop_
 _symmetry_equiv_pos_site_id
 _symmetry_equiv_pos_as_xyz
  1  'x, y, z'
loop_
 _atom_site_type_symbol
 _atom_site_label
 _atom_site_symmetry_multiplicity
 _atom_site_fract_x
 _atom_site_fract_y
 _atom_site_fract_z
 _atom_site_occupancy
  Sb  Sb0  1  0.91090900  0.74721700  0.62449300  1
  Sb  Sb1  1  0.58909100  0.74721700  0.12449300  1
  Sb  Sb2  1  0.41090900  0.25278300  0.87550700  1
  Sb  Sb3  1  0.08909100  0.25278300  0.37550700  1
  P  P0  1  0.23670300  0.93399200  0.74822300  1
  P  P1  1  0.26329700  0.93399200  0.24822300  1
  P  P2  1  0.76580500  0.44965900  0.97252800  1
  P  P3  1  0.26580500  0.55034100  0.52747200  1
  P  P4  1  0.73419500  0.44965900  0.47252800  1
  P  P5  1  0.23419500  0.55034100  0.02747200  1
  P  P6  1  0.73670300  0.06600800  0.75177700  1
  P  P7  1  0.76329700  0.06600800  0.25177700  1
  O  O0  1  0.09339800  0.97979800  0.62141200  1
  O  O1  1  0.73759000  0.88552900  0.70361300  1
  O  O2  1  0.38242700  0.87340000  0.69643700  1
  O  O3  1  0.15994800  0.75189500  0.90106200  1
  O  O4  1  0.40660200  0.97979800  0.12141200  1
  O  O5  1  0.76241000  0.88552900  0.20361300  1
  O  O6  1  0.11757300  0.87340000  0.19643700  1
  O  O7  1  0.34005200  0.75189500  0.40106200  1
  O  O8  1  0.89711300  0.52125800  0.84723600  1
  O  O9  1  0.60956300  0.41578400  0.90936000  1
  O  O10  1  0.74706000  0.59776900  0.55369300  1
  O  O11  1  0.24706000  0.40223100  0.94630700  1
  O  O12  1  0.10956300  0.58421600  0.59064000  1
  O  O13  1  0.39711300  0.47874200  0.65276400  1
  O  O14  1  0.60288700  0.52125800  0.34723600  1
  O  O15  1  0.89043700  0.41578400  0.40936000  1
  O  O16  1  0.75294000  0.59776900  0.05369300  1
  O  O17  1  0.25294000  0.40223100  0.44630700  1
  O  O18  1  0.39043700  0.58421600  0.09064000  1
  O  O19  1  0.10288700  0.47874200  0.15276400  1
  O  O20  1  0.65994800  0.24810500  0.59893800  1
  O  O21  1  0.88242700  0.12660000  0.80356300  1
  O  O22  1  0.23759000  0.11447100  0.79638700  1
  O  O23  1  0.59339800  0.02020200  0.87858800  1
  O  O24  1  0.84005200  0.24810500  0.09893800  1
  O  O25  1  0.61757300  0.12660000  0.30356300  1
  O  O26  1  0.26241000  0.11447100  0.29638700  1
  O  O27  1  0.90660200  0.02020200  0.37858800  1
loop_
_geom_bond_atom_site_label_1
_geom_bond_atom_site_label_2
_geom_bond_distance
_geom_bond_site_symmetry_2
O0 P0 1.634029 1_555
O0 Sb0 2.307403 1_455
O0 Sb3 2.337716 1_565
O1 P6 1.556040 1_565
O1 Sb0 2.090022 1_555
O2 P0 1.469754 1_555
O3 P5 1.597983 1_556
O3 P0 1.635928 1_555
O4 P1 1.634029 1_555
O4 Sb1 2.307403 1_555
O4 Sb2 2.337716 1_564
O5 P7 1.556040 1_565
O5 Sb1 2.090022 1_555
O6 P1 1.469754 1_555
O7 P3 1.597983 1_555
O7 P1 1.635928 1_555
O8 P2 1.544454 1_555
O8 Sb0 2.052631 1_555
O9 P2 1.521459 1_555
O9 Sb2 2.175843 1_555
O10 P4 1.550505 1_555
O10 Sb0 2.044481 1_555
O11 P5 1.550505 1_556
O11 Sb2 2.044481 1_555
O12 P3 1.521459 1_555
O12 Sb0 2.175843 1_455
O13 P3 1.544454 1_555
O13 Sb2 2.052631 1_555
O14 P4 1.544454 1_555
O14 Sb1 2.052631 1_555
O15 P4 1.521459 1_555
O15 Sb3 2.175843 1_655
O16 P2 1.550505 1_554
O16 Sb1 2.044481 1_555
O17 P3 1.550505 1_555
O17 Sb3 2.044481 1_555
O18 P5 1.521459 1_555
O18 Sb1 2.175843 1_555
O19 P5 1.544454 1_555
O19 Sb3 2.052631 1_555
O20 P4 1.597983 1_555
O20 P6 1.635928 1_555
O21 P6 1.469754 1_555
O22 P0 1.556040 1_545
O22 Sb2 2.090022 1_555
O23 P6 1.634029 1_555
O23 Sb2 2.307403 1_555
O23 Sb1 2.337716 1_546
O24 P2 1.597983 1_554
O24 P7 1.635928 1_555
O25 P7 1.469754 1_555
O26 P1 1.556040 1_545
O26 Sb3 2.090022 1_555
O27 P7 1.634029 1_555
O27 Sb3 2.307403 1_655
O27 Sb0 2.337716 1_545
