# generated using pymatgen
data_UV2O6
_symmetry_space_group_name_H-M   'P 1'
_cell_length_a   4.95811688
_cell_length_b   4.95810816
_cell_length_c   4.85257628
_cell_angle_alpha   90.00004327
_cell_angle_beta   89.99998264
_cell_angle_gamma   120.00001018
_symmetry_Int_Tables_number   1
_chemical_formula_structural   UV2O6
_chemical_formula_sum   'U1 V2 O6'
_cell_volume   103.30841908
_cell_formula_units_Z   1
loop_
 _symmetry_equiv_pos_site_id
 _symmetry_equiv_pos_as_xyz
  1  'x, y, z'
loop_
 _atom_site_type_symbol
 _atom_site_label
 _atom_site_symmetry_multiplicity
 _atom_site_fract_x
 _atom_site_fract_y
 _atom_site_fract_z
 _atom_site_occupancy
  U  U0  1  0.00000000  0.00000000  -0.00000000  1
  V  V0  1  0.66666560  0.33333220  0.50000000  1
  V  V1  1  0.33333440  0.66666780  0.50000000  1
  O  O0  1  0.34495251  0.34495152  0.72680319  1
  O  O1  1  0.65504409  -0.00000000  0.72680537  1
  O  O2  1  -0.00000001  0.65504748  0.72680119  1
  O  O3  1  0.34495591  0.00000000  0.27319463  1
  O  O4  1  0.00000001  0.34495252  0.27319881  1
  O  O5  1  0.65504749  0.65504848  0.27319681  1
loop_
_geom_bond_atom_site_label_1
_geom_bond_atom_site_label_2
_geom_bond_distance
_geom_bond_site_symmetry_2
O0 V0 1.962346 1_555
O0 V1 1.962355 1_555
O0 U0 2.163947 1_556
O1 V1 1.962343 1_545
O1 V0 1.962346 1_555
O1 U0 2.163957 1_656
O2 V1 1.962347 1_555
O2 V0 1.962348 1_455
O2 U0 2.163953 1_566
O3 V0 1.962343 1_555
O3 V1 1.962346 1_545
O3 U0 2.163957 1_555
O4 V0 1.962347 1_455
O4 V1 1.962348 1_555
O4 U0 2.163953 1_555
O5 V1 1.962346 1_555
O5 V0 1.962355 1_555
O5 U0 2.163947 1_665
