# generated using pymatgen
data_U2Co2Sn
_symmetry_space_group_name_H-M   'P 1'
_cell_length_a   14.71048000
_cell_length_b   14.71048000
_cell_length_c   6.77321400
_cell_angle_alpha   90.00000000
_cell_angle_beta   90.00000000
_cell_angle_gamma   90.00000000
_symmetry_Int_Tables_number   1
_chemical_formula_structural   U2Co2Sn
_chemical_formula_sum   'U32 Co32 Sn16'
_cell_volume   1465.71146568
_cell_formula_units_Z   16
loop_
 _symmetry_equiv_pos_site_id
 _symmetry_equiv_pos_as_xyz
  1  'x, y, z'
loop_
 _atom_site_type_symbol
 _atom_site_label
 _atom_site_symmetry_multiplicity
 _atom_site_fract_x
 _atom_site_fract_y
 _atom_site_fract_z
 _atom_site_occupancy
  U  U0_0  1  0.16732650  0.41732650  0.25000000  1
  U  U0_1  1  0.16732650  0.41732650  0.75000000  1
  U  U0_2  1  0.16732650  0.91732650  0.25000000  1
  U  U0_3  1  0.16732650  0.91732650  0.75000000  1
  U  U0_4  1  0.66732650  0.41732650  0.25000000  1
  U  U0_5  1  0.66732650  0.41732650  0.75000000  1
  U  U0_6  1  0.66732650  0.91732650  0.25000000  1
  U  U0_7  1  0.66732650  0.91732650  0.75000000  1
  U  U1_0  1  0.41732650  0.33267350  0.25000000  1
  U  U1_1  1  0.41732650  0.33267350  0.75000000  1
  U  U1_2  1  0.41732650  0.83267350  0.25000000  1
  U  U1_3  1  0.41732650  0.83267350  0.75000000  1
  U  U1_4  1  0.91732650  0.33267350  0.25000000  1
  U  U1_5  1  0.91732650  0.33267350  0.75000000  1
  U  U1_6  1  0.91732650  0.83267350  0.25000000  1
  U  U1_7  1  0.91732650  0.83267350  0.75000000  1
  U  U2_0  1  0.08267350  0.16732650  0.25000000  1
  U  U2_1  1  0.08267350  0.16732650  0.75000000  1
  U  U2_2  1  0.08267350  0.66732650  0.25000000  1
  U  U2_3  1  0.08267350  0.66732650  0.75000000  1
  U  U2_4  1  0.58267350  0.16732650  0.25000000  1
  U  U2_5  1  0.58267350  0.16732650  0.75000000  1
  U  U2_6  1  0.58267350  0.66732650  0.25000000  1
  U  U2_7  1  0.58267350  0.66732650  0.75000000  1
  U  U3_0  1  0.33267350  0.08267350  0.25000000  1
  U  U3_1  1  0.33267350  0.08267350  0.75000000  1
  U  U3_2  1  0.33267350  0.58267350  0.25000000  1
  U  U3_3  1  0.33267350  0.58267350  0.75000000  1
  U  U3_4  1  0.83267350  0.08267350  0.25000000  1
  U  U3_5  1  0.83267350  0.08267350  0.75000000  1
  U  U3_6  1  0.83267350  0.58267350  0.25000000  1
  U  U3_7  1  0.83267350  0.58267350  0.75000000  1
  Co  Co0_0  1  0.18267300  0.06732700  0.00000000  1
  Co  Co0_1  1  0.18267300  0.06732700  0.50000000  1
  Co  Co0_2  1  0.18267300  0.56732700  0.00000000  1
  Co  Co0_3  1  0.18267300  0.56732700  0.50000000  1
  Co  Co0_4  1  0.68267300  0.06732700  0.00000000  1
  Co  Co0_5  1  0.68267300  0.06732700  0.50000000  1
  Co  Co0_6  1  0.68267300  0.56732700  0.00000000  1
  Co  Co0_7  1  0.68267300  0.56732700  0.50000000  1
  Co  Co1_0  1  0.43267300  0.18267300  0.00000000  1
  Co  Co1_1  1  0.43267300  0.18267300  0.50000000  1
  Co  Co1_2  1  0.43267300  0.68267300  0.00000000  1
  Co  Co1_3  1  0.43267300  0.68267300  0.50000000  1
  Co  Co1_4  1  0.93267300  0.18267300  0.00000000  1
  Co  Co1_5  1  0.93267300  0.18267300  0.50000000  1
  Co  Co1_6  1  0.93267300  0.68267300  0.00000000  1
  Co  Co1_7  1  0.93267300  0.68267300  0.50000000  1
  Co  Co2_0  1  0.06732700  0.31732700  0.00000000  1
  Co  Co2_1  1  0.06732700  0.31732700  0.50000000  1
  Co  Co2_2  1  0.06732700  0.81732700  0.00000000  1
  Co  Co2_3  1  0.06732700  0.81732700  0.50000000  1
  Co  Co2_4  1  0.56732700  0.31732700  0.00000000  1
  Co  Co2_5  1  0.56732700  0.31732700  0.50000000  1
  Co  Co2_6  1  0.56732700  0.81732700  0.00000000  1
  Co  Co2_7  1  0.56732700  0.81732700  0.50000000  1
  Co  Co3_0  1  0.31732700  0.43267300  0.00000000  1
  Co  Co3_1  1  0.31732700  0.43267300  0.50000000  1
  Co  Co3_2  1  0.31732700  0.93267300  0.00000000  1
  Co  Co3_3  1  0.31732700  0.93267300  0.50000000  1
  Co  Co3_4  1  0.81732700  0.43267300  0.00000000  1
  Co  Co3_5  1  0.81732700  0.43267300  0.50000000  1
  Co  Co3_6  1  0.81732700  0.93267300  0.00000000  1
  Co  Co3_7  1  0.81732700  0.93267300  0.50000000  1
  Sn  Sn0_0  1  0.00000000  0.00000000  0.00000000  1
  Sn  Sn0_1  1  0.00000000  0.00000000  0.50000000  1
  Sn  Sn0_2  1  0.00000000  0.50000000  0.00000000  1
  Sn  Sn0_3  1  0.00000000  0.50000000  0.50000000  1
  Sn  Sn0_4  1  0.50000000  0.00000000  0.00000000  1
  Sn  Sn0_5  1  0.50000000  0.00000000  0.50000000  1
  Sn  Sn0_6  1  0.50000000  0.50000000  0.00000000  1
  Sn  Sn0_7  1  0.50000000  0.50000000  0.50000000  1
  Sn  Sn1_0  1  0.25000000  0.25000000  0.00000000  1
  Sn  Sn1_1  1  0.25000000  0.25000000  0.50000000  1
  Sn  Sn1_2  1  0.25000000  0.75000000  0.00000000  1
  Sn  Sn1_3  1  0.25000000  0.75000000  0.50000000  1
  Sn  Sn1_4  1  0.75000000  0.25000000  0.00000000  1
  Sn  Sn1_5  1  0.75000000  0.25000000  0.50000000  1
  Sn  Sn1_6  1  0.75000000  0.75000000  0.00000000  1
  Sn  Sn1_7  1  0.75000000  0.75000000  0.50000000  1
loop_
_geom_bond_atom_site_label_1
_geom_bond_atom_site_label_2
_geom_bond_distance
_geom_bond_site_symmetry_2
Co0_0 U2_1 2.682387 1_554
Co0_0 U2_0 2.682387 1_555
Co0_0 U0_3 2.790562 1_544
Co0_0 U0_2 2.790562 1_545
Co0_0 U3_1 2.790562 1_554
Co0_0 U3_0 2.790562 1_555
Co0_0 Co3_2 2.801310 1_545
Co0_0 Sn1_0 2.863914 1_555
Co0_0 Sn0_0 2.863914 1_555
Co0_1 U2_0 2.682387 1_555
Co0_1 U2_1 2.682387 1_555
Co0_1 U0_3 2.790562 1_545
Co0_1 U0_2 2.790562 1_545
Co0_1 U3_0 2.790562 1_555
Co0_1 U3_1 2.790562 1_555
Co0_1 Co3_3 2.801310 1_545
Co0_1 Sn1_1 2.863914 1_555
Co0_1 Sn0_1 2.863914 1_555
Co0_2 U2_2 2.682387 1_555
Co0_2 U2_3 2.682387 1_554
Co0_2 U0_1 2.790562 1_554
Co0_2 U0_0 2.790562 1_555
Co0_2 U3_2 2.790562 1_555
Co0_2 U3_3 2.790562 1_554
Co0_2 Co3_0 2.801310 1_555
Co0_2 Sn1_2 2.863914 1_555
Co0_2 Sn0_2 2.863914 1_555
Co0_3 U2_2 2.682387 1_555
Co0_3 U2_3 2.682387 1_555
Co0_3 U0_0 2.790562 1_555
Co0_3 U0_1 2.790562 1_555
Co0_3 U3_2 2.790562 1_555
Co0_3 U3_3 2.790562 1_555
Co0_3 Co3_1 2.801310 1_555
Co0_3 Sn1_3 2.863914 1_555
Co0_3 Sn0_3 2.863914 1_555
Co0_4 U2_4 2.682387 1_555
Co0_4 U2_5 2.682387 1_554
Co0_4 U0_6 2.790562 1_545
Co0_4 U0_7 2.790562 1_544
Co0_4 U3_5 2.790562 1_554
Co0_4 U3_4 2.790562 1_555
Co0_4 Co3_6 2.801310 1_545
Co0_4 Sn1_4 2.863914 1_555
Co0_4 Sn0_4 2.863914 1_555
Co0_5 U2_5 2.682387 1_555
Co0_5 U2_4 2.682387 1_555
Co0_5 U0_7 2.790562 1_545
Co0_5 U0_6 2.790562 1_545
Co0_5 U3_4 2.790562 1_555
Co0_5 U3_5 2.790562 1_555
Co0_5 Co3_7 2.801310 1_545
Co0_5 Sn1_5 2.863914 1_555
Co0_5 Sn0_5 2.863914 1_555
Co0_6 U2_6 2.682387 1_555
Co0_6 U2_7 2.682387 1_554
Co0_6 U0_4 2.790562 1_555
Co0_6 U0_5 2.790562 1_554
Co0_6 U3_7 2.790562 1_554
Co0_6 U3_6 2.790562 1_555
Co0_6 Co3_4 2.801310 1_555
Co0_6 Sn1_6 2.863914 1_555
Co0_6 Sn0_6 2.863914 1_555
Co0_7 U2_6 2.682387 1_555
Co0_7 U2_7 2.682387 1_555
Co0_7 U0_4 2.790562 1_555
Co0_7 U0_5 2.790562 1_555
Co0_7 U3_7 2.790562 1_555
Co0_7 U3_6 2.790562 1_555
Co0_7 Co3_5 2.801310 1_555
Co0_7 Sn1_7 2.863914 1_555
Co0_7 Sn0_7 2.863914 1_555
Co1_0 U3_1 2.682387 1_554
Co1_0 U3_0 2.682387 1_555
Co1_0 U2_4 2.790562 1_555
Co1_0 U1_0 2.790562 1_555
Co1_0 U1_1 2.790562 1_554
Co1_0 U2_5 2.790562 1_554
Co1_0 Co2_4 2.801310 1_555
Co1_0 Sn0_4 2.863914 1_555
Co1_0 Sn1_0 2.863914 1_555
Co1_1 U3_0 2.682387 1_555
Co1_1 U3_1 2.682387 1_555
Co1_1 U2_4 2.790562 1_555
Co1_1 U1_0 2.790562 1_555
Co1_1 U1_1 2.790562 1_555
Co1_1 U2_5 2.790562 1_555
Co1_1 Co2_5 2.801310 1_555
Co1_1 Sn1_1 2.863914 1_555
Co1_1 Sn0_5 2.863914 1_555
Co1_2 U3_2 2.682387 1_555
Co1_2 U3_3 2.682387 1_554
Co1_2 U2_7 2.790562 1_554
Co1_2 U2_6 2.790562 1_555
Co1_2 U1_3 2.790562 1_554
Co1_2 U1_2 2.790562 1_555
Co1_2 Co2_6 2.801310 1_555
Co1_2 Sn1_2 2.863914 1_555
Co1_2 Sn0_6 2.863914 1_555
Co1_3 U3_2 2.682387 1_555
Co1_3 U3_3 2.682387 1_555
Co1_3 U2_6 2.790562 1_555
Co1_3 U2_7 2.790562 1_555
Co1_3 U1_2 2.790562 1_555
Co1_3 U1_3 2.790562 1_555
Co1_3 Co2_7 2.801310 1_555
Co1_3 Sn1_3 2.863914 1_555
Co1_3 Sn0_7 2.863914 1_555
Co1_4 U3_5 2.682387 1_554
Co1_4 U3_4 2.682387 1_555
Co1_4 U2_0 2.790562 1_655
Co1_4 U2_1 2.790562 1_654
Co1_4 U1_4 2.790562 1_555
Co1_4 U1_5 2.790562 1_554
Co1_4 Co2_0 2.801310 1_655
Co1_4 Sn0_0 2.863914 1_655
Co1_4 Sn1_4 2.863914 1_555
Co1_5 U3_4 2.682387 1_555
Co1_5 U3_5 2.682387 1_555
Co1_5 U2_0 2.790562 1_655
Co1_5 U2_1 2.790562 1_655
Co1_5 U1_5 2.790562 1_555
Co1_5 U1_4 2.790562 1_555
Co1_5 Co2_1 2.801310 1_655
Co1_5 Sn0_1 2.863914 1_655
Co1_5 Sn1_5 2.863914 1_555
Co1_6 U3_7 2.682387 1_554
Co1_6 U3_6 2.682387 1_555
Co1_6 U2_3 2.790562 1_654
Co1_6 U2_2 2.790562 1_655
Co1_6 U1_7 2.790562 1_554
Co1_6 U1_6 2.790562 1_555
Co1_6 Co2_2 2.801310 1_655
Co1_6 Sn0_2 2.863914 1_655
Co1_6 Sn1_6 2.863914 1_555
Co1_7 U3_6 2.682387 1_555
Co1_7 U3_7 2.682387 1_555
Co1_7 U2_3 2.790562 1_655
Co1_7 U2_2 2.790562 1_655
Co1_7 U1_6 2.790562 1_555
Co1_7 U1_7 2.790562 1_555
Co1_7 Co2_3 2.801310 1_655
Co1_7 Sn0_3 2.863914 1_655
Co1_7 Sn1_7 2.863914 1_555
Co2_0 U0_0 2.682387 1_555
Co2_0 U0_1 2.682387 1_554
Co2_0 U2_0 2.790562 1_555
Co2_0 U2_1 2.790562 1_554
Co2_0 U1_5 2.790562 1_454
Co2_0 U1_4 2.790562 1_455
Co2_0 Sn1_0 2.863914 1_555
Co2_0 Sn0_2 2.863914 1_555
Co2_1 U0_0 2.682387 1_555
Co2_1 U0_1 2.682387 1_555
Co2_1 U2_0 2.790562 1_555
Co2_1 U2_1 2.790562 1_555
Co2_1 U1_5 2.790562 1_455
Co2_1 U1_4 2.790562 1_455
Co2_1 Sn1_1 2.863914 1_555
Co2_1 Sn0_3 2.863914 1_555
Co2_2 U0_3 2.682387 1_554
Co2_2 U0_2 2.682387 1_555
Co2_2 U2_3 2.790562 1_554
Co2_2 U2_2 2.790562 1_555
Co2_2 U1_6 2.790562 1_455
Co2_2 U1_7 2.790562 1_454
Co2_2 Sn1_2 2.863914 1_555
Co2_2 Sn0_0 2.863914 1_565
Co2_3 U0_2 2.682387 1_555
Co2_3 U0_3 2.682387 1_555
Co2_3 U2_2 2.790562 1_555
Co2_3 U2_3 2.790562 1_555
Co2_3 U1_6 2.790562 1_455
Co2_3 U1_7 2.790562 1_455
Co2_3 Sn1_3 2.863914 1_555
Co2_3 Sn0_1 2.863914 1_565
Co2_4 U0_5 2.682387 1_554
Co2_4 U0_4 2.682387 1_555
Co2_4 U2_5 2.790562 1_554
Co2_4 U2_4 2.790562 1_555
Co2_4 U1_1 2.790562 1_554
Co2_4 U1_0 2.790562 1_555
Co2_4 Sn1_4 2.863914 1_555
Co2_4 Sn0_6 2.863914 1_555
Co2_5 U0_4 2.682387 1_555
Co2_5 U0_5 2.682387 1_555
Co2_5 U2_4 2.790562 1_555
Co2_5 U2_5 2.790562 1_555
Co2_5 U1_1 2.790562 1_555
Co2_5 U1_0 2.790562 1_555
Co2_5 Sn1_5 2.863914 1_555
Co2_5 Sn0_7 2.863914 1_555
Co2_6 U0_6 2.682387 1_555
Co2_6 U0_7 2.682387 1_554
Co2_6 U2_6 2.790562 1_555
Co2_6 U2_7 2.790562 1_554
Co2_6 U1_3 2.790562 1_554
Co2_6 U1_2 2.790562 1_555
Co2_6 Sn1_6 2.863914 1_555
Co2_6 Sn0_4 2.863914 1_565
Co2_7 U0_7 2.682387 1_555
Co2_7 U0_6 2.682387 1_555
Co2_7 U2_6 2.790562 1_555
Co2_7 U2_7 2.790562 1_555
Co2_7 U1_3 2.790562 1_555
Co2_7 U1_2 2.790562 1_555
Co2_7 Sn1_7 2.863914 1_555
Co2_7 Sn0_5 2.863914 1_565
Co3_0 U1_1 2.682387 1_554
Co3_0 U1_0 2.682387 1_555
Co3_0 U0_1 2.790562 1_554
Co3_0 U0_0 2.790562 1_555
Co3_0 U3_3 2.790562 1_554
Co3_0 U3_2 2.790562 1_555
Co3_0 Sn1_0 2.863914 1_555
Co3_0 Sn0_6 2.863914 1_555
Co3_1 U1_1 2.682387 1_555
Co3_1 U1_0 2.682387 1_555
Co3_1 U0_1 2.790562 1_555
Co3_1 U0_0 2.790562 1_555
Co3_1 U3_2 2.790562 1_555
Co3_1 U3_3 2.790562 1_555
Co3_1 Sn1_1 2.863914 1_555
Co3_1 Sn0_7 2.863914 1_555
Co3_2 U1_2 2.682387 1_555
Co3_2 U1_3 2.682387 1_554
Co3_2 U0_3 2.790562 1_554
Co3_2 U0_2 2.790562 1_555
Co3_2 U3_0 2.790562 1_565
Co3_2 U3_1 2.790562 1_564
Co3_2 Sn1_2 2.863914 1_555
Co3_2 Sn0_4 2.863914 1_565
Co3_3 U1_2 2.682387 1_555
Co3_3 U1_3 2.682387 1_555
Co3_3 U0_3 2.790562 1_555
Co3_3 U0_2 2.790562 1_555
Co3_3 U3_0 2.790562 1_565
Co3_3 U3_1 2.790562 1_565
Co3_3 Sn1_3 2.863914 1_555
Co3_3 Sn0_5 2.863914 1_565
Co3_4 U1_4 2.682387 1_555
Co3_4 U1_5 2.682387 1_554
Co3_4 U0_5 2.790562 1_554
Co3_4 U0_4 2.790562 1_555
Co3_4 U3_6 2.790562 1_555
Co3_4 U3_7 2.790562 1_554
Co3_4 Sn1_4 2.863914 1_555
Co3_4 Sn0_2 2.863914 1_655
Co3_5 U1_4 2.682387 1_555
Co3_5 U1_5 2.682387 1_555
Co3_5 U0_4 2.790562 1_555
Co3_5 U0_5 2.790562 1_555
Co3_5 U3_7 2.790562 1_555
Co3_5 U3_6 2.790562 1_555
Co3_5 Sn1_5 2.863914 1_555
Co3_5 Sn0_3 2.863914 1_655
Co3_6 U1_7 2.682387 1_554
Co3_6 U1_6 2.682387 1_555
Co3_6 U0_7 2.790562 1_554
Co3_6 U0_6 2.790562 1_555
Co3_6 U3_5 2.790562 1_564
Co3_6 U3_4 2.790562 1_565
Co3_6 Sn1_6 2.863914 1_555
Co3_6 Sn0_0 2.863914 1_665
Co3_7 U1_6 2.682387 1_555
Co3_7 U1_7 2.682387 1_555
Co3_7 U0_6 2.790562 1_555
Co3_7 U0_7 2.790562 1_555
Co3_7 U3_5 2.790562 1_565
Co3_7 U3_4 2.790562 1_565
Co3_7 Sn1_7 2.863914 1_555
Co3_7 Sn0_1 2.863914 1_665
Sn0_0 U1_7 3.225692 1_444
Sn0_0 U3_4 3.225692 1_455
Sn0_0 U1_6 3.225692 1_445
Sn0_0 U3_5 3.225692 1_454
Sn0_0 U0_3 3.225692 1_544
Sn0_0 U0_2 3.225692 1_545
Sn0_0 U2_0 3.225692 1_555
Sn0_0 U2_1 3.225692 1_554
Sn0_0 Sn0_1 3.386607 1_554
Sn0_0 Sn0_1 3.386607 1_555
Sn0_1 U1_7 3.225692 1_445
Sn0_1 U3_4 3.225692 1_455
Sn0_1 U3_5 3.225692 1_455
Sn0_1 U1_6 3.225692 1_445
Sn0_1 U0_2 3.225692 1_545
Sn0_1 U0_3 3.225692 1_545
Sn0_1 U2_1 3.225692 1_555
Sn0_1 U2_0 3.225692 1_555
Sn0_2 U3_6 3.225692 1_455
Sn0_2 U3_7 3.225692 1_454
Sn0_2 U1_5 3.225692 1_454
Sn0_2 U1_4 3.225692 1_455
Sn0_2 U0_1 3.225692 1_554
Sn0_2 U0_0 3.225692 1_555
Sn0_2 U2_3 3.225692 1_554
Sn0_2 U2_2 3.225692 1_555
Sn0_2 Sn0_3 3.386607 1_555
Sn0_2 Sn0_3 3.386607 1_554
Sn0_3 U3_7 3.225692 1_455
Sn0_3 U3_6 3.225692 1_455
Sn0_3 U1_5 3.225692 1_455
Sn0_3 U1_4 3.225692 1_455
Sn0_3 U0_0 3.225692 1_555
Sn0_3 U0_1 3.225692 1_555
Sn0_3 U2_2 3.225692 1_555
Sn0_3 U2_3 3.225692 1_555
Sn0_4 U1_2 3.225692 1_545
Sn0_4 U1_3 3.225692 1_544
Sn0_4 U3_0 3.225692 1_555
Sn0_4 U3_1 3.225692 1_554
Sn0_4 U2_5 3.225692 1_554
Sn0_4 U2_4 3.225692 1_555
Sn0_4 U0_7 3.225692 1_544
Sn0_4 U0_6 3.225692 1_545
Sn0_4 Sn0_5 3.386607 1_555
Sn0_4 Sn0_5 3.386607 1_554
Sn0_5 U1_2 3.225692 1_545
Sn0_5 U1_3 3.225692 1_545
Sn0_5 U3_1 3.225692 1_555
Sn0_5 U3_0 3.225692 1_555
Sn0_5 U2_5 3.225692 1_555
Sn0_5 U2_4 3.225692 1_555
Sn0_5 U0_7 3.225692 1_545
Sn0_5 U0_6 3.225692 1_545
Sn0_6 U1_1 3.225692 1_554
Sn0_6 U1_0 3.225692 1_555
Sn0_6 U3_2 3.225692 1_555
Sn0_6 U3_3 3.225692 1_554
Sn0_6 U0_5 3.225692 1_554
Sn0_6 U0_4 3.225692 1_555
Sn0_6 U2_6 3.225692 1_555
Sn0_6 U2_7 3.225692 1_554
Sn0_6 Sn0_7 3.386607 1_555
Sn0_6 Sn0_7 3.386607 1_554
Sn0_7 U1_0 3.225692 1_555
Sn0_7 U1_1 3.225692 1_555
Sn0_7 U3_2 3.225692 1_555
Sn0_7 U3_3 3.225692 1_555
Sn0_7 U0_4 3.225692 1_555
Sn0_7 U0_5 3.225692 1_555
Sn0_7 U2_6 3.225692 1_555
Sn0_7 U2_7 3.225692 1_555
Sn1_0 U2_0 3.225692 1_555
Sn1_0 U2_1 3.225692 1_554
Sn1_0 U3_1 3.225692 1_554
Sn1_0 U3_0 3.225692 1_555
Sn1_0 U0_1 3.225692 1_554
Sn1_0 U0_0 3.225692 1_555
Sn1_0 U1_1 3.225692 1_554
Sn1_0 U1_0 3.225692 1_555
Sn1_0 Sn1_1 3.386607 1_555
Sn1_0 Sn1_1 3.386607 1_554
Sn1_1 U2_0 3.225692 1_555
Sn1_1 U2_1 3.225692 1_555
Sn1_1 U3_0 3.225692 1_555
Sn1_1 U3_1 3.225692 1_555
Sn1_1 U0_1 3.225692 1_555
Sn1_1 U0_0 3.225692 1_555
Sn1_1 U1_0 3.225692 1_555
Sn1_1 U1_1 3.225692 1_555
Sn1_2 U2_3 3.225692 1_554
Sn1_2 U2_2 3.225692 1_555
Sn1_2 U3_2 3.225692 1_555
Sn1_2 U3_3 3.225692 1_554
Sn1_2 U0_3 3.225692 1_554
Sn1_2 U0_2 3.225692 1_555
Sn1_2 U1_3 3.225692 1_554
Sn1_2 U1_2 3.225692 1_555
Sn1_2 Sn1_3 3.386607 1_554
Sn1_2 Sn1_3 3.386607 1_555
Sn1_3 U2_3 3.225692 1_555
Sn1_3 U2_2 3.225692 1_555
Sn1_3 U3_2 3.225692 1_555
Sn1_3 U3_3 3.225692 1_555
Sn1_3 U0_2 3.225692 1_555
Sn1_3 U0_3 3.225692 1_555
Sn1_3 U1_3 3.225692 1_555
Sn1_3 U1_2 3.225692 1_555
Sn1_4 U2_5 3.225692 1_554
Sn1_4 U2_4 3.225692 1_555
Sn1_4 U0_4 3.225692 1_555
Sn1_4 U0_5 3.225692 1_554
Sn1_4 U1_5 3.225692 1_554
Sn1_4 U3_4 3.225692 1_555
Sn1_4 U1_4 3.225692 1_555
Sn1_4 U3_5 3.225692 1_554
Sn1_4 Sn1_5 3.386607 1_554
Sn1_4 Sn1_5 3.386607 1_555
Sn1_5 U2_5 3.225692 1_555
Sn1_5 U2_4 3.225692 1_555
Sn1_5 U0_4 3.225692 1_555
Sn1_5 U0_5 3.225692 1_555
Sn1_5 U3_4 3.225692 1_555
Sn1_5 U1_5 3.225692 1_555
Sn1_5 U1_4 3.225692 1_555
Sn1_5 U3_5 3.225692 1_555
Sn1_6 U2_6 3.225692 1_555
Sn1_6 U2_7 3.225692 1_554
Sn1_6 U0_6 3.225692 1_555
Sn1_6 U0_7 3.225692 1_554
Sn1_6 U3_7 3.225692 1_554
Sn1_6 U3_6 3.225692 1_555
Sn1_6 U1_6 3.225692 1_555
Sn1_6 U1_7 3.225692 1_554
Sn1_6 Sn1_7 3.386607 1_554
Sn1_6 Sn1_7 3.386607 1_555
Sn1_7 U2_6 3.225692 1_555
Sn1_7 U2_7 3.225692 1_555
Sn1_7 U0_6 3.225692 1_555
Sn1_7 U0_7 3.225692 1_555
Sn1_7 U3_6 3.225692 1_555
Sn1_7 U3_7 3.225692 1_555
Sn1_7 U1_6 3.225692 1_555
Sn1_7 U1_7 3.225692 1_555
