# generated using pymatgen
data_Na4HfScSi2PO12
_symmetry_space_group_name_H-M   'P 1'
_cell_length_a   9.16554308
_cell_length_b   9.16554275
_cell_length_c   22.79376024
_cell_angle_alpha   89.90580774
_cell_angle_beta   90.09419227
_cell_angle_gamma   119.84374908
_symmetry_Int_Tables_number   1
_chemical_formula_structural   Na4HfScSi2PO12
_chemical_formula_sum   'Na24 Hf6 Sc6 Si12 P6 O72'
_cell_volume   1660.90141358
_cell_formula_units_Z   6
loop_
 _symmetry_equiv_pos_site_id
 _symmetry_equiv_pos_as_xyz
  1  'x, y, z'
loop_
 _atom_site_type_symbol
 _atom_site_label
 _atom_site_symmetry_multiplicity
 _atom_site_fract_x
 _atom_site_fract_y
 _atom_site_fract_z
 _atom_site_occupancy
  Na  Na0  1  0.63988539  0.00422488  0.25043130  1
  Na  Na1  1  0.36819840  0.36654075  0.24773480  1
  Na  Na2  1  0.99272394  0.62833275  0.24986616  1
  Na  Na3  1  0.63345925  0.63180160  0.74773480  1
  Na  Na4  1  0.99577512  0.36011461  0.75043130  1
  Na  Na5  1  0.37166725  0.00727606  0.74986616  1
  Na  Na6  1  0.30655239  0.33755788  0.58376430  1
  Na  Na7  1  0.03486540  0.69987375  0.58106780  1
  Na  Na8  1  0.65939094  0.96166575  0.58319916  1
  Na  Na9  1  0.30012625  0.96513460  0.08106780  1
  Na  Na10  1  0.66244212  0.69344761  0.08376430  1
  Na  Na11  1  0.03833425  0.34060906  0.08319916  1
  Na  Na12  1  0.97321839  0.67089188  0.91709830  1
  Na  Na13  1  0.70153140  0.03320775  0.91440180  1
  Na  Na14  1  0.32605694  0.29499975  0.91653316  1
  Na  Na15  1  0.96679225  0.29846860  0.41440180  1
  Na  Na16  1  0.32910812  0.02678161  0.41709830  1
  Na  Na17  1  0.70500025  0.67394306  0.41653316  1
  Na  Na18  1  0.99790970  0.99463907  0.49820276  1
  Na  Na19  1  0.00536093  0.00209030  0.99820276  1
  Na  Na20  1  0.66457670  0.32797207  0.83153576  1
  Na  Na21  1  0.67202793  0.33542330  0.33153576  1
  Na  Na22  1  0.33124270  0.66130607  0.16486976  1
  Na  Na23  1  0.33869393  0.66875730  0.66486976  1
  Hf  Hf0  1  0.99856364  0.99958537  0.64897819  1
  Hf  Hf1  1  0.00041463  0.00143636  0.14897819  1
  Hf  Hf2  1  0.66523064  0.33291837  0.98231119  1
  Hf  Hf3  1  0.66708163  0.33476936  0.48231119  1
  Hf  Hf4  1  0.33189664  0.66625237  0.31564519  1
  Hf  Hf5  1  0.33374763  0.66810336  0.81564519  1
  Sc  Sc0  1  0.99054001  0.99419344  0.35061049  1
  Sc  Sc1  1  0.00580656  0.00945999  0.85061049  1
  Sc  Sc2  1  0.65720701  0.32752644  0.68394349  1
  Sc  Sc3  1  0.67247356  0.34279299  0.18394349  1
  Sc  Sc4  1  0.32387301  0.66086044  0.01727749  1
  Sc  Sc5  1  0.33913956  0.67612699  0.51727749  1
  Si  Si0  1  0.70607155  0.70584168  0.25032617  1
  Si  Si1  1  0.99862751  0.29271029  0.25077943  1
  Si  Si2  1  0.29415832  0.29392845  0.75032617  1
  Si  Si3  1  0.70728971  0.00137249  0.75077943  1
  Si  Si4  1  0.37273855  0.03917468  0.58365917  1
  Si  Si5  1  0.66529451  0.62604329  0.58411243  1
  Si  Si6  1  0.96082532  0.62726145  0.08365917  1
  Si  Si7  1  0.37395671  0.33470549  0.08411243  1
  Si  Si8  1  0.03940455  0.37250868  0.91699317  1
  Si  Si9  1  0.33196051  0.95937729  0.91744643  1
  Si  Si10  1  0.62749132  0.96059545  0.41699317  1
  Si  Si11  1  0.04062271  0.66803949  0.41744643  1
  P  P0  1  0.29212207  0.00104505  0.25103641  1
  P  P1  1  0.99895495  0.70787793  0.75103641  1
  P  P2  1  0.95878907  0.33437805  0.58436941  1
  P  P3  1  0.66562195  0.04121093  0.08436941  1
  P  P4  1  0.62545507  0.66771205  0.91770341  1
  P  P5  1  0.33228795  0.37454493  0.41770341  1
  O  O0  1  0.21227235  0.03139029  0.30476883  1
  O  O1  1  0.82572612  0.79044939  0.30699727  1
  O  O2  1  0.96997872  0.17570211  0.30773797  1
  O  O3  1  0.20955061  0.17427388  0.80699727  1
  O  O4  1  0.96860971  0.78772765  0.80476883  1
  O  O5  1  0.82429789  0.03002128  0.80773797  1
  O  O6  1  0.79368757  0.96497595  0.69289153  1
  O  O7  1  0.17128409  0.20605338  0.69270203  1
  O  O8  1  0.03262238  0.82265319  0.69573106  1
  O  O9  1  0.79394662  0.82871591  0.19270203  1
  O  O10  1  0.03502405  0.20631243  0.19289153  1
  O  O11  1  0.17734681  0.96737762  0.19573106  1
  O  O12  1  0.87893935  0.36472329  0.63810183  1
  O  O13  1  0.49239312  0.12378239  0.64033027  1
  O  O14  1  0.63664572  0.50903511  0.64107097  1
  O  O15  1  0.87621761  0.50760688  0.14033027  1
  O  O16  1  0.63527671  0.12106065  0.13810183  1
  O  O17  1  0.49096489  0.36335428  0.14107097  1
  O  O18  1  0.46035457  0.29830895  0.02622453  1
  O  O19  1  0.83795109  0.53938638  0.02603503  1
  O  O20  1  0.69928938  0.15598619  0.02906406  1
  O  O21  1  0.46061362  0.16204891  0.52603503  1
  O  O22  1  0.70169105  0.53964543  0.52622453  1
  O  O23  1  0.84401381  0.30071062  0.52906406  1
  O  O24  1  0.54560535  0.69805729  0.97143583  1
  O  O25  1  0.15905912  0.45711639  0.97366427  1
  O  O26  1  0.30331172  0.84236911  0.97440497  1
  O  O27  1  0.54288361  0.84094088  0.47366427  1
  O  O28  1  0.30194271  0.45439465  0.47143583  1
  O  O29  1  0.15763089  0.69668828  0.47440497  1
  O  O30  1  0.12702057  0.63164295  0.35955853  1
  O  O31  1  0.50461709  0.87272038  0.35936903  1
  O  O32  1  0.36595538  0.48932019  0.36239806  1
  O  O33  1  0.12727962  0.49538291  0.85936903  1
  O  O34  1  0.36835705  0.87297943  0.85955853  1
  O  O35  1  0.51067981  0.63404462  0.86239806  1
  O  O36  1  0.02473366  0.83665972  0.41088761  1
  O  O37  1  0.81464417  0.98210210  0.41143480  1
  O  O38  1  0.17878645  0.19823529  0.40987155  1
  O  O39  1  0.01789790  0.18535583  0.91143480  1
  O  O40  1  0.16334028  0.97526634  0.91088761  1
  O  O41  1  0.80176471  0.82121355  0.90987155  1
  O  O42  1  0.97355362  0.17113578  0.58948074  1
  O  O43  1  0.18570545  0.02419169  0.58998047  1
  O  O44  1  0.83706139  0.81403604  0.58955044  1
  O  O45  1  0.97580831  0.81429455  0.08998047  1
  O  O46  1  0.82886422  0.02644638  0.08948074  1
  O  O47  1  0.18596396  0.16293861  0.08955044  1
  O  O48  1  0.69140066  0.16999272  0.74422061  1
  O  O49  1  0.48131117  0.31543510  0.74476780  1
  O  O50  1  0.84545345  0.53156829  0.74320455  1
  O  O51  1  0.68456490  0.51868883  0.24476780  1
  O  O52  1  0.83000728  0.30859934  0.24422061  1
  O  O53  1  0.46843171  0.15454655  0.24320455  1
  O  O54  1  0.64022062  0.50446878  0.92281374  1
  O  O55  1  0.85237245  0.35752469  0.92331347  1
  O  O56  1  0.50372839  0.14736904  0.92288344  1
  O  O57  1  0.64247531  0.14762755  0.42331347  1
  O  O58  1  0.49553122  0.35977938  0.42281374  1
  O  O59  1  0.85263096  0.49627161  0.42288344  1
  O  O60  1  0.35806666  0.50332672  0.07755461  1
  O  O61  1  0.14797717  0.64876910  0.07810180  1
  O  O62  1  0.51211945  0.86490229  0.07653855  1
  O  O63  1  0.35123090  0.85202283  0.57810180  1
  O  O64  1  0.49667328  0.64193334  0.57755461  1
  O  O65  1  0.13509771  0.48788055  0.57653855  1
  O  O66  1  0.30688662  0.83780278  0.25614774  1
  O  O67  1  0.51903845  0.69085869  0.25664747  1
  O  O68  1  0.17039439  0.48070304  0.25621744  1
  O  O69  1  0.30914131  0.48096155  0.75664747  1
  O  O70  1  0.16219722  0.69311338  0.75614774  1
  O  O71  1  0.51929696  0.82960561  0.75621744  1
loop_
_geom_bond_atom_site_label_1
_geom_bond_atom_site_label_2
_geom_bond_distance
_geom_bond_site_symmetry_2
Na0 O52 2.449588 1_555
Na0 O67 2.515791 1_545
Na0 O53 2.558949 1_555
Na0 O66 2.650697 1_545
Na0 O31 2.769237 1_545
Na0 O16 2.782065 1_555
Na0 O9 2.930345 1_545
Na0 O2 2.931062 1_555
Na1 O68 2.511779 1_555
Na1 O51 2.516575 1_555
Na1 O53 2.531336 1_555
Na1 O67 2.588351 1_555
Na1 O17 2.687003 1_555
Na1 O32 2.851425 1_555
Na1 O10 2.928261 1_555
Na1 O0 2.965184 1_555
Na2 O51 2.484999 1_555
Na2 O52 2.545489 1_555
Na2 O66 2.548581 1_655
Na2 O68 2.587531 1_655
Na2 O15 2.724458 1_555
Na2 O30 2.778580 1_655
Na2 O1 2.919415 1_555
Na2 O11 2.967060 1_655
Na3 O71 2.511779 1_555
Na3 O49 2.516575 1_555
Na3 O50 2.531336 1_555
Na3 O69 2.588352 1_555
Na3 O14 2.687003 1_555
Na3 O35 2.851425 1_555
Na3 O6 2.928261 1_555
Na3 O4 2.965184 1_555
Na4 O48 2.449588 1_555
Na4 O69 2.515791 1_655
Na4 O50 2.558949 1_555
Na4 O70 2.650697 1_655
Na4 O33 2.769237 1_655
Na4 O12 2.782065 1_555
Na4 O7 2.930345 1_655
Na4 O5 2.931062 1_555
Na5 O49 2.484999 1_555
Na5 O48 2.545490 1_555
Na5 O70 2.548581 1_545
Na5 O71 2.587531 1_545
Na5 O13 2.724458 1_555
Na5 O34 2.778580 1_545
Na5 O3 2.919415 1_555
Na5 O8 2.967060 1_545
Na6 O64 2.449593 1_555
Na6 O43 2.515791 1_555
Na6 O65 2.558963 1_555
Na6 O42 2.650697 1_455
Na6 O7 2.769237 1_555
Na6 O28 2.782050 1_555
Na6 O21 2.930345 1_555
Na6 O14 2.931062 1_555
Na7 O44 2.511779 1_455
Na7 O63 2.516566 1_555
Na7 O65 2.531320 1_555
Na7 O43 2.588351 1_565
Na7 O29 2.686976 1_555
Na7 O8 2.851425 1_555
Na7 O22 2.928261 1_455
Na7 O12 2.965184 1_455
Na8 O63 2.485008 1_555
Na8 O64 2.545481 1_555
Na8 O42 2.548581 1_565
Na8 O44 2.587531 1_555
Na8 O27 2.724437 1_555
Na8 O6 2.778580 1_555
Na8 O13 2.919415 1_565
Na8 O23 2.967060 1_565
Na9 O47 2.511779 1_565
Na9 O61 2.516566 1_555
Na9 O62 2.531320 1_555
Na9 O45 2.588352 1_455
Na9 O26 2.686976 1_554
Na9 O11 2.851425 1_555
Na9 O18 2.928261 1_565
Na9 O16 2.965184 1_565
Na10 O60 2.449593 1_555
Na10 O45 2.515791 1_555
Na10 O62 2.558963 1_555
Na10 O46 2.650697 1_565
Na10 O9 2.769237 1_555
Na10 O24 2.782050 1_554
Na10 O19 2.930345 1_555
Na10 O17 2.931062 1_555
Na11 O61 2.485008 1_555
Na11 O60 2.545481 1_555
Na11 O46 2.548581 1_455
Na11 O47 2.587531 1_555
Na11 O25 2.724437 1_554
Na11 O10 2.778580 1_555
Na11 O15 2.919415 1_455
Na11 O20 2.967060 1_455
Na12 O40 2.449588 1_655
Na12 O55 2.515799 1_555
Na12 O41 2.558949 1_555
Na12 O54 2.650688 1_555
Na12 O19 2.769217 1_556
Na12 O4 2.782065 1_555
Na12 O33 2.930345 1_655
Na12 O26 2.931062 1_655
Na13 O56 2.511761 1_555
Na13 O39 2.516575 1_655
Na13 O41 2.531336 1_545
Na13 O55 2.588341 1_555
Na13 O5 2.687003 1_555
Na13 O20 2.851399 1_556
Na13 O34 2.928261 1_545
Na13 O24 2.965184 1_545
Na14 O39 2.484999 1_555
Na14 O40 2.545489 1_545
Na14 O54 2.548585 1_555
Na14 O56 2.587546 1_555
Na14 O3 2.724458 1_555
Na14 O18 2.778566 1_556
Na14 O25 2.919415 1_555
Na14 O35 2.967060 1_555
Na15 O59 2.511761 1_555
Na15 O37 2.516575 1_545
Na15 O38 2.531336 1_655
Na15 O57 2.588341 1_555
Na15 O2 2.687003 1_555
Na15 O23 2.851399 1_555
Na15 O30 2.928261 1_655
Na15 O28 2.965184 1_655
Na16 O36 2.449588 1_545
Na16 O57 2.515799 1_555
Na16 O38 2.558949 1_555
Na16 O58 2.650687 1_555
Na16 O21 2.769217 1_555
Na16 O0 2.782065 1_555
Na16 O31 2.930345 1_545
Na16 O29 2.931062 1_545
Na17 O37 2.484999 1_555
Na17 O36 2.545490 1_655
Na17 O58 2.548585 1_555
Na17 O59 2.587546 1_555
Na17 O1 2.724458 1_555
Na17 O22 2.778566 1_555
Na17 O27 2.919415 1_555
Na17 O32 2.967060 1_555
Na18 O36 2.546272 1_655
Na18 O37 2.558120 1_555
Na18 O44 2.611291 1_555
Na18 O43 2.634077 1_665
Na18 O38 2.684031 1_665
Na18 O42 2.714319 1_565
Na19 O40 2.546272 1_545
Na19 O39 2.558120 1_555
Na19 O47 2.611291 1_556
Na19 O45 2.634077 1_446
Na19 O41 2.684031 1_445
Na19 O46 2.714319 1_456
Na20 O48 2.546272 1_555
Na20 O49 2.558120 1_555
Na20 O56 2.611291 1_555
Na20 O55 2.634077 1_555
Na20 O50 2.684031 1_555
Na20 O54 2.714319 1_555
Na21 O52 2.546272 1_555
Na21 O51 2.558120 1_555
Na21 O59 2.611291 1_555
Na21 O57 2.634077 1_555
Na21 O53 2.684031 1_555
Na21 O58 2.714319 1_555
Na22 O60 2.546272 1_555
Na22 O61 2.558120 1_555
Na22 O68 2.611291 1_555
Na22 O67 2.634077 1_555
Na22 O62 2.684031 1_555
Na22 O66 2.714319 1_555
Na23 O64 2.546272 1_555
Na23 O63 2.558120 1_555
Na23 O71 2.611291 1_555
Na23 O69 2.634077 1_555
Na23 O65 2.684031 1_555
Na23 O70 2.714319 1_555
Hf0 O6 2.010211 1_555
Hf0 O7 2.024827 1_665
Hf0 O8 2.088066 1_655
Hf0 O44 2.100896 1_555
Hf0 O43 2.103087 1_665
Hf0 O42 2.171343 1_565
Hf1 O10 2.010211 1_555
Hf1 O9 2.024827 1_445
Hf1 O11 2.088066 1_545
Hf1 O47 2.100896 1_555
Hf1 O45 2.103087 1_445
Hf1 O46 2.171343 1_455
Hf2 O18 2.010211 1_556
Hf2 O19 2.024827 1_556
Hf2 O20 2.088066 1_556
Hf2 O56 2.100896 1_555
Hf2 O55 2.103087 1_555
Hf2 O54 2.171343 1_555
Hf3 O22 2.010211 1_555
Hf3 O21 2.024827 1_555
Hf3 O23 2.088066 1_555
Hf3 O59 2.100896 1_555
Hf3 O57 2.103087 1_555
Hf3 O58 2.171343 1_555
Hf4 O30 2.010211 1_555
Hf4 O31 2.024827 1_555
Hf4 O32 2.088066 1_555
Hf4 O68 2.100896 1_555
Hf4 O67 2.103087 1_555
Hf4 O66 2.171343 1_555
Hf5 O34 2.010211 1_555
Hf5 O33 2.024827 1_555
Hf5 O35 2.088066 1_555
Hf5 O71 2.100896 1_555
Hf5 O69 2.103087 1_555
Hf5 O70 2.171343 1_555
O0 P0 1.523053 1_555
O0 Sc0 2.157430 1_445
O1 Si0 1.620159 1_555
O1 Sc0 1.987717 1_555
O2 Si1 1.618930 1_555
O2 Sc0 2.015992 1_545
O3 Si2 1.620159 1_555
O3 Sc1 1.987717 1_555
O4 P1 1.523053 1_555
O4 Sc1 2.157430 1_665
O5 Si3 1.618930 1_555
O5 Sc1 2.015992 1_655
O6 Si3 1.657468 1_565
O7 Si2 1.654716 1_555
O8 P1 1.569990 1_455
O9 Si0 1.654716 1_555
O10 Si1 1.657468 1_455
O11 P0 1.569990 1_565
O12 P2 1.523053 1_555
O12 Sc2 2.157430 1_555
O13 Si4 1.620159 1_555
O13 Sc2 1.987717 1_555
O14 Si5 1.618930 1_555
O14 Sc2 2.015992 1_555
O15 Si6 1.620159 1_555
O15 Sc3 1.987717 1_555
O16 P3 1.523053 1_555
O16 Sc3 2.157430 1_555
O17 Si7 1.618930 1_555
O17 Sc3 2.015992 1_555
O18 Si7 1.657468 1_555
O19 Si6 1.654716 1_555
O20 P3 1.569990 1_555
O21 Si4 1.654716 1_555
O22 Si5 1.657468 1_555
O23 P2 1.569990 1_555
O24 P4 1.523053 1_555
O24 Sc4 2.157430 1_556
O25 Si8 1.620159 1_555
O25 Sc4 1.987717 1_556
O26 Si9 1.618930 1_555
O26 Sc4 2.015992 1_556
O27 Si10 1.620159 1_555
O27 Sc5 1.987717 1_555
O28 P5 1.523053 1_555
O28 Sc5 2.157430 1_555
O29 Si11 1.618930 1_555
O29 Sc5 2.015992 1_555
O30 Si11 1.657468 1_555
O31 Si10 1.654716 1_555
O32 P5 1.569990 1_555
O33 Si8 1.654716 1_555
O34 Si9 1.657468 1_555
O35 P4 1.569990 1_555
O36 Si11 1.629507 1_555
O36 Sc0 2.124423 1_455
O37 Si10 1.631398 1_555
O37 Sc0 2.088678 1_555
O38 P5 1.536227 1_555
O38 Sc0 2.255703 1_445
O39 Si8 1.631398 1_555
O39 Sc1 2.088678 1_555
O40 Si9 1.629508 1_555
O40 Sc1 2.124423 1_565
O41 P4 1.536227 1_555
O41 Sc1 2.255703 1_665
O42 P2 1.572070 1_555
O43 Si4 1.656729 1_555
O44 Si5 1.662238 1_555
O45 Si6 1.656729 1_555
O46 P3 1.572070 1_555
O47 Si7 1.662238 1_555
O48 Si3 1.629507 1_555
O48 Sc2 2.124423 1_555
O49 Si2 1.631398 1_555
O49 Sc2 2.088678 1_555
O50 P1 1.536227 1_555
O50 Sc2 2.255703 1_555
O51 Si0 1.631398 1_555
O51 Sc3 2.088678 1_555
O52 Si1 1.629508 1_555
O52 Sc3 2.124423 1_555
O53 P0 1.536227 1_555
O53 Sc3 2.255703 1_555
O54 P4 1.572083 1_555
O55 Si8 1.656714 1_655
O56 Si9 1.662235 1_545
O57 Si10 1.656714 1_545
O58 P5 1.572083 1_555
O59 Si11 1.662235 1_655
O60 Si7 1.629520 1_555
O60 Sc4 2.124423 1_555
O61 Si6 1.631383 1_455
O61 Sc4 2.088678 1_555
O62 P3 1.536222 1_565
O62 Sc4 2.255703 1_555
O63 Si4 1.631383 1_565
O63 Sc5 2.088678 1_555
O64 Si5 1.629520 1_555
O64 Sc5 2.124423 1_555
O65 P2 1.536222 1_455
O65 Sc5 2.255703 1_555
O66 P0 1.572070 1_565
O67 Si0 1.656729 1_555
O68 Si1 1.662238 1_455
O69 Si2 1.656729 1_555
O70 P1 1.572070 1_455
O71 Si3 1.662238 1_565
