# generated using pymatgen
data_Na12Ca2Ta10Si15(SO24)3
_symmetry_space_group_name_H-M   'P 1'
_cell_length_a   9.02322872
_cell_length_b   9.03109119
_cell_length_c   22.79712462
_cell_angle_alpha   90.25803826
_cell_angle_beta   89.92323037
_cell_angle_gamma   119.83581476
_symmetry_Int_Tables_number   1
_chemical_formula_structural   Na12Ca2Ta10Si15(SO24)3
_chemical_formula_sum   'Na12 Ca2 Ta10 Si15 S3 O72'
_cell_volume   1611.47806676
_cell_formula_units_Z   1
loop_
 _symmetry_equiv_pos_site_id
 _symmetry_equiv_pos_as_xyz
  1  'x, y, z'
loop_
 _atom_site_type_symbol
 _atom_site_label
 _atom_site_symmetry_multiplicity
 _atom_site_fract_x
 _atom_site_fract_y
 _atom_site_fract_z
 _atom_site_occupancy
  Na  Na0  1  0.37398373  0.36485116  0.24285174  1
  Na  Na1  1  0.99164525  0.61979588  0.24129377  1
  Na  Na2  1  0.63423510  0.62593029  0.74317735  1
  Na  Na3  1  0.37889909  0.00774444  0.74112451  1
  Na  Na4  1  0.02253632  0.67951400  0.58446056  1
  Na  Na5  1  0.65655499  0.97791801  0.58396539  1
  Na  Na6  1  0.00974095  0.00958429  0.49783181  1
  Na  Na7  1  0.00275804  0.99861359  0.00030552  1
  Na  Na8  1  0.69159345  0.33386227  0.83132813  1
  Na  Na9  1  0.66561479  0.30978058  0.33227465  1
  Na  Na10  1  0.32887283  0.66389155  0.16161350  1
  Na  Na11  1  0.32210334  0.64853694  0.66339889  1
  Ca  Ca0  1  0.68074542  0.33585125  0.68480585  1
  Ca  Ca1  1  0.66789949  0.32587380  0.18381982  1
  Ta  Ta0  1  0.00815203  0.01184428  0.35931726  1
  Ta  Ta1  1  0.98927524  0.99121541  0.85984661  1
  Ta  Ta2  1  0.99096074  0.98995032  0.64305565  1
  Ta  Ta3  1  0.02094105  0.01020345  0.14303069  1
  Ta  Ta4  1  0.66545616  0.34609531  0.97816011  1
  Ta  Ta5  1  0.66581788  0.33011109  0.47927943  1
  Ta  Ta6  1  0.32214256  0.65867706  0.01689873  1
  Ta  Ta7  1  0.33441137  0.66636099  0.51591648  1
  Ta  Ta8  1  0.32606347  0.66618042  0.31545820  1
  Ta  Ta9  1  0.33069533  0.67409672  0.81590329  1
  Si  Si0  1  0.28747890  0.99524165  0.25293823  1
  Si  Si1  1  0.00131943  0.28819348  0.25205466  1
  Si  Si2  1  0.00425298  0.71403660  0.75228133  1
  Si  Si3  1  0.70860691  0.99611199  0.75297440  1
  Si  Si4  1  0.96619758  0.33706069  0.58192232  1
  Si  Si5  1  0.37223605  0.04039837  0.58406441  1
  Si  Si6  1  0.65520118  0.61786482  0.58505510  1
  Si  Si7  1  0.96257622  0.62972701  0.08566881  1
  Si  Si8  1  0.37863939  0.34329276  0.08513885  1
  Si  Si9  1  0.61607878  0.66461944  0.91634988  1
  Si  Si10  1  0.03934030  0.37629058  0.91549477  1
  Si  Si11  1  0.33813180  0.96312291  0.91795751  1
  Si  Si12  1  0.62272756  0.95856499  0.41580265  1
  Si  Si13  1  0.34247197  0.38140075  0.41486574  1
  Si  Si14  1  0.03665046  0.66361370  0.41700852  1
  S  S0  1  0.71289955  0.72434791  0.25148393  1
  S  S1  1  0.27540662  0.28651413  0.75199006  1
  S  S2  1  0.66614528  0.03368117  0.08093712  1
  O  O0  1  0.16982395  0.99817652  0.30729109  1
  O  O1  1  0.81481235  0.80855543  0.30461002  1
  O  O2  1  0.98969652  0.16938878  0.30829768  1
  O  O3  1  0.19162418  0.18607011  0.80481529  1
  O  O4  1  0.00576225  0.83350363  0.80714399  1
  O  O5  1  0.83134003  0.00891192  0.80799203  1
  O  O6  1  0.80596810  0.97462472  0.69318223  1
  O  O7  1  0.17489507  0.20396761  0.69779954  1
  O  O8  1  0.03165343  0.83382297  0.69227890  1
  O  O9  1  0.79359555  0.82396872  0.19757372  1
  O  O10  1  0.02243860  0.18600675  0.19387886  1
  O  O11  1  0.16535500  0.96851952  0.19272605  1
  O  O12  1  0.91357411  0.40251933  0.63857488  1
  O  O13  1  0.47801246  0.08998141  0.64397793  1
  O  O14  1  0.62119572  0.53100542  0.64746492  1
  O  O15  1  0.91043043  0.53649604  0.14714980  1
  O  O16  1  0.63288008  0.09589643  0.13498587  1
  O  O17  1  0.46549929  0.37238040  0.14745013  1
  O  O18  1  0.47893774  0.31035965  0.02966451  1
  O  O19  1  0.83251256  0.51966728  0.03002804  1
  O  O20  1  0.69421757  0.14612317  0.02962740  1
  O  O21  1  0.47497845  0.16790360  0.52882105  1
  O  O22  1  0.69884992  0.52455224  0.53081125  1
  O  O23  1  0.83088171  0.29434529  0.52676647  1
  O  O24  1  0.52414026  0.69457892  0.97173451  1
  O  O25  1  0.16243034  0.46978216  0.97184490  1
  O  O26  1  0.30689475  0.83418200  0.97134922  1
  O  O27  1  0.53392886  0.84304780  0.47364893  1
  O  O28  1  0.31220553  0.47781572  0.46970001  1
  O  O29  1  0.16112964  0.69559986  0.47287293  1
  O  O30  1  0.13323501  0.63603431  0.35845949  1
  O  O31  1  0.49754524  0.85632768  0.35916354  1
  O  O32  1  0.36234417  0.49519859  0.35596774  1
  O  O33  1  0.13839923  0.50193643  0.85877430  1
  O  O34  1  0.36514430  0.86925370  0.85799953  1
  O  O35  1  0.50202751  0.63728799  0.85680530  1
  O  O36  1  0.01639107  0.83193990  0.40832418  1
  O  O37  1  0.81064344  0.97502611  0.40771706  1
  O  O38  1  0.16973927  0.19028381  0.41017679  1
  O  O39  1  0.02594863  0.19045250  0.90741137  1
  O  O40  1  0.17040283  0.98496664  0.90865323  1
  O  O41  1  0.81023224  0.83100036  0.91018878  1
  O  O42  1  0.97278035  0.15796864  0.59155395  1
  O  O43  1  0.17869724  0.01829525  0.59003309  1
  O  O44  1  0.83759059  0.81342040  0.58967261  1
  O  O45  1  0.97025495  0.81909745  0.08963404  1
  O  O46  1  0.82389049  0.01694189  0.08669625  1
  O  O47  1  0.18260476  0.16461304  0.08831701  1
  O  O48  1  0.66935662  0.14874352  0.75539089  1
  O  O49  1  0.44617845  0.30401564  0.74904737  1
  O  O50  1  0.82953301  0.53886965  0.75564736  1
  O  O51  1  0.69453422  0.55313900  0.24927228  1
  O  O52  1  0.84848030  0.32729376  0.25433278  1
  O  O53  1  0.46371209  0.16877848  0.25365521  1
  O  O54  1  0.63956826  0.49648688  0.92461062  1
  O  O55  1  0.85181867  0.35620562  0.92576603  1
  O  O56  1  0.50910150  0.14797020  0.92688164  1
  O  O57  1  0.63991608  0.14567996  0.42330553  1
  O  O58  1  0.50838342  0.35999764  0.42455423  1
  O  O59  1  0.85260173  0.49255519  0.42519794  1
  O  O60  1  0.34764008  0.50365813  0.07052955  1
  O  O61  1  0.15734567  0.66634645  0.07023814  1
  O  O62  1  0.51700368  0.85904637  0.07114460  1
  O  O63  1  0.33800831  0.84536689  0.56992715  1
  O  O64  1  0.50823899  0.66886656  0.57103234  1
  O  O65  1  0.15722059  0.49699221  0.56749543  1
  O  O66  1  0.29412770  0.81505892  0.25649667  1
  O  O67  1  0.53735085  0.70400130  0.25544046  1
  O  O68  1  0.18754079  0.47456336  0.25595054  1
  O  O69  1  0.29471393  0.46120065  0.75526850  1
  O  O70  1  0.18371023  0.70438296  0.75629753  1
  O  O71  1  0.52285344  0.80978251  0.75646655  1
loop_
_geom_bond_atom_site_label_1
_geom_bond_atom_site_label_2
_geom_bond_distance
_geom_bond_site_symmetry_2
Na0 O53 2.298421 1_555
Na0 O17 2.314579 1_555
Na0 O68 2.357047 1_555
Na0 O51 2.526633 1_555
Na0 O67 2.671571 1_555
Na0 O32 2.853337 1_555
Na0 O10 2.968589 1_555
Na1 O15 2.269429 1_555
Na1 O52 2.312095 1_555
Na1 O66 2.426345 1_655
Na1 O51 2.444695 1_555
Na1 O68 2.696077 1_655
Na1 O30 2.933839 1_655
Na1 O11 2.952297 1_655
Na2 O50 2.277376 1_555
Na2 O14 2.322332 1_555
Na2 O71 2.348153 1_555
Na2 O49 2.538409 1_555
Na2 O69 2.672288 1_555
Na2 O35 2.873122 1_555
Na2 O6 2.964635 1_555
Na3 O48 2.296515 1_555
Na3 O13 2.367432 1_555
Na3 O70 2.435798 1_545
Na3 O49 2.437204 1_555
Na3 O71 2.706176 1_545
Na3 O34 2.924634 1_545
Na3 O8 2.936171 1_545
Na4 O63 2.493130 1_555
Na4 O44 2.503551 1_455
Na4 O12 2.514683 1_455
Na4 O65 2.515933 1_555
Na4 O43 2.658910 1_565
Na4 O8 2.801063 1_555
Na4 O29 2.805414 1_555
Na4 O22 2.812804 1_455
Na5 O64 2.438230 1_555
Na5 O42 2.489542 1_565
Na5 O63 2.524371 1_555
Na5 O13 2.663716 1_565
Na5 O44 2.703577 1_555
Na5 O27 2.769736 1_555
Na5 O23 2.810032 1_565
Na5 O6 2.840301 1_555
Na6 O38 2.533357 1_555
Na6 O43 2.576088 1_555
Na6 O36 2.609049 1_545
Na6 O42 2.624702 1_455
Na6 O37 2.644130 1_445
Na6 O44 2.687279 1_445
Na7 O45 2.533076 1_455
Na7 O47 2.543130 1_565
Na7 O46 2.601042 1_465
Na7 O40 2.616064 1_554
Na7 O41 2.625792 1_454
Na7 O39 2.683515 1_564
Na8 O48 2.339491 1_555
Na8 O50 2.384058 1_555
Na8 O55 2.545601 1_555
Na8 O56 2.747311 1_555
Na8 O54 2.748620 1_555
Na8 O49 2.812031 1_555
Na9 O52 2.374833 1_555
Na9 O53 2.415099 1_555
Na9 O57 2.498242 1_555
Na9 O59 2.695520 1_555
Na9 O58 2.695868 1_555
Na9 O51 2.818570 1_555
Na10 O60 2.578799 1_555
Na10 O61 2.603544 1_555
Na10 O68 2.651622 1_555
Na10 O66 2.652997 1_555
Na10 O62 2.699614 1_555
Na10 O67 2.751536 1_555
Na11 O65 2.611949 1_555
Na11 O70 2.628478 1_555
Na11 O69 2.631402 1_555
Na11 O64 2.641153 1_555
Na11 O71 2.694636 1_555
Na11 O63 2.738714 1_555
Ca0 O12 2.151299 1_555
Ca0 O14 2.253149 1_555
Ca0 O13 2.255521 1_555
Ca0 O50 2.302624 1_555
Ca0 O48 2.303589 1_555
Ca0 O49 2.469262 1_555
Ca1 O17 2.229277 1_555
Ca1 O15 2.230152 1_555
Ca1 O16 2.231596 1_555
Ca1 O52 2.285882 1_555
Ca1 O53 2.313768 1_555
Ca1 O51 2.445266 1_555
O0 Si0 1.639291 1_555
O0 Ta0 1.929577 1_565
O1 S0 1.479737 1_555
O1 Ta0 2.183516 1_665
O2 Si1 1.645065 1_655
O2 Ta0 1.912086 1_655
O3 S1 1.472979 1_555
O3 Ta1 2.195680 1_445
O4 Si2 1.643715 1_555
O4 Ta1 1.920744 1_455
O5 Si3 1.639502 1_545
O5 Ta1 1.920077 1_545
O6 Si3 1.682704 1_555
O6 Ta2 1.969207 1_555
O7 S1 1.492121 1_555
O7 Ta2 2.199936 1_445
O8 Si2 1.687842 1_555
O8 Ta2 1.978041 1_455
O9 S0 1.485185 1_555
O9 Ta3 2.272005 1_665
O10 Si1 1.676360 1_555
O10 Ta3 1.956222 1_555
O11 Si0 1.700942 1_555
O11 Ta3 1.902401 1_565
O12 Si4 1.585479 1_555
O13 Si5 1.596797 1_555
O14 Si6 1.582128 1_555
O15 Si7 1.584119 1_555
O16 S2 1.443811 1_555
O17 Si8 1.579845 1_555
O18 Si8 1.663804 1_555
O18 Ta4 1.942403 1_554
O19 Si7 1.675161 1_555
O19 Ta4 1.940232 1_554
O20 S2 1.489141 1_555
O20 Ta4 2.278546 1_554
O21 Si5 1.649001 1_555
O21 Ta5 1.971402 1_555
O22 Si6 1.647435 1_555
O22 Ta5 2.003521 1_555
O23 Si4 1.658835 1_555
O23 Ta5 1.995192 1_555
O24 Si9 1.604075 1_555
O24 Ta6 1.974160 1_556
O25 Si10 1.630237 1_555
O25 Ta6 1.893118 1_556
O26 Si11 1.613143 1_555
O26 Ta6 1.960006 1_556
O27 Si12 1.627029 1_555
O27 Ta7 1.966342 1_555
O28 Si13 1.619048 1_555
O28 Ta7 1.922126 1_555
O29 Si14 1.626232 1_555
O29 Ta7 1.973475 1_555
O30 Si14 1.677197 1_555
O30 Ta8 1.894460 1_555
O31 Si12 1.658624 1_555
O31 Ta8 1.918497 1_555
O32 Si13 1.649131 1_555
O32 Ta8 1.964964 1_555
O33 Si10 1.661158 1_555
O33 Ta9 1.925623 1_555
O34 Si11 1.685431 1_555
O34 Ta9 1.887953 1_555
O35 Si9 1.646397 1_555
O35 Ta9 1.971802 1_555
O36 Si14 1.631824 1_555
O36 Ta0 2.007540 1_565
O37 Si12 1.636995 1_555
O37 Ta0 1.978006 1_665
O38 Si13 1.655820 1_555
O38 Ta0 1.927922 1_555
O39 Si10 1.631196 1_555
O39 Ta1 1.978334 1_445
O40 Si11 1.634863 1_555
O40 Ta1 2.002375 1_455
O41 Si9 1.651843 1_555
O41 Ta1 1.924763 1_555
O42 Si4 1.663292 1_555
O42 Ta2 1.993017 1_545
O43 Si5 1.661573 1_555
O43 Ta2 1.990490 1_445
O44 Si6 1.716188 1_555
O44 Ta2 1.931210 1_555
O45 Si7 1.678853 1_555
O45 Ta3 1.966426 1_665
O46 S2 1.510253 1_555
O46 Ta3 2.220118 1_655
O47 Si8 1.702525 1_555
O47 Ta3 1.901314 1_555
O48 Si3 1.585422 1_545
O49 S1 1.470160 1_555
O50 Si2 1.585269 1_655
O51 S0 1.471432 1_555
O52 Si1 1.585409 1_655
O53 Si0 1.582784 1_545
O54 Si9 1.645875 1_555
O54 Ta4 1.928977 1_555
O55 Si10 1.626251 1_655
O55 Ta4 2.026224 1_555
O56 Si11 1.625838 1_545
O56 Ta4 2.008055 1_555
O57 Si12 1.626528 1_545
O57 Ta5 2.012831 1_555
O58 Si13 1.617569 1_555
O58 Ta5 2.009132 1_555
O59 Si14 1.621215 1_655
O59 Ta5 2.015758 1_555
O60 Si8 1.641446 1_555
O60 Ta6 1.960712 1_555
O61 Si7 1.656143 1_455
O61 Ta6 1.947168 1_555
O62 S2 1.494652 1_565
O62 Ta6 2.171429 1_555
O63 Si5 1.659961 1_565
O63 Ta7 2.015080 1_555
O64 Si6 1.637998 1_555
O64 Ta7 2.002279 1_555
O65 Si4 1.640382 1_455
O65 Ta7 1.963742 1_555
O66 Si0 1.660257 1_555
O66 Ta8 2.024944 1_555
O67 S0 1.503713 1_555
O67 Ta8 2.229957 1_555
O68 Si1 1.687952 1_555
O68 Ta8 2.056328 1_555
O69 S1 1.500095 1_555
O69 Ta9 2.251445 1_555
O70 Si2 1.667035 1_555
O70 Ta9 2.012315 1_555
O71 Si3 1.685736 1_555
O71 Ta9 2.058752 1_555
