# generated using pymatgen
data_MgCo4(PO3)12
_symmetry_space_group_name_H-M   'P 1'
_cell_length_a   8.59449948
_cell_length_b   8.62101780
_cell_length_c   8.95299468
_cell_angle_alpha   89.14167829
_cell_angle_beta   91.88734562
_cell_angle_gamma   89.30582416
_symmetry_Int_Tables_number   1
_chemical_formula_structural   MgCo4(PO3)12
_chemical_formula_sum   'Mg1 Co4 P12 O36'
_cell_volume   662.87019557
_cell_formula_units_Z   1
loop_
 _symmetry_equiv_pos_site_id
 _symmetry_equiv_pos_as_xyz
  1  'x, y, z'
loop_
 _atom_site_type_symbol
 _atom_site_label
 _atom_site_symmetry_multiplicity
 _atom_site_fract_x
 _atom_site_fract_y
 _atom_site_fract_z
 _atom_site_occupancy
  Mg  Mg0  1  0.48325700  0.40892900  0.95726100  1
  Co  Co0  1  0.86937000  0.34937300  0.36254700  1
  Co  Co1  1  0.64705700  0.65495900  0.81489800  1
  Co  Co2  1  0.36671700  0.14152900  0.62898900  1
  Co  Co3  1  0.12532000  0.85742300  0.14875300  1
  P  P0  1  0.68592400  0.01258500  0.81146700  1
  P  P1  1  0.71124600  0.68638300  0.43451000  1
  P  P2  1  0.81347000  0.29925200  0.95225900  1
  P  P3  1  0.82187400  0.98639500  0.30556500  1
  P  P4  1  0.03244200  0.31754700  0.68985400  1
  P  P5  1  0.16522600  0.49310900  0.21509300  1
  P  P6  1  0.20012600  0.81949400  0.55330900  1
  P  P7  1  0.28935800  0.20527400  0.06752100  1
  P  P8  1  0.31065300  0.50839700  0.67249600  1
  P  P9  1  0.44729300  0.66792100  0.19992900  1
  P  P10  1  0.54113500  0.17740100  0.31473000  1
  P  P11  1  0.97159200  0.82404600  0.80829200  1
  O  O0  1  0.64317100  0.30852000  0.36491800  1
  O  O1  1  0.96468100  0.28669300  0.85357300  1
  O  O2  1  0.89924000  0.36630400  0.58499000  1
  O  O3  1  0.89845100  0.12320400  0.38079500  1
  O  O4  1  0.04902000  0.79232600  0.65000100  1
  O  O5  1  0.09119900  0.87952100  0.92052000  1
  O  O6  1  0.08134100  0.62828400  0.14222100  1
  O  O7  1  0.09015000  0.40094100  0.33726900  1
  O  O8  1  0.13391500  0.18328200  0.64993000  1
  O  O9  1  0.14012000  0.46638800  0.72915300  1
  O  O10  1  0.15142400  0.85084800  0.39440100  1
  O  O11  1  0.19191900  0.08520500  0.13358600  1
  O  O12  1  0.21391500  0.37830900  0.08158400  1
  O  O13  1  0.27792500  0.64542400  0.55735600  1
  O  O14  1  0.31387200  0.92073000  0.63676000  1
  O  O15  1  0.34890100  0.21448600  0.91009800  1
  O  O16  1  0.33454000  0.54211900  0.27882200  1
  O  O17  1  0.35290000  0.80557300  0.14434500  1
  O  O18  1  0.40487300  0.56780200  0.80731300  1
  O  O19  1  0.38364000  0.37240800  0.59785200  1
  O  O20  1  0.41879100  0.11592300  0.41276400  1
  O  O21  1  0.45616500  0.23585600  0.15873300  1
  O  O22  1  0.55185000  0.72062600  0.33848000  1
  O  O23  1  0.87762300  0.68502100  0.84764600  1
  O  O24  1  0.61079100  0.87362100  0.88099100  1
  O  O25  1  0.59544800  0.10225000  0.69149700  1
  O  O26  1  0.90123900  0.91520200  0.17612100  1
  O  O27  1  0.64712100  0.03812200  0.25213500  1
  O  O28  1  0.66731600  0.65480400  0.59106200  1
  O  O29  1  0.69389600  0.40994000  0.87619000  1
  O  O30  1  0.73576000  0.13009100  0.94474400  1
  O  O31  1  0.78862600  0.85666900  0.43056900  1
  O  O32  1  0.81281200  0.57393800  0.35313500  1
  O  O33  1  0.85891000  0.32631300  0.11149700  1
  O  O34  1  0.85488400  0.96648200  0.75168400  1
  O  O35  1  0.54245900  0.58081400  0.08978300  1
loop_
_geom_bond_atom_site_label_1
_geom_bond_atom_site_label_2
_geom_bond_distance
_geom_bond_site_symmetry_2
Mg0 O29 1.972553 1_555
Mg0 O35 1.973215 1_556
Mg0 O18 1.998752 1_555
Mg0 O15 2.087496 1_555
Mg0 O21 2.342976 1_556
Mg0 O12 2.615892 1_556
Co0 O3 1.966435 1_555
Co0 O7 1.973589 1_655
Co0 O0 1.980650 1_555
Co0 O32 1.990228 1_555
Co0 O2 2.007323 1_555
Co0 O33 2.258327 1_555
Co1 O24 2.008030 1_555
Co1 O23 2.014030 1_555
Co1 O28 2.017276 1_555
Co1 O29 2.203443 1_555
Co1 O18 2.220751 1_555
Co2 O14 1.963043 1_545
Co2 O19 2.013372 1_555
Co2 O20 2.015953 1_555
Co2 O8 2.043836 1_555
Co2 O25 2.048918 1_555
Co2 O15 2.612209 1_555
Co3 O17 2.002868 1_555
Co3 O26 2.007138 1_455
Co3 O6 2.017086 1_555
Co3 O11 2.055869 1_565
Co3 O5 2.060379 1_554
Co3 O10 2.203147 1_555
O0 P10 1.503987 1_555
O1 P2 1.598863 1_555
O1 P4 1.614530 1_655
O2 P4 1.508116 1_655
O3 P3 1.513694 1_545
O4 P6 1.601931 1_555
O4 P11 1.611001 1_455
O5 P11 1.501094 1_455
O6 P5 1.493096 1_555
O7 P5 1.508992 1_555
O8 P4 1.495532 1_555
O9 P8 1.610251 1_555
O9 P4 1.627140 1_555
O10 P6 1.489583 1_555
O11 P7 1.468982 1_555
O12 P5 1.625333 1_555
O12 P7 1.627611 1_555
O13 P8 1.572778 1_555
O13 P6 1.634883 1_555
O14 P6 1.505888 1_555
O15 P7 1.516494 1_556
O16 P5 1.609041 1_555
O16 P9 1.631502 1_555
O17 P9 1.498812 1_555
O18 P8 1.529407 1_555
O19 P8 1.499266 1_555
O20 P10 1.489038 1_555
O21 P10 1.625016 1_555
O21 P7 1.652316 1_555
O22 P9 1.583043 1_555
O22 P1 1.614946 1_555
O23 P11 1.497472 1_555
O24 P0 1.504167 1_565
O25 P0 1.503798 1_555
O26 P3 1.499424 1_555
O27 P10 1.616423 1_555
O27 P3 1.616630 1_545
O28 P1 1.485627 1_555
O29 P2 1.530096 1_555
O30 P2 1.612738 1_555
O30 P0 1.626814 1_555
O31 P3 1.605065 1_555
O31 P1 1.619356 1_555
O32 P1 1.508316 1_555
O33 P2 1.488267 1_554
O34 P0 1.611429 1_565
O34 P11 1.639765 1_555
O35 P9 1.505255 1_555
