# generated using pymatgen
data_MgMnVP2(O4F)2
_symmetry_space_group_name_H-M   'P 1'
_cell_length_a   5.07677022
_cell_length_b   5.49700498
_cell_length_c   7.52559248
_cell_angle_alpha   109.37561382
_cell_angle_beta   103.81910927
_cell_angle_gamma   94.21341006
_symmetry_Int_Tables_number   1
_chemical_formula_structural   MgMnVP2(O4F)2
_chemical_formula_sum   'Mg1 Mn1 V1 P2 O8 F2'
_cell_volume   189.69545790
_cell_formula_units_Z   1
loop_
 _symmetry_equiv_pos_site_id
 _symmetry_equiv_pos_as_xyz
  1  'x, y, z'
loop_
 _atom_site_type_symbol
 _atom_site_label
 _atom_site_symmetry_multiplicity
 _atom_site_fract_x
 _atom_site_fract_y
 _atom_site_fract_z
 _atom_site_occupancy
  Mg  Mg0  1  0.08324600  0.02209900  0.41097600  1
  Mn  Mn0  1  0.54107100  0.51290900  0.50646800  1
  V  V0  1  0.98651900  0.00248400  0.99010000  1
  P  P0  1  0.42908900  0.12432400  0.76119200  1
  P  P1  1  0.56071200  0.86735500  0.23297600  1
  O  O0  1  0.27442300  0.13473000  0.92167100  1
  O  O1  1  0.32984700  0.85373300  0.59196700  1
  O  O2  1  0.33198100  0.31975100  0.66204100  1
  O  O3  1  0.24243400  0.82834100  0.16221200  1
  O  O4  1  0.73817000  0.19063600  0.86637500  1
  O  O5  1  0.67347200  0.66006900  0.30984800  1
  O  O6  1  0.68766800  0.13714400  0.39904300  1
  O  O7  1  0.69591500  0.86313000  0.06409200  1
  F  F0  1  0.11073600  0.27705700  0.26052200  1
  F  F1  1  0.88971600  0.70623700  0.75337500  1
loop_
_geom_bond_atom_site_label_1
_geom_bond_atom_site_label_2
_geom_bond_distance
_geom_bond_site_symmetry_2
Mg0 O2 2.084943 1_555
Mg0 O1 2.114525 1_545
Mg0 O6 2.139918 1_455
Mg0 O3 2.195109 1_545
Mg0 O5 2.549072 1_445
Mn0 O5 2.117806 1_555
Mn0 O2 2.208579 1_555
Mn0 O6 2.208938 1_555
Mn0 O1 2.213350 1_555
O0 P0 1.578648 1_555
O0 V0 1.838976 1_455
O1 P0 1.553910 1_565
O2 P0 1.545255 1_555
O3 P1 1.550068 1_555
O3 V0 2.117436 1_464
O4 P0 1.533875 1_555
O4 V0 1.948359 1_555
O5 P1 1.528317 1_555
O6 P1 1.556163 1_545
O7 P1 1.576864 1_555
O7 V0 1.892847 1_564
F0 V0 2.006567 1_454
F0 Mg0 2.089344 1_555
F0 Mn0 2.437106 1_555
F1 V0 1.899046 1_565
F1 Mn0 2.134736 1_555
