# generated using pymatgen
data_Na7Mg3SnP5SO24
_symmetry_space_group_name_H-M   'P 1'
_cell_length_a   8.99723293
_cell_length_b   8.97497421
_cell_length_c   22.08793971
_cell_angle_alpha   89.68318855
_cell_angle_beta   90.24762371
_cell_angle_gamma   119.94236232
_symmetry_Int_Tables_number   1
_chemical_formula_structural   Na7Mg3SnP5SO24
_chemical_formula_sum   'Na21 Mg9 Sn3 P15 S3 O72'
_cell_volume   1545.51281898
_cell_formula_units_Z   3
loop_
 _symmetry_equiv_pos_site_id
 _symmetry_equiv_pos_as_xyz
  1  'x, y, z'
loop_
 _atom_site_type_symbol
 _atom_site_label
 _atom_site_symmetry_multiplicity
 _atom_site_fract_x
 _atom_site_fract_y
 _atom_site_fract_z
 _atom_site_occupancy
  Na  Na0  1  0.62416702  0.99924921  0.25145654  1
  Na  Na1  1  0.36465614  0.35731844  0.25305416  1
  Na  Na2  1  0.00908080  0.64273650  0.25071594  1
  Na  Na3  1  0.64508512  0.63570807  0.74733049  1
  Na  Na4  1  0.99263966  0.35543847  0.74781592  1
  Na  Na5  1  0.29682027  0.33999871  0.58726386  1
  Na  Na6  1  0.02712105  0.69562373  0.58785209  1
  Na  Na7  1  0.67519481  0.96449100  0.58556234  1
  Na  Na8  1  0.29643331  0.96280925  0.08265915  1
  Na  Na9  1  0.66506948  0.70138890  0.07903573  1
  Na  Na10  1  0.03562450  0.33372918  0.07953268  1
  Na  Na11  1  0.97288900  0.67698009  0.91039444  1
  Na  Na12  1  0.32503145  0.29648773  0.91003646  1
  Na  Na13  1  0.32405663  0.02182033  0.41159471  1
  Na  Na14  1  0.69629823  0.67401498  0.41737753  1
  Na  Na15  1  0.99344132  0.01167000  0.49705788  1
  Na  Na16  1  0.98933913  0.00058037  0.99488266  1
  Na  Na17  1  0.65519443  0.30997774  0.82652670  1
  Na  Na18  1  0.66876366  0.32586470  0.33447553  1
  Na  Na19  1  0.33207933  0.67312814  0.16309015  1
  Na  Na20  1  0.33360645  0.66981946  0.66781133  1
  Mg  Mg0  1  0.00744693  0.00863837  0.35413908  1
  Mg  Mg1  1  0.99639890  0.00180168  0.84860992  1
  Mg  Mg2  1  0.99539849  0.00013110  0.65595473  1
  Mg  Mg3  1  0.00616220  0.99846932  0.14721503  1
  Mg  Mg4  1  0.66703965  0.33470595  0.68754793  1
  Mg  Mg5  1  0.66025619  0.32706701  0.18067216  1
  Mg  Mg6  1  0.33523954  0.66837122  0.01652579  1
  Mg  Mg7  1  0.33085259  0.65928667  0.51342726  1
  Mg  Mg8  1  0.33079337  0.67034942  0.32324280  1
  Sn  Sn0  1  0.66689190  0.32837657  0.98229857  1
  Sn  Sn1  1  0.67720488  0.33730757  0.48178858  1
  Sn  Sn2  1  0.33583852  0.67401237  0.81620922  1
  P  P0  1  0.29640701  0.99921437  0.25007153  1
  P  P1  1  0.29715295  0.29538032  0.75132392  1
  P  P2  1  0.00239317  0.70662260  0.75046023  1
  P  P3  1  0.70387626  0.00018859  0.74927515  1
  P  P4  1  0.96359057  0.33340253  0.58587299  1
  P  P5  1  0.66647250  0.62967816  0.58425324  1
  P  P6  1  0.96053792  0.62698007  0.08548173  1
  P  P7  1  0.66769148  0.03578536  0.08649044  1
  P  P8  1  0.37073591  0.33504425  0.08489171  1
  P  P9  1  0.63087129  0.66898198  0.91948313  1
  P  P10  1  0.03789345  0.37062180  0.91895899  1
  P  P11  1  0.33320035  0.96238903  0.91977233  1
  P  P12  1  0.63039584  0.96327025  0.41722049  1
  P  P13  1  0.33315394  0.36962240  0.41735744  1
  P  P14  1  0.03746372  0.66706874  0.41635372  1
  S  S0  1  0.70562798  0.70588391  0.25001931  1
  S  S1  1  0.00026312  0.29344783  0.24920635  1
  S  S2  1  0.37372650  0.04042640  0.58348477  1
  O  O0  1  0.21062834  0.02583959  0.30616085  1
  O  O1  1  0.81020260  0.78890733  0.30460686  1
  O  O2  1  0.97293226  0.18161854  0.30210562  1
  O  O3  1  0.21254583  0.19436494  0.80907245  1
  O  O4  1  0.97970734  0.79037602  0.80728916  1
  O  O5  1  0.81885685  0.02576765  0.80372013  1
  O  O6  1  0.77336392  0.96258019  0.69071650  1
  O  O7  1  0.18628686  0.21908357  0.69389186  1
  O  O8  1  0.02766274  0.81074036  0.69194946  1
  O  O9  1  0.78580420  0.81199763  0.19523604  1
  O  O10  1  0.02242202  0.21523178  0.19338191  1
  O  O11  1  0.18590490  0.97252697  0.19294749  1
  O  O12  1  0.87577781  0.36064786  0.64022055  1
  O  O13  1  0.48757009  0.12823655  0.63436884  1
  O  O14  1  0.63702711  0.51010960  0.63783639  1
  O  O15  1  0.87405139  0.51250153  0.14111242  1
  O  O16  1  0.63785729  0.11806744  0.14257234  1
  O  O17  1  0.48519736  0.36495105  0.14057061  1
  O  O18  1  0.45240983  0.29917814  0.02729842  1
  O  O19  1  0.84543301  0.54573463  0.02706778  1
  O  O20  1  0.70746190  0.15796670  0.02997056  1
  O  O21  1  0.44602237  0.14451168  0.52549012  1
  O  O22  1  0.69759737  0.54876822  0.52464618  1
  O  O23  1  0.84217171  0.29038605  0.52837525  1
  O  O24  1  0.54388305  0.68524796  0.97610576  1
  O  O25  1  0.14663780  0.45777611  0.97519362  1
  O  O26  1  0.30993103  0.85580459  0.97675941  1
  O  O27  1  0.54536888  0.85502572  0.47421018  1
  O  O28  1  0.31751023  0.45408652  0.47489305  1
  O  O29  1  0.14589770  0.69221313  0.47328973  1
  O  O30  1  0.11483768  0.63996394  0.35839713  1
  O  O31  1  0.51924178  0.88677052  0.35971629  1
  O  O32  1  0.36831881  0.48209867  0.35989973  1
  O  O33  1  0.11760116  0.48868400  0.86119514  1
  O  O34  1  0.36588450  0.88150239  0.86288235  1
  O  O35  1  0.51331106  0.62969564  0.86172174  1
  O  O36  1  0.01145145  0.82515751  0.41132222  1
  O  O37  1  0.80848333  0.98122041  0.41034069  1
  O  O38  1  0.18154957  0.18579635  0.41214481  1
  O  O39  1  0.02206572  0.19500662  0.91155803  1
  O  O40  1  0.17448618  0.98319911  0.91240368  1
  O  O41  1  0.81202225  0.81958508  0.91207368  1
  O  O42  1  0.98590059  0.17295030  0.58905922  1
  O  O43  1  0.20100171  0.02294280  0.58826808  1
  O  O44  1  0.83168083  0.80813174  0.58714077  1
  O  O45  1  0.97573972  0.80598996  0.08844696  1
  O  O46  1  0.82925076  0.01742910  0.09064339  1
  O  O47  1  0.19109535  0.17301702  0.08858115  1
  O  O48  1  0.68283399  0.15921404  0.74317231  1
  O  O49  1  0.48150531  0.32885174  0.74550672  1
  O  O50  1  0.84263200  0.52346067  0.74628258  1
  O  O51  1  0.69067403  0.53220110  0.24563601  1
  O  O52  1  0.84673705  0.31685981  0.24538191  1
  O  O53  1  0.47935946  0.16353833  0.24593221  1
  O  O54  1  0.64254030  0.49668632  0.92158501  1
  O  O55  1  0.85858725  0.36306636  0.92154204  1
  O  O56  1  0.49543168  0.14909625  0.92174181  1
  O  O57  1  0.63927704  0.14438817  0.42176201  1
  O  O58  1  0.50321406  0.35207624  0.42121815  1
  O  O59  1  0.85005566  0.50485858  0.41980823  1
  O  O60  1  0.35343307  0.49679292  0.07798391  1
  O  O61  1  0.13935280  0.64440066  0.07907951  1
  O  O62  1  0.50549570  0.85819572  0.07849837  1
  O  O63  1  0.35643569  0.86754248  0.57744632  1
  O  O64  1  0.50585163  0.64996843  0.57766607  1
  O  O65  1  0.14010538  0.49867813  0.57736132  1
  O  O66  1  0.31664177  0.83576923  0.25470061  1
  O  O67  1  0.52979265  0.68338218  0.25437705  1
  O  O68  1  0.15782806  0.46642858  0.25493606  1
  O  O69  1  0.31207184  0.48256668  0.75512102  1
  O  O70  1  0.16374916  0.67922504  0.75444919  1
  O  O71  1  0.52281324  0.82866832  0.75548814  1
loop_
_geom_bond_atom_site_label_1
_geom_bond_atom_site_label_2
_geom_bond_distance
_geom_bond_site_symmetry_2
Na0 O66 2.400309 1_555
Na0 O53 2.408491 1_565
Na0 O67 2.521370 1_555
Na0 O52 2.540367 1_565
Na0 O31 2.582589 1_555
Na0 O16 2.603765 1_565
Na1 O53 2.431185 1_555
Na1 O68 2.498757 1_555
Na1 O67 2.536224 1_555
Na1 O51 2.549467 1_555
Na1 O32 2.610856 1_555
Na1 O17 2.702045 1_555
Na1 O0 2.829662 1_555
Na1 O10 2.984690 1_555
Na2 O66 2.424959 1_555
Na2 O51 2.522918 1_455
Na2 O68 2.532770 1_555
Na2 O52 2.537560 1_455
Na2 O30 2.562514 1_555
Na2 O15 2.700246 1_455
Na2 O11 2.862696 1_555
Na2 O1 2.952749 1_455
Na3 O49 2.388908 1_555
Na3 O50 2.441831 1_555
Na3 O71 2.479699 1_555
Na3 O69 2.605153 1_555
Na3 O14 2.659346 1_555
Na3 O35 2.784444 1_555
Na3 O6 2.845014 1_555
Na3 O4 2.925567 1_555
Na4 O48 2.445561 1_555
Na4 O50 2.475384 1_555
Na4 O69 2.512438 1_655
Na4 O70 2.524487 1_655
Na4 O12 2.604224 1_555
Na4 O33 2.762673 1_655
Na4 O5 2.842886 1_555
Na4 O7 2.848576 1_655
Na5 O42 2.426613 1_455
Na5 O65 2.462227 1_555
Na5 O64 2.468872 1_555
Na5 O43 2.528151 1_555
Na5 O7 2.574541 1_555
Na5 O28 2.651269 1_555
Na5 O14 2.876139 1_555
Na6 O44 2.425689 1_455
Na6 O65 2.451870 1_555
Na6 O8 2.524950 1_555
Na6 O43 2.547525 1_565
Na6 O63 2.578898 1_555
Na6 O29 2.757357 1_555
Na6 O12 2.849409 1_455
Na6 O22 2.925748 1_455
Na7 O44 2.433969 1_555
Na7 O64 2.455593 1_555
Na7 O42 2.469775 1_565
Na7 O6 2.484356 1_555
Na7 O63 2.553539 1_555
Na7 O27 2.689843 1_555
Na7 O23 2.827827 1_565
Na7 O13 2.946421 1_565
Na8 O61 2.477890 1_555
Na8 O62 2.488678 1_555
Na8 O47 2.502669 1_565
Na8 O45 2.503960 1_455
Na8 O26 2.559725 1_554
Na8 O11 2.653433 1_555
Na8 O18 2.885000 1_565
Na8 O16 2.973482 1_565
Na9 O62 2.461449 1_555
Na9 O60 2.468662 1_555
Na9 O45 2.472884 1_555
Na9 O46 2.472929 1_565
Na9 O24 2.490627 1_554
Na9 O9 2.771396 1_555
Na9 O19 2.863470 1_555
Na9 O17 2.946088 1_555
Na10 O61 2.459194 1_555
Na10 O47 2.466899 1_555
Na10 O60 2.478309 1_555
Na10 O46 2.510178 1_455
Na10 O25 2.535727 1_554
Na10 O10 2.704765 1_555
Na10 O20 2.783186 1_455
Na10 O15 2.984508 1_455
Na11 O41 2.363153 1_555
Na11 O40 2.422707 1_655
Na11 O4 2.477752 1_555
Na11 O55 2.481528 1_555
Na11 O54 2.591220 1_555
Na11 O33 2.821550 1_655
Na11 O19 2.826198 1_556
Na12 O39 2.404796 1_555
Na12 O3 2.432021 1_555
Na12 O40 2.437311 1_545
Na12 O56 2.486878 1_555
Na12 O54 2.515766 1_555
Na12 O35 2.806239 1_555
Na12 O18 2.823104 1_556
Na13 O38 2.386197 1_555
Na13 O36 2.463803 1_545
Na13 O57 2.487343 1_555
Na13 O0 2.545873 1_555
Na13 O58 2.581382 1_555
Na13 O21 2.747011 1_555
Na13 O31 2.832620 1_545
Na13 O29 2.901409 1_545
Na14 O37 2.421447 1_555
Na14 O36 2.461644 1_655
Na14 O59 2.513271 1_555
Na14 O58 2.522205 1_555
Na14 O22 2.619336 1_555
Na14 O1 2.693833 1_555
Na14 O32 2.864324 1_555
Na14 O27 2.880724 1_555
Na15 O37 2.457026 1_545
Na15 O38 2.485777 1_655
Na15 O42 2.522120 1_555
Na15 O36 2.592879 1_645
Na15 O44 2.597134 1_545
Na15 O43 2.708800 1_655
Na16 O41 2.439278 1_545
Na16 O39 2.444424 1_655
Na16 O40 2.531198 1_645
Na16 O46 2.611258 1_556
Na16 O45 2.661767 1_546
Na16 O47 2.678068 1_656
Na17 O48 2.376947 1_555
Na17 O49 2.431062 1_555
Na17 O50 2.533635 1_555
Na17 O56 2.548483 1_555
Na17 O55 2.662291 1_555
Na17 O54 2.731460 1_555
Na18 O57 2.445127 1_555
Na18 O59 2.486965 1_555
Na18 O58 2.514813 1_555
Na18 O53 2.525025 1_555
Na18 O52 2.569316 1_555
Na18 O51 2.630122 1_555
Na19 O61 2.459220 1_555
Na19 O62 2.467436 1_555
Na19 O60 2.532751 1_555
Na19 O66 2.545977 1_555
Na19 O67 2.654451 1_555
Na19 O68 2.664114 1_555
Na20 O70 2.482050 1_555
Na20 O69 2.494661 1_555
Na20 O71 2.502038 1_555
Na20 O64 2.589246 1_555
Na20 O65 2.591542 1_555
Na20 O63 2.603015 1_555
Mg0 O38 2.035250 1_555
Mg0 O0 2.054734 1_555
Mg0 O2 2.070273 1_455
Mg0 O36 2.084271 1_545
Mg0 O37 2.093371 1_445
Mg0 O1 2.179195 1_445
Mg1 O5 1.976859 1_555
Mg1 O3 2.043118 1_655
Mg1 O4 2.046878 1_545
Mg1 O39 2.148828 1_655
Mg1 O41 2.162855 1_545
Mg1 O40 2.196733 1_645
Mg2 O6 2.008040 1_545
Mg2 O8 2.020208 1_645
Mg2 O7 2.037184 1_655
Mg2 O42 2.168452 1_555
Mg2 O44 2.219272 1_545
Mg2 O43 2.311179 1_655
Mg3 O11 2.012221 1_555
Mg3 O45 2.072160 1_455
Mg3 O47 2.072215 1_565
Mg3 O46 2.091583 1_465
Mg3 O9 2.131418 1_455
Mg3 O10 2.140682 1_565
Mg4 O14 2.039483 1_555
Mg4 O48 2.052067 1_555
Mg4 O12 2.062014 1_555
Mg4 O49 2.087671 1_555
Mg4 O50 2.093735 1_555
Mg4 O13 2.107511 1_555
Mg5 O17 1.974880 1_555
Mg5 O16 1.976345 1_555
Mg5 O15 2.009006 1_555
Mg5 O53 2.119706 1_555
Mg5 O52 2.235535 1_555
Mg5 O51 2.246392 1_555
Mg6 O26 2.004371 1_554
Mg6 O24 2.018194 1_554
Mg6 O25 2.022213 1_554
Mg6 O60 2.113640 1_555
Mg6 O62 2.127257 1_555
Mg6 O61 2.168128 1_555
Mg7 O28 1.981500 1_555
Mg7 O29 2.029220 1_555
Mg7 O27 2.043168 1_555
Mg7 O65 2.132202 1_555
Mg7 O64 2.147132 1_555
Mg7 O63 2.267809 1_555
Mg8 O30 1.983510 1_555
Mg8 O31 2.003629 1_555
Mg8 O32 2.043546 1_555
Mg8 O66 2.162084 1_555
Mg8 O68 2.283585 1_555
Mg8 O67 2.312062 1_555
O0 P0 1.543774 1_545
O1 S0 1.481394 1_555
O2 S1 1.475193 1_655
O3 P1 1.528103 1_555
O4 P2 1.532355 1_655
O5 P3 1.524572 1_555
O6 P3 1.549278 1_565
O7 P1 1.545941 1_555
O8 P2 1.540211 1_555
O9 S0 1.483437 1_555
O10 S1 1.484704 1_555
O11 P0 1.546813 1_555
O12 P4 1.526214 1_555
O13 S2 1.458584 1_555
O14 P5 1.525586 1_555
O15 P6 1.538574 1_555
O16 P7 1.537120 1_555
O17 P8 1.536834 1_555
O18 P8 1.584496 1_555
O18 Sn0 2.071090 1_554
O19 P6 1.585549 1_555
O19 Sn0 2.059906 1_554
O20 P7 1.576725 1_555
O20 Sn0 2.029112 1_554
O21 S2 1.524489 1_555
O21 Sn1 2.158307 1_555
O22 P5 1.598725 1_555
O22 Sn1 2.049975 1_555
O23 P4 1.589902 1_555
O23 Sn1 2.011252 1_555
O24 P9 1.524005 1_555
O25 P10 1.532386 1_555
O26 P11 1.527198 1_555
O27 P12 1.538333 1_555
O28 P13 1.525852 1_555
O29 P14 1.535266 1_555
O30 P14 1.537130 1_555
O31 P12 1.548566 1_555
O32 P13 1.549284 1_555
O33 P10 1.580928 1_555
O33 Sn2 2.085118 1_555
O34 P11 1.555274 1_555
O34 Sn2 2.029778 1_555
O35 P9 1.578558 1_555
O35 Sn2 2.081856 1_555
O36 P14 1.552339 1_555
O37 P12 1.536406 1_555
O38 P13 1.532977 1_555
O39 P10 1.519807 1_555
O40 P11 1.537667 1_555
O41 P9 1.520161 1_555
O42 P4 1.551230 1_555
O43 S2 1.486153 1_555
O44 P5 1.549990 1_555
O45 P6 1.544641 1_555
O46 P7 1.544735 1_555
O47 P8 1.545055 1_555
O48 P3 1.535723 1_555
O49 P1 1.536855 1_555
O50 P2 1.555220 1_655
O51 S0 1.499841 1_555
O52 S1 1.499279 1_655
O53 P0 1.571418 1_545
O54 P9 1.601750 1_555
O54 Sn0 2.105628 1_555
O55 P10 1.581774 1_655
O55 Sn0 2.086119 1_555
O56 P11 1.580820 1_545
O56 Sn0 2.070268 1_555
O57 P12 1.590868 1_545
O57 Sn1 2.074591 1_555
O58 P13 1.616304 1_555
O58 Sn1 2.108350 1_555
O59 P14 1.586754 1_655
O59 Sn1 2.053093 1_555
O60 P8 1.542033 1_555
O61 P6 1.543835 1_455
O62 P7 1.542773 1_565
O63 S2 1.486838 1_565
O64 P5 1.550280 1_555
O65 P4 1.551031 1_455
O66 P0 1.568508 1_555
O67 S0 1.495004 1_555
O68 S1 1.496514 1_555
O69 P1 1.619808 1_555
O69 Sn2 2.115424 1_555
O70 P2 1.590860 1_555
O70 Sn2 2.076961 1_555
O71 P3 1.593301 1_565
O71 Sn2 2.055092 1_555
