# generated using pymatgen
data_Na10Ca4Sc4Si3(S3O16)3
_symmetry_space_group_name_H-M   'P 1'
_cell_length_a   18.49155489
_cell_length_b   9.22775831
_cell_length_c   22.99081782
_cell_angle_alpha   90.02170085
_cell_angle_beta   89.29582036
_cell_angle_gamma   119.97958795
_symmetry_Int_Tables_number   1
_chemical_formula_structural   Na10Ca4Sc4Si3(S3O16)3
_chemical_formula_sum   'Na30 Ca12 Sc12 Si9 S27 O144'
_cell_volume   3397.82942046
_cell_formula_units_Z   3
loop_
 _symmetry_equiv_pos_site_id
 _symmetry_equiv_pos_as_xyz
  1  'x, y, z'
loop_
 _atom_site_type_symbol
 _atom_site_label
 _atom_site_symmetry_multiplicity
 _atom_site_fract_x
 _atom_site_fract_y
 _atom_site_fract_z
 _atom_site_occupancy
  Na  Na0  1  0.19085699  0.36954263  0.24193046  1
  Na  Na1  1  0.69210464  0.37587259  0.24168335  1
  Na  Na2  1  0.98727588  0.64723540  0.25784063  1
  Na  Na3  1  0.49003835  0.63990918  0.26381835  1
  Na  Na4  1  0.32785629  0.66031077  0.74554121  1
  Na  Na5  1  0.82361673  0.65430465  0.74410748  1
  Na  Na6  1  0.98882949  0.33497477  0.75512777  1
  Na  Na7  1  0.18643663  0.00271033  0.73830828  1
  Na  Na8  1  0.68939887  0.00671371  0.73870072  1
  Na  Na9  1  0.52239302  0.70692089  0.56884916  1
  Na  Na10  1  0.32307834  0.97536351  0.59075312  1
  Na  Na11  1  0.82225743  0.96779344  0.59052441  1
  Na  Na12  1  0.15501708  0.98452951  0.07992293  1
  Na  Na13  1  0.65556735  0.98495878  0.07940590  1
  Na  Na14  1  0.32488435  0.67633586  0.09235857  1
  Na  Na15  1  0.82488872  0.67719220  0.09355957  1
  Na  Na16  1  0.65521843  -0.00167433  0.42499992  1
  Na  Na17  1  0.35883878  0.67242913  0.40606773  1
  Na  Na18  1  0.01999813  -0.00020370  0.50158466  1
  Na  Na19  1  0.51204835  0.00837792  0.49867855  1
  Na  Na20  1  0.00957102  0.03931846  0.00102456  1
  Na  Na21  1  0.50988950  0.04007372  0.00008290  1
  Na  Na22  1  0.34882197  0.30611884  0.83306343  1
  Na  Na23  1  0.83449700  0.30559229  0.83635783  1
  Na  Na24  1  0.34087354  0.33946076  0.33667627  1
  Na  Na25  1  0.84125507  0.36284494  0.33409905  1
  Na  Na26  1  0.17028355  0.64413053  0.16560059  1
  Na  Na27  1  0.67403111  0.64897929  0.16832184  1
  Na  Na28  1  0.16390818  0.68410787  0.65918444  1
  Na  Na29  1  0.66349755  0.66671849  0.66159128  1
  Ca  Ca0  1  0.99553432  0.99180463  0.35270486  1
  Ca  Ca1  1  0.49799508  0.00052059  0.35037970  1
  Ca  Ca2  1  0.99848650  0.00355330  0.85353739  1
  Ca  Ca3  1  0.49793904  0.00614671  0.85316876  1
  Ca  Ca4  1  0.33324925  0.32387384  0.68320418  1
  Ca  Ca5  1  0.83176732  0.32891884  0.67927255  1
  Ca  Ca6  1  0.33388536  0.33365107  0.18254453  1
  Ca  Ca7  1  0.83416663  0.33390296  0.18251672  1
  Ca  Ca8  1  0.16265215  0.65209687  0.01564169  1
  Ca  Ca9  1  0.66267717  0.65219313  0.01608392  1
  Ca  Ca10  1  0.16089085  0.66597211  0.51801992  1
  Ca  Ca11  1  0.66628845  0.66365447  0.51368184  1
  Sc  Sc0  1  0.00046516  0.99850134  0.64605393  1
  Sc  Sc1  1  0.50064265  0.00873246  0.64952531  1
  Sc  Sc2  1  0.99374552  0.00135573  0.15044577  1
  Sc  Sc3  1  0.49493458  0.00225321  0.14999672  1
  Sc  Sc4  1  0.32502455  0.32819176  0.98374251  1
  Sc  Sc5  1  0.82465108  0.32766394  0.98392376  1
  Sc  Sc6  1  0.32786280  0.32306694  0.48207505  1
  Sc  Sc7  1  0.82675763  0.32625882  0.48712666  1
  Sc  Sc8  1  0.17415208  0.67393521  0.31439742  1
  Sc  Sc9  1  0.66954925  0.67128554  0.31889433  1
  Sc  Sc10  1  0.17530120  0.67856939  0.81815793  1
  Sc  Sc11  1  0.66965827  0.67166828  0.81734162  1
  Si  Si0  1  0.34869243  0.70074797  0.25114894  1
  Si  Si1  1  0.84805259  0.70285259  0.24873202  1
  Si  Si2  1  0.34881288  0.99394948  0.74994335  1
  Si  Si3  1  0.85032712  0.99639466  0.74839056  1
  Si  Si4  1  0.18029360  0.03507549  0.58712976  1
  Si  Si5  1  0.67769983  0.02869695  0.58659019  1
  Si  Si6  1  0.17854288  0.32355800  0.08835976  1
  Si  Si7  1  0.67879936  0.32407924  0.08824020  1
  Si  Si8  1  0.51318699  0.65834303  0.41802787  1
  S  S0  1  0.14488102  0.98833917  0.24823999  1
  S  S1  1  0.64598406  0.98863831  0.24839896  1
  S  S2  1  0.00562279  0.30574563  0.25140284  1
  S  S3  1  0.50547085  0.30647885  0.24997832  1
  S  S4  1  0.14612158  0.30407411  0.75014426  1
  S  S5  1  0.64760958  0.30637190  0.75030467  1
  S  S6  1  0.00449986  0.70779664  0.75122523  1
  S  S7  1  0.50541584  0.71140944  0.75036518  1
  S  S8  1  0.48016494  0.32468362  0.58138830  1
  S  S9  1  0.97962714  0.32153573  0.58445420  1
  S  S10  1  0.33761771  0.63847287  0.58414631  1
  S  S11  1  0.83821900  0.64028243  0.58464475  1
  S  S12  1  0.48007191  0.63858648  0.08268006  1
  S  S13  1  0.98043768  0.63862654  0.08249571  1
  S  S14  1  0.33665407  0.03858417  0.08047151  1
  S  S15  1  0.83708932  0.03953708  0.08024364  1
  S  S16  1  0.31543730  0.65350783  0.91752942  1
  S  S17  1  0.81384328  0.65205549  0.91647227  1
  S  S18  1  0.01190558  0.37240469  0.91445280  1
  S  S19  1  0.51312561  0.37416631  0.91688449  1
  S  S20  1  0.17217448  0.97275279  0.91820005  1
  S  S21  1  0.67148419  0.97161447  0.91786933  1
  S  S22  1  0.31142687  0.96663553  0.41780577  1
  S  S23  1  0.81503126  0.97745330  0.41930406  1
  S  S24  1  0.17000460  0.37473056  0.41583994  1
  S  S25  1  0.67488949  0.37013378  0.41530557  1
  S  S26  1  0.01297329  0.65253412  0.41484309  1
  O  O0  1  0.10805666  0.02334628  0.29934701  1
  O  O1  1  0.61001595  0.01624535  0.30167662  1
  O  O2  1  0.40147595  0.78226001  0.30924305  1
  O  O3  1  0.91407082  0.79612617  0.29944679  1
  O  O4  1  0.49704820  0.21519173  0.30336757  1
  O  O5  1  0.99785830  0.21262618  0.30453307  1
  O  O6  1  0.11483978  0.19630276  0.80181964  1
  O  O7  1  0.61313955  0.20210412  0.80231897  1
  O  O8  1  0.49774979  0.79280802  0.80245927  1
  O  O9  1  0.99429794  0.78326910  0.80414407  1
  O  O10  1  0.40041927  -0.00726086  0.80451740  1
  O  O11  1  0.91402516  0.02989380  0.80018958  1
  O  O12  1  0.39203159  0.96748095  0.68916629  1
  O  O13  1  0.88975468  0.95977047  0.68818350  1
  O  O14  1  0.09275109  0.21709224  0.69907515  1
  O  O15  1  0.59694479  0.22028265  0.69830024  1
  O  O16  1  0.01661893  0.81568088  0.69944180  1
  O  O17  1  0.51740642  0.81740265  0.69716289  1
  O  O18  1  0.39652997  0.81495859  0.19189043  1
  O  O19  1  0.89164600  0.80968159  0.18619522  1
  O  O20  1  0.01405034  0.21631724  0.19915260  1
  O  O21  1  0.51181595  0.21400531  0.19811845  1
  O  O22  1  0.09372410  0.96764295  0.19530732  1
  O  O23  1  0.59320910  0.97394362  0.19698527  1
  O  O24  1  0.44554575  0.35488239  0.63460032  1
  O  O25  1  0.94900239  0.34467031  0.64125389  1
  O  O26  1  0.22897106  0.10699991  0.64810431  1
  O  O27  1  0.73009926  0.10784448  0.64523018  1
  O  O28  1  0.33059212  0.55121358  0.63911023  1
  O  O29  1  0.83285021  0.56113477  0.64119302  1
  O  O30  1  0.44953663  0.54873646  0.13809299  1
  O  O31  1  0.95013678  0.55025679  0.13831226  1
  O  O32  1  0.32839359  0.11455134  0.13381611  1
  O  O33  1  0.82880281  0.11509671  0.13373158  1
  O  O34  1  0.22907835  0.34639618  0.14829479  1
  O  O35  1  0.72947417  0.34554590  0.14768842  1
  O  O36  1  0.23510218  0.29938919  0.03416320  1
  O  O37  1  0.73450426  0.29877607  0.03364849  1
  O  O38  1  0.42642679  0.53863155  0.03377637  1
  O  O39  1  0.92653223  0.53732569  0.03392808  1
  O  O40  1  0.34634943  0.14304871  0.02859868  1
  O  O41  1  0.84616501  0.14408852  0.02846514  1
  O  O42  1  0.23801411  0.16181274  0.53261006  1
  O  O43  1  0.73176140  0.15004379  0.52876299  1
  O  O44  1  0.34570986  0.54696122  0.53313669  1
  O  O45  1  0.84250917  0.53850169  0.53584657  1
  O  O46  1  0.42745855  0.30766208  0.53070962  1
  O  O47  1  0.92283478  0.31298964  0.53691819  1
  O  O48  1  0.27541718  0.67059987  0.97042609  1
  O  O49  1  0.77445480  0.66854184  0.96973021  1
  O  O50  1  0.05965858  0.46231437  0.96530749  1
  O  O51  1  0.55659098  0.45398155  0.97032560  1
  O  O52  1  0.16538501  0.88286199  0.97237877  1
  O  O53  1  0.66537175  0.88222075  0.97203243  1
  O  O54  1  0.27540308  0.87343493  0.47176493  1
  O  O55  1  0.78159666  0.89010448  0.47467945  1
  O  O56  1  0.16284045  0.45634178  0.46715452  1
  O  O57  1  0.66744282  0.44950880  0.46759898  1
  O  O58  1  0.06194459  0.66094740  0.46473434  1
  O  O59  1  0.56749119  0.68692590  0.47656319  1
  O  O60  1  0.05436928  0.64275437  0.35897551  1
  O  O61  1  0.56725718  0.64880635  0.35976138  1
  O  O62  1  0.25821289  0.87067100  0.36695724  1
  O  O63  1  0.75926358  0.87845837  0.37024345  1
  O  O64  1  0.17709507  0.47602742  0.36184842  1
  O  O65  1  0.68029044  0.46706538  0.36162945  1
  O  O66  1  0.05562549  0.46588677  0.85948879  1
  O  O67  1  0.56148043  0.47708181  0.86480911  1
  O  O68  1  0.17697651  0.87699026  0.86645174  1
  O  O69  1  0.67663275  0.87722444  0.86598578  1
  O  O70  1  0.26390019  0.64159723  0.86489617  1
  O  O71  1  0.76278478  0.64082510  0.86399781  1
  O  O72  1  0.00406441  0.80362763  0.41459585  1
  O  O73  1  0.50528318  0.82938498  0.41562440  1
  O  O74  1  0.39569116  0.98890989  0.41143347  1
  O  O75  1  0.90085894  0.01136265  0.41147835  1
  O  O76  1  0.09871295  0.20312339  0.41141320  1
  O  O77  1  0.60338023  0.19663799  0.41213629  1
  O  O78  1  0.00351323  0.20434798  0.91508057  1
  O  O79  1  0.50416742  0.20609602  0.91476628  1
  O  O80  1  0.09990023  0.99755648  0.91342096  1
  O  O81  1  0.59953839  0.99706309  0.91337562  1
  O  O82  1  0.40037018  0.79590706  0.91311929  1
  O  O83  1  0.89872891  0.79532760  0.91173702  1
  O  O84  1  0.47974970  0.16094941  0.58575822  1
  O  O85  1  0.97589214  0.15466228  0.58407780  1
  O  O86  1  0.08736100  0.02076736  0.58965678  1
  O  O87  1  0.58380043  0.00937813  0.58843549  1
  O  O88  1  0.41705014  0.80634712  0.58439196  1
  O  O89  1  0.91559775  0.80902355  0.58186010  1
  O  O90  1  0.47747971  0.79959343  0.08418668  1
  O  O91  1  0.97858474  0.80023043  0.08329834  1
  O  O92  1  0.41057619  0.01289656  0.08277403  1
  O  O93  1  0.91151183  0.01588074  0.08211048  1
  O  O94  1  0.08785476  0.14719392  0.08916668  1
  O  O95  1  0.58802905  0.14718861  0.08892059  1
  O  O96  1  0.32920895  0.14833560  0.75109374  1
  O  O97  1  0.83588876  0.15872260  0.74773682  1
  O  O98  1  0.23464691  0.35295443  0.74127313  1
  O  O99  1  0.73547536  0.34309782  0.74325023  1
  O  O100  1  0.42924946  0.54702555  0.74454598  1
  O  O101  1  0.92961094  0.53925748  0.74471121  1
  O  O102  1  0.33780821  0.51216681  0.24947802  1
  O  O103  1  0.83725914  0.51317277  0.24819885  1
  O  O104  1  0.43491983  0.33779761  0.24486004  1
  O  O105  1  0.93487620  0.33557319  0.24598149  1
  O  O106  1  0.23133922  0.12375113  0.24192519  1
  O  O107  1  0.73161878  0.12867793  0.24222345  1
  O  O108  1  0.31835123  0.49417835  0.91966056  1
  O  O109  1  0.81759973  0.49313129  0.91856246  1
  O  O110  1  0.42911447  0.36046443  0.91708646  1
  O  O111  1  0.92766518  0.35780409  0.91645031  1
  O  O112  1  0.25157912  0.13909110  0.91810215  1
  O  O113  1  0.75106787  0.13853095  0.91788948  1
  O  O114  1  0.31599185  0.13275300  0.41827818  1
  O  O115  1  0.81410778  0.14041568  0.41972798  1
  O  O116  1  0.25056579  0.37054206  0.41713793  1
  O  O117  1  0.75308368  0.35684165  0.41744172  1
  O  O118  1  0.41824936  0.49316916  0.42129205  1
  O  O119  1  0.92822687  0.49808470  0.41835572  1
  O  O120  1  0.17580188  0.49710366  0.08143419  1
  O  O121  1  0.67620817  0.49770283  0.08164822  1
  O  O122  1  0.06888462  0.68363927  0.07482727  1
  O  O123  1  0.56869123  0.68533872  0.07484782  1
  O  O124  1  0.26007718  0.87058281  0.07577218  1
  O  O125  1  0.76069266  0.87150330  0.07548055  1
  O  O126  1  0.17447318  0.85216535  0.58138909  1
  O  O127  1  0.66905992  0.84223772  0.58260282  1
  O  O128  1  0.26626562  0.66689668  0.57868878  1
  O  O129  1  0.76513122  0.66398730  0.57932801  1
  O  O130  1  0.06527929  0.45569737  0.57629657  1
  O  O131  1  0.56634775  0.46286624  0.57516215  1
  O  O132  1  0.14273970  0.82306255  0.25522353  1
  O  O133  1  0.64570466  0.82576937  0.25182942  1
  O  O134  1  0.25258636  0.67811151  0.25506594  1
  O  O135  1  0.75352108  0.68032423  0.25670203  1
  O  O136  1  0.08469350  0.47330437  0.25240218  1
  O  O137  1  0.58522970  0.47232187  0.25032605  1
  O  O138  1  0.14253962  0.46297055  0.75777894  1
  O  O139  1  0.65199672  0.47301206  0.75577246  1
  O  O140  1  0.08058623  0.68891085  0.75464882  1
  O  O141  1  0.58232223  0.69540901  0.75369104  1
  O  O142  1  0.25199457  0.81341807  0.75524589  1
  O  O143  1  0.75541946  0.82156705  0.75878882  1
loop_
_geom_bond_atom_site_label_1
_geom_bond_atom_site_label_2
_geom_bond_distance
_geom_bond_site_symmetry_2
Na0 O34 2.300575 1_555
Na0 O102 2.362957 1_555
Na0 O134 2.502287 1_555
Na0 O136 2.587535 1_555
Na0 O106 2.720565 1_555
Na1 O35 2.319899 1_555
Na1 O103 2.333097 1_555
Na1 O135 2.474276 1_555
Na1 O137 2.546633 1_555
Na1 O107 2.720878 1_555
Na1 O65 2.920222 1_555
Na2 O103 2.420770 1_555
Na2 O132 2.496959 1_655
Na2 O3 2.541850 1_555
Na2 O105 2.550535 1_555
Na2 O60 2.658878 1_655
Na2 O31 2.873084 1_555
Na2 O136 2.953042 1_655
Na2 O22 2.966595 1_655
Na3 O102 2.475606 1_555
Na3 O104 2.484158 1_555
Na3 O133 2.519985 1_555
Na3 O61 2.621325 1_555
Na3 O2 2.757692 1_555
Na3 O137 2.879729 1_555
Na3 O30 3.007582 1_555
Na4 O142 2.446736 1_555
Na4 O98 2.478503 1_555
Na4 O100 2.562485 1_555
Na4 O28 2.655095 1_555
Na4 O12 2.779542 1_555
Na4 O70 2.945315 1_555
Na5 O143 2.453742 1_555
Na5 O99 2.495362 1_555
Na5 O29 2.549887 1_555
Na5 O101 2.654999 1_555
Na5 O13 2.759196 1_555
Na5 O139 2.759614 1_555
Na5 O71 2.943238 1_555
Na6 O97 2.467200 1_555
Na6 O138 2.475235 1_655
Na6 O101 2.622921 1_555
Na6 O11 2.643362 1_555
Na6 O66 2.705784 1_655
Na6 O25 2.741899 1_555
Na6 O140 2.829737 1_655
Na6 O14 2.926432 1_655
Na7 O26 2.247361 1_555
Na7 O96 2.309862 1_555
Na7 O140 2.583726 1_545
Na7 O142 2.607811 1_545
Na7 O16 2.879148 1_545
Na7 O98 2.892553 1_555
Na8 O27 2.305473 1_555
Na8 O97 2.358972 1_555
Na8 O141 2.567280 1_545
Na8 O143 2.592600 1_545
Na8 O99 2.780463 1_555
Na8 O17 2.932512 1_545
Na9 O59 2.311107 1_555
Na9 O127 2.377183 1_555
Na9 O87 2.475118 1_565
Na9 O88 2.555922 1_555
Na9 O131 2.754276 1_555
Na9 O44 2.961861 1_555
Na10 O126 2.404630 1_555
Na10 O128 2.510173 1_555
Na10 O84 2.524439 1_565
Na10 O12 2.629473 1_555
Na10 O88 2.859282 1_555
Na10 O26 2.880497 1_565
Na10 O54 2.893825 1_555
Na10 O46 3.009412 1_565
Na11 O129 2.467389 1_555
Na11 O127 2.476493 1_555
Na11 O85 2.482019 1_565
Na11 O13 2.601128 1_555
Na11 O55 2.771623 1_555
Na11 O89 2.771966 1_555
Na11 O27 2.881542 1_565
Na12 O94 2.386829 1_565
Na12 O122 2.417537 1_555
Na12 O124 2.631674 1_555
Na12 O52 2.682657 1_554
Na12 O36 2.721307 1_565
Na12 O91 2.826855 1_455
Na12 O22 2.845354 1_555
Na13 O95 2.389587 1_565
Na13 O123 2.408532 1_555
Na13 O125 2.629188 1_555
Na13 O53 2.680421 1_554
Na13 O37 2.713556 1_565
Na13 O90 2.853832 1_555
Na13 O23 2.907571 1_555
Na14 O120 2.420400 1_555
Na14 O90 2.463899 1_555
Na14 O124 2.636846 1_555
Na14 O18 2.646987 1_555
Na14 O92 2.697882 1_565
Na14 O34 2.935728 1_555
Na14 O48 2.951728 1_554
Na15 O121 2.417521 1_555
Na15 O19 2.471609 1_555
Na15 O91 2.486169 1_555
Na15 O125 2.633795 1_555
Na15 O93 2.718448 1_565
Na15 O35 2.929181 1_555
Na15 O49 2.995307 1_554
Na16 O73 2.420454 1_545
Na16 O77 2.472973 1_555
Na16 O115 2.551026 1_555
Na16 O59 2.755139 1_545
Na16 O43 2.784706 1_555
Na16 O117 2.873920 1_555
Na16 O63 2.928498 1_545
Na16 O1 2.993610 1_555
Na17 O73 2.360904 1_555
Na17 O2 2.400876 1_555
Na17 O118 2.427287 1_555
Na17 O116 2.499540 1_555
Na17 O74 2.649768 1_555
Na18 O86 2.347316 1_555
Na18 O89 2.598203 1_445
Na18 O72 2.615744 1_545
Na18 O76 2.671376 1_555
Na18 O85 2.725653 1_455
Na19 O87 2.464535 1_555
Na19 O73 2.487345 1_545
Na19 O77 2.610923 1_555
Na19 O88 2.662627 1_545
Na19 O84 2.675038 1_555
Na19 O74 2.899079 1_545
Na20 O94 2.413179 1_555
Na20 O93 2.517015 1_455
Na20 O78 2.532607 1_554
Na20 O91 2.736224 1_445
Na20 O80 2.748642 1_544
Na20 O83 2.995366 1_444
Na21 O95 2.424889 1_555
Na21 O79 2.524900 1_554
Na21 O92 2.550307 1_555
Na21 O81 2.730438 1_544
Na21 O90 2.769130 1_545
Na21 O82 2.951491 1_544
Na22 O96 2.299990 1_555
Na22 O110 2.348033 1_555
Na22 O112 2.564669 1_555
Na22 O100 2.814287 1_555
Na22 O108 2.870508 1_555
Na23 O113 2.413407 1_555
Na23 O111 2.416349 1_555
Na23 O97 2.453610 1_555
Na23 O109 2.681007 1_555
Na23 O101 2.881760 1_555
Na23 O99 2.963960 1_555
Na24 O118 2.425218 1_555
Na24 O114 2.544445 1_555
Na24 O102 2.580235 1_555
Na24 O116 2.587529 1_555
Na24 O104 2.723420 1_555
Na24 O106 2.980946 1_555
Na25 O103 2.436831 1_555
Na25 O119 2.442393 1_555
Na25 O117 2.483120 1_555
Na25 O115 2.699925 1_555
Na25 O105 2.741066 1_555
Na25 O107 2.994141 1_555
Na26 O120 2.393131 1_555
Na26 O134 2.498963 1_555
Na26 O136 2.530567 1_555
Na26 O124 2.800040 1_555
Na26 O132 2.836097 1_555
Na26 O122 2.963770 1_555
Na27 O121 2.444014 1_555
Na27 O135 2.453787 1_555
Na27 O137 2.481810 1_555
Na27 O133 2.729230 1_555
Na27 O125 2.823338 1_555
Na28 O126 2.309301 1_555
Na28 O142 2.664322 1_555
Na28 O140 2.679197 1_555
Na28 O128 2.691982 1_555
Na28 O130 2.764229 1_555
Na28 O138 2.938383 1_555
Na29 O127 2.400600 1_555
Na29 O129 2.658871 1_555
Na29 O141 2.669357 1_555
Na29 O131 2.724323 1_555
Na29 O139 2.746005 1_555
Na29 O143 2.754688 1_555
Ca0 O3 2.086678 1_555
Ca0 O75 2.276141 1_565
Ca0 O0 2.291565 1_665
Ca0 O5 2.300787 1_565
Ca0 O72 2.312137 1_655
Ca0 O76 2.368052 1_665
Ca1 O2 2.141020 1_545
Ca1 O73 2.231944 1_545
Ca1 O4 2.264815 1_555
Ca1 O1 2.282197 1_555
Ca1 O74 2.300613 1_545
Ca1 O77 2.372797 1_555
Ca2 O11 2.104612 1_555
Ca2 O9 2.295785 1_545
Ca2 O78 2.296294 1_655
Ca2 O83 2.298742 1_545
Ca2 O6 2.306684 1_655
Ca2 O80 2.362739 1_645
Ca3 O10 2.084417 1_555
Ca3 O79 2.283159 1_555
Ca3 O8 2.286096 1_545
Ca3 O7 2.294598 1_555
Ca3 O82 2.315487 1_545
Ca3 O81 2.382030 1_545
Ca4 O26 2.134222 1_555
Ca4 O96 2.223450 1_555
Ca4 O24 2.234268 1_555
Ca4 O28 2.353058 1_555
Ca4 O98 2.368061 1_555
Ca4 O100 2.405545 1_555
Ca5 O27 2.123848 1_555
Ca5 O97 2.252653 1_555
Ca5 O25 2.263486 1_555
Ca5 O29 2.305798 1_555
Ca5 O99 2.349354 1_555
Ca5 O101 2.420623 1_555
Ca6 O34 2.157606 1_555
Ca6 O102 2.228977 1_555
Ca6 O32 2.269132 1_555
Ca6 O30 2.294139 1_555
Ca6 O106 2.340710 1_555
Ca6 O104 2.353475 1_555
Ca7 O35 2.155587 1_555
Ca7 O103 2.219435 1_555
Ca7 O33 2.268360 1_555
Ca7 O31 2.299287 1_555
Ca7 O107 2.327150 1_555
Ca7 O105 2.373898 1_555
Ca8 O120 2.179675 1_555
Ca8 O50 2.180059 1_554
Ca8 O48 2.246978 1_554
Ca8 O122 2.321379 1_555
Ca8 O52 2.327926 1_554
Ca8 O124 2.377123 1_555
Ca9 O121 2.175890 1_555
Ca9 O51 2.182629 1_554
Ca9 O49 2.250576 1_554
Ca9 O123 2.326478 1_555
Ca9 O53 2.329912 1_554
Ca9 O125 2.374531 1_555
Ca10 O126 2.171066 1_555
Ca10 O58 2.195662 1_555
Ca10 O54 2.274784 1_555
Ca10 O56 2.275478 1_555
Ca10 O130 2.280632 1_555
Ca10 O128 2.406786 1_555
Ca11 O59 2.131324 1_555
Ca11 O57 2.251196 1_555
Ca11 O127 2.268191 1_555
Ca11 O55 2.284428 1_555
Ca11 O131 2.315594 1_555
Ca11 O129 2.383434 1_555
O0 S0 1.465782 1_545
O1 S1 1.468573 1_545
O2 Si0 1.612428 1_555
O3 Si1 1.604605 1_555
O4 S3 1.451029 1_555
O5 S2 1.457481 1_655
O6 S4 1.464306 1_555
O7 S5 1.459905 1_555
O8 S7 1.456123 1_555
O9 S6 1.458036 1_655
O10 Si2 1.589072 1_545
O11 Si3 1.603594 1_545
O12 Si2 1.678750 1_555
O12 Sc1 2.049479 1_565
O13 Si3 1.668200 1_555
O13 Sc0 2.115957 1_655
O14 S4 1.494290 1_555
O14 Sc0 2.253006 1_545
O15 S5 1.490418 1_555
O15 Sc1 2.193794 1_555
O16 S6 1.493343 1_555
O16 Sc0 2.226220 1_555
O17 S7 1.509782 1_555
O17 Sc1 2.229245 1_565
O18 Si0 1.670067 1_555
O18 Sc3 2.010246 1_565
O19 Si1 1.693283 1_555
O19 Sc2 1.998521 1_565
O20 S2 1.507154 1_555
O20 Sc2 2.143362 1_455
O21 S3 1.503116 1_555
O21 Sc3 2.129986 1_555
O22 S0 1.503300 1_555
O22 Sc2 2.280434 1_465
O23 S1 1.504646 1_555
O23 Sc3 2.249577 1_565
O24 S8 1.463870 1_555
O25 S9 1.474449 1_555
O26 Si4 1.627631 1_555
O27 Si5 1.616785 1_555
O28 S10 1.467746 1_555
O29 S11 1.469216 1_555
O30 S12 1.464429 1_555
O31 S13 1.467033 1_555
O32 S14 1.456243 1_555
O33 S15 1.457176 1_555
O34 Si6 1.628202 1_555
O35 Si7 1.622074 1_555
O36 Si6 1.702065 1_555
O36 Sc4 1.921072 1_554
O37 Si7 1.702711 1_555
O37 Sc5 1.914689 1_554
O38 S12 1.486989 1_555
O38 Sc4 2.241088 1_554
O39 S13 1.486469 1_555
O39 Sc5 2.241189 1_554
O40 S14 1.485455 1_555
O40 Sc4 2.196011 1_554
O41 S15 1.486683 1_555
O41 Sc5 2.182053 1_554
O42 Si4 1.672971 1_555
O42 Sc6 1.951305 1_555
O43 Si5 1.694263 1_555
O43 Sc7 1.936850 1_555
O44 S10 1.494005 1_555
O44 Sc6 2.254301 1_555
O45 S11 1.489485 1_555
O45 Sc7 2.147454 1_555
O46 S8 1.485566 1_555
O46 Sc6 2.230387 1_555
O47 S9 1.499629 1_555
O47 Sc7 2.179290 1_555
O48 S16 1.464888 1_555
O49 S17 1.463414 1_555
O50 S18 1.458618 1_555
O51 S19 1.459464 1_555
O52 S20 1.465685 1_555
O53 S21 1.465618 1_555
O54 S22 1.459570 1_555
O55 S23 1.461569 1_555
O56 S24 1.439349 1_555
O57 S25 1.448088 1_555
O58 S26 1.448090 1_555
O59 Si8 1.630119 1_555
O60 S26 1.512835 1_555
O60 Sc8 2.312311 1_555
O61 Si8 1.690226 1_555
O61 Sc9 2.016947 1_555
O62 S22 1.508569 1_555
O62 Sc8 2.096789 1_555
O63 S23 1.502178 1_555
O63 Sc9 2.162753 1_555
O64 S24 1.518611 1_555
O64 Sc8 2.151876 1_555
O65 S25 1.497152 1_555
O65 Sc9 2.221795 1_555
O66 S18 1.507756 1_555
O66 Sc10 2.293736 1_555
O67 S19 1.503575 1_555
O67 Sc11 2.185136 1_555
O68 S20 1.509722 1_555
O68 Sc10 2.128113 1_555
O69 S21 1.506617 1_555
O69 Sc11 2.150064 1_555
O70 S16 1.519261 1_555
O70 Sc10 2.134794 1_555
O71 S17 1.512533 1_555
O71 Sc11 2.175439 1_555
O72 S26 1.483473 1_555
O73 Si8 1.657213 1_555
O74 S22 1.471722 1_555
O75 S23 1.464871 1_545
O76 S24 1.474030 1_555
O77 S25 1.484435 1_555
O78 S18 1.479418 1_555
O79 S19 1.475984 1_555
O80 S20 1.469669 1_555
O81 S21 1.466759 1_555
O82 S16 1.461941 1_555
O83 S17 1.464775 1_555
O84 S8 1.510454 1_555
O84 Sc1 2.197580 1_555
O85 S9 1.506571 1_555
O85 Sc0 2.232743 1_645
O86 Si4 1.656726 1_555
O86 Sc0 1.981012 1_545
O87 Si5 1.654487 1_555
O87 Sc1 2.067609 1_555
O88 S10 1.511107 1_555
O88 Sc1 2.299854 1_565
O89 S11 1.499074 1_555
O89 Sc0 2.238492 1_655
O90 S12 1.510627 1_555
O90 Sc3 2.301589 1_565
O91 S13 1.508756 1_555
O91 Sc2 2.322674 1_565
O92 S14 1.501035 1_555
O92 Sc3 2.245898 1_555
O93 S15 1.498358 1_555
O93 Sc2 2.249701 1_555
O94 Si6 1.653150 1_555
O94 Sc2 2.103574 1_455
O95 Si7 1.656272 1_555
O95 Sc3 2.089256 1_555
O96 Si2 1.636326 1_545
O97 Si3 1.647749 1_545
O98 S4 1.476034 1_555
O99 S5 1.491416 1_555
O100 S7 1.473739 1_555
O101 S6 1.487091 1_655
O102 Si0 1.649343 1_555
O103 Si1 1.659675 1_555
O104 S3 1.476463 1_555
O105 S2 1.471939 1_655
O106 S0 1.461641 1_545
O107 S1 1.465325 1_545
O108 S16 1.498747 1_555
O108 Sc4 2.174157 1_555
O109 S17 1.503243 1_555
O109 Sc5 2.193642 1_555
O110 S19 1.494284 1_555
O110 Sc4 2.344559 1_555
O111 S18 1.495093 1_655
O111 Sc5 2.347471 1_555
O112 S20 1.503168 1_545
O112 Sc4 2.201556 1_555
O113 S21 1.507588 1_545
O113 Sc5 2.208567 1_555
O114 S22 1.492546 1_545
O114 Sc6 2.214578 1_555
O115 S23 1.512409 1_545
O115 Sc7 2.236685 1_555
O116 S24 1.510043 1_555
O116 Sc6 2.267731 1_555
O117 S25 1.512339 1_555
O117 Sc7 2.222751 1_555
O118 Si8 1.653310 1_555
O118 Sc6 2.128991 1_555
O119 S26 1.502817 1_655
O119 Sc7 2.343133 1_555
O120 Si6 1.635247 1_555
O121 Si7 1.633785 1_555
O122 S13 1.480739 1_455
O123 S12 1.479928 1_555
O124 S14 1.493290 1_565
O125 S15 1.492151 1_565
O126 Si4 1.642095 1_565
O127 Si5 1.649216 1_565
O128 S10 1.474900 1_555
O129 S11 1.479490 1_555
O130 S9 1.452471 1_455
O131 S8 1.466232 1_555
O132 S0 1.514283 1_555
O132 Sc8 2.213957 1_555
O133 S1 1.502438 1_555
O133 Sc9 2.291398 1_555
O134 Si0 1.683775 1_555
O134 Sc8 1.965026 1_555
O135 Si1 1.661748 1_555
O135 Sc9 2.068481 1_555
O136 S2 1.506830 1_555
O136 Sc8 2.278343 1_555
O137 S3 1.503958 1_555
O137 Sc9 2.341889 1_555
O138 S4 1.510526 1_555
O138 Sc10 2.250811 1_555
O139 S5 1.504123 1_555
O139 Sc11 2.209501 1_555
O140 S6 1.504615 1_555
O140 Sc10 2.332074 1_555
O141 S7 1.504192 1_555
O141 Sc11 2.282442 1_555
O142 Si2 1.734782 1_555
O142 Sc10 1.959345 1_555
O143 Si3 1.703007 1_555
O143 Sc11 1.999286 1_555
