# generated using pymatgen
data_Na9Ca4Nb2(PO4)9
_symmetry_space_group_name_H-M   'P 1'
_cell_length_a   16.10450276
_cell_length_b   27.91412275
_cell_length_c   9.15567346
_cell_angle_alpha   89.94931772
_cell_angle_beta   125.82196887
_cell_angle_gamma   90.13423968
_symmetry_Int_Tables_number   1
_chemical_formula_structural   Na9Ca4Nb2(PO4)9
_chemical_formula_sum   'Na36 Ca16 Nb8 P36 O144'
_cell_volume   3337.29970290
_cell_formula_units_Z   4
loop_
 _symmetry_equiv_pos_site_id
 _symmetry_equiv_pos_as_xyz
  1  'x, y, z'
loop_
 _atom_site_type_symbol
 _atom_site_label
 _atom_site_symmetry_multiplicity
 _atom_site_fract_x
 _atom_site_fract_y
 _atom_site_fract_z
 _atom_site_occupancy
  Na  Na0  1  0.25811935  0.24971112  0.01491517  1
  Na  Na1  1  0.25439134  0.58180825  0.01232441  1
  Na  Na2  1  0.24891772  0.91570628  0.01079819  1
  Na  Na3  1  0.75259417  0.24994034  0.50324750  1
  Na  Na4  1  0.76207305  0.59926585  0.52197868  1
  Na  Na5  1  0.74417956  0.90515049  0.51133244  1
  Na  Na6  1  0.75439134  0.08180825  0.01232441  1
  Na  Na7  1  0.74891772  0.41570628  0.01079819  1
  Na  Na8  1  0.75811935  0.74971112  0.01491517  1
  Na  Na9  1  0.26207305  0.09926585  0.52197868  1
  Na  Na10  1  0.24417956  0.40515049  0.51133244  1
  Na  Na11  1  0.25259417  0.74994034  0.50324750  1
  Na  Na12  1  0.49818749  0.03912714  0.76252912  1
  Na  Na13  1  0.50021416  0.37502191  0.76282470  1
  Na  Na14  1  0.50159098  0.70108154  0.77742665  1
  Na  Na15  1  0.50383583  0.30293979  0.27098209  1
  Na  Na16  1  0.49441463  0.63322491  0.26019273  1
  Na  Na17  1  0.49831718  0.97171782  0.26576234  1
  Na  Na18  1  0.00159098  0.20108154  0.77742665  1
  Na  Na19  1  0.99818749  0.53912714  0.76252912  1
  Na  Na20  1  0.00021416  0.87502191  0.76282470  1
  Na  Na21  1  0.99441463  0.13322491  0.26019273  1
  Na  Na22  1  0.99831718  0.47171782  0.26576234  1
  Na  Na23  1  0.00383583  0.80293979  0.27098209  1
  Na  Na24  1  0.82403249  0.97672821  0.21216634  1
  Na  Na25  1  0.18165944  0.63761225  0.27983026  1
  Na  Na26  1  0.18750857  0.97045260  0.29941547  1
  Na  Na27  1  0.18604752  0.68867963  0.75146437  1
  Na  Na28  1  0.80919534  0.01921317  0.73149127  1
  Na  Na29  1  0.81101336  0.35702240  0.71027131  1
  Na  Na30  1  0.32403249  0.47672821  0.21216634  1
  Na  Na31  1  0.68165944  0.13761225  0.27983026  1
  Na  Na32  1  0.68750857  0.47045260  0.29941547  1
  Na  Na33  1  0.68604752  0.18867963  0.75146437  1
  Na  Na34  1  0.30919534  0.51921317  0.73149127  1
  Na  Na35  1  0.31101336  0.85702240  0.71027131  1
  Ca  Ca0  1  0.09396727  0.58371882  0.55241078  1
  Ca  Ca1  1  0.10148215  0.92061141  0.56345959  1
  Ca  Ca2  1  0.89579217  0.25242141  0.94759650  1
  Ca  Ca3  1  0.89598498  0.58354182  0.94965460  1
  Ca  Ca4  1  0.89131002  0.91730949  0.94193851  1
  Ca  Ca5  1  0.90354326  0.08012193  0.45793967  1
  Ca  Ca6  1  0.89637131  0.41429155  0.44256140  1
  Ca  Ca7  1  0.89749078  0.74666373  0.43746360  1
  Ca  Ca8  1  0.59396727  0.08371882  0.55241078  1
  Ca  Ca9  1  0.60148215  0.42061141  0.56345959  1
  Ca  Ca10  1  0.39598498  0.08354182  0.94965460  1
  Ca  Ca11  1  0.39131002  0.41730949  0.94193851  1
  Ca  Ca12  1  0.39579217  0.75242141  0.94759650  1
  Ca  Ca13  1  0.39749078  0.24666373  0.43746360  1
  Ca  Ca14  1  0.40354326  0.58012193  0.45793967  1
  Ca  Ca15  1  0.39637131  0.91429155  0.44256140  1
  Nb  Nb0  1  0.10359694  0.25299686  0.55075749  1
  Nb  Nb1  1  0.10095560  0.08574480  0.04212735  1
  Nb  Nb2  1  0.10761139  0.41025697  0.05449573  1
  Nb  Nb3  1  0.10091034  0.74976987  0.05285333  1
  Nb  Nb4  1  0.60359694  0.75299686  0.55075749  1
  Nb  Nb5  1  0.60091034  0.24976987  0.05285333  1
  Nb  Nb6  1  0.60095560  0.58574480  0.04212735  1
  Nb  Nb7  1  0.60761139  0.91025697  0.05449573  1
  P  P0  1  0.00158772  0.31505485  0.74014900  1
  P  P1  1  0.01139915  0.64992317  0.76399554  1
  P  P2  1  0.00280438  0.98394612  0.74191516  1
  P  P3  1  0.99723318  0.02012816  0.22482494  1
  P  P4  1  0.00285906  0.35081815  0.23531982  1
  P  P5  1  0.01366111  0.68547019  0.26168833  1
  P  P6  1  0.51139915  0.14992317  0.76399554  1
  P  P7  1  0.50280438  0.48394612  0.74191516  1
  P  P8  1  0.50158772  0.81505485  0.74014900  1
  P  P9  1  0.51366111  0.18547019  0.26168833  1
  P  P10  1  0.49723318  0.52012816  0.22482494  1
  P  P11  1  0.50285906  0.85081815  0.23531982  1
  P  P12  1  0.34964510  0.29574922  0.74499426  1
  P  P13  1  0.34454436  0.63055931  0.74507997  1
  P  P14  1  0.35319941  0.95976423  0.76004941  1
  P  P15  1  0.64114947  0.30149679  0.73669029  1
  P  P16  1  0.64264054  0.63979446  0.73392333  1
  P  P17  1  0.64322952  0.96761192  0.74285067  1
  P  P18  1  0.64902739  0.02647490  0.23810950  1
  P  P19  1  0.64330568  0.36449620  0.23352936  1
  P  P20  1  0.64027070  0.69813750  0.23712938  1
  P  P21  1  0.34812125  0.03538641  0.26728438  1
  P  P22  1  0.35648996  0.36966404  0.27488962  1
  P  P23  1  0.34541365  0.70415600  0.24649903  1
  P  P24  1  0.84454436  0.13055931  0.74507997  1
  P  P25  1  0.85319941  0.45976423  0.76004941  1
  P  P26  1  0.84964510  0.79574922  0.74499426  1
  P  P27  1  0.14264054  0.13979446  0.73392333  1
  P  P28  1  0.14322952  0.46761192  0.74285067  1
  P  P29  1  0.14114947  0.80149679  0.73669029  1
  P  P30  1  0.14027070  0.19813750  0.23712938  1
  P  P31  1  0.14902739  0.52647490  0.23810950  1
  P  P32  1  0.14330568  0.86449620  0.23352936  1
  P  P33  1  0.84541365  0.20415600  0.24649903  1
  P  P34  1  0.84812125  0.53538641  0.26728438  1
  P  P35  1  0.85648996  0.86966404  0.27488962  1
  O  O0  1  0.14331477  0.19726357  0.73785513  1
  O  O1  1  0.15964346  0.52141511  0.79169999  1
  O  O2  1  0.15795892  0.85496525  0.78426646  1
  O  O3  1  0.83478418  0.18573500  0.73533962  1
  O  O4  1  0.85798415  0.51428461  0.76710518  1
  O  O5  1  0.84208081  0.84977644  0.76157455  1
  O  O6  1  0.83823433  0.15085130  0.27847547  1
  O  O7  1  0.81752438  0.48275310  0.26189730  1
  O  O8  1  0.84525058  0.81575519  0.23573477  1
  O  O9  1  0.14484896  0.14136297  0.24951363  1
  O  O10  1  0.15193780  0.46889741  0.22098017  1
  O  O11  1  0.14974080  0.80763151  0.21424993  1
  O  O12  1  0.65964346  0.02141511  0.79169999  1
  O  O13  1  0.65795892  0.35496525  0.78426646  1
  O  O14  1  0.64331477  0.69726357  0.73785513  1
  O  O15  1  0.35798415  0.01428461  0.76710518  1
  O  O16  1  0.34208081  0.34977644  0.76157455  1
  O  O17  1  0.33478418  0.68573500  0.73533962  1
  O  O18  1  0.34525058  0.31575519  0.23573477  1
  O  O19  1  0.33823433  0.65085130  0.27847547  1
  O  O20  1  0.31752438  0.98275310  0.26189730  1
  O  O21  1  0.64974080  0.30763151  0.21424993  1
  O  O22  1  0.64484896  0.64136297  0.24951363  1
  O  O23  1  0.65193780  0.96889741  0.22098017  1
  O  O24  1  0.46523963  0.18067389  0.59804596  1
  O  O25  1  0.45114502  0.50518018  0.55466448  1
  O  O26  1  0.42916035  0.84449171  0.57564519  1
  O  O27  1  0.56349008  0.18731784  0.93474570  1
  O  O28  1  0.54851097  0.53040085  0.88302573  1
  O  O29  1  0.56585143  0.84855938  0.91247248  1
  O  O30  1  0.58640011  0.16196109  0.44915932  1
  O  O31  1  0.56954844  0.48638910  0.38206900  1
  O  O32  1  0.55983812  0.81063582  0.39558717  1
  O  O33  1  0.47172093  0.14824388  0.11523665  1
  O  O34  1  0.42307709  0.49386893  0.04833515  1
  O  O35  1  0.43201430  0.82612264  0.05667694  1
  O  O36  1  0.95114502  0.00518018  0.55466448  1
  O  O37  1  0.92916035  0.34449171  0.57564519  1
  O  O38  1  0.96523963  0.68067389  0.59804596  1
  O  O39  1  0.04851097  0.03040085  0.88302573  1
  O  O40  1  0.06585143  0.34855938  0.91247248  1
  O  O41  1  0.06349008  0.68731784  0.93474570  1
  O  O42  1  0.05983812  0.31063582  0.39558717  1
  O  O43  1  0.08640011  0.66196109  0.44915932  1
  O  O44  1  0.06954844  0.98638910  0.38206900  1
  O  O45  1  0.93201430  0.32612264  0.05667694  1
  O  O46  1  0.97172093  0.64824388  0.11523665  1
  O  O47  1  0.92307709  0.99386893  0.04833515  1
  O  O48  1  0.25324190  0.27092399  0.72708787  1
  O  O49  1  0.27506289  0.60594370  0.78647127  1
  O  O50  1  0.28190742  0.93595469  0.79889589  1
  O  O51  1  0.73228280  0.27881745  0.74800991  1
  O  O52  1  0.73772292  0.62020948  0.76084379  1
  O  O53  1  0.72904729  0.94736061  0.73536397  1
  O  O54  1  0.74190198  0.04652306  0.24815264  1
  O  O55  1  0.72992773  0.38975179  0.24105336  1
  O  O56  1  0.73161791  0.71895418  0.25484055  1
  O  O57  1  0.24376776  0.06509819  0.19806656  1
  O  O58  1  0.25088160  0.38936614  0.23522662  1
  O  O59  1  0.25792573  0.73125237  0.24113371  1
  O  O60  1  0.77506289  0.10594370  0.78647127  1
  O  O61  1  0.78190742  0.43595469  0.79889589  1
  O  O62  1  0.75324190  0.77092399  0.72708787  1
  O  O63  1  0.23772292  0.12020948  0.76084379  1
  O  O64  1  0.22904729  0.44736061  0.73536397  1
  O  O65  1  0.23228280  0.77881745  0.74800991  1
  O  O66  1  0.23161791  0.21895418  0.25484055  1
  O  O67  1  0.24190198  0.54652306  0.24815264  1
  O  O68  1  0.22992773  0.88975179  0.24105336  1
  O  O69  1  0.75792573  0.23125237  0.24113371  1
  O  O70  1  0.74376776  0.56509819  0.19806656  1
  O  O71  1  0.75088160  0.88936614  0.23522662  1
  O  O72  1  0.34636126  0.28307595  0.58375434  1
  O  O73  1  0.32388281  0.61103208  0.57070355  1
  O  O74  1  0.32759279  0.94113173  0.58115593  1
  O  O75  1  0.62738296  0.27599331  0.88324325  1
  O  O76  1  0.63272307  0.62565841  0.89325691  1
  O  O77  1  0.64470810  0.94150502  0.90483959  1
  O  O78  1  0.65375890  0.03503006  0.41018083  1
  O  O79  1  0.64761984  0.36973918  0.40657500  1
  O  O80  1  0.63113967  0.71469885  0.39921786  1
  O  O81  1  0.37744402  0.04241959  0.13826115  1
  O  O82  1  0.36871302  0.39828821  0.14629482  1
  O  O83  1  0.33400535  0.71047797  0.07068554  1
  O  O84  1  0.82388281  0.11103208  0.57070355  1
  O  O85  1  0.82759279  0.44113173  0.58115593  1
  O  O86  1  0.84636126  0.78307595  0.58375434  1
  O  O87  1  0.13272307  0.12565841  0.89325691  1
  O  O88  1  0.14470810  0.44150502  0.90483959  1
  O  O89  1  0.12738296  0.77599331  0.88324325  1
  O  O90  1  0.13113967  0.21469885  0.39921786  1
  O  O91  1  0.15375890  0.53503006  0.41018083  1
  O  O92  1  0.14761984  0.86973918  0.40657500  1
  O  O93  1  0.83400535  0.21047797  0.07068554  1
  O  O94  1  0.87744402  0.54241959  0.13826115  1
  O  O95  1  0.86871302  0.89828821  0.14629482  1
  O  O96  1  0.45293926  0.27528786  0.92401032  1
  O  O97  1  0.46102635  0.61685667  0.90527153  1
  O  O98  1  0.46763011  0.93731513  0.91327572  1
  O  O99  1  0.54405758  0.29039329  0.55338762  1
  O  O100  1  0.54424419  0.62493910  0.55637708  1
  O  O101  1  0.53890364  0.95868626  0.56673506  1
  O  O102  1  0.55028663  0.04511411  0.07001696  1
  O  O103  1  0.54110304  0.38053984  0.06438755  1
  O  O104  1  0.53907934  0.71136647  0.06226723  1
  O  O105  1  0.43171932  0.05443626  0.45578231  1
  O  O106  1  0.44165695  0.38477014  0.46864434  1
  O  O107  1  0.45389618  0.72639986  0.40840450  1
  O  O108  1  0.96102635  0.11685667  0.90527153  1
  O  O109  1  0.96763011  0.43731513  0.91327572  1
  O  O110  1  0.95293926  0.77528786  0.92401032  1
  O  O111  1  0.04424419  0.12493910  0.55637708  1
  O  O112  1  0.03890364  0.45868626  0.56673506  1
  O  O113  1  0.04405758  0.79039329  0.55338762  1
  O  O114  1  0.03907934  0.21136647  0.06226723  1
  O  O115  1  0.05028663  0.54511411  0.07001696  1
  O  O116  1  0.04110304  0.88053984  0.06438755  1
  O  O117  1  0.95389618  0.22639986  0.40840450  1
  O  O118  1  0.93171932  0.55443626  0.45578231  1
  O  O119  1  0.94165695  0.88477014  0.46864434  1
  O  O120  1  0.08326079  0.28747982  0.72674170  1
  O  O121  1  0.10364711  0.62083418  0.80124968  1
  O  O122  1  0.09424580  0.95211103  0.79917497  1
  O  O123  1  0.93963559  0.27751251  0.76139724  1
  O  O124  1  0.93322578  0.61773097  0.76027017  1
  O  O125  1  0.92358529  0.95787230  0.75567616  1
  O  O126  1  0.93410977  0.05515826  0.25370526  1
  O  O127  1  0.94932027  0.38864044  0.27199922  1
  O  O128  1  0.93331083  0.72032030  0.23925582  1
  O  O129  1  0.07358081  0.05261404  0.20509158  1
  O  O130  1  0.09239975  0.37654277  0.24289029  1
  O  O131  1  0.09132625  0.71951863  0.24518327  1
  O  O132  1  0.60364711  0.12083418  0.80124968  1
  O  O133  1  0.59424580  0.45211103  0.79917497  1
  O  O134  1  0.58326079  0.78747982  0.72674170  1
  O  O135  1  0.43322578  0.11773097  0.76027017  1
  O  O136  1  0.42358529  0.45787230  0.75567616  1
  O  O137  1  0.43963559  0.77751251  0.76139724  1
  O  O138  1  0.43331083  0.22032030  0.23925582  1
  O  O139  1  0.43410977  0.55515826  0.25370526  1
  O  O140  1  0.44932027  0.88864044  0.27199922  1
  O  O141  1  0.59132625  0.21951863  0.24518327  1
  O  O142  1  0.57358081  0.55261404  0.20509158  1
  O  O143  1  0.59239975  0.87654277  0.24289029  1
loop_
_geom_bond_atom_site_label_1
_geom_bond_atom_site_label_2
_geom_bond_distance
_geom_bond_site_symmetry_2
Na0 O138 2.465080 1_555
Na0 O18 2.475667 1_555
Na0 O0 2.549607 1_554
Na0 O66 2.614769 1_555
Na0 O48 2.656410 1_554
Na0 O120 2.704588 1_554
Na1 O121 2.309114 1_554
Na1 O1 2.374167 1_554
Na1 O49 2.375490 1_554
Na1 O67 2.485205 1_555
Na1 O139 2.516815 1_555
Na1 O19 2.760479 1_555
Na2 O122 2.313111 1_554
Na2 O50 2.359858 1_554
Na2 O2 2.400123 1_554
Na2 O68 2.411143 1_555
Na2 O20 2.652062 1_555
Na2 O140 2.771235 1_555
Na3 O141 2.420578 1_555
Na3 O3 2.488295 1_555
Na3 O69 2.506451 1_555
Na3 O51 2.577044 1_555
Na3 O123 2.628845 1_555
Na3 O21 2.685692 1_555
Na4 O124 2.362031 1_555
Na4 O22 2.379183 1_555
Na4 O52 2.507112 1_555
Na5 O143 2.369662 1_555
Na5 O5 2.429233 1_555
Na5 O53 2.499133 1_555
Na5 O71 2.630173 1_555
Na5 O23 2.796713 1_555
Na5 O125 2.817503 1_555
Na6 O132 2.309114 1_554
Na6 O12 2.374167 1_554
Na6 O60 2.375490 1_554
Na6 O54 2.485205 1_555
Na6 O126 2.516815 1_555
Na6 O6 2.760479 1_555
Na7 O133 2.313111 1_554
Na7 O61 2.359858 1_554
Na7 O13 2.400123 1_554
Na7 O55 2.411143 1_555
Na7 O7 2.652062 1_555
Na7 O127 2.771235 1_555
Na8 O128 2.465080 1_555
Na8 O8 2.475667 1_555
Na8 O14 2.549607 1_554
Na8 O56 2.614769 1_555
Na8 O62 2.656410 1_554
Na8 O134 2.704588 1_554
Na9 O135 2.362031 1_555
Na9 O9 2.379183 1_555
Na9 O63 2.507112 1_555
Na10 O130 2.369662 1_555
Na10 O16 2.429233 1_555
Na10 O64 2.499133 1_555
Na10 O58 2.630173 1_555
Na10 O10 2.796713 1_555
Na10 O136 2.817503 1_555
Na11 O131 2.420578 1_555
Na11 O17 2.488295 1_555
Na11 O59 2.506451 1_555
Na11 O65 2.577044 1_555
Na11 O137 2.628845 1_555
Na11 O11 2.685692 1_555
Na12 O15 2.384139 1_555
Na12 O105 2.386843 1_555
Na12 O102 2.427518 1_556
Na12 O135 2.427877 1_555
Na12 O12 2.503910 1_555
Na12 O132 2.736900 1_555
Na13 O106 2.290114 1_555
Na13 O103 2.439801 1_556
Na13 O13 2.495662 1_555
Na13 O133 2.535862 1_555
Na13 O136 2.606595 1_555
Na13 O16 2.634330 1_555
Na14 O104 2.325000 1_556
Na14 O137 2.325278 1_555
Na14 O14 2.514176 1_555
Na14 O17 2.516277 1_555
Na14 O76 2.722570 1_555
Na15 O99 2.294916 1_555
Na15 O18 2.407081 1_555
Na15 O138 2.509159 1_555
Na15 O79 2.645549 1_555
Na15 O21 2.689841 1_555
Na15 O141 2.805258 1_555
Na15 O96 2.883209 1_554
Na16 O100 2.345988 1_555
Na16 O139 2.370286 1_555
Na16 O22 2.491013 1_555
Na16 O19 2.663670 1_555
Na16 O142 2.776978 1_555
Na16 O80 2.888218 1_555
Na16 O97 3.002270 1_554
Na16 O83 3.017800 1_555
Na17 O101 2.458449 1_555
Na17 O140 2.459215 1_555
Na17 O81 2.530022 1_565
Na17 O78 2.692063 1_565
Na17 O23 2.735547 1_555
Na17 O20 2.908094 1_555
Na18 O114 2.325000 1_556
Na18 O123 2.325278 1_455
Na18 O0 2.514176 1_555
Na18 O3 2.516277 1_455
Na18 O87 2.722570 1_555
Na19 O4 2.384139 1_555
Na19 O118 2.386843 1_555
Na19 O115 2.427518 1_656
Na19 O124 2.427877 1_555
Na19 O1 2.503910 1_655
Na19 O121 2.736900 1_655
Na20 O119 2.290114 1_455
Na20 O116 2.439801 1_556
Na20 O2 2.495662 1_555
Na20 O122 2.535862 1_555
Na20 O125 2.606595 1_455
Na20 O5 2.634330 1_455
Na21 O111 2.345988 1_655
Na21 O126 2.370286 1_555
Na21 O9 2.491013 1_655
Na21 O6 2.663670 1_555
Na21 O129 2.776978 1_655
Na21 O90 2.888218 1_655
Na21 O108 3.002270 1_554
Na21 O93 3.017800 1_555
Na22 O112 2.458449 1_655
Na22 O127 2.459215 1_555
Na22 O94 2.530022 1_555
Na22 O91 2.692063 1_655
Na22 O10 2.735547 1_655
Na22 O7 2.908094 1_555
Na23 O113 2.294916 1_555
Na23 O8 2.407081 1_455
Na23 O128 2.509159 1_455
Na23 O92 2.645549 1_555
Na23 O11 2.689841 1_555
Na23 O131 2.805258 1_555
Na23 O110 2.883209 1_454
Na24 O54 2.485369 1_565
Na24 O95 2.488666 1_555
Na24 O36 2.671590 1_565
Na24 O126 2.697113 1_565
Na24 O71 2.766968 1_555
Na24 O77 2.775615 1_554
Na24 O47 2.796223 1_555
Na24 O23 2.827441 1_555
Na25 O73 2.398625 1_555
Na25 O19 2.554845 1_555
Na25 O131 2.630301 1_555
Na25 O46 2.798200 1_455
Na25 O67 2.798711 1_555
Na25 O43 2.830130 1_555
Na25 O41 2.914727 1_554
Na26 O20 2.336317 1_555
Na26 O74 2.367791 1_555
Na26 O44 2.463065 1_555
Na26 O68 2.502689 1_555
Na26 O129 2.744741 1_565
Na27 O43 2.364566 1_555
Na27 O17 2.486169 1_555
Na27 O121 2.500026 1_555
Na27 O83 2.536648 1_556
Na27 O65 2.627722 1_555
Na27 O49 2.639690 1_555
Na28 O53 2.394041 1_545
Na28 O125 2.431302 1_545
Na28 O47 2.460538 1_546
Na28 O78 2.549188 1_555
Na28 O60 2.597903 1_555
Na28 O12 2.768242 1_555
Na29 O61 2.487160 1_555
Na29 O79 2.493948 1_555
Na29 O51 2.644066 1_555
Na29 O85 2.709742 1_555
Na29 O45 2.714569 1_556
Na29 O37 2.830368 1_555
Na29 O123 2.884527 1_555
Na29 O13 2.914063 1_555
Na30 O67 2.485369 1_555
Na30 O82 2.488666 1_555
Na30 O25 2.671590 1_555
Na30 O139 2.697113 1_555
Na30 O58 2.766968 1_555
Na30 O88 2.775615 1_554
Na30 O34 2.796223 1_555
Na30 O10 2.827441 1_555
Na31 O84 2.398625 1_555
Na31 O6 2.554845 1_555
Na31 O141 2.630301 1_555
Na31 O33 2.798200 1_555
Na31 O54 2.798711 1_555
Na31 O30 2.830130 1_555
Na31 O27 2.914727 1_554
Na32 O7 2.336317 1_555
Na32 O85 2.367791 1_555
Na32 O31 2.463065 1_555
Na32 O55 2.502689 1_555
Na32 O142 2.744741 1_555
Na33 O30 2.364566 1_555
Na33 O3 2.486169 1_555
Na33 O132 2.500026 1_555
Na33 O93 2.536648 1_556
Na33 O51 2.627722 1_555
Na33 O60 2.639690 1_555
Na34 O64 2.394041 1_555
Na34 O136 2.431302 1_555
Na34 O34 2.460538 1_556
Na34 O91 2.549188 1_555
Na34 O49 2.597903 1_555
Na34 O1 2.768242 1_555
Na35 O50 2.487160 1_555
Na35 O92 2.493948 1_555
Na35 O65 2.644066 1_555
Na35 O74 2.709742 1_555
Na35 O35 2.714569 1_556
Na35 O26 2.830368 1_555
Na35 O137 2.884527 1_555
Na35 O2 2.914063 1_555
Ca0 O43 2.354017 1_555
Ca0 O118 2.358727 1_455
Ca0 O121 2.424040 1_555
Ca0 O91 2.438676 1_555
Ca0 O49 2.482153 1_555
Ca0 O1 2.496531 1_555
Ca1 O44 2.322333 1_555
Ca1 O122 2.396350 1_555
Ca1 O119 2.398658 1_455
Ca1 O92 2.426864 1_555
Ca1 O50 2.436616 1_555
Ca1 O2 2.474084 1_555
Ca2 O45 2.210492 1_556
Ca2 O114 2.216957 1_656
Ca2 O93 2.221664 1_556
Ca2 O51 2.278227 1_555
Ca2 O123 2.302156 1_555
Ca2 O3 2.443350 1_555
Ca3 O46 2.208634 1_556
Ca3 O94 2.233194 1_556
Ca3 O115 2.311926 1_656
Ca3 O52 2.320300 1_555
Ca3 O124 2.342800 1_555
Ca3 O4 2.389214 1_555
Ca4 O95 2.170118 1_556
Ca4 O116 2.230160 1_656
Ca4 O47 2.278821 1_556
Ca4 O53 2.309041 1_555
Ca4 O5 2.318456 1_555
Ca4 O125 2.343471 1_555
Ca5 O36 2.226587 1_555
Ca5 O84 2.239047 1_555
Ca5 O111 2.260531 1_655
Ca5 O126 2.303434 1_555
Ca5 O54 2.341870 1_555
Ca5 O6 2.384364 1_555
Ca6 O37 2.192546 1_555
Ca6 O112 2.243132 1_655
Ca6 O85 2.247034 1_555
Ca6 O127 2.289540 1_555
Ca6 O55 2.294121 1_555
Ca6 O7 2.355363 1_555
Ca7 O86 2.191430 1_555
Ca7 O38 2.207284 1_555
Ca7 O113 2.290040 1_655
Ca7 O56 2.300918 1_555
Ca7 O128 2.323031 1_555
Ca7 O8 2.453798 1_555
Ca8 O30 2.354017 1_555
Ca8 O105 2.358727 1_555
Ca8 O132 2.424040 1_555
Ca8 O78 2.438676 1_555
Ca8 O60 2.482153 1_555
Ca8 O12 2.496531 1_555
Ca9 O31 2.322333 1_555
Ca9 O133 2.396350 1_555
Ca9 O106 2.398658 1_555
Ca9 O79 2.426864 1_555
Ca9 O61 2.436616 1_555
Ca9 O13 2.474084 1_555
Ca10 O33 2.208634 1_556
Ca10 O81 2.233194 1_556
Ca10 O102 2.311926 1_556
Ca10 O63 2.320300 1_555
Ca10 O135 2.342800 1_555
Ca10 O15 2.389214 1_555
Ca11 O82 2.170118 1_556
Ca11 O103 2.230160 1_556
Ca11 O34 2.278821 1_556
Ca11 O64 2.309041 1_555
Ca11 O16 2.318456 1_555
Ca11 O136 2.343471 1_555
Ca12 O35 2.210492 1_556
Ca12 O104 2.216957 1_556
Ca12 O83 2.221664 1_556
Ca12 O65 2.278227 1_555
Ca12 O137 2.302156 1_555
Ca12 O17 2.443350 1_555
Ca13 O72 2.191430 1_555
Ca13 O24 2.207284 1_555
Ca13 O99 2.290040 1_555
Ca13 O66 2.300918 1_555
Ca13 O138 2.323031 1_555
Ca13 O18 2.453798 1_555
Ca14 O25 2.226587 1_555
Ca14 O73 2.239047 1_555
Ca14 O100 2.260531 1_555
Ca14 O139 2.303434 1_555
Ca14 O67 2.341870 1_555
Ca14 O19 2.384364 1_555
Ca15 O26 2.192546 1_555
Ca15 O101 2.243132 1_555
Ca15 O74 2.247034 1_555
Ca15 O140 2.289540 1_555
Ca15 O68 2.294121 1_555
Ca15 O20 2.355363 1_555
Nb0 O42 1.983185 1_555
Nb0 O90 1.997462 1_555
Nb0 O48 2.026390 1_555
Nb0 O120 2.061996 1_555
Nb0 O117 2.092231 1_455
Nb0 O0 2.116898 1_555
Nb1 O39 1.944135 1_554
Nb1 O57 1.954815 1_555
Nb1 O129 2.010336 1_555
Nb1 O108 2.025967 1_454
Nb1 O87 2.042484 1_554
Nb1 O9 2.223581 1_555
Nb2 O109 1.979558 1_454
Nb2 O58 1.984273 1_555
Nb2 O88 1.987171 1_554
Nb2 O40 2.020919 1_554
Nb2 O10 2.058568 1_555
Nb2 O130 2.100371 1_555
Nb3 O41 1.951202 1_554
Nb3 O89 1.974979 1_554
Nb3 O11 2.012157 1_555
Nb3 O131 2.037793 1_555
Nb3 O110 2.072105 1_454
Nb3 O59 2.129573 1_555
Nb4 O32 1.983185 1_555
Nb4 O80 1.997462 1_555
Nb4 O62 2.026390 1_555
Nb4 O134 2.061996 1_555
Nb4 O107 2.092231 1_555
Nb4 O14 2.116898 1_555
Nb5 O27 1.951202 1_554
Nb5 O75 1.974979 1_554
Nb5 O21 2.012157 1_555
Nb5 O141 2.037793 1_555
Nb5 O96 2.072105 1_554
Nb5 O69 2.129573 1_555
Nb6 O28 1.944135 1_554
Nb6 O70 1.954815 1_555
Nb6 O142 2.010336 1_555
Nb6 O97 2.025967 1_554
Nb6 O76 2.042484 1_554
Nb6 O22 2.223581 1_555
Nb7 O98 1.979558 1_554
Nb7 O71 1.984273 1_555
Nb7 O77 1.987171 1_554
Nb7 O29 2.020919 1_554
Nb7 O23 2.058568 1_555
Nb7 O143 2.100371 1_555
O0 P27 1.604504 1_555
O1 P28 1.544816 1_555
O2 P29 1.533585 1_555
O3 P24 1.545736 1_555
O4 P25 1.523172 1_555
O5 P26 1.528146 1_555
O6 P33 1.533340 1_555
O7 P34 1.540164 1_555
O8 P35 1.532801 1_555
O9 P30 1.587565 1_555
O10 P31 1.618446 1_555
O11 P32 1.607541 1_555
O12 P17 1.544816 1_545
O13 P15 1.533585 1_555
O14 P16 1.604504 1_555
O15 P14 1.523172 1_545
O16 P12 1.528146 1_555
O17 P13 1.545736 1_555
O18 P22 1.532801 1_555
O19 P23 1.533340 1_555
O20 P21 1.540164 1_565
O21 P19 1.607541 1_555
O22 P20 1.587565 1_555
O23 P18 1.618446 1_565
O24 P6 1.508819 1_555
O25 P7 1.521063 1_555
O26 P8 1.500033 1_555
O27 P6 1.643475 1_555
O28 P7 1.666688 1_555
O29 P8 1.588016 1_555
O30 P9 1.548240 1_555
O31 P10 1.534960 1_555
O32 P11 1.636789 1_555
O33 P9 1.507648 1_555
O34 P10 1.521095 1_555
O35 P11 1.505347 1_555
O36 P2 1.521063 1_645
O37 P0 1.500033 1_655
O38 P1 1.508819 1_655
O39 P2 1.666688 1_545
O40 P0 1.588016 1_555
O41 P1 1.643475 1_555
O42 P4 1.636789 1_555
O43 P5 1.548240 1_555
O44 P3 1.534960 1_465
O45 P4 1.505347 1_655
O46 P5 1.507648 1_655
O47 P3 1.521095 1_565
O48 P12 1.616988 1_555
O49 P13 1.536273 1_555
O50 P14 1.536359 1_555
O51 P15 1.546523 1_555
O52 P16 1.505415 1_555
O53 P17 1.532628 1_555
O54 P18 1.547235 1_555
O55 P19 1.526690 1_555
O56 P20 1.498338 1_555
O57 P21 1.634845 1_555
O58 P22 1.614942 1_555
O59 P23 1.575932 1_555
O60 P24 1.536273 1_555
O61 P25 1.536359 1_555
O62 P26 1.616988 1_555
O63 P27 1.505415 1_555
O64 P28 1.532628 1_555
O65 P29 1.546523 1_555
O66 P30 1.498338 1_555
O67 P31 1.547235 1_555
O68 P32 1.526690 1_555
O69 P33 1.575932 1_555
O70 P34 1.634845 1_555
O71 P35 1.614942 1_555
O72 P12 1.488872 1_555
O73 P13 1.528271 1_555
O74 P14 1.527461 1_555
O75 P15 1.643821 1_555
O76 P16 1.606470 1_555
O77 P17 1.639547 1_555
O78 P18 1.550766 1_555
O79 P19 1.551748 1_555
O80 P20 1.641542 1_555
O81 P21 1.519582 1_555
O82 P22 1.527176 1_555
O83 P23 1.519696 1_555
O84 P24 1.528271 1_555
O85 P25 1.527461 1_555
O86 P26 1.488872 1_555
O87 P27 1.606470 1_555
O88 P28 1.639547 1_555
O89 P29 1.643821 1_555
O90 P30 1.641542 1_555
O91 P31 1.550766 1_555
O92 P32 1.551748 1_555
O93 P33 1.519696 1_555
O94 P34 1.519582 1_555
O95 P35 1.527176 1_555
O96 P12 1.609705 1_555
O97 P13 1.611902 1_555
O98 P14 1.653641 1_555
O99 P15 1.511455 1_555
O100 P16 1.519326 1_555
O101 P17 1.520695 1_555
O102 P18 1.518457 1_555
O103 P19 1.525277 1_555
O104 P20 1.517577 1_555
O105 P21 1.533727 1_555
O106 P22 1.535091 1_555
O107 P23 1.612532 1_555
O108 P24 1.611902 1_555
O109 P25 1.653641 1_555
O110 P26 1.609705 1_555
O111 P27 1.519326 1_555
O112 P28 1.520695 1_555
O113 P29 1.511455 1_555
O114 P30 1.517577 1_555
O115 P31 1.518457 1_555
O116 P32 1.525277 1_555
O117 P33 1.612532 1_555
O118 P34 1.533727 1_555
O119 P35 1.535091 1_555
O120 P0 1.591064 1_555
O121 P1 1.547492 1_555
O122 P2 1.527995 1_555
O123 P0 1.534089 1_655
O124 P1 1.529086 1_655
O125 P2 1.535209 1_655
O126 P3 1.542482 1_555
O127 P4 1.521408 1_655
O128 P5 1.535394 1_655
O129 P3 1.619024 1_455
O130 P4 1.574190 1_555
O131 P5 1.644984 1_555
O132 P6 1.547492 1_555
O133 P7 1.527995 1_555
O134 P8 1.591064 1_555
O135 P6 1.529086 1_555
O136 P7 1.535209 1_555
O137 P8 1.534089 1_555
O138 P9 1.535394 1_555
O139 P10 1.542482 1_555
O140 P11 1.521408 1_555
O141 P9 1.644984 1_555
O142 P10 1.619024 1_555
O143 P11 1.574190 1_555
