# generated using pymatgen
data_Na2CaSn3P4(SO12)2
_symmetry_space_group_name_H-M   'P 1'
_cell_length_a   8.85947732
_cell_length_b   8.86667535
_cell_length_c   23.23102913
_cell_angle_alpha   89.69945482
_cell_angle_beta   90.12494467
_cell_angle_gamma   120.00514022
_symmetry_Int_Tables_number   1
_chemical_formula_structural   Na2CaSn3P4(SO12)2
_chemical_formula_sum   'Na6 Ca3 Sn9 P12 S6 O72'
_cell_volume   1580.29970928
_cell_formula_units_Z   3
loop_
 _symmetry_equiv_pos_site_id
 _symmetry_equiv_pos_as_xyz
  1  'x, y, z'
loop_
 _atom_site_type_symbol
 _atom_site_label
 _atom_site_symmetry_multiplicity
 _atom_site_fract_x
 _atom_site_fract_y
 _atom_site_fract_z
 _atom_site_occupancy
  Na  Na0  1  0.00082134  0.98990075  0.50493343  1
  Na  Na1  1  0.01020506  0.99855049  0.00119299  1
  Na  Na2  1  0.66065581  0.32596816  0.83073057  1
  Na  Na3  1  0.66730151  0.33331409  0.34063304  1
  Na  Na4  1  0.32632450  0.65823015  0.16850290  1
  Na  Na5  1  0.34987363  0.67172293  0.66397247  1
  Ca  Ca0  1  0.99946612  0.99964015  0.64716866  1
  Ca  Ca1  1  0.00490346  0.99954668  0.14255478  1
  Ca  Ca2  1  0.33362588  0.66937951  0.32073283  1
  Sn  Sn0  1  0.00195923  0.00066046  0.35677949  1
  Sn  Sn1  1  0.00049852  0.00730064  0.85046977  1
  Sn  Sn2  1  0.64752832  0.32037335  0.68377315  1
  Sn  Sn3  1  0.66946673  0.34290020  0.18279837  1
  Sn  Sn4  1  0.66581223  0.33743299  0.97689047  1
  Sn  Sn5  1  0.66127660  0.33335825  0.48153248  1
  Sn  Sn6  1  0.32868639  0.66017655  0.01618515  1
  Sn  Sn7  1  0.34152114  0.67109232  0.51519138  1
  Sn  Sn8  1  0.33774200  0.66772762  0.81783334  1
  P  P0  1  0.29857204  0.30091831  0.75209018  1
  P  P1  1  0.69979175  0.00197956  0.75132238  1
  P  P2  1  0.37706926  0.03262703  0.58030490  1
  P  P3  1  0.65741223  0.61786149  0.58157780  1
  P  P4  1  0.96041167  0.61584357  0.07934012  1
  P  P5  1  0.38425558  0.34443803  0.07938622  1
  P  P6  1  0.62971426  0.67240149  0.91703266  1
  P  P7  1  0.03974331  0.37271626  0.91631903  1
  P  P8  1  0.33028686  0.95717101  0.91695322  1
  P  P9  1  0.63557549  0.97135192  0.41710426  1
  P  P10  1  0.33309895  0.36823839  0.41745091  1
  P  P11  1  0.03305789  0.66372691  0.41826634  1
  S  S0  1  0.30404266  0.01092713  0.24893975  1
  S  S1  1  0.70881638  0.70114801  0.24939196  1
  S  S2  1  0.98928685  0.29118905  0.24845561  1
  S  S3  1  0.99842854  0.69797724  0.75266490  1
  S  S4  1  0.95969751  0.34455180  0.58207272  1
  S  S5  1  0.65520517  0.04074530  0.08045133  1
  O  O0  1  0.22248470  0.03466821  0.30266302  1
  O  O1  1  0.81422076  0.78374471  0.30293351  1
  O  O2  1  0.96621696  0.18610931  0.30238607  1
  O  O3  1  0.21857259  0.18475910  0.80752979  1
  O  O4  1  0.96885778  0.77811744  0.80547503  1
  O  O5  1  0.81146779  0.03096344  0.80728669  1
  O  O6  1  0.77202599  0.96688616  0.69833312  1
  O  O7  1  0.19577990  0.22643582  0.69828337  1
  O  O8  1  0.02985884  0.80103394  0.70102748  1
  O  O9  1  0.79304234  0.79835714  0.19750090  1
  O  O10  1  0.00328686  0.20630598  0.19710099  1
  O  O11  1  0.20452131  0.99610572  0.19754444  1
  O  O12  1  0.87888754  0.36773358  0.63581285  1
  O  O13  1  0.48641494  0.10877959  0.63717351  1
  O  O14  1  0.63352601  0.51034478  0.63867085  1
  O  O15  1  0.88296927  0.50658304  0.13641425  1
  O  O16  1  0.63018648  0.11861920  0.13441227  1
  O  O17  1  0.48982658  0.36923268  0.13664531  1
  O  O18  1  0.47352755  0.31825128  0.02666725  1
  O  O19  1  0.85026515  0.52094612  0.02632693  1
  O  O20  1  0.67667662  0.14663976  0.02851974  1
  O  O21  1  0.47296065  0.14438367  0.52758901  1
  O  O22  1  0.68133722  0.52863337  0.52865930  1
  O  O23  1  0.85498347  0.32495326  0.53003292  1
  O  O24  1  0.54942320  0.70406508  0.97170734  1
  O  O25  1  0.15041668  0.44969631  0.97134215  1
  O  O26  1  0.30032798  0.84650196  0.97225393  1
  O  O27  1  0.55421132  0.85409212  0.47121577  1
  O  O28  1  0.30076683  0.45164254  0.47153063  1
  O  O29  1  0.15055842  0.69537788  0.47205910  1
  O  O30  1  0.09916544  0.63301933  0.36284759  1
  O  O31  1  0.53368672  0.90461263  0.36251752  1
  O  O32  1  0.36376335  0.46708279  0.36229114  1
  O  O33  1  0.12174969  0.48938448  0.86315655  1
  O  O34  1  0.36279149  0.87593154  0.86355170  1
  O  O35  1  0.51508124  0.63769100  0.86365414  1
  O  O36  1  0.01549189  0.83211487  0.41370958  1
  O  O37  1  0.81968871  0.98663081  0.41221146  1
  O  O38  1  0.16555666  0.18253392  0.41351650  1
  O  O39  1  0.02178644  0.19059288  0.91034258  1
  O  O40  1  0.16602800  0.97559677  0.90985349  1
  O  O41  1  0.81303742  0.83475907  0.90963436  1
  O  O42  1  0.97894571  0.19137141  0.58503676  1
  O  O43  1  0.20048144  0.01786130  0.58304892  1
  O  O44  1  0.81341461  0.79848300  0.58404244  1
  O  O45  1  0.97512309  0.79257752  0.08118636  1
  O  O46  1  0.80784972  0.02062207  0.08390931  1
  O  O47  1  0.20244636  0.18955363  0.08134590  1
  O  O48  1  0.68619824  0.17247588  0.74610494  1
  O  O49  1  0.48695534  0.32473109  0.74827851  1
  O  O50  1  0.84186993  0.52071571  0.74756550  1
  O  O51  1  0.69851621  0.52324586  0.24753055  1
  O  O52  1  0.82097114  0.30057070  0.24557999  1
  O  O53  1  0.48222905  0.17732956  0.24553284  1
  O  O54  1  0.64839955  0.50768106  0.92192216  1
  O  O55  1  0.85510466  0.35110247  0.92215805  1
  O  O56  1  0.49593671  0.14047408  0.92293223  1
  O  O57  1  0.66635549  0.15762868  0.42670336  1
  O  O58  1  0.49103650  0.33983224  0.42531376  1
  O  O59  1  0.84757965  0.50591861  0.42738430  1
  O  O60  1  0.38083692  0.51913324  0.07546575  1
  O  O61  1  0.14420663  0.63102623  0.07612276  1
  O  O62  1  0.49276617  0.86732694  0.07652849  1
  O  O63  1  0.36476157  0.85065881  0.57595068  1
  O  O64  1  0.48210632  0.62089108  0.57673028  1
  O  O65  1  0.13293528  0.50679303  0.57756980  1
  O  O66  1  0.32953416  0.86160490  0.25304801  1
  O  O67  1  0.53338825  0.67423671  0.25331109  1
  O  O68  1  0.13783610  0.46678688  0.25253753  1
  O  O69  1  0.31807731  0.48422514  0.76149847  1
  O  O70  1  0.15496829  0.67784716  0.76132210  1
  O  O71  1  0.51160597  0.84429399  0.76095547  1
loop_
_geom_bond_atom_site_label_1
_geom_bond_atom_site_label_2
_geom_bond_distance
_geom_bond_site_symmetry_2
Na0 O43 2.456761 1_565
Na0 O44 2.485343 1_455
Na0 O36 2.584468 1_555
Na0 O38 2.653260 1_565
Na0 O42 2.659754 1_465
Na0 O37 2.674866 1_455
Na1 O45 2.506898 1_455
Na1 O47 2.523979 1_565
Na1 O40 2.597701 1_554
Na1 O39 2.674490 1_564
Na1 O41 2.676479 1_454
Na1 O46 2.704562 1_465
Na2 O49 2.451068 1_555
Na2 O48 2.471112 1_555
Na2 O50 2.549064 1_555
Na2 O56 2.645515 1_555
Na2 O55 2.670884 1_555
Na2 O54 2.703228 1_555
Na3 O57 2.525666 1_555
Na3 O58 2.533140 1_555
Na3 O59 2.555047 1_555
Na3 O51 2.662544 1_555
Na3 O52 2.688681 1_555
Na3 O53 2.688935 1_555
Na4 O68 2.574007 1_555
Na4 O61 2.620732 1_555
Na4 O67 2.644586 1_555
Na4 O60 2.655939 1_555
Na4 O66 2.663784 1_555
Na4 O62 2.723031 1_555
Na5 O64 2.496243 1_555
Na5 O63 2.544364 1_555
Na5 O65 2.657880 1_555
Na5 O71 2.701806 1_555
Na5 O69 2.733341 1_555
Na5 O70 2.865532 1_555
Ca0 O6 2.231342 1_555
Ca0 O7 2.235356 1_665
Ca0 O44 2.263903 1_555
Ca0 O43 2.266663 1_665
Ca0 O8 2.277869 1_655
Ca0 O42 2.299719 1_565
Ca1 O11 2.191844 1_555
Ca1 O47 2.227097 1_565
Ca1 O9 2.229878 1_455
Ca1 O45 2.238603 1_455
Ca1 O10 2.239976 1_565
Ca1 O46 2.291740 1_465
Ca2 O32 2.163430 1_555
Ca2 O30 2.170637 1_555
Ca2 O31 2.179544 1_555
Ca2 O66 2.326398 1_555
Ca2 O67 2.349975 1_555
Ca2 O68 2.376327 1_555
O0 S0 1.510908 1_555
O0 Sn0 2.214961 1_555
O1 S1 1.508633 1_555
O1 Sn0 2.201598 1_665
O2 S2 1.509279 1_555
O2 Sn0 2.213140 1_655
O3 P0 1.575382 1_555
O3 Sn1 2.038403 1_555
O4 S3 1.508446 1_555
O4 Sn1 2.179876 1_665
O5 P1 1.574425 1_555
O5 Sn1 2.048649 1_655
O6 P1 1.492760 1_565
O7 P0 1.493363 1_555
O8 S3 1.444647 1_455
O9 S1 1.450058 1_555
O10 S2 1.452090 1_455
O11 S0 1.449620 1_565
O12 S4 1.505716 1_555
O12 Sn2 2.182487 1_555
O13 P2 1.577751 1_555
O13 Sn2 2.016288 1_555
O14 P3 1.580802 1_555
O14 Sn2 2.034792 1_555
O15 P4 1.578911 1_555
O15 Sn3 2.022907 1_555
O16 S5 1.503560 1_555
O16 Sn3 2.160750 1_555
O17 P5 1.576233 1_555
O17 Sn3 2.024500 1_555
O18 P5 1.539560 1_555
O18 Sn4 1.996224 1_554
O19 P4 1.536680 1_555
O19 Sn4 1.997257 1_554
O20 S5 1.477741 1_555
O20 Sn4 2.109680 1_554
O21 P2 1.534027 1_555
O21 Sn5 1.982137 1_555
O22 P3 1.536627 1_555
O22 Sn5 1.984777 1_555
O23 S4 1.479342 1_555
O23 Sn5 2.082975 1_555
O24 P6 1.550974 1_555
O24 Sn6 2.070495 1_556
O25 P7 1.547746 1_555
O25 Sn6 2.031707 1_556
O26 P8 1.552913 1_555
O26 Sn6 2.056794 1_556
O27 P9 1.556109 1_555
O27 Sn7 2.039656 1_555
O28 P10 1.558999 1_555
O28 Sn7 2.064385 1_555
O29 P11 1.558812 1_555
O29 Sn7 2.065764 1_555
O30 P11 1.497029 1_555
O31 P9 1.497241 1_555
O32 P10 1.495177 1_555
O33 P7 1.536897 1_555
O33 Sn8 2.058112 1_555
O34 P8 1.535974 1_555
O34 Sn8 2.048185 1_555
O35 P6 1.532884 1_555
O35 Sn8 2.020074 1_555
O36 P11 1.579639 1_555
O36 Sn0 2.038288 1_565
O37 P9 1.572116 1_555
O37 Sn0 2.021851 1_665
O38 P10 1.574600 1_555
O38 Sn0 2.028504 1_555
O39 P7 1.548410 1_555
O39 Sn1 2.080254 1_555
O40 P8 1.551805 1_555
O40 Sn1 2.128901 1_565
O41 P6 1.549175 1_555
O41 Sn1 2.105847 1_665
O42 S4 1.452290 1_555
O43 P2 1.504752 1_555
O44 P3 1.505039 1_555
O45 P4 1.506936 1_555
O46 S5 1.451844 1_555
O47 P5 1.506586 1_555
O48 P1 1.579444 1_555
O48 Sn2 2.088320 1_555
O49 P0 1.576678 1_555
O49 Sn2 2.082240 1_555
O50 S3 1.493005 1_555
O50 Sn2 2.296454 1_555
O51 S1 1.534641 1_555
O51 Sn3 2.120515 1_555
O52 S2 1.535773 1_555
O52 Sn3 2.135238 1_555
O53 S0 1.531357 1_555
O53 Sn3 2.140875 1_555
O54 P6 1.553520 1_555
O54 Sn4 2.035920 1_555
O55 P7 1.555034 1_655
O55 Sn4 2.061117 1_555
O56 P8 1.559007 1_545
O56 Sn4 2.066921 1_555
O57 P9 1.550867 1_545
O57 Sn5 2.035538 1_555
O58 P10 1.550990 1_555
O58 Sn5 2.015186 1_555
O59 P11 1.549754 1_655
O59 Sn5 2.027499 1_555
O60 P5 1.566505 1_555
O60 Sn6 2.056945 1_555
O61 P4 1.567273 1_455
O61 Sn6 2.064100 1_555
O62 S5 1.493796 1_565
O62 Sn6 2.190798 1_555
O63 P2 1.565586 1_565
O63 Sn7 2.064977 1_555
O64 P3 1.570514 1_555
O64 Sn7 2.081649 1_555
O65 S4 1.492264 1_455
O65 Sn7 2.221296 1_555
O66 S0 1.452827 1_565
O67 S1 1.452669 1_555
O68 S2 1.454919 1_455
O69 P0 1.562676 1_555
O69 Sn8 2.031808 1_555
O70 S3 1.497220 1_455
O70 Sn8 2.118586 1_555
O71 P1 1.565726 1_565
O71 Sn8 2.035890 1_555
