# generated using pymatgen
data_Na7ZrZn3P5SO24
_symmetry_space_group_name_H-M   'P 1'
_cell_length_a   9.07183810
_cell_length_b   9.05229883
_cell_length_c   22.18245648
_cell_angle_alpha   89.31914007
_cell_angle_beta   90.44837248
_cell_angle_gamma   119.88765293
_symmetry_Int_Tables_number   1
_chemical_formula_structural   Na7ZrZn3P5SO24
_chemical_formula_sum   'Na21 Zr3 Zn9 P15 S3 O72'
_cell_volume   1579.25869390
_cell_formula_units_Z   3
loop_
 _symmetry_equiv_pos_site_id
 _symmetry_equiv_pos_as_xyz
  1  'x, y, z'
loop_
 _atom_site_type_symbol
 _atom_site_label
 _atom_site_symmetry_multiplicity
 _atom_site_fract_x
 _atom_site_fract_y
 _atom_site_fract_z
 _atom_site_occupancy
  Na  Na0  1  0.62387570  0.99612355  0.25102104  1
  Na  Na1  1  0.36872901  0.36259960  0.25287094  1
  Na  Na2  1  0.00831390  0.63907936  0.24900289  1
  Na  Na3  1  0.64634744  0.63417166  0.74384067  1
  Na  Na4  1  0.99075194  0.35479134  0.74579701  1
  Na  Na5  1  0.29687765  0.33984294  0.58788392  1
  Na  Na6  1  0.03128602  0.70197365  0.58868069  1
  Na  Na7  1  0.67504723  0.96103069  0.58510264  1
  Na  Na8  1  0.29239420  0.95755482  0.08220059  1
  Na  Na9  1  0.66435874  0.70154013  0.07946905  1
  Na  Na10  1  0.03965427  0.33585541  0.07976780  1
  Na  Na11  1  0.97381055  0.67913707  0.90675707  1
  Na  Na12  1  0.32091572  0.29387213  0.90683271  1
  Na  Na13  1  0.32314859  0.02098971  0.40897123  1
  Na  Na14  1  0.69854639  0.67869627  0.41409719  1
  Na  Na15  1  0.99460505  0.01739854  0.49697568  1
  Na  Na16  1  0.98381711  -0.00024816  0.99442285  1
  Na  Na17  1  0.64820268  0.29895604  0.82409437  1
  Na  Na18  1  0.67222342  0.32468957  0.32888004  1
  Na  Na19  1  0.33279023  0.67182514  0.16378765  1
  Na  Na20  1  0.33442086  0.67199685  0.66265287  1
  Zr  Zr0  1  0.66785527  0.32845255  0.98095159  1
  Zr  Zr1  1  0.67931140  0.33905005  0.47918431  1
  Zr  Zr2  1  0.33566118  0.67599196  0.81340777  1
  Zn  Zn0  1  0.01089691  0.00936881  0.35312422  1
  Zn  Zn1  1  0.99636227  0.00220856  0.84497425  1
  Zn  Zn2  1  0.99492397  0.00288108  0.66089943  1
  Zn  Zn3  1  0.00970129  0.99834577  0.14699367  1
  Zn  Zn4  1  0.67079343  0.33732580  0.68591489  1
  Zn  Zn5  1  0.65424634  0.31977164  0.17453982  1
  Zn  Zn6  1  0.33784259  0.66884337  0.01315158  1
  Zn  Zn7  1  0.32960524  0.65354975  0.50841638  1
  Zn  Zn8  1  0.32737955  0.67204644  0.32776359  1
  P  P0  1  0.29882893  0.99856382  0.24993587  1
  P  P1  1  0.30050227  0.29671795  0.75038074  1
  P  P2  1  0.99891494  0.70479794  0.74934717  1
  P  P3  1  0.70603523  0.00437472  0.74662967  1
  P  P4  1  0.96995330  0.33605461  0.58811689  1
  P  P5  1  0.66471366  0.63165699  0.58450110  1
  P  P6  1  0.96174165  0.62815033  0.08752863  1
  P  P7  1  0.66772295  0.03061601  0.08931779  1
  P  P8  1  0.36798056  0.33547582  0.08609612  1
  P  P9  1  0.63421502  0.67228793  0.91954753  1
  P  P10  1  0.03862505  0.36781142  0.91947032  1
  P  P11  1  0.32800031  0.96153387  0.92165536  1
  P  P12  1  0.63309015  0.96250433  0.41594018  1
  P  P13  1  0.33142068  0.36730747  0.41597223  1
  P  P14  1  0.03970775  0.67250346  0.41553001  1
  S  S0  1  0.70298277  0.70271502  0.25032248  1
  S  S1  1  0.99985896  0.29530479  0.24840139  1
  S  S2  1  0.37176684  0.03805734  0.58337029  1
  O  O0  1  0.21334897  0.02146149  0.30635810  1
  O  O1  1  0.80137599  0.78865988  0.30545673  1
  O  O2  1  0.97809335  0.18496865  0.30102990  1
  O  O3  1  0.21655979  0.20021736  0.80863378  1
  O  O4  1  0.98356230  0.79053516  0.80629712  1
  O  O5  1  0.82147177  0.03024319  0.80033528  1
  O  O6  1  0.77039676  0.96511889  0.68783735  1
  O  O7  1  0.19178969  0.22068026  0.69310797  1
  O  O8  1  0.01890102  0.80337878  0.69014709  1
  O  O9  1  0.78628887  0.80404601  0.19495167  1
  O  O10  1  0.01428267  0.21775453  0.19137310  1
  O  O11  1  0.19229770  0.97573594  0.19219711  1
  O  O12  1  0.88921406  0.35836395  0.64500529  1
  O  O13  1  0.47869807  0.12596968  0.63534681  1
  O  O14  1  0.64283647  0.52422254  0.64130297  1
  O  O15  1  0.87537045  0.52277375  0.14473790  1
  O  O16  1  0.64519200  0.10775454  0.14750228  1
  O  O17  1  0.47024632  0.35894887  0.14449667  1
  O  O18  1  0.46717059  0.31821000  0.03114285  1
  O  O19  1  0.85156591  0.53284371  0.03036732  1
  O  O20  1  0.68466026  0.15254193  0.03527169  1
  O  O21  1  0.45644650  0.13483080  0.52556103  1
  O  O22  1  0.67403231  0.53016298  0.52818007  1
  O  O23  1  0.84842243  0.31707908  0.53358892  1
  O  O24  1  0.55307003  0.68506209  0.97790478  1
  O  O25  1  0.13793123  0.45131088  0.97734614  1
  O  O26  1  0.31259274  0.86479220  0.98045379  1
  O  O27  1  0.54746406  0.85628634  0.47298244  1
  O  O28  1  0.31895549  0.44571761  0.47502753  1
  O  O29  1  0.14540787  0.69217266  0.47230231  1
  O  O30  1  0.10929948  0.64584101  0.35642530  1
  O  O31  1  0.52480805  0.88889367  0.35835390  1
  O  O32  1  0.35980867  0.47937054  0.35955561  1
  O  O33  1  0.12835697  0.48494015  0.86340462  1
  O  O34  1  0.34686314  0.86631253  0.86690464  1
  O  O35  1  0.51712914  0.64637465  0.86401598  1
  O  O36  1  0.01125745  0.82725204  0.41338080  1
  O  O37  1  0.81013554  0.98025949  0.41137325  1
  O  O38  1  0.18072443  0.18456391  0.41284070  1
  O  O39  1  0.01953903  0.19111262  0.91430763  1
  O  O40  1  0.17140694  0.98401730  0.91584314  1
  O  O41  1  0.81626377  0.82025709  0.91347209  1
  O  O42  1  0.98453040  0.17294734  0.58603075  1
  O  O43  1  0.20201032  0.02670419  0.58405867  1
  O  O44  1  0.83098269  0.80575006  0.58178364  1
  O  O45  1  0.97083468  0.80368569  0.08534732  1
  O  O46  1  0.83267989  0.02033888  0.08771166  1
  O  O47  1  0.19232768  0.17068145  0.08477729  1
  O  O48  1  0.68277357  0.16062322  0.74265370  1
  O  O49  1  0.48328666  0.32922098  0.74673982  1
  O  O50  1  0.84172346  0.52292792  0.74891923  1
  O  O51  1  0.68977709  0.53005976  0.25015876  1
  O  O52  1  0.84682314  0.31917488  0.24860631  1
  O  O53  1  0.47976890  0.16220058  0.24834127  1
  O  O54  1  0.64210559  0.50115162  0.92049853  1
  O  O55  1  0.86273670  0.36174211  0.92045962  1
  O  O56  1  0.48962670  0.14321654  0.92052521  1
  O  O57  1  0.64605394  0.14210898  0.42124298  1
  O  O58  1  0.49783318  0.35025452  0.41892488  1
  O  O59  1  0.85480929  0.51336063  0.42007114  1
  O  O60  1  0.34908609  0.49528740  0.08102580  1
  O  O61  1  0.14006537  0.64709271  0.08424508  1
  O  O62  1  0.50787815  0.85398209  0.08308069  1
  O  O63  1  0.35092726  0.86347912  0.58166181  1
  O  O64  1  0.50511149  0.65261268  0.58069823  1
  O  O65  1  0.14523900  0.49956234  0.58076693  1
  O  O66  1  0.31703519  0.83543238  0.25279653  1
  O  O67  1  0.52749917  0.68141449  0.25097012  1
  O  O68  1  0.15888813  0.46717175  0.25171332  1
  O  O69  1  0.31576522  0.48025337  0.75425851  1
  O  O70  1  0.15777490  0.67815226  0.75289077  1
  O  O71  1  0.52808466  0.83889143  0.75508963  1
loop_
_geom_bond_atom_site_label_1
_geom_bond_atom_site_label_2
_geom_bond_distance
_geom_bond_site_symmetry_2
Na0 O66 2.414739 1_555
Na0 O53 2.434773 1_565
Na0 O16 2.467507 1_565
Na0 O67 2.529439 1_555
Na0 O31 2.554955 1_555
Na0 O52 2.597854 1_565
Na1 O53 2.478460 1_555
Na1 O67 2.502149 1_555
Na1 O68 2.512998 1_555
Na1 O51 2.526803 1_555
Na1 O17 2.587540 1_555
Na1 O32 2.621459 1_555
Na1 O0 2.920941 1_555
Na2 O66 2.459449 1_555
Na2 O52 2.510924 1_455
Na2 O68 2.531031 1_555
Na2 O30 2.536656 1_555
Na2 O51 2.546269 1_455
Na2 O15 2.580902 1_455
Na3 O49 2.395908 1_555
Na3 O50 2.437457 1_555
Na3 O14 2.487211 1_555
Na3 O71 2.577639 1_555
Na3 O69 2.612952 1_555
Na3 O6 2.891062 1_555
Na3 O35 2.945798 1_555
Na3 O4 2.991035 1_555
Na4 O12 2.417459 1_555
Na4 O48 2.450725 1_555
Na4 O50 2.490752 1_555
Na4 O70 2.544781 1_655
Na4 O69 2.584125 1_655
Na4 O5 2.810954 1_555
Na4 O33 2.882479 1_655
Na4 O7 2.905115 1_655
Na5 O65 2.445626 1_555
Na5 O42 2.458971 1_455
Na5 O64 2.504761 1_555
Na5 O43 2.521169 1_555
Na5 O7 2.543760 1_555
Na5 O28 2.642982 1_555
Na6 O44 2.429258 1_455
Na6 O8 2.465174 1_555
Na6 O63 2.519284 1_555
Na6 O65 2.520905 1_555
Na6 O43 2.551137 1_565
Na6 O29 2.807662 1_555
Na7 O6 2.425337 1_555
Na7 O64 2.428068 1_555
Na7 O44 2.442991 1_555
Na7 O42 2.489056 1_565
Na7 O63 2.615674 1_555
Na7 O27 2.709540 1_555
Na8 O61 2.436697 1_555
Na8 O26 2.457148 1_554
Na8 O47 2.509652 1_565
Na8 O45 2.531034 1_455
Na8 O62 2.554670 1_555
Na8 O11 2.645446 1_555
Na9 O62 2.425393 1_555
Na9 O24 2.437128 1_554
Na9 O45 2.457065 1_555
Na9 O46 2.511929 1_565
Na9 O60 2.519022 1_555
Na9 O9 2.763337 1_555
Na10 O60 2.434291 1_555
Na10 O25 2.468935 1_554
Na10 O47 2.494753 1_555
Na10 O61 2.494991 1_555
Na10 O46 2.522458 1_455
Na10 O10 2.650602 1_555
Na11 O41 2.350375 1_555
Na11 O4 2.418981 1_555
Na11 O40 2.438834 1_655
Na11 O55 2.541950 1_555
Na11 O54 2.629597 1_555
Na12 O3 2.360443 1_555
Na12 O39 2.415906 1_555
Na12 O40 2.438548 1_545
Na12 O56 2.521450 1_555
Na12 O54 2.579479 1_555
Na13 O38 2.404312 1_555
Na13 O0 2.478278 1_555
Na13 O36 2.479089 1_545
Na13 O57 2.578962 1_555
Na13 O58 2.597475 1_555
Na13 O21 2.825849 1_555
Na13 O31 2.877772 1_545
Na13 O29 2.930232 1_545
Na14 O37 2.392369 1_555
Na14 O36 2.460628 1_655
Na14 O59 2.524667 1_555
Na14 O1 2.592587 1_555
Na14 O58 2.601309 1_555
Na14 O22 2.809162 1_555
Na14 O27 2.905669 1_555
Na14 O32 2.937761 1_555
Na15 O37 2.433928 1_545
Na15 O38 2.461654 1_655
Na15 O42 2.467926 1_555
Na15 O44 2.556741 1_545
Na15 O36 2.600678 1_645
Na15 O43 2.658545 1_655
Na16 O39 2.374951 1_655
Na16 O41 2.395888 1_545
Na16 O40 2.499724 1_645
Na16 O46 2.550521 1_556
Na16 O45 2.634821 1_546
Na16 O47 2.662110 1_656
Na17 O48 2.320366 1_555
Na17 O49 2.369566 1_555
Na17 O50 2.528172 1_555
Na17 O56 2.566700 1_555
Na17 O55 2.746193 1_555
Na17 O54 2.849922 1_555
Na18 O52 2.409813 1_555
Na18 O53 2.420292 1_555
Na18 O51 2.482537 1_555
Na18 O57 2.553791 1_555
Na18 O59 2.638709 1_555
Na18 O58 2.640340 1_555
Na19 O61 2.406492 1_555
Na19 O62 2.410630 1_555
Na19 O60 2.501099 1_555
Na19 O66 2.529253 1_555
Na19 O67 2.581736 1_555
Na19 O68 2.602801 1_555
Na20 O63 2.434372 1_555
Na20 O65 2.455635 1_555
Na20 O64 2.460887 1_555
Na20 O70 2.592250 1_555
Na20 O69 2.607555 1_555
Na20 O71 2.635440 1_555
O0 P0 1.546709 1_545
O0 Zn0 2.070762 1_555
O1 S0 1.487021 1_555
O1 Zn0 2.226362 1_665
O2 S1 1.476084 1_555
O2 Zn0 2.091194 1_655
O3 P1 1.529175 1_555
O3 Zn1 2.067732 1_455
O4 P2 1.533442 1_555
O4 Zn1 2.058371 1_565
O5 P3 1.521009 1_555
O5 Zn1 1.983140 1_555
O6 P3 1.548460 1_565
O6 Zn2 1.985714 1_565
O7 P1 1.544379 1_555
O7 Zn2 2.022749 1_455
O8 P2 1.538945 1_455
O8 Zn2 2.022657 1_465
O9 S0 1.489312 1_555
O9 Zn3 2.183959 1_655
O10 S1 1.491802 1_455
O10 Zn3 2.208897 1_545
O11 P0 1.550807 1_555
O11 Zn3 2.024425 1_555
O12 P4 1.528942 1_555
O12 Zn4 2.105704 1_555
O13 S2 1.462397 1_555
O13 Zn4 2.157143 1_555
O14 P5 1.534681 1_555
O14 Zn4 2.071204 1_555
O15 P6 1.541508 1_555
O15 Zn5 2.038648 1_555
O16 P7 1.537207 1_555
O16 Zn5 1.979753 1_555
O17 P8 1.541219 1_555
O17 Zn5 1.980690 1_555
O18 P8 1.575420 1_555
O18 Zr0 2.103266 1_554
O19 P6 1.580466 1_555
O19 Zr0 2.085407 1_554
O20 P7 1.575281 1_555
O20 Zr0 2.050449 1_554
O21 S2 1.523161 1_555
O21 Zr1 2.196806 1_555
O22 P5 1.586960 1_555
O22 Zr1 2.074738 1_555
O23 P4 1.582216 1_555
O23 Zr1 2.029533 1_555
O24 P9 1.527848 1_555
O24 Zn6 2.044658 1_556
O25 P10 1.535405 1_555
O25 Zn6 2.062286 1_556
O26 P11 1.530146 1_555
O26 Zn6 2.024013 1_556
O27 P12 1.539839 1_555
O27 Zn7 2.065722 1_555
O28 P13 1.528751 1_555
O28 Zn7 1.987021 1_555
O29 P14 1.534085 1_555
O29 Zn7 2.027536 1_555
O30 P14 1.532353 1_555
O30 Zn8 1.980631 1_555
O31 P12 1.545633 1_555
O31 Zn8 2.007572 1_555
O32 P13 1.541445 1_555
O32 Zn8 2.026050 1_555
O33 P10 1.567773 1_555
O33 Zr2 2.122130 1_555
O34 P11 1.556417 1_555
O34 Zr2 2.063724 1_555
O35 P9 1.561644 1_555
O35 Zr2 2.108569 1_555
O36 P14 1.545883 1_555
O36 Zn0 2.111244 1_565
O37 P12 1.536435 1_555
O37 Zn0 2.146269 1_665
O38 P13 1.535489 1_555
O38 Zn0 2.055821 1_555
O39 P10 1.526311 1_555
O39 Zn1 2.243409 1_455
O40 P11 1.536482 1_555
O40 Zn1 2.288122 1_465
O41 P9 1.527872 1_555
O41 Zn1 2.233487 1_565
O42 P4 1.547895 1_555
O42 Zn2 2.284411 1_555
O43 S2 1.491645 1_555
O43 Zn2 2.473630 1_455
O44 P5 1.546784 1_555
O44 Zn2 2.421754 1_565
O45 P6 1.549731 1_555
O45 Zn3 2.128352 1_655
O46 P7 1.545634 1_555
O46 Zn3 2.151097 1_645
O47 P8 1.548132 1_555
O47 Zn3 2.119449 1_545
O48 P3 1.532014 1_555
O48 Zn4 2.068278 1_555
O49 P1 1.535576 1_555
O49 Zn4 2.151406 1_555
O50 P2 1.550639 1_555
O50 Zn4 2.146171 1_555
O51 S0 1.506862 1_555
O51 Zn5 2.448918 1_555
O52 S1 1.507721 1_555
O52 Zn5 2.390768 1_555
O53 P0 1.570447 1_545
O53 Zn5 2.225986 1_555
O54 P9 1.585949 1_555
O54 Zr0 2.146169 1_555
O55 P10 1.569296 1_655
O55 Zr0 2.124513 1_555
O56 P11 1.565792 1_545
O56 Zr0 2.130766 1_555
O57 P12 1.576318 1_545
O57 Zr1 2.105608 1_555
O58 P13 1.593010 1_555
O58 Zr1 2.153195 1_555
O59 P14 1.577987 1_655
O59 Zr1 2.055202 1_555
O60 P8 1.542018 1_555
O60 Zn6 2.201514 1_555
O61 P6 1.541698 1_455
O61 Zn6 2.330191 1_555
O62 P7 1.539449 1_565
O62 Zn6 2.245510 1_555
O63 S2 1.496059 1_565
O63 Zn7 2.447591 1_555
O64 P5 1.552709 1_555
O64 Zn7 2.253685 1_555
O65 P4 1.548756 1_455
O65 Zn7 2.231939 1_555
O66 P0 1.566101 1_555
O66 Zn8 2.244804 1_555
O67 S0 1.505355 1_555
O67 Zn8 2.469089 1_555
O68 S1 1.507115 1_455
O68 Zn8 2.414672 1_555
O69 P1 1.600258 1_555
O69 Zr2 2.150933 1_555
O70 P2 1.576542 1_455
O70 Zr2 2.098473 1_555
O71 P3 1.572678 1_565
O71 Zr2 2.078424 1_555
