# generated using pymatgen
data_Er2As7Rh12
_symmetry_space_group_name_H-M   'P 1'
_cell_length_a   9.89016964
_cell_length_b   9.89007473
_cell_length_c   3.88666797
_cell_angle_alpha   89.99819620
_cell_angle_beta   90.00050414
_cell_angle_gamma   119.99886727
_symmetry_Int_Tables_number   1
_chemical_formula_structural   Er2As7Rh12
_chemical_formula_sum   'Er2 As7 Rh12'
_cell_volume   329.24284386
_cell_formula_units_Z   1
loop_
 _symmetry_equiv_pos_site_id
 _symmetry_equiv_pos_as_xyz
  1  'x, y, z'
loop_
 _atom_site_type_symbol
 _atom_site_label
 _atom_site_symmetry_multiplicity
 _atom_site_fract_x
 _atom_site_fract_y
 _atom_site_fract_z
 _atom_site_occupancy
  Er  Er0  1  0.66667069  0.33335310  0.75909270  1
  Er  Er1  1  0.33333614  0.66666491  0.25032497  1
  As  As0  1  0.00000081  -0.00000141  0.50841877  1
  As  As1  1  0.28717546  0.88101166  0.75499184  1
  As  As2  1  0.11901020  0.40617853  0.75496462  1
  As  As3  1  0.59382301  0.71283009  0.75497851  1
  As  As4  1  0.71302233  0.11878163  0.25446304  1
  As  As5  1  0.88120537  0.59422613  0.25448053  1
  As  As6  1  0.40577110  0.28696599  0.25448580  1
  Rh  Rh0  1  0.06783061  0.61839654  0.75380141  1
  Rh  Rh1  1  0.38160732  0.44943281  0.75380561  1
  Rh  Rh2  1  0.55059204  0.93216730  0.75380385  1
  Rh  Rh3  1  0.93214414  0.38181691  0.25579164  1
  Rh  Rh4  1  0.61816857  0.55032652  0.25580099  1
  Rh  Rh5  1  0.44970233  0.06787042  0.25579164  1
  Rh  Rh6  1  0.26411997  0.11413437  0.75931411  1
  Rh  Rh7  1  0.88588703  0.15000732  0.75931801  1
  Rh  Rh8  1  0.84995325  0.73584446  0.75932196  1
  Rh  Rh9  1  0.73635030  0.88578907  0.25023620  1
  Rh  Rh10  1  0.11418703  0.85054887  0.25020470  1
  Rh  Rh11  1  0.14944128  0.26365480  0.25023111  1
loop_
_geom_bond_atom_site_label_1
_geom_bond_atom_site_label_2
_geom_bond_distance
_geom_bond_site_symmetry_2
Er0 Rh5 3.096972 1_556
Er0 Rh4 3.097017 1_556
Er0 Rh3 3.097061 1_556
Er0 Rh4 3.112942 1_555
Er0 Rh5 3.113112 1_555
Er0 Rh3 3.113130 1_555
Er1 Rh1 3.097386 1_554
Er1 Rh0 3.097401 1_554
Er1 Rh2 3.097405 1_554
Er1 Rh1 3.114226 1_555
Er1 Rh0 3.114320 1_555
Er1 Rh2 3.114405 1_555
As0 Rh6 2.469836 1_555
As0 Rh7 2.469858 1_455
As0 Rh8 2.470110 1_445
As0 Rh10 2.477200 1_545
As0 Rh9 2.477280 1_445
As0 Rh11 2.477284 1_555
As1 Rh2 2.392741 1_555
As1 Rh0 2.412006 1_555
As1 Rh6 2.427712 1_565
As1 Rh10 2.491397 1_556
As1 Rh10 2.520247 1_555
As1 Rh5 2.606318 1_565
As1 Rh5 2.611015 1_566
As1 Er1 3.062076 1_556
As1 Er1 3.085103 1_555
As2 Rh0 2.392439 1_555
As2 Rh1 2.411872 1_555
As2 Rh7 2.427728 1_455
As2 Rh11 2.491363 1_556
As2 Rh11 2.519974 1_555
As2 Rh3 2.606227 1_455
As2 Rh3 2.611029 1_456
As2 Er1 3.062107 1_556
As2 Er1 3.084832 1_555
As3 Rh1 2.392479 1_555
As3 Rh2 2.411635 1_555
As3 Rh8 2.427444 1_555
As3 Rh9 2.491451 1_556
As3 Rh9 2.519977 1_555
As3 Rh4 2.606200 1_555
As3 Rh4 2.610885 1_556
As3 Er1 3.062019 1_556
As3 Er1 3.084881 1_555
As4 Rh5 2.392609 1_555
As4 Rh3 2.413822 1_555
As4 Rh9 2.427961 1_545
As4 Rh7 2.488761 1_554
As4 Rh7 2.518049 1_555
As4 Rh2 2.605506 1_545
As4 Rh2 2.609391 1_544
As4 Er0 3.064808 1_554
As4 Er0 3.087632 1_555
As5 Rh3 2.392751 1_555
As5 Rh4 2.413871 1_555
As5 Rh10 2.427981 1_655
As5 Rh8 2.488724 1_554
As5 Rh8 2.518011 1_555
As5 Rh0 2.605573 1_655
As5 Rh0 2.609520 1_654
As5 Er0 3.064629 1_554
As5 Er0 3.087201 1_555
As6 Rh4 2.392843 1_555
As6 Rh5 2.413624 1_555
As6 Rh11 2.428154 1_555
As6 Rh6 2.488768 1_554
As6 Rh6 2.517840 1_555
As6 Rh1 2.605652 1_555
As6 Rh1 2.609514 1_554
As6 Er0 3.064668 1_554
As6 Er0 3.087282 1_555
