# generated using pymatgen
data_ZnH20Se2(NO7)2
_symmetry_space_group_name_H-M   'P 1'
_cell_length_a   12.74705600
_cell_length_b   6.51136400
_cell_length_c   9.39710577
_cell_angle_alpha   73.56716675
_cell_angle_beta   90.00000000
_cell_angle_gamma   90.00000000
_symmetry_Int_Tables_number   1
_chemical_formula_structural   ZnH20Se2(NO7)2
_chemical_formula_sum   'Zn2 H40 Se4 N4 O28'
_cell_volume   748.10650246
_cell_formula_units_Z   2
loop_
 _symmetry_equiv_pos_site_id
 _symmetry_equiv_pos_as_xyz
  1  'x, y, z'
loop_
 _atom_site_type_symbol
 _atom_site_label
 _atom_site_symmetry_multiplicity
 _atom_site_fract_x
 _atom_site_fract_y
 _atom_site_fract_z
 _atom_site_occupancy
  Zn  Zn0  1  0.00000000  0.00000000  0.00000000  1
  Zn  Zn1  1  0.50000000  0.00000000  0.50000000  1
  H  H0  1  0.17944600  0.54472600  0.57227300  1
  H  H1  1  0.59698500  0.94390000  0.76238000  1
  H  H2  1  0.09698500  0.05610000  0.73762000  1
  H  H3  1  0.40301500  0.05610000  0.23762000  1
  H  H4  1  0.32903800  0.80087400  0.06958500  1
  H  H5  1  0.82903800  0.19912600  0.43041500  1
  H  H6  1  0.67096200  0.19912600  0.93041500  1
  H  H7  1  0.17096200  0.80087400  0.56958500  1
  H  H8  1  0.41933800  0.62576000  0.16837700  1
  H  H9  1  0.91933800  0.37424000  0.33162300  1
  H  H10  1  0.58066200  0.37424000  0.83162300  1
  H  H11  1  0.08066200  0.62576000  0.66837700  1
  H  H12  1  0.29352600  0.61101400  0.22981500  1
  H  H13  1  0.79352600  0.38898600  0.27018500  1
  H  H14  1  0.70647400  0.38898600  0.77018500  1
  H  H15  1  0.20647400  0.61101400  0.72981500  1
  H  H16  1  0.32055400  0.54472600  0.07227300  1
  H  H17  1  0.82055400  0.45527400  0.42772700  1
  H  H18  1  0.67944600  0.45527400  0.92772700  1
  H  H19  1  0.87902700  0.10488900  0.74850900  1
  H  H20  1  0.68520600  0.00573000  0.63765000  1
  H  H21  1  0.18520600  0.99427000  0.86235000  1
  H  H22  1  0.31479400  0.99427000  0.36235000  1
  H  H23  1  0.81479400  0.00573000  0.13765000  1
  H  H24  1  0.58480600  0.32045700  0.28480300  1
  H  H25  1  0.08480600  0.67954300  0.21519700  1
  H  H26  1  0.41519400  0.67954300  0.71519700  1
  H  H27  1  0.91519400  0.32045700  0.78480300  1
  H  H28  1  0.62097300  0.10488900  0.24850900  1
  H  H29  1  0.12097300  0.89511100  0.25149100  1
  H  H30  1  0.85850400  0.67618600  0.02461600  1
  H  H31  1  0.35850400  0.32381400  0.47538400  1
  H  H32  1  0.14149600  0.32381400  0.97538400  1
  H  H33  1  0.64149600  0.67618600  0.52461600  1
  H  H34  1  0.94300900  0.66893100  0.90231200  1
  H  H35  1  0.44300900  0.33106900  0.59768800  1
  H  H36  1  0.05699100  0.33106900  0.09768800  1
  H  H37  1  0.55699100  0.66893100  0.40231200  1
  H  H38  1  0.37902700  0.89511100  0.75149100  1
  H  H39  1  0.90301500  0.94390000  0.26238000  1
  Se  Se0  1  0.86748700  0.74025500  0.58652900  1
  Se  Se1  1  0.36748700  0.25974500  0.91347100  1
  Se  Se2  1  0.63251300  0.74025500  0.08652900  1
  Se  Se3  1  0.13251300  0.25974500  0.41347100  1
  N  N0  1  0.34052600  0.64563300  0.13626700  1
  N  N1  1  0.15947400  0.64563300  0.63626700  1
  N  N2  1  0.84052600  0.35436700  0.36373300  1
  N  N3  1  0.65947400  0.35436700  0.86373300  1
  O  O0  1  0.60768100  0.17042800  0.32965800  1
  O  O1  1  0.06673900  0.29293900  0.00349500  1
  O  O2  1  0.43326100  0.29293900  0.50349500  1
  O  O3  1  0.93326100  0.70706100  0.99650500  1
  O  O4  1  0.17949700  0.03159400  0.38659900  1
  O  O5  1  0.67949700  0.96840600  0.11340100  1
  O  O6  1  0.88828000  0.03686900  0.15991700  1
  O  O7  1  0.38828000  0.96313100  0.34008300  1
  O  O8  1  0.11172000  0.96313100  0.84008300  1
  O  O9  1  0.61172000  0.03686900  0.65991700  1
  O  O10  1  0.82050300  0.96840600  0.61340100  1
  O  O11  1  0.32050300  0.03159400  0.88659900  1
  O  O12  1  0.05568200  0.39057700  0.27041900  1
  O  O13  1  0.55568200  0.60942300  0.22958100  1
  O  O14  1  0.10768100  0.82957200  0.17034200  1
  O  O15  1  0.56673900  0.70706100  0.49650500  1
  O  O16  1  0.89231900  0.17042800  0.82965800  1
  O  O17  1  0.94431800  0.60942300  0.72958100  1
  O  O18  1  0.43710500  0.21036800  0.06875100  1
  O  O19  1  0.93710500  0.78963200  0.43124900  1
  O  O20  1  0.56289500  0.78963200  0.93124900  1
  O  O21  1  0.06289500  0.21036800  0.56875100  1
  O  O22  1  0.26666200  0.42408800  0.92197100  1
  O  O23  1  0.76666200  0.57591200  0.57802900  1
  O  O24  1  0.73333800  0.57591200  0.07802900  1
  O  O25  1  0.23333800  0.42408800  0.42197100  1
  O  O26  1  0.44431800  0.39057700  0.77041900  1
  O  O27  1  0.39231900  0.82957200  0.67034200  1
loop_
_geom_bond_atom_site_label_1
_geom_bond_atom_site_label_2
_geom_bond_distance
_geom_bond_site_symmetry_2
H0 N1 1.040048 1_555
H1 O9 0.999524 1_565
H1 O20 1.677547 1_555
H2 O8 0.999524 1_545
H2 O21 1.677547 1_555
H3 O7 0.999524 1_545
H3 O18 1.677547 1_555
H4 N0 1.038029 1_555
H5 N2 1.038029 1_555
H6 N3 1.038029 1_555
H7 N1 1.038029 1_555
H8 N0 1.046405 1_555
H9 N2 1.046405 1_555
H10 N3 1.046405 1_555
H11 N1 1.046405 1_555
H12 N0 1.034609 1_555
H13 N2 1.034609 1_555
H14 N3 1.034609 1_555
H15 N1 1.034609 1_555
H16 N0 1.040048 1_555
H17 N2 1.040048 1_555
H18 N3 1.040048 1_555
H19 O16 0.988154 1_555
H20 O9 0.993157 1_555
H21 O8 0.993157 1_555
H22 O7 0.993157 1_555
H23 O6 0.993157 1_555
H24 O0 0.991989 1_555
H25 O14 0.991989 1_555
H26 O27 0.991989 1_555
H27 O16 0.991989 1_555
H28 O0 0.988154 1_555
H29 O14 0.988154 1_555
H30 O3 0.994098 1_554
H30 O24 1.743110 1_555
H31 O2 0.994098 1_555
H31 O25 1.743110 1_555
H32 O1 0.994098 1_556
H32 O22 1.743110 1_555
H33 O15 0.994098 1_555
H33 O23 1.743110 1_555
H34 O3 0.992419 1_555
H35 O2 0.992419 1_555
H36 O1 0.992419 1_555
H37 O15 0.992419 1_555
H38 O27 0.988154 1_555
H39 O6 0.999524 1_565
H39 O19 1.677547 1_555
O0 Zn1 2.161673 1_555
O1 Zn0 2.097273 1_555
O2 Zn1 2.097273 1_555
O3 Zn0 2.097273 1_666
O4 Se3 1.685714 1_555
O5 Se2 1.685714 1_555
O6 Zn0 2.132625 1_655
O7 Zn1 2.132625 1_565
O8 Zn0 2.132625 1_566
O9 Zn1 2.132625 1_555
O10 Se0 1.685714 1_555
O11 Se1 1.685714 1_555
O12 Se3 1.686428 1_555
O13 Se2 1.686428 1_555
O14 Zn0 2.161673 1_565
O15 Zn1 2.097273 1_565
O16 Zn0 2.161673 1_656
O17 Se0 1.686428 1_555
O18 Se1 1.659721 1_554
O19 Se0 1.659721 1_555
O20 Se2 1.659721 1_556
O21 Se3 1.659721 1_555
O22 Se1 1.688681 1_555
O23 Se0 1.688681 1_555
O24 Se2 1.688681 1_555
O25 Se3 1.688681 1_555
O26 Se1 1.686428 1_555
O27 Zn1 2.161673 1_565
