# generated using pymatgen
data_Na3Ta5ZnSi3(PO6)6
_symmetry_space_group_name_H-M   'P 1'
_cell_length_a   8.82197811
_cell_length_b   8.82197782
_cell_length_c   22.68946951
_cell_angle_alpha   90.00000000
_cell_angle_beta   90.00000000
_cell_angle_gamma   120.00000106
_symmetry_Int_Tables_number   1
_chemical_formula_structural   Na3Ta5ZnSi3(PO6)6
_chemical_formula_sum   'Na6 Ta10 Zn2 Si6 P12 O72'
_cell_volume   1529.27963899
_cell_formula_units_Z   2
loop_
 _symmetry_equiv_pos_site_id
 _symmetry_equiv_pos_as_xyz
  1  'x, y, z'
loop_
 _atom_site_type_symbol
 _atom_site_label
 _atom_site_symmetry_multiplicity
 _atom_site_fract_x
 _atom_site_fract_y
 _atom_site_fract_z
 _atom_site_occupancy
  Na  Na0  1  -0.00000000  -0.00000000  0.49870885  1
  Na  Na1  1  -0.00000000  -0.00000000  0.99870885  1
  Na  Na2  1  0.66666700  0.33333300  0.82578005  1
  Na  Na3  1  0.66666700  0.33333300  0.32578005  1
  Na  Na4  1  0.33333300  0.66666700  0.16654918  1
  Na  Na5  1  0.33333300  0.66666700  0.66654918  1
  Ta  Ta0  1  -0.00000000  -0.00000000  0.35606290  1
  Ta  Ta1  1  -0.00000000  -0.00000000  0.85606290  1
  Ta  Ta2  1  -0.00000000  -0.00000000  0.64566738  1
  Ta  Ta3  1  -0.00000000  -0.00000000  0.14566738  1
  Ta  Ta4  1  0.66666700  0.33333300  0.97785050  1
  Ta  Ta5  1  0.66666700  0.33333300  0.47785050  1
  Ta  Ta6  1  0.33333300  0.66666700  0.01986307  1
  Ta  Ta7  1  0.33333300  0.66666700  0.51986307  1
  Ta  Ta8  1  0.33333300  0.66666700  0.31182113  1
  Ta  Ta9  1  0.33333300  0.66666700  0.81182113  1
  Zn  Zn0  1  0.66666700  0.33333300  0.68597829  1
  Zn  Zn1  1  0.66666700  0.33333300  0.18597829  1
  Si  Si0  1  0.61899575  0.66573099  0.91612170  1
  Si  Si1  1  0.04673423  0.38100425  0.91612170  1
  Si  Si2  1  0.33426901  0.95326577  0.91612170  1
  Si  Si3  1  0.61899575  0.95326577  0.41612170  1
  Si  Si4  1  0.33426901  0.38100425  0.41612170  1
  Si  Si5  1  0.04673423  0.66573099  0.41612170  1
  P  P0  1  0.29017120  0.00151111  0.25021173  1
  P  P1  1  0.71133990  0.70982880  0.25021173  1
  P  P2  1  0.99848889  0.28866010  0.25021173  1
  P  P3  1  0.29017120  0.28866010  0.75021173  1
  P  P4  1  0.99848889  0.70982880  0.75021173  1
  P  P5  1  0.71133990  0.00151111  0.75021173  1
  P  P6  1  0.95465532  0.33518154  0.58519779  1
  P  P7  1  0.38052722  0.04534468  0.58519779  1
  P  P8  1  0.66481846  0.61947278  0.58519779  1
  P  P9  1  0.95465532  0.61947278  0.08519779  1
  P  P10  1  0.66481846  0.04534468  0.08519779  1
  P  P11  1  0.38052722  0.33518154  0.08519779  1
  O  O0  1  0.19109046  0.01591785  0.30449900  1
  O  O1  1  0.82482739  0.80890954  0.30449900  1
  O  O2  1  0.98408215  0.17517261  0.30449900  1
  O  O3  1  0.19109046  0.17517261  0.80449900  1
  O  O4  1  0.98408215  0.80890954  0.80449900  1
  O  O5  1  0.82482739  0.01591785  0.80449900  1
  O  O6  1  0.80393147  0.97576384  0.69453805  1
  O  O7  1  0.17183238  0.19606853  0.69453805  1
  O  O8  1  0.02423616  0.82816762  0.69453805  1
  O  O9  1  0.80393147  0.82816762  0.19453805  1
  O  O10  1  0.02423616  0.19606853  0.19453805  1
  O  O11  1  0.17183238  0.97576384  0.19453805  1
  O  O12  1  0.88147877  0.36805981  0.64003039  1
  O  O13  1  0.48658204  0.11852123  0.64003039  1
  O  O14  1  0.63194019  0.51341796  0.64003039  1
  O  O15  1  0.88147877  0.51341796  0.14003039  1
  O  O16  1  0.63194019  0.11852123  0.14003039  1
  O  O17  1  0.48658204  0.36805981  0.14003039  1
  O  O18  1  0.46516530  0.30498808  0.02967017  1
  O  O19  1  0.83982377  0.53483470  0.02967017  1
  O  O20  1  0.69501192  0.16017623  0.02967017  1
  O  O21  1  0.46516530  0.16017623  0.52967017  1
  O  O22  1  0.69501192  0.53483470  0.52967017  1
  O  O23  1  0.83982377  0.30498808  0.52967017  1
  O  O24  1  0.53038573  0.69859216  0.97391822  1
  O  O25  1  0.16820542  0.46961427  0.97391822  1
  O  O26  1  0.30140784  0.83179458  0.97391822  1
  O  O27  1  0.53038573  0.83179458  0.47391822  1
  O  O28  1  0.30140784  0.46961427  0.47391822  1
  O  O29  1  0.16820542  0.69859216  0.47391822  1
  O  O30  1  0.13588081  0.63304407  0.35816681  1
  O  O31  1  0.49716226  0.86411919  0.35816681  1
  O  O32  1  0.36695593  0.50283774  0.35816681  1
  O  O33  1  0.13588081  0.50283774  0.85816681  1
  O  O34  1  0.36695593  0.86411919  0.85816681  1
  O  O35  1  0.49716226  0.63304407  0.85816681  1
  O  O36  1  0.02511008  0.83676810  0.40731828  1
  O  O37  1  0.81165802  0.97488992  0.40731828  1
  O  O38  1  0.16323190  0.18834198  0.40731828  1
  O  O39  1  0.02511008  0.18834198  0.90731828  1
  O  O40  1  0.16323190  0.97488992  0.90731828  1
  O  O41  1  0.81165802  0.83676810  0.90731828  1
  O  O42  1  0.97525510  0.16694823  0.59106462  1
  O  O43  1  0.19169313  0.02474490  0.59106462  1
  O  O44  1  0.83305177  0.80830687  0.59106462  1
  O  O45  1  0.97525510  0.80830687  0.09106462  1
  O  O46  1  0.83305177  0.02474490  0.09106462  1
  O  O47  1  0.19169313  0.16694823  0.09106462  1
  O  O48  1  0.69470483  0.16204157  0.74658073  1
  O  O49  1  0.46733774  0.30529517  0.74658073  1
  O  O50  1  0.83795843  0.53266226  0.74658073  1
  O  O51  1  0.69470483  0.53266226  0.24658073  1
  O  O52  1  0.83795843  0.30529517  0.24658073  1
  O  O53  1  0.46733774  0.16204157  0.24658073  1
  O  O54  1  0.63954692  0.49464920  0.92676285  1
  O  O55  1  0.85510328  0.36045308  0.92676285  1
  O  O56  1  0.50535080  0.14489672  0.92676285  1
  O  O57  1  0.63954692  0.14489672  0.42676285  1
  O  O58  1  0.50535080  0.36045308  0.42676285  1
  O  O59  1  0.85510328  0.49464920  0.42676285  1
  O  O60  1  0.35040277  0.49365050  0.07491031  1
  O  O61  1  0.14324673  0.64959723  0.07491031  1
  O  O62  1  0.50634950  0.85675327  0.07491031  1
  O  O63  1  0.35040277  0.85675327  0.57491031  1
  O  O64  1  0.50634950  0.64959723  0.57491031  1
  O  O65  1  0.14324673  0.49365050  0.57491031  1
  O  O66  1  0.29817606  0.82841110  0.25491557  1
  O  O67  1  0.53023404  0.70182394  0.25491557  1
  O  O68  1  0.17158890  0.46976596  0.25491557  1
  O  O69  1  0.29817606  0.46976596  0.75491557  1
  O  O70  1  0.17158890  0.70182394  0.75491557  1
  O  O71  1  0.53023404  0.82841110  0.75491557  1
loop_
_geom_bond_atom_site_label_1
_geom_bond_atom_site_label_2
_geom_bond_distance
_geom_bond_site_symmetry_2
Na0 O38 2.596455 1_555
Na0 O36 2.596455 1_545
Na0 O37 2.596455 1_445
Na0 O44 2.632391 1_445
Na0 O42 2.632391 1_455
Na0 O43 2.632391 1_555
Na1 O39 2.596455 1_555
Na1 O41 2.596455 1_445
Na1 O40 2.596455 1_545
Na1 O45 2.632391 1_446
Na1 O47 2.632391 1_556
Na1 O46 2.632391 1_456
Na2 O50 2.438779 1_555
Na2 O48 2.438779 1_555
Na2 O49 2.438779 1_555
Na2 O56 2.769988 1_555
Na2 O54 2.769988 1_555
Na2 O55 2.769988 1_555
Na3 O51 2.438779 1_555
Na3 O53 2.438779 1_555
Na3 O52 2.438779 1_555
Na3 O57 2.769988 1_555
Na3 O59 2.769988 1_555
Na3 O58 2.769988 1_555
Na4 O68 2.568030 1_555
Na4 O66 2.568030 1_555
Na4 O67 2.568030 1_555
Na4 O62 2.627831 1_555
Na4 O60 2.627831 1_555
Na4 O61 2.627831 1_555
Na5 O69 2.568030 1_555
Na5 O71 2.568030 1_555
Na5 O70 2.568030 1_555
Na5 O63 2.627831 1_555
Na5 O65 2.627831 1_555
Na5 O64 2.627831 1_555
O0 P0 1.551929 1_555
O0 Ta0 1.998424 1_555
O1 P1 1.551929 1_555
O1 Ta0 1.998424 1_665
O2 P2 1.551929 1_555
O2 Ta0 1.998424 1_655
O3 P3 1.551929 1_555
O3 Ta1 1.998424 1_555
O4 P4 1.551929 1_555
O4 Ta1 1.998424 1_665
O5 P5 1.551929 1_555
O5 Ta1 1.998424 1_655
O6 P5 1.581155 1_565
O6 Ta2 1.974167 1_665
O7 P3 1.581155 1_555
O7 Ta2 1.974167 1_555
O8 P4 1.581155 1_455
O8 Ta2 1.974167 1_565
O9 P1 1.581155 1_555
O9 Ta3 1.974167 1_665
O10 P2 1.581155 1_455
O10 Ta3 1.974167 1_555
O11 P0 1.581155 1_565
O11 Ta3 1.974167 1_565
O12 P6 1.495315 1_555
O12 Zn0 2.047299 1_555
O13 P7 1.495315 1_555
O13 Zn0 2.047299 1_555
O14 P8 1.495315 1_555
O14 Zn0 2.047299 1_555
O15 P9 1.495315 1_555
O15 Zn1 2.047299 1_555
O16 P10 1.495315 1_555
O16 Zn1 2.047299 1_555
O17 P11 1.495315 1_555
O17 Zn1 2.047299 1_555
O18 P11 1.553928 1_555
O18 Ta4 2.039717 1_554
O19 P9 1.553928 1_555
O19 Ta4 2.039717 1_554
O20 P10 1.553928 1_555
O20 Ta4 2.039717 1_554
O21 P7 1.553928 1_555
O21 Ta5 2.039717 1_555
O22 P8 1.553928 1_555
O22 Ta5 2.039717 1_555
O23 P6 1.553928 1_555
O23 Ta5 2.039717 1_555
O24 Si0 1.625250 1_555
O24 Ta6 1.923139 1_556
O25 Si1 1.625250 1_555
O25 Ta6 1.923139 1_556
O26 Si2 1.625250 1_555
O26 Ta6 1.923139 1_556
O27 Si3 1.625250 1_555
O27 Ta7 1.923139 1_555
O28 Si4 1.625250 1_555
O28 Ta7 1.923139 1_555
O29 Si5 1.625250 1_555
O29 Ta7 1.923139 1_555
O30 Si5 1.630207 1_555
O30 Ta8 1.926487 1_555
O31 Si3 1.630207 1_555
O31 Ta8 1.926487 1_555
O32 Si4 1.630207 1_555
O32 Ta8 1.926487 1_555
O33 Si1 1.630207 1_555
O33 Ta9 1.926487 1_555
O34 Si2 1.630207 1_555
O34 Ta9 1.926487 1_555
O35 Si0 1.630207 1_555
O35 Ta9 1.926487 1_555
O36 Si5 1.625076 1_555
O36 Ta0 1.947875 1_565
O37 Si3 1.625085 1_555
O37 Ta0 1.947875 1_665
O38 Si4 1.625081 1_555
O38 Ta0 1.947875 1_555
O39 Si1 1.625085 1_555
O39 Ta1 1.947875 1_555
O40 Si2 1.625076 1_555
O40 Ta1 1.947875 1_565
O41 Si0 1.625081 1_555
O41 Ta1 1.947875 1_665
O42 P6 1.588447 1_555
O42 Ta2 2.018227 1_655
O43 P7 1.588456 1_555
O43 Ta2 2.018227 1_555
O44 P8 1.588452 1_555
O44 Ta2 2.018227 1_665
O45 P9 1.588456 1_555
O45 Ta3 2.018227 1_665
O46 P10 1.588447 1_555
O46 Ta3 2.018227 1_655
O47 P11 1.588452 1_555
O47 Ta3 2.018227 1_555
O48 P5 1.497254 1_555
O48 Zn0 2.146904 1_555
O49 P3 1.497263 1_555
O49 Zn0 2.146904 1_555
O50 P4 1.497259 1_555
O50 Zn0 2.146904 1_555
O51 P1 1.497263 1_555
O51 Zn1 2.146904 1_555
O52 P2 1.497254 1_555
O52 Zn1 2.146904 1_555
O53 P0 1.497259 1_555
O53 Zn1 2.146904 1_555
O54 Si0 1.625646 1_555
O54 Ta4 1.940787 1_555
O55 Si1 1.625629 1_655
O55 Ta4 1.940787 1_555
O56 Si2 1.625636 1_545
O56 Ta4 1.940787 1_555
O57 Si3 1.625629 1_545
O57 Ta5 1.940787 1_555
O58 Si4 1.625646 1_555
O58 Ta5 1.940787 1_555
O59 Si5 1.625636 1_655
O59 Ta5 1.940787 1_555
O60 P11 1.565590 1_555
O60 Ta6 2.035251 1_555
O61 P9 1.565573 1_455
O61 Ta6 2.035252 1_555
O62 P10 1.565579 1_565
O62 Ta6 2.035251 1_555
O63 P7 1.565573 1_565
O63 Ta7 2.035251 1_555
O64 P8 1.565590 1_555
O64 Ta7 2.035252 1_555
O65 P6 1.565579 1_455
O65 Ta7 2.035251 1_555
O66 P0 1.567229 1_565
O66 Ta8 2.059586 1_555
O67 P1 1.567237 1_555
O67 Ta8 2.059586 1_555
O68 P2 1.567233 1_455
O68 Ta8 2.059586 1_555
O69 P3 1.567237 1_555
O69 Ta9 2.059586 1_555
O70 P4 1.567229 1_455
O70 Ta9 2.059586 1_555
O71 P5 1.567233 1_565
O71 Ta9 2.059586 1_555
