# generated using pymatgen
data_Na2Al4Si3Ge4(S3O16)3
_symmetry_space_group_name_H-M   'P 1'
_cell_length_a   16.77504884
_cell_length_b   8.40978999
_cell_length_c   21.82139618
_cell_angle_alpha   89.70079307
_cell_angle_beta   89.62694209
_cell_angle_gamma   120.19536720
_symmetry_Int_Tables_number   1
_chemical_formula_structural   Na2Al4Si3Ge4(S3O16)3
_chemical_formula_sum   'Na6 Al12 Si9 Ge12 S27 O144'
_cell_volume   2660.56315184
_cell_formula_units_Z   3
loop_
 _symmetry_equiv_pos_site_id
 _symmetry_equiv_pos_as_xyz
  1  'x, y, z'
loop_
 _atom_site_type_symbol
 _atom_site_label
 _atom_site_symmetry_multiplicity
 _atom_site_fract_x
 _atom_site_fract_y
 _atom_site_fract_z
 _atom_site_occupancy
  Na  Na0  1  0.99660255  0.00468718  0.50073998  1
  Na  Na1  1  0.49750951  0.99018210  0.00288943  1
  Na  Na2  1  0.32987968  0.32544452  0.83665270  1
  Na  Na3  1  0.83032754  0.33220733  0.83201367  1
  Na  Na4  1  0.33213643  0.33005305  0.33116096  1
  Na  Na5  1  0.82553603  0.32800982  0.33453697  1
  Al  Al0  1  0.00290799  0.00151506  0.34912521  1
  Al  Al1  1  0.50421363  0.00589139  0.85116310  1
  Al  Al2  1  0.99765743  0.00511644  0.64466662  1
  Al  Al3  1  0.50114985  0.98266807  0.14687786  1
  Al  Al4  1  0.33094537  0.33233478  0.98100655  1
  Al  Al5  1  0.83695614  0.34040303  0.98367141  1
  Al  Al6  1  0.33822995  0.33219311  0.48028517  1
  Al  Al7  1  0.83126665  0.32741874  0.47865502  1
  Al  Al8  1  0.16693798  0.67364404  0.30727465  1
  Al  Al9  1  0.66756290  0.66315797  0.31022692  1
  Al  Al10  1  0.16885876  0.67938936  0.81500601  1
  Al  Al11  1  0.66547521  0.65714181  0.80888213  1
  Si  Si0  1  0.14659785  0.00300566  0.25118184  1
  Si  Si1  1  0.64600044  0.99203599  0.24720705  1
  Si  Si2  1  0.64701770  0.29151534  0.75098235  1
  Si  Si3  1  0.47863156  0.33326763  0.58078574  1
  Si  Si4  1  0.97406882  0.32998988  0.58159718  1
  Si  Si5  1  0.47259114  0.61963608  0.08114458  1
  Si  Si6  1  0.97469935  0.61892670  0.08318022  1
  Si  Si7  1  0.17110617  0.96205892  0.91557108  1
  Si  Si8  1  0.66995438  0.38103887  0.41422109  1
  Ge  Ge0  1  0.51652684  0.02340104  0.35323208  1
  Ge  Ge1  1  0.00375016  0.99663173  0.85741358  1
  Ge  Ge2  1  0.50780467  0.02749693  0.64376555  1
  Ge  Ge3  1  0.00563843  0.98503619  0.14508993  1
  Ge  Ge4  1  0.33969359  0.34023940  0.68224566  1
  Ge  Ge5  1  0.83140907  0.33464518  0.68257325  1
  Ge  Ge6  1  0.33477108  0.33227162  0.18565769  1
  Ge  Ge7  1  0.83403116  0.33181629  0.18714194  1
  Ge  Ge8  1  0.15993945  0.67867806  0.02464357  1
  Ge  Ge9  1  0.66165665  0.66457164  0.02524306  1
  Ge  Ge10  1  0.16143658  0.65838767  0.52095382  1
  Ge  Ge11  1  0.65919693  0.64430826  0.51913529  1
  S  S0  1  0.35659784  0.71592889  0.25175107  1
  S  S1  1  0.85597190  0.71499816  0.25043384  1
  S  S2  1  0.00166046  0.28683934  0.25049390  1
  S  S3  1  0.50091106  0.28643172  0.24845515  1
  S  S4  1  0.14479340  0.29371818  0.74902064  1
  S  S5  1  0.00242255  0.71550692  0.74907339  1
  S  S6  1  0.49997716  0.71413292  0.75033182  1
  S  S7  1  0.35403776  0.99467638  0.75009098  1
  S  S8  1  0.85697426  0.99749824  0.75163044  1
  S  S9  1  0.18917002  0.04530317  0.58228464  1
  S  S10  1  0.68845621  0.03901034  0.58176650  1
  S  S11  1  0.33454665  0.62500889  0.58217366  1
  S  S12  1  0.83396672  0.62522804  0.58227243  1
  S  S13  1  0.33493894  0.04428220  0.08297046  1
  S  S14  1  0.83487969  0.04413144  0.08237905  1
  S  S15  1  0.18816184  0.33692231  0.08200030  1
  S  S16  1  0.68853403  0.33303267  0.08146027  1
  S  S17  1  0.31140542  0.66945056  0.91537589  1
  S  S18  1  0.80821177  0.66444241  0.91654434  1
  S  S19  1  0.02108400  0.37645217  0.91542984  1
  S  S20  1  0.52317485  0.37817426  0.91582224  1
  S  S21  1  0.66738293  0.95525153  0.91565849  1
  S  S22  1  0.30939939  0.95152178  0.41620026  1
  S  S23  1  0.81205883  0.95371483  0.41593552  1
  S  S24  1  0.16728463  0.37812043  0.41579360  1
  S  S25  1  0.02314289  0.66824279  0.41531794  1
  S  S26  1  0.52052912  0.66616116  0.41575599  1
  O  O0  1  0.10325303  0.04804990  0.31008452  1
  O  O1  1  0.60764749  0.04657658  0.30895681  1
  O  O2  1  0.41411639  0.79477536  0.30770144  1
  O  O3  1  0.91414252  0.79657835  0.30510504  1
  O  O4  1  0.47667619  0.16677888  0.30566567  1
  O  O5  1  0.98079690  0.16823488  0.30583674  1
  O  O6  1  0.10663237  0.17660324  0.80548256  1
  O  O7  1  0.60273538  0.15761722  0.80967069  1
  O  O8  1  0.47955136  0.79009138  0.80529025  1
  O  O9  1  0.98049485  0.79172174  0.80542787  1
  O  O10  1  0.41200100  0.03130608  0.80476844  1
  O  O11  1  0.91667420  0.03649217  0.80782622  1
  O  O12  1  0.39357572  0.96150176  0.69403786  1
  O  O13  1  0.89808961  0.96368538  0.69720952  1
  O  O14  1  0.08805570  0.20684335  0.69520985  1
  O  O15  1  0.58480548  0.20300240  0.69010368  1
  O  O16  1  0.01680334  0.83210811  0.69487642  1
  O  O17  1  0.51434994  0.82058493  0.69341841  1
  O  O18  1  0.39412261  0.82866158  0.19600332  1
  O  O19  1  0.89490854  0.83043413  0.19378748  1
  O  O20  1  0.01594873  0.20863022  0.19377100  1
  O  O21  1  0.51248263  0.20075277  0.19367721  1
  O  O22  1  0.08503196  0.96684631  0.18996351  1
  O  O23  1  0.58380381  0.97143998  0.18989528  1
  O  O24  1  0.43797537  0.37595560  0.64470347  1
  O  O25  1  0.93198578  0.37242317  0.64486761  1
  O  O26  1  0.24498493  0.12218441  0.63942097  1
  O  O27  1  0.74326935  0.11514048  0.63927330  1
  O  O28  1  0.30996352  0.50407126  0.63966568  1
  O  O29  1  0.81223669  0.51005792  0.63952447  1
  O  O30  1  0.43146217  0.49061776  0.14370446  1
  O  O31  1  0.92985705  0.48904091  0.14501443  1
  O  O32  1  0.31168913  0.11509758  0.13875104  1
  O  O33  1  0.81121216  0.11479778  0.13772888  1
  O  O34  1  0.24355957  0.37132250  0.13842911  1
  O  O35  1  0.74457217  0.36978189  0.13699152  1
  O  O36  1  0.22719043  0.29559050  0.02837490  1
  O  O37  1  0.72803824  0.29473648  0.02631017  1
  O  O38  1  0.41226347  0.52318348  0.02197034  1
  O  O39  1  0.91380865  0.52996929  0.02375183  1
  O  O40  1  0.34979019  0.15649693  0.02781143  1
  O  O41  1  0.84782856  0.15542144  0.02670015  1
  O  O42  1  0.22792259  0.16383930  0.52749043  1
  O  O43  1  0.72788088  0.16155332  0.52897526  1
  O  O44  1  0.34785638  0.53844759  0.52794815  1
  O  O45  1  0.85119916  0.54390447  0.52867710  1
  O  O46  1  0.41189103  0.29619982  0.52468223  1
  O  O47  1  0.91147422  0.29954800  0.52326669  1
  O  O48  1  0.27270310  0.70304465  0.97184436  1
  O  O49  1  0.76979349  0.70064522  0.97323400  1
  O  O50  1  0.07772630  0.44856880  0.97060375  1
  O  O51  1  0.58238680  0.45289733  0.97173178  1
  O  O52  1  0.14792137  0.82958054  0.97601362  1
  O  O53  1  0.65059198  0.84118340  0.97251509  1
  O  O54  1  0.26896946  0.83677519  0.47468466  1
  O  O55  1  0.77356303  0.84366138  0.47411526  1
  O  O56  1  0.14993393  0.45655983  0.47317090  1
  O  O57  1  0.64864126  0.46250971  0.47674397  1
  O  O58  1  0.08172318  0.71186079  0.47228908  1
  O  O59  1  0.57744920  0.70711531  0.47228107  1
  O  O60  1  0.06664107  0.63471764  0.36248456  1
  O  O61  1  0.56121564  0.63043651  0.36225915  1
  O  O62  1  0.24993612  0.86535420  0.36322539  1
  O  O63  1  0.75521600  0.87259198  0.36223414  1
  O  O64  1  0.18333666  0.49464298  0.36190202  1
  O  O65  1  0.68512805  0.50869199  0.35570046  1
  O  O66  1  0.06279124  0.49021524  0.85981775  1
  O  O67  1  0.56627455  0.49787956  0.86197488  1
  O  O68  1  0.18597521  0.87044701  0.85570959  1
  O  O69  1  0.68321656  0.87230892  0.86120523  1
  O  O70  1  0.25358522  0.63522575  0.86043232  1
  O  O71  1  0.75185479  0.63719913  0.86238757  1
  O  O72  1  0.01251376  0.83235541  0.40924276  1
  O  O73  1  0.50666393  0.82571446  0.40927920  1
  O  O74  1  0.39973361  0.96903916  0.40954115  1
  O  O75  1  0.90565526  0.97279576  0.40860919  1
  O  O76  1  0.08300021  0.19547107  0.41137110  1
  O  O77  1  0.57365663  0.18019353  0.41143519  1
  O  O78  1  0.00857101  0.18918659  0.90747537  1
  O  O79  1  0.51234413  0.19237595  0.90899903  1
  O  O80  1  0.07709223  0.97669838  0.90791976  1
  O  O81  1  0.58293106  0.96883128  0.91082215  1
  O  O82  1  0.40468964  0.83816054  0.90661565  1
  O  O83  1  0.90058479  0.83181459  0.90945104  1
  O  O84  1  0.48262444  0.14510053  0.58872748  1
  O  O85  1  0.98826043  0.15533547  0.59257640  1
  O  O86  1  0.09647794  0.02030547  0.59181290  1
  O  O87  1  0.59445584  0.01263905  0.59023413  1
  O  O88  1  0.41846707  0.80099862  0.59238882  1
  O  O89  1  0.91926264  0.80466017  0.59227539  1
  O  O90  1  0.48382464  0.82002907  0.08861640  1
  O  O91  1  0.98272967  0.81872410  0.08967020  1
  O  O92  1  0.41864750  0.03327317  0.09194563  1
  O  O93  1  0.91846942  0.03416134  0.09113632  1
  O  O94  1  0.09400108  0.17613856  0.08995416  1
  O  O95  1  0.59498690  0.17602604  0.08859217  1
  O  O96  1  0.34345029  0.16337474  0.74444943  1
  O  O97  1  0.84953263  0.16440150  0.74549014  1
  O  O98  1  0.23925218  0.31068781  0.74235850  1
  O  O99  1  0.74985302  0.30821090  0.74003674  1
  O  O100  1  0.41319627  0.52425872  0.74563256  1
  O  O101  1  0.91827131  0.53169009  0.74470392  1
  O  O102  1  0.34828387  0.53201964  0.24530544  1
  O  O103  1  0.84977868  0.53266299  0.24463866  1
  O  O104  1  0.41677727  0.30532356  0.24497254  1
  O  O105  1  0.91816553  0.30626795  0.24587531  1
  O  O106  1  0.24911436  0.19074174  0.24004993  1
  O  O107  1  0.74894332  0.18647665  0.23997340  1
  O  O108  1  0.32161509  0.50669472  0.92138931  1
  O  O109  1  0.81697949  0.49831974  0.92268065  1
  O  O110  1  0.43274134  0.36128477  0.92303425  1
  O  O111  1  0.92783630  0.35582703  0.92233443  1
  O  O112  1  0.25899054  0.16325664  0.92616122  1
  O  O113  1  0.75011253  0.14045866  0.92381169  1
  O  O114  1  0.31539070  0.13375160  0.42330823  1
  O  O115  1  0.82250725  0.13753214  0.42286665  1
  O  O116  1  0.25014890  0.36014904  0.42478878  1
  O  O117  1  0.75847007  0.35669341  0.42602036  1
  O  O118  1  0.42703611  0.49878482  0.42394697  1
  O  O119  1  0.93284234  0.50330472  0.42364092  1
  O  O120  1  0.18262276  0.50537692  0.07269624  1
  O  O121  1  0.68472869  0.50521241  0.07330641  1
  O  O122  1  0.07474876  0.63139466  0.07945859  1
  O  O123  1  0.57579220  0.64000934  0.07493616  1
  O  O124  1  0.25436088  0.85574379  0.07657103  1
  O  O125  1  0.75302131  0.85663580  0.07435039  1
  O  O126  1  0.18301801  0.86531565  0.57474548  1
  O  O127  1  0.68247259  0.86049257  0.57368324  1
  O  O128  1  0.25318692  0.64823422  0.57533520  1
  O  O129  1  0.75482771  0.65357212  0.57645376  1
  O  O130  1  0.07791443  0.51472643  0.57439389  1
  O  O131  1  0.57811903  0.52074008  0.57754149  1
  O  O132  1  0.15705685  0.82737527  0.26038691  1
  O  O133  1  0.65791488  0.82219518  0.26271264  1
  O  O134  1  0.26420659  0.68910069  0.26132631  1
  O  O135  1  0.76555652  0.69424274  0.25676373  1
  O  O136  1  0.08385275  0.46621605  0.26009387  1
  O  O137  1  0.58223687  0.46606301  0.25698867  1
  O  O138  1  0.15364844  0.47357425  0.75910780  1
  O  O139  1  0.65776312  0.48832188  0.76040808  1
  O  O140  1  0.08335783  0.69570387  0.75733878  1
  O  O141  1  0.58148722  0.69685364  0.75966363  1
  O  O142  1  0.26340836  0.82891595  0.75710404  1
  O  O143  1  0.76556052  0.83770331  0.76121641  1
loop_
_geom_bond_atom_site_label_1
_geom_bond_atom_site_label_2
_geom_bond_distance
_geom_bond_site_symmetry_2
Na0 O85 2.416999 1_555
Na0 O76 2.463601 1_655
Na0 O75 2.464813 1_545
Na0 O89 2.497703 1_545
Na0 O72 2.563285 1_645
Na0 O86 2.568756 1_655
Na1 O90 2.288185 1_555
Na1 O95 2.472573 1_565
Na1 O92 2.472665 1_565
Na1 O81 2.519307 1_554
Na1 O82 2.557468 1_554
Na1 O79 2.585015 1_564
Na2 O112 2.323767 1_555
Na2 O108 2.449566 1_555
Na2 O110 2.479206 1_555
Na2 O100 2.504479 1_555
Na2 O96 2.508478 1_555
Na2 O98 2.532612 1_555
Na3 O99 2.378427 1_555
Na3 O101 2.461937 1_555
Na3 O97 2.477364 1_555
Na3 O113 2.484384 1_555
Na3 O109 2.500758 1_555
Na3 O111 2.513723 1_555
Na4 O106 2.384141 1_555
Na4 O104 2.421323 1_555
Na4 O102 2.442454 1_555
Na4 O114 2.517731 1_555
Na4 O118 2.539099 1_555
Na4 O116 2.539451 1_555
Na5 O117 2.357510 1_555
Na5 O107 2.418156 1_555
Na5 O115 2.483620 1_555
Na5 O103 2.495221 1_555
Na5 O105 2.537994 1_555
Na5 O119 2.569102 1_555
Al0 O0 1.740001 1_555
Al0 O5 1.873379 1_455
Al0 O3 1.888063 1_445
Al0 O75 1.994374 1_445
Al0 O72 1.996132 1_545
Al0 O76 2.037925 1_555
Al1 O7 1.739696 1_555
Al1 O8 1.932852 1_545
Al1 O10 1.952982 1_555
Al1 O82 1.956589 1_545
Al1 O79 1.969443 1_555
Al1 O81 1.991922 1_545
Al2 O85 1.760823 1_555
Al2 O13 1.900328 1_545
Al2 O89 1.920424 1_545
Al2 O14 1.961531 1_655
Al2 O86 1.963443 1_655
Al2 O16 1.969391 1_645
Al3 O23 1.720536 1_555
Al3 O90 1.787364 1_555
Al3 O18 1.916093 1_555
Al3 O21 2.028334 1_565
Al3 O95 2.029106 1_565
Al3 O92 2.035225 1_565
Al4 O38 1.750544 1_556
Al4 O112 1.794790 1_555
Al4 O36 1.904063 1_556
Al4 O40 1.946400 1_556
Al4 O108 2.020057 1_555
Al4 O110 2.031269 1_555
Al5 O39 1.711829 1_556
Al5 O41 1.899297 1_556
Al5 O37 1.902580 1_556
Al5 O111 1.976146 1_555
Al5 O109 2.020476 1_555
Al5 O113 2.059022 1_555
Al6 O46 1.716348 1_555
Al6 O118 1.884728 1_555
Al6 O42 1.953019 1_555
Al6 O44 1.963616 1_555
Al6 O114 1.965300 1_555
Al6 O116 2.018606 1_555
Al7 O47 1.773372 1_555
Al7 O117 1.785716 1_555
Al7 O43 1.919642 1_555
Al7 O115 1.959672 1_555
Al7 O119 1.987972 1_555
Al7 O45 2.007744 1_555
Al8 O132 1.717479 1_555
Al8 O134 1.857041 1_555
Al8 O136 1.907184 1_555
Al8 O60 1.950594 1_555
Al8 O62 1.952742 1_555
Al8 O64 2.040794 1_555
Al9 O133 1.759396 1_555
Al9 O65 1.770399 1_555
Al9 O135 1.916038 1_555
Al9 O137 1.949627 1_555
Al9 O63 1.997416 1_555
Al9 O61 2.005998 1_555
Al10 O68 1.734121 1_555
Al10 O142 1.909035 1_555
Al10 O70 1.919924 1_555
Al10 O66 1.940818 1_555
Al10 O140 1.969557 1_555
Al10 O138 2.032413 1_555
Al11 O139 1.727423 1_555
Al11 O143 1.898099 1_555
Al11 O67 1.903174 1_555
Al11 O141 1.933731 1_555
Al11 O71 1.937895 1_555
Al11 O69 2.037355 1_555
Ge0 O1 1.728303 1_555
Ge0 O77 1.741385 1_555
Ge0 O4 1.945492 1_555
Ge0 O73 1.996629 1_545
Ge0 O2 2.086819 1_545
Ge0 O74 2.149216 1_545
Ge1 O80 1.726160 1_555
Ge1 O78 1.926161 1_565
Ge1 O83 1.936672 1_455
Ge1 O9 1.938711 1_455
Ge1 O6 1.970424 1_565
Ge1 O11 1.981471 1_465
Ge2 O15 1.727497 1_555
Ge2 O84 1.735924 1_555
Ge2 O87 1.911842 1_555
Ge2 O12 2.019843 1_545
Ge2 O88 2.074564 1_545
Ge2 O17 2.094746 1_545
Ge3 O22 1.725215 1_555
Ge3 O91 1.746267 1_455
Ge3 O94 1.946249 1_565
Ge3 O19 1.949492 1_455
Ge3 O93 2.078471 1_465
Ge3 O20 2.095307 1_565
Ge4 O24 1.720817 1_555
Ge4 O28 1.922035 1_555
Ge4 O26 1.966419 1_555
Ge4 O100 1.988374 1_555
Ge4 O96 2.033000 1_555
Ge4 O98 2.041560 1_555
Ge5 O25 1.750571 1_555
Ge5 O99 1.778286 1_555
Ge5 O29 1.904929 1_555
Ge5 O27 1.943572 1_555
Ge5 O101 2.080306 1_555
Ge5 O97 2.109486 1_555
Ge6 O30 1.742851 1_555
Ge6 O106 1.769971 1_555
Ge6 O32 1.961287 1_555
Ge6 O104 1.988169 1_555
Ge6 O34 2.008375 1_555
Ge6 O102 2.052083 1_555
Ge7 O31 1.734194 1_555
Ge7 O107 1.751946 1_555
Ge7 O33 1.990798 1_555
Ge7 O105 2.001603 1_555
Ge7 O35 2.012782 1_555
Ge7 O103 2.018554 1_555
Ge8 O52 1.738769 1_554
Ge8 O122 1.741348 1_555
Ge8 O124 1.917982 1_555
Ge8 O120 1.978755 1_555
Ge8 O50 2.097109 1_554
Ge8 O48 2.127651 1_554
Ge9 O123 1.723735 1_555
Ge9 O121 1.886328 1_555
Ge9 O125 1.911947 1_555
Ge9 O53 1.956166 1_554
Ge9 O51 1.990340 1_554
Ge9 O49 2.021556 1_554
Ge10 O130 1.744666 1_555
Ge10 O56 1.922764 1_555
Ge10 O58 1.932979 1_555
Ge10 O54 1.939662 1_555
Ge10 O126 1.982524 1_555
Ge10 O128 1.984767 1_555
Ge11 O57 1.723117 1_555
Ge11 O131 1.759538 1_555
Ge11 O59 1.986474 1_555
Ge11 O129 2.011322 1_555
Ge11 O55 2.044342 1_555
Ge11 O127 2.046767 1_555
O0 Si0 1.610672 1_555
O1 Si1 1.652871 1_545
O2 S0 1.497173 1_555
O3 S1 1.482040 1_555
O4 S3 1.518267 1_555
O5 S2 1.485455 1_655
O6 S4 1.496898 1_555
O7 Si2 1.609671 1_555
O8 S6 1.478693 1_555
O9 S5 1.515871 1_655
O10 S7 1.477012 1_545
O11 S8 1.517913 1_545
O12 S7 1.480873 1_555
O13 S8 1.468659 1_555
O14 S4 1.463730 1_555
O15 Si2 1.629411 1_555
O16 S5 1.471273 1_555
O17 S6 1.472869 1_555
O18 S0 1.467172 1_555
O19 S1 1.495372 1_555
O20 S2 1.478292 1_555
O21 S3 1.460255 1_555
O22 Si0 1.627861 1_565
O23 Si1 1.587486 1_555
O24 Si3 1.666894 1_555
O25 Si4 1.666660 1_555
O26 S9 1.504614 1_555
O27 S10 1.503776 1_555
O28 S11 1.528537 1_555
O29 S12 1.502686 1_555
O30 Si5 1.654131 1_555
O31 Si6 1.650607 1_555
O32 S13 1.491112 1_555
O33 S14 1.486003 1_555
O34 S15 1.487185 1_555
O35 S16 1.474478 1_555
O36 S15 1.463547 1_555
O37 S16 1.483078 1_555
O38 Si5 1.597404 1_555
O39 Si6 1.594822 1_555
O40 S13 1.465997 1_555
O41 S14 1.476324 1_555
O42 S9 1.473625 1_555
O43 S10 1.455538 1_555
O44 S11 1.465937 1_555
O45 S12 1.456678 1_555
O46 Si3 1.587514 1_555
O47 Si4 1.593316 1_555
O48 S17 1.482367 1_555
O49 S18 1.493065 1_555
O50 S19 1.470736 1_555
O51 S20 1.505286 1_555
O52 Si7 1.635307 1_555
O53 S21 1.500036 1_555
O54 S22 1.528868 1_555
O55 S23 1.503747 1_555
O56 S24 1.511461 1_555
O57 Si8 1.645750 1_555
O58 S25 1.517837 1_555
O59 S26 1.496904 1_555
O60 S25 1.463039 1_555
O61 S26 1.455476 1_555
O62 S22 1.467340 1_555
O63 S23 1.454789 1_555
O64 S24 1.460869 1_555
O65 Si8 1.598306 1_555
O66 S19 1.476816 1_555
O67 S20 1.470135 1_555
O68 Si7 1.600524 1_555
O69 S21 1.469672 1_555
O70 S17 1.482909 1_555
O71 S18 1.463677 1_555
O72 S25 1.483282 1_555
O73 S26 1.478819 1_555
O74 S22 1.453096 1_555
O75 S23 1.503165 1_555
O76 S24 1.478689 1_555
O77 Si8 1.650422 1_555
O78 S19 1.491708 1_555
O79 S20 1.487912 1_555
O80 Si7 1.651897 1_555
O81 S21 1.481803 1_555
O82 S17 1.502754 1_555
O83 S18 1.485585 1_555
O84 Si3 1.625595 1_555
O85 Si4 1.618725 1_555
O86 S9 1.473671 1_555
O87 S10 1.487891 1_555
O88 S11 1.460719 1_555
O89 S12 1.485814 1_555
O90 Si5 1.608113 1_555
O91 Si6 1.623733 1_555
O92 S13 1.467282 1_555
O93 S14 1.459918 1_555
O94 S15 1.482907 1_555
O95 S16 1.463092 1_555
O96 S7 1.520322 1_545
O97 S8 1.475871 1_545
O98 S4 1.523686 1_555
O99 Si2 1.674296 1_555
O100 S6 1.531306 1_555
O101 S5 1.483147 1_655
O102 S0 1.488917 1_555
O103 S1 1.489984 1_555
O104 S3 1.499915 1_555
O105 S2 1.493482 1_655
O106 Si0 1.663888 1_555
O107 Si1 1.683509 1_545
O108 S17 1.467729 1_555
O109 S18 1.481999 1_555
O110 S20 1.458158 1_555
O111 S19 1.491091 1_655
O112 Si7 1.609077 1_545
O113 S21 1.488418 1_545
O114 S22 1.493490 1_545
O115 S23 1.474291 1_545
O116 S24 1.485996 1_555
O117 Si8 1.619641 1_555
O118 S26 1.498697 1_555
O119 S25 1.460085 1_655
O120 S15 1.478667 1_555
O121 S16 1.490926 1_555
O122 Si6 1.629575 1_455
O123 Si5 1.656234 1_555
O124 S13 1.486450 1_565
O125 S14 1.493527 1_565
O126 S9 1.474640 1_565
O127 S10 1.465092 1_565
O128 S11 1.481091 1_555
O129 S12 1.468180 1_555
O130 Si4 1.656657 1_455
O131 Si3 1.620651 1_555
O132 Si0 1.584530 1_565
O133 Si1 1.574018 1_555
O134 S0 1.462942 1_555
O135 S1 1.442466 1_555
O136 S2 1.461309 1_555
O137 S3 1.452966 1_555
O138 S4 1.461584 1_555
O139 Si2 1.586851 1_555
O140 S5 1.460793 1_555
O141 S6 1.461291 1_555
O142 S7 1.463196 1_555
O143 S8 1.456429 1_555
