# generated using pymatgen
data_IrS2
_symmetry_space_group_name_H-M   'P 1'
_cell_length_a   3.58569476
_cell_length_b   5.66252955
_cell_length_c   19.96275345
_cell_angle_alpha   90.00000000
_cell_angle_beta   90.00000000
_cell_angle_gamma   90.00000000
_symmetry_Int_Tables_number   1
_chemical_formula_structural   IrS2
_chemical_formula_sum   'Ir8 S16'
_cell_volume   405.32579295
_cell_formula_units_Z   8
loop_
 _symmetry_equiv_pos_site_id
 _symmetry_equiv_pos_as_xyz
  1  'x, y, z'
loop_
 _atom_site_type_symbol
 _atom_site_label
 _atom_site_symmetry_multiplicity
 _atom_site_fract_x
 _atom_site_fract_y
 _atom_site_fract_z
 _atom_site_occupancy
  Ir  Ir0  1  0.25000000  0.94104573  0.80391746  1
  Ir  Ir1  1  0.75000000  0.05895427  0.19608254  1
  Ir  Ir2  1  0.75000000  0.44104573  0.69608254  1
  Ir  Ir3  1  0.25000000  0.55895427  0.30391746  1
  Ir  Ir4  1  0.25000000  0.92657031  0.57730613  1
  Ir  Ir5  1  0.75000000  0.07342969  0.42269387  1
  Ir  Ir6  1  0.75000000  0.42657031  0.92269387  1
  Ir  Ir7  1  0.25000000  0.57342969  0.07730613  1
  S  S0  1  0.25000000  0.22292644  0.49136998  1
  S  S1  1  0.75000000  0.77707356  0.50863002  1
  S  S2  1  0.75000000  0.72292644  0.00863002  1
  S  S3  1  0.25000000  0.27707356  0.99136998  1
  S  S4  1  0.25000000  0.17863762  0.26353290  1
  S  S5  1  0.75000000  0.82136238  0.73646710  1
  S  S6  1  0.75000000  0.67863762  0.23646710  1
  S  S7  1  0.25000000  0.32136238  0.76353290  1
  S  S8  1  0.25000000  0.93695433  0.35884653  1
  S  S9  1  0.75000000  0.06304567  0.64115347  1
  S  S10  1  0.75000000  0.43695433  0.14115347  1
  S  S11  1  0.25000000  0.56304567  0.85884653  1
  S  S12  1  0.25000000  0.54604613  0.62342836  1
  S  S13  1  0.75000000  0.45395387  0.37657164  1
  S  S14  1  0.75000000  0.04604613  0.87657164  1
  S  S15  1  0.25000000  0.95395387  0.12342836  1
loop_
_geom_bond_atom_site_label_1
_geom_bond_atom_site_label_2
_geom_bond_distance
_geom_bond_site_symmetry_2
Ir0 S7 2.299507 1_565
Ir0 S5 2.342358 1_455
Ir0 S5 2.342358 1_555
Ir0 S14 2.381472 1_565
Ir0 S14 2.381472 1_465
Ir0 S11 2.404965 1_555
Ir1 S6 2.299507 1_545
Ir1 S4 2.342358 1_555
Ir1 S4 2.342358 1_655
Ir1 S15 2.381472 1_645
Ir1 S15 2.381472 1_545
Ir1 S10 2.404965 1_555
Ir2 S5 2.299507 1_555
Ir2 S7 2.342358 1_555
Ir2 S7 2.342358 1_655
Ir2 S12 2.381472 1_555
Ir2 S12 2.381472 1_655
Ir2 S9 2.404965 1_555
Ir3 S4 2.299507 1_555
Ir3 S6 2.342358 1_455
Ir3 S6 2.342358 1_555
Ir3 S13 2.381472 1_455
Ir3 S13 2.381472 1_555
Ir3 S8 2.404965 1_555
Ir4 S9 2.331532 1_465
Ir4 S9 2.331532 1_565
Ir4 S12 2.343202 1_555
Ir4 S0 2.399817 1_565
Ir4 S1 2.410489 1_455
Ir4 S1 2.410489 1_555
Ir5 S8 2.331532 1_545
Ir5 S8 2.331532 1_645
Ir5 S13 2.343202 1_555
Ir5 S1 2.399817 1_545
Ir5 S0 2.410489 1_655
Ir5 S0 2.410489 1_555
Ir6 S11 2.331532 1_555
Ir6 S11 2.331532 1_655
Ir6 S14 2.343202 1_555
Ir6 S2 2.399817 1_556
Ir6 S3 2.410489 1_555
Ir6 S3 2.410489 1_655
Ir7 S10 2.331532 1_555
Ir7 S10 2.331532 1_455
Ir7 S15 2.343202 1_555
Ir7 S3 2.399817 1_554
Ir7 S2 2.410489 1_455
Ir7 S2 2.410489 1_555
S4 S8 2.343769 1_545
S5 S9 2.343769 1_565
S10 S6 2.343769 1_555
S11 S7 2.343769 1_555
