# generated using pymatgen
data_U2Fe2Sn
_symmetry_space_group_name_H-M   'P 1'
_cell_length_a   14.92370004
_cell_length_b   14.92370004
_cell_length_c   6.75065334
_cell_angle_alpha   90.00000000
_cell_angle_beta   90.00000000
_cell_angle_gamma   90.00000000
_symmetry_Int_Tables_number   1
_chemical_formula_structural   U2Fe2Sn
_chemical_formula_sum   'U32 Fe32 Sn16'
_cell_volume   1503.48406428
_cell_formula_units_Z   16
loop_
 _symmetry_equiv_pos_site_id
 _symmetry_equiv_pos_as_xyz
  1  'x, y, z'
loop_
 _atom_site_type_symbol
 _atom_site_label
 _atom_site_symmetry_multiplicity
 _atom_site_fract_x
 _atom_site_fract_y
 _atom_site_fract_z
 _atom_site_occupancy
  U  U0_0  1  0.16730650  0.41730650  0.25000000  1
  U  U0_1  1  0.16730650  0.41730650  0.75000000  1
  U  U0_2  1  0.16730650  0.91730650  0.25000000  1
  U  U0_3  1  0.16730650  0.91730650  0.75000000  1
  U  U0_4  1  0.66730650  0.41730650  0.25000000  1
  U  U0_5  1  0.66730650  0.41730650  0.75000000  1
  U  U0_6  1  0.66730650  0.91730650  0.25000000  1
  U  U0_7  1  0.66730650  0.91730650  0.75000000  1
  U  U1_0  1  0.41730650  0.33269350  0.25000000  1
  U  U1_1  1  0.41730650  0.33269350  0.75000000  1
  U  U1_2  1  0.41730650  0.83269350  0.25000000  1
  U  U1_3  1  0.41730650  0.83269350  0.75000000  1
  U  U1_4  1  0.91730650  0.33269350  0.25000000  1
  U  U1_5  1  0.91730650  0.33269350  0.75000000  1
  U  U1_6  1  0.91730650  0.83269350  0.25000000  1
  U  U1_7  1  0.91730650  0.83269350  0.75000000  1
  U  U2_0  1  0.08269350  0.16730650  0.25000000  1
  U  U2_1  1  0.08269350  0.16730650  0.75000000  1
  U  U2_2  1  0.08269350  0.66730650  0.25000000  1
  U  U2_3  1  0.08269350  0.66730650  0.75000000  1
  U  U2_4  1  0.58269350  0.16730650  0.25000000  1
  U  U2_5  1  0.58269350  0.16730650  0.75000000  1
  U  U2_6  1  0.58269350  0.66730650  0.25000000  1
  U  U2_7  1  0.58269350  0.66730650  0.75000000  1
  U  U3_0  1  0.33269350  0.08269350  0.25000000  1
  U  U3_1  1  0.33269350  0.08269350  0.75000000  1
  U  U3_2  1  0.33269350  0.58269350  0.25000000  1
  U  U3_3  1  0.33269350  0.58269350  0.75000000  1
  U  U3_4  1  0.83269350  0.08269350  0.25000000  1
  U  U3_5  1  0.83269350  0.08269350  0.75000000  1
  U  U3_6  1  0.83269350  0.58269350  0.25000000  1
  U  U3_7  1  0.83269350  0.58269350  0.75000000  1
  Fe  Fe0_0  1  0.18233305  0.06766695  0.00000000  1
  Fe  Fe0_1  1  0.18233305  0.06766695  0.50000000  1
  Fe  Fe0_2  1  0.18233305  0.56766695  0.00000000  1
  Fe  Fe0_3  1  0.18233305  0.56766695  0.50000000  1
  Fe  Fe0_4  1  0.68233305  0.06766695  0.00000000  1
  Fe  Fe0_5  1  0.68233305  0.06766695  0.50000000  1
  Fe  Fe0_6  1  0.68233305  0.56766695  0.00000000  1
  Fe  Fe0_7  1  0.68233305  0.56766695  0.50000000  1
  Fe  Fe1_0  1  0.43233305  0.18233305  0.00000000  1
  Fe  Fe1_1  1  0.43233305  0.18233305  0.50000000  1
  Fe  Fe1_2  1  0.43233305  0.68233305  0.00000000  1
  Fe  Fe1_3  1  0.43233305  0.68233305  0.50000000  1
  Fe  Fe1_4  1  0.93233305  0.18233305  0.00000000  1
  Fe  Fe1_5  1  0.93233305  0.18233305  0.50000000  1
  Fe  Fe1_6  1  0.93233305  0.68233305  0.00000000  1
  Fe  Fe1_7  1  0.93233305  0.68233305  0.50000000  1
  Fe  Fe2_0  1  0.06766695  0.31766695  0.00000000  1
  Fe  Fe2_1  1  0.06766695  0.31766695  0.50000000  1
  Fe  Fe2_2  1  0.06766695  0.81766695  0.00000000  1
  Fe  Fe2_3  1  0.06766695  0.81766695  0.50000000  1
  Fe  Fe2_4  1  0.56766695  0.31766695  0.00000000  1
  Fe  Fe2_5  1  0.56766695  0.31766695  0.50000000  1
  Fe  Fe2_6  1  0.56766695  0.81766695  0.00000000  1
  Fe  Fe2_7  1  0.56766695  0.81766695  0.50000000  1
  Fe  Fe3_0  1  0.31766695  0.43233305  0.00000000  1
  Fe  Fe3_1  1  0.31766695  0.43233305  0.50000000  1
  Fe  Fe3_2  1  0.31766695  0.93233305  0.00000000  1
  Fe  Fe3_3  1  0.31766695  0.93233305  0.50000000  1
  Fe  Fe3_4  1  0.81766695  0.43233305  0.00000000  1
  Fe  Fe3_5  1  0.81766695  0.43233305  0.50000000  1
  Fe  Fe3_6  1  0.81766695  0.93233305  0.00000000  1
  Fe  Fe3_7  1  0.81766695  0.93233305  0.50000000  1
  Sn  Sn0_0  1  0.00000000  0.00000000  0.00000000  1
  Sn  Sn0_1  1  0.00000000  0.00000000  0.50000000  1
  Sn  Sn0_2  1  0.00000000  0.50000000  0.00000000  1
  Sn  Sn0_3  1  0.00000000  0.50000000  0.50000000  1
  Sn  Sn0_4  1  0.50000000  0.00000000  0.00000000  1
  Sn  Sn0_5  1  0.50000000  0.00000000  0.50000000  1
  Sn  Sn0_6  1  0.50000000  0.50000000  0.00000000  1
  Sn  Sn0_7  1  0.50000000  0.50000000  0.50000000  1
  Sn  Sn1_0  1  0.25000000  0.25000000  0.00000000  1
  Sn  Sn1_1  1  0.25000000  0.25000000  0.50000000  1
  Sn  Sn1_2  1  0.25000000  0.75000000  0.00000000  1
  Sn  Sn1_3  1  0.25000000  0.75000000  0.50000000  1
  Sn  Sn1_4  1  0.75000000  0.25000000  0.00000000  1
  Sn  Sn1_5  1  0.75000000  0.25000000  0.50000000  1
  Sn  Sn1_6  1  0.75000000  0.75000000  0.00000000  1
  Sn  Sn1_7  1  0.75000000  0.75000000  0.50000000  1
loop_
_geom_bond_atom_site_label_1
_geom_bond_atom_site_label_2
_geom_bond_distance
_geom_bond_site_symmetry_2
Fe0_0 U2_0 2.696385 1_555
Fe0_0 U2_1 2.696385 1_554
Fe0_0 U3_1 2.816689 1_554
Fe0_0 U3_0 2.816689 1_555
Fe0_0 U0_3 2.816689 1_544
Fe0_0 U0_2 2.816689 1_545
Fe0_0 Fe3_2 2.856262 1_545
Fe0_0 Sn1_0 2.902426 1_555
Fe0_0 Sn0_0 2.902426 1_555
Fe0_1 U2_0 2.696385 1_555
Fe0_1 U2_1 2.696385 1_555
Fe0_1 U3_1 2.816689 1_555
Fe0_1 U3_0 2.816689 1_555
Fe0_1 U0_2 2.816689 1_545
Fe0_1 U0_3 2.816689 1_545
Fe0_1 Fe3_3 2.856262 1_545
Fe0_1 Sn1_1 2.902426 1_555
Fe0_1 Sn0_1 2.902426 1_555
Fe0_2 U2_2 2.696385 1_555
Fe0_2 U2_3 2.696385 1_554
Fe0_2 U3_2 2.816689 1_555
Fe0_2 U3_3 2.816689 1_554
Fe0_2 U0_1 2.816689 1_554
Fe0_2 U0_0 2.816689 1_555
Fe0_2 Fe3_0 2.856262 1_555
Fe0_2 Sn0_2 2.902426 1_555
Fe0_2 Sn1_2 2.902426 1_555
Fe0_3 U2_2 2.696385 1_555
Fe0_3 U2_3 2.696385 1_555
Fe0_3 U3_2 2.816689 1_555
Fe0_3 U3_3 2.816689 1_555
Fe0_3 U0_0 2.816689 1_555
Fe0_3 U0_1 2.816689 1_555
Fe0_3 Fe3_1 2.856262 1_555
Fe0_3 Sn0_3 2.902426 1_555
Fe0_3 Sn1_3 2.902426 1_555
Fe0_4 U2_4 2.696385 1_555
Fe0_4 U2_5 2.696385 1_554
Fe0_4 U3_5 2.816689 1_554
Fe0_4 U3_4 2.816689 1_555
Fe0_4 U0_6 2.816689 1_545
Fe0_4 U0_7 2.816689 1_544
Fe0_4 Fe3_6 2.856262 1_545
Fe0_4 Sn1_4 2.902426 1_555
Fe0_4 Sn0_4 2.902426 1_555
Fe0_5 U2_4 2.696385 1_555
Fe0_5 U2_5 2.696385 1_555
Fe0_5 U3_5 2.816689 1_555
Fe0_5 U3_4 2.816689 1_555
Fe0_5 U0_6 2.816689 1_545
Fe0_5 U0_7 2.816689 1_545
Fe0_5 Fe3_7 2.856262 1_545
Fe0_5 Sn1_5 2.902426 1_555
Fe0_5 Sn0_5 2.902426 1_555
Fe0_6 U2_7 2.696385 1_554
Fe0_6 U2_6 2.696385 1_555
Fe0_6 U3_7 2.816689 1_554
Fe0_6 U3_6 2.816689 1_555
Fe0_6 U0_4 2.816689 1_555
Fe0_6 U0_5 2.816689 1_554
Fe0_6 Fe3_4 2.856262 1_555
Fe0_6 Sn1_6 2.902426 1_555
Fe0_6 Sn0_6 2.902426 1_555
Fe0_7 U2_6 2.696385 1_555
Fe0_7 U2_7 2.696385 1_555
Fe0_7 U3_7 2.816689 1_555
Fe0_7 U3_6 2.816689 1_555
Fe0_7 U0_4 2.816689 1_555
Fe0_7 U0_5 2.816689 1_555
Fe0_7 Fe3_5 2.856262 1_555
Fe0_7 Sn1_7 2.902426 1_555
Fe0_7 Sn0_7 2.902426 1_555
Fe1_0 U3_1 2.696385 1_554
Fe1_0 U3_0 2.696385 1_555
Fe1_0 U2_5 2.816689 1_554
Fe1_0 U2_4 2.816689 1_555
Fe1_0 U1_0 2.816689 1_555
Fe1_0 U1_1 2.816689 1_554
Fe1_0 Fe2_4 2.856262 1_555
Fe1_0 Sn1_0 2.902426 1_555
Fe1_0 Sn0_4 2.902426 1_555
Fe1_1 U3_0 2.696385 1_555
Fe1_1 U3_1 2.696385 1_555
Fe1_1 U2_5 2.816689 1_555
Fe1_1 U2_4 2.816689 1_555
Fe1_1 U1_0 2.816689 1_555
Fe1_1 U1_1 2.816689 1_555
Fe1_1 Fe2_5 2.856262 1_555
Fe1_1 Sn1_1 2.902426 1_555
Fe1_1 Sn0_5 2.902426 1_555
Fe1_2 U3_2 2.696385 1_555
Fe1_2 U3_3 2.696385 1_554
Fe1_2 U1_3 2.816689 1_554
Fe1_2 U1_2 2.816689 1_555
Fe1_2 U2_6 2.816689 1_555
Fe1_2 U2_7 2.816689 1_554
Fe1_2 Fe2_6 2.856262 1_555
Fe1_2 Sn1_2 2.902426 1_555
Fe1_2 Sn0_6 2.902426 1_555
Fe1_3 U3_2 2.696385 1_555
Fe1_3 U3_3 2.696385 1_555
Fe1_3 U1_3 2.816689 1_555
Fe1_3 U2_7 2.816689 1_555
Fe1_3 U1_2 2.816689 1_555
Fe1_3 U2_6 2.816689 1_555
Fe1_3 Fe2_7 2.856262 1_555
Fe1_3 Sn1_3 2.902426 1_555
Fe1_3 Sn0_7 2.902426 1_555
Fe1_4 U3_5 2.696385 1_554
Fe1_4 U3_4 2.696385 1_555
Fe1_4 U2_0 2.816689 1_655
Fe1_4 U2_1 2.816689 1_654
Fe1_4 U1_4 2.816689 1_555
Fe1_4 U1_5 2.816689 1_554
Fe1_4 Fe2_0 2.856262 1_655
Fe1_4 Sn0_0 2.902426 1_655
Fe1_4 Sn1_4 2.902426 1_555
Fe1_5 U3_5 2.696385 1_555
Fe1_5 U3_4 2.696385 1_555
Fe1_5 U2_1 2.816689 1_655
Fe1_5 U2_0 2.816689 1_655
Fe1_5 U1_4 2.816689 1_555
Fe1_5 U1_5 2.816689 1_555
Fe1_5 Fe2_1 2.856262 1_655
Fe1_5 Sn0_1 2.902426 1_655
Fe1_5 Sn1_5 2.902426 1_555
Fe1_6 U3_7 2.696385 1_554
Fe1_6 U3_6 2.696385 1_555
Fe1_6 U1_6 2.816689 1_555
Fe1_6 U1_7 2.816689 1_554
Fe1_6 U2_2 2.816689 1_655
Fe1_6 U2_3 2.816689 1_654
Fe1_6 Fe2_2 2.856262 1_655
Fe1_6 Sn0_2 2.902426 1_655
Fe1_6 Sn1_6 2.902426 1_555
Fe1_7 U3_6 2.696385 1_555
Fe1_7 U3_7 2.696385 1_555
Fe1_7 U1_6 2.816689 1_555
Fe1_7 U1_7 2.816689 1_555
Fe1_7 U2_2 2.816689 1_655
Fe1_7 U2_3 2.816689 1_655
Fe1_7 Fe2_3 2.856262 1_655
Fe1_7 Sn0_3 2.902426 1_655
Fe1_7 Sn1_7 2.902426 1_555
Fe2_0 U0_0 2.696385 1_555
Fe2_0 U0_1 2.696385 1_554
Fe2_0 U2_0 2.816689 1_555
Fe2_0 U2_1 2.816689 1_554
Fe2_0 U1_5 2.816689 1_454
Fe2_0 U1_4 2.816689 1_455
Fe2_0 Sn0_2 2.902426 1_555
Fe2_0 Sn1_0 2.902426 1_555
Fe2_1 U0_0 2.696385 1_555
Fe2_1 U0_1 2.696385 1_555
Fe2_1 U2_0 2.816689 1_555
Fe2_1 U2_1 2.816689 1_555
Fe2_1 U1_5 2.816689 1_455
Fe2_1 U1_4 2.816689 1_455
Fe2_1 Sn0_3 2.902426 1_555
Fe2_1 Sn1_1 2.902426 1_555
Fe2_2 U0_3 2.696385 1_554
Fe2_2 U0_2 2.696385 1_555
Fe2_2 U2_3 2.816689 1_554
Fe2_2 U2_2 2.816689 1_555
Fe2_2 U1_6 2.816689 1_455
Fe2_2 U1_7 2.816689 1_454
Fe2_2 Sn1_2 2.902426 1_555
Fe2_2 Sn0_0 2.902426 1_565
Fe2_3 U0_3 2.696385 1_555
Fe2_3 U0_2 2.696385 1_555
Fe2_3 U2_3 2.816689 1_555
Fe2_3 U2_2 2.816689 1_555
Fe2_3 U1_6 2.816689 1_455
Fe2_3 U1_7 2.816689 1_455
Fe2_3 Sn1_3 2.902426 1_555
Fe2_3 Sn0_1 2.902426 1_565
Fe2_4 U0_5 2.696385 1_554
Fe2_4 U0_4 2.696385 1_555
Fe2_4 U2_5 2.816689 1_554
Fe2_4 U2_4 2.816689 1_555
Fe2_4 U1_0 2.816689 1_555
Fe2_4 U1_1 2.816689 1_554
Fe2_4 Sn0_6 2.902426 1_555
Fe2_4 Sn1_4 2.902426 1_555
Fe2_5 U0_4 2.696385 1_555
Fe2_5 U0_5 2.696385 1_555
Fe2_5 U2_4 2.816689 1_555
Fe2_5 U2_5 2.816689 1_555
Fe2_5 U1_0 2.816689 1_555
Fe2_5 U1_1 2.816689 1_555
Fe2_5 Sn0_7 2.902426 1_555
Fe2_5 Sn1_5 2.902426 1_555
Fe2_6 U0_7 2.696385 1_554
Fe2_6 U0_6 2.696385 1_555
Fe2_6 U2_6 2.816689 1_555
Fe2_6 U2_7 2.816689 1_554
Fe2_6 U1_3 2.816689 1_554
Fe2_6 U1_2 2.816689 1_555
Fe2_6 Sn1_6 2.902426 1_555
Fe2_6 Sn0_4 2.902426 1_565
Fe2_7 U0_6 2.696385 1_555
Fe2_7 U0_7 2.696385 1_555
Fe2_7 U2_6 2.816689 1_555
Fe2_7 U2_7 2.816689 1_555
Fe2_7 U1_3 2.816689 1_555
Fe2_7 U1_2 2.816689 1_555
Fe2_7 Sn1_7 2.902426 1_555
Fe2_7 Sn0_5 2.902426 1_565
Fe3_0 U1_0 2.696385 1_555
Fe3_0 U1_1 2.696385 1_554
Fe3_0 U3_3 2.816689 1_554
Fe3_0 U3_2 2.816689 1_555
Fe3_0 U0_1 2.816689 1_554
Fe3_0 U0_0 2.816689 1_555
Fe3_0 Sn1_0 2.902426 1_555
Fe3_0 Sn0_6 2.902426 1_555
Fe3_1 U1_0 2.696385 1_555
Fe3_1 U1_1 2.696385 1_555
Fe3_1 U3_3 2.816689 1_555
Fe3_1 U3_2 2.816689 1_555
Fe3_1 U0_0 2.816689 1_555
Fe3_1 U0_1 2.816689 1_555
Fe3_1 Sn1_1 2.902426 1_555
Fe3_1 Sn0_7 2.902426 1_555
Fe3_2 U1_3 2.696385 1_554
Fe3_2 U1_2 2.696385 1_555
Fe3_2 U3_0 2.816689 1_565
Fe3_2 U3_1 2.816689 1_564
Fe3_2 U0_3 2.816689 1_554
Fe3_2 U0_2 2.816689 1_555
Fe3_2 Sn0_4 2.902426 1_565
Fe3_2 Sn1_2 2.902426 1_555
Fe3_3 U1_3 2.696385 1_555
Fe3_3 U1_2 2.696385 1_555
Fe3_3 U3_0 2.816689 1_565
Fe3_3 U3_1 2.816689 1_565
Fe3_3 U0_2 2.816689 1_555
Fe3_3 U0_3 2.816689 1_555
Fe3_3 Sn0_5 2.902426 1_565
Fe3_3 Sn1_3 2.902426 1_555
Fe3_4 U1_4 2.696385 1_555
Fe3_4 U1_5 2.696385 1_554
Fe3_4 U0_5 2.816689 1_554
Fe3_4 U3_6 2.816689 1_555
Fe3_4 U0_4 2.816689 1_555
Fe3_4 U3_7 2.816689 1_554
Fe3_4 Sn1_4 2.902426 1_555
Fe3_4 Sn0_2 2.902426 1_655
Fe3_5 U1_4 2.696385 1_555
Fe3_5 U1_5 2.696385 1_555
Fe3_5 U3_6 2.816689 1_555
Fe3_5 U3_7 2.816689 1_555
Fe3_5 U0_4 2.816689 1_555
Fe3_5 U0_5 2.816689 1_555
Fe3_5 Sn1_5 2.902426 1_555
Fe3_5 Sn0_3 2.902426 1_655
Fe3_6 U1_6 2.696385 1_555
Fe3_6 U1_7 2.696385 1_554
Fe3_6 U0_7 2.816689 1_554
Fe3_6 U0_6 2.816689 1_555
Fe3_6 U3_4 2.816689 1_565
Fe3_6 U3_5 2.816689 1_564
Fe3_6 Sn1_6 2.902426 1_555
Fe3_6 Sn0_0 2.902426 1_665
Fe3_7 U1_6 2.696385 1_555
Fe3_7 U1_7 2.696385 1_555
Fe3_7 U0_6 2.816689 1_555
Fe3_7 U0_7 2.816689 1_555
Fe3_7 U3_5 2.816689 1_565
Fe3_7 U3_4 2.816689 1_565
Fe3_7 Sn1_7 2.902426 1_555
Fe3_7 Sn0_1 2.902426 1_665
Sn0_0 U2_0 3.256588 1_555
Sn0_0 U2_1 3.256588 1_554
Sn0_0 U3_5 3.256588 1_454
Sn0_0 U3_4 3.256588 1_455
Sn0_0 U0_3 3.256588 1_544
Sn0_0 U0_2 3.256588 1_545
Sn0_0 U1_7 3.256588 1_444
Sn0_0 U1_6 3.256588 1_445
Sn0_0 Sn0_1 3.375327 1_554
Sn0_0 Sn0_1 3.375327 1_555
Sn0_1 U2_0 3.256588 1_555
Sn0_1 U2_1 3.256588 1_555
Sn0_1 U3_5 3.256588 1_455
Sn0_1 U3_4 3.256588 1_455
Sn0_1 U0_3 3.256588 1_545
Sn0_1 U0_2 3.256588 1_545
Sn0_1 U1_7 3.256588 1_445
Sn0_1 U1_6 3.256588 1_445
Sn0_2 U2_2 3.256588 1_555
Sn0_2 U2_3 3.256588 1_554
Sn0_2 U3_7 3.256588 1_454
Sn0_2 U3_6 3.256588 1_455
Sn0_2 U0_0 3.256588 1_555
Sn0_2 U0_1 3.256588 1_554
Sn0_2 U1_4 3.256588 1_455
Sn0_2 U1_5 3.256588 1_454
Sn0_2 Sn0_3 3.375327 1_555
Sn0_2 Sn0_3 3.375327 1_554
Sn0_3 U2_2 3.256588 1_555
Sn0_3 U2_3 3.256588 1_555
Sn0_3 U3_7 3.256588 1_455
Sn0_3 U3_6 3.256588 1_455
Sn0_3 U0_0 3.256588 1_555
Sn0_3 U0_1 3.256588 1_555
Sn0_3 U1_4 3.256588 1_455
Sn0_3 U1_5 3.256588 1_455
Sn0_4 U2_4 3.256588 1_555
Sn0_4 U2_5 3.256588 1_554
Sn0_4 U3_1 3.256588 1_554
Sn0_4 U3_0 3.256588 1_555
Sn0_4 U1_3 3.256588 1_544
Sn0_4 U0_6 3.256588 1_545
Sn0_4 U0_7 3.256588 1_544
Sn0_4 U1_2 3.256588 1_545
Sn0_4 Sn0_5 3.375327 1_555
Sn0_4 Sn0_5 3.375327 1_554
Sn0_5 U2_4 3.256588 1_555
Sn0_5 U2_5 3.256588 1_555
Sn0_5 U3_0 3.256588 1_555
Sn0_5 U3_1 3.256588 1_555
Sn0_5 U0_6 3.256588 1_545
Sn0_5 U1_2 3.256588 1_545
Sn0_5 U1_3 3.256588 1_545
Sn0_5 U0_7 3.256588 1_545
Sn0_6 U3_3 3.256588 1_554
Sn0_6 U3_2 3.256588 1_555
Sn0_6 U2_6 3.256588 1_555
Sn0_6 U2_7 3.256588 1_554
Sn0_6 U1_1 3.256588 1_554
Sn0_6 U1_0 3.256588 1_555
Sn0_6 U0_5 3.256588 1_554
Sn0_6 U0_4 3.256588 1_555
Sn0_6 Sn0_7 3.375327 1_554
Sn0_6 Sn0_7 3.375327 1_555
Sn0_7 U3_3 3.256588 1_555
Sn0_7 U3_2 3.256588 1_555
Sn0_7 U2_6 3.256588 1_555
Sn0_7 U2_7 3.256588 1_555
Sn0_7 U1_0 3.256588 1_555
Sn0_7 U1_1 3.256588 1_555
Sn0_7 U0_4 3.256588 1_555
Sn0_7 U0_5 3.256588 1_555
Sn1_0 U1_1 3.256588 1_554
Sn1_0 U1_0 3.256588 1_555
Sn1_0 U0_1 3.256588 1_554
Sn1_0 U0_0 3.256588 1_555
Sn1_0 U3_1 3.256588 1_554
Sn1_0 U3_0 3.256588 1_555
Sn1_0 U2_0 3.256588 1_555
Sn1_0 U2_1 3.256588 1_554
Sn1_0 Sn1_1 3.375327 1_554
Sn1_0 Sn1_1 3.375327 1_555
Sn1_1 U1_1 3.256588 1_555
Sn1_1 U1_0 3.256588 1_555
Sn1_1 U0_1 3.256588 1_555
Sn1_1 U0_0 3.256588 1_555
Sn1_1 U3_0 3.256588 1_555
Sn1_1 U3_1 3.256588 1_555
Sn1_1 U2_0 3.256588 1_555
Sn1_1 U2_1 3.256588 1_555
Sn1_2 U1_2 3.256588 1_555
Sn1_2 U1_3 3.256588 1_554
Sn1_2 U0_3 3.256588 1_554
Sn1_2 U0_2 3.256588 1_555
Sn1_2 U2_2 3.256588 1_555
Sn1_2 U2_3 3.256588 1_554
Sn1_2 U3_3 3.256588 1_554
Sn1_2 U3_2 3.256588 1_555
Sn1_2 Sn1_3 3.375327 1_554
Sn1_2 Sn1_3 3.375327 1_555
Sn1_3 U1_2 3.256588 1_555
Sn1_3 U1_3 3.256588 1_555
Sn1_3 U0_3 3.256588 1_555
Sn1_3 U0_2 3.256588 1_555
Sn1_3 U2_2 3.256588 1_555
Sn1_3 U2_3 3.256588 1_555
Sn1_3 U3_3 3.256588 1_555
Sn1_3 U3_2 3.256588 1_555
Sn1_4 U0_5 3.256588 1_554
Sn1_4 U0_4 3.256588 1_555
Sn1_4 U1_4 3.256588 1_555
Sn1_4 U1_5 3.256588 1_554
Sn1_4 U3_5 3.256588 1_554
Sn1_4 U3_4 3.256588 1_555
Sn1_4 U2_5 3.256588 1_554
Sn1_4 U2_4 3.256588 1_555
Sn1_4 Sn1_5 3.375327 1_554
Sn1_4 Sn1_5 3.375327 1_555
Sn1_5 U0_4 3.256588 1_555
Sn1_5 U0_5 3.256588 1_555
Sn1_5 U1_4 3.256588 1_555
Sn1_5 U1_5 3.256588 1_555
Sn1_5 U3_4 3.256588 1_555
Sn1_5 U3_5 3.256588 1_555
Sn1_5 U2_5 3.256588 1_555
Sn1_5 U2_4 3.256588 1_555
Sn1_6 U0_6 3.256588 1_555
Sn1_6 U0_7 3.256588 1_554
Sn1_6 U1_7 3.256588 1_554
Sn1_6 U1_6 3.256588 1_555
Sn1_6 U2_6 3.256588 1_555
Sn1_6 U2_7 3.256588 1_554
Sn1_6 U3_6 3.256588 1_555
Sn1_6 U3_7 3.256588 1_554
Sn1_6 Sn1_7 3.375327 1_554
Sn1_6 Sn1_7 3.375327 1_555
Sn1_7 U0_6 3.256588 1_555
Sn1_7 U0_7 3.256588 1_555
Sn1_7 U1_6 3.256588 1_555
Sn1_7 U1_7 3.256588 1_555
Sn1_7 U2_6 3.256588 1_555
Sn1_7 U2_7 3.256588 1_555
Sn1_7 U3_6 3.256588 1_555
Sn1_7 U3_7 3.256588 1_555
