# generated using pymatgen
data_MgAg2(CO3)2
_symmetry_space_group_name_H-M   'P 1'
_cell_length_a   7.01947734
_cell_length_b   7.01947734
_cell_length_c   7.01947742
_cell_angle_alpha   43.90909710
_cell_angle_beta   43.90909713
_cell_angle_gamma   43.90910550
_symmetry_Int_Tables_number   1
_chemical_formula_structural   MgAg2(CO3)2
_chemical_formula_sum   'Mg1 Ag2 C2 O6'
_cell_volume   151.06409041
_cell_formula_units_Z   1
loop_
 _symmetry_equiv_pos_site_id
 _symmetry_equiv_pos_as_xyz
  1  'x, y, z'
loop_
 _atom_site_type_symbol
 _atom_site_label
 _atom_site_symmetry_multiplicity
 _atom_site_fract_x
 _atom_site_fract_y
 _atom_site_fract_z
 _atom_site_occupancy
  Mg  Mg0  1  0.92400464  0.92400464  0.92400464  1
  Ag  Ag0  1  0.07075965  0.07075965  0.07075965  1
  Ag  Ag1  1  0.48556489  0.48556489  0.48556489  1
  C  C0  1  0.23702411  0.23702411  0.23702411  1
  C  C1  1  0.73512841  0.73512841  0.73512841  1
  O  O0  1  0.20385464  0.00638661  0.49762815  1
  O  O1  1  0.00538614  0.52019598  0.67864977  1
  O  O2  1  0.52019598  0.67864977  0.00538614  1
  O  O3  1  0.49762815  0.20385464  0.00638661  1
  O  O4  1  0.00638661  0.49762815  0.20385464  1
  O  O5  1  0.67864977  0.00538614  0.52019598  1
loop_
_geom_bond_atom_site_label_1
_geom_bond_atom_site_label_2
_geom_bond_distance
_geom_bond_site_symmetry_2
Mg0 O0 1.955129 1_665
Mg0 O4 1.955129 1_656
Mg0 O3 1.955129 1_566
Ag0 O5 2.227427 1_455
Ag0 O1 2.227428 1_554
Ag0 O2 2.227428 1_545
Ag0 Mg0 2.787608 1_444
Ag1 O2 2.443093 1_555
Ag1 O1 2.443093 1_555
Ag1 O5 2.443093 1_555
Ag1 O4 2.659171 1_655
Ag1 O3 2.659171 1_556
Ag1 O0 2.659171 1_565
C0 O0 1.297594 1_555
C0 O3 1.297594 1_555
C0 O4 1.297594 1_555
C1 O2 1.298622 1_556
C1 O5 1.298622 1_565
C1 O1 1.298622 1_655
