# generated using pymatgen
data_Mo2(PO4)3
_symmetry_space_group_name_H-M   'P 1'
_cell_length_a   8.56104200
_cell_length_b   8.58630081
_cell_length_c   9.02345777
_cell_angle_alpha   61.64152278
_cell_angle_beta   61.85093956
_cell_angle_gamma   60.43449438
_symmetry_Int_Tables_number   1
_chemical_formula_structural   Mo2(PO4)3
_chemical_formula_sum   'Mo4 P6 O24'
_cell_volume   482.65495690
_cell_formula_units_Z   2
loop_
 _symmetry_equiv_pos_site_id
 _symmetry_equiv_pos_as_xyz
  1  'x, y, z'
loop_
 _atom_site_type_symbol
 _atom_site_label
 _atom_site_symmetry_multiplicity
 _atom_site_fract_x
 _atom_site_fract_y
 _atom_site_fract_z
 _atom_site_occupancy
  Mo  Mo0  1  0.86507300  0.86041900  0.92512800  1
  Mo  Mo1  1  0.64216200  0.64641100  0.56035800  1
  Mo  Mo2  1  0.35783800  0.35358900  0.43964200  1
  Mo  Mo3  1  0.13492700  0.13958100  0.07487200  1
  P  P0  1  0.75475100  0.45593100  0.25585700  1
  P  P1  1  0.04033300  0.74541300  0.24768800  1
  P  P2  1  0.46594100  0.02869800  0.25210800  1
  P  P3  1  0.53405900  0.97130200  0.74789200  1
  P  P4  1  0.95966700  0.25458700  0.75231200  1
  P  P5  1  0.24524900  0.54406900  0.74414300  1
  O  O0  1  0.10267300  0.88121200  0.25081800  1
  O  O1  1  0.17585800  0.53835800  0.29977400  1
  O  O2  1  0.25447600  0.52975100  0.57467300  1
  O  O3  1  0.63280500  0.00687600  0.08273900  1
  O  O4  1  0.27867500  0.10394300  0.21960200  1
  O  O5  1  0.48303300  0.83463100  0.40036000  1
  O  O6  1  0.82414200  0.46164200  0.70022600  1
  O  O7  1  0.36719500  0.99312400  0.91726100  1
  O  O8  1  0.89480100  0.25899700  0.24433300  1
  O  O9  1  0.74552400  0.47024900  0.42532700  1
  O  O10  1  0.97090700  0.20095300  0.93636000  1
  O  O11  1  0.80742200  0.61309600  0.09260800  1
  O  O12  1  0.83958000  0.75481200  0.38604900  1
  O  O13  1  0.46764200  0.17090600  0.31059400  1
  O  O14  1  0.16042000  0.24518800  0.61395100  1
  O  O15  1  0.02909300  0.79904700  0.06364000  1
  O  O16  1  0.72132500  0.89605700  0.78039800  1
  O  O17  1  0.89732700  0.11878800  0.74918200  1
  O  O18  1  0.19257800  0.38690400  0.90739200  1
  O  O19  1  0.10519900  0.74100300  0.75566700  1
  O  O20  1  0.53235800  0.82909400  0.68940600  1
  O  O21  1  0.51696700  0.16536900  0.59964000  1
  O  O22  1  0.44294200  0.53639900  0.72093200  1
  O  O23  1  0.55705800  0.46360100  0.27906800  1
loop_
_geom_bond_atom_site_label_1
_geom_bond_atom_site_label_2
_geom_bond_distance
_geom_bond_site_symmetry_2
Mo0 O19 2.014687 1_655
Mo0 O16 2.019605 1_555
Mo0 O15 2.027709 1_656
Mo0 O3 2.030033 1_566
Mo0 O11 2.078201 1_556
Mo0 O17 2.088849 1_565
Mo1 O12 1.962175 1_555
Mo1 O22 1.964303 1_555
Mo1 O20 1.986777 1_555
Mo1 O9 1.992030 1_555
Mo1 O5 2.004659 1_555
Mo1 O6 2.012706 1_555
Mo2 O14 1.962175 1_555
Mo2 O23 1.964303 1_555
Mo2 O13 1.986777 1_555
Mo2 O2 1.992030 1_555
Mo2 O21 2.004659 1_555
Mo2 O1 2.012706 1_555
Mo3 O8 2.014687 1_455
Mo3 O4 2.019605 1_555
Mo3 O10 2.027709 1_454
Mo3 O7 2.030033 1_544
Mo3 O18 2.078201 1_554
Mo3 O0 2.088849 1_545
O0 P1 1.518163 1_555
O1 P1 1.553360 1_555
O2 P5 1.553981 1_555
O3 P2 1.536047 1_555
O4 P2 1.521575 1_555
O5 P2 1.553729 1_565
O6 P4 1.553360 1_555
O7 P3 1.536047 1_555
O8 P0 1.535029 1_555
O9 P0 1.553981 1_555
O10 P4 1.536208 1_555
O11 P0 1.509858 1_555
O12 P1 1.566301 1_655
O13 P2 1.551331 1_555
O14 P4 1.566301 1_455
O15 P1 1.536208 1_555
O16 P3 1.521575 1_555
O17 P4 1.518163 1_555
O18 P5 1.509858 1_555
O19 P5 1.535029 1_555
O20 P3 1.551331 1_555
O21 P3 1.553729 1_545
O22 P5 1.575205 1_555
O23 P0 1.575205 1_555
