# generated using pymatgen
data_Na2Si3Ge4(SO8)3
_symmetry_space_group_name_H-M   'P 1'
_cell_length_a   8.52090254
_cell_length_b   8.44190588
_cell_length_c   22.04162259
_cell_angle_alpha   90.84240851
_cell_angle_beta   90.76953969
_cell_angle_gamma   119.81722873
_symmetry_Int_Tables_number   1
_chemical_formula_structural   Na2Si3Ge4(SO8)3
_chemical_formula_sum   'Na6 Si9 Ge12 S9 O72'
_cell_volume   1375.07410415
_cell_formula_units_Z   3
loop_
 _symmetry_equiv_pos_site_id
 _symmetry_equiv_pos_as_xyz
  1  'x, y, z'
loop_
 _atom_site_type_symbol
 _atom_site_label
 _atom_site_symmetry_multiplicity
 _atom_site_fract_x
 _atom_site_fract_y
 _atom_site_fract_z
 _atom_site_occupancy
  Na  Na0  1  0.99089620  0.98992001  0.49747247  1
  Na  Na1  1  0.00235935  0.99393460  0.00065421  1
  Na  Na2  1  0.65857752  0.32463617  0.83087308  1
  Na  Na3  1  0.67115969  0.32757539  0.33459617  1
  Na  Na4  1  0.32357726  0.66369487  0.17086255  1
  Na  Na5  1  0.34142869  0.66514798  0.66514740  1
  Si  Si0  1  0.29293999  0.00766342  0.25125447  1
  Si  Si1  1  0.01031626  0.28473630  0.25151773  1
  Si  Si2  1  0.28543076  0.28879280  0.74896675  1
  Si  Si3  1  0.71883319  0.00803916  0.75015957  1
  Si  Si4  1  0.66446899  0.61897894  0.58329703  1
  Si  Si5  1  0.94692658  0.61983218  0.08526814  1
  Si  Si6  1  0.33045175  0.95674616  0.91561176  1
  Si  Si7  1  0.62444191  0.95578509  0.41544538  1
  Si  Si8  1  0.05120563  0.67250941  0.41798220  1
  Ge  Ge0  1  0.00375408  0.00456605  0.35570116  1
  Ge  Ge1  1  0.01934629  0.01543706  0.84814898  1
  Ge  Ge2  1  0.98213167  0.00106766  0.64681253  1
  Ge  Ge3  1  0.00726326  0.98965118  0.15374929  1
  Ge  Ge4  1  0.64688027  0.32770782  0.68812542  1
  Ge  Ge5  1  0.68489575  0.33446902  0.19392956  1
  Ge  Ge6  1  0.66025833  0.33324906  0.98194369  1
  Ge  Ge7  1  0.68616485  0.34947089  0.47482360  1
  Ge  Ge8  1  0.31266689  0.67344498  0.02100004  1
  Ge  Ge9  1  0.35603698  0.68321759  0.51493401  1
  Ge  Ge10  1  0.31069429  0.67913736  0.31255356  1
  Ge  Ge11  1  0.35437917  0.68481912  0.80796284  1
  S  S0  1  0.70987415  0.71248563  0.24974062  1
  S  S1  1  0.00009524  0.71189719  0.74962038  1
  S  S2  1  0.95551492  0.33628894  0.58416565  1
  S  S3  1  0.37505700  0.04422448  0.58259784  1
  S  S4  1  0.66733050  0.04323219  0.08247488  1
  S  S5  1  0.37712167  0.33621122  0.08235771  1
  S  S6  1  0.62047015  0.66790745  0.91805796  1
  S  S7  1  0.04419589  0.37944580  0.91635792  1
  S  S8  1  0.33490242  0.38160231  0.41637834  1
  O  O0  1  0.20169377  0.04110057  0.31008261  1
  O  O1  1  0.82540764  0.78675528  0.30448452  1
  O  O2  1  0.96135693  0.15615515  0.30951185  1
  O  O3  1  0.21374186  0.16830127  0.80992856  1
  O  O4  1  0.96374998  0.78785779  0.80634862  1
  O  O5  1  0.83851197  0.03607795  0.81302509  1
  O  O6  1  0.79311942  0.95548832  0.69080052  1
  O  O7  1  0.15984388  0.19542033  0.68837651  1
  O  O8  1  0.03678531  0.82441945  0.69556028  1
  O  O9  1  0.78559751  0.82193177  0.19315699  1
  O  O10  1  0.03307099  0.19542475  0.18657312  1
  O  O11  1  0.17031630  0.95360021  0.18842970  1
  O  O12  1  0.87482147  0.36497569  0.63961277  1
  O  O13  1  0.49045341  0.11860395  0.63993605  1
  O  O14  1  0.63257679  0.49642784  0.64394590  1
  O  O15  1  0.85351664  0.48852313  0.14219451  1
  O  O16  1  0.62598887  0.11799238  0.13686406  1
  O  O17  1  0.48956429  0.37027223  0.13683369  1
  O  O18  1  0.45282081  0.29640949  0.02593826  1
  O  O19  1  0.82652838  0.53101110  0.02179346  1
  O  O20  1  0.69682664  0.15377768  0.02675841  1
  O  O21  1  0.45574521  0.15496457  0.52935212  1
  O  O22  1  0.69946743  0.52526840  0.52393793  1
  O  O23  1  0.84042486  0.29430618  0.52843720  1
  O  O24  1  0.53878112  0.69734399  0.97344073  1
  O  O25  1  0.16066919  0.45576020  0.97338495  1
  O  O26  1  0.29481980  0.83494596  0.97627571  1
  O  O27  1  0.55040064  0.83645352  0.47682131  1
  O  O28  1  0.29994907  0.45732494  0.47332024  1
  O  O29  1  0.17327978  0.70122100  0.48001305  1
  O  O30  1  0.12161925  0.61775946  0.35767230  1
  O  O31  1  0.49572425  0.86115102  0.35549456  1
  O  O32  1  0.36813442  0.49059817  0.36211374  1
  O  O33  1  0.12293290  0.48931808  0.86282576  1
  O  O34  1  0.36832791  0.86218967  0.85723475  1
  O  O35  1  0.50608396  0.62706282  0.86198367  1
  O  O36  1  0.03176403  0.85240903  0.40915939  1
  O  O37  1  0.82514428  0.98168154  0.40835272  1
  O  O38  1  0.17015075  0.19894902  0.41277080  1
  O  O39  1  0.02420592  0.19381813  0.91280361  1
  O  O40  1  0.14624682  0.97309310  0.90816016  1
  O  O41  1  0.80092853  0.82991869  0.91232424  1
  O  O42  1  0.97397216  0.16755587  0.58808259  1
  O  O43  1  0.19480448  0.02809416  0.59026236  1
  O  O44  1  0.85203003  0.82083046  0.59098127  1
  O  O45  1  0.96739443  0.82415282  0.09109845  1
  O  O46  1  0.82938501  0.02565981  0.08798706  1
  O  O47  1  0.19523502  0.17502282  0.08552214  1
  O  O48  1  0.70116402  0.18988476  0.74016698  1
  O  O49  1  0.48669201  0.31397085  0.74376326  1
  O  O50  1  0.83819908  0.52917004  0.74377282  1
  O  O51  1  0.69374550  0.52844485  0.24214724  1
  O  O52  1  0.83145010  0.30990038  0.24483187  1
  O  O53  1  0.48956060  0.19012782  0.23826392  1
  O  O54  1  0.63779414  0.49934286  0.92270226  1
  O  O55  1  0.86221389  0.36185389  0.92357802  1
  O  O56  1  0.51499627  0.15931811  0.92644221  1
  O  O57  1  0.63175708  0.15248618  0.42746079  1
  O  O58  1  0.49621386  0.35827503  0.42361799  1
  O  O59  1  0.84956942  0.49350764  0.42276821  1
  O  O60  1  0.36610204  0.50781672  0.07359023  1
  O  O61  1  0.14867288  0.63731123  0.07740881  1
  O  O62  1  0.50250502  0.85508587  0.07506047  1
  O  O63  1  0.35670129  0.85914240  0.57906324  1
  O  O64  1  0.48119413  0.63830403  0.57568876  1
  O  O65  1  0.13614252  0.49765336  0.57873188  1
  O  O66  1  0.31727411  0.82898776  0.25426958  1
  O  O67  1  0.53075621  0.69141187  0.25452920  1
  O  O68  1  0.19314421  0.48474672  0.25769109  1
  O  O69  1  0.29776771  0.48692497  0.76074559  1
  O  O70  1  0.16295820  0.69203741  0.75727679  1
  O  O71  1  0.51746404  0.82938997  0.75591564  1
loop_
_geom_bond_atom_site_label_1
_geom_bond_atom_site_label_2
_geom_bond_distance
_geom_bond_site_symmetry_2
Na0 O36 2.368909 1_655
Na0 O37 2.383697 1_555
Na0 O44 2.481550 1_555
Na0 O42 2.528451 1_565
Na0 O38 2.534849 1_665
Na0 O43 2.575663 1_665
Na1 O45 2.406775 1_455
Na1 O47 2.423235 1_565
Na1 O40 2.441648 1_554
Na1 O41 2.474115 1_454
Na1 O46 2.530449 1_465
Na1 O39 2.534734 1_564
Na2 O49 2.372345 1_555
Na2 O48 2.405427 1_555
Na2 O56 2.517841 1_555
Na2 O54 2.546565 1_555
Na2 O50 2.560848 1_555
Na2 O55 2.574606 1_555
Na3 O59 2.402735 1_555
Na3 O52 2.463527 1_555
Na3 O57 2.470044 1_555
Na3 O53 2.510578 1_555
Na3 O58 2.566579 1_555
Na3 O51 2.617714 1_555
Na4 O66 2.309015 1_555
Na4 O68 2.377518 1_555
Na4 O67 2.461947 1_555
Na4 O61 2.467336 1_555
Na4 O60 2.621433 1_555
Na4 O62 2.670404 1_555
Na5 O64 2.382444 1_555
Na5 O71 2.438168 1_555
Na5 O65 2.461456 1_555
Na5 O63 2.487018 1_555
Na5 O69 2.529768 1_555
Na5 O70 2.626881 1_555
Ge0 O2 1.814615 1_455
Ge0 O36 1.853948 1_545
Ge0 O37 1.860649 1_445
Ge0 O0 1.867680 1_555
Ge0 O38 1.965455 1_555
Ge0 O1 2.019611 1_445
Ge1 O3 1.749990 1_555
Ge1 O5 1.800818 1_455
Ge1 O40 1.845679 1_545
Ge1 O4 1.948191 1_445
Ge1 O39 2.042931 1_555
Ge1 O41 2.270380 1_445
Ge2 O6 1.765967 1_545
Ge2 O7 1.808879 1_655
Ge2 O44 1.813650 1_545
Ge2 O42 1.950435 1_555
Ge2 O8 2.078342 1_645
Ge2 O43 2.132491 1_655
Ge3 O11 1.733804 1_555
Ge3 O10 1.779963 1_565
Ge3 O45 1.852830 1_455
Ge3 O9 1.935832 1_455
Ge3 O46 2.214250 1_465
Ge3 O47 2.217455 1_565
Ge4 O14 1.789422 1_555
Ge4 O49 1.808921 1_555
Ge4 O48 1.855703 1_555
Ge4 O13 1.894163 1_555
Ge4 O50 2.045053 1_555
Ge4 O12 2.114892 1_555
Ge5 O52 1.757285 1_555
Ge5 O53 1.808817 1_555
Ge5 O15 1.812579 1_555
Ge5 O51 1.908032 1_555
Ge5 O16 2.043760 1_555
Ge5 O17 2.213722 1_555
Ge6 O19 1.771211 1_556
Ge6 O56 1.812097 1_555
Ge6 O18 1.915608 1_556
Ge6 O20 1.968123 1_556
Ge6 O54 2.005429 1_555
Ge6 O55 2.080861 1_555
Ge7 O59 1.770293 1_555
Ge7 O22 1.780284 1_555
Ge7 O57 1.799825 1_555
Ge7 O23 1.980984 1_555
Ge7 O58 1.993021 1_555
Ge7 O21 2.216071 1_555
Ge8 O26 1.759374 1_554
Ge8 O61 1.795977 1_555
Ge8 O25 1.922452 1_554
Ge8 O62 1.953350 1_555
Ge8 O60 2.042694 1_555
Ge8 O24 2.127362 1_554
Ge9 O27 1.749495 1_555
Ge9 O29 1.802004 1_555
Ge9 O64 1.858236 1_555
Ge9 O28 1.933054 1_555
Ge9 O63 2.033074 1_555
Ge9 O65 2.271287 1_555
Ge10 O30 1.755313 1_555
Ge10 O66 1.798055 1_555
Ge10 O31 1.802927 1_555
Ge10 O68 1.852847 1_555
Ge10 O32 2.185775 1_555
Ge10 O67 2.244469 1_555
Ge11 O71 1.770325 1_555
Ge11 O34 1.790913 1_555
Ge11 O69 1.800205 1_555
Ge11 O35 1.982169 1_555
Ge11 O70 1.991023 1_555
Ge11 O33 2.227418 1_555
O0 Si0 1.612484 1_555
O1 S0 1.466378 1_555
O2 Si1 1.609686 1_655
O3 Si2 1.630228 1_555
O4 S1 1.501629 1_655
O5 Si3 1.651776 1_555
O6 Si3 1.610511 1_565
O7 Si2 1.625380 1_555
O8 S1 1.472365 1_555
O9 S0 1.512653 1_555
O10 Si1 1.666221 1_555
O11 Si0 1.638876 1_565
O12 S2 1.484760 1_555
O13 S3 1.512501 1_555
O14 Si4 1.643789 1_555
O15 Si5 1.620799 1_555
O16 S4 1.473016 1_555
O17 S5 1.458563 1_555
O18 S5 1.516650 1_555
O19 Si5 1.654616 1_555
O20 S4 1.500327 1_555
O21 S3 1.462462 1_555
O22 Si4 1.625196 1_555
O23 S2 1.485045 1_555
O24 S6 1.490755 1_555
O25 S7 1.512224 1_555
O26 Si6 1.636529 1_555
O27 Si7 1.635222 1_555
O28 S8 1.499459 1_555
O29 Si8 1.646650 1_555
O30 Si8 1.618597 1_555
O31 Si7 1.626643 1_555
O32 S8 1.462800 1_555
O33 S7 1.461944 1_555
O34 Si6 1.623007 1_555
O35 S6 1.489091 1_555
O36 Si8 1.621639 1_555
O37 Si7 1.622740 1_555
O38 S8 1.481686 1_555
O39 S7 1.490432 1_555
O40 Si6 1.648874 1_555
O41 S6 1.473039 1_555
O42 S2 1.512356 1_555
O43 S3 1.485184 1_555
O44 Si4 1.662084 1_555
O45 Si5 1.647962 1_555
O46 S4 1.463984 1_555
O47 S5 1.472041 1_555
O48 Si3 1.632997 1_555
O49 Si2 1.625674 1_555
O50 S1 1.473879 1_655
O51 S0 1.496710 1_555
O52 Si1 1.645173 1_655
O53 Si0 1.649552 1_555
O54 S6 1.506649 1_555
O55 S7 1.493389 1_655
O56 Si6 1.660664 1_545
O57 Si7 1.647752 1_545
O58 S8 1.489215 1_555
O59 Si8 1.635291 1_655
O60 S5 1.512563 1_555
O61 Si5 1.662362 1_455
O62 S4 1.513200 1_565
O63 S3 1.491588 1_565
O64 Si4 1.655498 1_555
O65 S2 1.470914 1_455
O66 Si0 1.623630 1_565
O67 S0 1.451577 1_555
O68 Si1 1.633422 1_555
O69 Si2 1.639430 1_555
O70 S1 1.486043 1_555
O71 Si3 1.634858 1_565
