# generated using pymatgen
data_Ba2Mg(VS3)2
_symmetry_space_group_name_H-M   'P 1'
_cell_length_a   6.08248573
_cell_length_b   8.17481215
_cell_length_c   6.83069883
_cell_angle_alpha   125.25512929
_cell_angle_beta   83.47032471
_cell_angle_gamma   109.14647057
_symmetry_Int_Tables_number   1
_chemical_formula_structural   Ba2Mg(VS3)2
_chemical_formula_sum   'Ba2 Mg1 V2 S6'
_cell_volume   260.74654100
_cell_formula_units_Z   1
loop_
 _symmetry_equiv_pos_site_id
 _symmetry_equiv_pos_as_xyz
  1  'x, y, z'
loop_
 _atom_site_type_symbol
 _atom_site_label
 _atom_site_symmetry_multiplicity
 _atom_site_fract_x
 _atom_site_fract_y
 _atom_site_fract_z
 _atom_site_occupancy
  Ba  Ba0  1  0.82808418  0.23867413  0.64457040  1
  Ba  Ba1  1  0.19811295  0.75361875  0.36921723  1
  Mg  Mg0  1  0.48519492  0.56813423  0.68250015  1
  V  V0  1  0.51238466  0.02608722  0.02364651  1
  V  V1  1  0.02015153  0.01716468  0.01413494  1
  S  S0  1  0.67123405  0.82237685  0.11558014  1
  S  S1  1  0.15504475  0.70780769  0.83761936  1
  S  S2  1  0.35067603  0.17325657  0.88421565  1
  S  S3  1  0.30156863  0.17995792  0.38477952  1
  S  S4  1  0.86732280  0.30246283  0.20494110  1
  S  S5  1  0.74117749  0.84934814  0.65360999  1
loop_
_geom_bond_atom_site_label_1
_geom_bond_atom_site_label_2
_geom_bond_distance
_geom_bond_site_symmetry_2
Ba0 S5 3.086821 1_545
Ba0 S0 3.163295 1_545
Ba0 S1 3.187002 1_655
Ba0 S2 3.210707 1_555
Ba0 S3 3.230285 1_655
Ba0 S4 3.303009 1_555
Ba0 S4 3.578019 1_556
Ba0 S3 3.596727 1_555
Ba1 S2 3.118812 1_565
Ba1 S4 3.126943 1_455
Ba1 S0 3.244725 1_555
Ba1 S5 3.248759 1_455
Ba1 S3 3.271554 1_565
Ba1 S1 3.402064 1_555
Ba1 S1 3.460706 1_554
Ba1 S5 3.647721 1_555
Mg0 S5 2.419487 1_555
Mg0 S1 2.466269 1_555
Mg0 S3 2.488890 1_555
Mg0 S0 2.544020 1_556
S0 V1 2.498479 1_665
S0 V0 2.549864 1_565
S1 V1 2.477596 1_566
S1 V0 2.492049 1_566
S2 V0 2.373608 1_556
S2 V1 2.382490 1_556
S3 V0 2.463347 1_555
S3 V1 2.590862 1_555
S4 V0 2.340397 1_555
S4 V1 2.374799 1_655
S5 V1 2.519752 1_666
S5 V0 2.591509 1_566
