# generated using pymatgen
data_NbSeBr3
_symmetry_space_group_name_H-M   'P 1'
_cell_length_a   7.13577591
_cell_length_b   6.85515167
_cell_length_c   12.70778369
_cell_angle_alpha   81.61717836
_cell_angle_beta   90.00000000
_cell_angle_gamma   90.00000000
_symmetry_Int_Tables_number   1
_chemical_formula_structural   NbSeBr3
_chemical_formula_sum   'Nb4 Se4 Br12'
_cell_volume   614.98306396
_cell_formula_units_Z   4
loop_
 _symmetry_equiv_pos_site_id
 _symmetry_equiv_pos_as_xyz
  1  'x, y, z'
loop_
 _atom_site_type_symbol
 _atom_site_label
 _atom_site_symmetry_multiplicity
 _atom_site_fract_x
 _atom_site_fract_y
 _atom_site_fract_z
 _atom_site_occupancy
  Nb  Nb0  1  0.63427847  0.07028724  0.84966176  1
  Nb  Nb1  1  0.63427847  0.92971276  0.65033824  1
  Nb  Nb2  1  0.36572153  0.92971276  0.15033824  1
  Nb  Nb3  1  0.36572153  0.07028724  0.34966176  1
  Se  Se0  1  0.10073476  0.15664768  0.20167853  1
  Se  Se1  1  0.89926524  0.15664768  0.70167853  1
  Se  Se2  1  0.89926524  0.84335232  0.79832147  1
  Se  Se3  1  0.10073476  0.84335232  0.29832147  1
  Br  Br0  1  0.77578031  0.36344944  0.92151192  1
  Br  Br1  1  0.77578031  0.63655056  0.57848808  1
  Br  Br2  1  0.22421969  0.63655056  0.07848808  1
  Br  Br3  1  0.22421969  0.36344944  0.42151192  1
  Br  Br4  1  0.43075842  0.24561930  0.69499943  1
  Br  Br5  1  0.43075842  0.75438070  0.80500057  1
  Br  Br6  1  0.56924158  0.75438070  0.30500057  1
  Br  Br7  1  0.56924158  0.24561930  0.19499943  1
  Br  Br8  1  0.31425008  0.14751110  0.95997823  1
  Br  Br9  1  0.68574992  0.14751110  0.45997823  1
  Br  Br10  1  0.68574992  0.85248890  0.04002177  1
  Br  Br11  1  0.31425008  0.85248890  0.54002177  1
loop_
_geom_bond_atom_site_label_1
_geom_bond_atom_site_label_2
_geom_bond_distance
_geom_bond_site_symmetry_2
Nb0 Se2 2.591748 1_545
Nb0 Se1 2.671656 1_555
Nb1 Se1 2.591748 1_565
Nb1 Se2 2.671656 1_555
Nb2 Se0 2.591748 1_565
Nb2 Se3 2.671656 1_555
Nb3 Se3 2.591748 1_545
Nb3 Se0 2.671656 1_555
Se0 Se3 2.313391 1_545
Se1 Se2 2.313391 1_545
Br0 Nb0 2.535156 1_555
Br1 Nb1 2.535156 1_555
Br2 Nb2 2.535156 1_555
Br3 Nb3 2.535156 1_555
Br4 Nb0 2.593802 1_555
Br4 Nb1 2.734837 1_545
Br5 Nb1 2.593802 1_555
Br5 Nb0 2.734837 1_565
Br6 Nb2 2.593802 1_555
Br6 Nb3 2.734837 1_565
Br7 Nb3 2.593802 1_555
Br7 Nb2 2.734837 1_545
Br8 Nb2 2.676342 1_546
Br8 Nb0 2.770731 1_555
Br9 Nb1 2.676342 1_545
Br9 Nb3 2.770731 1_555
Br10 Nb0 2.676342 1_564
Br10 Nb2 2.770731 1_555
Br11 Nb3 2.676342 1_565
Br11 Nb1 2.770731 1_555
