# generated using pymatgen
data_Li2ZnBr4
_symmetry_space_group_name_H-M   'P 1'
_cell_length_a   6.44255851
_cell_length_b   7.85233795
_cell_length_c   13.55727124
_cell_angle_alpha   90.00000000
_cell_angle_beta   90.00000000
_cell_angle_gamma   90.00000000
_symmetry_Int_Tables_number   1
_chemical_formula_structural   Li2ZnBr4
_chemical_formula_sum   'Li8 Zn4 Br16'
_cell_volume   685.85078338
_cell_formula_units_Z   4
loop_
 _symmetry_equiv_pos_site_id
 _symmetry_equiv_pos_as_xyz
  1  'x, y, z'
loop_
 _atom_site_type_symbol
 _atom_site_label
 _atom_site_symmetry_multiplicity
 _atom_site_fract_x
 _atom_site_fract_y
 _atom_site_fract_z
 _atom_site_occupancy
  Li  Li0  1  -0.00000000  0.00000000  -0.00000000  1
  Li  Li1  1  0.50000000  0.00000000  0.50000000  1
  Li  Li2  1  -0.00000000  0.50000000  -0.00000000  1
  Li  Li3  1  0.50000000  0.50000000  0.50000000  1
  Li  Li4  1  0.99609752  0.75000000  0.26509557  1
  Li  Li5  1  0.49609752  0.25000000  0.23490443  1
  Li  Li6  1  0.00390248  0.25000000  0.73490443  1
  Li  Li7  1  0.50390248  0.75000000  0.76509557  1
  Zn  Zn0  1  0.58978841  0.75000000  0.08746599  1
  Zn  Zn1  1  0.08978841  0.25000000  0.41253401  1
  Zn  Zn2  1  0.41021159  0.25000000  0.91253401  1
  Zn  Zn3  1  0.91021159  0.75000000  0.58746599  1
  Br  Br0  1  0.21990851  0.75000000  0.08925903  1
  Br  Br1  1  0.71990851  0.25000000  0.41074097  1
  Br  Br2  1  0.78009149  0.25000000  0.91074097  1
  Br  Br3  1  0.28009149  0.75000000  0.58925903  1
  Br  Br4  1  0.75005687  0.75000000  0.42477478  1
  Br  Br5  1  0.25005687  0.25000000  0.07522522  1
  Br  Br6  1  0.24994313  0.25000000  0.57522522  1
  Br  Br7  1  0.74994313  0.75000000  0.92477478  1
  Br  Br8  1  0.75031149  0.99329176  0.16683333  1
  Br  Br9  1  0.25031149  0.00670824  0.33316667  1
  Br  Br10  1  0.24968851  0.49329176  0.83316667  1
  Br  Br11  1  0.74968851  0.50670824  0.66683333  1
  Br  Br12  1  0.24968851  0.00670824  0.83316667  1
  Br  Br13  1  0.74968851  0.99329176  0.66683333  1
  Br  Br14  1  0.75031149  0.50670824  0.16683333  1
  Br  Br15  1  0.25031149  0.49329176  0.33316667  1
loop_
_geom_bond_atom_site_label_1
_geom_bond_atom_site_label_2
_geom_bond_distance
_geom_bond_site_symmetry_2
Br0 Zn0 2.383097 1_555
Br0 Li0 2.706531 1_565
Br0 Li2 2.706531 1_555
Br0 Li4 2.786023 1_455
Br1 Zn1 2.383097 1_655
Br1 Li3 2.706531 1_555
Br1 Li1 2.706531 1_555
Br1 Li5 2.786023 1_555
Br2 Zn2 2.383097 1_555
Br2 Li2 2.706531 1_656
Br2 Li0 2.706531 1_656
Br2 Li6 2.786023 1_655
Br3 Zn3 2.383097 1_455
Br3 Li1 2.706531 1_565
Br3 Li3 2.706531 1_555
Br3 Li7 2.786023 1_555
Br4 Zn3 2.435059 1_555
Br4 Li4 2.683107 1_555
Br4 Li1 2.736628 1_565
Br4 Li3 2.736628 1_555
Br5 Zn2 2.435059 1_554
Br5 Li5 2.683107 1_555
Br5 Li2 2.736628 1_555
Br5 Li0 2.736628 1_555
Br6 Zn1 2.435059 1_555
Br6 Li6 2.683107 1_555
Br6 Li3 2.736628 1_555
Br6 Li1 2.736628 1_555
Br7 Zn0 2.435059 1_556
Br7 Li7 2.683107 1_555
Br7 Li2 2.736628 1_656
Br7 Li0 2.736628 1_666
Br8 Zn0 2.424247 1_555
Br8 Li5 2.756321 1_565
Br8 Li0 2.776011 1_665
Br8 Li4 2.816341 1_555
Br9 Zn1 2.424247 1_555
Br9 Li4 2.756321 1_445
Br9 Li1 2.776011 1_555
Br9 Li5 2.816341 1_555
Br10 Zn2 2.424247 1_555
Br10 Li7 2.756321 1_555
Br10 Li2 2.776011 1_556
Br10 Li6 2.816341 1_555
Br11 Zn3 2.424247 1_555
Br11 Li6 2.756321 1_655
Br11 Li3 2.776011 1_555
Br11 Li7 2.816341 1_555
Br12 Zn2 2.424247 1_555
Br12 Li7 2.756321 1_545
Br12 Li0 2.776011 1_556
Br12 Li6 2.816341 1_555
Br13 Zn3 2.424247 1_555
Br13 Li6 2.756321 1_665
Br13 Li1 2.776011 1_565
Br13 Li7 2.816341 1_555
Br14 Zn0 2.424247 1_555
Br14 Li5 2.756321 1_555
Br14 Li2 2.776011 1_655
Br14 Li4 2.816341 1_555
Br15 Zn1 2.424247 1_555
Br15 Li4 2.756321 1_455
Br15 Li3 2.776011 1_555
Br15 Li5 2.816341 1_555
