# generated using pymatgen
data_NaHfMgP(SO6)2
_symmetry_space_group_name_H-M   'P 1'
_cell_length_a   8.75478690
_cell_length_b   8.74656863
_cell_length_c   23.05066250
_cell_angle_alpha   90.04053256
_cell_angle_beta   90.00000000
_cell_angle_gamma   120.03108656
_symmetry_Int_Tables_number   1
_chemical_formula_structural   NaHfMgP(SO6)2
_chemical_formula_sum   'Na6 Hf6 Mg6 P6 S12 O72'
_cell_volume   1528.13266365
_cell_formula_units_Z   6
loop_
 _symmetry_equiv_pos_site_id
 _symmetry_equiv_pos_as_xyz
  1  'x, y, z'
loop_
 _atom_site_type_symbol
 _atom_site_label
 _atom_site_symmetry_multiplicity
 _atom_site_fract_x
 _atom_site_fract_y
 _atom_site_fract_z
 _atom_site_occupancy
  Na  Na0  1  0.98864178  0.99171290  0.50430573  1
  Na  Na1  1  0.00307113  0.99171290  0.00430573  1
  Na  Na2  1  0.66110737  0.32170956  0.83769351  1
  Na  Na3  1  0.66060319  0.32170956  0.33769351  1
  Na  Na4  1  0.32745400  0.67207701  0.17109431  1
  Na  Na5  1  0.34462201  0.67207701  0.67109431  1
  Hf  Hf0  1  0.00294320  0.00037610  0.35279713  1
  Hf  Hf1  1  0.99743290  0.00037610  0.85279713  1
  Hf  Hf2  1  0.66633403  0.33337563  0.68617115  1
  Hf  Hf3  1  0.66704260  0.33337563  0.18617115  1
  Hf  Hf4  1  0.32377415  0.67329206  0.01961024  1
  Hf  Hf5  1  0.34951691  0.67329206  0.51961024  1
  Mg  Mg0  1  0.98511929  0.99143383  0.64790039  1
  Mg  Mg1  1  0.00631454  0.99143383  0.14790039  1
  Mg  Mg2  1  0.66590218  0.33444958  0.98147925  1
  Mg  Mg3  1  0.66854839  0.33444958  0.48147925  1
  Mg  Mg4  1  0.33820771  0.68172670  0.31478165  1
  Mg  Mg5  1  0.34351799  0.68172670  0.81478165  1
  P  P0  1  0.28886429  0.99488498  0.24821186  1
  P  P1  1  0.70602069  0.99488498  0.74821186  1
  P  P2  1  0.67451690  0.62492053  0.58135250  1
  P  P3  1  0.95040463  0.62492053  0.08135250  1
  P  P4  1  0.33955297  0.96452000  0.91443135  1
  P  P5  1  0.62496603  0.96452000  0.41443135  1
  S  S0  1  0.70634226  0.71136365  0.24881177  1
  S  S1  1  0.00544368  0.29262073  0.24866850  1
  S  S2  1  0.28717705  0.29262073  0.74866850  1
  S  S3  1  0.00502140  0.71136365  0.74881177  1
  S  S4  1  0.95742769  0.33105998  0.58196029  1
  S  S5  1  0.37177826  0.04486945  0.58234398  1
  S  S6  1  0.67309219  0.04486945  0.08234398  1
  S  S7  1  0.37363329  0.33105998  0.08196029  1
  S  S8  1  0.61993136  0.66120919  0.91593887  1
  S  S9  1  0.04168368  0.37930387  0.91507841  1
  S  S10  1  0.33761918  0.37930387  0.41507841  1
  S  S11  1  0.04127683  0.66120919  0.41593887  1
  O  O0  1  0.20379007  0.02779100  0.30401753  1
  O  O1  1  0.81805987  0.79095161  0.30197944  1
  O  O2  1  0.97153550  0.18057572  0.30204132  1
  O  O3  1  0.20904022  0.18057572  0.80204132  1
  O  O4  1  0.97289174  0.79095161  0.80197944  1
  O  O5  1  0.82400093  0.02779100  0.80401753  1
  O  O6  1  0.79602528  0.97569455  0.69558484  1
  O  O7  1  0.18422072  0.20827075  0.69696420  1
  O  O8  1  0.02973952  0.81783021  0.69747655  1
  O  O9  1  0.78809069  0.81783021  0.19747655  1
  O  O10  1  0.02405003  0.20827075  0.19696420  1
  O  O11  1  0.17966927  0.97569455  0.19558484  1
  O  O12  1  0.87578245  0.36056020  0.63536309  1
  O  O13  1  0.48502865  0.12243125  0.63551276  1
  O  O14  1  0.64044791  0.50809770  0.63714266  1
  O  O15  1  0.86765080  0.50809770  0.13714266  1
  O  O16  1  0.63740360  0.12243125  0.13551276  1
  O  O17  1  0.48477876  0.36056020  0.13536309  1
  O  O18  1  0.45561150  0.30542252  0.03088279  1
  O  O19  1  0.84363848  0.53480896  0.02809313  1
  O  O20  1  0.69300180  0.14853094  0.03079079  1
  O  O21  1  0.45553014  0.14853094  0.53079079  1
  O  O22  1  0.69117147  0.53480896  0.52809313  1
  O  O23  1  0.84981202  0.30542252  0.53088279  1
  O  O24  1  0.54113388  0.69277973  0.96903659  1
  O  O25  1  0.15333005  0.45708913  0.96853574  1
  O  O26  1  0.30527239  0.84508070  0.97042723  1
  O  O27  1  0.53980731  0.84508070  0.47042723  1
  O  O28  1  0.30375808  0.45708913  0.46853574  1
  O  O29  1  0.15164485  0.69277973  0.46903659  1
  O  O30  1  0.12260185  0.63800782  0.36420557  1
  O  O31  1  0.51411291  0.87375458  0.36231689  1
  O  O32  1  0.35667321  0.48302788  0.36354183  1
  O  O33  1  0.12635367  0.48302788  0.86354183  1
  O  O34  1  0.35964067  0.87375458  0.86231689  1
  O  O35  1  0.51540497  0.63800782  0.86420557  1
  O  O36  1  0.02641113  0.82643481  0.41025145  1
  O  O37  1  0.81087194  0.97740193  0.40899292  1
  O  O38  1  0.17294203  0.19931606  0.41051575  1
  O  O39  1  0.02637402  0.19931606  0.91051575  1
  O  O40  1  0.16652998  0.97740193  0.90899292  1
  O  O41  1  0.80002368  0.82643481  0.91025145  1
  O  O42  1  0.98243509  0.17925414  0.59031142  1
  O  O43  1  0.19793374  0.02467135  0.59147451  1
  O  O44  1  0.83234058  0.80954558  0.58920693  1
  O  O45  1  0.97720500  0.80954558  0.08920693  1
  O  O46  1  0.82673761  0.02467135  0.09147451  1
  O  O47  1  0.19681906  0.17925414  0.09031142  1
  O  O48  1  0.69063262  0.16732726  0.74263189  1
  O  O49  1  0.46713049  0.30826814  0.74381436  1
  O  O50  1  0.83919476  0.53297347  0.74355420  1
  O  O51  1  0.69377971  0.53297347  0.24355420  1
  O  O52  1  0.84113865  0.30826814  0.24381436  1
  O  O53  1  0.47669564  0.16732726  0.24263189  1
  O  O54  1  0.64544975  0.50968881  0.92334486  1
  O  O55  1  0.86641590  0.35642502  0.92328625  1
  O  O56  1  0.49917494  0.14715721  0.92468820  1
  O  O57  1  0.64798327  0.14715721  0.42468820  1
  O  O58  1  0.49001012  0.35642502  0.42328625  1
  O  O59  1  0.86424006  0.50968881  0.42334486  1
  O  O60  1  0.36183662  0.49613961  0.07637769  1
  O  O61  1  0.13923233  0.63928087  0.07696160  1
  O  O62  1  0.50979877  0.86416535  0.07703405  1
  O  O63  1  0.35436558  0.86416535  0.57703405  1
  O  O64  1  0.50004755  0.63928087  0.57696160  1
  O  O65  1  0.13430199  0.49613961  0.57637769  1
  O  O66  1  0.31195799  0.83459972  0.25623035  1
  O  O67  1  0.52949414  0.68429670  0.25708493  1
  O  O68  1  0.15904757  0.46744295  0.25769478  1
  O  O69  1  0.30839438  0.46744295  0.75769478  1
  O  O70  1  0.15480156  0.68429670  0.75708493  1
  O  O71  1  0.52264073  0.83459972  0.75623035  1
loop_
_geom_bond_atom_site_label_1
_geom_bond_atom_site_label_2
_geom_bond_distance
_geom_bond_site_symmetry_2
Na0 O44 2.462363 1_555
Na0 O42 2.590087 1_565
Na0 O43 2.635945 1_665
Na0 O37 2.658831 1_555
Na0 O36 2.715410 1_655
Na0 O38 2.765405 1_665
Na1 O45 2.462363 1_455
Na1 O47 2.590087 1_565
Na1 O46 2.635945 1_465
Na1 O40 2.658831 1_554
Na1 O41 2.715410 1_454
Na1 O39 2.765405 1_564
Na2 O56 2.489937 1_555
Na2 O55 2.582331 1_555
Na2 O54 2.615538 1_555
Na2 O48 2.652706 1_555
Na2 O49 2.716687 1_555
Na2 O50 2.770577 1_555
Na3 O57 2.489937 1_555
Na3 O58 2.582331 1_555
Na3 O59 2.615538 1_555
Na3 O53 2.652706 1_555
Na3 O52 2.716687 1_555
Na3 O51 2.770577 1_555
Na4 O66 2.465639 1_555
Na4 O68 2.593414 1_555
Na4 O67 2.622879 1_555
Na4 O61 2.651749 1_555
Na4 O62 2.718941 1_555
Na4 O60 2.772052 1_555
Na5 O71 2.465639 1_555
Na5 O69 2.593414 1_555
Na5 O70 2.622879 1_555
Na5 O64 2.651749 1_555
Na5 O63 2.718941 1_555
Na5 O65 2.772052 1_555
Hf0 O0 1.997999 1_555
Hf0 O37 2.051353 1_445
Hf0 O2 2.089254 1_455
Hf0 O1 2.092039 1_445
Hf0 O38 2.101780 1_555
Hf0 O36 2.103923 1_545
Hf1 O5 1.997999 1_555
Hf1 O40 2.051353 1_645
Hf1 O3 2.089254 1_655
Hf1 O4 2.092039 1_545
Hf1 O39 2.101780 1_655
Hf1 O41 2.103923 1_545
Hf2 O14 2.003280 1_555
Hf2 O48 2.039681 1_555
Hf2 O13 2.086335 1_555
Hf2 O12 2.086745 1_555
Hf2 O50 2.107101 1_555
Hf2 O49 2.114771 1_555
Hf3 O15 2.003280 1_555
Hf3 O53 2.039681 1_555
Hf3 O16 2.086335 1_555
Hf3 O17 2.086745 1_555
Hf3 O51 2.107101 1_555
Hf3 O52 2.114771 1_555
Hf4 O26 1.953261 1_554
Hf4 O61 1.991450 1_555
Hf4 O25 2.088326 1_554
Hf4 O62 2.113526 1_555
Hf4 O24 2.164448 1_554
Hf4 O60 2.178037 1_555
Hf5 O27 1.953261 1_555
Hf5 O64 1.991450 1_555
Hf5 O28 2.088326 1_555
Hf5 O63 2.113526 1_555
Hf5 O29 2.164448 1_555
Hf5 O65 2.178037 1_555
Mg0 O6 1.933858 1_555
Mg0 O44 2.004356 1_555
Mg0 O8 2.088141 1_655
Mg0 O42 2.122069 1_565
Mg0 O7 2.145316 1_665
Mg0 O43 2.169311 1_665
Mg1 O11 1.933858 1_555
Mg1 O45 2.004356 1_455
Mg1 O9 2.088141 1_455
Mg1 O47 2.122069 1_565
Mg1 O10 2.145316 1_565
Mg1 O46 2.169311 1_465
Mg2 O19 1.978575 1_556
Mg2 O56 2.032589 1_555
Mg2 O18 2.069615 1_556
Mg2 O20 2.093189 1_556
Mg2 O54 2.110608 1_555
Mg2 O55 2.140215 1_555
Mg3 O22 1.978575 1_555
Mg3 O57 2.032589 1_555
Mg3 O23 2.069615 1_555
Mg3 O21 2.093189 1_555
Mg3 O59 2.110608 1_555
Mg3 O58 2.140214 1_555
Mg4 O31 1.949776 1_555
Mg4 O66 1.993078 1_555
Mg4 O30 2.070082 1_555
Mg4 O67 2.129825 1_555
Mg4 O32 2.143316 1_555
Mg4 O68 2.181414 1_555
Mg5 O34 1.949776 1_555
Mg5 O71 1.993078 1_555
Mg5 O35 2.070082 1_555
Mg5 O70 2.129825 1_555
Mg5 O33 2.143316 1_555
Mg5 O69 2.181414 1_555
O0 P0 1.583141 1_545
O1 S0 1.503486 1_555
O2 S1 1.507527 1_655
O3 S2 1.507527 1_555
O4 S3 1.503486 1_655
O5 P1 1.583141 1_545
O6 P1 1.500917 1_555
O7 S2 1.452695 1_555
O8 S3 1.453985 1_555
O9 S0 1.453985 1_555
O10 S1 1.452695 1_555
O11 P0 1.500917 1_555
O12 S4 1.508954 1_555
O13 S5 1.506941 1_555
O14 P2 1.575956 1_555
O15 P3 1.575956 1_555
O16 S6 1.506941 1_555
O17 S7 1.508954 1_555
O18 S7 1.453374 1_555
O19 P3 1.504422 1_555
O20 S6 1.451872 1_555
O21 S5 1.451872 1_555
O22 P2 1.504422 1_555
O23 S4 1.453374 1_555
O24 S8 1.496785 1_555
O25 S9 1.506598 1_555
O26 P4 1.592336 1_555
O27 P5 1.592336 1_555
O28 S10 1.506598 1_555
O29 S11 1.496785 1_555
O30 S11 1.454099 1_555
O31 P5 1.497544 1_555
O32 S10 1.453329 1_555
O33 S9 1.453329 1_555
O34 P4 1.497544 1_555
O35 S8 1.454099 1_555
O36 S11 1.520240 1_555
O37 P5 1.579192 1_555
O38 S10 1.515230 1_555
O39 S9 1.515234 1_555
O40 P4 1.579184 1_555
O41 S8 1.520245 1_555
O42 S4 1.462641 1_555
O43 S5 1.456992 1_555
O44 P2 1.521793 1_555
O45 P3 1.521796 1_555
O46 S6 1.456983 1_555
O47 S7 1.462647 1_555
O48 P1 1.585325 1_545
O49 S2 1.515753 1_555
O50 S3 1.513036 1_655
O51 S0 1.513040 1_555
O52 S1 1.515744 1_655
O53 P0 1.585330 1_545
O54 S8 1.460174 1_555
O55 S9 1.457062 1_655
O56 P4 1.525001 1_545
O57 P5 1.524994 1_545
O58 S10 1.457079 1_555
O59 S11 1.460163 1_655
O60 S7 1.503841 1_555
O61 P3 1.597215 1_455
O62 S6 1.514895 1_565
O63 S5 1.514888 1_565
O64 P2 1.597232 1_555
O65 S4 1.503832 1_455
O66 P0 1.524654 1_555
O67 S0 1.456957 1_555
O68 S1 1.459850 1_555
O69 S2 1.459854 1_555
O70 S3 1.456949 1_555
O71 P1 1.524660 1_555
