# generated using pymatgen
data_Na6MgZr3Si4(SO12)2
_symmetry_space_group_name_H-M   'P 1'
_cell_length_a   9.17235190
_cell_length_b   9.16350675
_cell_length_c   23.02389743
_cell_angle_alpha   90.06814763
_cell_angle_beta   90.07797656
_cell_angle_gamma   119.96222130
_symmetry_Int_Tables_number   1
_chemical_formula_structural   Na6MgZr3Si4(SO12)2
_chemical_formula_sum   'Na18 Mg3 Zr9 Si12 S6 O72'
_cell_volume   1676.54678003
_cell_formula_units_Z   3
loop_
 _symmetry_equiv_pos_site_id
 _symmetry_equiv_pos_as_xyz
  1  'x, y, z'
loop_
 _atom_site_type_symbol
 _atom_site_label
 _atom_site_symmetry_multiplicity
 _atom_site_fract_x
 _atom_site_fract_y
 _atom_site_fract_z
 _atom_site_occupancy
  Na  Na0  1  0.99191174  0.35316591  0.75295189  1
  Na  Na1  1  0.38736943  0.01914067  0.74896716  1
  Na  Na2  1  0.31897049  0.33520286  0.58500974  1
  Na  Na3  1  0.03103539  0.70538867  0.57833083  1
  Na  Na4  1  0.65561310  0.96140356  0.58728601  1
  Na  Na5  1  0.31373741  0.97674112  0.08374361  1
  Na  Na6  1  0.65985696  0.68548155  0.08586412  1
  Na  Na7  1  0.02556171  0.33661883  0.08430998  1
  Na  Na8  1  0.33181538  0.29504722  0.92125708  1
  Na  Na9  1  0.96772855  0.29368233  0.41193810  1
  Na  Na10  1  0.32292279  0.02956093  0.41424303  1
  Na  Na11  1  0.70926585  0.67816734  0.41415228  1
  Na  Na12  1  0.00117315  0.99292938  0.49160960  1
  Na  Na13  1  0.00095828  0.99768828  0.99888020  1
  Na  Na14  1  0.66454633  0.32247098  0.83228209  1
  Na  Na15  1  0.66791580  0.33366764  0.32735023  1
  Na  Na16  1  0.33454604  0.66620613  0.16558108  1
  Na  Na17  1  0.35925929  0.67276915  0.66897395  1
  Mg  Mg0  1  0.00029652  0.99874786  0.35354178  1
  Mg  Mg1  1  0.64023161  0.32385640  0.68627477  1
  Mg  Mg2  1  0.66616681  0.33310752  0.17711916  1
  Zr  Zr0  1  0.00524535  0.01620408  0.85318810  1
  Zr  Zr1  1  0.99592387  0.99846490  0.65065220  1
  Zr  Zr2  1  0.00257290  0.00104422  0.14625035  1
  Zr  Zr3  1  0.67318251  0.32246699  0.98378140  1
  Zr  Zr4  1  0.65509450  0.33693954  0.47917325  1
  Zr  Zr5  1  0.32087852  0.66701442  0.01988833  1
  Zr  Zr6  1  0.34443016  0.67541390  0.51426866  1
  Zr  Zr7  1  0.33289700  0.66749538  0.31661139  1
  Zr  Zr8  1  0.33952543  0.67110194  0.81585424  1
  Si  Si0  1  0.30017759  0.29989683  0.74946010  1
  Si  Si1  1  0.70357350  0.00377607  0.74888716  1
  Si  Si2  1  0.37296905  0.03757406  0.58559328  1
  Si  Si3  1  0.66669927  0.62396746  0.58572545  1
  Si  Si4  1  0.95084913  0.61844873  0.08604155  1
  Si  Si5  1  0.66444031  0.04018985  0.08748692  1
  Si  Si6  1  0.38136203  0.33707683  0.08433403  1
  Si  Si7  1  0.03623133  0.37758494  0.91559477  1
  Si  Si8  1  0.33301002  0.96366830  0.91597266  1
  Si  Si9  1  0.63322292  0.96392803  0.41492256  1
  Si  Si10  1  0.32665437  0.37074519  0.41605846  1
  Si  Si11  1  0.03905520  0.66702380  0.41656732  1
  S  S0  1  0.29544474  0.00337420  0.25172390  1
  S  S1  1  0.70831548  0.70511332  0.25145967  1
  S  S2  1  0.99663856  0.29197118  0.25167756  1
  S  S3  1  0.99596840  0.70333079  0.75001290  1
  S  S4  1  0.95688280  0.33429681  0.58511809  1
  S  S5  1  0.62777566  0.66738421  0.91738877  1
  O  O0  1  0.20878274  0.01825626  0.30361995  1
  O  O1  1  0.80972138  0.79167242  0.30357885  1
  O  O2  1  0.98202578  0.19071150  0.30365575  1
  O  O3  1  0.20057269  0.17516107  0.80539074  1
  O  O4  1  0.97475081  0.78751380  0.80127143  1
  O  O5  1  0.82725330  0.02090865  0.80318833  1
  O  O6  1  0.79050758  0.97166218  0.69048527  1
  O  O7  1  0.17425029  0.20608783  0.69250055  1
  O  O8  1  0.02742970  0.81251225  0.69673483  1
  O  O9  1  0.79107837  0.81162462  0.19818950  1
  O  O10  1  0.02035415  0.20882337  0.19833980  1
  O  O11  1  0.18873574  0.97936214  0.19831862  1
  O  O12  1  0.88127260  0.35949974  0.63669377  1
  O  O13  1  0.49228118  0.11483161  0.64108234  1
  O  O14  1  0.63858810  0.50241688  0.63866992  1
  O  O15  1  0.87733326  0.50000179  0.14088228  1
  O  O16  1  0.62061896  0.11907258  0.14111568  1
  O  O17  1  0.49979585  0.37574698  0.13917411  1
  O  O18  1  0.45286357  0.29599765  0.02436754  1
  O  O19  1  0.83309954  0.54208901  0.02764729  1
  O  O20  1  0.70960864  0.16029578  0.02900908  1
  O  O21  1  0.45841585  0.15528267  0.52704046  1
  O  O22  1  0.70279807  0.54670767  0.52544988  1
  O  O23  1  0.85415890  0.30655139  0.53143268  1
  O  O24  1  0.55174903  0.69344139  0.97001905  1
  O  O25  1  0.15968759  0.45971190  0.97219523  1
  O  O26  1  0.31266240  0.85016861  0.97325105  1
  O  O27  1  0.54742591  0.84678880  0.47368561  1
  O  O28  1  0.29836695  0.45515033  0.47519526  1
  O  O29  1  0.15458867  0.69607708  0.47521801  1
  O  O30  1  0.13311473  0.63087836  0.36228138  1
  O  O31  1  0.49865300  0.87020331  0.36190737  1
  O  O32  1  0.36831823  0.50305633  0.36237079  1
  O  O33  1  0.13378850  0.48843846  0.85775531  1
  O  O34  1  0.35767193  0.87109495  0.85849142  1
  O  O35  1  0.51785686  0.64252134  0.86556976  1
  O  O36  1  0.02063872  0.83210953  0.40935973  1
  O  O37  1  0.81505160  0.97967535  0.40850023  1
  O  O38  1  0.16489887  0.18609628  0.40888702  1
  O  O39  1  0.02602010  0.19163963  0.91088778  1
  O  O40  1  0.16236822  0.97917658  0.91020178  1
  O  O41  1  0.79590198  0.81599356  0.90953300  1
  O  O42  1  0.97598008  0.17941645  0.58879061  1
  O  O43  1  0.18425077  0.02054172  0.59002336  1
  O  O44  1  0.83406195  0.81660214  0.58903601  1
  O  O45  1  0.97913833  0.81268988  0.09304782  1
  O  O46  1  0.83438993  0.01960067  0.09370758  1
  O  O47  1  0.18805885  0.16749981  0.09260959  1
  O  O48  1  0.70025255  0.17816521  0.74461393  1
  O  O49  1  0.47705866  0.30585059  0.74718197  1
  O  O50  1  0.85453488  0.53473135  0.74239628  1
  O  O51  1  0.69000151  0.53754486  0.24587248  1
  O  O52  1  0.84749231  0.31007758  0.24607541  1
  O  O53  1  0.46239035  0.15246447  0.24623537  1
  O  O54  1  0.63579194  0.51108182  0.92101043  1
  O  O55  1  0.85234293  0.36009497  0.92039605  1
  O  O56  1  0.49331801  0.15551877  0.92022822  1
  O  O57  1  0.64761896  0.14812084  0.42360842  1
  O  O58  1  0.50066104  0.35916708  0.42112300  1
  O  O59  1  0.85639179  0.49344465  0.42303405  1
  O  O60  1  0.35161878  0.49917576  0.07523488  1
  O  O61  1  0.14487450  0.65025643  0.07688137  1
  O  O62  1  0.50635205  0.84893272  0.07545190  1
  O  O63  1  0.34268210  0.84446197  0.57771130  1
  O  O64  1  0.49697425  0.64394067  0.57847836  1
  O  O65  1  0.12951147  0.48390954  0.57856617  1
  O  O66  1  0.30713282  0.84459276  0.25482112  1
  O  O67  1  0.53764146  0.69287703  0.25487012  1
  O  O68  1  0.15524379  0.46246958  0.25498301  1
  O  O69  1  0.29888540  0.47824635  0.75511701  1
  O  O70  1  0.15579714  0.69472389  0.75456851  1
  O  O71  1  0.51322183  0.83891453  0.75448349  1
loop_
_geom_bond_atom_site_label_1
_geom_bond_atom_site_label_2
_geom_bond_distance
_geom_bond_site_symmetry_2
Na0 O48 2.340494 1_555
Na0 O69 2.453593 1_655
Na0 O50 2.551312 1_555
Na0 O70 2.712416 1_655
Na0 O33 2.724994 1_655
Na0 O12 2.872254 1_555
Na0 O5 2.882486 1_555
Na0 O7 2.967180 1_655
Na1 O49 2.328619 1_555
Na1 O71 2.445507 1_545
Na1 O48 2.488691 1_555
Na1 O13 2.652102 1_555
Na1 O70 2.657114 1_545
Na1 O34 2.813246 1_545
Na2 O64 2.465787 1_555
Na2 O43 2.509284 1_555
Na2 O65 2.695162 1_555
Na2 O42 2.730940 1_455
Na2 O7 2.781002 1_555
Na2 O28 2.801643 1_555
Na2 O14 2.822671 1_555
Na2 O21 2.870764 1_555
Na3 O63 2.481313 1_555
Na3 O44 2.490635 1_455
Na3 O43 2.516093 1_565
Na3 O65 2.601150 1_555
Na3 O29 2.651637 1_555
Na3 O22 2.876471 1_455
Na3 O8 2.902195 1_555
Na4 O63 2.522108 1_555
Na4 O64 2.528000 1_555
Na4 O44 2.571122 1_555
Na4 O42 2.600567 1_565
Na4 O6 2.657187 1_555
Na4 O13 2.803570 1_565
Na4 O27 2.806089 1_555
Na5 O47 2.537452 1_565
Na5 O62 2.568383 1_555
Na5 O61 2.596955 1_555
Na5 O45 2.668153 1_455
Na5 O16 2.772706 1_565
Na5 O26 2.792600 1_554
Na5 O11 2.882640 1_555
Na5 O18 2.888112 1_565
Na6 O60 2.478670 1_555
Na6 O62 2.527788 1_555
Na6 O45 2.559491 1_555
Na6 O46 2.659235 1_565
Na6 O17 2.751116 1_555
Na6 O9 2.840390 1_555
Na6 O19 2.852262 1_555
Na6 O24 2.857987 1_554
Na7 O61 2.519308 1_555
Na7 O46 2.544606 1_455
Na7 O60 2.599900 1_555
Na7 O47 2.639472 1_555
Na7 O15 2.796419 1_455
Na7 O20 2.817499 1_455
Na7 O25 2.842270 1_554
Na7 O10 2.866743 1_555
Na8 O56 2.391988 1_555
Na8 O39 2.482942 1_555
Na8 O54 2.485906 1_555
Na8 O40 2.522314 1_545
Na8 O18 2.617604 1_556
Na8 O3 2.904469 1_555
Na8 O25 2.919812 1_555
Na9 O38 2.455339 1_655
Na9 O37 2.494211 1_545
Na9 O59 2.515115 1_555
Na9 O57 2.561924 1_555
Na9 O2 2.691074 1_555
Na9 O30 2.913242 1_655
Na9 O23 2.966151 1_555
Na9 O28 3.001433 1_655
Na10 O36 2.441659 1_545
Na10 O38 2.500065 1_555
Na10 O57 2.619623 1_555
Na10 O58 2.623962 1_555
Na10 O0 2.734532 1_555
Na10 O21 2.858378 1_555
Na10 O31 2.921407 1_545
Na10 O29 2.999408 1_545
Na11 O37 2.432142 1_555
Na11 O36 2.477085 1_655
Na11 O58 2.578156 1_555
Na11 O59 2.647633 1_555
Na11 O1 2.732671 1_555
Na11 O22 2.820897 1_555
Na11 O32 2.957879 1_555
Na11 O27 2.959987 1_555
Na12 O36 2.459032 1_555
Na12 O37 2.524703 1_455
Na12 O38 2.525185 1_565
Na12 O44 2.745181 1_455
Na12 O43 2.753532 1_565
Na12 O42 2.892532 1_465
Na13 O40 2.578289 1_555
Na13 O39 2.630148 1_565
Na13 O45 2.699182 1_456
Na13 O47 2.708891 1_566
Na13 O41 2.719336 1_455
Na13 O46 2.730533 1_466
Na14 O48 2.521526 1_555
Na14 O56 2.554066 1_555
Na14 O49 2.558921 1_555
Na14 O55 2.568532 1_555
Na14 O54 2.770997 1_555
Na14 O50 2.781488 1_555
Na15 O52 2.573810 1_555
Na15 O53 2.579762 1_555
Na15 O51 2.584917 1_555
Na15 O58 2.726782 1_555
Na15 O59 2.727505 1_555
Na15 O57 2.744297 1_555
Na16 O60 2.631889 1_555
Na16 O61 2.637102 1_555
Na16 O62 2.640964 1_555
Na16 O67 2.699971 1_555
Na16 O66 2.713091 1_555
Na16 O68 2.716364 1_555
Na17 O71 2.454788 1_555
Na17 O64 2.519082 1_555
Na17 O69 2.538327 1_555
Na17 O63 2.675724 1_555
Na17 O70 2.791255 1_555
Na17 O65 2.846990 1_555
Mg0 O37 2.056327 1_455
Mg0 O38 2.061812 1_565
Mg0 O36 2.075265 1_555
Mg0 O1 2.157707 1_455
Mg0 O0 2.162175 1_565
Mg0 O2 2.177230 1_465
Mg1 O14 1.976788 1_555
Mg1 O13 1.997020 1_555
Mg1 O49 1.998344 1_555
Mg1 O48 2.150813 1_555
Mg1 O50 2.336787 1_555
Mg1 O12 2.363134 1_555
Mg2 O15 1.958357 1_555
Mg2 O17 1.958926 1_555
Mg2 O16 1.971078 1_555
Mg2 O51 2.376130 1_555
Mg2 O52 2.382333 1_555
Mg2 O53 2.385350 1_555
O0 S0 1.479390 1_555
O1 S1 1.480550 1_555
O2 S2 1.479862 1_555
O3 Si0 1.662250 1_555
O3 Zr0 1.986232 1_555
O4 S3 1.474507 1_555
O4 Zr0 2.303528 1_665
O5 Si1 1.640862 1_555
O5 Zr0 2.014399 1_655
O6 Si1 1.663384 1_565
O6 Zr1 1.998612 1_555
O7 Si0 1.671635 1_555
O7 Zr1 2.026436 1_445
O8 S3 1.518045 1_455
O8 Zr1 2.146649 1_455
O9 S1 1.516068 1_555
O9 Zr2 2.203179 1_665
O10 S2 1.516572 1_455
O10 Zr2 2.184936 1_555
O11 S0 1.516339 1_565
O11 Zr2 2.173990 1_565
O12 S4 1.451199 1_555
O13 Si2 1.597250 1_555
O14 Si3 1.584377 1_555
O15 Si4 1.581635 1_555
O16 Si5 1.580535 1_555
O17 Si6 1.584485 1_555
O18 Si6 1.651022 1_555
O18 Zr3 2.128830 1_554
O19 Si4 1.643966 1_555
O19 Zr3 2.065016 1_554
O20 Si5 1.656893 1_555
O20 Zr3 1.975606 1_554
O21 Si2 1.660432 1_555
O21 Zr4 2.061604 1_555
O22 Si3 1.664286 1_555
O22 Zr4 2.043361 1_555
O23 S4 1.495671 1_555
O23 Zr4 2.315560 1_555
O24 S5 1.476340 1_555
O24 Zr5 2.314382 1_556
O25 Si7 1.639913 1_555
O25 Zr5 2.045858 1_556
O26 Si8 1.632712 1_555
O26 Zr5 2.026296 1_556
O27 Si9 1.662703 1_555
O27 Zr6 1.973228 1_555
O28 Si10 1.648725 1_555
O28 Zr6 2.050501 1_555
O29 Si11 1.652516 1_555
O29 Zr6 2.049831 1_555
O30 Si11 1.644264 1_555
O30 Zr7 1.992014 1_555
O31 Si9 1.638779 1_555
O31 Zr7 2.004919 1_555
O32 Si10 1.638909 1_555
O32 Zr7 1.994482 1_555
O33 Si7 1.644538 1_555
O33 Zr8 2.036483 1_555
O34 Si8 1.646843 1_555
O34 Zr8 2.010109 1_555
O35 S5 1.502821 1_555
O35 Zr8 2.116105 1_555
O36 Si11 1.612544 1_555
O37 Si9 1.607658 1_555
O38 Si10 1.607060 1_555
O39 Si7 1.662515 1_555
O39 Zr0 2.018362 1_555
O40 Si8 1.645999 1_555
O40 Zr0 2.097526 1_565
O41 S5 1.472753 1_555
O41 Zr0 2.286815 1_665
O42 S4 1.516793 1_555
O42 Zr1 2.262617 1_545
O43 Si2 1.661852 1_555
O43 Zr1 2.152113 1_445
O44 Si3 1.664633 1_555
O44 Zr1 2.123975 1_555
O45 Si4 1.673134 1_555
O45 Zr2 2.036998 1_665
O46 Si5 1.667126 1_555
O46 Zr2 2.032123 1_655
O47 Si6 1.686494 1_555
O47 Zr2 2.040713 1_555
O48 Si1 1.616555 1_555
O49 Si0 1.596804 1_555
O50 S3 1.448230 1_555
O51 S1 1.464376 1_555
O52 S2 1.463537 1_555
O53 S0 1.462387 1_555
O54 S5 1.472834 1_555
O54 Zr3 2.406298 1_555
O55 Si7 1.616589 1_655
O55 Zr3 2.095454 1_555
O56 Si8 1.636911 1_545
O56 Zr3 2.161096 1_555
O57 Si9 1.637919 1_545
O57 Zr4 2.123932 1_555
O58 Si10 1.655565 1_555
O58 Zr4 2.029296 1_555
O59 Si11 1.642748 1_655
O59 Zr4 2.121905 1_555
O60 Si6 1.652294 1_555
O60 Zr5 2.122636 1_555
O61 Si4 1.667242 1_455
O61 Zr5 2.027380 1_555
O62 Si5 1.646296 1_565
O62 Zr5 2.113282 1_555
O63 Si2 1.658192 1_565
O63 Zr6 2.133778 1_555
O64 Si3 1.663990 1_555
O64 Zr6 2.150559 1_555
O65 S4 1.497440 1_455
O65 Zr6 2.390776 1_555
O66 S0 1.513150 1_565
O66 Zr7 2.258543 1_555
O67 S1 1.514759 1_555
O67 Zr7 2.274517 1_555
O68 S2 1.514027 1_455
O68 Zr7 2.264458 1_555
O69 Si0 1.645269 1_555
O69 Zr8 2.133613 1_555
O70 S3 1.510459 1_455
O70 Zr8 2.288333 1_555
O71 Si1 1.647330 1_565
O71 Zr8 2.112741 1_555
