# generated using pymatgen
data_Na10Zr5Zn3Si6(SO8)6
_symmetry_space_group_name_H-M   'P 1'
_cell_length_a   18.26903524
_cell_length_b   9.14159123
_cell_length_c   22.86230100
_cell_angle_alpha   89.99979455
_cell_angle_beta   89.79861060
_cell_angle_gamma   120.05056554
_symmetry_Int_Tables_number   1
_chemical_formula_structural   Na10Zr5Zn3Si6(SO8)6
_chemical_formula_sum   'Na30 Zr15 Zn9 Si18 S18 O144'
_cell_volume   3304.93471180
_cell_formula_units_Z   3
loop_
 _symmetry_equiv_pos_site_id
 _symmetry_equiv_pos_as_xyz
  1  'x, y, z'
loop_
 _atom_site_type_symbol
 _atom_site_label
 _atom_site_symmetry_multiplicity
 _atom_site_fract_x
 _atom_site_fract_y
 _atom_site_fract_z
 _atom_site_occupancy
  Na  Na0  1  0.31869828  0.00431548  0.24329060  1
  Na  Na1  1  0.19583791  0.37117364  0.24430436  1
  Na  Na2  1  0.68935133  0.36695644  0.24278062  1
  Na  Na3  1  0.99748113  0.63938979  0.24943079  1
  Na  Na4  1  0.31809047  0.61693984  0.75289520  1
  Na  Na5  1  0.81916922  0.62661905  0.74686586  1
  Na  Na6  1  0.99360084  0.36076732  0.74856232  1
  Na  Na7  1  0.49542697  0.37196638  0.74090494  1
  Na  Na8  1  0.18324984  0.01050883  0.74579609  1
  Na  Na9  1  0.68690792  0.01197582  0.74800996  1
  Na  Na10  1  0.64747628  0.34691983  0.57560323  1
  Na  Na11  1  0.32424326  0.68768665  0.07862283  1
  Na  Na12  1  0.82649145  0.69092439  0.08667452  1
  Na  Na13  1  0.16427861  0.31674835  0.92287175  1
  Na  Na14  1  0.99332774  0.30801288  0.42107081  1
  Na  Na15  1  0.16468586  0.02905695  0.41969219  1
  Na  Na16  1  0.66121267  0.02598790  0.41251642  1
  Na  Na17  1  0.84135217  0.66741648  0.41817455  1
  Na  Na18  1  0.00220742  0.00465053  0.50007268  1
  Na  Na19  1  0.49168980  0.01147710  0.49321970  1
  Na  Na20  1  0.00628390  0.02471212  0.99942123  1
  Na  Na21  1  0.50269634  0.02514028  0.99575212  1
  Na  Na22  1  0.34429366  0.35604611  0.83291941  1
  Na  Na23  1  0.83864463  0.33543405  0.82777676  1
  Na  Na24  1  0.33881280  0.36345716  0.32610540  1
  Na  Na25  1  0.83169353  0.33052423  0.32760604  1
  Na  Na26  1  0.16775069  0.66483676  0.15643927  1
  Na  Na27  1  0.66357571  0.66605400  0.15844198  1
  Na  Na28  1  0.16140608  0.65939313  0.65833675  1
  Na  Na29  1  0.65972364  0.66831903  0.65852905  1
  Zr  Zr0  1  0.99961682  0.99234457  0.35292084  1
  Zr  Zr1  1  0.99951877  0.00564454  0.84911941  1
  Zr  Zr2  1  0.50283378  0.99826325  0.85631509  1
  Zr  Zr3  1  0.00137184  0.00170621  0.65037852  1
  Zr  Zr4  1  0.50209295  0.00618982  0.64576064  1
  Zr  Zr5  1  0.00514978  0.99803842  0.14719718  1
  Zr  Zr6  1  0.50068824  0.00198758  0.14613844  1
  Zr  Zr7  1  0.33393076  0.33816541  0.97917447  1
  Zr  Zr8  1  0.82962640  0.32680619  0.98100672  1
  Zr  Zr9  1  0.33769855  0.33827167  0.48406357  1
  Zr  Zr10  1  0.83275457  0.33421643  0.47805668  1
  Zr  Zr11  1  0.17209388  0.66529317  0.31631229  1
  Zr  Zr12  1  0.67236341  0.66927878  0.31605722  1
  Zr  Zr13  1  0.15969000  0.64818359  0.81835282  1
  Zr  Zr14  1  0.66009151  0.65722342  0.81273562  1
  Zn  Zn0  1  0.49821610  0.00025196  0.35028027  1
  Zn  Zn1  1  0.34199135  0.35554288  0.68193889  1
  Zn  Zn2  1  0.83605653  0.33576025  0.69061653  1
  Zn  Zn3  1  0.32746786  0.34792201  0.18586136  1
  Zn  Zn4  1  0.82868620  0.34354108  0.17872620  1
  Zn  Zn5  1  0.16757340  0.62787253  0.01279473  1
  Zn  Zn6  1  0.65583691  0.62713645  0.01821528  1
  Zn  Zn7  1  0.15915879  0.65179357  0.51026621  1
  Zn  Zn8  1  0.65966344  0.64384319  0.51282124  1
  Si  Si0  1  0.15143816  0.00071448  0.25126183  1
  Si  Si1  1  0.35918376  0.71112884  0.25302638  1
  Si  Si2  1  0.85099798  0.69875702  0.24737305  1
  Si  Si3  1  0.15142224  0.29685038  0.74864029  1
  Si  Si4  1  0.64786384  0.29211325  0.74885267  1
  Si  Si5  1  0.00264660  0.70840670  0.75001453  1
  Si  Si6  1  0.49780531  0.70639528  0.74916270  1
  Si  Si7  1  0.85227773  0.99967682  0.74853245  1
  Si  Si8  1  0.48437398  0.34200288  0.58712968  1
  Si  Si9  1  0.18422092  0.33549306  0.08521032  1
  Si  Si10  1  0.68498058  0.33962441  0.08645104  1
  Si  Si11  1  0.31557673  0.67190187  0.92005548  1
  Si  Si12  1  0.01425961  0.36305770  0.91862279  1
  Si  Si13  1  0.51785881  0.36984121  0.91749098  1
  Si  Si14  1  0.80892835  0.95070440  0.42152895  1
  Si  Si15  1  0.16916249  0.37239217  0.41838760  1
  Si  Si16  1  0.65788576  0.35698252  0.41804333  1
  Si  Si17  1  0.02397495  0.66966506  0.41792026  1
  S  S0  1  0.64761786  0.99801902  0.25082795  1
  S  S1  1  0.99799615  0.29168422  0.25004146  1
  S  S2  1  0.50064648  0.29511863  0.25073717  1
  S  S3  1  0.35371353  0.99756137  0.75098091  1
  S  S4  1  0.98116219  0.33443545  0.58436718  1
  S  S5  1  0.18615085  0.03470060  0.58409791  1
  S  S6  1  0.68755392  0.03772466  0.58472691  1
  S  S7  1  0.32949764  0.62975430  0.58452551  1
  S  S8  1  0.83579705  0.63009849  0.58518908  1
  S  S9  1  0.48053400  0.62412956  0.08572073  1
  S  S10  1  0.98098673  0.62449823  0.08432660  1
  S  S11  1  0.33293443  0.04239212  0.08670282  1
  S  S12  1  0.83242939  0.04216988  0.08533035  1
  S  S13  1  0.81424033  0.66819548  0.91901223  1
  S  S14  1  0.16588771  0.95620141  0.91864887  1
  S  S15  1  0.66829813  0.95528654  0.91955659  1
  S  S16  1  0.31476475  0.96105429  0.41969502  1
  S  S17  1  0.52006120  0.66527840  0.41754814  1
  O  O0  1  0.10455612  0.02936683  0.30826193  1
  O  O1  1  0.61214189  0.02627594  0.30509255  1
  O  O2  1  0.41380978  0.81369816  0.30848329  1
  O  O3  1  0.90895216  0.79745387  0.30483889  1
  O  O4  1  0.48954874  0.19567160  0.30372383  1
  O  O5  1  0.98785443  0.19576779  0.30487729  1
  O  O6  1  0.10728705  0.18175389  0.80763990  1
  O  O7  1  0.59964224  0.16520766  0.80299455  1
  O  O8  1  0.48255019  0.79868803  0.80463165  1
  O  O9  1  0.98658390  0.79892059  0.80626576  1
  O  O10  1  0.40729828  0.02345452  0.80263921  1
  O  O11  1  0.91540940  0.03575760  0.80441356  1
  O  O12  1  0.39299430  0.96964419  0.69769341  1
  O  O13  1  0.89657623  0.95955976  0.69241871  1
  O  O14  1  0.08398287  0.20646262  0.69455838  1
  O  O15  1  0.58689936  0.21000258  0.69039632  1
  O  O16  1  0.02061410  0.83504743  0.69334652  1
  O  O17  1  0.51234326  0.82765181  0.69170419  1
  O  O18  1  0.40011343  0.83010768  0.19248163  1
  O  O19  1  0.89573542  0.81353093  0.18897668  1
  O  O20  1  0.01034707  0.20443379  0.19930236  1
  O  O21  1  0.51803674  0.21346860  0.19873535  1
  O  O22  1  0.08610676  0.97109486  0.19620858  1
  O  O23  1  0.59301152  0.98231052  0.19933988  1
  O  O24  1  0.43935205  0.35137395  0.64721390  1
  O  O25  1  0.93789959  0.34533677  0.63740267  1
  O  O26  1  0.23361407  0.11901386  0.63755202  1
  O  O27  1  0.73621314  0.12233987  0.63783632  1
  O  O28  1  0.31818139  0.53395170  0.63930819  1
  O  O29  1  0.82821012  0.52716808  0.63742585  1
  O  O30  1  0.44142720  0.52140105  0.13779687  1
  O  O31  1  0.94432963  0.52999778  0.13969713  1
  O  O32  1  0.32963641  0.12462471  0.14120203  1
  O  O33  1  0.82664089  0.12835900  0.13792647  1
  O  O34  1  0.23895924  0.36086649  0.14385788  1
  O  O35  1  0.73864027  0.36846944  0.14657000  1
  O  O36  1  0.23114432  0.31199184  0.02598502  1
  O  O37  1  0.73625247  0.31518302  0.03025742  1
  O  O38  1  0.42652125  0.54408904  0.03258039  1
  O  O39  1  0.92341893  0.53233020  0.03410998  1
  O  O40  1  0.34544116  0.14991239  0.03461493  1
  O  O41  1  0.84526761  0.14863233  0.03161647  1
  O  O42  1  0.22994218  0.14253924  0.53041993  1
  O  O43  1  0.73027925  0.14918588  0.53179812  1
  O  O44  1  0.34037347  0.53756203  0.53337538  1
  O  O45  1  0.84275298  0.54234309  0.53078983  1
  O  O46  1  0.42232429  0.31958575  0.53027391  1
  O  O47  1  0.92964444  0.31849266  0.53054486  1
  O  O48  1  0.27847968  0.70361707  0.97922515  1
  O  O49  1  0.77679929  0.69340291  0.97202792  1
  O  O50  1  0.07699619  0.45162982  0.97162114  1
  O  O51  1  0.57467778  0.45489327  0.97310416  1
  O  O52  1  0.15582995  0.85418252  0.96944550  1
  O  O53  1  0.66070271  0.85512173  0.97030771  1
  O  O54  1  0.27323253  0.85748302  0.47096885  1
  O  O55  1  0.76550040  0.82451634  0.47516565  1
  O  O56  1  0.14639109  0.45291198  0.47278843  1
  O  O57  1  0.64709633  0.43287127  0.47836727  1
  O  O58  1  0.08719464  0.72212088  0.47197929  1
  O  O59  1  0.57235193  0.69104208  0.46948294  1
  O  O60  1  0.06206167  0.63038629  0.35830671  1
  O  O61  1  0.55920558  0.63817799  0.36395504  1
  O  O62  1  0.26106449  0.88345290  0.36512701  1
  O  O63  1  0.74925122  0.87301119  0.36203849  1
  O  O64  1  0.18254083  0.48206241  0.35721883  1
  O  O65  1  0.67884219  0.48820131  0.36129207  1
  O  O66  1  0.05554428  0.47065442  0.85611695  1
  O  O67  1  0.56020894  0.48411551  0.85695244  1
  O  O68  1  0.17572019  0.88028917  0.86256769  1
  O  O69  1  0.67936643  0.88215293  0.86361137  1
  O  O70  1  0.25430237  0.64122600  0.86194093  1
  O  O71  1  0.76288670  0.64671340  0.86531312  1
  O  O72  1  0.00550082  0.82764546  0.41034083  1
  O  O73  1  0.51140521  0.81667244  0.41152510  1
  O  O74  1  0.40031522  0.98929481  0.41258702  1
  O  O75  1  0.90494513  0.98326605  0.41056172  1
  O  O76  1  0.08284335  0.18340226  0.41026141  1
  O  O77  1  0.58251522  0.16405348  0.40709570  1
  O  O78  1  0.00977658  0.17763534  0.91298942  1
  O  O79  1  0.50842197  0.18278820  0.90880612  1
  O  O80  1  0.09135797  0.98365935  0.91331726  1
  O  O81  1  0.59276074  0.97731184  0.91458790  1
  O  O82  1  0.41070832  0.82925582  0.91091650  1
  O  O83  1  0.90099001  0.81640869  0.91228722  1
  O  O84  1  0.49246426  0.16527716  0.58567994  1
  O  O85  1  0.98723058  0.17606005  0.58467524  1
  O  O86  1  0.10040518  0.02237578  0.58420465  1
  O  O87  1  0.60293244  0.03313818  0.58591938  1
  O  O88  1  0.40964087  0.79824467  0.58617175  1
  O  O89  1  0.91462922  0.79900800  0.58549211  1
  O  O90  1  0.48207220  0.79361755  0.08983192  1
  O  O91  1  0.97916146  0.79045384  0.08587856  1
  O  O92  1  0.41141602  0.02010636  0.08779150  1
  O  O93  1  0.90941812  0.02027088  0.08725954  1
  O  O94  1  0.08788534  0.16168216  0.08814743  1
  O  O95  1  0.59059560  0.16596072  0.08949611  1
  O  O96  1  0.34260476  0.14575052  0.74585841  1
  O  O97  1  0.84233999  0.16487280  0.74338014  1
  O  O98  1  0.24262296  0.30980990  0.74085162  1
  O  O99  1  0.74130797  0.31549024  0.74322125  1
  O  O100  1  0.41655253  0.51706134  0.74677877  1
  O  O101  1  0.92096441  0.52140130  0.74433053  1
  O  O102  1  0.34371412  0.52126780  0.24788887  1
  O  O103  1  0.84561211  0.51347858  0.24704394  1
  O  O104  1  0.42477771  0.30801129  0.24146753  1
  O  O105  1  0.92519075  0.31717064  0.24393076  1
  O  O106  1  0.24583208  0.16089479  0.24646091  1
  O  O107  1  0.73354819  0.14708909  0.24365463  1
  O  O108  1  0.31680205  0.48980348  0.92198288  1
  O  O109  1  0.82200176  0.51134974  0.92265937  1
  O  O110  1  0.42220655  0.34645072  0.92284517  1
  O  O111  1  0.92027154  0.34407687  0.92385771  1
  O  O112  1  0.24305635  0.13128844  0.92080200  1
  O  O113  1  0.74514731  0.13108810  0.92211217  1
  O  O114  1  0.31764437  0.12999994  0.42337105  1
  O  O115  1  0.82110047  0.14281570  0.42674838  1
  O  O116  1  0.24940057  0.33835767  0.42455623  1
  O  O117  1  0.74977976  0.35112881  0.42225950  1
  O  O118  1  0.43333967  0.51016155  0.42253524  1
  O  O119  1  0.92899172  0.49858128  0.42554588  1
  O  O120  1  0.17724274  0.50672156  0.08200264  1
  O  O121  1  0.68179263  0.51499390  0.08137636  1
  O  O122  1  0.06667964  0.65816575  0.07674682  1
  O  O123  1  0.56746212  0.65975299  0.07854883  1
  O  O124  1  0.25839512  0.87287425  0.08209172  1
  O  O125  1  0.75742115  0.87296622  0.07948162  1
  O  O126  1  0.17783322  0.86666776  0.57886372  1
  O  O127  1  0.67599437  0.87035633  0.57812214  1
  O  O128  1  0.25604633  0.65298041  0.57685336  1
  O  O129  1  0.75957752  0.64517448  0.58214358  1
  O  O130  1  0.06583917  0.48619568  0.58079122  1
  O  O131  1  0.57976245  0.50464383  0.58064101  1
  O  O132  1  0.15229876  0.82207886  0.25590014  1
  O  O133  1  0.65062299  0.83801565  0.25291395  1
  O  O134  1  0.26183940  0.69470370  0.25536738  1
  O  O135  1  0.75463395  0.67385431  0.25414191  1
  O  O136  1  0.07841884  0.46142150  0.25279217  1
  O  O137  1  0.57866429  0.46685190  0.25419458  1
  O  O138  1  0.16063909  0.48605972  0.75443561  1
  O  O139  1  0.65604384  0.47953048  0.75591045  1
  O  O140  1  0.09127729  0.70200227  0.75514683  1
  O  O141  1  0.58703229  0.70076694  0.75501143  1
  O  O142  1  0.26881947  0.84151472  0.75633940  1
  O  O143  1  0.76072462  0.82893510  0.75790780  1
loop_
_geom_bond_atom_site_label_1
_geom_bond_atom_site_label_2
_geom_bond_distance
_geom_bond_site_symmetry_2
Na0 O106 2.394552 1_555
Na0 O104 2.464953 1_555
Na0 O134 2.493901 1_545
Na0 O32 2.544324 1_555
Na0 O132 2.649815 1_545
Na0 O18 2.908262 1_545
Na0 O62 2.983691 1_545
Na1 O102 2.340270 1_555
Na1 O34 2.442281 1_555
Na1 O106 2.508089 1_555
Na1 O134 2.587598 1_555
Na1 O136 2.662598 1_555
Na1 O64 2.827172 1_555
Na2 O35 2.371255 1_555
Na2 O135 2.451929 1_555
Na2 O103 2.474969 1_555
Na2 O107 2.513500 1_555
Na2 O137 2.614737 1_555
Na3 O103 2.414198 1_555
Na3 O132 2.466339 1_655
Na3 O105 2.557651 1_555
Na3 O136 2.692450 1_655
Na3 O31 2.698414 1_555
Na3 O60 2.777147 1_655
Na3 O22 2.892398 1_655
Na3 O3 2.938456 1_555
Na4 O100 2.394172 1_555
Na4 O98 2.446509 1_555
Na4 O138 2.501870 1_555
Na4 O142 2.623244 1_555
Na4 O28 2.705637 1_555
Na4 O70 2.803793 1_555
Na4 O8 2.865680 1_555
Na5 O99 2.463484 1_555
Na5 O101 2.485509 1_555
Na5 O143 2.569097 1_555
Na5 O139 2.591215 1_555
Na5 O29 2.694731 1_555
Na5 O13 2.913720 1_555
Na5 O71 2.931507 1_555
Na5 O9 2.980605 1_555
Na6 O101 2.424693 1_555
Na6 O97 2.429686 1_555
Na6 O138 2.672944 1_655
Na6 O66 2.686485 1_655
Na6 O140 2.713796 1_655
Na6 O25 2.718158 1_555
Na6 O11 2.869663 1_555
Na6 O14 2.925572 1_655
Na7 O24 2.344211 1_555
Na7 O100 2.401371 1_555
Na7 O96 2.509875 1_555
Na7 O139 2.610005 1_555
Na7 O141 2.627774 1_555
Na7 O67 2.880565 1_555
Na7 O15 2.963568 1_555
Na8 O98 2.387949 1_555
Na8 O140 2.464593 1_545
Na8 O96 2.529665 1_555
Na8 O26 2.650392 1_555
Na8 O142 2.703696 1_545
Na8 O16 2.844414 1_545
Na8 O68 2.897676 1_545
Na8 O6 2.921926 1_555
Na9 O99 2.436318 1_555
Na9 O97 2.459874 1_555
Na9 O141 2.499529 1_545
Na9 O143 2.632833 1_545
Na9 O27 2.692134 1_555
Na9 O69 2.871602 1_545
Na9 O7 2.882124 1_555
Na10 O131 2.325492 1_555
Na10 O57 2.359000 1_555
Na10 O129 2.461761 1_555
Na10 O84 2.473040 1_555
Na10 O87 2.570357 1_555
Na10 O15 2.875983 1_555
Na11 O120 2.346047 1_555
Na11 O48 2.453480 1_554
Na11 O124 2.521583 1_555
Na11 O90 2.554613 1_555
Na11 O92 2.640110 1_565
Na11 O18 2.934333 1_555
Na11 O38 2.960638 1_555
Na11 O34 2.983212 1_555
Na12 O121 2.309465 1_555
Na12 O91 2.462821 1_555
Na12 O125 2.548191 1_555
Na12 O93 2.606129 1_565
Na12 O19 2.632030 1_555
Na12 O49 2.780662 1_554
Na12 O35 2.895948 1_555
Na13 O108 2.419125 1_555
Na13 O78 2.458627 1_555
Na13 O80 2.652099 1_545
Na13 O36 2.669258 1_556
Na13 O50 2.694780 1_555
Na13 O112 2.718667 1_555
Na13 O6 2.877471 1_555
Na13 O70 2.922661 1_555
Na14 O76 2.428176 1_655
Na14 O119 2.544938 1_555
Na14 O75 2.584572 1_545
Na14 O56 2.699183 1_655
Na14 O115 2.726846 1_555
Na14 O47 2.778141 1_555
Na14 O5 2.831738 1_555
Na14 O60 2.932873 1_655
Na15 O116 2.453751 1_555
Na15 O114 2.467060 1_555
Na15 O76 2.527451 1_555
Na15 O72 2.556328 1_545
Na15 O58 2.704792 1_545
Na15 O42 2.772816 1_555
Na15 O0 2.778408 1_555
Na15 O62 2.959719 1_545
Na16 O77 2.343938 1_555
Na16 O73 2.430585 1_545
Na16 O115 2.580893 1_555
Na16 O117 2.586145 1_555
Na16 O1 2.617870 1_555
Na16 O63 2.848508 1_545
Na16 O59 2.951925 1_545
Na16 O43 2.983000 1_555
Na17 O117 2.514339 1_555
Na17 O75 2.521087 1_555
Na17 O72 2.601453 1_655
Na17 O119 2.729629 1_555
Na17 O55 2.767839 1_555
Na17 O45 2.822497 1_555
Na17 O3 2.856455 1_555
Na17 O65 2.888838 1_555
Na18 O76 2.573745 1_555
Na18 O86 2.584067 1_555
Na18 O85 2.587871 1_455
Na18 O89 2.621701 1_445
Na18 O72 2.631941 1_545
Na18 O75 2.657270 1_445
Na19 O74 2.430778 1_545
Na19 O77 2.496945 1_555
Na19 O84 2.534888 1_555
Na19 O73 2.725282 1_545
Na19 O88 2.759318 1_545
Na19 O87 2.878928 1_555
Na20 O78 2.402669 1_555
Na20 O94 2.461051 1_556
Na20 O80 2.644663 1_545
Na20 O93 2.658789 1_456
Na20 O83 2.766431 1_445
Na20 O91 2.769272 1_446
Na21 O79 2.426251 1_555
Na21 O95 2.604429 1_556
Na21 O82 2.607988 1_545
Na21 O81 2.653447 1_545
Na21 O92 2.666324 1_556
Na21 O90 2.905746 1_546
Na22 O100 2.413156 1_555
Na22 O110 2.531032 1_555
Na22 O108 2.549777 1_555
Na22 O98 2.701928 1_555
Na22 O96 2.756722 1_555
Na22 O112 2.801263 1_555
Na23 O101 2.492119 1_555
Na23 O97 2.502632 1_555
Na23 O99 2.575242 1_555
Na23 O111 2.638233 1_555
Na23 O113 2.799475 1_555
Na23 O109 2.805220 1_555
Na24 O102 2.270772 1_555
Na24 O106 2.549785 1_555
Na24 O104 2.691383 1_555
Na24 O118 2.710788 1_555
Na24 O116 2.717687 1_555
Na24 O114 2.969255 1_555
Na25 O103 2.413505 1_555
Na25 O107 2.592991 1_555
Na25 O105 2.603457 1_555
Na25 O117 2.686516 1_555
Na25 O115 2.789951 1_555
Na25 O119 2.797604 1_555
Na26 O120 2.294428 1_555
Na26 O124 2.464612 1_555
Na26 O122 2.577510 1_555
Na26 O134 2.775229 1_555
Na26 O132 2.778216 1_555
Na26 O136 2.812322 1_555
Na27 O121 2.361819 1_555
Na27 O123 2.518733 1_555
Na27 O125 2.550751 1_555
Na27 O135 2.732444 1_555
Na27 O133 2.749748 1_555
Na27 O137 2.767976 1_555
Na28 O130 2.439543 1_555
Na28 O126 2.531460 1_555
Na28 O128 2.557751 1_555
Na28 O140 2.678010 1_555
Na28 O138 2.704715 1_555
Na28 O142 2.898555 1_555
Na29 O131 2.317943 1_555
Na29 O127 2.514984 1_555
Na29 O129 2.605089 1_555
Na29 O141 2.662912 1_555
Na29 O139 2.796858 1_555
Na29 O143 2.835275 1_555
O0 Si0 1.648401 1_555
O0 Zr0 2.041770 1_445
O1 S0 1.479161 1_545
O1 Zn0 2.223675 1_555
O2 Si1 1.598234 1_555
O2 Zn0 1.891013 1_565
O3 Si2 1.647473 1_555
O3 Zr0 2.045325 1_555
O4 S2 1.465853 1_555
O4 Zn0 2.152641 1_555
O5 S1 1.486777 1_555
O5 Zr0 2.261117 1_545
O6 Si3 1.649031 1_555
O6 Zr1 2.044452 1_455
O7 Si4 1.619531 1_555
O7 Zr2 2.055395 1_545
O8 Si6 1.621951 1_555
O8 Zr2 2.046475 1_555
O9 Si5 1.632541 1_655
O9 Zr1 2.035042 1_565
O10 S3 1.478255 1_545
O10 Zr2 2.241151 1_545
O11 Si7 1.643341 1_545
O11 Zr1 1.978948 1_555
O12 S3 1.497192 1_555
O12 Zr4 2.193245 1_565
O13 Si7 1.650819 1_555
O13 Zr3 1.996470 1_665
O14 Si3 1.649428 1_555
O14 Zr3 1.995757 1_555
O15 Si4 1.662278 1_555
O15 Zr4 2.008296 1_555
O16 Si5 1.656169 1_555
O16 Zr3 1.987091 1_565
O17 Si6 1.651538 1_555
O17 Zr4 2.027227 1_565
O18 Si1 1.684128 1_555
O18 Zr6 2.015521 1_565
O19 Si2 1.638521 1_555
O19 Zr5 2.088723 1_655
O20 S1 1.486988 1_455
O20 Zr5 2.193038 1_545
O21 S2 1.518669 1_555
O21 Zr6 2.161711 1_555
O22 Si0 1.664012 1_565
O22 Zr5 1.969815 1_555
O23 S0 1.505412 1_555
O23 Zr6 2.162141 1_565
O24 Si8 1.622786 1_555
O24 Zn1 1.963010 1_555
O25 S4 1.475448 1_555
O25 Zn2 2.184136 1_555
O26 S5 1.475648 1_555
O26 Zn1 2.313389 1_555
O27 S6 1.477086 1_555
O27 Zn2 2.245206 1_555
O28 S7 1.481632 1_555
O28 Zn1 2.124284 1_555
O29 S8 1.482917 1_555
O29 Zn2 2.193963 1_555
O30 S9 1.460094 1_555
O30 Zn3 2.175800 1_555
O31 S10 1.487243 1_555
O31 Zn4 2.131935 1_555
O32 S11 1.471747 1_555
O32 Zn3 2.300357 1_555
O33 S12 1.469854 1_555
O33 Zn4 2.160467 1_555
O34 Si9 1.621340 1_555
O34 Zn3 1.937344 1_555
O35 Si10 1.634092 1_555
O35 Zn4 1.918998 1_555
O36 Si9 1.670541 1_555
O36 Zr7 2.065096 1_554
O37 Si10 1.667018 1_555
O37 Zr8 1.998506 1_554
O38 S9 1.506787 1_555
O38 Zr7 2.172830 1_554
O39 S10 1.501690 1_555
O39 Zr8 2.174937 1_554
O40 S11 1.486468 1_555
O40 Zr7 2.230845 1_554
O41 S12 1.509832 1_555
O41 Zr8 2.131160 1_554
O42 S5 1.523518 1_555
O42 Zr9 2.158176 1_555
O43 S6 1.519398 1_555
O43 Zr10 2.165144 1_555
O44 S7 1.511081 1_555
O44 Zr9 2.122188 1_555
O45 S8 1.519039 1_555
O45 Zr10 2.181802 1_555
O46 Si8 1.671627 1_555
O46 Zr9 1.952307 1_555
O47 S4 1.513922 1_555
O47 Zr10 2.205360 1_555
O48 Si11 1.601146 1_555
O48 Zn5 1.938485 1_556
O49 S13 1.463591 1_555
O49 Zn6 2.237936 1_556
O50 Si12 1.586724 1_555
O50 Zn5 1.887041 1_556
O51 Si13 1.581003 1_555
O51 Zn6 1.847682 1_556
O52 S14 1.441902 1_555
O52 Zn5 2.398815 1_556
O53 S15 1.440685 1_555
O53 Zn6 2.316238 1_556
O54 S16 1.456207 1_555
O54 Zn7 2.179022 1_555
O55 Si14 1.593865 1_555
O55 Zn8 1.999381 1_555
O56 Si15 1.601497 1_555
O56 Zn7 1.915912 1_555
O57 Si16 1.599132 1_555
O57 Zn8 1.987603 1_555
O58 Si17 1.595846 1_555
O58 Zn7 1.939745 1_555
O59 S17 1.469866 1_555
O59 Zn8 2.100622 1_555
O60 Si17 1.647467 1_555
O60 Zr11 2.099625 1_555
O61 S17 1.498443 1_555
O61 Zr12 2.224652 1_555
O62 S16 1.527639 1_555
O62 Zr11 2.151977 1_555
O63 Si14 1.666681 1_555
O63 Zr12 1.984227 1_555
O64 Si15 1.665151 1_555
O64 Zr11 2.009520 1_555
O65 Si16 1.674948 1_555
O65 Zr12 2.005177 1_555
O66 Si12 1.681629 1_555
O66 Zr13 1.973624 1_555
O67 Si13 1.669874 1_555
O67 Zr14 1.987679 1_555
O68 S14 1.510290 1_555
O68 Zr13 2.233707 1_555
O69 S15 1.502456 1_555
O69 Zr14 2.232180 1_555
O70 Si11 1.671249 1_555
O70 Zr13 2.026561 1_555
O71 S13 1.499846 1_555
O71 Zr14 2.275408 1_555
O72 Si17 1.648697 1_555
O72 Zr0 2.040788 1_455
O73 S17 1.476049 1_555
O73 Zn0 2.289615 1_565
O74 S16 1.459417 1_555
O74 Zn0 2.245163 1_565
O75 Si14 1.643905 1_555
O75 Zr0 2.138946 1_555
O76 Si15 1.667214 1_555
O76 Zr0 2.106005 1_445
O77 Si16 1.624627 1_555
O77 Zn0 2.001424 1_555
O78 Si12 1.660586 1_555
O78 Zr1 2.084760 1_455
O79 Si13 1.642592 1_555
O79 Zr2 2.030874 1_545
O80 S14 1.508390 1_555
O80 Zr1 2.316173 1_465
O81 S15 1.495732 1_555
O81 Zr2 2.200261 1_555
O82 Si11 1.620795 1_555
O82 Zr2 2.039334 1_555
O83 S13 1.489566 1_555
O83 Zr1 2.276260 1_565
O84 Si8 1.694719 1_555
O84 Zr4 2.071375 1_555
O85 S4 1.506398 1_555
O85 Zr3 2.297536 1_655
O86 S5 1.513209 1_555
O86 Zr3 2.288289 1_555
O87 S6 1.525535 1_555
O87 Zr4 2.203181 1_555
O88 S7 1.503105 1_555
O88 Zr4 2.263382 1_565
O89 S8 1.493758 1_555
O89 Zr3 2.284972 1_665
O90 S9 1.538391 1_555
O90 Zr6 2.180703 1_565
O91 S10 1.534476 1_555
O91 Zr5 2.212270 1_655
O92 S11 1.546175 1_555
O92 Zr6 2.180041 1_555
O93 S12 1.517475 1_555
O93 Zr5 2.313145 1_645
O94 Si9 1.680796 1_555
O94 Zr5 2.016460 1_545
O95 Si10 1.660118 1_555
O95 Zr6 2.034928 1_555
O96 S3 1.471594 1_545
O96 Zn1 2.415652 1_555
O97 Si7 1.613116 1_545
O97 Zn2 2.022204 1_555
O98 Si3 1.619265 1_555
O98 Zn1 2.122997 1_555
O99 Si4 1.615435 1_555
O99 Zn2 2.034970 1_555
O100 Si6 1.621593 1_555
O100 Zn1 2.057419 1_555
O101 Si5 1.616357 1_655
O101 Zn2 2.042340 1_555
O102 Si1 1.617113 1_555
O102 Zn3 2.035224 1_555
O103 Si2 1.646690 1_555
O103 Zn4 2.114430 1_555
O104 S2 1.464790 1_555
O104 Zn3 2.361183 1_555
O105 S1 1.467854 1_555
O105 Zn4 2.415128 1_555
O106 Si0 1.612365 1_555
O106 Zn3 2.120986 1_555
O107 S0 1.484597 1_545
O107 Zn4 2.303321 1_555
O108 Si11 1.676572 1_555
O108 Zr7 2.041189 1_555
O109 S13 1.512150 1_555
O109 Zr8 2.209417 1_555
O110 Si13 1.654884 1_555
O110 Zr7 2.031777 1_555
O111 Si12 1.641014 1_655
O111 Zr8 2.048729 1_555
O112 S14 1.514049 1_545
O112 Zr7 2.232676 1_555
O113 S15 1.515957 1_545
O113 Zr8 2.155256 1_555
O114 S16 1.521105 1_545
O114 Zr9 2.233725 1_555
O115 Si14 1.660421 1_545
O115 Zr10 2.027675 1_555
O116 Si15 1.650363 1_555
O116 Zr9 2.114177 1_555
O117 Si16 1.709294 1_555
O117 Zr10 2.048747 1_555
O118 S17 1.510808 1_555
O118 Zr9 2.175724 1_555
O119 Si17 1.663535 1_655
O119 Zr10 2.032098 1_555
O120 Si9 1.634539 1_555
O120 Zn5 1.989775 1_555
O121 Si10 1.637229 1_555
O121 Zn6 1.962812 1_555
O122 S10 1.446083 1_455
O122 Zn5 2.470665 1_555
O123 S9 1.461227 1_555
O123 Zn6 2.250491 1_555
O124 S11 1.467814 1_565
O124 Zn5 2.564358 1_555
O125 S12 1.471965 1_565
O125 Zn6 2.509515 1_555
O126 S5 1.470827 1_565
O126 Zn7 2.401459 1_555
O127 S6 1.443939 1_565
O127 Zn8 2.447453 1_555
O128 S7 1.470886 1_555
O128 Zn7 2.334605 1_555
O129 S8 1.468217 1_555
O129 Zn8 2.417000 1_555
O130 S4 1.474500 1_455
O130 Zn7 2.278989 1_555
O131 Si8 1.634829 1_555
O131 Zn8 2.068303 1_555
O132 Si0 1.644369 1_565
O132 Zr11 2.148317 1_555
O133 S0 1.491704 1_555
O133 Zr12 2.288824 1_555
O134 Si1 1.708791 1_555
O134 Zr11 2.060172 1_555
O135 Si2 1.664858 1_555
O135 Zr12 2.046110 1_555
O136 S1 1.512513 1_455
O136 Zr11 2.309595 1_555
O137 S2 1.504044 1_555
O137 Zr12 2.280225 1_555
O138 Si3 1.657150 1_555
O138 Zr13 2.087532 1_555
O139 Si4 1.651509 1_555
O139 Zr14 2.052394 1_555
O140 Si5 1.653866 1_555
O140 Zr13 2.126217 1_555
O141 Si6 1.662304 1_555
O141 Zr14 2.055735 1_555
O142 S3 1.496061 1_555
O142 Zr13 2.357877 1_555
O143 Si7 1.631740 1_555
O143 Zr14 2.123375 1_555
