# generated using pymatgen
data_Ba7MnFe6F34
_symmetry_space_group_name_H-M   'P 1'
_cell_length_a   10.42693816
_cell_length_b   10.42693816
_cell_length_c   7.84667806
_cell_angle_alpha   79.89298156
_cell_angle_beta   79.89298156
_cell_angle_gamma   67.54131676
_symmetry_Int_Tables_number   1
_chemical_formula_structural   Ba7MnFe6F34
_chemical_formula_sum   'Ba7 Mn1 Fe6 F34'
_cell_volume   770.62768811
_cell_formula_units_Z   1
loop_
 _symmetry_equiv_pos_site_id
 _symmetry_equiv_pos_as_xyz
  1  'x, y, z'
loop_
 _atom_site_type_symbol
 _atom_site_label
 _atom_site_symmetry_multiplicity
 _atom_site_fract_x
 _atom_site_fract_y
 _atom_site_fract_z
 _atom_site_occupancy
  Ba  Ba0  1  0.15995000  0.55510700  0.29628100  1
  Ba  Ba1  1  0.44489300  0.84005000  0.70371900  1
  Ba  Ba2  1  0.84005000  0.44489300  0.70371900  1
  Ba  Ba3  1  0.55510700  0.15995000  0.29628100  1
  Ba  Ba4  1  0.26236400  0.26236400  0.87498800  1
  Ba  Ba5  1  0.73763600  0.73763600  0.12501200  1
  Ba  Ba6  1  0.00000000  0.00000000  0.00000000  1
  Mn  Mn0  1  0.50000000  0.50000000  0.50000000  1
  Fe  Fe0  1  0.35299200  0.86614300  0.20070700  1
  Fe  Fe1  1  0.86614300  0.35299200  0.20070700  1
  Fe  Fe2  1  0.64700800  0.13385700  0.79929300  1
  Fe  Fe3  1  0.17185600  0.17185600  0.45997400  1
  Fe  Fe4  1  0.82814400  0.82814400  0.54002600  1
  Fe  Fe5  1  0.13385700  0.64700800  0.79929300  1
  F  F0  1  0.43164900  0.43164900  0.31381200  1
  F  F1  1  0.56835100  0.56835100  0.68618800  1
  F  F2  1  0.10843000  0.10843000  0.69407700  1
  F  F3  1  0.89157000  0.89157000  0.30592300  1
  F  F4  1  0.25141600  0.25141600  0.24016500  1
  F  F5  1  0.74858400  0.74858400  0.75983500  1
  F  F6  1  0.88228100  0.64651800  0.45493600  1
  F  F7  1  0.35348200  0.11771900  0.54506400  1
  F  F8  1  0.11771900  0.35348200  0.54506400  1
  F  F9  1  0.64651800  0.88228100  0.45493600  1
  F  F10  1  0.01426400  0.77046200  0.61660200  1
  F  F11  1  0.22953800  0.98573600  0.38339800  1
  F  F12  1  0.98573600  0.22953800  0.38339800  1
  F  F13  1  0.77046200  0.01426400  0.61660200  1
  F  F14  1  0.48954600  0.75251600  0.03319400  1
  F  F15  1  0.24748400  0.51045400  0.96680600  1
  F  F16  1  0.51045400  0.24748400  0.96680600  1
  F  F17  1  0.75251600  0.48954600  0.03319400  1
  F  F18  1  0.73612100  0.99806500  0.99387000  1
  F  F19  1  0.00193500  0.26387900  0.00613000  1
  F  F20  1  0.26387900  0.00193500  0.00613000  1
  F  F21  1  0.99806500  0.73612100  0.99387000  1
  F  F22  1  0.48326500  0.95860500  0.19630700  1
  F  F23  1  0.04139500  0.51673500  0.80369300  1
  F  F24  1  0.51673500  0.04139500  0.80369300  1
  F  F25  1  0.95860500  0.48326500  0.19630700  1
  F  F26  1  0.78924600  0.21027800  0.79715400  1
  F  F27  1  0.78972200  0.21075400  0.20284600  1
  F  F28  1  0.21075400  0.78972200  0.20284600  1
  F  F29  1  0.21027800  0.78924600  0.79715400  1
  F  F30  1  0.44713000  0.72443800  0.38919000  1
  F  F31  1  0.27556200  0.55287000  0.61081000  1
  F  F32  1  0.55287000  0.27556200  0.61081000  1
  F  F33  1  0.72443800  0.44713000  0.38919000  1
loop_
_geom_bond_atom_site_label_1
_geom_bond_atom_site_label_2
_geom_bond_distance
_geom_bond_site_symmetry_2
Ba0 F0 2.643889 1_555
Ba0 F15 2.646344 1_554
Ba0 F28 2.650830 1_555
Ba0 F8 2.718395 1_555
Ba0 F25 2.751342 1_455
Ba0 F6 2.807796 1_455
Ba0 F31 2.923576 1_555
Ba0 F4 3.027409 1_555
Ba0 F21 3.072799 1_454
Ba1 F1 2.643889 1_555
Ba1 F14 2.646344 1_556
Ba1 F29 2.650830 1_555
Ba1 F9 2.718395 1_555
Ba1 F24 2.751342 1_565
Ba1 F7 2.807796 1_565
Ba1 F30 2.923576 1_555
Ba1 F5 3.027409 1_555
Ba1 F20 3.072799 1_566
Ba2 F1 2.643889 1_555
Ba2 F17 2.646344 1_556
Ba2 F26 2.650830 1_555
Ba2 F6 2.718395 1_555
Ba2 F23 2.751342 1_655
Ba2 F8 2.807796 1_655
Ba2 F33 2.923576 1_555
Ba2 F5 3.027409 1_555
Ba2 F19 3.072799 1_656
Ba3 F0 2.643889 1_555
Ba3 F16 2.646344 1_554
Ba3 F27 2.650830 1_555
Ba3 F7 2.718395 1_555
Ba3 F22 2.751342 1_545
Ba3 F9 2.807796 1_545
Ba3 F32 2.923576 1_555
Ba3 F4 3.027409 1_555
Ba3 F18 3.072799 1_544
Ba4 F19 2.724916 1_556
Ba4 F20 2.724916 1_556
Ba4 F16 2.746455 1_555
Ba4 F15 2.746455 1_555
Ba4 F23 2.814048 1_555
Ba4 F24 2.814048 1_555
Ba4 F4 2.831445 1_556
Ba4 F8 3.048209 1_555
Ba4 F7 3.048209 1_555
Ba5 F18 2.724916 1_554
Ba5 F21 2.724916 1_554
Ba5 F14 2.746455 1_555
Ba5 F17 2.746455 1_555
Ba5 F25 2.814048 1_555
Ba5 F22 2.814048 1_555
Ba5 F5 2.831445 1_554
Ba5 F9 3.048209 1_555
Ba5 F6 3.048209 1_555
Ba6 F2 2.718517 1_554
Ba6 F3 2.718517 1_445
Ba6 F21 2.768105 1_444
Ba6 F18 2.768105 1_444
Ba6 F19 2.768105 1_555
Ba6 F20 2.768105 1_555
Ba6 F27 2.913985 1_455
Ba6 F28 2.913985 1_545
Ba6 F26 2.913985 1_454
Ba6 F29 2.913985 1_544
F0 Mn0 2.066206 1_555
F1 Mn0 2.066206 1_555
F2 Fe3 1.931442 1_555
F3 Fe4 1.931442 1_555
F4 Fe3 1.967901 1_555
F5 Fe4 1.967901 1_555
F6 Fe4 1.961035 1_555
F7 Fe3 1.961035 1_555
F8 Fe3 1.961035 1_555
F9 Fe4 1.961035 1_555
F10 Fe4 1.969667 1_455
F10 Fe5 2.005066 1_555
F11 Fe3 1.969667 1_565
F11 Fe0 2.005066 1_555
F12 Fe3 1.969667 1_655
F12 Fe1 2.005066 1_555
F13 Fe4 1.969667 1_545
F13 Fe2 2.005066 1_555
F14 Fe0 1.938960 1_555
F15 Fe5 1.938960 1_555
F16 Fe2 1.938960 1_555
F17 Fe1 1.938960 1_555
F18 Fe2 1.983230 1_565
F19 Fe1 1.983230 1_455
F20 Fe0 1.983230 1_545
F21 Fe5 1.983230 1_655
F22 Fe0 1.936028 1_555
F23 Fe5 1.936028 1_555
F24 Fe2 1.936028 1_555
F25 Fe1 1.936028 1_555
F26 Fe2 1.929854 1_555
F27 Fe1 1.929854 1_555
F28 Fe0 1.929854 1_555
F29 Fe5 1.929854 1_555
F30 Fe0 1.992091 1_555
F30 Mn0 2.237154 1_555
F31 Fe5 1.992091 1_555
F31 Mn0 2.237154 1_555
F32 Fe2 1.992091 1_555
F32 Mn0 2.237154 1_555
F33 Fe1 1.992091 1_555
F33 Mn0 2.237154 1_555
