# generated using pymatgen
data_Nb3Au2
_symmetry_space_group_name_H-M   'P 1'
_cell_length_a   3.41561894
_cell_length_b   3.41560074
_cell_length_c   8.03129257
_cell_angle_alpha   102.25466316
_cell_angle_beta   102.25499396
_cell_angle_gamma   90.00121719
_symmetry_Int_Tables_number   1
_chemical_formula_structural   Nb3Au2
_chemical_formula_sum   'Nb3 Au2'
_cell_volume   89.37504507
_cell_formula_units_Z   1
loop_
 _symmetry_equiv_pos_site_id
 _symmetry_equiv_pos_as_xyz
  1  'x, y, z'
loop_
 _atom_site_type_symbol
 _atom_site_label
 _atom_site_symmetry_multiplicity
 _atom_site_fract_x
 _atom_site_fract_y
 _atom_site_fract_z
 _atom_site_occupancy
  Nb  Nb0  1  0.00000157  0.00000625  0.00001339  1
  Nb  Nb1  1  0.39920292  0.39918909  0.79856145  1
  Nb  Nb2  1  0.60079398  0.60081215  0.20145224  1
  Au  Au0  1  0.19977140  0.19977106  0.39961815  1
  Au  Au1  1  0.80023013  0.80022245  0.60035477  1
loop_
_geom_bond_atom_site_label_1
_geom_bond_atom_site_label_2
_geom_bond_distance
_geom_bond_site_symmetry_2
Nb0 Nb2 2.865047 1_445
Nb0 Nb1 2.865092 1_554
Nb0 Nb2 2.866115 1_545
Nb0 Nb1 2.866158 1_454
Nb0 Nb2 2.866178 1_455
Nb0 Nb1 2.866242 1_544
Nb0 Nb2 2.867159 1_555
Nb0 Nb1 2.867222 1_444
Au0 Nb2 2.852427 1_555
Au0 Nb2 2.852691 1_545
Au0 Nb2 2.852758 1_455
Au0 Nb2 2.852934 1_445
Au0 Au1 2.862127 1_445
Au0 Au1 2.863243 1_455
Au0 Au1 2.863264 1_545
Au0 Au1 2.864293 1_555
Au0 Nb1 3.056265 1_555
Au0 Nb0 3.061332 1_555
Au1 Nb1 2.852671 1_555
Au1 Nb1 2.852882 1_565
Au1 Nb1 2.852899 1_655
Au1 Nb1 2.853023 1_665
Au1 Nb2 3.055953 1_555
Au1 Nb0 3.061745 1_666
