# generated using pymatgen
data_Hf6Zr4Ta8Ti3(NbB9)6
_symmetry_space_group_name_H-M   'P 1'
_cell_length_a   9.34682603
_cell_length_b   9.34952862
_cell_length_c   10.18629801
_cell_angle_alpha   90.00592903
_cell_angle_beta   89.99809241
_cell_angle_gamma   119.99930582
_symmetry_Int_Tables_number   1
_chemical_formula_structural   Hf6Zr4Ta8Ti3(NbB9)6
_chemical_formula_sum   'Hf6 Zr4 Ta8 Ti3 Nb6 B54'
_cell_volume   770.91042705
_cell_formula_units_Z   1
loop_
 _symmetry_equiv_pos_site_id
 _symmetry_equiv_pos_as_xyz
  1  'x, y, z'
loop_
 _atom_site_type_symbol
 _atom_site_label
 _atom_site_symmetry_multiplicity
 _atom_site_fract_x
 _atom_site_fract_y
 _atom_site_fract_z
 _atom_site_occupancy
  Hf  Hf0  1  0.88933400  0.66507700  0.49876200  1
  Hf  Hf1  1  0.55295800  0.66569400  0.49904500  1
  Hf  Hf2  1  0.88899100  0.99940700  0.16627100  1
  Hf  Hf3  1  0.55380500  0.99958600  0.16683400  1
  Hf  Hf4  1  0.88859700  0.33454800  0.16832600  1
  Hf  Hf5  1  0.55438300  0.33205700  0.83396400  1
  Zr  Zr0  1  0.89032500  0.66633100  0.83495200  1
  Zr  Zr1  1  0.88901900  0.00104300  0.83294200  1
  Zr  Zr2  1  0.22400000  0.33451600  0.16664500  1
  Zr  Zr3  1  0.22472300  0.00098800  0.49915300  1
  Ta  Ta0  1  0.88855300  0.00241900  0.50112600  1
  Ta  Ta1  1  0.22308500  0.33627500  0.83506300  1
  Ta  Ta2  1  0.89083100  0.33349200  0.83113100  1
  Ta  Ta3  1  0.55124800  0.66630100  0.83162000  1
  Ta  Ta4  1  0.55219700  0.99746700  0.83491700  1
  Ta  Ta5  1  0.22361200  0.66814100  0.16416300  1
  Ta  Ta6  1  0.55330300  0.66538700  0.17004600  1
  Ta  Ta7  1  0.89007000  0.66617500  0.16585200  1
  Ti  Ti0  1  0.22425500  0.00011500  0.16987100  1
  Ti  Ti1  1  0.88987200  0.33296100  0.49978300  1
  Ti  Ti2  1  0.55422000  0.33300100  0.16479000  1
  Nb  Nb0  1  0.22467000  0.66709700  0.83555500  1
  Nb  Nb1  1  0.55485400  0.99963000  0.49864700  1
  Nb  Nb2  1  0.55425600  0.33144600  0.50053700  1
  Nb  Nb3  1  0.22247500  0.33528800  0.49867500  1
  Nb  Nb4  1  0.22504500  0.00028800  0.83151300  1
  Nb  Nb5  1  0.22325400  0.66574100  0.50006500  1
  B  B0  1  0.99923800  0.55447300  0.33460600  1
  B  B1  1  0.00020600  0.22314300  0.99925800  1
  B  B2  1  0.33421800  0.22140900  0.00220200  1
  B  B3  1  0.66538500  0.22227400  0.00100400  1
  B  B4  1  0.00071400  0.55604600  0.00134700  1
  B  B5  1  0.33423000  0.55644400  0.99978700  1
  B  B6  1  0.66520500  0.55430900  0.00251800  1
  B  B7  1  0.00248000  0.88945200  0.00377000  1
  B  B8  1  0.33290900  0.89027600  0.00211000  1
  B  B9  1  0.66478600  0.88747300  0.00055500  1
  B  B10  1  0.99861500  0.22254000  0.33649700  1
  B  B11  1  0.33532700  0.22197600  0.32951900  1
  B  B12  1  0.66670500  0.22390200  0.33376800  1
  B  B13  1  0.77647000  0.77761700  0.66488100  1
  B  B14  1  0.44400300  0.77759300  0.66710400  1
  B  B15  1  0.66654600  0.55408300  0.33100300  1
  B  B16  1  0.77634200  0.77608900  0.00143500  1
  B  B17  1  0.11116600  0.11021300  0.33223700  1
  B  B18  1  0.44495400  0.11279100  0.32845900  1
  B  B19  1  0.77812000  0.11278700  0.33559400  1
  B  B20  1  0.10953500  0.44491100  0.33581900  1
  B  B21  1  0.44635100  0.44336400  0.33218000  1
  B  B22  1  0.77688900  0.44318600  0.33318800  1
  B  B23  1  0.11118400  0.77764700  0.32974600  1
  B  B24  1  0.44336000  0.77734900  0.33224300  1
  B  B25  1  0.77781900  0.77701900  0.33335200  1
  B  B26  1  0.11182900  0.11333900  0.66656700  1
  B  B27  1  0.44630200  0.11115200  0.66773200  1
  B  B28  1  0.77809200  0.11343200  0.66451600  1
  B  B29  1  0.11001600  0.44394600  0.66504800  1
  B  B30  1  0.44332800  0.44452100  0.66720600  1
  B  B31  1  0.77865900  0.44214300  0.66436500  1
  B  B32  1  0.11215000  0.77648300  0.66579100  1
  B  B33  1  0.44407300  0.77794700  0.00074500  1
  B  B34  1  0.11291600  0.77944700  0.00404700  1
  B  B35  1  0.77603200  0.44330700  0.00217100  1
  B  B36  1  0.33232300  0.55505500  0.66771400  1
  B  B37  1  0.00048800  0.88865200  0.33155200  1
  B  B38  1  0.33236500  0.88877300  0.33026600  1
  B  B39  1  0.66702300  0.88929600  0.33409000  1
  B  B40  1  0.99981700  0.22439200  0.66413900  1
  B  B41  1  0.33307500  0.22342400  0.66837800  1
  B  B42  1  0.66849200  0.22226500  0.66590900  1
  B  B43  1  0.99985800  0.55259100  0.66432900  1
  B  B44  1  0.66543600  0.55488000  0.66641200  1
  B  B45  1  0.44581800  0.44442800  0.00064500  1
  B  B46  1  0.99998500  0.88916100  0.66488900  1
  B  B47  1  0.33397100  0.88782800  0.66775700  1
  B  B48  1  0.66528000  0.88928700  0.66587800  1
  B  B49  1  0.11371600  0.11072100  0.00086300  1
  B  B50  1  0.44368300  0.11164300  0.00304700  1
  B  B51  1  0.77635200  0.11164700  0.99952200  1
  B  B52  1  0.11126500  0.44530200  0.99902800  1
  B  B53  1  0.33306200  0.55620500  0.33302200  1
loop_
_geom_bond_atom_site_label_1
_geom_bond_atom_site_label_2
_geom_bond_distance
_geom_bond_site_symmetry_2
B0 B20 1.779965 1_655
B0 B22 1.799894 1_555
B0 B23 1.807722 1_655
B0 Hf0 2.445904 1_555
B0 Hf4 2.457501 1_555
B0 Ti1 2.459402 1_555
B0 Nb5 2.475622 1_655
B0 Ta7 2.480493 1_555
B0 Ta5 2.512639 1_655
B1 B52 1.798820 1_555
B1 B51 1.812025 1_455
B1 B49 1.829164 1_556
B1 Ta1 2.460214 1_555
B1 Ta2 2.469353 1_455
B1 Zr1 2.470535 1_455
B1 Hf2 2.485305 1_446
B1 Zr2 2.487720 1_556
B1 Hf4 2.495014 1_456
B2 B50 1.774858 1_555
B2 B49 1.784943 1_555
B2 B45 1.805853 1_555
B2 Ti2 2.431950 1_555
B2 Zr2 2.464620 1_555
B2 Hf5 2.472467 1_554
B2 Ti0 2.475534 1_555
B2 Nb4 2.495630 1_554
B2 Ta1 2.499391 1_554
B3 B35 1.789740 1_555
B3 B51 1.794028 1_554
B3 B50 1.794721 1_555
B3 Ti2 2.451524 1_555
B3 Hf5 2.467900 1_554
B3 Hf3 2.470863 1_545
B3 Hf4 2.483841 1_555
B3 Ta4 2.484955 1_544
B3 Ta2 2.514916 1_554
B4 B52 1.791699 1_554
B4 Ta7 2.449898 1_455
B4 Ta5 2.450701 1_555
B4 Zr0 2.462717 1_454
B4 Hf4 2.471910 1_455
B4 Nb0 2.477634 1_554
B4 Ta2 2.500624 1_454
B5 B52 1.804841 1_555
B5 Nb0 2.444888 1_555
B5 Ta1 2.448055 1_555
B5 Ta3 2.453692 1_555
B5 Ta5 2.458130 1_556
B5 Zr2 2.473570 1_556
B5 Ta6 2.480400 1_556
B6 Ti2 2.438002 1_555
B6 Ta7 2.466001 1_555
B6 Ta6 2.484015 1_555
B6 Hf5 2.487114 1_554
B6 Zr0 2.496846 1_554
B6 Ta3 2.525287 1_554
B7 Ta7 2.448447 1_455
B7 Hf2 2.451942 1_455
B7 Ti0 2.466838 1_565
B7 Zr0 2.494066 1_454
B7 Nb4 2.514894 1_564
B7 Zr1 2.519537 1_464
B8 Ta5 2.441476 1_555
B8 Hf3 2.452068 1_555
B8 Ti0 2.459398 1_565
B8 Ta4 2.460069 1_554
B8 Nb4 2.476207 1_564
B8 Nb0 2.478767 1_554
B9 Ta4 2.468701 1_554
B9 Hf3 2.475970 1_555
B9 Hf2 2.478516 1_555
B9 Ta3 2.483630 1_554
B9 Zr1 2.491974 1_564
B9 Ta6 2.492992 1_555
B10 B19 1.784858 1_555
B10 B20 1.800551 1_655
B10 B17 1.821065 1_655
B10 Ti1 2.431916 1_555
B10 Ta0 2.447335 1_555
B10 Nb3 2.452061 1_655
B10 Hf4 2.483136 1_555
B10 Hf2 2.504107 1_545
B10 Zr2 2.514382 1_655
B11 B18 1.771476 1_555
B11 B21 1.792780 1_555
B11 B17 1.814718 1_555
B11 Ti0 2.423032 1_555
B11 Ti2 2.440382 1_555
B11 Zr2 2.457183 1_555
B11 Nb2 2.484974 1_555
B11 Zr3 2.487596 1_555
B11 Nb3 2.514143 1_555
B12 B22 1.775556 1_555
B12 B18 1.795811 1_555
B12 B19 1.801641 1_555
B12 Nb2 2.461256 1_555
B12 Hf4 2.462982 1_555
B12 Nb1 2.473652 1_545
B12 Ti1 2.474562 1_555
B12 Ti2 2.486257 1_555
B12 Hf3 2.487932 1_545
B13 B44 1.803571 1_555
B13 B48 1.804244 1_555
B13 B46 1.809275 1_555
B13 Ta0 2.469055 1_565
B13 Hf1 2.475246 1_555
B13 Hf0 2.488529 1_555
B13 Zr1 2.490555 1_565
B13 Ta3 2.491721 1_555
B13 Zr0 2.514752 1_555
B14 B47 1.783235 1_555
B14 B48 1.791232 1_555
B14 B36 1.801902 1_555
B14 Ta3 2.437071 1_555
B14 Nb5 2.467419 1_555
B14 Ta4 2.468039 1_555
B14 Nb0 2.469131 1_555
B14 Hf1 2.475312 1_555
B14 Nb1 2.485420 1_555
B15 B21 1.782452 1_555
B15 B22 1.791242 1_555
B15 B25 1.805267 1_555
B15 Ta6 2.448130 1_555
B15 Ti2 2.463876 1_555
B15 Ta7 2.470615 1_555
B15 Hf0 2.484400 1_555
B15 Nb2 2.496528 1_555
B15 Hf1 2.500693 1_555
B16 B6 1.795786 1_555
B16 B9 1.804885 1_555
B16 B7 1.830664 1_655
B16 Ta7 2.466537 1_555
B16 Hf2 2.467456 1_555
B16 Zr0 2.481281 1_554
B16 Ta6 2.491909 1_555
B16 Zr1 2.502811 1_564
B16 Ta3 2.512483 1_554
B17 B37 1.793990 1_545
B17 Ti0 2.449464 1_555
B17 Hf2 2.468254 1_445
B17 Zr2 2.478779 1_555
B17 Zr3 2.478840 1_555
B17 Nb3 2.488996 1_555
B17 Ta0 2.491566 1_455
B18 B38 1.813973 1_545
B18 Ti0 2.408623 1_555
B18 Hf3 2.437666 1_545
B18 Ti2 2.441184 1_555
B18 Zr3 2.490302 1_555
B18 Nb2 2.491244 1_555
B18 Nb1 2.503424 1_545
B19 B39 1.809678 1_545
B19 Ti1 2.444382 1_555
B19 Nb1 2.454616 1_545
B19 Ta0 2.457422 1_555
B19 Hf4 2.475454 1_555
B19 Hf3 2.500402 1_545
B19 Hf2 2.504087 1_545
B20 B53 1.809601 1_555
B20 Ti1 2.439606 1_455
B20 Nb5 2.448799 1_555
B20 Nb3 2.449318 1_555
B20 Hf4 2.471678 1_455
B20 Zr2 2.506659 1_555
B20 Ta5 2.515066 1_555
B21 B53 1.830708 1_555
B21 Ta6 2.441608 1_555
B21 Ti2 2.455276 1_555
B21 Zr2 2.466382 1_555
B21 Nb2 2.471626 1_555
B21 Hf1 2.476097 1_555
B21 Nb3 2.482290 1_555
B22 Hf4 2.449907 1_555
B22 Hf0 2.464163 1_555
B22 Ti1 2.479064 1_555
B22 Nb2 2.480671 1_555
B22 Ta7 2.483196 1_555
B22 Ti2 2.488203 1_555
B23 B38 1.790397 1_555
B23 B37 1.794925 1_555
B23 Ti0 2.428529 1_565
B23 Ta7 2.447573 1_455
B23 Ta5 2.464299 1_555
B23 Hf0 2.487839 1_455
B23 Zr3 2.499548 1_565
B23 Nb5 2.509645 1_555
B24 B53 1.790620 1_555
B24 B38 1.800760 1_555
B24 B39 1.810571 1_555
B24 Ta6 2.440636 1_555
B24 Hf3 2.465274 1_555
B24 Ta5 2.468867 1_555
B24 Hf1 2.468993 1_555
B24 Nb5 2.469226 1_555
B24 Nb1 2.472218 1_555
B25 B37 1.802523 1_655
B25 B39 1.805970 1_555
B25 Ta6 2.463725 1_555
B25 Hf0 2.472263 1_555
B25 Hf2 2.477827 1_555
B25 Hf1 2.482319 1_555
B25 Ta7 2.484501 1_555
B25 Ta0 2.500247 1_565
B26 B41 1.791009 1_555
B26 B40 1.806050 1_455
B26 B46 1.815247 1_445
B26 Ta0 2.471112 1_455
B26 Zr1 2.474920 1_455
B26 Nb3 2.480935 1_555
B26 Nb4 2.485759 1_555
B26 Ta1 2.490715 1_555
B26 Zr3 2.496577 1_555
B27 B42 1.798646 1_555
B27 B47 1.808261 1_545
B27 B41 1.825594 1_555
B27 Nb4 2.447673 1_555
B27 Ta4 2.462139 1_545
B27 Hf5 2.463015 1_555
B27 Nb2 2.466421 1_555
B27 Nb1 2.478008 1_545
B27 Zr3 2.483078 1_555
B28 B42 1.768433 1_555
B28 B40 1.794790 1_555
B28 B48 1.814965 1_545
B28 Ti1 2.444643 1_555
B28 Ta0 2.446301 1_555
B28 Ta2 2.460766 1_555
B28 Nb1 2.473940 1_545
B28 Zr1 2.492485 1_555
B28 Ta4 2.521382 1_545
B29 B43 1.771398 1_455
B29 B40 1.777753 1_455
B29 B36 1.799701 1_555
B29 Ti1 2.451406 1_455
B29 Ta2 2.451564 1_455
B29 Nb5 2.459781 1_555
B29 Nb3 2.465032 1_555
B29 Ta1 2.488746 1_555
B29 Nb0 2.506290 1_555
B30 B41 1.790263 1_555
B30 B36 1.793528 1_555
B30 B44 1.797914 1_555
B30 Ta3 2.455555 1_555
B30 Ta1 2.470286 1_555
B30 Hf1 2.478295 1_555
B30 Nb3 2.478516 1_555
B30 Hf5 2.482017 1_555
B30 Nb2 2.484072 1_555
B31 B42 1.780421 1_555
B31 B43 1.790528 1_555
B31 B44 1.829429 1_555
B31 Ti1 2.448219 1_555
B31 Ta2 2.466244 1_555
B31 Nb2 2.466677 1_555
B31 Hf0 2.470749 1_555
B31 Hf5 2.506160 1_555
B31 Zr0 2.512754 1_555
B32 B47 1.795679 1_555
B32 B43 1.812912 1_455
B32 B46 1.820295 1_455
B32 Nb5 2.464743 1_555
B32 Nb4 2.476490 1_565
B32 Hf0 2.479453 1_455
B32 Zr3 2.487232 1_565
B32 Zr0 2.488673 1_455
B32 Nb0 2.493678 1_555
B33 B9 1.786610 1_555
B33 B5 1.793554 1_554
B33 B8 1.809401 1_555
B33 Ta5 2.440439 1_555
B33 Nb0 2.446533 1_554
B33 Ta4 2.452240 1_554
B33 Hf3 2.466255 1_555
B33 Ta3 2.471060 1_554
B33 Ta6 2.489746 1_555
B34 B8 1.780893 1_555
B34 B7 1.784634 1_555
B34 B4 1.809086 1_555
B34 Ta5 2.427092 1_555
B34 Ta7 2.443541 1_455
B34 Ti0 2.458680 1_565
B34 Zr0 2.492683 1_454
B34 Nb0 2.497373 1_554
B34 Nb4 2.507407 1_564
B35 B6 1.795872 1_555
B35 B4 1.818745 1_655
B35 Ti2 2.442924 1_555
B35 Ta7 2.456891 1_555
B35 Hf4 2.464917 1_555
B35 Hf5 2.480866 1_554
B35 Zr0 2.482669 1_554
B35 Ta2 2.518360 1_554
B36 Ta3 2.434772 1_555
B36 Ta1 2.458569 1_555
B36 Nb5 2.466167 1_555
B36 Nb0 2.467053 1_555
B36 Nb3 2.476026 1_555
B36 Hf1 2.478248 1_555
B37 Ti0 2.448138 1_565
B37 Hf2 2.464235 1_455
B37 Ta7 2.468476 1_455
B37 Hf0 2.485729 1_455
B37 Zr3 2.491810 1_565
B37 Ta0 2.514359 1_465
B38 Ti0 2.413816 1_565
B38 Hf3 2.446335 1_555
B38 Ta5 2.460449 1_555
B38 Zr3 2.475398 1_565
B38 Nb1 2.487008 1_555
B38 Nb5 2.500794 1_555
B39 Nb1 2.460507 1_555
B39 Ta6 2.465528 1_555
B39 Hf1 2.470285 1_555
B39 Ta0 2.472040 1_565
B39 Hf2 2.480069 1_555
B39 Hf3 2.485450 1_555
B40 Ti1 2.435743 1_555
B40 Ta0 2.446834 1_555
B40 Ta2 2.451582 1_555
B40 Nb3 2.467662 1_655
B40 Zr1 2.495557 1_555
B40 Ta1 2.509479 1_655
B41 Nb4 2.455071 1_555
B41 Hf5 2.460560 1_555
B41 Nb2 2.475712 1_555
B41 Ta1 2.477341 1_555
B41 Zr3 2.493057 1_555
B41 Nb3 2.496474 1_555
B42 Ta2 2.464038 1_555
B42 Ti1 2.464739 1_555
B42 Nb2 2.471866 1_555
B42 Nb1 2.480391 1_545
B42 Hf5 2.493196 1_555
B42 Ta4 2.505753 1_545
B43 Ti1 2.443616 1_555
B43 Ta2 2.456579 1_555
B43 Nb5 2.463748 1_655
B43 Hf0 2.470725 1_555
B43 Zr0 2.507564 1_555
B43 Nb0 2.520699 1_655
B44 Nb2 2.475345 1_555
B44 Ta3 2.483480 1_555
B44 Hf5 2.483685 1_555
B44 Hf1 2.484929 1_555
B44 Hf0 2.490269 1_555
B44 Zr0 2.502237 1_555
B45 B6 1.775963 1_555
B45 B5 1.810261 1_554
B45 Ti2 2.442053 1_555
B45 Hf5 2.466134 1_554
B45 Zr2 2.466454 1_555
B45 Ta1 2.469053 1_554
B45 Ta6 2.485689 1_555
B45 Ta3 2.488998 1_554
B46 Ta0 2.468222 1_565
B46 Hf0 2.480974 1_555
B46 Zr3 2.481872 1_665
B46 Zr1 2.486918 1_565
B46 Nb4 2.489917 1_665
B46 Zr0 2.501427 1_555
B47 Nb4 2.448375 1_565
B47 Ta4 2.453490 1_555
B47 Nb0 2.473157 1_555
B47 Nb5 2.480092 1_555
B47 Nb1 2.482843 1_555
B47 Zr3 2.488470 1_565
B48 Ta0 2.466400 1_565
B48 Nb1 2.469143 1_555
B48 Ta3 2.472122 1_555
B48 Hf1 2.482953 1_555
B48 Ta4 2.484672 1_555
B48 Zr1 2.485138 1_565
B49 B7 1.791868 1_545
B49 Zr2 2.476878 1_555
B49 Hf2 2.479537 1_445
B49 Ti0 2.483860 1_555
B49 Ta1 2.487850 1_554
B49 Nb4 2.489681 1_554
B49 Zr1 2.496890 1_454
B50 B8 1.792430 1_545
B50 Ti2 2.434405 1_555
B50 Hf3 2.453446 1_545
B50 Ti0 2.458246 1_555
B50 Hf5 2.480357 1_554
B50 Ta4 2.486672 1_544
B50 Nb4 2.487059 1_554
B51 B9 1.815173 1_546
B51 Ta4 2.470604 1_545
B51 Zr1 2.479123 1_555
B51 Hf3 2.479915 1_546
B51 Ta2 2.484048 1_555
B51 Hf2 2.489983 1_546
B51 Hf4 2.492682 1_556
B52 Ta1 2.446608 1_555
B52 Nb0 2.449311 1_555
B52 Ta5 2.466690 1_556
B52 Ta2 2.471619 1_455
B52 Zr2 2.488029 1_556
B52 Hf4 2.494562 1_456
B53 Ta6 2.436079 1_555
B53 Hf1 2.455247 1_555
B53 Nb3 2.459179 1_555
B53 Nb5 2.459285 1_555
B53 Zr2 2.468598 1_555
B53 Ta5 2.484246 1_555
