# generated using pymatgen
data_Ce3(Al2Si3)2
_symmetry_space_group_name_H-M   'P 1'
_cell_length_a   4.16245768
_cell_length_b   4.16245768
_cell_length_c   17.67156900
_cell_angle_alpha   90.00000000
_cell_angle_beta   90.00000000
_cell_angle_gamma   119.99999490
_symmetry_Int_Tables_number   1
_chemical_formula_structural   Ce3(Al2Si3)2
_chemical_formula_sum   'Ce3 Al4 Si6'
_cell_volume   265.15842257
_cell_formula_units_Z   1
loop_
 _symmetry_equiv_pos_site_id
 _symmetry_equiv_pos_as_xyz
  1  'x, y, z'
loop_
 _atom_site_type_symbol
 _atom_site_label
 _atom_site_symmetry_multiplicity
 _atom_site_fract_x
 _atom_site_fract_y
 _atom_site_fract_z
 _atom_site_occupancy
  Ce  Ce0  1  0.00000000  0.00000000  0.10923600  1
  Ce  Ce1  1  0.00000000  0.00000000  0.89076400  1
  Ce  Ce2  1  0.00000000  0.00000000  0.50000000  1
  Al  Al0  1  0.66666700  0.33333300  0.74743300  1
  Al  Al1  1  0.33333300  0.66666700  0.25256700  1
  Al  Al2  1  0.66666700  0.33333300  0.35962200  1
  Al  Al3  1  0.33333300  0.66666700  0.64037800  1
  Si  Si0  1  0.66666700  0.33333300  0.99785100  1
  Si  Si1  1  0.33333300  0.66666700  0.78469000  1
  Si  Si2  1  0.66666700  0.33333300  0.21531000  1
  Si  Si3  1  0.33333300  0.66666700  0.39753000  1
  Si  Si4  1  0.66666700  0.33333300  0.60247000  1
  Si  Si5  1  0.33333300  0.66666700  0.00214900  1
loop_
_geom_bond_atom_site_label_1
_geom_bond_atom_site_label_2
_geom_bond_distance
_geom_bond_site_symmetry_2
Ce0 Si2 3.047797 1_455
Ce0 Si2 3.047800 1_555
Ce0 Si2 3.047800 1_445
Ce0 Si5 3.058840 1_545
Ce0 Si5 3.058843 1_445
Ce0 Si5 3.058843 1_555
Ce0 Si0 3.106402 1_454
Ce0 Si0 3.106405 1_554
Ce0 Si0 3.106405 1_444
Ce1 Si1 3.047797 1_545
Ce1 Si1 3.047800 1_555
Ce1 Si1 3.047800 1_445
Ce1 Si0 3.058840 1_455
Ce1 Si0 3.058843 1_445
Ce1 Si0 3.058843 1_555
Ce1 Si5 3.106402 1_546
Ce1 Si5 3.106405 1_556
Ce1 Si5 3.106405 1_446
Ce2 Si3 3.009046 1_545
Ce2 Si4 3.009046 1_455
Ce2 Si3 3.009049 1_445
Ce2 Si3 3.009049 1_555
Ce2 Si4 3.009049 1_555
Ce2 Si4 3.009049 1_445
Al0 Si1 2.491750 1_545
Al0 Si1 2.491750 1_655
Al0 Si1 2.491757 1_555
Al0 Si4 2.561724 1_555
Al1 Si2 2.491750 1_455
Al1 Si2 2.491750 1_565
Al1 Si2 2.491757 1_555
Al1 Si3 2.561724 1_555
Al2 Si3 2.494814 1_545
Al2 Si3 2.494814 1_655
Al2 Si3 2.494821 1_555
Al2 Si2 2.550219 1_555
Al3 Si4 2.494814 1_455
Al3 Si4 2.494814 1_565
Al3 Si4 2.494821 1_555
Al3 Si1 2.550219 1_555
Si0 Si5 2.404394 1_546
Si0 Si5 2.404394 1_656
Si0 Si5 2.404401 1_556
