# generated using pymatgen
data_KEu2I5
_symmetry_space_group_name_H-M   'P 1'
_cell_length_a   8.97251650
_cell_length_b   9.95687914
_cell_length_c   14.32511746
_cell_angle_alpha   90.04284427
_cell_angle_beta   90.00000000
_cell_angle_gamma   90.00000000
_symmetry_Int_Tables_number   1
_chemical_formula_structural   KEu2I5
_chemical_formula_sum   'K4 Eu8 I20'
_cell_volume   1279.78074412
_cell_formula_units_Z   4
loop_
 _symmetry_equiv_pos_site_id
 _symmetry_equiv_pos_as_xyz
  1  'x, y, z'
loop_
 _atom_site_type_symbol
 _atom_site_label
 _atom_site_symmetry_multiplicity
 _atom_site_fract_x
 _atom_site_fract_y
 _atom_site_fract_z
 _atom_site_occupancy
  K  K0  1  0.95287331  0.50675401  0.17078857  1
  K  K1  1  0.45287331  0.49324599  0.32921143  1
  K  K2  1  0.04712669  0.49324599  0.82921143  1
  K  K3  1  0.54712669  0.50675401  0.67078857  1
  Eu  Eu0  1  0.97516861  0.00323289  0.17997672  1
  Eu  Eu1  1  0.92576475  0.24954139  0.49456186  1
  Eu  Eu2  1  0.42576475  0.75045861  0.00543814  1
  Eu  Eu3  1  0.07423525  0.75045861  0.50543814  1
  Eu  Eu4  1  0.57423525  0.24954139  0.99456186  1
  Eu  Eu5  1  0.52483139  0.00323289  0.67997672  1
  Eu  Eu6  1  0.02483139  0.99676711  0.82002328  1
  Eu  Eu7  1  0.47516861  0.99676711  0.32002328  1
  I  I0  1  0.18916487  0.76734944  0.28332703  1
  I  I1  1  0.83368240  0.77906972  0.68196487  1
  I  I2  1  0.33368240  0.22093028  0.81803513  1
  I  I3  1  0.16631760  0.22093028  0.31803513  1
  I  I4  1  0.66631760  0.77906972  0.18196487  1
  I  I5  1  0.81083513  0.23265056  0.71667297  1
  I  I6  1  0.31083513  0.76734944  0.78332703  1
  I  I7  1  0.95701183  0.21933256  0.99757366  1
  I  I8  1  0.83761107  0.95856972  0.40092002  1
  I  I9  1  0.33761107  0.04143028  0.09907998  1
  I  I10  1  0.16238893  0.04143028  0.59907998  1
  I  I11  1  0.66238893  0.95856972  0.90092002  1
  I  I12  1  0.04298817  0.78066744  0.00242634  1
  I  I13  1  0.45701183  0.78066744  0.50242634  1
  I  I14  1  0.67438161  0.53788135  0.91303277  1
  I  I15  1  0.54298817  0.21933256  0.49757366  1
  I  I16  1  0.82561839  0.53788135  0.41303277  1
  I  I17  1  0.32561839  0.46211865  0.08696723  1
  I  I18  1  0.17438161  0.46211865  0.58696723  1
  I  I19  1  0.68916487  0.23265056  0.21667297  1
loop_
_geom_bond_atom_site_label_1
_geom_bond_atom_site_label_2
_geom_bond_distance
_geom_bond_site_symmetry_2
Eu0 I0 3.376395 1_645
Eu0 I7 3.390008 1_554
Eu0 I3 3.397772 1_655
Eu0 I8 3.426468 1_545
Eu0 I12 3.426632 1_645
Eu0 I9 3.473312 1_655
Eu0 I19 3.475304 1_555
Eu0 I4 3.558365 1_545
Eu1 I16 3.227832 1_555
Eu1 I8 3.288287 1_545
Eu1 I10 3.323811 1_655
Eu1 I3 3.336656 1_655
Eu1 I18 3.347263 1_655
Eu1 I5 3.349048 1_555
Eu1 I15 3.447888 1_555
Eu2 I17 3.227832 1_555
Eu2 I9 3.288287 1_565
Eu2 I11 3.323811 1_554
Eu2 I4 3.336656 1_555
Eu2 I14 3.347263 1_554
Eu2 I6 3.349048 1_554
Eu2 I12 3.447888 1_555
Eu3 I18 3.227832 1_555
Eu3 I10 3.288287 1_565
Eu3 I8 3.323811 1_455
Eu3 I1 3.336656 1_455
Eu3 I16 3.347263 1_455
Eu3 I0 3.349048 1_555
Eu3 I13 3.447888 1_555
Eu4 I14 3.227832 1_555
Eu4 I11 3.288287 1_545
Eu4 I9 3.323811 1_556
Eu4 I2 3.336656 1_555
Eu4 I17 3.347263 1_556
Eu4 I19 3.349048 1_556
Eu4 I7 3.447888 1_555
Eu5 I6 3.376395 1_545
Eu5 I15 3.390008 1_555
Eu5 I2 3.397772 1_555
Eu5 I11 3.426468 1_545
Eu5 I13 3.426632 1_545
Eu5 I10 3.473312 1_555
Eu5 I5 3.475304 1_555
Eu5 I1 3.558365 1_545
Eu6 I5 3.376395 1_465
Eu6 I12 3.390008 1_556
Eu6 I1 3.397772 1_455
Eu6 I10 3.426468 1_565
Eu6 I7 3.426632 1_465
Eu6 I11 3.473312 1_455
Eu6 I6 3.475304 1_555
Eu6 I2 3.558365 1_565
Eu7 I19 3.376395 1_565
Eu7 I13 3.390008 1_555
Eu7 I4 3.397772 1_555
Eu7 I9 3.426468 1_565
Eu7 I15 3.426632 1_565
Eu7 I8 3.473312 1_555
Eu7 I0 3.475304 1_555
Eu7 I3 3.558365 1_565
I0 K1 3.671771 1_555
I0 K0 3.717554 1_455
I1 K3 3.739979 1_555
I1 K2 4.028049 1_655
I2 K2 3.739979 1_555
I2 K3 4.028049 1_555
I3 K1 3.739979 1_555
I3 K0 4.028049 1_455
I4 K0 3.739979 1_555
I4 K1 4.028049 1_555
I5 K3 3.671771 1_555
I5 K2 3.717554 1_655
I6 K2 3.671771 1_555
I6 K3 3.717554 1_555
I7 K2 3.730779 1_655
I7 K0 3.786521 1_556
I12 K0 3.730779 1_455
I12 K2 3.786521 1_554
I13 K3 3.730779 1_555
I13 K1 3.786521 1_555
I14 K2 3.581053 1_655
I14 K3 3.666098 1_555
I15 K1 3.730779 1_555
I15 K3 3.786521 1_555
I16 K1 3.581053 1_555
I16 K0 3.666098 1_555
I17 K0 3.581053 1_455
I17 K1 3.666098 1_555
I18 K3 3.581053 1_555
I18 K2 3.666098 1_555
I19 K0 3.671771 1_555
I19 K1 3.717554 1_555
