# generated using pymatgen
data_MgCr2(WO4)2
_symmetry_space_group_name_H-M   'P 1'
_cell_length_a   5.01533067
_cell_length_b   5.67772597
_cell_length_c   5.67772543
_cell_angle_alpha   65.78613454
_cell_angle_beta   89.01524812
_cell_angle_gamma   89.01525909
_symmetry_Int_Tables_number   1
_chemical_formula_structural   MgCr2(WO4)2
_chemical_formula_sum   'Mg1 Cr2 W2 O8'
_cell_volume   147.42196191
_cell_formula_units_Z   1
loop_
 _symmetry_equiv_pos_site_id
 _symmetry_equiv_pos_as_xyz
  1  'x, y, z'
loop_
 _atom_site_type_symbol
 _atom_site_label
 _atom_site_symmetry_multiplicity
 _atom_site_fract_x
 _atom_site_fract_y
 _atom_site_fract_z
 _atom_site_occupancy
  Mg  Mg0  1  0.50000000  0.49008800  0.50991200  1
  Cr  Cr0  1  0.49431900  0.21642000  0.23634600  1
  Cr  Cr1  1  0.50568100  0.76365400  0.78358000  1
  W  W0  1  0.00000000  0.74181700  0.25818300  1
  W  W1  1  0.00000000  0.23787100  0.76212900  1
  O  O0  1  0.17589800  0.60689800  0.62716900  1
  O  O1  1  0.82410200  0.37283100  0.39310200  1
  O  O2  1  0.83081500  0.87766900  0.89800500  1
  O  O3  1  0.16918500  0.10199500  0.12233100  1
  O  O4  1  0.66322600  0.38823700  0.87980400  1
  O  O5  1  0.33677400  0.12019600  0.61176300  1
  O  O6  1  0.33666400  0.59158800  0.14021600  1
  O  O7  1  0.66333600  0.85978400  0.40841200  1
loop_
_geom_bond_atom_site_label_1
_geom_bond_atom_site_label_2
_geom_bond_distance
_geom_bond_site_symmetry_2
Mg0 O0 1.952741 1_555
Mg0 O1 1.952741 1_555
Mg0 O7 2.111806 1_555
Mg0 O6 2.111806 1_555
Mg0 O5 2.112293 1_555
Mg0 O4 2.112293 1_555
Cr0 O3 1.979355 1_555
Cr0 O4 2.028992 1_554
Cr0 O7 2.029753 1_545
Cr0 O6 2.112745 1_555
Cr0 O5 2.113732 1_555
Cr0 O1 2.250740 1_555
Cr1 O2 1.979355 1_555
Cr1 O5 2.028992 1_565
Cr1 O6 2.029753 1_556
Cr1 O7 2.112744 1_555
Cr1 O4 2.113733 1_555
Cr1 O0 2.250740 1_555
O0 W0 2.116119 1_555
O0 W1 2.116304 1_555
O1 W0 2.116119 1_655
O1 W1 2.116304 1_655
O2 W0 2.059170 1_656
O2 W1 2.059280 1_665
O3 W0 2.059170 1_545
O3 W1 2.059280 1_554
O4 W1 2.099437 1_655
O5 W1 2.099437 1_555
O6 W0 2.099374 1_555
O7 W0 2.099374 1_655
