# generated using pymatgen
data_MgCrFe(BiO3)2
_symmetry_space_group_name_H-M   'P 1'
_cell_length_a   6.42530509
_cell_length_b   6.53096060
_cell_length_c   6.51388515
_cell_angle_alpha   52.03907784
_cell_angle_beta   51.56334681
_cell_angle_gamma   51.23723469
_symmetry_Int_Tables_number   1
_chemical_formula_structural   MgCrFe(BiO3)2
_chemical_formula_sum   'Mg1 Cr1 Fe1 Bi2 O6'
_cell_volume   155.11098036
_cell_formula_units_Z   1
loop_
 _symmetry_equiv_pos_site_id
 _symmetry_equiv_pos_as_xyz
  1  'x, y, z'
loop_
 _atom_site_type_symbol
 _atom_site_label
 _atom_site_symmetry_multiplicity
 _atom_site_fract_x
 _atom_site_fract_y
 _atom_site_fract_z
 _atom_site_occupancy
  Mg  Mg0  1  0.86581455  0.87028219  0.88192271  1
  Cr  Cr0  1  0.23608043  0.22595789  0.23816779  1
  Fe  Fe0  1  0.68566222  0.69655594  0.70819375  1
  Bi  Bi0  1  0.52038565  0.51686053  0.52382533  1
  Bi  Bi1  1  0.03018621  0.05111980  0.07208095  1
  O  O0  1  0.30060011  0.66851891  0.91381592  1
  O  O1  1  0.90565281  0.27636156  0.63578200  1
  O  O2  1  0.88062961  0.46470259  0.10970892  1
  O  O3  1  0.00108339  0.81825616  0.51706374  1
  O  O4  1  0.61921380  0.90811498  0.30922958  1
  O  O5  1  0.44678523  0.06679243  0.91563830  1
loop_
_geom_bond_atom_site_label_1
_geom_bond_atom_site_label_2
_geom_bond_distance
_geom_bond_site_symmetry_2
Mg0 O5 2.056468 1_565
Mg0 O2 2.061941 1_556
Mg0 O3 2.138874 1_655
Mg0 O1 2.185942 1_565
Mg0 O4 2.278520 1_556
Mg0 O0 2.314976 1_655
Cr0 O4 2.102201 1_545
Cr0 O2 2.158522 1_455
Cr0 O1 2.158962 1_455
Cr0 O5 2.171521 1_554
Cr0 O0 2.426630 1_554
Fe0 O3 1.987907 1_655
Fe0 O0 2.023448 1_555
Fe0 O4 2.251329 1_555
Fe0 O1 2.378596 1_555
Fe0 O5 2.611945 1_565
Fe0 O2 2.743846 1_556
Bi0 O1 2.256846 1_555
Bi0 O2 2.265053 1_555
Bi0 O4 2.328200 1_555
Bi0 O0 2.512457 1_555
Bi0 O5 2.527482 1_555
Bi0 O3 2.619484 1_555
Bi1 O3 2.237988 1_545
Bi1 O5 2.244416 1_554
Bi1 O2 2.356022 1_455
Bi1 O0 2.414762 1_544
Bi1 O4 2.544240 1_445
Bi1 O1 2.662952 1_454
