# generated using pymatgen
data_CdI2
_symmetry_space_group_name_H-M   'P 1'
_cell_length_a   4.27956484
_cell_length_b   4.27956460
_cell_length_c   14.59625728
_cell_angle_alpha   90.00000000
_cell_angle_beta   90.00000000
_cell_angle_gamma   120.00000985
_symmetry_Int_Tables_number   1
_chemical_formula_structural   CdI2
_chemical_formula_sum   'Cd2 I4'
_cell_volume   231.51082142
_cell_formula_units_Z   2
loop_
 _symmetry_equiv_pos_site_id
 _symmetry_equiv_pos_as_xyz
  1  'x, y, z'
loop_
 _atom_site_type_symbol
 _atom_site_label
 _atom_site_symmetry_multiplicity
 _atom_site_fract_x
 _atom_site_fract_y
 _atom_site_fract_z
 _atom_site_occupancy
  Cd  Cd0  1  0.33333300  0.66666700  0.50003892  1
  Cd  Cd1  1  0.66666700  0.33333300  0.00003892  1
  I  I0  1  -0.00000000  -0.00000000  0.61788628  1
  I  I1  1  -0.00000000  -0.00000000  0.11788628  1
  I  I2  1  0.66666700  0.33333300  0.38207580  1
  I  I3  1  0.33333300  0.66666700  0.88207580  1
loop_
_geom_bond_atom_site_label_1
_geom_bond_atom_site_label_2
_geom_bond_distance
_geom_bond_site_symmetry_2
Cd0 I0 3.010603 1_565
Cd0 I0 3.010605 1_555
Cd0 I0 3.010605 1_665
Cd0 I2 3.011568 1_565
Cd0 I2 3.011568 1_455
Cd0 I2 3.011574 1_555
Cd1 I1 3.010603 1_655
Cd1 I1 3.010605 1_665
Cd1 I1 3.010605 1_555
Cd1 I3 3.011568 1_544
Cd1 I3 3.011568 1_654
Cd1 I3 3.011574 1_554
