# generated using pymatgen
data_Ni21(SnB3)2
_symmetry_space_group_name_H-M   'P 1'
_cell_length_a   7.41527394
_cell_length_b   7.41525786
_cell_length_c   7.41529771
_cell_angle_alpha   60.00436866
_cell_angle_beta   60.00412213
_cell_angle_gamma   60.00420543
_symmetry_Int_Tables_number   1
_chemical_formula_structural   Ni21(SnB3)2
_chemical_formula_sum   'Ni21 Sn2 B6'
_cell_volume   288.34254000
_cell_formula_units_Z   1
loop_
 _symmetry_equiv_pos_site_id
 _symmetry_equiv_pos_as_xyz
  1  'x, y, z'
loop_
 _atom_site_type_symbol
 _atom_site_label
 _atom_site_symmetry_multiplicity
 _atom_site_fract_x
 _atom_site_fract_y
 _atom_site_fract_z
 _atom_site_occupancy
  Ni  Ni0  1  0.66378037  -0.00000264  -0.00000325  1
  Ni  Ni1  1  0.15582729  0.61474118  0.61471215  1
  Ni  Ni2  1  0.61472901  0.61472701  0.61469991  1
  Ni  Ni3  1  0.61472530  0.61472508  0.15584624  1
  Ni  Ni4  1  0.38525833  0.84417154  0.38528782  1
  Ni  Ni5  1  0.66377702  0.33622502  0.99999898  1
  Ni  Ni6  1  1.00000946  0.33623029  0.66375060  1
  Ni  Ni7  1  0.99999197  0.99999192  0.33625073  1
  Ni  Ni8  1  0.33622008  1.00000232  1.00000256  1
  Ni  Ni9  1  0.00000763  0.00000763  0.66374981  1
  Ni  Ni10  1  1.00000132  0.33622623  1.00000166  1
  Ni  Ni11  1  0.66376494  0.99998980  0.33625602  1
  Ni  Ni12  1  1.00000009  0.00000016  -0.00000023  1
  Ni  Ni13  1  -0.00000168  0.66377432  -0.00000232  1
  Ni  Ni14  1  0.33623530  1.00000999  0.66374453  1
  Ni  Ni15  1  0.99999035  0.66376980  0.33625003  1
  Ni  Ni16  1  0.33622351  0.66377546  1.00000048  1
  Ni  Ni17  1  0.84417203  0.38525885  0.38528824  1
  Ni  Ni18  1  0.38527478  0.38527497  0.84415310  1
  Ni  Ni19  1  0.61474170  0.15582799  0.61471241  1
  Ni  Ni20  1  0.38527117  0.38527307  0.38530050  1
  Sn  Sn0  1  0.75001167  0.75001153  0.74998622  1
  Sn  Sn1  1  0.24998832  0.24998854  0.25001382  1
  B  B0  1  0.72764341  0.72764377  0.27236195  1
  B  B1  1  0.72765100  0.27235441  0.72763362  1
  B  B2  1  0.27234908  0.72764557  0.27236637  1
  B  B3  1  0.72764724  0.27234699  0.27236469  1
  B  B4  1  0.27235271  0.72765302  0.72763532  1
  B  B5  1  0.27235660  0.27235621  0.72763803  1
loop_
_geom_bond_atom_site_label_1
_geom_bond_atom_site_label_2
_geom_bond_distance
_geom_bond_site_symmetry_2
Ni0 Ni12 2.493183 1_555
Ni1 Sn0 2.457157 1_455
Ni2 Sn0 2.457181 1_555
Ni3 Sn0 2.457438 1_554
Ni4 Sn1 2.457166 1_565
Ni10 Ni12 2.493215 1_556
Ni11 Ni12 2.493513 1_565
Ni12 Ni8 2.493182 1_644
Ni12 Ni13 2.493216 1_645
Ni12 Ni9 2.493338 1_654
Ni12 Ni7 2.493340 1_545
Ni12 Ni5 2.493349 1_554
Ni12 Ni16 2.493349 1_644
Ni12 Ni6 2.493475 1_554
Ni12 Ni15 2.493480 1_545
Ni12 Ni14 2.493510 1_644
Ni17 Sn1 2.457161 1_655
Ni18 Sn1 2.457442 1_556
Ni19 Sn0 2.457163 1_545
Ni20 Sn1 2.457184 1_555
B0 Ni3 2.072781 1_555
B0 Ni2 2.072875 1_555
B0 Ni17 2.073151 1_555
B0 Ni4 2.073152 1_555
B0 Ni15 2.074398 1_555
B0 Ni11 2.074399 1_555
B0 Ni0 2.074540 1_565
B0 Ni13 2.074542 1_655
B1 Ni19 2.072808 1_555
B1 Ni17 2.072921 1_555
B1 Ni2 2.073075 1_555
B1 Ni18 2.073098 1_555
B1 Ni6 2.074398 1_555
B1 Ni5 2.074455 1_555
B1 Ni9 2.074490 1_655
B1 Ni0 2.074539 1_556
B2 Ni4 2.072806 1_555
B2 Ni1 2.072924 1_555
B2 Ni20 2.073074 1_555
B2 Ni3 2.073098 1_555
B2 Ni15 2.074398 1_455
B2 Ni16 2.074455 1_554
B2 Ni7 2.074490 1_455
B2 Ni8 2.074540 1_554
B3 Ni17 2.072827 1_555
B3 Ni19 2.072936 1_555
B3 Ni20 2.073095 1_555
B3 Ni3 2.073110 1_555
B3 Ni11 2.074392 1_545
B3 Ni5 2.074449 1_554
B3 Ni7 2.074484 1_545
B3 Ni10 2.074537 1_554
B4 Ni1 2.072829 1_555
B4 Ni4 2.072934 1_555
B4 Ni2 2.073097 1_555
B4 Ni18 2.073109 1_555
B4 Ni14 2.074393 1_555
B4 Ni16 2.074449 1_555
B4 Ni9 2.074484 1_565
B4 Ni13 2.074535 1_556
B5 Ni18 2.072778 1_555
B5 Ni20 2.072872 1_555
B5 Ni1 2.073152 1_555
B5 Ni19 2.073152 1_555
B5 Ni6 2.074396 1_455
B5 Ni14 2.074397 1_545
B5 Ni8 2.074538 1_545
B5 Ni10 2.074542 1_455
