# generated using pymatgen
data_Na12Ta2Zn10Si3(S5O24)3
_symmetry_space_group_name_H-M   'P 1'
_cell_length_a   8.85838496
_cell_length_b   8.92666303
_cell_length_c   22.55282921
_cell_angle_alpha   89.68542796
_cell_angle_beta   90.63435279
_cell_angle_gamma   119.74237055
_symmetry_Int_Tables_number   1
_chemical_formula_structural   Na12Ta2Zn10Si3(S5O24)3
_chemical_formula_sum   'Na12 Ta2 Zn10 Si3 S15 O72'
_cell_volume   1548.35428175
_cell_formula_units_Z   1
loop_
 _symmetry_equiv_pos_site_id
 _symmetry_equiv_pos_as_xyz
  1  'x, y, z'
loop_
 _atom_site_type_symbol
 _atom_site_label
 _atom_site_symmetry_multiplicity
 _atom_site_fract_x
 _atom_site_fract_y
 _atom_site_fract_z
 _atom_site_occupancy
  Na  Na0  1  0.30129033  0.33595619  0.57934664  1
  Na  Na1  1  0.67098614  0.96942186  0.59078134  1
  Na  Na2  1  0.29656419  0.96871954  0.09025842  1
  Na  Na3  1  0.03031295  0.33296201  0.08340969  1
  Na  Na4  1  0.33067512  0.04500457  0.40989843  1
  Na  Na5  1  0.69356904  0.65683702  0.41550074  1
  Na  Na6  1  0.00928173  0.01345517  0.49789614  1
  Na  Na7  1  0.98800904  0.99062353  0.99600785  1
  Na  Na8  1  0.67102690  0.32071316  0.82911252  1
  Na  Na9  1  0.65267063  0.32201103  0.32786132  1
  Na  Na10  1  0.34348235  0.67681886  0.16514941  1
  Na  Na11  1  0.32893793  0.67256345  0.66473658  1
  Ta  Ta0  1  0.33259795  0.66161316  0.31202096  1
  Ta  Ta1  1  0.34097863  0.67227303  0.81247692  1
  Zn  Zn0  1  0.03056391  0.03099101  0.34642533  1
  Zn  Zn1  1  0.99353970  0.00353047  0.84639490  1
  Zn  Zn2  1  0.98583477  0.98773231  0.65989789  1
  Zn  Zn3  1  0.00062244  0.98602350  0.15865110  1
  Zn  Zn4  1  0.67205910  0.32418453  0.68706113  1
  Zn  Zn5  1  0.64952245  0.32166056  0.18646436  1
  Zn  Zn6  1  0.66855948  0.33586286  0.98149521  1
  Zn  Zn7  1  0.65959363  0.33629922  0.48317078  1
  Zn  Zn8  1  0.33851557  0.66654581  0.01277171  1
  Zn  Zn9  1  0.32140324  0.65237933  0.51369153  1
  Si  Si0  1  0.30114663  0.00725204  0.24953945  1
  Si  Si1  1  0.71538690  0.01371241  0.74901225  1
  Si  Si2  1  0.32909847  0.36656004  0.42136115  1
  S  S0  1  0.70975381  0.70858427  0.25235622  1
  S  S1  1  0.99677310  0.29476340  0.24898274  1
  S  S2  1  0.29564754  0.29519491  0.75087142  1
  S  S3  1  0.99881790  0.70699388  0.75187886  1
  S  S4  1  0.95928545  0.33717572  0.58259685  1
  S  S5  1  0.36672229  0.03416228  0.58245216  1
  S  S6  1  0.67268544  0.62928708  0.58372125  1
  S  S7  1  0.95506792  0.62430026  0.08264246  1
  S  S8  1  0.66881206  0.03850375  0.08256383  1
  S  S9  1  0.37448046  0.33779894  0.08132055  1
  S  S10  1  0.62793995  0.66518728  0.91821421  1
  S  S11  1  0.04068558  0.37338203  0.91841569  1
  S  S12  1  0.33037646  0.95899920  0.91734502  1
  S  S13  1  0.62666852  0.95676396  0.41732903  1
  S  S14  1  0.04126633  0.66343024  0.41672730  1
  O  O0  1  0.21774574  0.02264593  0.31069412  1
  O  O1  1  0.80518605  0.78828760  0.30733911  1
  O  O2  1  0.96887761  0.18902506  0.30179557  1
  O  O3  1  0.21752405  0.18843223  0.80307665  1
  O  O4  1  0.98197307  0.78884351  0.80523487  1
  O  O5  1  0.82260821  0.03062160  0.80790999  1
  O  O6  1  0.76895065  0.95961718  0.68714264  1
  O  O7  1  0.19219781  0.22949893  0.69538552  1
  O  O8  1  0.04470889  0.81429399  0.69779427  1
  O  O9  1  0.77569593  0.81674968  0.19901152  1
  O  O10  1  0.03241366  0.22751293  0.19443913  1
  O  O11  1  0.18948614  0.96121834  0.18773193  1
  O  O12  1  0.87763970  0.35631202  0.63604887  1
  O  O13  1  0.48124695  0.11834938  0.63418546  1
  O  O14  1  0.64574918  0.51533128  0.63490026  1
  O  O15  1  0.87608828  0.51627127  0.13568308  1
  O  O16  1  0.63824197  0.11768852  0.13518973  1
  O  O17  1  0.47841573  0.36320426  0.13560905  1
  O  O18  1  0.45455830  0.30768887  0.02852220  1
  O  O19  1  0.85441186  0.54229257  0.02785848  1
  O  O20  1  0.69889151  0.14700923  0.02859954  1
  O  O21  1  0.44114076  0.13743691  0.52684866  1
  O  O22  1  0.68963459  0.55269897  0.52722962  1
  O  O23  1  0.84999881  0.30931372  0.52848567  1
  O  O24  1  0.54678765  0.69064548  0.97099856  1
  O  O25  1  0.13968716  0.45337470  0.97420572  1
  O  O26  1  0.30753741  0.85873004  0.97246909  1
  O  O27  1  0.55024656  0.85644152  0.47215563  1
  O  O28  1  0.31129852  0.45234128  0.48146844  1
  O  O29  1  0.15385931  0.70285491  0.46954352  1
  O  O30  1  0.13582886  0.64839525  0.36321480  1
  O  O31  1  0.50547773  0.86509470  0.36457387  1
  O  O32  1  0.35592563  0.50261447  0.36430298  1
  O  O33  1  0.13734262  0.48809687  0.86636516  1
  O  O34  1  0.34934239  0.85857244  0.86528904  1
  O  O35  1  0.51085931  0.64781268  0.86437968  1
  O  O36  1  0.01079983  0.81120913  0.40971429  1
  O  O37  1  0.79403653  0.96363133  0.40806486  1
  O  O38  1  0.16114135  0.17486137  0.41549968  1
  O  O39  1  0.02921733  0.20390681  0.91300217  1
  O  O40  1  0.17432346  0.97437861  0.90790596  1
  O  O41  1  0.79994753  0.81710194  0.91119066  1
  O  O42  1  0.98245520  0.18066310  0.58598387  1
  O  O43  1  0.19350653  0.02164323  0.58950727  1
  O  O44  1  0.82853169  0.80445218  0.58757739  1
  O  O45  1  0.97723426  0.80068515  0.08585160  1
  O  O46  1  0.82856192  0.02302512  0.09000970  1
  O  O47  1  0.19597571  0.18104132  0.08550616  1
  O  O48  1  0.67173450  0.16837398  0.74553207  1
  O  O49  1  0.47541802  0.33326167  0.74443259  1
  O  O50  1  0.84869185  0.53501049  0.74444541  1
  O  O51  1  0.68733069  0.53567260  0.24519346  1
  O  O52  1  0.85427848  0.33211593  0.24283335  1
  O  O53  1  0.49613375  0.16962914  0.24574830  1
  O  O54  1  0.63185087  0.50204403  0.91896644  1
  O  O55  1  0.86774393  0.36195657  0.91928766  1
  O  O56  1  0.49217590  0.12750157  0.91870683  1
  O  O57  1  0.63853728  0.12725850  0.41897542  1
  O  O58  1  0.51248375  0.35821735  0.41893133  1
  O  O59  1  0.87350613  0.50171700  0.41940202  1
  O  O60  1  0.34854543  0.49137207  0.07601393  1
  O  O61  1  0.13637671  0.64446512  0.07871092  1
  O  O62  1  0.50818627  0.86492209  0.07597712  1
  O  O63  1  0.35434281  0.86116570  0.57669217  1
  O  O64  1  0.51361841  0.65138243  0.58124827  1
  O  O65  1  0.13678207  0.49256828  0.57958299  1
  O  O66  1  0.31653524  0.82370458  0.26123433  1
  O  O67  1  0.52443725  0.68674622  0.25844182  1
  O  O68  1  0.16396487  0.47234459  0.25847385  1
  O  O69  1  0.30547775  0.47327632  0.76083447  1
  O  O70  1  0.15991475  0.68220197  0.76117012  1
  O  O71  1  0.51074527  0.82630634  0.76252375  1
loop_
_geom_bond_atom_site_label_1
_geom_bond_atom_site_label_2
_geom_bond_distance
_geom_bond_site_symmetry_2
Na0 O28 2.418211 1_555
Na0 O42 2.458347 1_455
Na0 O65 2.469783 1_555
Na0 O43 2.485199 1_555
Na0 O64 2.492504 1_555
Na0 O7 2.793419 1_555
Na0 O21 2.882832 1_555
Na0 O14 2.921296 1_555
Na1 O6 2.348435 1_555
Na1 O42 2.454045 1_565
Na1 O64 2.474444 1_555
Na1 O44 2.482766 1_555
Na1 O63 2.489324 1_555
Na1 O13 2.796139 1_565
Na1 O27 2.866106 1_555
Na2 O11 2.391293 1_555
Na2 O45 2.459078 1_455
Na2 O47 2.463541 1_565
Na2 O62 2.493304 1_555
Na2 O61 2.526734 1_555
Na2 O16 2.812391 1_565
Na2 O26 2.856468 1_554
Na2 O18 2.974597 1_565
Na3 O46 2.442570 1_455
Na3 O47 2.442810 1_555
Na3 O60 2.454980 1_555
Na3 O61 2.456203 1_555
Na3 O10 2.673393 1_555
Na3 O25 2.673991 1_554
Na3 O20 2.830105 1_455
Na3 O15 2.865108 1_455
Na4 O38 2.312609 1_555
Na4 O0 2.409045 1_555
Na4 O58 2.446174 1_555
Na4 O57 2.453757 1_555
Na4 O36 2.552850 1_545
Na4 O21 2.785806 1_555
Na4 O31 2.922734 1_545
Na4 O29 2.974257 1_545
Na5 O58 2.332978 1_555
Na5 O37 2.429056 1_555
Na5 O36 2.444754 1_655
Na5 O59 2.579017 1_555
Na5 O22 2.675605 1_555
Na5 O1 2.678762 1_555
Na5 O32 2.833705 1_555
Na5 O27 2.953772 1_555
Na6 O38 2.332728 1_555
Na6 O42 2.574101 1_455
Na6 O43 2.597293 1_555
Na6 O37 2.649683 1_445
Na6 O44 2.683579 1_445
Na6 O36 2.697929 1_545
Na7 O41 2.497058 1_555
Na7 O39 2.559095 1_665
Na7 O45 2.606815 1_556
Na7 O40 2.646923 1_655
Na7 O46 2.655461 1_566
Na7 O47 2.684324 1_666
Na8 O48 2.332234 1_555
Na8 O55 2.569305 1_555
Na8 O49 2.603701 1_555
Na8 O50 2.611841 1_555
Na8 O56 2.624697 1_555
Na8 O54 2.730577 1_555
Na9 O53 2.302584 1_555
Na9 O58 2.515362 1_555
Na9 O51 2.569157 1_555
Na9 O52 2.605573 1_555
Na9 O57 2.647842 1_555
Na9 O59 2.737826 1_555
Na10 O62 2.567060 1_555
Na10 O61 2.578914 1_555
Na10 O67 2.605884 1_555
Na10 O66 2.612520 1_555
Na10 O60 2.625980 1_555
Na10 O68 2.728059 1_555
Na11 O65 2.532802 1_555
Na11 O63 2.534794 1_555
Na11 O64 2.576137 1_555
Na11 O71 2.665052 1_555
Na11 O70 2.679772 1_555
Na11 O69 2.739678 1_555
O0 Si0 1.610063 1_555
O0 Zn0 1.886033 1_555
O1 S0 1.465679 1_555
O1 Zn0 2.268732 1_665
O2 S1 1.460619 1_555
O2 Zn0 2.009704 1_655
O3 S2 1.457648 1_555
O3 Zn1 2.095565 1_455
O4 S3 1.458051 1_555
O4 Zn1 2.089863 1_565
O5 Si1 1.587874 1_555
O5 Zn1 1.853769 1_555
O6 Si1 1.629318 1_565
O6 Zn2 1.917741 1_555
O7 S2 1.482921 1_555
O7 Zn2 2.170737 1_445
O8 S3 1.477270 1_455
O8 Zn2 2.043577 1_455
O9 S0 1.471084 1_555
O9 Zn3 2.029680 1_655
O10 S1 1.475806 1_455
O10 Zn3 2.188492 1_545
O11 Si0 1.631798 1_565
O11 Zn3 1.902596 1_555
O12 S4 1.466164 1_555
O12 Zn4 2.060787 1_555
O13 S5 1.477228 1_555
O13 Zn4 2.133802 1_555
O14 S6 1.475244 1_555
O14 Zn4 2.171661 1_555
O15 S7 1.478787 1_555
O15 Zn5 2.219745 1_555
O16 S8 1.479147 1_555
O16 Zn5 2.121916 1_555
O17 S9 1.472783 1_555
O17 Zn5 2.065180 1_555
O18 S9 1.484830 1_555
O18 Zn6 2.085748 1_554
O19 S7 1.481681 1_555
O19 Zn6 2.042638 1_554
O20 S8 1.492828 1_555
O20 Zn6 2.113348 1_554
O21 S5 1.503211 1_555
O21 Zn7 2.116824 1_555
O22 S6 1.492916 1_555
O22 Zn7 2.072415 1_555
O23 S4 1.492190 1_555
O23 Zn7 2.075965 1_555
O24 S10 1.472952 1_555
O24 Zn8 1.995031 1_556
O25 S11 1.492052 1_555
O25 Zn8 2.034338 1_556
O26 S12 1.483682 1_555
O26 Zn8 2.071013 1_556
O27 S13 1.481235 1_555
O27 Zn9 2.159764 1_555
O28 Si2 1.607723 1_555
O28 Zn9 1.891819 1_555
O29 S14 1.472249 1_555
O29 Zn9 2.005740 1_555
O30 S14 1.520502 1_555
O30 Ta0 2.055284 1_555
O31 S13 1.532474 1_555
O31 Ta0 2.067077 1_555
O32 Si2 1.700196 1_555
O32 Ta0 1.927363 1_555
O33 S11 1.516196 1_555
O33 Ta1 2.125566 1_555
O34 S12 1.541285 1_555
O34 Ta1 2.021717 1_555
O35 S10 1.545444 1_555
O35 Ta1 1.991661 1_555
O36 S14 1.479216 1_555
O36 Zn0 2.356070 1_565
O37 S13 1.470402 1_555
O37 Zn0 2.342949 1_665
O38 Si2 1.622154 1_555
O38 Zn0 1.980473 1_555
O39 S11 1.470781 1_555
O39 Zn1 2.239185 1_455
O40 S12 1.468536 1_555
O40 Zn1 2.217468 1_465
O41 S10 1.462386 1_555
O41 Zn1 2.245669 1_565
O42 S4 1.510944 1_555
O42 Zn2 2.400892 1_545
O43 S5 1.492413 1_555
O43 Zn2 2.345832 1_445
O44 S6 1.488433 1_555
O44 Zn2 2.235103 1_555
O45 S7 1.488997 1_555
O45 Zn3 2.271113 1_655
O46 S8 1.496115 1_555
O46 Zn3 2.295725 1_645
O47 S9 1.507920 1_555
O47 Zn3 2.406059 1_545
O48 Si1 1.609230 1_555
O48 Zn4 1.910348 1_555
O49 S2 1.462942 1_555
O49 Zn4 2.214974 1_555
O50 S3 1.458000 1_555
O50 Zn4 2.173735 1_555
O51 S0 1.464869 1_555
O51 Zn5 2.213433 1_555
O52 S1 1.461835 1_555
O52 Zn5 2.167266 1_555
O53 Si0 1.615414 1_555
O53 Zn5 1.914771 1_555
O54 S10 1.473820 1_555
O54 Zn6 2.177271 1_555
O55 S11 1.484378 1_655
O55 Zn6 2.186154 1_555
O56 S12 1.475874 1_545
O56 Zn6 2.236619 1_555
O57 S13 1.473270 1_545
O57 Zn7 2.300284 1_555
O58 Si2 1.664210 1_555
O58 Zn7 2.010853 1_555
O59 S14 1.472568 1_655
O59 Zn7 2.258368 1_555
O60 S9 1.502180 1_555
O60 Zn8 2.144287 1_555
O61 S7 1.528384 1_455
O61 Zn8 2.272059 1_555
O62 S8 1.502633 1_565
O62 Zn8 2.183183 1_555
O63 S5 1.499189 1_565
O63 Zn9 2.248970 1_555
O64 S6 1.517039 1_555
O64 Zn9 2.275545 1_555
O65 S4 1.496095 1_455
O65 Zn9 2.152617 1_555
O66 Si0 1.728812 1_565
O66 Ta0 1.899537 1_555
O67 S0 1.561692 1_555
O67 Ta0 2.015586 1_555
O68 S1 1.555459 1_455
O68 Ta0 2.005666 1_555
O69 S2 1.565653 1_555
O69 Ta1 2.017728 1_555
O70 S3 1.560644 1_455
O70 Ta1 2.004545 1_555
O71 Si1 1.781951 1_565
O71 Ta1 1.841260 1_555
