# generated using pymatgen
data_MgMo2(WS4)2
_symmetry_space_group_name_H-M   'P 1'
_cell_length_a   3.19255200
_cell_length_b   3.19254039
_cell_length_c   43.69454500
_cell_angle_alpha   89.99959519
_cell_angle_beta   89.99982766
_cell_angle_gamma   120.00023628
_symmetry_Int_Tables_number   1
_chemical_formula_structural   MgMo2(WS4)2
_chemical_formula_sum   'Mg1 Mo2 W2 S8'
_cell_volume   385.68362421
_cell_formula_units_Z   1
loop_
 _symmetry_equiv_pos_site_id
 _symmetry_equiv_pos_as_xyz
  1  'x, y, z'
loop_
 _atom_site_type_symbol
 _atom_site_label
 _atom_site_symmetry_multiplicity
 _atom_site_fract_x
 _atom_site_fract_y
 _atom_site_fract_z
 _atom_site_occupancy
  Mg  Mg0  1  0.33331900  0.66663800  0.56556800  1
  Mo  Mo0  1  0.33332500  0.66664100  0.09385900  1
  Mo  Mo1  1  0.66667300  0.33334700  0.66346200  1
  W  W0  1  0.33332500  0.66665500  0.45918300  1
  W  W1  1  0.66668100  0.33336800  0.28188700  1
  S  S0  1  0.33334400  0.66669700  0.31786400  1
  S  S1  1  0.33333600  0.66667500  0.69905200  1
  S  S2  1  0.66666300  0.33331200  0.05806200  1
  S  S3  1  0.66666200  0.33332300  0.42321600  1
  S  S4  1  0.66665500  0.33330200  0.12964400  1
  S  S5  1  0.66665200  0.33331100  0.49534500  1
  S  S6  1  0.33335600  0.66671200  0.24594100  1
  S  S7  1  0.33334300  0.66668600  0.62751700  1
loop_
_geom_bond_atom_site_label_1
_geom_bond_atom_site_label_2
_geom_bond_distance
_geom_bond_site_symmetry_2
Mg0 S7 2.706833 1_555
Mo0 S4 2.417084 1_565
Mo0 S4 2.417087 1_455
Mo0 S4 2.417094 1_555
Mo0 S2 2.417421 1_565
Mo0 S2 2.417428 1_455
Mo0 S2 2.417434 1_555
Mo1 S1 2.411581 1_545
Mo1 S1 2.411587 1_655
Mo1 S1 2.411588 1_555
Mo1 S7 2.421612 1_545
Mo1 S7 2.421616 1_655
Mo1 S7 2.421622 1_555
S0 W1 2.422517 1_565
S0 W1 2.422526 1_455
S0 W1 2.422529 1_555
S3 W0 2.422227 1_545
S3 W0 2.422243 1_655
S3 W0 2.422251 1_555
S5 W0 2.427762 1_545
S5 W0 2.427782 1_655
S5 W0 2.427787 1_555
S6 W1 2.421630 1_565
S6 W1 2.421651 1_555
S6 W1 2.421655 1_455
