# generated using pymatgen
data_Li3Mn3(PO4)4
_symmetry_space_group_name_H-M   'P 1'
_cell_length_a   8.16513100
_cell_length_b   7.72399000
_cell_length_c   10.01496730
_cell_angle_alpha   87.26255708
_cell_angle_beta   90.00000000
_cell_angle_gamma   90.00000000
_symmetry_Int_Tables_number   1
_chemical_formula_structural   Li3Mn3(PO4)4
_chemical_formula_sum   'Li6 Mn6 P8 O32'
_cell_volume   630.89709742
_cell_formula_units_Z   2
loop_
 _symmetry_equiv_pos_site_id
 _symmetry_equiv_pos_as_xyz
  1  'x, y, z'
loop_
 _atom_site_type_symbol
 _atom_site_label
 _atom_site_symmetry_multiplicity
 _atom_site_fract_x
 _atom_site_fract_y
 _atom_site_fract_z
 _atom_site_occupancy
  Li  Li0  1  0.36947100  0.66610200  0.17488400  1
  Li  Li1  1  0.86947100  0.33389800  0.82511600  1
  Li  Li2  1  0.14185800  0.15288700  0.42318000  1
  Li  Li3  1  0.13665400  0.16222400  0.92265700  1
  Li  Li4  1  0.64185800  0.84711300  0.57682000  1
  Li  Li5  1  0.63665400  0.83777600  0.07734300  1
  Mn  Mn0  1  0.36104000  0.65933000  0.68840600  1
  Mn  Mn1  1  0.86104000  0.34067000  0.31159400  1
  Mn  Mn2  1  0.49253200  0.24542100  0.37778200  1
  Mn  Mn3  1  0.51109300  0.22148500  0.87735600  1
  Mn  Mn4  1  0.99253200  0.75457900  0.62221800  1
  Mn  Mn5  1  0.01109300  0.77851500  0.12264400  1
  P  P0  1  0.80647500  0.94311500  0.35921400  1
  P  P1  1  0.82146700  0.94047500  0.86002900  1
  P  P2  1  0.32146700  0.05952500  0.13997100  1
  P  P3  1  0.30647500  0.05688500  0.64078600  1
  P  P4  1  0.68210800  0.43959800  0.10208700  1
  P  P5  1  0.68212200  0.43391800  0.61554300  1
  P  P6  1  0.18212200  0.56608200  0.38445700  1
  P  P7  1  0.18210800  0.56040200  0.89791300  1
  O  O0  1  0.88005800  0.79691000  0.96733200  1
  O  O1  1  0.86317800  0.80020000  0.46507800  1
  O  O2  1  0.81906500  0.86741600  0.21817700  1
  O  O3  1  0.43344500  0.90493800  0.14878300  1
  O  O4  1  0.81714400  0.84707400  0.72261200  1
  O  O5  1  0.42176000  0.89556500  0.63717600  1
  O  O6  1  0.14904700  0.70333900  0.77665900  1
  O  O7  1  0.12763100  0.71328600  0.28407200  1
  O  O8  1  0.17599000  0.63898300  0.52923800  1
  O  O9  1  0.56086700  0.59150800  0.61409100  1
  O  O10  1  0.19023700  0.65592200  0.02919000  1
  O  O11  1  0.56751200  0.58994300  0.09905000  1
  O  O12  1  0.85492400  0.49117800  0.64883400  1
  O  O13  1  0.35987800  0.50987500  0.84745600  1
  O  O14  1  0.85987800  0.49012500  0.15254400  1
  O  O15  1  0.35492400  0.50882200  0.35116600  1
  O  O16  1  0.06086700  0.40849200  0.38590900  1
  O  O17  1  0.67599000  0.36101700  0.47076200  1
  O  O18  1  0.06751200  0.41005700  0.90095000  1
  O  O19  1  0.62763100  0.28671400  0.71592800  1
  O  O20  1  0.69023700  0.34407800  0.97081000  1
  O  O21  1  0.64904700  0.29666100  0.22334100  1
  O  O22  1  0.36317800  0.19980000  0.53492200  1
  O  O23  1  0.38005800  0.20309000  0.03266800  1
  O  O24  1  0.31906500  0.13258400  0.78182300  1
  O  O25  1  0.93344500  0.09506200  0.85121700  1
  O  O26  1  0.31714400  0.15292600  0.27738800  1
  O  O27  1  0.92176000  0.10443500  0.36282400  1
  O  O28  1  0.63217600  0.99379600  0.39719900  1
  O  O29  1  0.13217600  0.00620400  0.60280100  1
  O  O30  1  0.14226800  0.01838600  0.10267300  1
  O  O31  1  0.64226800  0.98161400  0.89732700  1
loop_
_geom_bond_atom_site_label_1
_geom_bond_atom_site_label_2
_geom_bond_distance
_geom_bond_site_symmetry_2
Li0 O11 1.892169 1_555
Li0 O3 1.923094 1_555
Li0 O10 2.070728 1_555
Li0 O15 2.098071 1_555
Li0 O7 2.294761 1_555
Li1 O18 1.892169 1_655
Li1 O25 1.923094 1_555
Li1 O20 2.070728 1_555
Li1 O12 2.098071 1_555
Li1 O19 2.294761 1_555
Li2 O27 1.938224 1_455
Li2 O26 2.044574 1_555
Li2 O29 2.081165 1_555
Li2 O16 2.098590 1_555
Li2 O22 2.165188 1_555
Li3 O25 1.889311 1_455
Li3 O18 1.997654 1_555
Li3 O24 2.071464 1_555
Li3 O30 2.072533 1_556
Li3 O23 2.301430 1_556
Li4 O5 1.938224 1_555
Li4 O4 2.044574 1_555
Li4 O28 2.081165 1_555
Li4 O9 2.098590 1_555
Li4 O1 2.165188 1_555
Li5 O3 1.889311 1_555
Li5 O11 1.997654 1_555
Li5 O2 2.071464 1_555
Li5 O31 2.072533 1_554
Li5 O0 2.301430 1_554
Mn0 O9 1.878232 1_555
Mn0 O13 1.922065 1_555
Mn0 O5 1.936250 1_555
Mn0 O6 1.980310 1_555
Mn0 O8 2.207409 1_555
Mn1 O16 1.878232 1_655
Mn1 O14 1.922065 1_555
Mn1 O27 1.936250 1_555
Mn1 O21 1.980310 1_555
Mn1 O17 2.207409 1_555
Mn2 O26 1.908075 1_555
Mn2 O22 1.914011 1_555
Mn2 O17 1.996902 1_555
Mn2 O21 2.030692 1_555
Mn2 O28 2.253703 1_545
Mn2 O15 2.328287 1_555
Mn3 O23 1.887647 1_556
Mn3 O19 1.922288 1_555
Mn3 O24 1.976885 1_555
Mn3 O20 1.999215 1_555
Mn3 O31 2.141145 1_545
Mn3 O13 2.551914 1_555
Mn4 O4 1.908075 1_555
Mn4 O1 1.914011 1_555
Mn4 O8 1.996902 1_655
Mn4 O6 2.030692 1_655
Mn4 O29 2.253703 1_665
Mn4 O12 2.328287 1_555
Mn5 O0 1.887647 1_454
Mn5 O7 1.922288 1_555
Mn5 O2 1.976885 1_455
Mn5 O10 1.999215 1_555
Mn5 O30 2.141145 1_565
Mn5 O14 2.551914 1_455
O0 P1 1.580992 1_555
O1 P0 1.563707 1_555
O2 P0 1.557700 1_555
O3 P2 1.503130 1_565
O4 P1 1.584468 1_555
O5 P3 1.563422 1_565
O6 P7 1.624309 1_555
O7 P6 1.546700 1_555
O8 P6 1.581137 1_555
O9 P5 1.568559 1_555
O10 P7 1.539457 1_554
O11 P4 1.490504 1_555
O12 P5 1.520407 1_555
O13 P7 1.591665 1_555
O14 P4 1.591665 1_555
O15 P6 1.520407 1_555
O16 P6 1.568559 1_555
O17 P5 1.581137 1_555
O18 P7 1.490504 1_555
O19 P5 1.546700 1_555
O20 P4 1.539457 1_556
O21 P4 1.624309 1_555
O22 P3 1.563707 1_555
O23 P2 1.580992 1_555
O24 P3 1.557700 1_555
O25 P1 1.503130 1_545
O26 P2 1.584468 1_555
O27 P0 1.563422 1_545
O28 P0 1.528924 1_555
O29 P3 1.528924 1_555
O30 P2 1.546850 1_555
O31 P1 1.546850 1_555
