# generated using pymatgen
data_MgV3CoO8
_symmetry_space_group_name_H-M   'P 1'
_cell_length_a   6.57623654
_cell_length_b   6.57623688
_cell_length_c   6.69857943
_cell_angle_alpha   73.71081988
_cell_angle_beta   106.28917802
_cell_angle_gamma   146.09650278
_symmetry_Int_Tables_number   1
_chemical_formula_structural   MgV3CoO8
_chemical_formula_sum   'Mg1 V3 Co1 O8'
_cell_volume   154.48642048
_cell_formula_units_Z   1
loop_
 _symmetry_equiv_pos_site_id
 _symmetry_equiv_pos_as_xyz
  1  'x, y, z'
loop_
 _atom_site_type_symbol
 _atom_site_label
 _atom_site_symmetry_multiplicity
 _atom_site_fract_x
 _atom_site_fract_y
 _atom_site_fract_z
 _atom_site_occupancy
  Mg  Mg0  1  0.18254800  0.81745200  0.02120700  1
  V  V0  1  0.40449900  0.59550100  0.28724400  1
  V  V1  1  0.59374600  0.40625400  0.69195900  1
  V  V2  1  0.29802900  0.70197100  0.68738100  1
  Co  Co0  1  0.70381600  0.29618400  0.32411400  1
  O  O0  1  0.13407100  0.86592900  0.71143500  1
  O  O1  1  0.24961400  0.75038600  0.34404400  1
  O  O2  1  0.34869600  0.65130400  0.01181400  1
  O  O3  1  0.44598200  0.55401800  0.63548900  1
  O  O4  1  0.55014300  0.44985700  0.35985400  1
  O  O5  1  0.63951200  0.36048800  0.99375300  1
  O  O6  1  0.75279800  0.24720200  0.65276500  1
  O  O7  1  0.88404700  0.11595300  0.30893800  1
loop_
_geom_bond_atom_site_label_1
_geom_bond_atom_site_label_2
_geom_bond_distance
_geom_bond_site_symmetry_2
Mg0 O0 1.983821 1_554
Mg0 O5 1.986211 1_454
Mg0 O5 1.986211 1_564
Mg0 O1 2.078092 1_555
Mg0 O2 2.109617 1_555
Co0 O1 1.995284 1_655
Co0 O1 1.995284 1_545
Co0 O4 2.016593 1_555
Co0 O6 2.104928 1_555
Co0 O5 2.121725 1_554
Co0 O7 2.299351 1_555
O0 V1 1.977889 1_455
O0 V1 1.977889 1_565
O0 V2 2.115619 1_555
O1 V0 2.092042 1_555
O1 V2 2.199744 1_555
O2 V0 1.771228 1_555
O2 V2 2.077712 1_554
O3 V1 1.785117 1_555
O3 V2 1.991251 1_555
O3 V0 2.236092 1_555
O4 V0 1.752544 1_555
O4 V1 2.129373 1_555
O5 V1 1.932803 1_555
O6 V2 1.994157 1_655
O6 V2 1.994157 1_545
O6 V1 2.093123 1_555
O7 V0 1.945690 1_655
O7 V0 1.945690 1_545
