# generated using pymatgen
data_Na4CaSi2GeSO12
_symmetry_space_group_name_H-M   'P 1'
_cell_length_a   9.59277924
_cell_length_b   9.28473450
_cell_length_c   22.16220821
_cell_angle_alpha   95.17445849
_cell_angle_beta   90.00000000
_cell_angle_gamma   121.10371015
_symmetry_Int_Tables_number   1
_chemical_formula_structural   Na4CaSi2GeSO12
_chemical_formula_sum   'Na24 Ca6 Si12 Ge6 S6 O72'
_cell_volume   1680.72471905
_cell_formula_units_Z   6
loop_
 _symmetry_equiv_pos_site_id
 _symmetry_equiv_pos_as_xyz
  1  'x, y, z'
loop_
 _atom_site_type_symbol
 _atom_site_label
 _atom_site_symmetry_multiplicity
 _atom_site_fract_x
 _atom_site_fract_y
 _atom_site_fract_z
 _atom_site_occupancy
  Na  Na0  1  0.66296652  0.02007939  0.25209628  1
  Na  Na1  1  0.36951009  0.36740169  0.24832309  1
  Na  Na2  1  0.98605000  0.63397748  0.23887335  1
  Na  Na3  1  0.64792748  0.63397748  0.73887335  1
  Na  Na4  1  0.99789160  0.36740169  0.74832309  1
  Na  Na5  1  0.35711287  0.02007939  0.75209628  1
  Na  Na6  1  0.32963352  0.35341239  0.58542928  1
  Na  Na7  1  0.03617709  0.70073469  0.58165609  1
  Na  Na8  1  0.65271700  0.96731048  0.57220635  1
  Na  Na9  1  0.31459448  0.96731048  0.07220635  1
  Na  Na10  1  0.66455860  0.70073469  0.08165609  1
  Na  Na11  1  0.02377987  0.35341239  0.08542928  1
  Na  Na12  1  0.99629952  0.68674639  0.91876328  1
  Na  Na13  1  0.70284309  0.03406869  0.91499009  1
  Na  Na14  1  0.31938300  0.30064448  0.90554035  1
  Na  Na15  1  0.98126048  0.30064448  0.40554035  1
  Na  Na16  1  0.33122460  0.03406869  0.41499009  1
  Na  Na17  1  0.69044587  0.68674639  0.41876328  1
  Na  Na18  1  0.99310755  0.98746901  0.49926265  1
  Na  Na19  1  0.99436145  0.98746901  0.99926265  1
  Na  Na20  1  0.65977455  0.32080201  0.83259565  1
  Na  Na21  1  0.66102845  0.32080201  0.33259565  1
  Na  Na22  1  0.32644055  0.65413601  0.16592965  1
  Na  Na23  1  0.32769445  0.65413601  0.66592965  1
  Ca  Ca0  1  -0.00067153  0.99651815  0.34952758  1
  Ca  Ca1  1  0.99718968  0.99651815  0.84952758  1
  Ca  Ca2  1  0.66599547  0.32985115  0.68286058  1
  Ca  Ca3  1  0.66385668  0.32985115  0.18286058  1
  Ca  Ca4  1  0.33266147  0.66318515  0.01619458  1
  Ca  Ca5  1  0.33052268  0.66318515  0.51619458  1
  Si  Si0  1  0.30507775  0.99579592  0.25357458  1
  Si  Si1  1  0.02194596  0.30500202  0.25325863  1
  Si  Si2  1  0.28305606  0.30500202  0.75325863  1
  Si  Si3  1  0.69071817  0.99579592  0.75357458  1
  Si  Si4  1  0.97174475  0.32912892  0.58690758  1
  Si  Si5  1  0.68861296  0.63833502  0.58659163  1
  Si  Si6  1  0.94972306  0.63833502  0.08659163  1
  Si  Si7  1  0.35738517  0.32912892  0.08690758  1
  Si  Si8  1  0.63841075  0.66246292  0.92024158  1
  Si  Si9  1  0.35527896  0.97166902  0.91992563  1
  Si  Si10  1  0.61638906  0.97166902  0.41992563  1
  Si  Si11  1  0.02405117  0.66246292  0.42024158  1
  Ge  Ge0  1  0.95570338  0.02697422  0.64706592  1
  Ge  Ge1  1  0.07127084  0.02697422  0.14706592  1
  Ge  Ge2  1  0.62237038  0.36030722  0.98039892  1
  Ge  Ge3  1  0.73793784  0.36030722  0.48039892  1
  Ge  Ge4  1  0.28903638  0.69364122  0.31373292  1
  Ge  Ge5  1  0.40460384  0.69364122  0.81373292  1
  S  S0  1  0.68280839  0.70210649  0.24936261  1
  S  S1  1  0.01929810  0.70210649  0.74936261  1
  S  S2  1  0.34947539  0.03543949  0.58269561  1
  S  S3  1  0.68596510  0.03543949  0.08269561  1
  S  S4  1  0.01614139  0.36877349  0.91602961  1
  S  S5  1  0.35263110  0.36877349  0.41602961  1
  O  O0  1  0.22002754  0.01231423  0.31297869  1
  O  O1  1  0.75840719  0.79015377  0.30945568  1
  O  O2  1  0.98662037  0.19805259  0.30929561  1
  O  O3  1  0.21143222  0.19805259  0.80929561  1
  O  O4  1  0.03174658  0.79015377  0.80945568  1
  O  O5  1  0.79228669  0.01231423  0.81297869  1
  O  O6  1  0.78069448  0.97610256  0.68963272  1
  O  O7  1  0.13844521  0.19648014  0.69044883  1
  O  O8  1  0.01035587  0.79360330  0.69964469  1
  O  O9  1  0.78324742  0.79360330  0.19964469  1
  O  O10  1  0.05803493  0.19648014  0.19044883  1
  O  O11  1  0.19540808  0.97610256  0.18963272  1
  O  O12  1  0.88669454  0.34564723  0.64631169  1
  O  O13  1  0.42507419  0.12348677  0.64278868  1
  O  O14  1  0.65328737  0.53138559  0.64262861  1
  O  O15  1  0.87809922  0.53138559  0.14262861  1
  O  O16  1  0.69841358  0.12348677  0.14278868  1
  O  O17  1  0.45895369  0.34564723  0.14631169  1
  O  O18  1  0.44736148  0.30943556  0.02296572  1
  O  O19  1  0.80511221  0.52981314  0.02378183  1
  O  O20  1  0.67702287  0.12693630  0.03297769  1
  O  O21  1  0.44991442  0.12693630  0.53297769  1
  O  O22  1  0.72470193  0.52981314  0.52378183  1
  O  O23  1  0.86207508  0.30943556  0.52296572  1
  O  O24  1  0.55336054  0.67898123  0.97964569  1
  O  O25  1  0.09174019  0.45682077  0.97612268  1
  O  O26  1  0.31995337  0.86471959  0.97596261  1
  O  O27  1  0.54476522  0.86471959  0.47596261  1
  O  O28  1  0.36507958  0.45682077  0.47612268  1
  O  O29  1  0.12561969  0.67898123  0.47964569  1
  O  O30  1  0.11402748  0.64276956  0.35629972  1
  O  O31  1  0.47177821  0.86314714  0.35711583  1
  O  O32  1  0.34368887  0.46027030  0.36631169  1
  O  O33  1  0.11658042  0.46027030  0.86631169  1
  O  O34  1  0.39136793  0.86314714  0.85711583  1
  O  O35  1  0.52874108  0.64276956  0.85629972  1
  O  O36  1  0.97957987  0.80670780  0.41699592  1
  O  O37  1  0.79730553  0.00953408  0.40875096  1
  O  O38  1  0.20258326  0.19773738  0.41727366  1
  O  O39  1  0.99515412  0.19773738  0.91727366  1
  O  O40  1  0.21222855  0.00953408  0.90875096  1
  O  O41  1  0.82712793  0.80670780  0.91699592  1
  O  O42  1  0.95322611  0.13549632  0.58278603  1
  O  O43  1  0.18761300  0.02129170  0.57543519  1
  O  O44  1  0.87334155  0.82720177  0.59595735  1
  O  O45  1  0.95386022  0.82720177  0.09595735  1
  O  O46  1  0.83367870  0.02129170  0.07543519  1
  O  O47  1  0.18227020  0.13549632  0.08278603  1
  O  O48  1  0.64624687  0.14004080  0.75032892  1
  O  O49  1  0.46397253  0.34286708  0.74208396  1
  O  O50  1  0.86925026  0.53107038  0.75060666  1
  O  O51  1  0.66182112  0.53107038  0.25060666  1
  O  O52  1  0.87889555  0.34286708  0.24208396  1
  O  O53  1  0.49379493  0.14004080  0.25032892  1
  O  O54  1  0.61989311  0.46882932  0.91611903  1
  O  O55  1  0.85428000  0.35462470  0.90876819  1
  O  O56  1  0.54000855  0.16053477  0.92929035  1
  O  O57  1  0.62052722  0.16053477  0.42929035  1
  O  O58  1  0.50034570  0.35462470  0.40876819  1
  O  O59  1  0.84893720  0.46882932  0.41611903  1
  O  O60  1  0.31291287  0.47337480  0.08366292  1
  O  O61  1  0.13063853  0.67620108  0.07541796  1
  O  O62  1  0.53591626  0.86440438  0.08394066  1
  O  O63  1  0.32848712  0.86440438  0.58394066  1
  O  O64  1  0.54556155  0.67620108  0.57541796  1
  O  O65  1  0.16046093  0.47337480  0.58366292  1
  O  O66  1  0.28655911  0.80216332  0.24945303  1
  O  O67  1  0.52094600  0.68795870  0.24210219  1
  O  O68  1  0.20667455  0.49386877  0.26262435  1
  O  O69  1  0.28719322  0.49386877  0.76262435  1
  O  O70  1  0.16701170  0.68795870  0.74210219  1
  O  O71  1  0.51560320  0.80216332  0.74945303  1
loop_
_geom_bond_atom_site_label_1
_geom_bond_atom_site_label_2
_geom_bond_distance
_geom_bond_site_symmetry_2
Na0 O53 2.398130 1_555
Na0 O67 2.636355 1_545
Na0 O16 2.643513 1_555
Na0 O52 2.651018 1_555
Na0 O2 2.880709 1_555
Na0 O31 2.958809 1_545
Na1 O68 2.397314 1_555
Na1 O51 2.399639 1_555
Na1 O17 2.446401 1_555
Na1 O67 2.567985 1_555
Na1 O32 2.730651 1_555
Na1 O10 2.797322 1_555
Na1 O53 2.914942 1_555
Na2 O15 2.267984 1_555
Na2 O52 2.351899 1_555
Na2 O66 2.467099 1_655
Na2 O51 2.762011 1_555
Na2 O30 2.853871 1_655
Na3 O14 2.267986 1_555
Na3 O49 2.351898 1_555
Na3 O71 2.467107 1_555
Na3 O50 2.762020 1_555
Na3 O35 2.853875 1_555
Na4 O69 2.397306 1_655
Na4 O50 2.399631 1_555
Na4 O12 2.446397 1_555
Na4 O70 2.567984 1_655
Na4 O33 2.730648 1_655
Na4 O7 2.797322 1_655
Na4 O48 2.914935 1_555
Na5 O48 2.398139 1_555
Na5 O70 2.636356 1_545
Na5 O13 2.643514 1_555
Na5 O49 2.651016 1_555
Na5 O3 2.880709 1_555
Na5 O34 2.958806 1_545
Na6 O65 2.398145 1_555
Na6 O43 2.636355 1_555
Na6 O28 2.643496 1_555
Na6 O64 2.651019 1_555
Na6 O14 2.880709 1_555
Na6 O7 2.958809 1_555
Na7 O44 2.397314 1_455
Na7 O63 2.399631 1_555
Na7 O29 2.446375 1_555
Na7 O43 2.567985 1_565
Na7 O8 2.730651 1_555
Na7 O22 2.797322 1_455
Na7 O65 2.914928 1_555
Na8 O27 2.267965 1_555
Na8 O64 2.351892 1_555
Na8 O42 2.467099 1_565
Na8 O63 2.762025 1_555
Na8 O6 2.853871 1_555
Na9 O26 2.267961 1_554
Na9 O61 2.351895 1_555
Na9 O47 2.467107 1_565
Na9 O62 2.762007 1_555
Na9 O11 2.853875 1_555
Na10 O45 2.397306 1_555
Na10 O62 2.399647 1_555
Na10 O24 2.446383 1_554
Na10 O46 2.567984 1_565
Na10 O9 2.730648 1_555
Na10 O19 2.797322 1_555
Na10 O60 2.914943 1_555
Na11 O60 2.398127 1_555
Na11 O46 2.636356 1_455
Na11 O25 2.643495 1_554
Na11 O61 2.651023 1_555
Na11 O15 2.880709 1_455
Na11 O10 2.958806 1_555
Na12 O41 2.398130 1_555
Na12 O55 2.636364 1_555
Na12 O4 2.643513 1_655
Na12 O40 2.651018 1_665
Na12 O26 2.880709 1_655
Na12 O19 2.958790 1_556
Na13 O56 2.397296 1_555
Na13 O39 2.399639 1_555
Na13 O5 2.446401 1_555
Na13 O55 2.567980 1_555
Na13 O20 2.730625 1_556
Na13 O34 2.797322 1_545
Na13 O41 2.914942 1_545
Na14 O3 2.267984 1_555
Na14 O40 2.351899 1_555
Na14 O54 2.467106 1_555
Na14 O39 2.762011 1_455
Na14 O18 2.853858 1_556
Na15 O2 2.267986 1_555
Na15 O37 2.351898 1_555
Na15 O59 2.467090 1_555
Na15 O38 2.762020 1_655
Na15 O23 2.853850 1_555
Na16 O57 2.397314 1_555
Na16 O38 2.399631 1_555
Na16 O0 2.446397 1_555
Na16 O58 2.567980 1_555
Na16 O21 2.730630 1_555
Na16 O31 2.797322 1_545
Na16 O36 2.914935 1_445
Na17 O36 2.398139 1_555
Na17 O58 2.636362 1_555
Na17 O1 2.643514 1_555
Na17 O37 2.651016 1_565
Na17 O27 2.880709 1_555
Na17 O22 2.958797 1_555
Na18 O36 2.319642 1_555
Na18 O42 2.355018 1_565
Na18 O43 2.393503 1_665
Na18 O44 2.633514 1_555
Na18 O38 2.781674 1_665
Na18 O37 2.839967 1_565
Na19 O41 2.319642 1_555
Na19 O47 2.355018 1_666
Na19 O46 2.393503 1_566
Na19 O45 2.633514 1_556
Na19 O39 2.781674 1_565
Na19 O40 2.839967 1_665
Na20 O48 2.319642 1_555
Na20 O54 2.355018 1_555
Na20 O55 2.393503 1_555
Na20 O56 2.633514 1_555
Na20 O50 2.781674 1_555
Na20 O49 2.839967 1_555
Na21 O53 2.319642 1_555
Na21 O59 2.355018 1_555
Na21 O58 2.393503 1_555
Na21 O57 2.633514 1_555
Na21 O51 2.781674 1_555
Na21 O52 2.839967 1_555
Na22 O60 2.319642 1_555
Na22 O66 2.355018 1_555
Na22 O67 2.393503 1_555
Na22 O68 2.633514 1_555
Na22 O62 2.781674 1_555
Na22 O61 2.839967 1_555
Na23 O65 2.319642 1_555
Na23 O71 2.355018 1_555
Na23 O70 2.393503 1_555
Na23 O69 2.633514 1_555
Na23 O63 2.781674 1_555
Na23 O64 2.839967 1_555
Ca0 O2 2.201784 1_465
Ca0 O0 2.204638 1_565
Ca0 O1 2.217901 1_455
Ca0 O38 2.297116 1_565
Ca0 O36 2.346885 1_455
Ca0 O37 2.388801 1_465
Ca1 O3 2.201784 1_665
Ca1 O5 2.204638 1_565
Ca1 O4 2.217901 1_655
Ca1 O39 2.297116 1_565
Ca1 O41 2.346885 1_555
Ca1 O40 2.388801 1_665
Ca2 O14 2.201784 1_555
Ca2 O12 2.204638 1_555
Ca2 O13 2.217901 1_555
Ca2 O50 2.297116 1_555
Ca2 O48 2.346885 1_555
Ca2 O49 2.388801 1_555
Ca3 O15 2.201784 1_555
Ca3 O17 2.204638 1_555
Ca3 O16 2.217901 1_555
Ca3 O51 2.297116 1_555
Ca3 O53 2.346885 1_555
Ca3 O52 2.388801 1_555
Ca4 O26 2.201784 1_554
Ca4 O24 2.204638 1_554
Ca4 O25 2.217901 1_554
Ca4 O62 2.297116 1_555
Ca4 O60 2.346885 1_555
Ca4 O61 2.388801 1_555
Ca5 O27 2.201784 1_555
Ca5 O29 2.204638 1_555
Ca5 O28 2.217901 1_555
Ca5 O63 2.297116 1_555
Ca5 O65 2.346885 1_555
Ca5 O64 2.388801 1_555
Ge0 O6 1.786785 1_545
Ge0 O42 1.824531 1_555
Ge0 O7 1.830559 1_655
Ge0 O44 1.858642 1_545
Ge1 O11 1.786785 1_545
Ge1 O47 1.824531 1_555
Ge1 O10 1.830559 1_555
Ge1 O45 1.858642 1_445
Ge2 O18 1.786785 1_556
Ge2 O54 1.824531 1_555
Ge2 O19 1.830559 1_556
Ge2 O56 1.858642 1_555
Ge3 O23 1.786785 1_555
Ge3 O59 1.824531 1_555
Ge3 O22 1.830559 1_555
Ge3 O57 1.858642 1_555
Ge4 O30 1.786785 1_555
Ge4 O66 1.824531 1_555
Ge4 O31 1.830559 1_555
Ge4 O68 1.858642 1_555
Ge5 O35 1.786785 1_555
Ge5 O71 1.824531 1_555
Ge5 O34 1.830559 1_555
Ge5 O69 1.858642 1_555
O0 Si0 1.585958 1_545
O1 S0 1.469351 1_555
O2 Si1 1.586815 1_655
O3 Si2 1.586815 1_555
O4 S1 1.469351 1_555
O5 Si3 1.585958 1_545
O6 Si3 1.703785 1_555
O7 Si2 1.783306 1_555
O8 S1 1.478944 1_555
O9 S0 1.478944 1_555
O10 Si1 1.783306 1_555
O11 Si0 1.703785 1_555
O12 Si4 1.585958 1_555
O13 S2 1.469351 1_555
O14 Si5 1.586815 1_555
O15 Si6 1.586815 1_555
O16 S3 1.469351 1_555
O17 Si7 1.585958 1_555
O18 Si7 1.703785 1_555
O19 Si6 1.783306 1_555
O20 S3 1.478944 1_555
O21 S2 1.478944 1_555
O22 Si5 1.783306 1_555
O23 Si4 1.703785 1_555
O24 Si8 1.585958 1_555
O25 S4 1.469351 1_555
O26 Si9 1.586815 1_555
O27 Si10 1.586815 1_555
O28 S5 1.469351 1_555
O29 Si11 1.585958 1_555
O30 Si11 1.703785 1_555
O31 Si10 1.783306 1_555
O32 S5 1.478944 1_555
O33 S4 1.478944 1_555
O34 Si9 1.783306 1_555
O35 Si8 1.703785 1_555
O36 Si11 1.608880 1_655
O37 Si10 1.606918 1_545
O38 S5 1.496891 1_555
O39 S4 1.496895 1_655
O40 Si9 1.606908 1_545
O41 Si8 1.608887 1_555
O42 Si4 1.706602 1_555
O43 S2 1.496501 1_555
O44 Si5 1.726881 1_555
O45 Si6 1.726886 1_555
O46 S3 1.496491 1_555
O47 Si7 1.706607 1_555
O48 Si3 1.608880 1_545
O49 Si2 1.606918 1_555
O50 S1 1.496891 1_655
O51 S0 1.496895 1_555
O52 Si1 1.606908 1_655
O53 Si0 1.608887 1_545
O54 Si8 1.706615 1_555
O55 S4 1.496489 1_655
O56 Si9 1.726881 1_545
O57 Si10 1.726872 1_545
O58 S5 1.496508 1_555
O59 Si11 1.706606 1_655
O60 Si7 1.608893 1_555
O61 Si6 1.606902 1_455
O62 S3 1.496892 1_565
O63 S2 1.496884 1_565
O64 Si5 1.606920 1_555
O65 Si4 1.608880 1_455
O66 Si0 1.706602 1_555
O67 S0 1.496501 1_555
O68 Si1 1.726881 1_555
O69 Si2 1.726886 1_555
O70 S1 1.496491 1_555
O71 Si3 1.706607 1_555
