# generated using pymatgen
data_MgTi2(FeO3)2
_symmetry_space_group_name_H-M   'P 1'
_cell_length_a   2.91630858
_cell_length_b   5.50508368
_cell_length_c   8.39327099
_cell_angle_alpha   90.00000000
_cell_angle_beta   90.00000000
_cell_angle_gamma   105.34699944
_symmetry_Int_Tables_number   1
_chemical_formula_structural   MgTi2(FeO3)2
_chemical_formula_sum   'Mg1 Ti2 Fe2 O6'
_cell_volume   129.94486284
_cell_formula_units_Z   1
loop_
 _symmetry_equiv_pos_site_id
 _symmetry_equiv_pos_as_xyz
  1  'x, y, z'
loop_
 _atom_site_type_symbol
 _atom_site_label
 _atom_site_symmetry_multiplicity
 _atom_site_fract_x
 _atom_site_fract_y
 _atom_site_fract_z
 _atom_site_occupancy
  Mg  Mg0  1  0.46047307  0.91864725  0.75000000  1
  Ti  Ti0  1  0.02761148  0.05405858  0.07101164  1
  Ti  Ti1  1  0.02761148  0.05405858  0.42898836  1
  Fe  Fe0  1  0.80273132  0.60405154  0.25000000  1
  Fe  Fe1  1  0.20615564  0.40984265  0.75000000  1
  O  O0  1  0.40547841  0.80963332  0.40631197  1
  O  O1  1  0.40547841  0.80963332  0.09368703  1
  O  O2  1  0.84368529  0.68496018  0.75000000  1
  O  O3  1  0.59760646  0.19403951  0.91481043  1
  O  O4  1  0.59760646  0.19403951  0.58518857  1
  O  O5  1  0.14638998  0.29203255  0.25000000  1
loop_
_geom_bond_atom_site_label_1
_geom_bond_atom_site_label_2
_geom_bond_distance
_geom_bond_site_symmetry_2
Mg0 O2 1.914411 1_555
Mg0 O2 1.914575 1_455
Mg0 O3 2.012697 1_565
Mg0 O4 2.012703 1_565
Fe0 O5 2.205931 1_655
Fe0 O5 2.207686 1_555
Fe0 O0 2.244612 1_555
Fe0 O1 2.244617 1_555
Fe0 O0 2.244755 1_655
Fe0 O1 2.244760 1_655
Fe1 O2 2.063663 1_455
Fe1 O2 2.063992 1_555
Fe1 O3 2.312145 1_555
Fe1 O4 2.312150 1_555
Fe1 O3 2.314840 1_455
Fe1 O4 2.314845 1_455
O0 Ti1 1.961136 1_565
O0 Ti1 1.961211 1_665
O1 Ti0 1.961135 1_565
O1 Ti0 1.961210 1_665
O3 Ti0 2.096847 1_656
O3 Ti0 2.097090 1_556
O4 Ti1 2.096841 1_655
O4 Ti1 2.097085 1_555
O5 Ti1 1.962894 1_555
O5 Ti0 1.962894 1_555
