# generated using pymatgen
data_Mn3SbO8
_symmetry_space_group_name_H-M   'P 1'
_cell_length_a   10.56215342
_cell_length_b   10.55921243
_cell_length_c   14.90497877
_cell_angle_alpha   19.51191207
_cell_angle_beta   19.51910855
_cell_angle_gamma   33.81012896
_symmetry_Int_Tables_number   1
_chemical_formula_structural   Mn3SbO8
_chemical_formula_sum   'Mn3 Sb1 O8'
_cell_volume   158.97443443
_cell_formula_units_Z   1
loop_
 _symmetry_equiv_pos_site_id
 _symmetry_equiv_pos_as_xyz
  1  'x, y, z'
loop_
 _atom_site_type_symbol
 _atom_site_label
 _atom_site_symmetry_multiplicity
 _atom_site_fract_x
 _atom_site_fract_y
 _atom_site_fract_z
 _atom_site_occupancy
  Mn  Mn0  1  0.00002100  0.49999600  0.99998000  1
  Mn  Mn1  1  0.50000900  0.00001200  0.99999600  1
  Mn  Mn2  1  0.49996900  0.49999200  0.00001200  1
  Sb  Sb0  1  0.00000500  0.00003300  0.99998700  1
  O  O0  1  0.00104300  0.00080800  0.27257200  1
  O  O1  1  0.97305000  0.49513800  0.28773700  1
  O  O2  1  0.49526700  0.97406700  0.28707300  1
  O  O3  1  0.99903300  0.99921000  0.72735900  1
  O  O4  1  0.52035900  0.52026600  0.23900800  1
  O  O5  1  0.02683900  0.50482900  0.71236200  1
  O  O6  1  0.50479900  0.02589700  0.71288900  1
  O  O7  1  0.47960700  0.47974800  0.76102400  1
loop_
_geom_bond_atom_site_label_1
_geom_bond_atom_site_label_2
_geom_bond_distance
_geom_bond_site_symmetry_2
Mn0 O6 1.947559 1_456
Mn0 O2 1.947563 1_555
Mn0 O0 1.976714 1_556
Mn0 O3 1.976815 1_455
Mn0 O4 2.004161 1_456
Mn0 O7 2.004163 1_555
Mn1 O1 1.946772 1_555
Mn1 O5 1.946914 1_546
Mn1 O0 1.977295 1_556
Mn1 O3 1.977309 1_545
Mn1 O4 2.003200 1_546
Mn1 O7 2.003245 1_555
Mn2 O3 1.945009 1_445
Mn2 O0 1.945130 1_664
Mn2 O6 2.100805 1_564
Mn2 O2 2.100997 1_545
Mn2 O1 2.106177 1_455
Mn2 O5 2.106272 1_654
O1 Sb0 2.003589 1_664
O2 Sb0 2.005345 1_664
O4 Sb0 2.057807 1_555
O5 Sb0 2.003298 1_555
O6 Sb0 2.005346 1_555
O7 Sb0 2.057910 1_664
