# generated using pymatgen
data_CS3N4
_symmetry_space_group_name_H-M   'P 1'
_cell_length_a   9.28008700
_cell_length_b   5.67658400
_cell_length_c   12.69773842
_cell_angle_alpha   75.62823021
_cell_angle_beta   90.00000000
_cell_angle_gamma   90.00000000
_symmetry_Int_Tables_number   1
_chemical_formula_structural   CS3N4
_chemical_formula_sum   'C4 S12 N16'
_cell_volume   647.97356991
_cell_formula_units_Z   4
loop_
 _symmetry_equiv_pos_site_id
 _symmetry_equiv_pos_as_xyz
  1  'x, y, z'
loop_
 _atom_site_type_symbol
 _atom_site_label
 _atom_site_symmetry_multiplicity
 _atom_site_fract_x
 _atom_site_fract_y
 _atom_site_fract_z
 _atom_site_occupancy
  C  C0  1  0.17055200  0.39086500  0.27636300  1
  C  C1  1  0.67055200  0.60913500  0.22363700  1
  C  C2  1  0.82944800  0.60913500  0.72363700  1
  C  C3  1  0.32944800  0.39086500  0.77636300  1
  S  S0  1  0.21852200  0.65729800  0.99890200  1
  S  S1  1  0.71852200  0.34270200  0.50109800  1
  S  S2  1  0.78147800  0.34270200  0.00109800  1
  S  S3  1  0.28147800  0.65729800  0.49890200  1
  S  S4  1  0.32546100  0.94406500  0.12661000  1
  S  S5  1  0.82546100  0.05593500  0.37339000  1
  S  S6  1  0.67453900  0.05593500  0.87339000  1
  S  S7  1  0.17453900  0.94406500  0.62661000  1
  S  S8  1  0.09258000  0.81509900  0.17055500  1
  S  S9  1  0.59258000  0.18490100  0.32944500  1
  S  S10  1  0.90742000  0.18490100  0.82944500  1
  S  S11  1  0.40742000  0.81509900  0.67055500  1
  N  N0  1  0.22782100  0.20167500  0.28318600  1
  N  N1  1  0.72782100  0.79832500  0.21681400  1
  N  N2  1  0.77217900  0.79832500  0.71681400  1
  N  N3  1  0.27217900  0.20167500  0.78318600  1
  N  N4  1  0.10254600  0.59322300  0.27620300  1
  N  N5  1  0.60254600  0.40677700  0.22379700  1
  N  N6  1  0.89745400  0.40677700  0.72379700  1
  N  N7  1  0.39745400  0.59322300  0.77620300  1
  N  N8  1  0.14951200  0.78548900  0.53873200  1
  N  N9  1  0.64951200  0.21451100  0.96126800  1
  N  N10  1  0.85048800  0.21451100  0.46126800  1
  N  N11  1  0.35048800  0.78548900  0.03873200  1
  N  N12  1  0.42288200  0.71702500  0.56011600  1
  N  N13  1  0.92288200  0.28297500  0.93988400  1
  N  N14  1  0.57711800  0.28297500  0.43988400  1
  N  N15  1  0.07711800  0.71702500  0.06011600  1
loop_
_geom_bond_atom_site_label_1
_geom_bond_atom_site_label_2
_geom_bond_distance
_geom_bond_site_symmetry_2
C0 N0 1.182008 1_555
C0 N4 1.310210 1_555
C1 N1 1.182008 1_555
C1 N5 1.310210 1_555
C2 N2 1.182008 1_555
C2 N6 1.310210 1_555
C3 N3 1.182008 1_555
C3 N7 1.310210 1_555
N4 S8 1.598663 1_555
N5 S9 1.598663 1_555
N6 S10 1.598663 1_555
N7 S11 1.598663 1_555
N8 S3 1.570921 1_555
N8 S7 1.614933 1_555
N9 S2 1.570921 1_556
N9 S6 1.614933 1_555
N10 S1 1.570921 1_555
N10 S5 1.614933 1_555
N11 S0 1.570921 1_554
N11 S4 1.614933 1_555
N12 S3 1.603720 1_555
N12 S11 1.638479 1_555
N13 S2 1.603720 1_556
N13 S10 1.638479 1_555
N14 S1 1.603720 1_555
N14 S9 1.638479 1_555
N15 S0 1.603720 1_554
N15 S8 1.638479 1_555
