# generated using pymatgen
data_MgMn4(NiO4)2
_symmetry_space_group_name_H-M   'P 1'
_cell_length_a   6.39465143
_cell_length_b   6.39465027
_cell_length_c   6.39465100
_cell_angle_alpha   60.00000141
_cell_angle_beta   60.00000740
_cell_angle_gamma   59.99999894
_symmetry_Int_Tables_number   1
_chemical_formula_structural   MgMn4(NiO4)2
_chemical_formula_sum   'Mg1 Mn4 Ni2 O8'
_cell_volume   184.89941985
_cell_formula_units_Z   1
loop_
 _symmetry_equiv_pos_site_id
 _symmetry_equiv_pos_as_xyz
  1  'x, y, z'
loop_
 _atom_site_type_symbol
 _atom_site_label
 _atom_site_symmetry_multiplicity
 _atom_site_fract_x
 _atom_site_fract_y
 _atom_site_fract_z
 _atom_site_occupancy
  Mg  Mg0  1  0.62500000  0.62500000  0.62500000  1
  Mn  Mn0  1  0.48210300  0.05369100  0.48210200  1
  Mn  Mn1  1  0.05369000  0.48210300  0.48210300  1
  Mn  Mn2  1  0.48210200  0.48210300  0.05369100  1
  Mn  Mn3  1  0.48210200  0.48210300  0.48210400  1
  Ni  Ni0  1  0.12500000  0.12499900  0.12500000  1
  Ni  Ni1  1  0.87500000  0.87499900  0.87500000  1
  O  O0  1  0.74754000  0.74753900  0.74754100  1
  O  O1  1  0.25133700  0.25133500  0.74599200  1
  O  O2  1  0.25133600  0.74599100  0.25133600  1
  O  O3  1  0.74599300  0.25133500  0.25133500  1
  O  O4  1  0.74754000  0.25738000  0.74753900  1
  O  O5  1  0.25737900  0.74753900  0.74754000  1
  O  O6  1  0.25133700  0.25133500  0.25133600  1
  O  O7  1  0.74754000  0.74753900  0.25737900  1
loop_
_geom_bond_atom_site_label_1
_geom_bond_atom_site_label_2
_geom_bond_distance
_geom_bond_site_symmetry_2
Mg0 O4 1.919421 1_555
Mg0 O0 1.919421 1_555
Mg0 O7 1.919427 1_555
Mg0 O5 1.919427 1_555
Mg0 Mn1 2.238281 1_655
Mg0 Mn0 2.238286 1_565
Mg0 Mn3 2.238286 1_555
Mg0 Mn2 2.238286 1_556
Mn0 O6 2.097630 1_555
Mn0 O1 2.097640 1_555
Mn0 O3 2.097640 1_555
Mn0 O7 2.414536 1_545
Mn0 O0 2.414540 1_545
Mn0 O5 2.414540 1_545
Mn1 O2 2.097639 1_555
Mn1 O6 2.097643 1_555
Mn1 O1 2.097648 1_555
Mn1 O4 2.414526 1_455
Mn1 O7 2.414530 1_455
Mn1 O0 2.414530 1_455
Mn2 O2 2.097634 1_555
Mn2 O6 2.097635 1_555
Mn2 O3 2.097645 1_555
Mn2 O0 2.414531 1_554
Mn2 O5 2.414531 1_554
Mn2 O4 2.414536 1_554
Mn3 O1 2.097635 1_555
Mn3 O2 2.097639 1_555
Mn3 O3 2.097653 1_555
Mn3 O5 2.414521 1_555
Mn3 O4 2.414526 1_555
Mn3 O7 2.414530 1_555
Ni0 O3 1.978876 1_455
Ni0 O2 1.978880 1_545
Ni0 O1 1.978881 1_554
Ni0 O6 1.978886 1_555
Ni1 O0 1.996481 1_555
Ni1 O7 1.996481 1_556
Ni1 O5 1.996482 1_655
Ni1 O4 1.996492 1_565
