# generated using pymatgen
data_Na15Mg10Nb2P9(SO8)9
_symmetry_space_group_name_H-M   'P 1'
_cell_length_a   8.90042680
_cell_length_b   8.87741698
_cell_length_c   22.23527926
_cell_angle_alpha   89.99088294
_cell_angle_beta   90.19162982
_cell_angle_gamma   119.92134723
_symmetry_Int_Tables_number   1
_chemical_formula_structural   Na15Mg10Nb2P9(SO8)9
_chemical_formula_sum   'Na15 Mg10 Nb2 P9 S9 O72'
_cell_volume   1522.68911482
_cell_formula_units_Z   1
loop_
 _symmetry_equiv_pos_site_id
 _symmetry_equiv_pos_as_xyz
  1  'x, y, z'
loop_
 _atom_site_type_symbol
 _atom_site_label
 _atom_site_symmetry_multiplicity
 _atom_site_fract_x
 _atom_site_fract_y
 _atom_site_fract_z
 _atom_site_occupancy
  Na  Na0  1  0.99051174  0.34901458  0.74908651  1
  Na  Na1  1  0.30119144  0.33397145  0.58496086  1
  Na  Na2  1  0.66895058  0.96939253  0.58643466  1
  Na  Na3  1  0.30135307  0.96808843  0.08595401  1
  Na  Na4  1  0.66932249  0.69922167  0.08883870  1
  Na  Na5  1  0.97214063  0.67083095  0.91254024  1
  Na  Na6  1  0.32673928  0.29360340  0.91285906  1
  Na  Na7  1  0.33474383  0.04038859  0.41084899  1
  Na  Na8  1  0.69757495  0.66701549  0.41310015  1
  Na  Na9  1  0.99964271  0.00748626  0.49649861  1
  Na  Na10  1  0.99557509  0.02019624  0.99673242  1
  Na  Na11  1  0.65619702  0.31530690  0.82813775  1
  Na  Na12  1  0.66538366  0.32805844  0.32719751  1
  Na  Na13  1  0.32109293  0.65645645  0.16603979  1
  Na  Na14  1  0.33336590  0.67771667  0.66549382  1
  Mg  Mg0  1  0.00070974  0.00690439  0.34817516  1
  Mg  Mg1  1  0.00048037  0.00339349  0.84752120  1
  Mg  Mg2  1  0.99941215  0.99481001  0.65634261  1
  Mg  Mg3  1  0.00060720  0.00105422  0.15588545  1
  Mg  Mg4  1  0.66242074  0.33504055  0.68850593  1
  Mg  Mg5  1  0.66232467  0.33078243  0.18834191  1
  Mg  Mg6  1  0.67278024  0.32174005  0.97928594  1
  Mg  Mg7  1  0.66844153  0.33114224  0.47996887  1
  Mg  Mg8  1  0.32547464  0.66174554  0.01572667  1
  Mg  Mg9  1  0.33119931  0.66397565  0.51518814  1
  Nb  Nb0  1  0.34514032  0.67147683  0.31109069  1
  Nb  Nb1  1  0.33171616  0.67499755  0.81126133  1
  P  P0  1  0.29525201  0.00497368  0.25059172  1
  P  P1  1  0.71507383  0.70400632  0.25026262  1
  P  P2  1  0.29773131  0.29279499  0.75070818  1
  P  P3  1  0.99098884  0.70552351  0.75187776  1
  P  P4  1  0.70960090  0.00232255  0.74814618  1
  P  P5  1  0.03934197  0.36996076  0.91746981  1
  P  P6  1  0.33306318  0.96361618  0.92033182  1
  P  P7  1  0.63180273  0.96302015  0.41985871  1
  P  P8  1  0.32854453  0.36923823  0.41977911  1
  S  S0  1  0.99831378  0.29347717  0.25010307  1
  S  S1  1  0.96140161  0.33586825  0.58384008  1
  S  S2  1  0.37126708  0.03861280  0.58227680  1
  S  S3  1  0.67022517  0.62822954  0.58206237  1
  S  S4  1  0.95905069  0.62483906  0.08288271  1
  S  S5  1  0.66980464  0.04027313  0.08382441  1
  S  S6  1  0.37299483  0.33387091  0.08218600  1
  S  S7  1  0.62766115  0.66986892  0.91942495  1
  S  S8  1  0.04077818  0.66468224  0.41731201  1
  O  O0  1  0.20926788  0.02238733  0.30740217  1
  O  O1  1  0.81377680  0.79189808  0.30768327  1
  O  O2  1  0.97680020  0.19210959  0.30458067  1
  O  O3  1  0.21328303  0.19041048  0.80771118  1
  O  O4  1  0.97296368  0.78259563  0.81058638  1
  O  O5  1  0.82576186  0.02955739  0.80195692  1
  O  O6  1  0.77364212  0.96389152  0.68913767  1
  O  O7  1  0.18097388  0.22474953  0.69395189  1
  O  O8  1  0.02987988  0.81773561  0.69639682  1
  O  O9  1  0.78169583  0.81260301  0.19282015  1
  O  O10  1  0.03333096  0.22150669  0.19602773  1
  O  O11  1  0.18830213  0.96865191  0.19256772  1
  O  O12  1  0.88193627  0.35383437  0.63939001  1
  O  O13  1  0.48539486  0.12489405  0.63443400  1
  O  O14  1  0.64562070  0.51606617  0.63405605  1
  O  O15  1  0.87160566  0.51852454  0.13579950  1
  O  O16  1  0.64237045  0.12313505  0.13685378  1
  O  O17  1  0.48574106  0.35958054  0.13471750  1
  O  O18  1  0.45129792  0.30746628  0.02660498  1
  O  O19  1  0.85595584  0.54643083  0.02699478  1
  O  O20  1  0.68972700  0.14067862  0.02864941  1
  O  O21  1  0.44954942  0.14290243  0.52641370  1
  O  O22  1  0.68707374  0.54838801  0.52550321  1
  O  O23  1  0.85045696  0.31133303  0.53067519  1
  O  O24  1  0.54870876  0.69204556  0.97447743  1
  O  O25  1  0.15976260  0.45769162  0.97102667  1
  O  O26  1  0.30886576  0.85421182  0.97654724  1
  O  O27  1  0.54621094  0.85091840  0.47567563  1
  O  O28  1  0.30669941  0.45109106  0.47704838  1
  O  O29  1  0.14996435  0.69280840  0.47061087  1
  O  O30  1  0.12568892  0.64284948  0.36263976  1
  O  O31  1  0.50406873  0.85977140  0.36412189  1
  O  O32  1  0.35024719  0.49461815  0.36491688  1
  O  O33  1  0.13622770  0.49039989  0.86019916  1
  O  O34  1  0.35206727  0.86044701  0.86468024  1
  O  O35  1  0.51262264  0.64355916  0.86606237  1
  O  O36  1  0.02313759  0.82272864  0.41143482  1
  O  O37  1  0.80591759  0.97233229  0.41006684  1
  O  O38  1  0.17429909  0.18625035  0.41083935  1
  O  O39  1  0.02137044  0.19088852  0.90924961  1
  O  O40  1  0.16669753  0.97519080  0.91192884  1
  O  O41  1  0.80209051  0.82116631  0.91214756  1
  O  O42  1  0.98005760  0.17563751  0.58645596  1
  O  O43  1  0.19846939  0.02514298  0.58859654  1
  O  O44  1  0.82276944  0.80632962  0.58699128  1
  O  O45  1  0.97717019  0.80323445  0.08725835  1
  O  O46  1  0.82329149  0.01560638  0.08933834  1
  O  O47  1  0.19848421  0.17647118  0.08866011  1
  O  O48  1  0.68365467  0.16012030  0.74268158  1
  O  O49  1  0.47983557  0.32359984  0.74335472  1
  O  O50  1  0.84736553  0.51573513  0.74526313  1
  O  O51  1  0.68233351  0.51963950  0.24477045  1
  O  O52  1  0.84997775  0.32143292  0.24333389  1
  O  O53  1  0.48127390  0.15407923  0.24515903  1
  O  O54  1  0.63959863  0.50791473  0.92214985  1
  O  O55  1  0.86644869  0.36999751  0.91982252  1
  O  O56  1  0.49325849  0.14595316  0.92030753  1
  O  O57  1  0.63602673  0.13783600  0.42048285  1
  O  O58  1  0.50113912  0.36386942  0.41960946  1
  O  O59  1  0.86561087  0.51048258  0.42163503  1
  O  O60  1  0.36010038  0.49532197  0.07759857  1
  O  O61  1  0.13809025  0.65050533  0.07908048  1
  O  O62  1  0.51010447  0.86083164  0.07935956  1
  O  O63  1  0.35496732  0.86307437  0.57701775  1
  O  O64  1  0.50893235  0.64578953  0.57944280  1
  O  O65  1  0.13920126  0.49014184  0.57847348  1
  O  O66  1  0.31014020  0.82986742  0.25983280  1
  O  O67  1  0.52102224  0.68399744  0.25871916  1
  O  O68  1  0.16031090  0.47427462  0.25760298  1
  O  O69  1  0.31337902  0.48212092  0.75966405  1
  O  O70  1  0.16547324  0.68583018  0.75817162  1
  O  O71  1  0.52246863  0.83587338  0.75962261  1
loop_
_geom_bond_atom_site_label_1
_geom_bond_atom_site_label_2
_geom_bond_distance
_geom_bond_site_symmetry_2
Na0 O50 2.387766 1_555
Na0 O48 2.391650 1_555
Na0 O69 2.513465 1_655
Na0 O70 2.599837 1_655
Na0 O12 2.628786 1_555
Na0 O5 2.727029 1_555
Na0 O7 2.733767 1_655
Na0 O33 2.777943 1_655
Na1 O43 2.420458 1_555
Na1 O64 2.447801 1_555
Na1 O65 2.452403 1_555
Na1 O42 2.477688 1_455
Na1 O28 2.605761 1_555
Na1 O7 2.634331 1_555
Na1 O14 2.870008 1_555
Na1 O21 2.926092 1_555
Na2 O44 2.438631 1_555
Na2 O42 2.441682 1_565
Na2 O63 2.471674 1_555
Na2 O6 2.473202 1_555
Na2 O64 2.494447 1_555
Na2 O27 2.683534 1_555
Na2 O13 2.824151 1_565
Na2 O23 2.912301 1_565
Na3 O47 2.440110 1_565
Na3 O61 2.448480 1_555
Na3 O62 2.479304 1_555
Na3 O45 2.501173 1_455
Na3 O11 2.579365 1_555
Na3 O26 2.648346 1_554
Na3 O16 2.863149 1_565
Na3 O18 2.932367 1_565
Na4 O45 2.416187 1_555
Na4 O46 2.434512 1_565
Na4 O60 2.437048 1_555
Na4 O62 2.477315 1_555
Na4 O9 2.517939 1_555
Na4 O24 2.745208 1_554
Na4 O17 2.810126 1_555
Na4 O19 2.958661 1_555
Na5 O55 2.353288 1_555
Na5 O40 2.373118 1_655
Na5 O41 2.467179 1_555
Na5 O4 2.473012 1_555
Na5 O54 2.575123 1_555
Na5 O19 2.764603 1_556
Na5 O33 2.898051 1_655
Na5 O26 2.960169 1_655
Na6 O39 2.398145 1_555
Na6 O56 2.424546 1_555
Na6 O40 2.450009 1_545
Na6 O54 2.475343 1_555
Na6 O3 2.527282 1_555
Na6 O18 2.736081 1_556
Na6 O25 2.859473 1_555
Na6 O35 2.890390 1_555
Na7 O38 2.358109 1_555
Na7 O57 2.380530 1_555
Na7 O36 2.465704 1_545
Na7 O58 2.496644 1_555
Na7 O0 2.523574 1_555
Na7 O21 2.744214 1_555
Na7 O31 2.888491 1_545
Na7 O29 2.990364 1_545
Na8 O58 2.372273 1_555
Na8 O37 2.381965 1_555
Na8 O59 2.505031 1_555
Na8 O36 2.512626 1_655
Na8 O1 2.581562 1_555
Na8 O22 2.695712 1_555
Na8 O32 2.881855 1_555
Na8 O27 2.936611 1_555
Na9 O38 2.473953 1_655
Na9 O37 2.490992 1_545
Na9 O42 2.553912 1_555
Na9 O36 2.580145 1_645
Na9 O44 2.632745 1_545
Na9 O43 2.654980 1_655
Na10 O39 2.405757 1_655
Na10 O46 2.559629 1_556
Na10 O41 2.562937 1_545
Na10 O40 2.580982 1_645
Na10 O47 2.615531 1_656
Na10 O45 2.733934 1_546
Na11 O48 2.430641 1_555
Na11 O49 2.473597 1_555
Na11 O56 2.531273 1_555
Na11 O50 2.540924 1_555
Na11 O55 2.638568 1_555
Na11 O54 2.751429 1_555
Na12 O53 2.419543 1_555
Na12 O51 2.453426 1_555
Na12 O52 2.509373 1_555
Na12 O57 2.604738 1_555
Na12 O58 2.635188 1_555
Na12 O59 2.702732 1_555
Na13 O61 2.507504 1_555
Na13 O68 2.553052 1_555
Na13 O60 2.556333 1_555
Na13 O62 2.610017 1_555
Na13 O66 2.623137 1_555
Na13 O67 2.648498 1_555
Na14 O63 2.510128 1_555
Na14 O65 2.571200 1_555
Na14 O70 2.571525 1_555
Na14 O64 2.577808 1_555
Na14 O71 2.608552 1_555
Na14 O69 2.669135 1_555
Mg0 O2 2.008798 1_455
Mg0 O0 2.010768 1_555
Mg0 O1 2.011058 1_445
Mg0 O38 2.096589 1_555
Mg0 O37 2.116337 1_445
Mg0 O36 2.239328 1_545
Mg1 O5 1.961721 1_455
Mg1 O3 2.000244 1_555
Mg1 O4 2.024043 1_445
Mg1 O39 2.092655 1_555
Mg1 O40 2.158128 1_545
Mg1 O41 2.228530 1_445
Mg2 O8 1.939331 1_655
Mg2 O6 2.025950 1_555
Mg2 O7 2.044061 1_665
Mg2 O44 2.238214 1_555
Mg2 O43 2.241046 1_665
Mg2 O42 2.301011 1_565
Mg3 O11 2.002249 1_545
Mg3 O9 2.006975 1_445
Mg3 O10 2.035124 1_555
Mg3 O46 2.210105 1_455
Mg3 O47 2.245428 1_555
Mg3 O45 2.255941 1_445
Mg4 O49 1.996785 1_555
Mg4 O48 2.046649 1_555
Mg4 O50 2.056200 1_555
Mg4 O14 2.075728 1_555
Mg4 O13 2.112824 1_555
Mg4 O12 2.174124 1_555
Mg5 O51 2.029328 1_555
Mg5 O53 2.035845 1_555
Mg5 O17 2.084568 1_555
Mg5 O16 2.100704 1_555
Mg5 O52 2.101471 1_555
Mg5 O15 2.128178 1_555
Mg6 O20 2.012783 1_556
Mg6 O55 2.044829 1_555
Mg6 O56 2.051142 1_555
Mg6 O19 2.122949 1_556
Mg6 O18 2.184877 1_556
Mg6 O54 2.217337 1_555
Mg7 O23 2.049021 1_555
Mg7 O57 2.069265 1_555
Mg7 O21 2.102290 1_555
Mg7 O22 2.110084 1_555
Mg7 O58 2.126281 1_555
Mg7 O59 2.126978 1_555
Mg8 O25 1.941655 1_554
Mg8 O26 1.987649 1_554
Mg8 O24 2.083319 1_554
Mg8 O60 2.149681 1_555
Mg8 O61 2.150714 1_555
Mg8 O62 2.216702 1_555
Mg9 O28 1.981534 1_555
Mg9 O27 2.007664 1_555
Mg9 O29 2.012730 1_555
Mg9 O65 2.160172 1_555
Mg9 O63 2.164401 1_555
Mg9 O64 2.193013 1_555
Nb0 O67 1.912466 1_555
Nb0 O66 1.951216 1_555
Nb0 O31 1.953478 1_555
Nb0 O32 1.992430 1_555
Nb0 O68 2.073635 1_555
Nb0 O30 2.170966 1_555
Nb1 O70 1.929324 1_555
Nb1 O71 1.958072 1_555
Nb1 O34 1.963587 1_555
Nb1 O69 1.998815 1_555
Nb1 O33 2.016058 1_555
Nb1 O35 2.142503 1_555
O0 P0 1.526366 1_555
O1 P1 1.523048 1_555
O2 S0 1.463921 1_555
O3 P2 1.523820 1_555
O4 P3 1.519585 1_555
O5 P4 1.517042 1_555
O6 P4 1.536869 1_565
O7 P2 1.550052 1_555
O8 P3 1.514088 1_455
O9 P1 1.531915 1_555
O10 S0 1.467130 1_455
O11 P0 1.536346 1_565
O12 S1 1.473011 1_555
O13 S2 1.476377 1_555
O14 S3 1.469613 1_555
O15 S4 1.467617 1_555
O16 S5 1.473923 1_555
O17 S6 1.478914 1_555
O18 S6 1.495606 1_555
O19 S4 1.492046 1_555
O20 S5 1.474612 1_555
O21 S2 1.499129 1_555
O22 S3 1.487961 1_555
O23 S1 1.482451 1_555
O24 S7 1.474735 1_555
O25 P5 1.527234 1_555
O26 P6 1.531281 1_555
O27 P7 1.536445 1_555
O28 P8 1.526516 1_555
O29 S8 1.470226 1_555
O30 S8 1.496286 1_555
O31 P7 1.618618 1_555
O32 P8 1.597169 1_555
O33 P5 1.611057 1_555
O34 P6 1.598429 1_555
O35 S7 1.504710 1_555
O36 S8 1.493262 1_555
O37 P7 1.526514 1_555
O38 P8 1.528575 1_555
O39 P5 1.527206 1_555
O40 P6 1.545298 1_555
O41 S7 1.470304 1_555
O42 S1 1.513213 1_555
O43 S2 1.489086 1_555
O44 S3 1.487514 1_555
O45 S4 1.512844 1_555
O46 S5 1.492150 1_555
O47 S6 1.490619 1_555
O48 P4 1.533924 1_555
O49 P2 1.512648 1_555
O50 P3 1.531199 1_555
O51 P1 1.517445 1_555
O52 S0 1.467259 1_555
O53 P0 1.524102 1_555
O54 S7 1.494779 1_555
O55 P5 1.540050 1_655
O56 P6 1.533174 1_545
O57 P7 1.533570 1_545
O58 P8 1.560503 1_555
O59 S8 1.478389 1_655
O60 S6 1.497267 1_555
O61 S4 1.495684 1_455
O62 S5 1.519225 1_565
O63 S2 1.495832 1_565
O64 S3 1.520284 1_555
O65 S1 1.494408 1_455
O66 P0 1.637510 1_565
O67 P1 1.657115 1_555
O68 S0 1.540323 1_455
O69 P2 1.627971 1_555
O70 P3 1.652667 1_455
O71 P4 1.603153 1_565
