# generated using pymatgen
data_Na6In2Ga2Si3(SO8)3
_symmetry_space_group_name_H-M   'P 1'
_cell_length_a   9.10372421
_cell_length_b   8.99315061
_cell_length_c   22.42557390
_cell_angle_alpha   90.85212336
_cell_angle_beta   89.71195199
_cell_angle_gamma   119.94899187
_symmetry_Int_Tables_number   1
_chemical_formula_structural   Na6In2Ga2Si3(SO8)3
_chemical_formula_sum   'Na18 In6 Ga6 Si9 S9 O72'
_cell_volume   1590.66401809
_cell_formula_units_Z   3
loop_
 _symmetry_equiv_pos_site_id
 _symmetry_equiv_pos_as_xyz
  1  'x, y, z'
loop_
 _atom_site_type_symbol
 _atom_site_label
 _atom_site_symmetry_multiplicity
 _atom_site_fract_x
 _atom_site_fract_y
 _atom_site_fract_z
 _atom_site_occupancy
  Na  Na0  1  0.63390167  0.00023119  0.26103448  1
  Na  Na1  1  0.35471560  0.36081298  0.25500123  1
  Na  Na2  1  0.64087142  0.64147365  0.73645907  1
  Na  Na3  1  0.98805204  0.36527506  0.74423266  1
  Na  Na4  1  0.02804805  0.69223179  0.59114839  1
  Na  Na5  1  0.67346334  0.96313728  0.58272887  1
  Na  Na6  1  0.30918994  0.96896496  0.09563300  1
  Na  Na7  1  0.02557136  0.32501713  0.08330209  1
  Na  Na8  1  0.97097708  0.65751203  0.90038734  1
  Na  Na9  1  0.71033670  0.04361638  0.91031722  1
  Na  Na10  1  0.95840438  0.29316394  0.42107227  1
  Na  Na11  1  0.34240748  0.03367650  0.41552632  1
  Na  Na12  1  0.97948554  0.99179213  0.50431202  1
  Na  Na13  1  0.99190823  0.01185643  0.99908551  1
  Na  Na14  1  0.66440529  0.32389015  0.82176478  1
  Na  Na15  1  0.67675394  0.34322502  0.33782255  1
  Na  Na16  1  0.32776610  0.67085518  0.17440746  1
  Na  Na17  1  0.33295141  0.66495761  0.66437029  1
  In  In0  1  0.99655407  0.01592336  0.84086474  1
  In  In1  1  0.99658340  0.00790616  0.15712770  1
  In  In2  1  0.67903898  0.33028165  0.98472936  1
  In  In3  1  0.33728420  0.66242143  0.01748156  1
  In  In4  1  0.35063479  0.65892199  0.52069386  1
  In  In5  1  0.32062077  0.67106094  0.80842455  1
  Ga  Ga0  1  0.99115868  0.01086507  0.34573180  1
  Ga  Ga1  1  0.96766678  0.98016934  0.64726429  1
  Ga  Ga2  1  0.69344955  0.34924261  0.68218602  1
  Ga  Ga3  1  0.66106030  0.30187125  0.19410150  1
  Ga  Ga4  1  0.67817188  0.31446141  0.49302634  1
  Ga  Ga5  1  0.31972278  0.68811951  0.31531954  1
  Si  Si0  1  0.28713934  0.99864846  0.25084488  1
  Si  Si1  1  0.00773076  0.31411608  0.25166859  1
  Si  Si2  1  0.99671415  0.71110310  0.74618852  1
  Si  Si3  1  0.69455347  0.00672357  0.74703501  1
  Si  Si4  1  0.96831199  0.32702264  0.58439431  1
  Si  Si5  1  0.66864439  0.61072915  0.58403893  1
  Si  Si6  1  0.66516700  0.02924431  0.08500507  1
  Si  Si7  1  0.04110267  0.36900694  0.91800344  1
  Si  Si8  1  0.63240288  0.96116302  0.41577537  1
  S  S0  1  0.70340215  0.69835339  0.25090279  1
  S  S1  1  0.29798519  0.28802710  0.74727350  1
  S  S2  1  0.37554009  0.04960859  0.58254218  1
  S  S3  1  0.95595182  0.62982288  0.08563631  1
  S  S4  1  0.38107617  0.33517193  0.08609424  1
  S  S5  1  0.63184256  0.66371102  0.91660852  1
  S  S6  1  0.33103740  0.96869159  0.91964992  1
  S  S7  1  0.33111656  0.36613364  0.41212810  1
  S  S8  1  0.03741908  0.67052914  0.41591791  1
  O  O0  1  0.18678775  0.02677612  0.30670807  1
  O  O1  1  0.81310400  0.78121206  0.30277616  1
  O  O2  1  0.95938544  0.17370268  0.30463001  1
  O  O3  1  0.23301715  0.20180071  0.80547621  1
  O  O4  1  0.97759152  0.79119350  0.81078519  1
  O  O5  1  0.80558113  0.05622126  0.80980783  1
  O  O6  1  0.78868088  0.96815492  0.69206810  1
  O  O7  1  0.18110749  0.19818092  0.69766905  1
  O  O8  1  0.02045433  0.83352033  0.69009988  1
  O  O9  1  0.77100498  0.80257856  0.19622329  1
  O  O10  1  0.05561128  0.24964212  0.18922888  1
  O  O11  1  0.18760823  0.96890465  0.18763262  1
  O  O12  1  0.88309982  0.36757461  0.64193465  1
  O  O13  1  0.48903473  0.13755244  0.63292940  1
  O  O14  1  0.64425491  0.50435997  0.64496298  1
  O  O15  1  0.85866572  0.51874484  0.13475272  1
  O  O16  1  0.63126383  0.12594757  0.14214415  1
  O  O17  1  0.47759239  0.34939460  0.14031340  1
  O  O18  1  0.46551007  0.32514126  0.03087237  1
  O  O19  1  0.87038129  0.56395441  0.02659656  1
  O  O20  1  0.69920561  0.13581561  0.02292252  1
  O  O21  1  0.45088568  0.13882791  0.52420719  1
  O  O22  1  0.69152383  0.51028641  0.52547224  1
  O  O23  1  0.84804236  0.28005912  0.52348582  1
  O  O24  1  0.55598407  0.69527085  0.97062573  1
  O  O25  1  0.13647543  0.44749658  0.98273282  1
  O  O26  1  0.31147119  0.87248026  0.97573903  1
  O  O27  1  0.55200755  0.85723516  0.47656684  1
  O  O28  1  0.29396891  0.43973818  0.46542799  1
  O  O29  1  0.14179510  0.70047821  0.47029032  1
  O  O30  1  0.12013534  0.63574648  0.36333558  1
  O  O31  1  0.50382985  0.87066111  0.35755618  1
  O  O32  1  0.35180248  0.46949619  0.35858775  1
  O  O33  1  0.13315324  0.49564025  0.86246012  1
  O  O34  1  0.36667223  0.88618507  0.86847197  1
  O  O35  1  0.53578928  0.64779420  0.86231032  1
  O  O36  1  0.02784139  0.82905986  0.40741583  1
  O  O37  1  0.82648363  0.99011655  0.40577051  1
  O  O38  1  0.17438646  0.18922134  0.40794560  1
  O  O39  1  0.01145931  0.17396417  0.91432970  1
  O  O40  1  0.17328088  0.97418874  0.91320696  1
  O  O41  1  0.80703655  0.81556736  0.91487948  1
  O  O42  1  0.98221674  0.15292031  0.59239616  1
  O  O43  1  0.20602459  0.03006549  0.58636817  1
  O  O44  1  0.84484735  0.80401436  0.58512605  1
  O  O45  1  0.98805536  0.80824627  0.08913094  1
  O  O46  1  0.83962563  0.01944936  0.09080444  1
  O  O47  1  0.21040144  0.17471900  0.08484242  1
  O  O48  1  0.67443456  0.17514928  0.73703988  1
  O  O49  1  0.46938351  0.31247007  0.74165070  1
  O  O50  1  0.82081723  0.52072381  0.74562415  1
  O  O51  1  0.68165908  0.52349012  0.24309993  1
  O  O52  1  0.83152924  0.32354131  0.24575170  1
  O  O53  1  0.47780441  0.17981140  0.24868496  1
  O  O54  1  0.64611784  0.50629712  0.92208496  1
  O  O55  1  0.85035239  0.35526449  0.91759513  1
  O  O56  1  0.48201590  0.14416135  0.92285106  1
  O  O57  1  0.64772739  0.15786324  0.42261511  1
  O  O58  1  0.48052737  0.34445669  0.41823000  1
  O  O59  1  0.86926855  0.51465283  0.41943685  1
  O  O60  1  0.35264742  0.48517771  0.08553936  1
  O  O61  1  0.12596936  0.63816923  0.08502714  1
  O  O62  1  0.48474665  0.84458523  0.08151146  1
  O  O63  1  0.35681744  0.87310076  0.57980708  1
  O  O64  1  0.51393696  0.65505708  0.58429026  1
  O  O65  1  0.14552080  0.50907093  0.57595772  1
  O  O66  1  0.32932057  0.84178884  0.25602936  1
  O  O67  1  0.53106668  0.67802188  0.25819384  1
  O  O68  1  0.18402057  0.49667339  0.26405510  1
  O  O69  1  0.31361542  0.46351833  0.75052148  1
  O  O70  1  0.15351582  0.67032021  0.74529680  1
  O  O71  1  0.51945293  0.82189205  0.75382136  1
loop_
_geom_bond_atom_site_label_1
_geom_bond_atom_site_label_2
_geom_bond_distance
_geom_bond_site_symmetry_2
Na0 O66 2.405193 1_545
Na0 O31 2.473224 1_545
Na0 O67 2.561946 1_545
Na0 O52 2.570747 1_555
Na0 O53 2.648218 1_555
Na0 O2 2.745523 1_555
Na0 O16 2.916290 1_555
Na0 O9 2.991658 1_545
Na1 O53 2.395443 1_555
Na1 O68 2.415371 1_555
Na1 O67 2.478468 1_555
Na1 O32 2.511976 1_555
Na1 O51 2.593539 1_555
Na1 O10 2.804999 1_555
Na1 O17 2.820404 1_555
Na1 O0 2.864675 1_555
Na2 O50 2.385646 1_555
Na2 O14 2.386122 1_555
Na2 O71 2.402836 1_555
Na2 O49 2.569351 1_555
Na2 O69 2.604146 1_555
Na2 O6 2.749409 1_555
Na2 O35 2.984303 1_555
Na3 O70 2.380722 1_655
Na3 O12 2.493864 1_555
Na3 O48 2.494655 1_555
Na3 O50 2.529128 1_555
Na3 O69 2.640221 1_655
Na3 O5 2.852024 1_555
Na3 O33 2.923251 1_655
Na3 O7 3.001538 1_655
Na4 O44 2.343232 1_455
Na4 O65 2.389874 1_555
Na4 O8 2.558463 1_555
Na4 O63 2.610061 1_555
Na4 O43 2.638220 1_565
Na4 O12 2.792844 1_455
Na4 O29 2.885251 1_555
Na5 O64 2.402397 1_555
Na5 O42 2.462885 1_565
Na5 O63 2.576711 1_555
Na5 O27 2.589432 1_555
Na5 O44 2.591801 1_555
Na5 O6 2.662675 1_555
Na5 O23 2.825393 1_565
Na6 O11 2.336268 1_555
Na6 O62 2.382250 1_555
Na6 O47 2.443017 1_565
Na6 O45 2.536985 1_455
Na6 O61 2.591769 1_555
Na6 O16 2.744448 1_565
Na6 O26 2.816103 1_554
Na7 O46 2.410746 1_455
Na7 O61 2.488990 1_555
Na7 O25 2.501944 1_554
Na7 O10 2.533111 1_555
Na7 O60 2.580786 1_555
Na7 O47 2.632919 1_555
Na7 O20 2.912141 1_455
Na8 O4 2.341989 1_555
Na8 O55 2.406207 1_555
Na8 O40 2.515795 1_655
Na8 O41 2.540283 1_555
Na8 O54 2.611912 1_555
Na8 O33 2.668119 1_655
Na8 O19 2.971987 1_556
Na9 O39 2.384946 1_655
Na9 O5 2.394768 1_555
Na9 O55 2.434753 1_555
Na9 O41 2.607942 1_545
Na9 O56 2.660866 1_555
Na9 O20 2.663390 1_556
Na9 O34 2.870665 1_545
Na10 O37 2.386615 1_545
Na10 O57 2.458713 1_555
Na10 O23 2.482881 1_555
Na10 O59 2.498750 1_555
Na10 O38 2.578314 1_655
Na10 O2 2.810513 1_555
Na10 O28 2.833769 1_655
Na10 O30 2.984377 1_655
Na11 O58 2.425491 1_555
Na11 O57 2.428608 1_555
Na11 O36 2.520689 1_545
Na11 O38 2.543905 1_555
Na11 O21 2.613965 1_555
Na11 O0 2.812213 1_555
Na11 O31 2.841476 1_545
Na11 O29 2.906116 1_545
Na12 O44 2.374988 1_555
Na12 O42 2.425223 1_565
Na12 O37 2.613963 1_555
Na12 O43 2.658663 1_665
Na12 O36 2.756144 1_655
Na12 O38 2.810871 1_665
Na13 O39 2.364238 1_655
Na13 O46 2.493772 1_556
Na13 O41 2.545791 1_545
Na13 O47 2.616498 1_656
Na13 O40 2.656538 1_645
Na13 O45 2.734399 1_546
Na14 O48 2.335008 1_555
Na14 O50 2.371780 1_555
Na14 O49 2.496996 1_555
Na14 O55 2.665574 1_555
Na14 O56 2.810681 1_555
Na14 O54 2.817648 1_555
Na15 O59 2.459417 1_555
Na15 O57 2.472623 1_555
Na15 O58 2.535659 1_555
Na15 O52 2.547308 1_555
Na15 O53 2.593718 1_555
Na15 O51 2.677981 1_555
Na16 O66 2.368240 1_555
Na16 O68 2.495683 1_555
Na16 O62 2.580854 1_555
Na16 O67 2.621513 1_555
Na16 O61 2.638050 1_555
Na16 O60 2.661857 1_555
Na17 O70 2.451649 1_555
Na17 O64 2.461639 1_555
Na17 O65 2.524066 1_555
Na17 O71 2.540881 1_555
Na17 O69 2.612978 1_555
Na17 O63 2.615855 1_555
In0 O4 2.044908 1_545
In0 O5 2.070698 1_555
In0 O3 2.118388 1_655
In0 O39 2.119608 1_655
In0 O41 2.436093 1_545
In0 O40 2.451229 1_645
In1 O11 2.059945 1_645
In1 O10 2.079436 1_655
In1 O46 2.106839 1_555
In1 O9 2.153953 1_545
In1 O45 2.309954 1_545
In1 O47 2.406713 1_655
In2 O20 2.047569 1_556
In2 O55 2.094276 1_555
In2 O19 2.152852 1_556
In2 O18 2.177881 1_556
In2 O56 2.214213 1_555
In2 O54 2.261222 1_555
In3 O25 2.031416 1_554
In3 O62 2.073973 1_555
In3 O24 2.134557 1_554
In3 O26 2.235670 1_554
In3 O60 2.277461 1_555
In3 O61 2.367372 1_555
In4 O27 2.071363 1_555
In4 O64 2.078401 1_555
In4 O65 2.086314 1_555
In4 O28 2.146177 1_555
In4 O63 2.299367 1_555
In4 O29 2.403236 1_555
In5 O71 2.047305 1_555
In5 O33 2.053698 1_555
In5 O70 2.080799 1_555
In5 O34 2.202338 1_555
In5 O69 2.232436 1_555
In5 O35 2.404506 1_555
Ga0 O2 1.882434 1_555
Ga0 O0 1.921387 1_655
Ga0 O37 1.950118 1_545
Ga0 O1 2.105911 1_545
Ga0 O38 2.141759 1_655
Ga0 O36 2.305505 1_645
Ga1 O6 1.867418 1_555
Ga1 O8 1.888962 1_655
Ga1 O42 1.948050 1_565
Ga1 O44 1.970550 1_555
Ga1 O7 2.247160 1_665
Ga1 O43 2.406488 1_665
Ga2 O14 1.872317 1_555
Ga2 O12 1.878142 1_555
Ga2 O48 1.943958 1_555
Ga2 O50 1.978018 1_555
Ga2 O13 2.174478 1_555
Ga2 O49 2.315345 1_555
Ga3 O16 1.858528 1_555
Ga3 O52 1.870132 1_555
Ga3 O53 1.917680 1_555
Ga3 O51 2.185997 1_555
Ga3 O17 2.275011 1_555
Ga3 O15 2.315486 1_555
Ga4 O22 1.842461 1_555
Ga4 O23 1.856999 1_555
Ga4 O21 2.005062 1_555
Ga4 O57 2.025332 1_555
Ga4 O59 2.433828 1_555
Ga5 O66 1.902178 1_555
Ga5 O31 1.903616 1_555
Ga5 O68 1.908882 1_555
Ga5 O30 1.955427 1_555
Ga5 O67 2.344664 1_555
Ga5 O32 2.350595 1_555
O0 Si0 1.636406 1_545
O1 S0 1.465864 1_555
O2 Si1 1.638083 1_655
O3 S1 1.489687 1_555
O4 Si2 1.655055 1_555
O5 Si3 1.657677 1_555
O6 Si3 1.627111 1_565
O7 S1 1.466023 1_555
O8 Si2 1.625338 1_455
O9 S0 1.487132 1_555
O10 Si1 1.645889 1_555
O11 Si0 1.631478 1_555
O12 Si4 1.630418 1_555
O13 S2 1.462575 1_555
O14 Si5 1.629350 1_555
O15 S3 1.461186 1_555
O16 Si6 1.650573 1_555
O17 S4 1.469933 1_555
O18 S4 1.479496 1_555
O19 S3 1.495669 1_555
O20 Si6 1.640646 1_555
O21 S2 1.516028 1_555
O22 Si5 1.653525 1_555
O23 Si4 1.667049 1_555
O24 S5 1.483898 1_555
O25 Si7 1.652120 1_555
O26 S6 1.496244 1_555
O27 Si8 1.616362 1_555
O28 S7 1.475512 1_555
O29 S8 1.486124 1_555
O30 S8 1.506874 1_555
O31 Si8 1.664223 1_555
O32 S7 1.482327 1_555
O33 Si7 1.621576 1_555
O34 S6 1.477926 1_555
O35 S5 1.465742 1_555
O36 S8 1.486243 1_555
O37 Si8 1.666831 1_555
O38 S7 1.518631 1_555
O39 Si7 1.636949 1_555
O40 S6 1.469387 1_555
O41 S5 1.495493 1_555
O42 Si4 1.645056 1_555
O43 S2 1.465638 1_555
O44 Si5 1.676408 1_555
O45 S3 1.481390 1_555
O46 Si6 1.639887 1_555
O47 S4 1.502604 1_555
O48 Si3 1.632649 1_555
O49 S1 1.468104 1_555
O50 Si2 1.660679 1_555
O51 S0 1.491357 1_555
O52 Si1 1.654124 1_655
O53 Si0 1.687456 1_545
O54 S5 1.491660 1_555
O55 Si7 1.678322 1_655
O56 S6 1.488792 1_545
O57 Si8 1.708195 1_545
O58 S7 1.474543 1_555
O59 S8 1.474499 1_655
O60 S4 1.495371 1_555
O61 S3 1.511722 1_455
O62 Si6 1.654007 1_565
O63 S2 1.509834 1_565
O64 Si5 1.644089 1_555
O65 Si4 1.639450 1_455
O66 Si0 1.642297 1_555
O67 S0 1.494485 1_555
O68 Si1 1.645709 1_555
O69 S1 1.512875 1_555
O70 Si2 1.641601 1_455
O71 Si3 1.639105 1_565
