# generated using pymatgen
data_MgZn(CoO2)4
_symmetry_space_group_name_H-M   'P 1'
_cell_length_a   2.95433425
_cell_length_b   7.54442578
_cell_length_c   7.86741876
_cell_angle_alpha   67.83944111
_cell_angle_beta   79.37544514
_cell_angle_gamma   78.88315474
_symmetry_Int_Tables_number   1
_chemical_formula_structural   MgZn(CoO2)4
_chemical_formula_sum   'Mg1 Zn1 Co4 O8'
_cell_volume   158.14713558
_cell_formula_units_Z   1
loop_
 _symmetry_equiv_pos_site_id
 _symmetry_equiv_pos_as_xyz
  1  'x, y, z'
loop_
 _atom_site_type_symbol
 _atom_site_label
 _atom_site_symmetry_multiplicity
 _atom_site_fract_x
 _atom_site_fract_y
 _atom_site_fract_z
 _atom_site_occupancy
  Mg  Mg0  1  0.03317600  0.94877200  0.98081900  1
  Zn  Zn0  1  0.30589400  0.15395100  0.23046500  1
  Co  Co0  1  0.61308700  0.20362500  0.57123200  1
  Co  Co1  1  0.12981300  0.56574300  0.16684500  1
  Co  Co2  1  0.86405600  0.41833400  0.84578400  1
  Co  Co3  1  0.28884100  0.82792500  0.58806700  1
  O  O0  1  0.84370900  0.65872100  0.64753900  1
  O  O1  1  0.45927200  0.33499000  0.73412100  1
  O  O2  1  0.56161700  0.76029500  0.11268400  1
  O  O3  1  0.13452000  0.34990200  0.37926600  1
  O  O4  1  0.13500800  0.01570500  0.71404700  1
  O  O5  1  0.88236800  0.17599400  0.05112400  1
  O  O6  1  0.77958800  0.01011700  0.42880100  1
  O  O7  1  0.26525700  0.50560000  0.95863900  1
loop_
_geom_bond_atom_site_label_1
_geom_bond_atom_site_label_2
_geom_bond_distance
_geom_bond_site_symmetry_2
Mg0 O5 1.942435 1_466
Mg0 O4 1.943373 1_565
Mg0 O2 2.038906 1_456
Mg0 O2 2.040546 1_556
Co0 O1 1.844113 1_555
Co0 O4 2.060124 1_655
Co0 O4 2.062183 1_555
Co0 O6 2.093544 1_555
Co0 O3 2.100526 1_655
Co0 O3 2.103832 1_555
Co1 O7 1.816093 1_554
Co1 O3 1.841630 1_555
Co1 O2 1.998898 1_455
Co1 O2 2.003279 1_555
Co2 O0 1.893119 1_555
Co2 O1 1.918342 1_655
Co2 O1 1.921277 1_555
Co2 O5 1.929076 1_556
Co2 O7 1.938207 1_655
Co2 O7 1.940103 1_555
Co3 O0 1.883553 1_455
Co3 O0 1.887052 1_555
Co3 O4 1.959802 1_565
Co3 O6 2.078768 1_465
Co3 O6 2.088222 1_565
O3 Zn0 2.147264 1_555
O5 Zn0 1.991253 1_555
O5 Zn0 1.994435 1_655
O6 Zn0 2.123350 1_655
O6 Zn0 2.124393 1_555
