# generated using pymatgen
data_MgMn2(NiO3)2
_symmetry_space_group_name_H-M   'P 1'
_cell_length_a   5.81528340
_cell_length_b   5.81528357
_cell_length_c   5.81528359
_cell_angle_alpha   52.39343278
_cell_angle_beta   52.39343750
_cell_angle_gamma   52.39343647
_symmetry_Int_Tables_number   1
_chemical_formula_structural   MgMn2(NiO3)2
_chemical_formula_sum   'Mg1 Mn2 Ni2 O6'
_cell_volume   114.21867440
_cell_formula_units_Z   1
loop_
 _symmetry_equiv_pos_site_id
 _symmetry_equiv_pos_as_xyz
  1  'x, y, z'
loop_
 _atom_site_type_symbol
 _atom_site_label
 _atom_site_symmetry_multiplicity
 _atom_site_fract_x
 _atom_site_fract_y
 _atom_site_fract_z
 _atom_site_occupancy
  Mg  Mg0  1  0.00000000  0.00000000  0.00000000  1
  Mn  Mn0  1  0.82707500  0.82707400  0.82707600  1
  Mn  Mn1  1  0.17292500  0.17292400  0.17292500  1
  Ni  Ni0  1  0.64432200  0.64432200  0.64432100  1
  Ni  Ni1  1  0.35567900  0.35567900  0.35567800  1
  O  O0  1  0.77210900  0.41591100  0.05556100  1
  O  O1  1  0.41591100  0.05556100  0.77211100  1
  O  O2  1  0.05556100  0.77211100  0.41591000  1
  O  O3  1  0.22789000  0.58409000  0.94443900  1
  O  O4  1  0.94443800  0.22789000  0.58409000  1
  O  O5  1  0.58409000  0.94444000  0.22788800  1
loop_
_geom_bond_atom_site_label_1
_geom_bond_atom_site_label_2
_geom_bond_distance
_geom_bond_site_symmetry_2
Mg0 O5 2.056615 1_445
Mg0 O3 2.056616 1_544
Mg0 O2 2.056617 1_545
Mg0 O4 2.056619 1_454
Mg0 O0 2.056620 1_455
Mg0 O1 2.056622 1_554
Mn0 O0 2.030190 1_556
Mn0 O1 2.030191 1_565
Mn0 O2 2.030197 1_655
Mn0 O5 2.154096 1_556
Mn0 O3 2.154103 1_655
Mn0 O4 2.154105 1_565
Mn1 O5 2.030193 1_545
Mn1 O4 2.030199 1_455
Mn1 O3 2.030202 1_554
Mn1 O2 2.154095 1_545
Mn1 O1 2.154095 1_554
Mn1 O0 2.154108 1_455
Ni0 O4 2.040588 1_555
Ni0 O3 2.040590 1_555
Ni0 O5 2.040595 1_555
Ni0 O0 2.263427 1_556
Ni0 O2 2.263429 1_655
Ni0 O1 2.263432 1_565
Ni1 O0 2.040581 1_555
Ni1 O2 2.040590 1_555
Ni1 O1 2.040595 1_555
Ni1 O3 2.263429 1_554
Ni1 O5 2.263432 1_545
Ni1 O4 2.263438 1_455
