# generated using pymatgen
data_SN
_symmetry_space_group_name_H-M   'P 1'
_cell_length_a   4.28453000
_cell_length_b   4.40440600
_cell_length_c   8.97756086
_cell_angle_alpha   74.93671123
_cell_angle_beta   90.00000000
_cell_angle_gamma   90.00000000
_symmetry_Int_Tables_number   1
_chemical_formula_structural   SN
_chemical_formula_sum   'S4 N4'
_cell_volume   163.59267165
_cell_formula_units_Z   4
loop_
 _symmetry_equiv_pos_site_id
 _symmetry_equiv_pos_as_xyz
  1  'x, y, z'
loop_
 _atom_site_type_symbol
 _atom_site_label
 _atom_site_symmetry_multiplicity
 _atom_site_fract_x
 _atom_site_fract_y
 _atom_site_fract_z
 _atom_site_occupancy
  S  S0  1  0.10545000  0.79894100  0.10008500  1
  S  S1  1  0.60545000  0.20105900  0.39991500  1
  S  S2  1  0.89455000  0.20105900  0.89991500  1
  S  S3  1  0.39455000  0.79894100  0.60008500  1
  N  N0  1  0.05569300  0.18532600  0.06849000  1
  N  N1  1  0.55569300  0.81467400  0.43151000  1
  N  N2  1  0.94430700  0.81467400  0.93151000  1
  N  N3  1  0.44430700  0.18532600  0.56849000  1
loop_
_geom_bond_atom_site_label_1
_geom_bond_atom_site_label_2
_geom_bond_distance
_geom_bond_site_symmetry_2
N0 S2 1.648433 1_454
N0 S0 1.664667 1_545
N1 S3 1.648433 1_555
N1 S1 1.664667 1_565
N2 S0 1.648433 1_656
N2 S2 1.664667 1_565
N3 S1 1.648433 1_555
N3 S3 1.664667 1_545
