# generated using pymatgen
data_MgV2(FeO4)2
_symmetry_space_group_name_H-M   'P 1'
_cell_length_a   5.34459141
_cell_length_b   5.35560633
_cell_length_c   6.36021807
_cell_angle_alpha   94.18881935
_cell_angle_beta   86.62788437
_cell_angle_gamma   114.11847793
_symmetry_Int_Tables_number   1
_chemical_formula_structural   MgV2(FeO4)2
_chemical_formula_sum   'Mg1 V2 Fe2 O8'
_cell_volume   165.63137550
_cell_formula_units_Z   1
loop_
 _symmetry_equiv_pos_site_id
 _symmetry_equiv_pos_as_xyz
  1  'x, y, z'
loop_
 _atom_site_type_symbol
 _atom_site_label
 _atom_site_symmetry_multiplicity
 _atom_site_fract_x
 _atom_site_fract_y
 _atom_site_fract_z
 _atom_site_occupancy
  Mg  Mg0  1  0.50000400  0.49997000  0.00000700  1
  V  V0  1  0.66820900  0.33660800  0.30083600  1
  V  V1  1  0.33177500  0.66343200  0.69908200  1
  Fe  Fe0  1  0.00009100  0.00006700  0.49997700  1
  Fe  Fe1  1  0.99996900  0.99998200  0.00002200  1
  O  O0  1  0.69107500  0.76580000  0.75417600  1
  O  O1  1  0.30890500  0.23418800  0.24583900  1
  O  O2  1  0.77144900  0.69630700  0.24942100  1
  O  O3  1  0.22855300  0.30370000  0.75059100  1
  O  O4  1  0.22236100  0.77492500  0.93103500  1
  O  O5  1  0.76706200  0.23387900  0.51403200  1
  O  O6  1  0.23294600  0.76607900  0.48600900  1
  O  O7  1  0.77760400  0.22506200  0.06897500  1
loop_
_geom_bond_atom_site_label_1
_geom_bond_atom_site_label_2
_geom_bond_distance
_geom_bond_site_symmetry_2
Mg0 O1 2.112605 1_555
Mg0 O0 2.112711 1_554
Mg0 O3 2.122977 1_554
Mg0 O2 2.123009 1_555
Mg0 O7 2.552924 1_555
Mg0 O4 2.553329 1_554
Fe0 O5 2.090989 1_455
Fe0 O6 2.091021 1_545
Fe0 O3 2.214398 1_555
Fe0 O2 2.214734 1_445
Fe0 O1 2.280325 1_555
Fe0 O0 2.281332 1_445
Fe1 O7 2.022395 1_565
Fe1 O4 2.022442 1_654
Fe1 O0 2.251329 1_554
Fe1 O1 2.251349 1_665
Fe1 O2 2.275631 1_555
Fe1 O3 2.275972 1_664
O0 V1 1.817045 1_555
O1 V0 1.816881 1_555
O2 V0 1.823333 1_555
O3 V1 1.823657 1_555
O4 V1 1.711758 1_555
O5 V0 1.688580 1_555
O6 V1 1.687631 1_555
O7 V0 1.711357 1_555
