# generated using pymatgen
data_Li3Cr2(PO4)3
_symmetry_space_group_name_H-M   'P 1'
_cell_length_a   10.15990173
_cell_length_b   10.15990173
_cell_length_c   10.15990173
_cell_angle_alpha   109.47122063
_cell_angle_beta   109.47122063
_cell_angle_gamma   109.47122063
_symmetry_Int_Tables_number   1
_chemical_formula_structural   Li3Cr2(PO4)3
_chemical_formula_sum   'Li12 Cr8 P12 O48'
_cell_volume   807.32171015
_cell_formula_units_Z   4
loop_
 _symmetry_equiv_pos_site_id
 _symmetry_equiv_pos_as_xyz
  1  'x, y, z'
loop_
 _atom_site_type_symbol
 _atom_site_label
 _atom_site_symmetry_multiplicity
 _atom_site_fract_x
 _atom_site_fract_y
 _atom_site_fract_z
 _atom_site_occupancy
  Li  Li0  1  0.12500000  0.25000000  0.37500000  1
  Li  Li1  1  0.37500000  0.12500000  0.25000000  1
  Li  Li2  1  0.87500000  0.62500000  0.25000000  1
  Li  Li3  1  0.37500000  0.75000000  0.12500000  1
  Li  Li4  1  0.75000000  0.62500000  0.87500000  1
  Li  Li5  1  0.25000000  0.37500000  0.12500000  1
  Li  Li6  1  0.75000000  0.12500000  0.37500000  1
  Li  Li7  1  0.25000000  0.87500000  0.62500000  1
  Li  Li8  1  0.62500000  0.25000000  0.87500000  1
  Li  Li9  1  0.12500000  0.37500000  0.75000000  1
  Li  Li10  1  0.62500000  0.87500000  0.75000000  1
  Li  Li11  1  0.87500000  0.75000000  0.62500000  1
  Cr  Cr0  1  0.00000000  0.00000000  0.00000000  1
  Cr  Cr1  1  0.50000000  0.00000000  0.00000000  1
  Cr  Cr2  1  0.00000000  0.50000000  0.00000000  1
  Cr  Cr3  1  0.50000000  0.50000000  0.50000000  1
  Cr  Cr4  1  0.50000000  0.50000000  0.00000000  1
  Cr  Cr5  1  0.00000000  0.50000000  0.50000000  1
  Cr  Cr6  1  0.50000000  0.00000000  0.50000000  1
  Cr  Cr7  1  0.00000000  0.00000000  0.50000000  1
  P  P0  1  0.75000000  0.87500000  0.12500000  1
  P  P1  1  0.12500000  0.87500000  0.25000000  1
  P  P2  1  0.37500000  0.62500000  0.75000000  1
  P  P3  1  0.87500000  0.25000000  0.12500000  1
  P  P4  1  0.37500000  0.25000000  0.62500000  1
  P  P5  1  0.25000000  0.62500000  0.37500000  1
  P  P6  1  0.75000000  0.37500000  0.62500000  1
  P  P7  1  0.62500000  0.75000000  0.37500000  1
  P  P8  1  0.12500000  0.75000000  0.87500000  1
  P  P9  1  0.62500000  0.37500000  0.25000000  1
  P  P10  1  0.87500000  0.12500000  0.75000000  1
  P  P11  1  0.25000000  0.12500000  0.87500000  1
  O  O0  1  0.91000200  0.29331500  0.29988700  1
  O  O1  1  0.70668500  0.70011300  0.08999800  1
  O  O2  1  0.88988500  0.00657200  0.29988700  1
  O  O3  1  0.61668700  0.41000200  0.11011500  1
  O  O4  1  0.20011300  0.49342800  0.61011500  1
  O  O5  1  0.11668700  0.00657200  0.20668500  1
  O  O6  1  0.99342800  0.70011300  0.11011500  1
  O  O7  1  0.29988700  0.88988500  0.00657200  1
  O  O8  1  0.88331300  0.38988500  0.08999800  1
  O  O9  1  0.20011300  0.20668500  0.58999800  1
  O  O10  1  0.38331300  0.29331500  0.49342800  1
  O  O11  1  0.08999800  0.88331300  0.38988500  1
  O  O12  1  0.58999800  0.20011300  0.20668500  1
  O  O13  1  0.50657200  0.61668700  0.70668500  1
  O  O14  1  0.29988700  0.91000200  0.29331500  1
  O  O15  1  0.20668500  0.58999800  0.20011300  1
  O  O16  1  0.61011500  0.91000200  0.11668700  1
  O  O17  1  0.70668500  0.50657200  0.61668700  1
  O  O18  1  0.11011500  0.61668700  0.41000200  1
  O  O19  1  0.79331500  0.88331300  0.99342800  1
  O  O20  1  0.61011500  0.20011300  0.49342800  1
  O  O21  1  0.00657200  0.20668500  0.11668700  1
  O  O22  1  0.41000200  0.11011500  0.61668700  1
  O  O23  1  0.50657200  0.38988500  0.79988700  1
  O  O24  1  0.49342800  0.61011500  0.20011300  1
  O  O25  1  0.58999800  0.88988500  0.38331300  1
  O  O26  1  0.99342800  0.79331500  0.88331300  1
  O  O27  1  0.20668500  0.11668700  0.00657200  1
  O  O28  1  0.38988500  0.79988700  0.50657200  1
  O  O29  1  0.88988500  0.38331300  0.58999800  1
  O  O30  1  0.29331500  0.49342800  0.38331300  1
  O  O31  1  0.79331500  0.41000200  0.79988700  1
  O  O32  1  0.38988500  0.08999800  0.88331300  1
  O  O33  1  0.70011300  0.08999800  0.70668500  1
  O  O34  1  0.49342800  0.38331300  0.29331500  1
  O  O35  1  0.41000200  0.79988700  0.79331500  1
  O  O36  1  0.91000200  0.11668700  0.61011500  1
  O  O37  1  0.79988700  0.79331500  0.41000200  1
  O  O38  1  0.61668700  0.70668500  0.50657200  1
  O  O39  1  0.11668700  0.61011500  0.91000200  1
  O  O40  1  0.70011300  0.11011500  0.99342800  1
  O  O41  1  0.00657200  0.29988700  0.88988500  1
  O  O42  1  0.79988700  0.50657200  0.38988500  1
  O  O43  1  0.88331300  0.99342800  0.79331500  1
  O  O44  1  0.38331300  0.58999800  0.88988500  1
  O  O45  1  0.11011500  0.99342800  0.70011300  1
  O  O46  1  0.29331500  0.29988700  0.91000200  1
  O  O47  1  0.08999800  0.70668500  0.70011300  1
loop_
_geom_bond_atom_site_label_1
_geom_bond_atom_site_label_2
_geom_bond_distance
_geom_bond_site_symmetry_2
Li0 O21 2.302370 1_555
Li0 O10 2.302370 1_555
Li0 O0 2.302370 1_455
Li0 O9 2.302370 1_555
Li0 O4 2.448079 1_555
Li0 O30 2.448079 1_555
Li0 O2 2.448079 1_455
Li0 O5 2.448079 1_555
Li1 O34 2.302370 1_555
Li1 O14 2.302370 1_545
Li1 O12 2.302370 1_555
Li1 O5 2.302370 1_555
Li1 O7 2.448079 1_545
Li1 O20 2.448079 1_555
Li1 O10 2.448079 1_555
Li1 O27 2.448079 1_555
Li2 O6 2.302370 1_555
Li2 O42 2.302370 1_555
Li2 O11 2.302370 1_655
Li2 O3 2.302370 1_555
Li2 O37 2.448079 1_555
Li2 O18 2.448079 1_655
Li2 O8 2.448079 1_555
Li2 O1 2.448079 1_555
Li3 O39 2.302370 1_554
Li3 O25 2.302370 1_555
Li3 O7 2.302370 1_555
Li3 O24 2.302370 1_555
Li3 O44 2.448079 1_554
Li3 O15 2.448079 1_555
Li3 O16 2.448079 1_555
Li3 O14 2.448079 1_555
Li4 O1 2.302370 1_556
Li4 O17 2.302370 1_555
Li4 O19 2.302370 1_555
Li4 O31 2.302370 1_555
Li4 O13 2.448079 1_555
Li4 O26 2.448079 1_555
Li4 O6 2.448079 1_556
Li4 O23 2.448079 1_555
Li5 O30 2.302370 1_555
Li5 O27 2.302370 1_555
Li5 O46 2.302370 1_554
Li5 O15 2.302370 1_555
Li5 O34 2.448079 1_555
Li5 O24 2.448079 1_555
Li5 O41 2.448079 1_554
Li5 O21 2.448079 1_555
Li6 O29 2.302370 1_555
Li6 O16 2.302370 1_545
Li6 O20 2.302370 1_555
Li6 O2 2.302370 1_555
Li6 O25 2.448079 1_545
Li6 O12 2.448079 1_555
Li6 O36 2.448079 1_555
Li6 O0 2.448079 1_555
Li7 O28 2.302370 1_555
Li7 O45 2.302370 1_555
Li7 O32 2.302370 1_565
Li7 O18 2.302370 1_555
Li7 O35 2.448079 1_555
Li7 O22 2.448079 1_565
Li7 O47 2.448079 1_555
Li7 O11 2.448079 1_555
Li8 O40 2.302370 1_555
Li8 O23 2.302370 1_555
Li8 O8 2.302370 1_556
Li8 O22 2.302370 1_555
Li8 O31 2.448079 1_555
Li8 O3 2.448079 1_556
Li8 O33 2.448079 1_555
Li8 O32 2.448079 1_555
Li9 O44 2.302370 1_555
Li9 O36 2.302370 1_455
Li9 O41 2.302370 1_555
Li9 O4 2.302370 1_555
Li9 O39 2.448079 1_555
Li9 O46 2.448079 1_555
Li9 O29 2.448079 1_455
Li9 O9 2.448079 1_555
Li10 O43 2.302370 1_555
Li10 O33 2.302370 1_565
Li10 O35 2.302370 1_555
Li10 O13 2.302370 1_555
Li10 O19 2.448079 1_555
Li10 O40 2.448079 1_565
Li10 O28 2.448079 1_555
Li10 O38 2.448079 1_555
Li11 O37 2.302370 1_555
Li11 O26 2.302370 1_555
Li11 O38 2.302370 1_555
Li11 O47 2.302370 1_655
Li11 O17 2.448079 1_555
Li11 O45 2.448079 1_655
Li11 O43 2.448079 1_555
Li11 O42 2.448079 1_555
Cr0 O21 2.003399 1_555
Cr0 O26 2.003399 1_444
Cr0 O19 2.003399 1_444
Cr0 O43 2.003399 1_444
Cr0 O27 2.003399 1_555
Cr0 O5 2.003399 1_555
Cr1 O35 2.003399 1_544
Cr1 O16 2.003399 1_545
Cr1 O7 2.003399 1_545
Cr1 O40 2.003399 1_554
Cr1 O32 2.003399 1_554
Cr1 O12 2.003399 1_555
Cr2 O6 2.003399 1_455
Cr2 O15 2.003399 1_555
Cr2 O41 2.003399 1_554
Cr2 O31 2.003399 1_454
Cr2 O39 2.003399 1_554
Cr2 O8 2.003399 1_455
Cr3 O17 2.003399 1_555
Cr3 O30 2.003399 1_555
Cr3 O34 2.003399 1_555
Cr3 O38 2.003399 1_555
Cr3 O13 2.003399 1_555
Cr3 O10 2.003399 1_555
Cr4 O44 2.003399 1_554
Cr4 O23 2.003399 1_554
Cr4 O1 2.003399 1_555
Cr4 O46 2.003399 1_554
Cr4 O3 2.003399 1_555
Cr4 O24 2.003399 1_555
Cr5 O47 2.003399 1_555
Cr5 O0 2.003399 1_455
Cr5 O29 2.003399 1_455
Cr5 O42 2.003399 1_455
Cr5 O18 2.003399 1_555
Cr5 O4 2.003399 1_555
Cr6 O33 2.003399 1_555
Cr6 O25 2.003399 1_545
Cr6 O14 2.003399 1_545
Cr6 O28 2.003399 1_545
Cr6 O22 2.003399 1_555
Cr6 O20 2.003399 1_555
Cr7 O45 2.003399 1_545
Cr7 O37 2.003399 1_445
Cr7 O2 2.003399 1_455
Cr7 O11 2.003399 1_545
Cr7 O36 2.003399 1_455
Cr7 O9 2.003399 1_555
O0 P3 1.558973 1_555
O1 P0 1.558973 1_555
O2 P0 1.558973 1_545
O3 P9 1.558973 1_555
O4 P2 1.558973 1_555
O5 P1 1.558973 1_545
O6 P1 1.558973 1_655
O7 P8 1.558973 1_554
O8 P3 1.558973 1_555
O9 P4 1.558973 1_555
O10 P4 1.558973 1_555
O11 P1 1.558973 1_555
O12 P9 1.558973 1_555
O13 P2 1.558973 1_555
O14 P1 1.558973 1_555
O15 P5 1.558973 1_555
O16 P0 1.558973 1_555
O17 P6 1.558973 1_555
O18 P5 1.558973 1_555
O19 P0 1.558973 1_556
O20 P6 1.558973 1_555
O21 P3 1.558973 1_455
O22 P4 1.558973 1_555
O23 P4 1.558973 1_555
O24 P7 1.558973 1_555
O25 P7 1.558973 1_555
O26 P8 1.558973 1_655
O27 P11 1.558973 1_554
O28 P5 1.558973 1_555
O29 P6 1.558973 1_555
O30 P5 1.558973 1_555
O31 P6 1.558973 1_555
O32 P11 1.558973 1_555
O33 P10 1.558973 1_555
O34 P9 1.558973 1_555
O35 P2 1.558973 1_555
O36 P10 1.558973 1_555
O37 P7 1.558973 1_555
O38 P7 1.558973 1_555
O39 P8 1.558973 1_555
O40 P3 1.558973 1_556
O41 P10 1.558973 1_455
O42 P9 1.558973 1_555
O43 P10 1.558973 1_565
O44 P2 1.558973 1_555
O45 P11 1.558973 1_565
O46 P11 1.558973 1_555
O47 P8 1.558973 1_555
