# generated using pymatgen
data_Yb2MgCr2O8
_symmetry_space_group_name_H-M   'P 1'
_cell_length_a   6.03940365
_cell_length_b   6.06438460
_cell_length_c   6.21359046
_cell_angle_alpha   105.51562484
_cell_angle_beta   105.23732887
_cell_angle_gamma   117.67196708
_symmetry_Int_Tables_number   1
_chemical_formula_structural   Yb2MgCr2O8
_chemical_formula_sum   'Yb2 Mg1 Cr2 O8'
_cell_volume   173.07549369
_cell_formula_units_Z   1
loop_
 _symmetry_equiv_pos_site_id
 _symmetry_equiv_pos_as_xyz
  1  'x, y, z'
loop_
 _atom_site_type_symbol
 _atom_site_label
 _atom_site_symmetry_multiplicity
 _atom_site_fract_x
 _atom_site_fract_y
 _atom_site_fract_z
 _atom_site_occupancy
  Yb  Yb0  1  0.12999900  0.87071000  0.25200800  1
  Yb  Yb1  1  0.84733700  0.15289900  0.74957300  1
  Mg  Mg0  1  0.12937000  0.85849100  0.75052900  1
  Cr  Cr0  1  0.39762700  0.60308000  0.75003400  1
  Cr  Cr1  1  0.62220700  0.37675000  0.24924300  1
  O  O0  1  0.80400200  0.73490400  0.44986000  1
  O  O1  1  0.35487100  0.79628600  0.58847300  1
  O  O2  1  0.74905800  0.79228200  0.91766200  1
  O  O3  1  0.79244000  0.37766200  0.07151500  1
  O  O4  1  0.62327600  0.21019700  0.42943100  1
  O  O5  1  0.20536100  0.25361200  0.57889300  1
  O  O6  1  0.20530500  0.64383300  0.91517000  1
  O  O7  1  0.26414600  0.19387500  0.04760800  1
loop_
_geom_bond_atom_site_label_1
_geom_bond_atom_site_label_2
_geom_bond_distance
_geom_bond_site_symmetry_2
Mg0 O0 1.966380 1_455
Mg0 O7 1.967394 1_566
Mg0 O6 1.992948 1_555
Mg0 O1 2.001448 1_555
Mg0 O2 2.671242 1_455
Cr0 O5 1.682298 1_555
Cr0 O2 1.686063 1_555
Cr0 O6 1.794562 1_555
Cr0 O1 1.794798 1_555
Cr1 O3 1.694506 1_555
Cr1 O4 1.697360 1_555
Cr1 O7 1.755257 1_555
Cr1 O0 1.758978 1_555
O0 Yb0 2.524638 1_655
O0 Yb1 2.562087 1_565
O1 Yb1 2.414026 1_565
O1 Yb0 2.449626 1_555
O2 Yb0 2.403726 1_656
O2 Yb1 2.562806 1_565
O3 Yb1 2.297624 1_554
O3 Yb0 2.386756 1_655
O4 Yb1 2.302289 1_555
O4 Yb0 2.385715 1_545
O5 Yb0 2.394530 1_545
O5 Yb1 2.549192 1_455
O6 Yb1 2.410370 1_455
O6 Yb0 2.453840 1_556
O7 Yb0 2.551076 1_545
O7 Yb1 2.559358 1_454
