# generated using pymatgen
data_MgTe4Mo3W(SeS)2
_symmetry_space_group_name_H-M   'P 1'
_cell_length_a   6.78323218
_cell_length_b   6.78307394
_cell_length_c   77.45855203
_cell_angle_alpha   89.99725480
_cell_angle_beta   90.00233309
_cell_angle_gamma   120.02686380
_symmetry_Int_Tables_number   1
_chemical_formula_structural   MgTe4Mo3W(SeS)2
_chemical_formula_sum   'Mg8 Te32 Mo24 W8 Se16 S16'
_cell_volume   3085.64253905
_cell_formula_units_Z   8
loop_
 _symmetry_equiv_pos_site_id
 _symmetry_equiv_pos_as_xyz
  1  'x, y, z'
loop_
 _atom_site_type_symbol
 _atom_site_label
 _atom_site_symmetry_multiplicity
 _atom_site_fract_x
 _atom_site_fract_y
 _atom_site_fract_z
 _atom_site_occupancy
  Mg  Mg0_0  1  0.29881900  0.18481000  0.43770500  1
  Mg  Mg0_1  1  0.29881900  0.18481000  0.93770500  1
  Mg  Mg0_2  1  0.29881900  0.68481000  0.43770500  1
  Mg  Mg0_3  1  0.29881900  0.68481000  0.93770500  1
  Mg  Mg0_4  1  0.79881900  0.18481000  0.43770500  1
  Mg  Mg0_5  1  0.79881900  0.18481000  0.93770500  1
  Mg  Mg0_6  1  0.79881900  0.68481000  0.43770500  1
  Mg  Mg0_7  1  0.79881900  0.68481000  0.93770500  1
  Te  Te0_0  1  0.16668100  0.33336300  0.35310300  1
  Te  Te0_1  1  0.16668100  0.33336300  0.85310300  1
  Te  Te0_2  1  0.16668100  0.83336300  0.35310300  1
  Te  Te0_3  1  0.16668100  0.83336300  0.85310300  1
  Te  Te0_4  1  0.66668100  0.33336300  0.35310300  1
  Te  Te0_5  1  0.66668100  0.33336300  0.85310300  1
  Te  Te0_6  1  0.66668100  0.83336300  0.35310300  1
  Te  Te0_7  1  0.66668100  0.83336300  0.85310300  1
  Te  Te1_0  1  0.33332100  0.16664400  0.02276150  1
  Te  Te1_1  1  0.33332100  0.16664400  0.52276150  1
  Te  Te1_2  1  0.33332100  0.66664400  0.02276150  1
  Te  Te1_3  1  0.33332100  0.66664400  0.52276150  1
  Te  Te1_4  1  0.83332100  0.16664400  0.02276150  1
  Te  Te1_5  1  0.83332100  0.16664400  0.52276150  1
  Te  Te1_6  1  0.83332100  0.66664400  0.02276150  1
  Te  Te1_7  1  0.83332100  0.66664400  0.52276150  1
  Te  Te2_0  1  0.33332450  0.16665100  0.07114550  1
  Te  Te2_1  1  0.33332450  0.16665100  0.57114550  1
  Te  Te2_2  1  0.33332450  0.66665100  0.07114550  1
  Te  Te2_3  1  0.33332450  0.66665100  0.57114550  1
  Te  Te2_4  1  0.83332450  0.16665100  0.07114550  1
  Te  Te2_5  1  0.83332450  0.16665100  0.57114550  1
  Te  Te2_6  1  0.83332450  0.66665100  0.07114550  1
  Te  Te2_7  1  0.83332450  0.66665100  0.57114550  1
  Te  Te3_0  1  0.16668100  0.33336450  0.30441100  1
  Te  Te3_1  1  0.16668100  0.33336450  0.80441100  1
  Te  Te3_2  1  0.16668100  0.83336450  0.30441100  1
  Te  Te3_3  1  0.16668100  0.83336450  0.80441100  1
  Te  Te3_4  1  0.66668100  0.33336450  0.30441100  1
  Te  Te3_5  1  0.66668100  0.33336450  0.80441100  1
  Te  Te3_6  1  0.66668100  0.83336450  0.30441100  1
  Te  Te3_7  1  0.66668100  0.83336450  0.80441100  1
  Mo  Mo0_0  1  0.16665650  0.33331400  0.04694300  1
  Mo  Mo0_1  1  0.16665650  0.33331400  0.54694300  1
  Mo  Mo0_2  1  0.16665650  0.83331400  0.04694300  1
  Mo  Mo0_3  1  0.16665650  0.83331400  0.54694300  1
  Mo  Mo0_4  1  0.66665650  0.33331400  0.04694300  1
  Mo  Mo0_5  1  0.66665650  0.33331400  0.54694300  1
  Mo  Mo0_6  1  0.66665650  0.83331400  0.04694300  1
  Mo  Mo0_7  1  0.66665650  0.83331400  0.54694300  1
  Mo  Mo1_0  1  0.16665700  0.33331250  0.23482600  1
  Mo  Mo1_1  1  0.16665700  0.33331250  0.73482600  1
  Mo  Mo1_2  1  0.16665700  0.83331250  0.23482600  1
  Mo  Mo1_3  1  0.16665700  0.83331250  0.73482600  1
  Mo  Mo1_4  1  0.66665700  0.33331250  0.23482600  1
  Mo  Mo1_5  1  0.66665700  0.33331250  0.73482600  1
  Mo  Mo1_6  1  0.66665700  0.83331250  0.23482600  1
  Mo  Mo1_7  1  0.66665700  0.83331250  0.73482600  1
  Mo  Mo2_0  1  0.33334300  0.16668950  0.14090450  1
  Mo  Mo2_1  1  0.33334300  0.16668950  0.64090450  1
  Mo  Mo2_2  1  0.33334300  0.66668950  0.14090450  1
  Mo  Mo2_3  1  0.33334300  0.66668950  0.64090450  1
  Mo  Mo2_4  1  0.83334300  0.16668950  0.14090450  1
  Mo  Mo2_5  1  0.83334300  0.16668950  0.64090450  1
  Mo  Mo2_6  1  0.83334300  0.66668950  0.14090450  1
  Mo  Mo2_7  1  0.83334300  0.66668950  0.64090450  1
  W  W0_0  1  0.33334500  0.16669600  0.32878250  1
  W  W0_1  1  0.33334500  0.16669600  0.82878250  1
  W  W0_2  1  0.33334500  0.66669600  0.32878250  1
  W  W0_3  1  0.33334500  0.66669600  0.82878250  1
  W  W0_4  1  0.83334500  0.16669600  0.32878250  1
  W  W0_5  1  0.83334500  0.16669600  0.82878250  1
  W  W0_6  1  0.83334500  0.66669600  0.32878250  1
  W  W0_7  1  0.83334500  0.66669600  0.82878250  1
  Se  Se0_0  1  0.16668150  0.33336350  0.16219900  1
  Se  Se0_1  1  0.16668150  0.33336350  0.66219900  1
  Se  Se0_2  1  0.16668150  0.83336350  0.16219900  1
  Se  Se0_3  1  0.16668150  0.83336350  0.66219900  1
  Se  Se0_4  1  0.66668150  0.33336350  0.16219900  1
  Se  Se0_5  1  0.66668150  0.33336350  0.66219900  1
  Se  Se0_6  1  0.66668150  0.83336350  0.16219900  1
  Se  Se0_7  1  0.66668150  0.83336350  0.66219900  1
  Se  Se1_0  1  0.16667650  0.33335400  0.11961250  1
  Se  Se1_1  1  0.16667650  0.33335400  0.61961250  1
  Se  Se1_2  1  0.16667650  0.83335400  0.11961250  1
  Se  Se1_3  1  0.16667650  0.83335400  0.61961250  1
  Se  Se1_4  1  0.66667650  0.33335400  0.11961250  1
  Se  Se1_5  1  0.66667650  0.33335400  0.61961250  1
  Se  Se1_6  1  0.66667650  0.83335400  0.11961250  1
  Se  Se1_7  1  0.66667650  0.83335400  0.61961250  1
  S  S0_0  1  0.33331900  0.16664100  0.21540550  1
  S  S0_1  1  0.33331900  0.16664100  0.71540550  1
  S  S0_2  1  0.33331900  0.66664100  0.21540550  1
  S  S0_3  1  0.33331900  0.66664100  0.71540550  1
  S  S0_4  1  0.83331900  0.16664100  0.21540550  1
  S  S0_5  1  0.83331900  0.16664100  0.71540550  1
  S  S0_6  1  0.83331900  0.66664100  0.21540550  1
  S  S0_7  1  0.83331900  0.66664100  0.71540550  1
  S  S1_0  1  0.33331750  0.16663750  0.25426350  1
  S  S1_1  1  0.33331750  0.16663750  0.75426350  1
  S  S1_2  1  0.33331750  0.66663750  0.25426350  1
  S  S1_3  1  0.33331750  0.66663750  0.75426350  1
  S  S1_4  1  0.83331750  0.16663750  0.25426350  1
  S  S1_5  1  0.83331750  0.16663750  0.75426350  1
  S  S1_6  1  0.83331750  0.66663750  0.25426350  1
  S  S1_7  1  0.83331750  0.66663750  0.75426350  1
loop_
_geom_bond_atom_site_label_1
_geom_bond_atom_site_label_2
_geom_bond_distance
_geom_bond_site_symmetry_2
Mg0_0 Mg0_6 3.390199 1_445
Mg0_0 Mg0_6 3.390199 1_555
Mg0_0 Mg0_2 3.391537 1_555
Mg0_0 Mg0_2 3.391537 1_545
Mg0_0 Mg0_4 3.391616 1_555
Mg0_0 Mg0_4 3.391616 1_455
Mg0_1 Mg0_7 3.390199 1_555
Mg0_1 Mg0_7 3.390199 1_445
Mg0_1 Mg0_3 3.391537 1_545
Mg0_1 Mg0_3 3.391537 1_555
Mg0_1 Mg0_5 3.391616 1_555
Mg0_1 Mg0_5 3.391616 1_455
Mg0_2 Mg0_4 3.390199 1_565
Mg0_2 Mg0_4 3.390199 1_455
Mg0_2 Mg0_6 3.391616 1_455
Mg0_2 Mg0_6 3.391616 1_555
Mg0_3 Mg0_5 3.390199 1_455
Mg0_3 Mg0_5 3.390199 1_565
Mg0_3 Mg0_7 3.391616 1_455
Mg0_3 Mg0_7 3.391616 1_555
Mg0_4 Mg0_6 3.391537 1_555
Mg0_4 Mg0_6 3.391537 1_545
Mg0_5 Mg0_7 3.391537 1_555
Mg0_5 Mg0_7 3.391537 1_545
Te0_0 W0_2 2.716740 1_555
Te0_0 W0_4 2.716802 1_455
Te0_0 W0_0 2.717433 1_555
Te0_1 W0_3 2.716740 1_555
Te0_1 W0_5 2.716802 1_455
Te0_1 W0_1 2.717433 1_555
Te0_2 W0_0 2.716740 1_565
Te0_2 W0_6 2.716802 1_455
Te0_2 W0_2 2.717433 1_555
Te0_3 W0_1 2.716740 1_565
Te0_3 W0_7 2.716802 1_455
Te0_3 W0_3 2.717433 1_555
Te0_4 W0_6 2.716740 1_555
Te0_4 W0_0 2.716802 1_555
Te0_4 W0_4 2.717433 1_555
Te0_5 W0_7 2.716740 1_555
Te0_5 W0_1 2.716802 1_555
Te0_5 W0_5 2.717433 1_555
Te0_6 W0_4 2.716740 1_565
Te0_6 W0_2 2.716802 1_555
Te0_6 W0_6 2.717433 1_555
Te0_7 W0_5 2.716740 1_565
Te0_7 W0_3 2.716802 1_555
Te0_7 W0_7 2.717433 1_555
Te3_0 W0_2 2.719561 1_555
Te3_0 W0_4 2.719595 1_455
Te3_0 W0_0 2.720041 1_555
Te3_1 W0_3 2.719561 1_555
Te3_1 W0_5 2.719595 1_455
Te3_1 W0_1 2.720041 1_555
Te3_2 W0_0 2.719561 1_565
Te3_2 W0_6 2.719595 1_455
Te3_2 W0_2 2.720041 1_555
Te3_3 W0_1 2.719561 1_565
Te3_3 W0_7 2.719595 1_455
Te3_3 W0_3 2.720041 1_555
Te3_4 W0_6 2.719561 1_555
Te3_4 W0_0 2.719595 1_555
Te3_4 W0_4 2.720041 1_555
Te3_5 W0_7 2.719561 1_555
Te3_5 W0_1 2.719595 1_555
Te3_5 W0_5 2.720041 1_555
Te3_6 W0_4 2.719561 1_565
Te3_6 W0_2 2.719595 1_555
Te3_6 W0_6 2.720041 1_555
Te3_7 W0_5 2.719561 1_565
Te3_7 W0_3 2.719595 1_555
Te3_7 W0_7 2.720041 1_555
Mo0_0 Te1_2 2.709272 1_555
Mo0_0 Te1_4 2.709346 1_455
Mo0_0 Te1_0 2.709995 1_555
Mo0_0 Te2_4 2.710508 1_455
Mo0_0 Te2_2 2.710513 1_555
Mo0_0 Te2_0 2.710966 1_555
Mo0_1 Te1_3 2.709272 1_555
Mo0_1 Te1_5 2.709346 1_455
Mo0_1 Te1_1 2.709995 1_555
Mo0_1 Te2_5 2.710508 1_455
Mo0_1 Te2_3 2.710513 1_555
Mo0_1 Te2_1 2.710966 1_555
Mo0_2 Te1_0 2.709272 1_565
Mo0_2 Te1_6 2.709346 1_455
Mo0_2 Te1_2 2.709995 1_555
Mo0_2 Te2_6 2.710508 1_455
Mo0_2 Te2_0 2.710513 1_565
Mo0_2 Te2_2 2.710966 1_555
Mo0_3 Te1_1 2.709272 1_565
Mo0_3 Te1_7 2.709346 1_455
Mo0_3 Te1_3 2.709995 1_555
Mo0_3 Te2_7 2.710508 1_455
Mo0_3 Te2_1 2.710513 1_565
Mo0_3 Te2_3 2.710966 1_555
Mo0_4 Te1_6 2.709272 1_555
Mo0_4 Te1_0 2.709346 1_555
Mo0_4 Te1_4 2.709995 1_555
Mo0_4 Te2_0 2.710508 1_555
Mo0_4 Te2_6 2.710513 1_555
Mo0_4 Te2_4 2.710966 1_555
Mo0_5 Te1_7 2.709272 1_555
Mo0_5 Te1_1 2.709346 1_555
Mo0_5 Te1_5 2.709995 1_555
Mo0_5 Te2_1 2.710508 1_555
Mo0_5 Te2_7 2.710513 1_555
Mo0_5 Te2_5 2.710966 1_555
Mo0_6 Te1_4 2.709272 1_565
Mo0_6 Te1_2 2.709346 1_555
Mo0_6 Te1_6 2.709995 1_555
Mo0_6 Te2_2 2.710508 1_555
Mo0_6 Te2_4 2.710513 1_565
Mo0_6 Te2_6 2.710966 1_555
Mo0_7 Te1_5 2.709272 1_565
Mo0_7 Te1_3 2.709346 1_555
Mo0_7 Te1_7 2.709995 1_555
Mo0_7 Te2_3 2.710508 1_555
Mo0_7 Te2_5 2.710513 1_565
Mo0_7 Te2_7 2.710966 1_555
Mo1_0 S0_2 2.468739 1_555
Mo1_0 S0_4 2.468834 1_455
Mo1_0 S0_0 2.469509 1_555
Mo1_0 S1_2 2.469601 1_555
Mo1_0 S1_4 2.469690 1_455
Mo1_0 S1_0 2.470199 1_555
Mo1_1 S0_3 2.468739 1_555
Mo1_1 S0_5 2.468834 1_455
Mo1_1 S0_1 2.469509 1_555
Mo1_1 S1_3 2.469601 1_555
Mo1_1 S1_5 2.469690 1_455
Mo1_1 S1_1 2.470199 1_555
Mo1_2 S0_0 2.468739 1_565
Mo1_2 S0_6 2.468834 1_455
Mo1_2 S0_2 2.469509 1_555
Mo1_2 S1_0 2.469601 1_565
Mo1_2 S1_6 2.469690 1_455
Mo1_2 S1_2 2.470199 1_555
Mo1_3 S0_1 2.468739 1_565
Mo1_3 S0_7 2.468834 1_455
Mo1_3 S0_3 2.469509 1_555
Mo1_3 S1_1 2.469601 1_565
Mo1_3 S1_7 2.469690 1_455
Mo1_3 S1_3 2.470199 1_555
Mo1_4 S0_6 2.468739 1_555
Mo1_4 S0_0 2.468834 1_555
Mo1_4 S0_4 2.469509 1_555
Mo1_4 S1_6 2.469601 1_555
Mo1_4 S1_0 2.469690 1_555
Mo1_4 S1_4 2.470199 1_555
Mo1_5 S0_7 2.468739 1_555
Mo1_5 S0_1 2.468834 1_555
Mo1_5 S0_5 2.469509 1_555
Mo1_5 S1_7 2.469601 1_555
Mo1_5 S1_1 2.469690 1_555
Mo1_5 S1_5 2.470199 1_555
Mo1_6 S0_4 2.468739 1_565
Mo1_6 S0_2 2.468834 1_555
Mo1_6 S0_6 2.469509 1_555
Mo1_6 S1_4 2.469601 1_565
Mo1_6 S1_2 2.469690 1_555
Mo1_6 S1_6 2.470199 1_555
Mo1_7 S0_5 2.468739 1_565
Mo1_7 S0_3 2.468834 1_555
Mo1_7 S0_7 2.469509 1_555
Mo1_7 S1_5 2.469601 1_565
Mo1_7 S1_3 2.469690 1_555
Mo1_7 S1_7 2.470199 1_555
Mo2_0 Se1_2 2.559760 1_545
Mo2_0 Se0_2 2.559762 1_545
Mo2_0 Se1_4 2.559770 1_555
Mo2_0 Se0_4 2.559869 1_555
Mo2_0 Se1_0 2.560261 1_555
Mo2_0 Se0_0 2.560535 1_555
Mo2_1 Se1_3 2.559760 1_545
Mo2_1 Se0_3 2.559762 1_545
Mo2_1 Se1_5 2.559770 1_555
Mo2_1 Se0_5 2.559869 1_555
Mo2_1 Se1_1 2.560261 1_555
Mo2_1 Se0_1 2.560535 1_555
Mo2_2 Se1_0 2.559760 1_555
Mo2_2 Se0_0 2.559762 1_555
Mo2_2 Se1_6 2.559770 1_555
Mo2_2 Se0_6 2.559869 1_555
Mo2_2 Se1_2 2.560261 1_555
Mo2_2 Se0_2 2.560535 1_555
Mo2_3 Se1_1 2.559760 1_555
Mo2_3 Se0_1 2.559762 1_555
Mo2_3 Se1_7 2.559770 1_555
Mo2_3 Se0_7 2.559869 1_555
Mo2_3 Se1_3 2.560261 1_555
Mo2_3 Se0_3 2.560535 1_555
Mo2_4 Se1_6 2.559760 1_545
Mo2_4 Se0_6 2.559762 1_545
Mo2_4 Se1_0 2.559770 1_655
Mo2_4 Se0_0 2.559869 1_655
Mo2_4 Se1_4 2.560261 1_555
Mo2_4 Se0_4 2.560535 1_555
Mo2_5 Se1_7 2.559760 1_545
Mo2_5 Se0_7 2.559762 1_545
Mo2_5 Se1_1 2.559770 1_655
Mo2_5 Se0_1 2.559869 1_655
Mo2_5 Se1_5 2.560261 1_555
Mo2_5 Se0_5 2.560535 1_555
Mo2_6 Se1_4 2.559760 1_555
Mo2_6 Se0_4 2.559762 1_555
Mo2_6 Se1_2 2.559770 1_655
Mo2_6 Se0_2 2.559869 1_655
Mo2_6 Se1_6 2.560261 1_555
Mo2_6 Se0_6 2.560535 1_555
Mo2_7 Se1_5 2.559760 1_555
Mo2_7 Se0_5 2.559762 1_555
Mo2_7 Se1_3 2.559770 1_655
Mo2_7 Se0_3 2.559869 1_655
Mo2_7 Se1_7 2.560261 1_555
Mo2_7 Se0_7 2.560535 1_555
