# generated using pymatgen
data_FeSi2
_symmetry_space_group_name_H-M   'P 1'
_cell_length_a   2.67941293
_cell_length_b   2.67941293
_cell_length_c   5.10487271
_cell_angle_alpha   90.00000000
_cell_angle_beta   90.00000000
_cell_angle_gamma   90.00000000
_symmetry_Int_Tables_number   1
_chemical_formula_structural   FeSi2
_chemical_formula_sum   'Fe1 Si2'
_cell_volume   36.64917603
_cell_formula_units_Z   1
loop_
 _symmetry_equiv_pos_site_id
 _symmetry_equiv_pos_as_xyz
  1  'x, y, z'
loop_
 _atom_site_type_symbol
 _atom_site_label
 _atom_site_symmetry_multiplicity
 _atom_site_fract_x
 _atom_site_fract_y
 _atom_site_fract_z
 _atom_site_occupancy
  Fe  Fe0  1  0.00000000  0.00000000  0.00000000  1
  Si  Si0  1  0.50000000  0.50000000  0.72860178  1
  Si  Si1  1  0.50000000  0.50000000  0.27139822  1
loop_
_geom_bond_atom_site_label_1
_geom_bond_atom_site_label_2
_geom_bond_distance
_geom_bond_site_symmetry_2
Fe0 Si0 2.347149 1_454
Fe0 Si1 2.347149 1_455
Fe0 Si0 2.347149 1_444
Fe0 Si0 2.347149 1_544
Fe0 Si1 2.347149 1_445
Fe0 Si1 2.347149 1_555
Fe0 Si0 2.347149 1_554
Fe0 Si1 2.347149 1_545
Si0 Si1 2.333966 1_555
