# generated using pymatgen
data_Rb4Mg(FeO2)4
_symmetry_space_group_name_H-M   'P 1'
_cell_length_a   6.03576314
_cell_length_b   6.17520353
_cell_length_c   8.15719184
_cell_angle_alpha   91.04601341
_cell_angle_beta   89.28361576
_cell_angle_gamma   90.38411977
_symmetry_Int_Tables_number   1
_chemical_formula_structural   Rb4Mg(FeO2)4
_chemical_formula_sum   'Rb4 Mg1 Fe4 O8'
_cell_volume   303.95458857
_cell_formula_units_Z   1
loop_
 _symmetry_equiv_pos_site_id
 _symmetry_equiv_pos_as_xyz
  1  'x, y, z'
loop_
 _atom_site_type_symbol
 _atom_site_label
 _atom_site_symmetry_multiplicity
 _atom_site_fract_x
 _atom_site_fract_y
 _atom_site_fract_z
 _atom_site_occupancy
  Rb  Rb0  1  0.20462816  0.20665829  0.48601190  1
  Rb  Rb1  1  0.23444563  0.67130488  0.76187425  1
  Rb  Rb2  1  0.66860432  0.23577501  0.22502071  1
  Rb  Rb3  1  0.85121828  0.71515610  0.07536257  1
  Mg  Mg0  1  0.65546530  0.00627376  0.78750064  1
  Fe  Fe0  1  0.20456666  0.19492800  0.98660135  1
  Fe  Fe1  1  0.30133626  0.69598792  0.25156676  1
  Fe  Fe2  1  0.71541036  0.38921141  0.74243676  1
  Fe  Fe3  1  0.78688347  0.80617247  0.49600562  1
  O  O0  1  0.08333640  0.76713022  0.42326186  1
  O  O1  1  0.32050117  0.90358857  0.08261027  1
  O  O2  1  0.20851030  0.42331704  0.16777362  1
  O  O3  1  0.41574991  0.22318715  0.79473522  1
  O  O4  1  0.58906728  0.66961044  0.34987464  1
  O  O5  1  0.72584696  0.70317515  0.72463683  1
  O  O6  1  0.73674083  0.10052879  0.55373385  1
  O  O7  1  0.88112371  0.20455980  0.89568013  1
loop_
_geom_bond_atom_site_label_1
_geom_bond_atom_site_label_2
_geom_bond_distance
_geom_bond_site_symmetry_2
Mg0 O3 1.977899 1_555
Mg0 O5 1.979099 1_545
Mg0 O7 2.025176 1_555
Mg0 O6 2.056434 1_555
Fe0 O3 2.015390 1_555
Fe0 O2 2.024362 1_556
Fe0 O7 2.098608 1_455
Fe0 O1 2.102787 1_546
Fe1 O2 1.889758 1_555
Fe1 O1 1.901274 1_555
Fe1 O4 1.931070 1_555
Fe1 O0 1.955777 1_555
Fe2 O5 1.947401 1_555
Fe2 O7 1.990426 1_555
Fe2 O3 2.115711 1_555
Fe2 O6 2.337057 1_555
Fe3 O4 1.882290 1_555
Fe3 O0 1.893649 1_655
Fe3 O6 1.894723 1_565
Fe3 O5 2.010329 1_555
O0 Rb0 2.845472 1_565
O0 Rb1 2.990194 1_555
O1 Rb1 3.009870 1_554
O1 Rb3 3.055799 1_455
O1 Rb2 3.144537 1_565
O2 Rb3 2.934113 1_455
O2 Rb0 2.941816 1_555
O2 Rb2 3.060459 1_555
O3 Rb0 2.836413 1_555
O3 Rb1 3.000314 1_555
O4 Rb3 2.743242 1_555
O4 Rb2 2.889685 1_555
O5 Rb3 2.967946 1_556
O5 Rb1 2.983266 1_555
O5 Rb1 3.096474 1_655
O6 Rb2 2.858385 1_555
O6 Rb0 2.942681 1_655
O6 Rb0 3.336996 1_555
O7 Rb2 2.966144 1_556
