# generated using pymatgen
data_Er2O3
_symmetry_space_group_name_H-M   'P 1'
_cell_length_a   3.43167153
_cell_length_b   7.10234264
_cell_length_c   8.48446669
_cell_angle_alpha   99.89320707
_cell_angle_beta   90.00002787
_cell_angle_gamma   103.97785276
_symmetry_Int_Tables_number   1
_chemical_formula_structural   Er2O3
_chemical_formula_sum   'Er6 O9'
_cell_volume   197.49749428
_cell_formula_units_Z   3
loop_
 _symmetry_equiv_pos_site_id
 _symmetry_equiv_pos_as_xyz
  1  'x, y, z'
loop_
 _atom_site_type_symbol
 _atom_site_label
 _atom_site_symmetry_multiplicity
 _atom_site_fract_x
 _atom_site_fract_y
 _atom_site_fract_z
 _atom_site_occupancy
  Er  Er0  1  0.53295106  0.06572679  0.81342034  1
  Er  Er1  1  0.46704894  0.93427321  0.18657966  1
  Er  Er2  1  0.80903089  0.61808198  0.86270294  1
  Er  Er3  1  0.19096911  0.38191802  0.13729706  1
  Er  Er4  1  0.86495239  0.72991472  0.51269673  1
  Er  Er5  1  0.13504761  0.27008528  0.48730327  1
  O  O0  1  0.70618439  0.41238860  0.62354018  1
  O  O1  1  0.29381561  0.58761140  0.37645982  1
  O  O2  1  0.97049527  0.94118203  0.34332549  1
  O  O3  1  0.02950473  0.05881897  0.65667451  1
  O  O4  1  0.67457634  0.34916369  0.96931590  1
  O  O5  1  0.32542366  0.65083631  0.03068410  1
  O  O6  1  0.00000000  0.00000000  -0.00000000  1
  O  O7  1  0.37238146  0.74488342  0.71811652  1
  O  O8  1  0.62761854  0.25511658  0.28188348  1
loop_
_geom_bond_atom_site_label_1
_geom_bond_atom_site_label_2
_geom_bond_distance
_geom_bond_site_symmetry_2
Er0 O4 2.156513 1_555
Er0 O3 2.166218 1_555
Er0 O3 2.166257 1_655
Er0 O7 2.215935 1_545
Er0 O6 2.430660 1_656
Er0 O6 2.431112 1_556
Er1 O5 2.156513 1_555
Er1 O2 2.166216 1_555
Er1 O2 2.166258 1_455
Er1 O8 2.215935 1_565
Er1 O6 2.430660 1_565
Er1 O6 2.431112 1_665
Er2 O4 2.201580 1_555
Er2 O5 2.216346 1_556
Er2 O5 2.216443 1_656
Er2 O0 2.260220 1_555
Er2 O7 2.364717 1_655
Er2 O7 2.364913 1_555
Er2 O6 2.683213 1_666
Er3 O5 2.201580 1_555
Er3 O4 2.216346 1_554
Er3 O4 2.216443 1_454
Er3 O1 2.260220 1_555
Er3 O8 2.364717 1_455
Er3 O8 2.364913 1_555
Er3 O6 2.683213 1_555
Er4 O1 2.200137 1_555
Er4 O1 2.200154 1_655
Er4 O2 2.219481 1_555
Er4 O3 2.377005 1_665
Er4 O7 2.434758 1_655
Er4 O7 2.435021 1_555
Er4 O0 2.530282 1_555
Er5 O0 2.200137 1_555
Er5 O0 2.200154 1_455
Er5 O3 2.219476 1_555
Er5 O2 2.376999 1_445
Er5 O8 2.434758 1_455
Er5 O8 2.435021 1_555
Er5 O1 2.530282 1_555
