# generated using pymatgen
data_La(GePt)2
_symmetry_space_group_name_H-M   'P 1'
_cell_length_a   5.96043246
_cell_length_b   5.96043246
_cell_length_c   5.96043246
_cell_angle_alpha   136.07781485
_cell_angle_beta   136.07781485
_cell_angle_gamma   63.86005518
_symmetry_Int_Tables_number   1
_chemical_formula_structural   La(GePt)2
_chemical_formula_sum   'La1 Ge2 Pt2'
_cell_volume   100.53893740
_cell_formula_units_Z   1
loop_
 _symmetry_equiv_pos_site_id
 _symmetry_equiv_pos_as_xyz
  1  'x, y, z'
loop_
 _atom_site_type_symbol
 _atom_site_label
 _atom_site_symmetry_multiplicity
 _atom_site_fract_x
 _atom_site_fract_y
 _atom_site_fract_z
 _atom_site_occupancy
  La  La0  1  0.00000000  0.00000000  0.00000000  1
  Ge  Ge0  1  0.62748600  0.62748600  0.00000000  1
  Ge  Ge1  1  0.37251400  0.37251400  0.00000000  1
  Pt  Pt0  1  0.75000000  0.25000000  0.50000000  1
  Pt  Pt1  1  0.25000000  0.75000000  0.50000000  1
loop_
_geom_bond_atom_site_label_1
_geom_bond_atom_site_label_2
_geom_bond_distance
_geom_bond_site_symmetry_2
La0 Pt1 3.371358 1_444
La0 Pt1 3.371358 1_545
La0 Pt0 3.371358 1_444
La0 Pt0 3.371358 1_455
La0 Pt0 3.371358 1_454
La0 Pt1 3.371358 1_544
La0 Pt0 3.371358 1_555
La0 Pt1 3.371358 1_555
Ge0 Pt1 2.550505 1_655
Ge0 Pt0 2.550505 1_565
Ge0 Pt1 2.550505 1_554
Ge0 Pt0 2.550505 1_554
Ge0 Ge1 2.579596 1_555
Ge0 La0 3.406029 1_554
Ge0 La0 3.406029 1_565
Ge0 La0 3.406029 1_655
Ge0 La0 3.406029 1_666
Ge1 Pt0 2.550505 1_555
Ge1 Pt0 2.550505 1_454
Ge1 Pt1 2.550505 1_544
Ge1 Pt1 2.550505 1_555
Ge1 La0 3.406029 1_666
Ge1 La0 3.406029 1_565
Ge1 La0 3.406029 1_655
Ge1 La0 3.406029 1_554
