# generated using pymatgen
data_MgTi4(CuS4)2
_symmetry_space_group_name_H-M   'P 1'
_cell_length_a   7.15371047
_cell_length_b   7.38654608
_cell_length_c   7.38672097
_cell_angle_alpha   57.72241052
_cell_angle_beta   61.07525133
_cell_angle_gamma   61.07446256
_symmetry_Int_Tables_number   1
_chemical_formula_structural   MgTi4(CuS4)2
_chemical_formula_sum   'Mg1 Ti4 Cu2 S8'
_cell_volume   275.11705083
_cell_formula_units_Z   1
loop_
 _symmetry_equiv_pos_site_id
 _symmetry_equiv_pos_as_xyz
  1  'x, y, z'
loop_
 _atom_site_type_symbol
 _atom_site_label
 _atom_site_symmetry_multiplicity
 _atom_site_fract_x
 _atom_site_fract_y
 _atom_site_fract_z
 _atom_site_occupancy
  Mg  Mg0  1  0.90913100  0.34039300  0.34013600  1
  Ti  Ti0  1  0.51019000  0.96792200  0.51150300  1
  Ti  Ti1  1  0.97902900  0.54154200  0.54153900  1
  Ti  Ti2  1  0.51024800  0.51143000  0.96788700  1
  Ti  Ti3  1  0.43810700  0.54170000  0.54171000  1
  Cu  Cu0  1  0.85483300  0.89523400  0.89556100  1
  Cu  Cu1  1  0.15542000  0.09444900  0.09432500  1
  S  S0  1  0.74411900  0.75918100  0.75924200  1
  S  S1  1  0.26798200  0.24785000  0.71664700  1
  S  S2  1  0.26796000  0.71673300  0.24780300  1
  S  S3  1  0.74535100  0.22686100  0.22682100  1
  S  S4  1  0.73910700  0.28186600  0.74007200  1
  S  S5  1  0.23734400  0.75930200  0.75935500  1
  S  S6  1  0.30032600  0.22727300  0.22723100  1
  S  S7  1  0.73900200  0.74011500  0.28202100  1
loop_
_geom_bond_atom_site_label_1
_geom_bond_atom_site_label_2
_geom_bond_distance
_geom_bond_site_symmetry_2
Mg0 S3 2.329250 1_555
Mg0 S6 2.334511 1_655
Mg0 S7 2.461446 1_555
Mg0 S4 2.462212 1_555
Cu0 S5 2.294816 1_655
Cu0 S0 2.296389 1_555
Cu0 S7 2.299014 1_556
Cu0 S4 2.299988 1_565
Cu1 S1 2.246926 1_554
Cu1 S2 2.247089 1_545
Cu1 S3 2.447378 1_455
Cu1 S6 2.449071 1_555
Cu1 Mg0 2.652109 1_455
S0 Ti1 2.351194 1_555
S0 Ti2 2.445101 1_555
S0 Ti0 2.445280 1_555
S1 Ti3 2.429120 1_555
S1 Ti1 2.429740 1_455
S1 Ti0 2.629606 1_545
S2 Ti3 2.429481 1_555
S2 Ti1 2.430015 1_455
S2 Ti2 2.630351 1_554
S3 Ti2 2.510629 1_554
S3 Ti0 2.511013 1_545
S4 Ti2 2.466719 1_555
S4 Ti3 2.552990 1_555
S4 Ti1 2.553646 1_555
S5 Ti3 2.350352 1_555
S5 Ti2 2.444464 1_555
S5 Ti0 2.444564 1_555
S6 Ti2 2.510446 1_554
S6 Ti0 2.510800 1_545
S7 Ti0 2.466233 1_555
S7 Ti3 2.552624 1_555
S7 Ti1 2.553285 1_555
