# generated using pymatgen
data_MgHg2(SbO3)4
_symmetry_space_group_name_H-M   'P 1'
_cell_length_a   5.18797400
_cell_length_b   5.18797200
_cell_length_c   9.89928200
_cell_angle_alpha   89.99999421
_cell_angle_beta   89.99993214
_cell_angle_gamma   89.99997791
_symmetry_Int_Tables_number   1
_chemical_formula_structural   MgHg2(SbO3)4
_chemical_formula_sum   'Mg1 Hg2 Sb4 O12'
_cell_volume   266.43980709
_cell_formula_units_Z   1
loop_
 _symmetry_equiv_pos_site_id
 _symmetry_equiv_pos_as_xyz
  1  'x, y, z'
loop_
 _atom_site_type_symbol
 _atom_site_label
 _atom_site_symmetry_multiplicity
 _atom_site_fract_x
 _atom_site_fract_y
 _atom_site_fract_z
 _atom_site_occupancy
  Mg  Mg0  1  0.50000000  0.00000000  0.75000000  1
  Hg  Hg0  1  0.00000000  0.99999900  0.00034700  1
  Hg  Hg1  1  0.50000000  0.50000000  0.49965300  1
  Sb  Sb0  1  0.00000000  0.00000000  0.32025800  1
  Sb  Sb1  1  0.00000000  0.00000000  0.64593900  1
  Sb  Sb2  1  0.50000000  0.49999900  0.17974200  1
  Sb  Sb3  1  0.50000100  0.50000000  0.85406000  1
  O  O0  1  0.18069200  0.83308000  0.48863500  1
  O  O1  1  0.22175500  0.78733800  0.81368100  1
  O  O2  1  0.20991700  0.78897600  0.18554500  1
  O  O3  1  0.28897700  0.29008400  0.31445600  1
  O  O4  1  0.28733500  0.27824600  0.68631800  1
  O  O5  1  0.33307900  0.31930800  0.01136500  1
  O  O6  1  0.66692000  0.68069200  0.01136500  1
  O  O7  1  0.71102500  0.70991600  0.31445600  1
  O  O8  1  0.71266300  0.72175500  0.68631900  1
  O  O9  1  0.79008300  0.21102200  0.18554500  1
  O  O10  1  0.77824400  0.21266500  0.81368100  1
  O  O11  1  0.81930800  0.16692000  0.48863500  1
loop_
_geom_bond_atom_site_label_1
_geom_bond_atom_site_label_2
_geom_bond_distance
_geom_bond_site_symmetry_2
Mg0 O1 1.923124 1_545
Mg0 O8 1.923127 1_545
Mg0 O10 1.923131 1_555
Mg0 O4 1.923141 1_555
Hg0 O6 2.396267 1_455
Hg0 O5 2.396271 1_565
Hg0 O9 2.397008 1_465
Hg0 O2 2.397010 1_555
Hg0 O1 2.440361 1_554
Hg0 O10 2.440377 1_464
Hg1 O11 2.396270 1_555
Hg1 O0 2.396270 1_555
Hg1 O3 2.397000 1_555
Hg1 O7 2.397003 1_555
Hg1 O4 2.440360 1_555
Hg1 O8 2.440368 1_555
O0 Sb1 2.013340 1_565
O0 Sb0 2.099272 1_565
O1 Sb3 2.113234 1_555
O1 Sb1 2.301769 1_565
O2 Sb0 2.040333 1_565
O2 Sb2 2.125033 1_555
O3 Sb2 2.040331 1_555
O3 Sb0 2.125037 1_555
O4 Sb1 2.113224 1_555
O4 Sb3 2.301777 1_555
O5 Sb3 2.013353 1_554
O5 Sb2 2.099273 1_555
O6 Sb3 2.013348 1_554
O6 Sb2 2.099273 1_555
O7 Sb2 2.040344 1_555
O7 Sb0 2.125030 1_665
O8 Sb1 2.113229 1_665
O8 Sb3 2.301760 1_555
O9 Sb0 2.040329 1_655
O9 Sb2 2.125033 1_555
O10 Sb3 2.113211 1_555
O10 Sb1 2.301777 1_655
O11 Sb1 2.013342 1_655
O11 Sb0 2.099271 1_655
