# generated using pymatgen
data_MgTi2Tl2(PS5)2
_symmetry_space_group_name_H-M   'P 1'
_cell_length_a   6.62104952
_cell_length_b   7.06672397
_cell_length_c   10.14451914
_cell_angle_alpha   109.87395212
_cell_angle_beta   103.48048624
_cell_angle_gamma   90.09391953
_symmetry_Int_Tables_number   1
_chemical_formula_structural   MgTi2Tl2(PS5)2
_chemical_formula_sum   'Mg1 Ti2 Tl2 P2 S10'
_cell_volume   432.38482643
_cell_formula_units_Z   1
loop_
 _symmetry_equiv_pos_site_id
 _symmetry_equiv_pos_as_xyz
  1  'x, y, z'
loop_
 _atom_site_type_symbol
 _atom_site_label
 _atom_site_symmetry_multiplicity
 _atom_site_fract_x
 _atom_site_fract_y
 _atom_site_fract_z
 _atom_site_occupancy
  Mg  Mg0  1  0.99932600  0.63727400  0.99974000  1
  Ti  Ti0  1  0.50020500  0.27699900  0.00124100  1
  Ti  Ti1  1  0.49950900  0.71106100  0.00117600  1
  Tl  Tl0  1  0.71321300  0.71012200  0.45154900  1
  Tl  Tl1  1  0.28685500  0.26247600  0.54895200  1
  P  P0  1  0.28427500  0.87391200  0.73702500  1
  P  P1  1  0.71521200  0.13200300  0.26594700  1
  S  S0  1  0.17063200  0.64730600  0.80237700  1
  S  S1  1  0.32909600  0.55797200  0.12879500  1
  S  S2  1  0.40420900  0.07000900  0.15274200  1
  S  S3  1  0.59549000  0.92300800  0.85010200  1
  S  S4  1  0.16472500  0.14459000  0.81849100  1
  S  S5  1  0.76675000  0.23165000  0.48109100  1
  S  S6  1  0.66906900  0.43234900  0.87230200  1
  S  S7  1  0.23402400  0.76792000  0.52202200  1
  S  S8  1  0.82802400  0.84123500  0.19695900  1
  S  S9  1  0.83438500  0.32640900  0.18685100  1
loop_
_geom_bond_atom_site_label_1
_geom_bond_atom_site_label_2
_geom_bond_distance
_geom_bond_site_symmetry_2
Mg0 S6 2.438983 1_555
Mg0 S1 2.442440 1_656
Mg0 S0 2.540690 1_655
Mg0 S8 2.543486 1_556
P0 S7 1.994751 1_555
P0 S4 2.050249 1_565
P0 S3 2.075385 1_555
P0 S0 2.126143 1_555
P1 S5 1.995696 1_555
P1 S9 2.048147 1_555
P1 S2 2.074462 1_555
P1 S8 2.130923 1_545
S0 Ti1 2.518592 1_556
S1 Ti1 2.397674 1_555
S1 Ti0 2.417503 1_555
S2 Ti0 2.624222 1_555
S2 Ti1 2.646196 1_545
S3 Ti0 2.618207 1_566
S3 Ti1 2.647186 1_556
S4 Ti0 2.477947 1_556
S6 Ti1 2.406169 1_556
S6 Ti0 2.412532 1_556
S8 Ti1 2.501826 1_555
S9 Ti0 2.484166 1_555
