# generated using pymatgen
data_VH12(ClO2)3
_symmetry_space_group_name_H-M   'P 1'
_cell_length_a   6.42495500
_cell_length_b   6.55037300
_cell_length_c   11.99774670
_cell_angle_alpha   81.20656389
_cell_angle_beta   90.00000000
_cell_angle_gamma   90.00000000
_symmetry_Int_Tables_number   1
_chemical_formula_structural   VH12(ClO2)3
_chemical_formula_sum   'V2 H24 Cl6 O12'
_cell_volume   499.00032860
_cell_formula_units_Z   2
loop_
 _symmetry_equiv_pos_site_id
 _symmetry_equiv_pos_as_xyz
  1  'x, y, z'
loop_
 _atom_site_type_symbol
 _atom_site_label
 _atom_site_symmetry_multiplicity
 _atom_site_fract_x
 _atom_site_fract_y
 _atom_site_fract_z
 _atom_site_occupancy
  V  V0  1  0.00000000  0.00000000  0.00000000  1
  V  V1  1  0.50000000  0.00000000  0.50000000  1
  H  H0  1  0.34456100  0.21547300  0.04690600  1
  H  H1  1  0.84456100  0.78452700  0.45309400  1
  H  H2  1  0.65543900  0.78452700  0.95309400  1
  H  H3  1  0.15543900  0.21547300  0.54690600  1
  H  H4  1  0.36622100  0.98093300  0.11859300  1
  H  H5  1  0.86622100  0.01906700  0.38140700  1
  H  H6  1  0.63377900  0.01906700  0.88140700  1
  H  H7  1  0.13377900  0.98093300  0.61859300  1
  H  H8  1  0.90372200  0.20988000  0.16933300  1
  H  H9  1  0.40372200  0.79012000  0.33066700  1
  H  H10  1  0.09627800  0.79012000  0.83066700  1
  H  H11  1  0.59627800  0.20988000  0.66933300  1
  H  H12  1  0.76321200  0.31178100  0.06064400  1
  H  H13  1  0.26321200  0.68821900  0.43935600  1
  H  H14  1  0.23678800  0.68821900  0.93935600  1
  H  H15  1  0.73678800  0.31178100  0.56064400  1
  H  H16  1  0.95009500  0.33687200  0.32844600  1
  H  H17  1  0.45009500  0.66312800  0.17155400  1
  H  H18  1  0.04990500  0.66312800  0.67155400  1
  H  H19  1  0.54990500  0.33687200  0.82844600  1
  H  H20  1  0.14589800  0.21080300  0.30525700  1
  H  H21  1  0.64589800  0.78919700  0.19474300  1
  H  H22  1  0.85410200  0.78919700  0.69474300  1
  H  H23  1  0.35410200  0.21080300  0.80525700  1
  Cl  Cl0  1  0.96611100  0.72781800  0.15776100  1
  Cl  Cl1  1  0.00000000  0.50000000  0.50000000  1
  Cl  Cl2  1  0.50000000  0.50000000  0.00000000  1
  Cl  Cl3  1  0.53388900  0.72781800  0.65776100  1
  Cl  Cl4  1  0.03388900  0.27218200  0.84223900  1
  Cl  Cl5  1  0.46611100  0.27218200  0.34223900  1
  O  O0  1  0.85234300  0.19325300  0.09183100  1
  O  O1  1  0.50867300  0.21126000  0.79842600  1
  O  O2  1  0.00867300  0.78874000  0.70157400  1
  O  O3  1  0.49132700  0.78874000  0.20157400  1
  O  O4  1  0.99132700  0.21126000  0.29842600  1
  O  O5  1  0.64765700  0.19325300  0.59183100  1
  O  O6  1  0.27665200  0.07844600  0.06628800  1
  O  O7  1  0.77665200  0.92155400  0.43371200  1
  O  O8  1  0.72334800  0.92155400  0.93371200  1
  O  O9  1  0.22334800  0.07844600  0.56628800  1
  O  O10  1  0.35234300  0.80674700  0.40816900  1
  O  O11  1  0.14765700  0.80674700  0.90816900  1
loop_
_geom_bond_atom_site_label_1
_geom_bond_atom_site_label_2
_geom_bond_distance
_geom_bond_site_symmetry_2
H0 O6 0.993113 1_555
H1 O7 0.993113 1_555
H2 O8 0.993113 1_555
H3 O9 0.993113 1_555
H4 O6 1.005199 1_565
H5 O7 1.005199 1_545
H6 O8 1.005199 1_545
H7 O9 1.005199 1_565
H8 O0 1.008175 1_555
H8 O4 1.649252 1_555
H9 O10 1.008175 1_555
H9 O3 1.649252 1_555
H10 O11 1.008175 1_555
H10 O2 1.649252 1_555
H11 O5 1.008175 1_555
H11 O1 1.649252 1_555
H12 O0 0.990923 1_555
H13 O10 0.990923 1_555
H14 O11 0.990923 1_555
H15 O5 0.990923 1_555
H16 O4 0.983626 1_555
H17 O3 0.983626 1_555
H18 O2 0.983626 1_555
H19 O1 0.983626 1_555
H20 O4 0.996455 1_455
H21 O3 0.996455 1_555
H22 O2 0.996455 1_655
H23 O1 0.996455 1_555
Cl0 V0 2.403528 1_665
Cl3 V1 2.403528 1_565
Cl4 V0 2.403528 1_556
Cl5 V1 2.403528 1_555
O0 V0 2.035380 1_655
O5 V1 2.035380 1_555
O6 V0 2.044731 1_555
O7 V1 2.044731 1_565
O8 V0 2.044731 1_666
O9 V1 2.044731 1_555
O10 V1 2.035380 1_565
O11 V0 2.035380 1_566
