# generated using pymatgen
data_MgFe5CuO8
_symmetry_space_group_name_H-M   'P 1'
_cell_length_a   5.95072450
_cell_length_b   6.32091160
_cell_length_c   5.95072579
_cell_angle_alpha   63.17243653
_cell_angle_beta   60.68544665
_cell_angle_gamma   63.17243511
_symmetry_Int_Tables_number   1
_chemical_formula_structural   MgFe5CuO8
_chemical_formula_sum   'Mg1 Fe5 Cu1 O8'
_cell_volume   166.35527321
_cell_formula_units_Z   1
loop_
 _symmetry_equiv_pos_site_id
 _symmetry_equiv_pos_as_xyz
  1  'x, y, z'
loop_
 _atom_site_type_symbol
 _atom_site_label
 _atom_site_symmetry_multiplicity
 _atom_site_fract_x
 _atom_site_fract_y
 _atom_site_fract_z
 _atom_site_occupancy
  Mg  Mg0  1  0.12500000  0.62500000  0.12500000  1
  Fe  Fe0  1  0.97307200  0.09291800  0.97307200  1
  Fe  Fe1  1  0.27692800  0.15708200  0.27692800  1
  Fe  Fe2  1  0.12500000  0.62500000  0.62500000  1
  Fe  Fe3  1  0.62500000  0.12500000  0.62500000  1
  Fe  Fe4  1  0.62500000  0.62500000  0.12500000  1
  Cu  Cu0  1  0.62500000  0.62500000  0.62500000  1
  O  O0  1  0.36052200  0.40047200  0.36052200  1
  O  O1  1  0.40399000  0.80183700  0.40399000  1
  O  O2  1  0.34917500  0.38771100  0.86855400  1
  O  O3  1  0.86855400  0.38771100  0.34917500  1
  O  O4  1  0.38144600  0.86228900  0.90082500  1
  O  O5  1  0.90082500  0.86228900  0.38144600  1
  O  O6  1  0.84601000  0.44816300  0.84601000  1
  O  O7  1  0.88947800  0.84952800  0.88947800  1
loop_
_geom_bond_atom_site_label_1
_geom_bond_atom_site_label_2
_geom_bond_distance
_geom_bond_site_symmetry_2
Mg0 O7 2.067714 1_454
Mg0 O0 2.067714 1_555
Mg0 O3 2.150483 1_455
Mg0 O4 2.150483 1_554
Mg0 O5 2.150483 1_455
Mg0 O2 2.150483 1_554
Fe0 O6 1.918439 1_555
Fe0 O7 2.117913 1_545
Fe0 O4 2.135538 1_645
Fe0 O5 2.135539 1_546
Fe1 O1 1.918439 1_545
Fe1 O0 2.117913 1_555
Fe1 O3 2.135538 1_455
Fe1 O2 2.135539 1_554
Fe2 O6 1.986299 1_455
Fe2 O1 1.986299 1_555
Fe2 O5 2.062728 1_455
Fe2 O2 2.062728 1_555
Fe2 O0 2.125146 1_555
Fe2 O7 2.125146 1_455
Fe3 O4 2.221456 1_545
Fe3 O3 2.221456 1_555
Fe3 O2 2.221456 1_555
Fe3 O5 2.221456 1_545
Fe3 O0 2.337562 1_555
Fe3 O7 2.337562 1_545
Fe4 O6 1.986300 1_554
Fe4 O1 1.986300 1_555
Fe4 O4 2.062728 1_554
Fe4 O3 2.062728 1_555
Fe4 O7 2.125146 1_554
Fe4 O0 2.125146 1_555
Cu0 O1 1.936149 1_555
Cu0 O6 1.936149 1_555
Cu0 O2 2.230432 1_555
Cu0 O5 2.230432 1_555
Cu0 O3 2.230432 1_555
Cu0 O4 2.230432 1_555
