# generated using pymatgen
data_Si(Bi3O5)4
_symmetry_space_group_name_H-M   'P 1'
_cell_length_a   8.75209315
_cell_length_b   8.75209280
_cell_length_c   8.75209250
_cell_angle_alpha   109.47121812
_cell_angle_beta   109.47125829
_cell_angle_gamma   109.47118731
_symmetry_Int_Tables_number   1
_chemical_formula_structural   Si(Bi3O5)4
_chemical_formula_sum   'Si1 Bi12 O20'
_cell_volume   516.07621528
_cell_formula_units_Z   1
loop_
 _symmetry_equiv_pos_site_id
 _symmetry_equiv_pos_as_xyz
  1  'x, y, z'
loop_
 _atom_site_type_symbol
 _atom_site_label
 _atom_site_symmetry_multiplicity
 _atom_site_fract_x
 _atom_site_fract_y
 _atom_site_fract_z
 _atom_site_occupancy
  Si  Si0  1  -0.00000003  0.00000001  -0.00000014  1
  Bi  Bi0  1  0.16026948  0.85725533  0.66612278  1
  Bi  Bi1  1  0.80886773  0.14274376  0.30301492  1
  Bi  Bi2  1  0.83973023  0.50585353  0.69698555  1
  Bi  Bi3  1  0.49414669  0.33387669  0.19113202  1
  Bi  Bi4  1  0.33387692  0.19113262  0.49414680  1
  Bi  Bi5  1  0.66612331  0.16026996  0.85725587  1
  Bi  Bi6  1  0.14274485  0.30301466  0.80886787  1
  Bi  Bi7  1  0.69698559  0.83972988  0.50585389  1
  Bi  Bi8  1  0.85725536  0.66612281  0.16026940  1
  Bi  Bi9  1  0.30301404  0.80886781  0.14274433  1
  Bi  Bi10  1  0.50585354  0.69698541  0.83972996  1
  Bi  Bi11  1  0.19113232  0.49414659  0.33387706  1
  O  O0  1  0.00000010  -0.00000004  0.18871209  1
  O  O1  1  -0.00000003  0.18871216  -0.00000026  1
  O  O2  1  0.18871206  0.00000003  0.00000000  1
  O  O3  1  0.81128783  0.81128792  0.81128778  1
  O  O4  1  -0.00000012  -0.00000000  0.60286484  1
  O  O5  1  0.00000009  0.60286519  -0.00000001  1
  O  O6  1  0.60286503  -0.00000007  -0.00000012  1
  O  O7  1  0.39713504  0.39713507  0.39713500  1
  O  O8  1  0.64395882  0.87747292  0.25746756  1
  O  O9  1  0.37999315  0.12252529  0.76648543  1
  O  O10  1  0.35604019  0.61350783  0.23351472  1
  O  O11  1  0.38649230  0.74253189  0.62000670  1
  O  O12  1  0.74253218  0.62000715  0.38649241  1
  O  O13  1  0.62000693  0.38649372  0.74253265  1
  O  O14  1  0.61350784  0.23351453  0.35603971  1
  O  O15  1  0.76648532  0.37999319  0.12252484  1
  O  O16  1  0.87747520  0.25746832  0.64396049  1
  O  O17  1  0.23351480  0.35603987  0.61350767  1
  O  O18  1  0.12252500  0.76648562  0.37999312  1
  O  O19  1  0.25746824  0.64396033  0.87747508  1
loop_
_geom_bond_atom_site_label_1
_geom_bond_atom_site_label_2
_geom_bond_distance
_geom_bond_site_symmetry_2
Bi0 O9 2.097068 1_565
Bi0 O4 2.224076 1_565
Bi0 O18 2.226809 1_555
Bi0 O11 2.584386 1_555
Bi0 O2 2.652457 1_566
Bi1 O8 2.097074 1_545
Bi1 O6 2.224081 1_555
Bi1 O14 2.226812 1_555
Bi1 O16 2.584379 1_555
Bi1 O0 2.652454 1_655
Bi2 O13 2.097067 1_555
Bi2 O5 2.224077 1_656
Bi2 O16 2.226812 1_555
Bi2 O14 2.584384 1_555
Bi2 O3 2.652454 1_555
Bi3 O14 2.097065 1_555
Bi3 O7 2.224080 1_555
Bi3 O12 2.226815 1_555
Bi3 O15 2.584384 1_555
Bi3 O2 2.652455 1_555
Bi4 O17 2.097062 1_555
Bi4 O7 2.224076 1_555
Bi4 O13 2.226813 1_555
Bi4 O9 2.584384 1_555
Bi4 O0 2.652454 1_555
Bi5 O15 2.097061 1_556
Bi5 O6 2.224075 1_556
Bi5 O9 2.226812 1_555
Bi5 O13 2.584394 1_555
Bi5 O1 2.652453 1_656
Bi6 O16 2.097064 1_455
Bi6 O4 2.224079 1_555
Bi6 O17 2.226813 1_555
Bi6 O19 2.584383 1_555
Bi6 O1 2.652455 1_556
Bi7 O12 2.097063 1_555
Bi7 O4 2.224079 1_665
Bi7 O8 2.226811 1_555
Bi7 O10 2.584382 1_555
Bi7 O3 2.652447 1_555
Bi8 O18 2.097064 1_655
Bi8 O5 2.224075 1_655
Bi8 O15 2.226809 1_555
Bi8 O12 2.584386 1_555
Bi8 O0 2.652457 1_665
Bi9 O19 2.097064 1_554
Bi9 O5 2.224075 1_555
Bi9 O10 2.226815 1_555
Bi9 O8 2.584380 1_555
Bi9 O2 2.652451 1_565
Bi10 O11 2.097065 1_555
Bi10 O6 2.224079 1_566
Bi10 O19 2.226814 1_555
Bi10 O17 2.584383 1_555
Bi10 O3 2.652453 1_555
Bi11 O10 2.097070 1_555
Bi11 O7 2.224075 1_555
Bi11 O11 2.226809 1_555
Bi11 O18 2.584387 1_555
Bi11 O1 2.652456 1_555
O0 Si0 1.651627 1_555
O1 Si0 1.651627 1_555
O2 Si0 1.651625 1_555
O3 Si0 1.651626 1_666
