# generated using pymatgen
data_TmMg5
_symmetry_space_group_name_H-M   'P 1'
_cell_length_a   12.40811847
_cell_length_b   12.40811847
_cell_length_c   14.09483100
_cell_angle_alpha   72.95891201
_cell_angle_beta   72.95891201
_cell_angle_gamma   33.75080307
_symmetry_Int_Tables_number   1
_chemical_formula_structural   TmMg5
_chemical_formula_sum   'Tm8 Mg40'
_cell_volume   1147.71807683
_cell_formula_units_Z   8
loop_
 _symmetry_equiv_pos_site_id
 _symmetry_equiv_pos_as_xyz
  1  'x, y, z'
loop_
 _atom_site_type_symbol
 _atom_site_label
 _atom_site_symmetry_multiplicity
 _atom_site_fract_x
 _atom_site_fract_y
 _atom_site_fract_z
 _atom_site_occupancy
  Tm  Tm0_0  1  0.31903464  0.31903464  0.11181069  1
  Tm  Tm0_1  1  0.31903464  0.31903464  0.61181069  1
  Tm  Tm0_2  1  0.31903464  0.81903464  0.11181069  1
  Tm  Tm0_3  1  0.31903464  0.81903464  0.61181069  1
  Tm  Tm0_4  1  0.81903464  0.31903464  0.11181069  1
  Tm  Tm0_5  1  0.81903464  0.31903464  0.61181069  1
  Tm  Tm0_6  1  0.81903464  0.81903464  0.11181069  1
  Tm  Tm0_7  1  0.81903464  0.81903464  0.61181069  1
  Mg  Mg0_0  1  0.48229373  0.48229373  0.02551506  1
  Mg  Mg0_1  1  0.48229373  0.48229373  0.52551506  1
  Mg  Mg0_2  1  0.48229373  0.98229373  0.02551506  1
  Mg  Mg0_3  1  0.48229373  0.98229373  0.52551506  1
  Mg  Mg0_4  1  0.98229373  0.48229373  0.02551506  1
  Mg  Mg0_5  1  0.98229374  0.48229373  0.52551506  1
  Mg  Mg0_6  1  0.98229373  0.98229373  0.02551506  1
  Mg  Mg0_7  1  0.98229373  0.98229373  0.52551506  1
  Mg  Mg1_0  1  0.15496141  0.15496141  0.44017827  1
  Mg  Mg1_1  1  0.15496141  0.15496141  0.94017827  1
  Mg  Mg1_2  1  0.15496141  0.65496141  0.44017827  1
  Mg  Mg1_3  1  0.15496141  0.65496141  0.94017827  1
  Mg  Mg1_4  1  0.65496142  0.15496141  0.44017827  1
  Mg  Mg1_5  1  0.65496142  0.15496141  0.94017827  1
  Mg  Mg1_6  1  0.65496141  0.65496141  0.44017826  1
  Mg  Mg1_7  1  0.65496141  0.65496141  0.94017826  1
  Mg  Mg2_0  1  0.32000437  0.32000437  0.36119524  1
  Mg  Mg2_1  1  0.32000437  0.32000437  0.86119525  1
  Mg  Mg2_2  1  0.32000437  0.82000437  0.36119525  1
  Mg  Mg2_3  1  0.32000437  0.82000437  0.86119524  1
  Mg  Mg2_4  1  0.82000438  0.32000437  0.36119525  1
  Mg  Mg2_5  1  0.82000438  0.32000437  0.86119524  1
  Mg  Mg2_6  1  0.82000437  0.82000437  0.36119524  1
  Mg  Mg2_7  1  0.82000437  0.82000437  0.86119524  1
  Mg  Mg3_0  1  0.48287983  0.48287983  0.28322389  1
  Mg  Mg3_1  1  0.48287983  0.48287983  0.78322388  1
  Mg  Mg3_2  1  0.48287983  0.98287983  0.28322389  1
  Mg  Mg3_3  1  0.48287983  0.98287983  0.78322389  1
  Mg  Mg3_4  1  0.98287983  0.48287983  0.28322389  1
  Mg  Mg3_5  1  0.98287983  0.48287983  0.78322389  1
  Mg  Mg3_6  1  0.98287983  0.98287983  0.28322389  1
  Mg  Mg3_7  1  0.98287983  0.98287983  0.78322389  1
  Mg  Mg4_0  1  0.15749300  0.15749300  0.19474386  1
  Mg  Mg4_1  1  0.15749300  0.15749300  0.69474386  1
  Mg  Mg4_2  1  0.15749300  0.65749300  0.19474385  1
  Mg  Mg4_3  1  0.15749300  0.65749300  0.69474386  1
  Mg  Mg4_4  1  0.65749300  0.15749300  0.19474385  1
  Mg  Mg4_5  1  0.65749300  0.15749300  0.69474386  1
  Mg  Mg4_6  1  0.65749300  0.65749300  0.19474386  1
  Mg  Mg4_7  1  0.65749300  0.65749300  0.69474385  1
loop_
_geom_bond_atom_site_label_1
_geom_bond_atom_site_label_2
_geom_bond_distance
_geom_bond_site_symmetry_2
Tm0_0 Tm0_6 3.601970 1_455
Tm0_0 Tm0_6 3.601970 1_545
Tm0_1 Tm0_7 3.601970 1_455
Tm0_1 Tm0_7 3.601970 1_545
Tm0_2 Tm0_4 3.601970 1_465
Tm0_2 Tm0_4 3.601970 1_555
Tm0_3 Tm0_5 3.601970 1_465
Tm0_3 Tm0_5 3.601970 1_555
Mg0_0 Mg1_5 3.068518 1_554
Mg0_0 Mg1_3 3.068518 1_554
Mg0_0 Mg4_4 3.081107 1_555
Mg0_0 Mg4_2 3.081107 1_555
Mg0_0 Mg2_3 3.160930 1_554
Mg0_0 Mg2_5 3.160930 1_554
Mg0_0 Tm0_2 3.240481 1_555
Mg0_0 Tm0_4 3.240481 1_555
Mg0_0 Tm0_0 3.690847 1_555
Mg0_1 Mg1_4 3.068518 1_555
Mg0_1 Mg1_2 3.068518 1_555
Mg0_1 Mg4_5 3.081107 1_555
Mg0_1 Mg4_3 3.081107 1_555
Mg0_1 Mg2_2 3.160930 1_555
Mg0_1 Mg2_4 3.160930 1_555
Mg0_1 Tm0_3 3.240481 1_555
Mg0_1 Tm0_5 3.240481 1_555
Mg0_1 Tm0_1 3.690847 1_555
Mg0_2 Mg1_1 3.068518 1_564
Mg0_2 Mg1_7 3.068518 1_554
Mg0_2 Mg4_0 3.081107 1_565
Mg0_2 Mg4_6 3.081107 1_555
Mg0_2 Mg2_1 3.160930 1_564
Mg0_2 Mg2_7 3.160930 1_554
Mg0_2 Tm0_6 3.240481 1_555
Mg0_2 Tm0_0 3.240481 1_565
Mg0_2 Tm0_2 3.690847 1_555
Mg0_3 Mg1_0 3.068518 1_565
Mg0_3 Mg1_6 3.068518 1_555
Mg0_3 Mg4_1 3.081107 1_565
Mg0_3 Mg4_7 3.081107 1_555
Mg0_3 Mg2_0 3.160930 1_565
Mg0_3 Mg2_6 3.160930 1_555
Mg0_3 Tm0_7 3.240481 1_555
Mg0_3 Tm0_1 3.240481 1_565
Mg0_3 Tm0_3 3.690847 1_555
Mg0_4 Mg1_1 3.068518 1_654
Mg0_4 Mg1_7 3.068518 1_554
Mg0_4 Mg4_0 3.081107 1_655
Mg0_4 Mg4_6 3.081107 1_555
Mg0_4 Mg2_1 3.160930 1_654
Mg0_4 Mg2_7 3.160930 1_554
Mg0_4 Tm0_6 3.240481 1_555
Mg0_4 Tm0_0 3.240481 1_655
Mg0_4 Tm0_4 3.690847 1_555
Mg0_5 Mg1_0 3.068518 1_655
Mg0_5 Mg1_6 3.068518 1_555
Mg0_5 Mg4_1 3.081107 1_655
Mg0_5 Mg4_7 3.081107 1_555
Mg0_5 Mg2_0 3.160930 1_655
Mg0_5 Mg2_6 3.160930 1_555
Mg0_5 Tm0_7 3.240481 1_555
Mg0_5 Tm0_1 3.240481 1_655
Mg0_5 Tm0_5 3.690847 1_555
Mg0_6 Mg1_5 3.068518 1_564
Mg0_6 Mg1_3 3.068518 1_654
Mg0_6 Mg4_4 3.081107 1_565
Mg0_6 Mg4_2 3.081107 1_655
Mg0_6 Mg2_5 3.160930 1_564
Mg0_6 Mg2_3 3.160930 1_654
Mg0_6 Tm0_2 3.240481 1_655
Mg0_6 Tm0_4 3.240481 1_565
Mg0_6 Tm0_6 3.690847 1_555
Mg0_7 Mg1_4 3.068518 1_565
Mg0_7 Mg1_2 3.068518 1_655
Mg0_7 Mg4_5 3.081107 1_565
Mg0_7 Mg4_3 3.081107 1_655
Mg0_7 Mg2_4 3.160930 1_565
Mg0_7 Mg2_2 3.160930 1_655
Mg0_7 Tm0_3 3.240481 1_655
Mg0_7 Tm0_5 3.240481 1_565
Mg0_7 Tm0_7 3.690847 1_555
Mg1_0 Mg3_2 3.009028 1_545
Mg1_0 Mg3_4 3.009028 1_455
Mg1_0 Mg2_4 3.151024 1_455
Mg1_0 Mg2_2 3.151024 1_545
Mg1_0 Tm0_5 3.199395 1_455
Mg1_0 Tm0_3 3.199395 1_545
Mg1_1 Mg3_3 3.009028 1_545
Mg1_1 Mg3_5 3.009028 1_455
Mg1_1 Mg2_5 3.151024 1_455
Mg1_1 Mg2_3 3.151024 1_545
Mg1_1 Tm0_4 3.199395 1_456
Mg1_1 Tm0_2 3.199395 1_546
Mg1_2 Mg3_6 3.009028 1_455
Mg1_2 Mg3_0 3.009028 1_555
Mg1_2 Mg2_0 3.151024 1_555
Mg1_2 Mg2_6 3.151024 1_455
Mg1_2 Tm0_7 3.199395 1_455
Mg1_2 Tm0_1 3.199395 1_555
Mg1_3 Mg3_7 3.009028 1_455
Mg1_3 Mg3_1 3.009028 1_555
Mg1_3 Mg2_1 3.151024 1_555
Mg1_3 Mg2_7 3.151024 1_455
Mg1_3 Tm0_0 3.199395 1_556
Mg1_3 Tm0_6 3.199395 1_456
Mg1_4 Mg3_6 3.009028 1_545
Mg1_4 Mg3_0 3.009028 1_555
Mg1_4 Mg2_0 3.151024 1_555
Mg1_4 Mg2_6 3.151024 1_545
Mg1_4 Tm0_7 3.199395 1_545
Mg1_4 Tm0_1 3.199395 1_555
Mg1_5 Mg3_7 3.009028 1_545
Mg1_5 Mg3_1 3.009028 1_555
Mg1_5 Mg2_1 3.151024 1_555
Mg1_5 Mg2_7 3.151024 1_545
Mg1_5 Tm0_0 3.199395 1_556
Mg1_5 Tm0_6 3.199395 1_546
Mg1_6 Mg3_2 3.009028 1_555
Mg1_6 Mg3_4 3.009028 1_555
Mg1_6 Mg2_4 3.151024 1_555
Mg1_6 Mg2_2 3.151024 1_555
Mg1_6 Tm0_5 3.199395 1_555
Mg1_6 Tm0_3 3.199395 1_555
Mg1_7 Mg3_3 3.009028 1_555
Mg1_7 Mg3_5 3.009028 1_555
Mg1_7 Mg2_5 3.151024 1_555
Mg1_7 Mg2_3 3.151024 1_555
Mg1_7 Tm0_4 3.199395 1_556
Mg1_7 Tm0_2 3.199395 1_556
Mg2_0 Mg4_2 3.174722 1_555
Mg2_0 Mg4_4 3.174722 1_555
Mg2_0 Mg3_4 3.181946 1_455
Mg2_0 Mg3_2 3.181946 1_545
Mg2_0 Tm0_0 3.522154 1_555
Mg2_0 Tm0_1 3.525398 1_555
Mg2_1 Mg4_3 3.174722 1_555
Mg2_1 Mg4_5 3.174722 1_555
Mg2_1 Mg3_5 3.181946 1_455
Mg2_1 Mg3_3 3.181946 1_545
Mg2_1 Tm0_1 3.522154 1_555
Mg2_1 Tm0_0 3.525398 1_556
Mg2_2 Mg4_0 3.174722 1_565
Mg2_2 Mg4_6 3.174722 1_555
Mg2_2 Mg3_0 3.181946 1_555
Mg2_2 Mg3_6 3.181946 1_455
Mg2_2 Tm0_2 3.522154 1_555
Mg2_2 Tm0_3 3.525398 1_555
Mg2_3 Mg4_1 3.174722 1_565
Mg2_3 Mg4_7 3.174722 1_555
Mg2_3 Mg3_7 3.181946 1_455
Mg2_3 Mg3_1 3.181946 1_555
Mg2_3 Tm0_3 3.522154 1_555
Mg2_3 Tm0_2 3.525398 1_556
Mg2_4 Mg4_6 3.174722 1_555
Mg2_4 Mg4_0 3.174722 1_655
Mg2_4 Mg3_0 3.181946 1_555
Mg2_4 Mg3_6 3.181946 1_545
Mg2_4 Tm0_4 3.522154 1_555
Mg2_4 Tm0_5 3.525398 1_555
Mg2_5 Mg4_1 3.174722 1_655
Mg2_5 Mg4_7 3.174722 1_555
Mg2_5 Mg3_1 3.181946 1_555
Mg2_5 Mg3_7 3.181946 1_545
Mg2_5 Tm0_5 3.522154 1_555
Mg2_5 Tm0_4 3.525398 1_556
Mg2_6 Mg4_2 3.174722 1_655
Mg2_6 Mg4_4 3.174722 1_565
Mg2_6 Mg3_4 3.181946 1_555
Mg2_6 Mg3_2 3.181946 1_555
Mg2_6 Tm0_6 3.522154 1_555
Mg2_6 Tm0_7 3.525398 1_555
Mg2_7 Mg4_3 3.174722 1_655
Mg2_7 Mg4_5 3.174722 1_565
Mg2_7 Mg3_5 3.181946 1_555
Mg2_7 Mg3_3 3.181946 1_555
Mg2_7 Tm0_7 3.522154 1_555
Mg2_7 Tm0_6 3.525398 1_556
Mg3_0 Mg4_4 3.061262 1_555
Mg3_0 Mg4_2 3.061262 1_555
Mg3_0 Tm0_2 3.199870 1_555
Mg3_0 Tm0_4 3.199870 1_555
Mg3_1 Mg4_5 3.061262 1_555
Mg3_1 Mg4_3 3.061262 1_555
Mg3_1 Tm0_3 3.199870 1_555
Mg3_1 Tm0_5 3.199870 1_555
Mg3_2 Mg4_0 3.061262 1_565
Mg3_2 Mg4_6 3.061262 1_555
Mg3_2 Tm0_6 3.199870 1_555
Mg3_2 Tm0_0 3.199870 1_565
Mg3_3 Mg4_1 3.061262 1_565
Mg3_3 Mg4_7 3.061262 1_555
Mg3_3 Tm0_1 3.199870 1_565
Mg3_3 Tm0_7 3.199870 1_555
Mg3_4 Mg4_0 3.061262 1_655
Mg3_4 Mg4_6 3.061262 1_555
Mg3_4 Tm0_6 3.199870 1_555
Mg3_4 Tm0_0 3.199870 1_655
Mg3_5 Mg4_1 3.061262 1_655
Mg3_5 Mg4_7 3.061262 1_555
Mg3_5 Tm0_1 3.199870 1_655
Mg3_5 Tm0_7 3.199870 1_555
Mg3_6 Mg4_4 3.061262 1_565
Mg3_6 Mg4_2 3.061262 1_655
Mg3_6 Tm0_2 3.199870 1_655
Mg3_6 Tm0_4 3.199870 1_565
Mg3_7 Mg4_5 3.061262 1_565
Mg3_7 Mg4_3 3.061262 1_655
Mg3_7 Tm0_3 3.199870 1_655
Mg3_7 Tm0_5 3.199870 1_565
Mg4_0 Tm0_4 3.244498 1_455
Mg4_0 Tm0_2 3.244498 1_545
Mg4_0 Tm0_0 3.651912 1_555
Mg4_1 Tm0_5 3.244498 1_455
Mg4_1 Tm0_3 3.244498 1_545
Mg4_1 Tm0_1 3.651912 1_555
Mg4_2 Tm0_0 3.244498 1_555
Mg4_2 Tm0_6 3.244498 1_455
Mg4_2 Tm0_2 3.651912 1_555
Mg4_3 Tm0_1 3.244498 1_555
Mg4_3 Tm0_7 3.244498 1_455
Mg4_3 Tm0_3 3.651912 1_555
Mg4_4 Tm0_0 3.244498 1_555
Mg4_4 Tm0_6 3.244498 1_545
Mg4_4 Tm0_4 3.651912 1_555
Mg4_5 Tm0_1 3.244498 1_555
Mg4_5 Tm0_7 3.244498 1_545
Mg4_5 Tm0_5 3.651912 1_555
Mg4_6 Tm0_4 3.244498 1_555
Mg4_6 Tm0_2 3.244498 1_555
Mg4_6 Tm0_6 3.651912 1_555
Mg4_7 Tm0_5 3.244498 1_555
Mg4_7 Tm0_3 3.244498 1_555
Mg4_7 Tm0_7 3.651912 1_555
