# generated using pymatgen
data_NaFeO2
_symmetry_space_group_name_H-M   'P 1'
_cell_length_a   5.63801800
_cell_length_b   5.67245700
_cell_length_c   7.27873000
_cell_angle_alpha   89.99977082
_cell_angle_beta   90.00056793
_cell_angle_gamma   89.99798385
_symmetry_Int_Tables_number   1
_chemical_formula_structural   NaFeO2
_chemical_formula_sum   'Na4 Fe4 O8'
_cell_volume   232.78408232
_cell_formula_units_Z   4
loop_
 _symmetry_equiv_pos_site_id
 _symmetry_equiv_pos_as_xyz
  1  'x, y, z'
loop_
 _atom_site_type_symbol
 _atom_site_label
 _atom_site_symmetry_multiplicity
 _atom_site_fract_x
 _atom_site_fract_y
 _atom_site_fract_z
 _atom_site_occupancy
  Na  Na0  1  0.80247000  0.80255400  0.99975300  1
  Na  Na1  1  0.30249000  0.69738900  0.75024200  1
  Na  Na2  1  0.69750600  0.30261100  0.25024100  1
  Na  Na3  1  0.19752900  0.19744100  0.49975200  1
  Fe  Fe0  1  0.31394900  0.68762400  0.25001300  1
  Fe  Fe1  1  0.18605200  0.18761800  0.99998800  1
  Fe  Fe2  1  0.81395400  0.81238900  0.49999300  1
  Fe  Fe3  1  0.68605700  0.31237900  0.75000400  1
  O  O0  1  0.14558000  0.77831500  0.46273400  1
  O  O1  1  0.85441600  0.22168200  0.96272500  1
  O  O2  1  0.77932700  0.14671100  0.53454900  1
  O  O3  1  0.27932100  0.35329600  0.21545100  1
  O  O4  1  0.72067900  0.64671000  0.71545200  1
  O  O5  1  0.22066700  0.85328800  0.03454900  1
  O  O6  1  0.64557500  0.72166400  0.28728100  1
  O  O7  1  0.35442900  0.27833100  0.78727100  1
loop_
_geom_bond_atom_site_label_1
_geom_bond_atom_site_label_2
_geom_bond_distance
_geom_bond_site_symmetry_2
Na0 O4 2.297036 1_555
Na0 O6 2.317983 1_556
Na0 O5 2.388773 1_656
Na0 O1 2.410580 1_565
Na1 O5 2.297227 1_556
Na1 O0 2.317896 1_555
Na1 O4 2.388671 1_555
Na1 O7 2.410164 1_555
Na2 O2 2.297219 1_555
Na2 O1 2.317971 1_554
Na2 O3 2.388648 1_555
Na2 O6 2.410142 1_555
Na3 O3 2.297063 1_555
Na3 O7 2.317922 1_555
Na3 O2 2.388803 1_455
Na3 O0 2.410564 1_545
Fe0 O0 1.887621 1_555
Fe0 O6 1.899134 1_555
Fe0 O5 1.902417 1_555
Fe0 O3 1.923017 1_555
Fe1 O7 1.887668 1_555
Fe1 O1 1.899185 1_455
Fe1 O3 1.902454 1_556
Fe1 O5 1.923005 1_546
Fe2 O6 1.887651 1_555
Fe2 O0 1.899137 1_655
Fe2 O4 1.902445 1_555
Fe2 O2 1.922965 1_565
Fe3 O1 1.887583 1_555
Fe3 O7 1.899154 1_555
Fe3 O2 1.902370 1_555
Fe3 O4 1.923020 1_555
