# generated using pymatgen
data_MgCu3(TeO5)2
_symmetry_space_group_name_H-M   'P 1'
_cell_length_a   5.22922979
_cell_length_b   5.68614235
_cell_length_c   7.87418369
_cell_angle_alpha   105.96405404
_cell_angle_beta   100.01303891
_cell_angle_gamma   106.92876974
_symmetry_Int_Tables_number   1
_chemical_formula_structural   MgCu3(TeO5)2
_chemical_formula_sum   'Mg1 Cu3 Te2 O10'
_cell_volume   206.97704542
_cell_formula_units_Z   1
loop_
 _symmetry_equiv_pos_site_id
 _symmetry_equiv_pos_as_xyz
  1  'x, y, z'
loop_
 _atom_site_type_symbol
 _atom_site_label
 _atom_site_symmetry_multiplicity
 _atom_site_fract_x
 _atom_site_fract_y
 _atom_site_fract_z
 _atom_site_occupancy
  Mg  Mg0  1  0.55010700  0.81377000  0.42024000  1
  Cu  Cu0  1  0.01085800  0.50345800  0.99677500  1
  Cu  Cu1  1  0.70006900  0.85924000  0.88748800  1
  Cu  Cu2  1  0.30686600  0.10943000  0.09130100  1
  Te  Te0  1  0.10494200  0.68754700  0.69548000  1
  Te  Te1  1  0.89550200  0.30534800  0.29130600  1
  O  O0  1  0.06216200  0.01265400  0.83267800  1
  O  O1  1  0.33660200  0.68127600  0.91905400  1
  O  O2  1  0.10710900  0.34279400  0.53051600  1
  O  O3  1  0.21359100  0.52040600  0.23370600  1
  O  O4  1  0.45609800  0.85996400  0.65978700  1
  O  O5  1  0.54921800  0.10100800  0.31581100  1
  O  O6  1  0.80397000  0.49646500  0.77294600  1
  O  O7  1  0.86481200  0.65741300  0.45661000  1
  O  O8  1  0.67704100  0.32748500  0.07489900  1
  O  O9  1  0.94855300  0.98959800  0.15473400  1
loop_
_geom_bond_atom_site_label_1
_geom_bond_atom_site_label_2
_geom_bond_distance
_geom_bond_site_symmetry_2
Mg0 O4 1.998416 1_555
Mg0 O3 2.020040 1_555
Mg0 O5 2.021294 1_565
Mg0 O7 2.099738 1_555
Cu0 O6 1.884582 1_455
Cu0 O3 1.941033 1_556
Cu0 O1 1.999566 1_555
Cu0 O8 2.030170 1_456
Cu1 O1 1.969979 1_555
Cu1 O4 2.013459 1_555
Cu1 O0 2.015392 1_665
Cu1 O9 2.072757 1_556
Cu1 O6 2.272329 1_555
Cu2 O9 1.998416 1_445
Cu2 O5 2.009089 1_555
Cu2 O8 2.019493 1_555
Cu2 O0 2.038300 1_554
Cu2 O1 2.503644 1_544
Cu2 O3 2.523652 1_555
O0 Te0 1.964897 1_545
O1 Te0 1.971313 1_555
O2 Te1 1.932627 1_455
O2 Te0 2.036573 1_555
O3 Te1 1.962324 1_455
O4 Te0 1.922156 1_555
O5 Te1 1.919842 1_555
O6 Te0 1.931879 1_655
O7 Te0 2.005003 1_655
O7 Te1 2.134007 1_555
O8 Te1 1.936333 1_555
O9 Te1 1.946443 1_565
