# generated using pymatgen
data_Ba2HoMgRuO6
_symmetry_space_group_name_H-M   'P 1'
_cell_length_a   6.51516181
_cell_length_b   5.97127457
_cell_length_c   5.97873988
_cell_angle_alpha   60.04128091
_cell_angle_beta   63.27415562
_cell_angle_gamma   62.72511985
_symmetry_Int_Tables_number   1
_chemical_formula_structural   Ba2HoMgRuO6
_chemical_formula_sum   'Ba2 Ho1 Mg1 Ru1 O6'
_cell_volume   171.58636888
_cell_formula_units_Z   1
loop_
 _symmetry_equiv_pos_site_id
 _symmetry_equiv_pos_as_xyz
  1  'x, y, z'
loop_
 _atom_site_type_symbol
 _atom_site_label
 _atom_site_symmetry_multiplicity
 _atom_site_fract_x
 _atom_site_fract_y
 _atom_site_fract_z
 _atom_site_occupancy
  Ba  Ba0  1  0.78123500  0.73765900  0.74344500  1
  Ba  Ba1  1  0.42188700  0.19250200  0.19310900  1
  Ho  Ho0  1  0.40540100  0.53096200  0.53267500  1
  Mg  Mg0  1  0.90612900  0.36106500  0.37174100  1
  Ru  Ru0  1  0.99056400  0.00334300  0.00275100  1
  O  O0  1  0.20288700  0.77484500  0.76856900  1
  O  O1  1  0.20796300  0.77210900  0.24781900  1
  O  O2  1  0.74332400  0.25409500  0.74848500  1
  O  O3  1  0.20288700  0.25369900  0.76856900  1
  O  O4  1  0.75115300  0.25090500  0.25412700  1
  O  O5  1  0.75115300  0.74381500  0.25412700  1
loop_
_geom_bond_atom_site_label_1
_geom_bond_atom_site_label_2
_geom_bond_distance
_geom_bond_site_symmetry_2
Ba0 O3 2.929521 1_655
Ba0 O0 2.929528 1_655
Ba0 O4 2.988182 1_556
Ba0 O5 2.988188 1_556
Ba0 O2 2.993259 1_555
Ba0 O2 2.993265 1_565
Ba0 O5 3.000008 1_555
Ba0 O4 3.000013 1_565
Ba0 O1 3.009642 1_655
Ba1 O2 2.511920 1_554
Ba1 O5 2.524544 1_545
Ba1 O4 2.524544 1_555
Ho0 O1 2.110007 1_555
Ho0 O3 2.113593 1_555
Ho0 O0 2.113593 1_555
Ho0 O2 2.516697 1_555
Ho0 O5 2.568864 1_555
Ho0 O4 2.568864 1_555
Mg0 O2 1.908326 1_555
Mg0 O5 1.912053 1_555
Mg0 O4 1.912054 1_555
O0 Ru0 2.042447 1_466
O1 Ru0 2.028072 1_465
O2 Ru0 2.205953 1_556
O3 Ru0 2.042442 1_456
O4 Ru0 2.207732 1_555
O5 Ru0 2.207736 1_565
