# generated using pymatgen
data_MgTi3P2(SO6)4
_symmetry_space_group_name_H-M   'P 1'
_cell_length_a   8.60991388
_cell_length_b   8.62312631
_cell_length_c   22.26123997
_cell_angle_alpha   90.07242526
_cell_angle_beta   89.98142214
_cell_angle_gamma   120.00976042
_symmetry_Int_Tables_number   1
_chemical_formula_structural   MgTi3P2(SO6)4
_chemical_formula_sum   'Mg3 Ti9 P6 S12 O72'
_cell_volume   1431.20037619
_cell_formula_units_Z   3
loop_
 _symmetry_equiv_pos_site_id
 _symmetry_equiv_pos_as_xyz
  1  'x, y, z'
loop_
 _atom_site_type_symbol
 _atom_site_label
 _atom_site_symmetry_multiplicity
 _atom_site_fract_x
 _atom_site_fract_y
 _atom_site_fract_z
 _atom_site_occupancy
  Mg  Mg0  1  0.99782731  0.00091434  0.35669702  1
  Mg  Mg1  1  0.67152239  0.33576193  0.68908330  1
  Mg  Mg2  1  0.66527265  0.33488116  0.18766900  1
  Ti  Ti0  1  0.00055462  -0.00007680  0.86055162  1
  Ti  Ti1  1  0.99893987  0.00646695  0.64258707  1
  Ti  Ti2  1  0.00687360  0.00938511  0.14342477  1
  Ti  Ti3  1  0.65557152  0.33070215  0.97534043  1
  Ti  Ti4  1  0.67544726  0.32465443  0.47572095  1
  Ti  Ti5  1  0.33205442  0.65984667  0.02151631  1
  Ti  Ti6  1  0.33622637  0.66545921  0.52138128  1
  Ti  Ti7  1  0.34280104  0.67634222  0.30789056  1
  Ti  Ti8  1  0.33038469  0.66570747  0.81385713  1
  P  P0  1  0.95518596  0.33724655  0.58425921  1
  P  P1  1  0.38277140  0.33542683  0.08437104  1
  P  P2  1  0.61684932  0.66678822  0.91638413  1
  P  P3  1  0.04547627  0.38206784  0.91679167  1
  P  P4  1  0.33322490  0.94883266  0.91697857  1
  P  P5  1  0.61798799  0.94878079  0.41656826  1
  S  S0  1  0.28716397  0.00142937  0.25100831  1
  S  S1  1  0.71615925  0.71257733  0.25056426  1
  S  S2  1  0.00015630  0.28955189  0.25107798  1
  S  S3  1  0.28570834  0.28629073  0.75039103  1
  S  S4  1  0.00122080  0.71671778  0.75045208  1
  S  S5  1  0.71308932  0.99822255  0.75082121  1
  S  S6  1  0.37837096  0.04443437  0.58354513  1
  S  S7  1  0.66688961  0.62028211  0.58351920  1
  S  S8  1  0.95513890  0.62228417  0.08370348  1
  S  S9  1  0.66536289  0.04411731  0.08353260  1
  S  S10  1  0.33748663  0.38198607  0.41674234  1
  S  S11  1  0.04845903  0.66660974  0.41659326  1
  O  O0  1  0.20549578  0.02648976  0.30434355  1
  O  O1  1  0.82119395  0.79414162  0.30430869  1
  O  O2  1  0.97250507  0.17974982  0.30375000  1
  O  O3  1  0.19881048  0.17375498  0.80373411  1
  O  O4  1  0.97777819  0.80493399  0.80435366  1
  O  O5  1  0.82698107  0.02447116  0.80401449  1
  O  O6  1  0.79860861  0.96814286  0.69605795  1
  O  O7  1  0.16933027  0.20105791  0.69571864  1
  O  O8  1  0.03233813  0.83082444  0.69622980  1
  O  O9  1  0.79402228  0.82866436  0.19642902  1
  O  O10  1  0.03450799  0.20461015  0.19610060  1
  O  O11  1  0.17014393  0.96650253  0.19647724  1
  O  O12  1  0.87847083  0.37269344  0.63909101  1
  O  O13  1  0.48671927  0.11974699  0.63705992  1
  O  O14  1  0.63043906  0.51218152  0.63716375  1
  O  O15  1  0.88221207  0.51318398  0.13691220  1
  O  O16  1  0.63437165  0.12031055  0.13700231  1
  O  O17  1  0.49323166  0.37052249  0.13937541  1
  O  O18  1  0.46689707  0.30036098  0.02726818  1
  O  O19  1  0.84204995  0.54135939  0.02964336  1
  O  O20  1  0.70077336  0.15787133  0.02951838  1
  O  O21  1  0.45777109  0.15912186  0.52972879  1
  O  O22  1  0.69896019  0.54063087  0.52967807  1
  O  O23  1  0.83280078  0.29958494  0.52718344  1
  O  O24  1  0.53467267  0.70182321  0.97205104  1
  O  O25  1  0.16650752  0.46614973  0.97183325  1
  O  O26  1  0.29918947  0.83286506  0.97225151  1
  O  O27  1  0.52033459  0.83267397  0.47217649  1
  O  O28  1  0.30833299  0.46786515  0.47108604  1
  O  O29  1  0.15800123  0.68988383  0.47104198  1
  O  O30  1  0.12522375  0.62824601  0.36298665  1
  O  O31  1  0.49410556  0.86177023  0.36082639  1
  O  O32  1  0.36865846  0.49676312  0.36334099  1
  O  O33  1  0.13309935  0.50127299  0.86059485  1
  O  O34  1  0.36645466  0.86453162  0.86027663  1
  O  O35  1  0.49794413  0.63249463  0.86026827  1
  O  O36  1  0.02930814  0.82280671  0.41008213  1
  O  O37  1  0.80085784  0.97354886  0.41025194  1
  O  O38  1  0.18110542  0.20608366  0.41010995  1
  O  O39  1  0.02688728  0.19661580  0.90499317  1
  O  O40  1  0.16986659  0.97379184  0.90556115  1
  O  O41  1  0.80405159  0.83155076  0.90536287  1
  O  O42  1  0.97625347  0.16738270  0.59352526  1
  O  O43  1  0.19549295  0.02309333  0.59179319  1
  O  O44  1  0.82833068  0.80299712  0.59202345  1
  O  O45  1  0.97434433  0.80377899  0.09227003  1
  O  O46  1  0.82717017  0.02232965  0.09181679  1
  O  O47  1  0.19077571  0.16637506  0.09339199  1
  O  O48  1  0.69320450  0.15423604  0.74343785  1
  O  O49  1  0.46081962  0.30452193  0.74210098  1
  O  O50  1  0.84339732  0.54101604  0.74412689  1
  O  O51  1  0.68782551  0.53453797  0.24193367  1
  O  O52  1  0.84855791  0.31354636  0.23993706  1
  O  O53  1  0.46585174  0.14968793  0.24175882  1
  O  O54  1  0.64038603  0.50309953  0.92643303  1
  O  O55  1  0.86117221  0.36069847  0.92815792  1
  O  O56  1  0.49967993  0.13551571  0.92621276  1
  O  O57  1  0.62667258  0.13363219  0.42717975  1
  O  O58  1  0.50193101  0.37074173  0.42731778  1
  O  O59  1  0.86685476  0.50281521  0.42609465  1
  O  O60  1  0.35165627  0.49412803  0.07073262  1
  O  O61  1  0.13763139  0.64833739  0.07304502  1
  O  O62  1  0.50819796  0.86335333  0.07330769  1
  O  O63  1  0.35254083  0.86272298  0.57310403  1
  O  O64  1  0.51036474  0.64719899  0.57316391  1
  O  O65  1  0.14310135  0.49372521  0.56915550  1
  O  O66  1  0.29761576  0.83048743  0.25795763  1
  O  O67  1  0.53112514  0.69704755  0.25844730  1
  O  O68  1  0.16759211  0.46912218  0.25860490  1
  O  O69  1  0.29807935  0.46338350  0.75760351  1
  O  O70  1  0.16588705  0.70236293  0.75822191  1
  O  O71  1  0.53629606  0.83278419  0.75788306  1
loop_
_geom_bond_atom_site_label_1
_geom_bond_atom_site_label_2
_geom_bond_distance
_geom_bond_site_symmetry_2
Mg0 O37 1.988004 1_545
Mg0 O1 2.033611 1_545
Mg0 O2 2.038628 1_555
Mg0 O0 2.051523 1_655
Mg0 O38 2.058459 1_655
Mg0 O36 2.065395 1_645
Mg1 O12 1.986652 1_555
Mg1 O50 2.049324 1_555
Mg1 O48 2.060683 1_555
Mg1 O49 2.065715 1_555
Mg1 O14 2.078048 1_555
Mg1 O13 2.091336 1_555
Mg2 O17 1.975252 1_555
Mg2 O51 2.030169 1_555
Mg2 O52 2.042093 1_555
Mg2 O53 2.051571 1_555
Mg2 O15 2.063931 1_555
Mg2 O16 2.066143 1_555
O0 S0 1.449702 1_555
O1 S1 1.451296 1_555
O2 S2 1.450924 1_655
O3 S3 1.479077 1_555
O3 Ti0 2.050460 1_555
O4 S4 1.486715 1_655
O4 Ti0 2.023789 1_665
O5 S5 1.480901 1_545
O5 Ti0 2.044645 1_655
O6 S5 1.511720 1_555
O6 Ti1 1.982582 1_565
O7 S3 1.512395 1_555
O7 Ti1 1.974971 1_455
O8 S4 1.495335 1_555
O8 Ti1 2.059883 1_465
O9 S1 1.495007 1_555
O9 Ti2 2.079858 1_665
O10 S2 1.528406 1_555
O10 Ti2 1.964740 1_555
O11 S0 1.508571 1_565
O11 Ti2 2.007436 1_565
O12 P0 1.490005 1_555
O13 S6 1.450506 1_555
O14 S7 1.450332 1_555
O15 S8 1.446995 1_555
O16 S9 1.446680 1_555
O17 P1 1.485704 1_555
O18 P1 1.565080 1_555
O18 Ti3 1.902115 1_554
O19 S8 1.484008 1_555
O19 Ti3 2.101717 1_554
O20 S9 1.484777 1_555
O20 Ti3 2.100529 1_554
O21 S6 1.485539 1_555
O21 Ti4 2.079033 1_555
O22 S7 1.473765 1_555
O22 Ti4 2.137666 1_555
O23 P0 1.577241 1_555
O23 Ti4 1.867955 1_555
O24 P2 1.529650 1_555
O24 Ti5 1.937796 1_556
O25 P3 1.534847 1_555
O25 Ti5 1.913009 1_556
O26 P4 1.519744 1_555
O26 Ti5 1.983781 1_556
O27 P5 1.549890 1_555
O27 Ti6 1.873014 1_555
O28 S10 1.502800 1_555
O28 Ti6 1.949484 1_555
O29 S11 1.486530 1_555
O29 Ti6 1.994953 1_555
O30 S11 1.479042 1_555
O30 Ti7 2.099593 1_555
O31 P5 1.561538 1_555
O31 Ti7 1.885486 1_555
O32 S10 1.483869 1_555
O32 Ti7 2.078729 1_555
O33 P3 1.554905 1_555
O33 Ti8 1.889891 1_555
O34 P4 1.552119 1_555
O34 Ti8 1.888612 1_555
O35 P2 1.546972 1_555
O35 Ti8 1.909393 1_555
O36 S11 1.443958 1_555
O37 P5 1.485925 1_555
O38 S10 1.446408 1_555
O39 P3 1.547549 1_555
O39 Ti0 1.875682 1_555
O40 P4 1.546720 1_555
O40 Ti0 1.873468 1_565
O41 P2 1.544870 1_555
O41 Ti0 1.873759 1_665
O42 P0 1.577188 1_555
O42 Ti1 1.852435 1_555
O43 S6 1.502292 1_555
O43 Ti1 1.979768 1_455
O44 S7 1.503027 1_555
O44 Ti1 1.980201 1_565
O45 S8 1.501165 1_555
O45 Ti2 2.004256 1_665
O46 S9 1.507394 1_555
O46 Ti2 1.974966 1_655
O47 P1 1.577356 1_555
O47 Ti2 1.854399 1_555
O48 S5 1.448170 1_545
O49 S3 1.447311 1_555
O50 S4 1.449829 1_655
O51 S1 1.441556 1_555
O52 S2 1.441693 1_655
O53 S0 1.441102 1_555
O54 P2 1.539616 1_555
O54 Ti3 1.900276 1_555
O55 P3 1.524273 1_655
O55 Ti3 1.960920 1_555
O56 P4 1.542473 1_545
O56 Ti3 1.888651 1_555
O57 P5 1.575454 1_545
O57 Ti4 1.833350 1_555
O58 S10 1.485617 1_555
O58 Ti4 2.036399 1_555
O59 S11 1.508621 1_655
O59 Ti4 1.940909 1_555
O60 P1 1.550668 1_555
O60 Ti5 1.875169 1_555
O61 S8 1.490762 1_455
O61 Ti5 1.990149 1_555
O62 S9 1.483919 1_565
O62 Ti5 2.010641 1_555
O63 S6 1.486357 1_565
O63 Ti6 1.998783 1_555
O64 S7 1.495476 1_555
O64 Ti6 1.959413 1_555
O65 P0 1.538987 1_455
O65 Ti6 1.904904 1_555
O66 S0 1.529097 1_565
O66 Ti7 1.917038 1_555
O67 S1 1.540538 1_555
O67 Ti7 1.892674 1_555
O68 S2 1.506852 1_555
O68 Ti7 1.993022 1_555
O69 S3 1.485202 1_555
O69 Ti8 2.049074 1_555
O70 S4 1.493670 1_555
O70 Ti8 2.022296 1_555
O71 S5 1.484974 1_555
O71 Ti8 2.054155 1_555
