# generated using pymatgen
data_Na4Ti2Nb2Si5SO24
_symmetry_space_group_name_H-M   'P 1'
_cell_length_a   8.92811395
_cell_length_b   8.92495012
_cell_length_c   22.47991185
_cell_angle_alpha   89.95260244
_cell_angle_beta   90.00136286
_cell_angle_gamma   119.85038850
_symmetry_Int_Tables_number   1
_chemical_formula_structural   Na4Ti2Nb2Si5SO24
_chemical_formula_sum   'Na12 Ti6 Nb6 Si15 S3 O72'
_cell_volume   1553.61472592
_cell_formula_units_Z   3
loop_
 _symmetry_equiv_pos_site_id
 _symmetry_equiv_pos_as_xyz
  1  'x, y, z'
loop_
 _atom_site_type_symbol
 _atom_site_label
 _atom_site_symmetry_multiplicity
 _atom_site_fract_x
 _atom_site_fract_y
 _atom_site_fract_z
 _atom_site_occupancy
  Na  Na0  1  0.63847709  0.00003569  0.25074756  1
  Na  Na1  1  0.99672597  0.36390860  0.75004116  1
  Na  Na2  1  0.29881605  0.33714536  0.58052517  1
  Na  Na3  1  0.66755115  0.96907775  0.57981593  1
  Na  Na4  1  0.03194695  0.33160350  0.08465246  1
  Na  Na5  1  0.96452898  0.66828776  0.91363605  1
  Na  Na6  1  0.99930601  0.99504398  0.49084383  1
  Na  Na7  1  0.98758971  0.99592312  0.00164313  1
  Na  Na8  1  0.64604029  0.32515082  0.83641496  1
  Na  Na9  1  0.66086001  0.34178665  0.33425685  1
  Na  Na10  1  0.32924101  0.67391039  0.16365981  1
  Na  Na11  1  0.32834113  0.67903101  0.66297355  1
  Ti  Ti0  1  0.99945216  0.01079265  0.35183868  1
  Ti  Ti1  1  0.98782142  0.00583404  0.85388143  1
  Ti  Ti2  1  0.98782427  0.98400889  0.14776508  1
  Ti  Ti3  1  0.69250317  0.34740371  0.98047469  1
  Ti  Ti4  1  0.34398530  0.66941438  0.02073834  1
  Ti  Ti5  1  0.34131141  0.66237027  0.51974748  1
  Nb  Nb0  1  0.99816908  0.99430690  0.64514052  1
  Nb  Nb1  1  0.66489211  0.33569288  0.68907717  1
  Nb  Nb2  1  0.67349598  0.33122281  0.18948912  1
  Nb  Nb3  1  0.65805312  0.32470397  0.47707637  1
  Nb  Nb4  1  0.34010588  0.66643532  0.30933097  1
  Nb  Nb5  1  0.33693308  0.65779289  0.81114368  1
  Si  Si0  1  0.27768334  0.00106353  0.25025066  1
  Si  Si1  1  0.72213357  0.71338011  0.25197670  1
  Si  Si2  1  0.00838732  0.28605297  0.24694723  1
  Si  Si3  1  0.28488872  0.27610277  0.75201784  1
  Si  Si4  1  0.00028442  0.71613334  0.75462711  1
  Si  Si5  1  0.70758437  0.99731789  0.74985973  1
  Si  Si6  1  0.96000472  0.34210371  0.58308931  1
  Si  Si7  1  0.37570679  0.03852301  0.58325878  1
  Si  Si8  1  0.67039588  0.62239496  0.58093005  1
  Si  Si9  1  0.96378259  0.63192341  0.08234067  1
  Si  Si10  1  0.66471270  0.03985902  0.08162801  1
  Si  Si11  1  0.62608462  0.66441147  0.91946271  1
  Si  Si12  1  0.04925901  0.37337417  0.91935505  1
  Si  Si13  1  0.62762831  0.95172216  0.41678947  1
  Si  Si14  1  0.32778102  0.37256537  0.41729153  1
  S  S0  1  0.38082358  0.33360284  0.08123837  1
  S  S1  1  0.33530155  0.95533315  0.91821263  1
  S  S2  1  0.04866226  0.66747082  0.41787351  1
  O  O0  1  0.18976721  0.03027042  0.30906035  1
  O  O1  1  0.83586235  0.80419774  0.31031380  1
  O  O2  1  0.96274039  0.16067583  0.30537439  1
  O  O3  1  0.18570823  0.15950646  0.80907300  1
  O  O4  1  0.97370344  0.80272289  0.81370950  1
  O  O5  1  0.83484129  0.03253684  0.80682472  1
  O  O6  1  0.79460816  0.97040659  0.68948039  1
  O  O7  1  0.16797955  0.20110947  0.69124485  1
  O  O8  1  0.02573666  0.83596691  0.69517576  1
  O  O9  1  0.80074173  0.83862330  0.19313613  1
  O  O10  1  0.03088005  0.20324405  0.18602975  1
  O  O11  1  0.15707078  0.97140228  0.19194693  1
  O  O12  1  0.86925531  0.36398455  0.64375119  1
  O  O13  1  0.50445547  0.13585199  0.64015778  1
  O  O14  1  0.63487420  0.49780974  0.63930237  1
  O  O15  1  0.85551859  0.49585861  0.13752468  1
  O  O16  1  0.63721901  0.12972681  0.14245545  1
  O  O17  1  0.48365758  0.35569270  0.13624592  1
  O  O18  1  0.46851147  0.31779282  0.02814839  1
  O  O19  1  0.84532788  0.53903722  0.02195681  1
  O  O20  1  0.69035342  0.17585347  0.02711177  1
  O  O21  1  0.46570989  0.16815139  0.52565580  1
  O  O22  1  0.69747712  0.52834829  0.52397779  1
  O  O23  1  0.82707570  0.30099683  0.52750776  1
  O  O24  1  0.52369554  0.69167423  0.97513106  1
  O  O25  1  0.16592119  0.47586442  0.97704534  1
  O  O26  1  0.30925839  0.84353993  0.97075872  1
  O  O27  1  0.52349165  0.83553041  0.47578677  1
  O  O28  1  0.30959667  0.46813037  0.47765418  1
  O  O29  1  0.15207943  0.68302983  0.47146823  1
  O  O30  1  0.12983209  0.64568953  0.36324344  1
  O  O31  1  0.50661366  0.86456824  0.35752767  1
  O  O32  1  0.34960800  0.49960795  0.36076583  1
  O  O33  1  0.13373557  0.49855980  0.85963036  1
  O  O34  1  0.35991574  0.87388214  0.86337142  1
  O  O35  1  0.50170114  0.64425077  0.86113512  1
  O  O36  1  0.02990645  0.82171488  0.41433773  1
  O  O37  1  0.81530603  0.96677843  0.41263760  1
  O  O38  1  0.15954031  0.18216771  0.41183764  1
  O  O39  1  0.02868684  0.18277778  0.91257653  1
  O  O40  1  0.17618038  0.96624802  0.91381788  1
  O  O41  1  0.81999744  0.83175212  0.91283732  1
  O  O42  1  0.97579436  0.16541758  0.58902615  1
  O  O43  1  0.19083772  0.03292372  0.58913193  1
  O  O44  1  0.83475330  0.81756385  0.58705753  1
  O  O45  1  0.97919655  0.82003121  0.08859272  1
  O  O46  1  0.84579319  0.03727378  0.08621245  1
  O  O47  1  0.20599559  0.18207812  0.08497703  1
  O  O48  1  0.69932743  0.17546415  0.74504785  1
  O  O49  1  0.47830544  0.30465087  0.74581910  1
  O  O50  1  0.83321952  0.52119631  0.74512069  1
  O  O51  1  0.69017361  0.51891178  0.24209510  1
  O  O52  1  0.82809144  0.29983996  0.24265847  1
  O  O53  1  0.47619699  0.16735172  0.24178064  1
  O  O54  1  0.64187443  0.48978168  0.92401990  1
  O  O55  1  0.85724330  0.36079948  0.92391241  1
  O  O56  1  0.48995032  0.12921971  0.92358858  1
  O  O57  1  0.64610362  0.14594179  0.42271194  1
  O  O58  1  0.50847636  0.36395752  0.42086283  1
  O  O59  1  0.87433710  0.50738000  0.42141088  1
  O  O60  1  0.36138640  0.49219253  0.07845790  1
  O  O61  1  0.14677295  0.63326699  0.07742330  1
  O  O62  1  0.49274111  0.84992795  0.07427630  1
  O  O63  1  0.36361462  0.85361929  0.57647258  1
  O  O64  1  0.49717669  0.64135830  0.57683928  1
  O  O65  1  0.15320825  0.50534697  0.57675618  1
  O  O66  1  0.31008137  0.83442452  0.25712920  1
  O  O67  1  0.52923056  0.69989300  0.25688800  1
  O  O68  1  0.16979586  0.48085346  0.25641167  1
  O  O69  1  0.29860475  0.46868215  0.75805700  1
  O  O70  1  0.16859214  0.68794377  0.75793007  1
  O  O71  1  0.51664089  0.82962206  0.75720688  1
loop_
_geom_bond_atom_site_label_1
_geom_bond_atom_site_label_2
_geom_bond_distance
_geom_bond_site_symmetry_2
Na0 O67 2.354696 1_545
Na0 O52 2.355527 1_555
Na0 O66 2.547014 1_545
Na0 O53 2.554011 1_555
Na0 O31 2.681069 1_545
Na0 O16 2.697123 1_555
Na0 O2 2.795666 1_555
Na0 O9 2.816405 1_545
Na1 O48 2.333710 1_555
Na1 O69 2.379581 1_655
Na1 O50 2.480642 1_555
Na1 O70 2.516532 1_655
Na1 O12 2.646701 1_555
Na1 O33 2.747910 1_655
Na1 O5 2.864216 1_555
Na1 O7 2.900112 1_655
Na2 O64 2.393317 1_555
Na2 O43 2.394238 1_555
Na2 O65 2.427605 1_555
Na2 O42 2.510432 1_455
Na2 O28 2.570454 1_555
Na2 O7 2.759868 1_555
Na2 O21 2.873481 1_555
Na2 O14 2.919641 1_555
Na3 O63 2.376458 1_555
Na3 O42 2.426341 1_565
Na3 O44 2.468334 1_555
Na3 O64 2.538616 1_555
Na3 O27 2.649941 1_555
Na3 O6 2.711259 1_555
Na3 O23 2.825074 1_565
Na3 O13 2.887364 1_565
Na4 O46 2.306015 1_455
Na4 O61 2.361717 1_555
Na4 O47 2.501993 1_555
Na4 O10 2.547732 1_555
Na4 O60 2.554970 1_555
Na4 O25 2.720646 1_554
Na4 O15 2.888700 1_455
Na4 O20 2.947748 1_455
Na5 O40 2.374914 1_655
Na5 O41 2.380728 1_555
Na5 O55 2.425764 1_555
Na5 O54 2.514327 1_555
Na5 O4 2.527855 1_555
Na5 O19 2.676956 1_556
Na5 O33 2.886513 1_655
Na5 O26 2.962949 1_655
Na6 O37 2.332638 1_555
Na6 O38 2.367895 1_665
Na6 O36 2.418830 1_655
Na6 O44 2.650163 1_555
Na6 O43 2.710339 1_665
Na6 O42 2.747901 1_565
Na7 O46 2.412362 1_565
Na7 O45 2.483613 1_555
Na7 O41 2.488648 1_554
Na7 O39 2.511965 1_664
Na7 O47 2.617629 1_665
Na7 O40 2.692213 1_654
Na8 O54 2.469378 1_555
Na8 O49 2.480232 1_555
Na8 O56 2.531553 1_555
Na8 O48 2.620494 1_555
Na8 O55 2.632366 1_555
Na8 O50 2.673860 1_555
Na9 O58 2.439111 1_555
Na9 O51 2.538225 1_555
Na9 O57 2.606058 1_555
Na9 O59 2.618382 1_555
Na9 O53 2.629376 1_555
Na9 O52 2.677168 1_555
Na10 O61 2.440576 1_555
Na10 O62 2.519577 1_555
Na10 O66 2.597203 1_555
Na10 O60 2.617191 1_555
Na10 O68 2.625878 1_555
Na10 O67 2.687481 1_555
Na11 O63 2.411405 1_555
Na11 O65 2.489220 1_555
Na11 O64 2.576862 1_555
Na11 O70 2.590459 1_555
Na11 O71 2.622095 1_555
Na11 O69 2.767839 1_555
Nb0 O8 1.914784 1_655
Nb0 O6 1.988929 1_555
Nb0 O7 1.999204 1_665
Nb0 O44 2.008498 1_555
Nb0 O43 2.017975 1_665
Nb0 O42 2.064907 1_565
Nb1 O14 1.949522 1_555
Nb1 O13 1.975395 1_555
Nb1 O12 1.993010 1_555
Nb1 O49 2.004741 1_555
Nb1 O50 2.028131 1_555
Nb1 O48 2.038944 1_555
Nb2 O15 1.945456 1_555
Nb2 O52 1.948421 1_555
Nb2 O16 1.969811 1_555
Nb2 O51 1.995406 1_555
Nb2 O53 2.014049 1_555
Nb2 O17 2.172764 1_555
Nb3 O21 1.924278 1_555
Nb3 O57 1.970824 1_555
Nb3 O22 1.976158 1_555
Nb3 O23 1.981070 1_555
Nb3 O58 1.991966 1_555
Nb3 O59 2.194431 1_555
Nb4 O32 1.919350 1_555
Nb4 O67 1.956454 1_555
Nb4 O31 1.974091 1_555
Nb4 O68 1.991657 1_555
Nb4 O66 2.023360 1_555
Nb4 O30 2.163619 1_555
Nb5 O35 1.902176 1_555
Nb5 O69 1.954049 1_555
Nb5 O33 1.982403 1_555
Nb5 O71 1.985914 1_555
Nb5 O70 2.040661 1_555
Nb5 O34 2.179402 1_555
O0 Si0 1.623619 1_555
O0 Ti0 1.883582 1_455
O1 Si1 1.609408 1_555
O1 Ti0 1.930363 1_565
O2 Si2 1.639195 1_655
O2 Ti0 1.849871 1_555
O3 Si3 1.610152 1_555
O3 Ti1 1.898091 1_455
O4 Si4 1.613029 1_655
O4 Ti1 1.973003 1_565
O5 Si5 1.635424 1_545
O5 Ti1 1.834346 1_555
O6 Si5 1.640132 1_555
O7 Si3 1.646168 1_555
O8 Si4 1.654488 1_555
O9 Si1 1.645686 1_555
O9 Ti2 1.831450 1_555
O10 Si2 1.615948 1_555
O10 Ti2 1.992545 1_445
O11 Si0 1.632249 1_565
O11 Ti2 1.857789 1_455
O12 Si6 1.646876 1_555
O13 Si7 1.649156 1_555
O14 Si8 1.644806 1_555
O15 Si9 1.666431 1_555
O16 Si10 1.664678 1_555
O17 S0 1.493672 1_555
O18 S0 1.472228 1_555
O18 Ti3 2.165917 1_554
O19 Si9 1.666536 1_555
O19 Ti3 1.826467 1_554
O20 Si10 1.657841 1_555
O20 Ti3 1.847105 1_554
O21 Si7 1.653208 1_555
O22 Si8 1.614289 1_555
O23 Si6 1.634480 1_555
O24 Si11 1.637953 1_555
O24 Ti4 1.829580 1_556
O25 Si12 1.630009 1_555
O25 Ti4 1.935219 1_556
O26 S1 1.487278 1_555
O26 Ti4 2.061630 1_556
O27 Si13 1.654313 1_555
O27 Ti5 1.872382 1_555
O28 Si14 1.653752 1_555
O28 Ti5 1.869473 1_555
O29 S2 1.481873 1_555
O29 Ti5 2.091877 1_555
O30 S2 1.487221 1_555
O31 Si13 1.646868 1_555
O32 Si14 1.648005 1_555
O33 Si12 1.666868 1_555
O34 S1 1.502374 1_555
O35 Si11 1.669209 1_555
O36 S2 1.469265 1_555
O36 Ti0 2.312657 1_465
O37 Si13 1.615634 1_555
O37 Ti0 2.020304 1_565
O38 Si14 1.618107 1_555
O38 Ti0 2.007127 1_455
O39 Si12 1.624801 1_555
O39 Ti1 1.948811 1_455
O40 S1 1.474871 1_555
O40 Ti1 2.314922 1_465
O41 Si11 1.635768 1_555
O41 Ti1 2.023540 1_565
O42 Si6 1.656892 1_555
O43 Si7 1.631587 1_555
O44 Si8 1.631653 1_555
O45 Si9 1.620998 1_555
O45 Ti2 1.951446 1_555
O46 Si10 1.631569 1_555
O46 Ti2 2.085074 1_545
O47 S0 1.473358 1_555
O47 Ti2 2.340857 1_445
O48 Si5 1.631398 1_545
O49 Si3 1.621202 1_555
O50 Si4 1.647628 1_655
O51 Si1 1.628120 1_555
O52 Si2 1.677118 1_655
O53 Si0 1.661675 1_555
O54 Si11 1.636441 1_555
O54 Ti3 1.999686 1_555
O55 Si12 1.664485 1_655
O55 Ti3 1.902404 1_555
O56 S1 1.482127 1_545
O56 Ti3 2.279483 1_555
O57 Si13 1.662938 1_545
O58 Si14 1.654794 1_555
O59 S2 1.502088 1_655
O60 S0 1.510550 1_555
O60 Ti4 2.109668 1_555
O61 Si9 1.631574 1_455
O61 Ti4 2.064460 1_555
O62 Si10 1.633318 1_565
O62 Ti4 1.918606 1_555
O63 Si7 1.606653 1_565
O63 Ti5 2.060202 1_555
O64 Si8 1.639925 1_555
O64 Ti5 1.969298 1_555
O65 Si6 1.617490 1_455
O65 Ti5 2.020146 1_555
O66 Si0 1.657509 1_565
O67 Si1 1.669273 1_555
O68 Si2 1.628234 1_555
O69 Si3 1.666862 1_555
O70 Si4 1.644123 1_555
O71 Si5 1.622718 1_555
