# generated using pymatgen
data_MgMo2W(Se2S)2
_symmetry_space_group_name_H-M   'P 1'
_cell_length_a   3.27168900
_cell_length_b   3.27165516
_cell_length_c   37.20034400
_cell_angle_alpha   90.00014643
_cell_angle_beta   90.00000000
_cell_angle_gamma   120.00033205
_symmetry_Int_Tables_number   1
_chemical_formula_structural   MgMo2W(Se2S)2
_chemical_formula_sum   'Mg1 Mo2 W1 Se4 S2'
_cell_volume   344.83843859
_cell_formula_units_Z   1
loop_
 _symmetry_equiv_pos_site_id
 _symmetry_equiv_pos_as_xyz
  1  'x, y, z'
loop_
 _atom_site_type_symbol
 _atom_site_label
 _atom_site_symmetry_multiplicity
 _atom_site_fract_x
 _atom_site_fract_y
 _atom_site_fract_z
 _atom_site_occupancy
  Mg  Mg0  1  0.99997900  0.99995800  0.23215300  1
  Mo  Mo0  1  0.33332600  0.66665200  0.10818000  1
  Mo  Mo1  1  0.33333700  0.66667500  0.57851700  1
  W  W0  1  0.66666000  0.33331900  0.35588400  1
  Se  Se0  1  0.66665400  0.33330800  0.06271300  1
  Se  Se1  1  0.66667000  0.33334000  0.53301300  1
  Se  Se2  1  0.66666400  0.33332800  0.15424500  1
  Se  Se3  1  0.66665800  0.33331700  0.62405400  1
  S  S0  1  0.33332900  0.66665800  0.39723400  1
  S  S1  1  0.33332300  0.66664600  0.31434900  1
loop_
_geom_bond_atom_site_label_1
_geom_bond_atom_site_label_2
_geom_bond_distance
_geom_bond_site_symmetry_2
Mo0 Se0 2.535465 1_565
Mo0 Se0 2.535508 1_555
Mo0 Se0 2.535508 1_455
Mo0 Se2 2.550384 1_555
Mo0 Se2 2.550384 1_455
Mo0 Se2 2.550394 1_565
Mo1 Se1 2.536403 1_565
Mo1 Se1 2.536416 1_455
Mo1 Se1 2.536418 1_555
Mo1 Se3 2.537166 1_565
Mo1 Se3 2.537264 1_555
Mo1 Se3 2.537264 1_455
S0 W0 2.435982 1_565
S0 W0 2.436009 1_455
S0 W0 2.436011 1_555
S1 W0 2.440351 1_455
S1 W0 2.440352 1_565
S1 W0 2.440353 1_555
