# generated using pymatgen
data_AlFeO3
_symmetry_space_group_name_H-M   'P 1'
_cell_length_a   5.04411600
_cell_length_b   8.66920600
_cell_length_c   9.37697900
_cell_angle_alpha   90.00000000
_cell_angle_beta   90.00000000
_cell_angle_gamma   90.00000000
_symmetry_Int_Tables_number   1
_chemical_formula_structural   AlFeO3
_chemical_formula_sum   'Al8 Fe8 O24'
_cell_volume   410.04104515
_cell_formula_units_Z   8
loop_
 _symmetry_equiv_pos_site_id
 _symmetry_equiv_pos_as_xyz
  1  'x, y, z'
loop_
 _atom_site_type_symbol
 _atom_site_label
 _atom_site_symmetry_multiplicity
 _atom_site_fract_x
 _atom_site_fract_y
 _atom_site_fract_z
 _atom_site_occupancy
  Al  Al0  1  0.81823300  0.83677700  0.30333200  1
  Al  Al1  1  0.18176700  0.16322300  0.80333200  1
  Al  Al2  1  0.68176700  0.33677700  0.80333200  1
  Al  Al3  1  0.31823300  0.66322300  0.30333200  1
  Al  Al4  1  0.16877200  0.84538000  0.00202300  1
  Al  Al5  1  0.83122800  0.15462000  0.50202300  1
  Al  Al6  1  0.33122800  0.34538000  0.50202300  1
  Al  Al7  1  0.66877200  0.65462000  0.00202300  1
  Fe  Fe0  1  0.66776100  0.97086700  0.80131400  1
  Fe  Fe1  1  0.33223900  0.02913300  0.30131400  1
  Fe  Fe2  1  0.83223900  0.47086700  0.30131400  1
  Fe  Fe3  1  0.16776100  0.52913300  0.80131400  1
  Fe  Fe4  1  0.18425500  0.85066400  0.58103700  1
  Fe  Fe5  1  0.81574500  0.14933600  0.08103700  1
  Fe  Fe6  1  0.31574500  0.35066400  0.08103700  1
  Fe  Fe7  1  0.68425500  0.64933600  0.58103700  1
  O  O0  1  0.50036100  0.82551300  0.94350000  1
  O  O1  1  0.49963900  0.17448700  0.44350000  1
  O  O2  1  0.99963900  0.32551300  0.44350000  1
  O  O3  1  0.00036100  0.67448700  0.94350000  1
  O  O4  1  0.83615300  0.83101000  0.67185600  1
  O  O5  1  0.16384700  0.16899000  0.17185600  1
  O  O6  1  0.66384700  0.33101000  0.17185600  1
  O  O7  1  0.33615300  0.66899000  0.67185600  1
  O  O8  1  0.14621800  0.83404700  0.19463400  1
  O  O9  1  0.85378200  0.16595300  0.69463400  1
  O  O10  1  0.35378200  0.33404700  0.69463400  1
  O  O11  1  0.64621800  0.66595300  0.19463400  1
  O  O12  1  0.66555300  0.99237400  0.20160600  1
  O  O13  1  0.33444700  0.00762600  0.70160600  1
  O  O14  1  0.83444700  0.49237400  0.70160600  1
  O  O15  1  0.16555300  0.50762600  0.20160600  1
  O  O16  1  0.48063900  0.82038100  0.41590200  1
  O  O17  1  0.51936100  0.17961900  0.91590200  1
  O  O18  1  0.01936100  0.32038100  0.91590200  1
  O  O19  1  0.98063900  0.67961900  0.41590200  1
  O  O20  1  0.49690800  0.51021100  0.42916600  1
  O  O21  1  0.00309200  0.01021100  0.92916600  1
  O  O22  1  0.50309200  0.48978900  0.92916600  1
  O  O23  1  0.99690800  0.98978900  0.42916600  1
loop_
_geom_bond_atom_site_label_1
_geom_bond_atom_site_label_2
_geom_bond_distance
_geom_bond_site_symmetry_2
Al0 O12 1.822783 1_555
Al0 O19 1.908279 1_555
Al0 O8 1.943314 1_655
Al0 O23 1.991008 1_555
Al0 O11 1.996201 1_555
Al0 O16 2.008524 1_555
Al1 O13 1.822783 1_555
Al1 O18 1.908279 1_555
Al1 O9 1.943314 1_455
Al1 O21 1.991008 1_555
Al1 O10 1.996201 1_555
Al1 O17 2.008524 1_555
Al2 O14 1.822783 1_555
Al2 O17 1.908279 1_555
Al2 O10 1.943314 1_555
Al2 O22 1.991008 1_555
Al2 O9 1.996201 1_555
Al2 O18 2.008524 1_655
Al3 O15 1.822783 1_555
Al3 O16 1.908279 1_555
Al3 O11 1.943314 1_555
Al3 O20 1.991008 1_555
Al3 O8 1.996201 1_555
Al3 O19 2.008524 1_455
Al4 O0 1.768704 1_554
Al4 O21 1.790824 1_564
Al4 O3 1.793776 1_554
Al4 O8 1.812354 1_555
Al5 O1 1.768704 1_555
Al5 O23 1.790824 1_545
Al5 O2 1.793776 1_555
Al5 O9 1.812354 1_555
Al6 O2 1.768704 1_455
Al6 O20 1.790824 1_555
Al6 O1 1.793776 1_555
Al6 O10 1.812354 1_555
Al7 O3 1.768704 1_654
Al7 O22 1.790824 1_554
Al7 O0 1.793776 1_554
Al7 O11 1.812354 1_555
Fe0 O4 1.914447 1_555
Fe0 O13 1.949971 1_565
Fe0 O0 2.019522 1_555
Fe0 O21 2.101098 1_665
Fe0 O9 2.177475 1_565
Fe0 O17 2.233812 1_565
Fe1 O5 1.914447 1_555
Fe1 O12 1.949971 1_545
Fe1 O1 2.019522 1_555
Fe1 O23 2.101098 1_445
Fe1 O8 2.177475 1_545
Fe1 O16 2.233812 1_545
Fe2 O6 1.914447 1_555
Fe2 O15 1.949971 1_655
Fe2 O2 2.019522 1_555
Fe2 O20 2.101098 1_555
Fe2 O11 2.177475 1_555
Fe2 O19 2.233812 1_555
Fe3 O7 1.914447 1_555
Fe3 O14 1.949971 1_455
Fe3 O3 2.019522 1_555
Fe3 O22 2.101098 1_555
Fe3 O10 2.177475 1_555
Fe3 O18 2.233812 1_555
Fe4 O13 1.924509 1_565
Fe4 O7 1.947515 1_555
Fe4 O4 1.958912 1_455
Fe4 O23 2.091828 1_455
Fe4 O16 2.168337 1_555
Fe4 O19 2.377263 1_455
Fe5 O12 1.924509 1_545
Fe5 O6 1.947515 1_555
Fe5 O5 1.958912 1_655
Fe5 O21 2.091828 1_654
Fe5 O17 2.168337 1_554
Fe5 O18 2.377263 1_654
Fe6 O15 1.924509 1_555
Fe6 O5 1.947515 1_555
Fe6 O6 1.958912 1_555
Fe6 O22 2.091828 1_554
Fe6 O18 2.168337 1_554
Fe6 O17 2.377263 1_554
Fe7 O14 1.924509 1_555
Fe7 O4 1.947515 1_555
Fe7 O7 1.958912 1_555
Fe7 O20 2.091828 1_555
Fe7 O19 2.168337 1_555
Fe7 O16 2.377263 1_555
