# generated using pymatgen
data_Gd(Al2Cr)4
_symmetry_space_group_name_H-M   'P 1'
_cell_length_a   6.81407357
_cell_length_b   6.81407357
_cell_length_c   6.81407357
_cell_angle_alpha   97.87206893
_cell_angle_beta   97.87206893
_cell_angle_gamma   136.55848757
_symmetry_Int_Tables_number   1
_chemical_formula_structural   Gd(Al2Cr)4
_chemical_formula_sum   'Gd1 Al8 Cr4'
_cell_volume   202.10639372
_cell_formula_units_Z   1
loop_
 _symmetry_equiv_pos_site_id
 _symmetry_equiv_pos_as_xyz
  1  'x, y, z'
loop_
 _atom_site_type_symbol
 _atom_site_label
 _atom_site_symmetry_multiplicity
 _atom_site_fract_x
 _atom_site_fract_y
 _atom_site_fract_z
 _atom_site_occupancy
  Gd  Gd0  1  0.00000000  0.00000000  0.00000000  1
  Al  Al0  1  0.72258700  0.50000000  0.22258700  1
  Al  Al1  1  0.50000000  0.72258700  0.22258700  1
  Al  Al2  1  0.50000000  0.27741300  0.77741300  1
  Al  Al3  1  0.27741300  0.50000000  0.77741300  1
  Al  Al4  1  0.66179800  0.00000000  0.66179800  1
  Al  Al5  1  0.33820200  0.00000000  0.33820200  1
  Al  Al6  1  0.00000000  0.33820200  0.33820200  1
  Al  Al7  1  0.00000000  0.66179800  0.66179800  1
  Cr  Cr0  1  0.00000000  0.00000000  0.50000000  1
  Cr  Cr1  1  0.50000000  0.00000000  0.00000000  1
  Cr  Cr2  1  0.00000000  0.50000000  0.00000000  1
  Cr  Cr3  1  0.50000000  0.50000000  0.50000000  1
loop_
_geom_bond_atom_site_label_1
_geom_bond_atom_site_label_2
_geom_bond_distance
_geom_bond_site_symmetry_2
Al0 Cr2 2.580522 1_655
Al0 Cr1 2.580522 1_555
Al0 Cr0 2.580522 1_665
Al0 Cr3 2.580522 1_555
Al0 Al5 2.725918 1_665
Al0 Al5 2.725918 1_555
Al0 Al2 2.818069 1_554
Al0 Al1 2.818069 1_555
Al0 Al6 2.875035 1_655
Al0 Al7 2.875035 1_655
Al0 Gd0 3.214048 1_665
Al0 Gd0 3.214048 1_555
Al1 Cr1 2.580522 1_565
Al1 Cr2 2.580522 1_555
Al1 Cr0 2.580522 1_665
Al1 Cr3 2.580522 1_555
Al1 Al6 2.725918 1_665
Al1 Al6 2.725918 1_555
Al1 Al3 2.818069 1_554
Al1 Al5 2.875035 1_565
Al1 Al4 2.875035 1_565
Al1 Gd0 3.214048 1_665
Al1 Gd0 3.214048 1_555
Al2 Cr0 2.580522 1_555
Al2 Cr2 2.580522 1_656
Al2 Cr3 2.580522 1_555
Al2 Cr1 2.580522 1_556
Al2 Al7 2.725918 1_655
Al2 Al7 2.725918 1_545
Al2 Al3 2.818069 1_555
Al2 Al5 2.875035 1_555
Al2 Al4 2.875035 1_555
Al2 Gd0 3.214048 1_666
Al2 Gd0 3.214048 1_556
Al3 Cr1 2.580522 1_566
Al3 Cr2 2.580522 1_556
Al3 Cr0 2.580522 1_555
Al3 Cr3 2.580522 1_555
Al3 Al4 2.725918 1_455
Al3 Al4 2.725918 1_565
Al3 Al6 2.875035 1_555
Al3 Al7 2.875035 1_555
Al3 Gd0 3.214048 1_666
Al3 Gd0 3.214048 1_556
Al4 Cr1 2.687445 1_556
Al4 Cr0 2.687445 1_655
Al4 Cr3 2.687445 1_545
Al4 Cr2 2.687445 1_656
Al4 Al5 2.896943 1_555
Al4 Gd0 3.027701 1_656
Al5 Cr1 2.687445 1_555
Al5 Cr3 2.687445 1_555
Al5 Cr2 2.687445 1_545
Al5 Cr0 2.687445 1_555
Al5 Gd0 3.027701 1_555
Al6 Cr2 2.687445 1_555
Al6 Cr3 2.687445 1_555
Al6 Cr1 2.687445 1_455
Al6 Cr0 2.687445 1_555
Al6 Al7 2.896943 1_555
Al6 Gd0 3.027701 1_555
Al7 Cr1 2.687445 1_566
Al7 Cr2 2.687445 1_556
Al7 Cr3 2.687445 1_455
Al7 Cr0 2.687445 1_565
Al7 Gd0 3.027701 1_566
Cr0 Cr3 2.521775 1_555
Cr0 Cr3 2.521775 1_445
Cr0 Gd0 3.407037 1_555
Cr0 Gd0 3.407037 1_556
Cr1 Cr2 2.521775 1_545
Cr1 Cr2 2.521775 1_655
Cr1 Gd0 3.407037 1_655
Cr1 Gd0 3.407037 1_555
Cr2 Gd0 3.407037 1_565
Cr2 Gd0 3.407037 1_555
Cr3 Gd0 3.407037 1_666
Cr3 Gd0 3.407037 1_555
