# generated using pymatgen
data_Li3Mo2(PO4)3
_symmetry_space_group_name_H-M   'P 1'
_cell_length_a   8.98184600
_cell_length_b   8.63655300
_cell_length_c   12.30941512
_cell_angle_alpha   89.92297050
_cell_angle_beta   90.00000000
_cell_angle_gamma   90.00000000
_symmetry_Int_Tables_number   1
_chemical_formula_structural   Li3Mo2(PO4)3
_chemical_formula_sum   'Li12 Mo8 P12 O48'
_cell_volume   954.86741377
_cell_formula_units_Z   4
loop_
 _symmetry_equiv_pos_site_id
 _symmetry_equiv_pos_as_xyz
  1  'x, y, z'
loop_
 _atom_site_type_symbol
 _atom_site_label
 _atom_site_symmetry_multiplicity
 _atom_site_fract_x
 _atom_site_fract_y
 _atom_site_fract_z
 _atom_site_occupancy
  Li  Li0  1  0.51494200  0.93228900  0.34938400  1
  Li  Li1  1  0.08941000  0.91812000  0.68805600  1
  Li  Li2  1  0.77758500  0.82325800  0.17867500  1
  Li  Li3  1  0.27758500  0.67674200  0.32132500  1
  Li  Li4  1  0.58941000  0.58188000  0.81194400  1
  Li  Li5  1  0.01494200  0.56771100  0.15061600  1
  Li  Li6  1  0.98505800  0.43228900  0.84938400  1
  Li  Li7  1  0.41059000  0.41812000  0.18805600  1
  Li  Li8  1  0.72241500  0.32325800  0.67867500  1
  Li  Li9  1  0.22241500  0.17674200  0.82132500  1
  Li  Li10  1  0.91059000  0.08188000  0.31194400  1
  Li  Li11  1  0.48505800  0.06771100  0.65061600  1
  Mo  Mo0  1  0.03032300  0.75472700  0.89284500  1
  Mo  Mo1  1  0.46143600  0.75591900  0.10992900  1
  Mo  Mo2  1  0.53032300  0.74527300  0.60715500  1
  Mo  Mo3  1  0.96143600  0.74408100  0.39007100  1
  Mo  Mo4  1  0.03856400  0.25591900  0.60992900  1
  Mo  Mo5  1  0.46967700  0.25472700  0.39284500  1
  Mo  Mo6  1  0.53856400  0.24408100  0.89007100  1
  Mo  Mo7  1  0.96967700  0.24527300  0.10715500  1
  P  P0  1  0.74964900  0.04358200  0.51059000  1
  P  P1  1  0.61659400  0.11163800  0.15378500  1
  P  P2  1  0.89215200  0.11445300  0.85090500  1
  P  P3  1  0.39215200  0.38554700  0.64909500  1
  P  P4  1  0.11659400  0.38836200  0.34621500  1
  P  P5  1  0.24964900  0.45641800  0.98941000  1
  P  P6  1  0.75035100  0.54358200  0.01059000  1
  P  P7  1  0.88340600  0.61163800  0.65378500  1
  P  P8  1  0.25035100  0.95641800  0.48941000  1
  P  P9  1  0.38340600  0.88836200  0.84621500  1
  P  P10  1  0.60784800  0.61445300  0.35090500  1
  P  P11  1  0.10784800  0.88554700  0.14909500  1
  O  O0  1  0.18149600  0.80974900  0.43689500  1
  O  O1  1  0.12989400  0.04754300  0.55176200  1
  O  O2  1  0.33243400  0.04910100  0.39962200  1
  O  O3  1  0.42675300  0.05757500  0.80789300  1
  O  O4  1  0.63914800  0.09431800  0.41972900  1
  O  O5  1  0.78780600  0.11660200  0.17664900  1
  O  O6  1  0.00896100  0.12245700  0.75539100  1
  O  O7  1  0.73940700  0.17434900  0.80903800  1
  O  O8  1  0.88739700  0.94978700  0.89574600  1
  O  O9  1  0.87010600  0.95245700  0.44823800  1
  O  O10  1  0.66756600  0.95089900  0.60037800  1
  O  O11  1  0.57324700  0.94242500  0.19210700  1
  O  O12  1  0.36085200  0.90568200  0.58027100  1
  O  O13  1  0.21219400  0.88339800  0.82335100  1
  O  O14  1  0.99103900  0.87754300  0.24460900  1
  O  O15  1  0.41242200  0.86764000  0.96664400  1
  O  O16  1  0.26059300  0.82565100  0.19096200  1
  O  O17  1  0.11260300  0.05021300  0.10425400  1
  O  O18  1  0.47427100  0.77025100  0.77801700  1
  O  O19  1  0.04885400  0.76457700  0.06471300  1
  O  O20  1  0.54885400  0.73542300  0.43528700  1
  O  O21  1  0.97427100  0.72974900  0.72198300  1
  O  O22  1  0.68149600  0.69025100  0.06310500  1
  O  O23  1  0.76059300  0.67434900  0.30903800  1
  O  O24  1  0.91242200  0.63236000  0.53335600  1
  O  O25  1  0.49103900  0.62245700  0.25539100  1
  O  O26  1  0.71219400  0.61660200  0.67664900  1
  O  O27  1  0.86085200  0.59431800  0.91972900  1
  O  O28  1  0.07324700  0.55757500  0.30789300  1
  O  O29  1  0.16756600  0.54910100  0.89962200  1
  O  O30  1  0.38739700  0.55021300  0.60425400  1
  O  O31  1  0.37010600  0.54754300  0.05176200  1
  O  O32  1  0.62989400  0.45245700  0.94823800  1
  O  O33  1  0.61260300  0.44978700  0.39574600  1
  O  O34  1  0.83243400  0.45089900  0.10037800  1
  O  O35  1  0.92675300  0.44242500  0.69210700  1
  O  O36  1  0.13914800  0.40568200  0.08027100  1
  O  O37  1  0.28780600  0.38339800  0.32335100  1
  O  O38  1  0.50896100  0.37754300  0.74460900  1
  O  O39  1  0.08757800  0.36764000  0.46664400  1
  O  O40  1  0.23940700  0.32565100  0.69096200  1
  O  O41  1  0.31850400  0.30974900  0.93689500  1
  O  O42  1  0.02572900  0.27025100  0.27801700  1
  O  O43  1  0.45114600  0.26457700  0.56471300  1
  O  O44  1  0.95114600  0.23542300  0.93528700  1
  O  O45  1  0.52572900  0.22974900  0.22198300  1
  O  O46  1  0.81850400  0.19025100  0.56310500  1
  O  O47  1  0.58757800  0.13236000  0.03335600  1
loop_
_geom_bond_atom_site_label_1
_geom_bond_atom_site_label_2
_geom_bond_distance
_geom_bond_site_symmetry_2
Li0 O4 1.988933 1_565
Li0 O11 2.007363 1_555
Li0 O2 2.022140 1_565
Li0 O20 2.024080 1_555
Li1 O21 1.972003 1_455
Li1 O13 2.019499 1_555
Li1 O1 2.047257 1_565
Li1 O6 2.080255 1_565
Li2 O22 2.023020 1_555
Li2 O23 2.060760 1_555
Li2 O11 2.110800 1_555
Li2 O14 2.134300 1_555
Li2 O5 2.535233 1_565
Li3 O0 2.023020 1_555
Li3 O16 2.060760 1_555
Li3 O28 2.110800 1_555
Li3 O25 2.134300 1_555
Li3 O37 2.535233 1_555
Li4 O18 1.972003 1_555
Li4 O26 2.019499 1_555
Li4 O32 2.047257 1_555
Li4 O38 2.080255 1_555
Li5 O36 1.988933 1_555
Li5 O28 2.007363 1_555
Li5 O34 2.022140 1_455
Li5 O19 2.024080 1_555
Li6 O27 1.988933 1_555
Li6 O35 2.007363 1_555
Li6 O29 2.022140 1_655
Li6 O44 2.024080 1_555
Li7 O45 1.972003 1_555
Li7 O37 2.019499 1_555
Li7 O31 2.047257 1_555
Li7 O25 2.080255 1_555
Li8 O46 2.023020 1_555
Li8 O7 2.060760 1_555
Li8 O35 2.110800 1_555
Li8 O38 2.134300 1_555
Li8 O26 2.535233 1_555
Li9 O41 2.023020 1_555
Li9 O40 2.060760 1_555
Li9 O3 2.110800 1_555
Li9 O6 2.134300 1_555
Li9 O13 2.535233 1_545
Li10 O42 1.972003 1_655
Li10 O5 2.019499 1_555
Li10 O9 2.047257 1_545
Li10 O14 2.080255 1_545
Li11 O12 1.988933 1_545
Li11 O3 2.007363 1_555
Li11 O10 2.022140 1_545
Li11 O43 2.024080 1_555
Mo0 O27 2.084356 1_455
Mo0 O8 2.118362 1_455
Mo0 O19 2.123950 1_556
Mo0 O13 2.152343 1_555
Mo0 O29 2.163312 1_555
Mo0 O21 2.173641 1_455
Mo1 O15 2.056955 1_554
Mo1 O31 2.104228 1_555
Mo1 O22 2.135760 1_555
Mo1 O25 2.144722 1_555
Mo1 O16 2.147897 1_555
Mo1 O11 2.151923 1_555
Mo2 O12 2.084356 1_555
Mo2 O30 2.118362 1_555
Mo2 O20 2.123950 1_555
Mo2 O26 2.152343 1_555
Mo2 O10 2.163312 1_555
Mo2 O18 2.173641 1_555
Mo3 O24 2.056955 1_555
Mo3 O9 2.104228 1_555
Mo3 O0 2.135760 1_655
Mo3 O14 2.144722 1_555
Mo3 O23 2.147897 1_555
Mo3 O28 2.151923 1_655
Mo4 O39 2.056955 1_555
Mo4 O1 2.104228 1_555
Mo4 O46 2.135760 1_455
Mo4 O6 2.144722 1_555
Mo4 O40 2.147897 1_555
Mo4 O35 2.151923 1_455
Mo5 O4 2.084356 1_555
Mo5 O33 2.118362 1_555
Mo5 O43 2.123950 1_555
Mo5 O37 2.152343 1_555
Mo5 O2 2.163312 1_555
Mo5 O45 2.173641 1_555
Mo6 O47 2.056955 1_556
Mo6 O32 2.104228 1_555
Mo6 O41 2.135760 1_555
Mo6 O38 2.144722 1_555
Mo6 O7 2.147897 1_555
Mo6 O3 2.151923 1_555
Mo7 O36 2.084356 1_655
Mo7 O17 2.118362 1_655
Mo7 O44 2.123950 1_554
Mo7 O5 2.152343 1_555
Mo7 O34 2.163312 1_555
Mo7 O42 2.173641 1_655
O0 P8 1.551487 1_555
O1 P8 1.542935 1_545
O2 P8 1.550309 1_545
O3 P9 1.583663 1_545
O4 P0 1.557777 1_555
O5 P1 1.563940 1_555
O6 P2 1.577219 1_455
O7 P2 1.553921 1_555
O8 P2 1.525412 1_565
O9 P0 1.542935 1_565
O10 P0 1.550309 1_565
O11 P1 1.583663 1_565
O12 P8 1.557777 1_555
O13 P9 1.563940 1_555
O14 P11 1.577219 1_655
O15 P9 1.515512 1_555
O16 P11 1.553921 1_555
O17 P11 1.525412 1_545
O18 P9 1.553592 1_555
O19 P11 1.566557 1_555
O20 P10 1.566557 1_555
O21 P7 1.553592 1_555
O22 P6 1.551487 1_555
O23 P10 1.553921 1_555
O24 P7 1.515512 1_555
O25 P10 1.577219 1_555
O26 P7 1.563940 1_555
O27 P6 1.557777 1_556
O28 P4 1.583663 1_555
O29 P5 1.550309 1_555
O30 P3 1.525412 1_555
O31 P5 1.542935 1_554
O32 P6 1.542935 1_556
O33 P10 1.525412 1_555
O34 P6 1.550309 1_555
O35 P7 1.583663 1_555
O36 P5 1.557777 1_554
O37 P4 1.563940 1_555
O38 P3 1.577219 1_555
O39 P4 1.515512 1_555
O40 P3 1.553921 1_555
O41 P5 1.551487 1_555
O42 P4 1.553592 1_555
O43 P3 1.566557 1_555
O44 P2 1.566557 1_555
O45 P1 1.553592 1_555
O46 P0 1.551487 1_555
O47 P1 1.515512 1_555
