# generated using pymatgen
data_Dy4MgTi2O10
_symmetry_space_group_name_H-M   'P 1'
_cell_length_a   6.75235164
_cell_length_b   6.30570639
_cell_length_c   7.82458889
_cell_angle_alpha   61.35899245
_cell_angle_beta   113.51493539
_cell_angle_gamma   131.99851706
_symmetry_Int_Tables_number   1
_chemical_formula_structural   Dy4MgTi2O10
_chemical_formula_sum   'Dy4 Mg1 Ti2 O10'
_cell_volume   215.72504095
_cell_formula_units_Z   1
loop_
 _symmetry_equiv_pos_site_id
 _symmetry_equiv_pos_as_xyz
  1  'x, y, z'
loop_
 _atom_site_type_symbol
 _atom_site_label
 _atom_site_symmetry_multiplicity
 _atom_site_fract_x
 _atom_site_fract_y
 _atom_site_fract_z
 _atom_site_occupancy
  Dy  Dy0  1  0.39924262  0.71440278  0.74298494  1
  Dy  Dy1  1  0.50214661  0.71210495  0.24012692  1
  Dy  Dy2  1  0.49785339  0.28789505  0.75987308  1
  Dy  Dy3  1  0.60075738  0.28559722  0.25701506  1
  Mg  Mg0  1  0.00000000  0.50000000  0.00000000  1
  Ti  Ti0  1  0.00000000  0.00000000  0.50000000  1
  Ti  Ti1  1  0.00000000  0.00000000  0.00000000  1
  O  O0  1  0.05095628  0.71289416  0.71871423  1
  O  O1  1  0.30323646  0.94327908  0.07663902  1
  O  O2  1  0.58981479  0.77915116  0.52614348  1
  O  O3  1  0.12028963  0.22667913  0.72806987  1
  O  O4  1  0.72516420  0.58526765  0.94954403  1
  O  O5  1  0.27483580  0.41473235  0.05045597  1
  O  O6  1  0.87971037  0.77332087  0.27193013  1
  O  O7  1  0.41018521  0.22084884  0.47385652  1
  O  O8  1  0.69676354  0.05672092  0.92336098  1
  O  O9  1  0.94904372  0.28710584  0.28128577  1
loop_
_geom_bond_atom_site_label_1
_geom_bond_atom_site_label_2
_geom_bond_distance
_geom_bond_site_symmetry_2
Dy0 O2 2.253093 1_555
Dy0 O0 2.276466 1_555
Dy0 O5 2.279201 1_556
Dy0 O3 2.331605 1_555
Dy0 O8 2.354157 1_565
Dy0 O4 2.533119 1_555
Dy0 O7 2.828423 1_565
Dy1 O6 2.231471 1_555
Dy1 O1 2.242034 1_555
Dy1 O2 2.247795 1_555
Dy1 O5 2.252349 1_555
Dy1 O8 2.491321 1_564
Dy1 O7 2.495445 1_555
Dy1 O9 2.823543 1_455
Dy1 O9 2.838686 1_565
Dy2 O3 2.231471 1_555
Dy2 O8 2.242034 1_555
Dy2 O7 2.247795 1_555
Dy2 O4 2.252349 1_555
Dy2 O1 2.491321 1_546
Dy2 O2 2.495445 1_555
Dy2 O0 2.823543 1_655
Dy2 O0 2.838686 1_545
Dy3 O7 2.253093 1_555
Dy3 O9 2.276466 1_555
Dy3 O4 2.279201 1_554
Dy3 O6 2.331605 1_555
Dy3 O1 2.354157 1_545
Dy3 O5 2.533119 1_555
Dy3 O2 2.828423 1_545
Mg0 O0 1.979504 1_554
Mg0 O9 1.979504 1_455
Mg0 O5 2.106195 1_555
Mg0 O4 2.106195 1_454
Mg0 O8 2.309365 1_454
Mg0 O1 2.309365 1_555
O0 Ti0 1.928290 1_565
O1 Ti1 2.115337 1_565
O2 Ti0 2.160984 1_665
O3 Ti1 2.034699 1_556
O3 Ti0 2.371168 1_555
O4 Ti1 2.085524 1_666
O5 Ti1 2.085524 1_555
O6 Ti1 2.034699 1_665
O6 Ti0 2.371168 1_665
O7 Ti0 2.160984 1_555
O8 Ti1 2.115337 1_656
O9 Ti0 1.928290 1_655
