# generated using pymatgen
data_LiCrPO4
_symmetry_space_group_name_H-M   'P 1'
_cell_length_a   7.62461450
_cell_length_b   7.62461450
_cell_length_c   9.53012600
_cell_angle_alpha   90.00000000
_cell_angle_beta   90.00000000
_cell_angle_gamma   120.00000437
_symmetry_Int_Tables_number   1
_chemical_formula_structural   LiCrPO4
_chemical_formula_sum   'Li6 Cr6 P6 O24'
_cell_volume   479.80529559
_cell_formula_units_Z   6
loop_
 _symmetry_equiv_pos_site_id
 _symmetry_equiv_pos_as_xyz
  1  'x, y, z'
loop_
 _atom_site_type_symbol
 _atom_site_label
 _atom_site_symmetry_multiplicity
 _atom_site_fract_x
 _atom_site_fract_y
 _atom_site_fract_z
 _atom_site_occupancy
  Li  Li0  1  0.20709400  0.95937000  0.26018700  1
  Li  Li1  1  0.04063000  0.24772500  0.26018700  1
  Li  Li2  1  0.24772500  0.04063000  0.76018700  1
  Li  Li3  1  0.75227500  0.79290600  0.26018700  1
  Li  Li4  1  0.79290600  0.75227500  0.76018700  1
  Li  Li5  1  0.95937000  0.20709400  0.76018700  1
  Cr  Cr0  1  0.05301200  0.58391700  0.47901800  1
  Cr  Cr1  1  0.53090500  0.94698800  0.47901800  1
  Cr  Cr2  1  0.41608300  0.46909500  0.47901800  1
  Cr  Cr3  1  0.46909500  0.41608300  0.97901800  1
  Cr  Cr4  1  0.58391700  0.05301200  0.97901800  1
  Cr  Cr5  1  0.94698800  0.53090500  0.97901800  1
  P  P0  1  0.33333300  0.66666700  0.77800000  1
  P  P1  1  0.33333300  0.66666700  0.18098400  1
  P  P2  1  0.00000000  0.00000000  0.50895200  1
  P  P3  1  0.00000000  0.00000000  0.00895200  1
  P  P4  1  0.66666700  0.33333300  0.68098400  1
  P  P5  1  0.66666700  0.33333300  0.27800000  1
  O  O0  1  0.10860900  0.88687800  0.45358000  1
  O  O1  1  0.16141600  0.70395000  0.13344100  1
  O  O2  1  0.12740600  0.49267700  0.82907900  1
  O  O3  1  0.36527100  0.87259400  0.82907900  1
  O  O4  1  0.33333300  0.66666700  0.61289200  1
  O  O5  1  0.33333300  0.66666700  0.35047500  1
  O  O6  1  0.00000000  0.00000000  0.67176700  1
  O  O7  1  0.11312200  0.22173100  0.45358000  1
  O  O8  1  0.29605000  0.45746600  0.13344100  1
  O  O9  1  0.54253400  0.83858400  0.13344100  1
  O  O10  1  0.22173100  0.11312200  0.95358000  1
  O  O11  1  0.50732300  0.63472900  0.82907900  1
  O  O12  1  0.45746600  0.29605000  0.63344100  1
  O  O13  1  0.77826900  0.89139100  0.45358000  1
  O  O14  1  0.63472900  0.50732300  0.32907900  1
  O  O15  1  0.49267700  0.12740600  0.32907900  1
  O  O16  1  0.00000000  0.00000000  0.17176700  1
  O  O17  1  0.66666700  0.33333300  0.85047500  1
  O  O18  1  0.66666700  0.33333300  0.11289200  1
  O  O19  1  0.89139100  0.77826900  0.95358000  1
  O  O20  1  0.83858400  0.54253400  0.63344100  1
  O  O21  1  0.70395000  0.16141600  0.63344100  1
  O  O22  1  0.87259400  0.36527100  0.32907900  1
  O  O23  1  0.88687800  0.10860900  0.95358000  1
loop_
_geom_bond_atom_site_label_1
_geom_bond_atom_site_label_2
_geom_bond_distance
_geom_bond_site_symmetry_2
Li0 O16 1.946400 1_565
Li0 O0 1.962446 1_555
Li0 O15 2.006017 1_565
Li0 O1 2.166736 1_555
Li1 O16 1.946406 1_555
Li1 O7 1.962447 1_555
Li1 O22 2.006012 1_455
Li1 O8 2.166734 1_555
Li2 O6 1.946406 1_555
Li2 O10 1.962447 1_555
Li2 O3 2.006012 1_545
Li2 O12 2.166734 1_555
Li3 O16 1.946404 1_665
Li3 O13 1.962445 1_555
Li3 O14 2.006018 1_555
Li3 O9 2.166730 1_555
Li4 O6 1.946404 1_665
Li4 O19 1.962445 1_555
Li4 O11 2.006018 1_555
Li4 O20 2.166730 1_555
Li5 O6 1.946400 1_655
Li5 O23 1.962446 1_555
Li5 O2 2.006017 1_655
Li5 O21 2.166736 1_555
Cr0 O22 2.102403 1_455
Cr0 O20 2.102975 1_455
Cr0 O0 2.143637 1_555
Cr0 O5 2.262405 1_555
Cr0 O4 2.290313 1_555
Cr1 O15 2.102403 1_565
Cr1 O21 2.102975 1_565
Cr1 O13 2.143637 1_555
Cr1 O5 2.262406 1_555
Cr1 O4 2.290314 1_555
Cr2 O14 2.102403 1_555
Cr2 O12 2.102975 1_555
Cr2 O7 2.143637 1_555
Cr2 O5 2.262411 1_555
Cr2 O4 2.290319 1_555
Cr3 O11 2.102403 1_555
Cr3 O8 2.102975 1_556
Cr3 O10 2.143637 1_555
Cr3 O17 2.262411 1_555
Cr3 O18 2.290319 1_556
Cr4 O3 2.102403 1_545
Cr4 O9 2.102975 1_546
Cr4 O23 2.143637 1_555
Cr4 O17 2.262405 1_555
Cr4 O18 2.290313 1_556
Cr5 O2 2.102403 1_655
Cr5 O1 2.102975 1_656
Cr5 O19 2.143637 1_555
Cr5 O17 2.262406 1_555
Cr5 O18 2.290314 1_556
O0 P2 1.556405 1_565
O1 P1 1.541726 1_555
O2 P0 1.542460 1_555
O3 P0 1.542457 1_555
O4 P0 1.573500 1_555
O5 P1 1.615271 1_555
O6 P2 1.551647 1_555
O7 P2 1.556405 1_555
O8 P1 1.541733 1_555
O9 P1 1.541730 1_555
O10 P3 1.556405 1_556
O11 P0 1.542465 1_555
O12 P4 1.541733 1_555
O13 P2 1.556405 1_665
O14 P5 1.542465 1_555
O15 P5 1.542460 1_555
O16 P3 1.551647 1_555
O17 P4 1.615271 1_555
O18 P5 1.573500 1_555
O19 P3 1.556405 1_666
O20 P4 1.541730 1_555
O21 P4 1.541726 1_555
O22 P5 1.542457 1_555
O23 P3 1.556405 1_656
