# generated using pymatgen
data_Nd2NiB10
_symmetry_space_group_name_H-M   'P 1'
_cell_length_a   4.19250867
_cell_length_b   5.62412103
_cell_length_c   11.20114162
_cell_angle_alpha   89.99997284
_cell_angle_beta   89.99999725
_cell_angle_gamma   90.00000106
_symmetry_Int_Tables_number   1
_chemical_formula_structural   Nd2NiB10
_chemical_formula_sum   'Nd4 Ni2 B20'
_cell_volume   264.11369167
_cell_formula_units_Z   2
loop_
 _symmetry_equiv_pos_site_id
 _symmetry_equiv_pos_as_xyz
  1  'x, y, z'
loop_
 _atom_site_type_symbol
 _atom_site_label
 _atom_site_symmetry_multiplicity
 _atom_site_fract_x
 _atom_site_fract_y
 _atom_site_fract_z
 _atom_site_occupancy
  Nd  Nd0  1  0.49999910  0.31157257  0.86307939  1
  Nd  Nd1  1  0.49999934  0.68842691  0.13692086  1
  Nd  Nd2  1  0.49999940  0.81157199  0.63691266  1
  Nd  Nd3  1  0.49999909  0.18842787  0.36308718  1
  Ni  Ni0  1  0.00000085  0.50000587  0.50000120  1
  Ni  Ni1  1  0.00001385  -0.00000477  -0.00000101  1
  B  B0  1  -0.00000074  0.12673000  0.54137177  1
  B  B1  1  -0.00000072  0.87327070  0.45862806  1
  B  B2  1  -0.00000059  0.62672276  0.95862864  1
  B  B3  1  -0.00000060  0.37327678  0.04137148  1
  B  B4  1  -0.00000060  0.15913160  0.69784686  1
  B  B5  1  -0.00000064  0.84086847  0.30215300  1
  B  B6  1  0.29996237  0.19999828  0.11386285  1
  B  B7  1  0.29996273  0.80000150  0.88613718  1
  B  B8  1  0.70004037  0.69999254  0.38613749  1
  B  B9  1  0.70004040  0.30000786  0.61386237  1
  B  B10  1  0.70003657  0.80000159  0.88613721  1
  B  B11  1  0.70003691  0.19999822  0.11386282  1
  B  B12  1  0.29995827  0.30000777  0.61386235  1
  B  B13  1  0.29995830  0.69999255  0.38613747  1
  B  B14  1  -0.00000064  0.03160599  0.18661514  1
  B  B15  1  -0.00000062  0.96839351  0.81338467  1
  B  B16  1  -0.00000074  0.53160561  0.31338650  1
  B  B17  1  -0.00000071  0.46839427  0.68661365  1
  B  B18  1  -0.00000048  0.34087221  0.19784860  1
  B  B19  1  -0.00000046  0.65912736  0.80215161  1
loop_
_geom_bond_atom_site_label_1
_geom_bond_atom_site_label_2
_geom_bond_distance
_geom_bond_site_symmetry_2
Nd0 Ni1 3.133185 1_556
Nd0 Ni1 3.133268 1_656
Nd1 Ni1 3.133170 1_565
Nd1 Ni1 3.133251 1_665
Nd2 Ni0 3.133143 1_555
Nd2 Ni0 3.133151 1_655
Nd3 Ni0 3.133193 1_555
Nd3 Ni0 3.133203 1_655
B0 B1 1.700298 1_545
B0 B4 1.762148 1_555
B0 B9 1.786207 1_455
B0 B12 1.786207 1_555
B0 Ni0 2.149884 1_555
B0 Nd3 2.915932 1_555
B0 Nd3 2.915933 1_455
B0 Nd2 2.946395 1_445
B0 Nd2 2.946396 1_545
B1 B5 1.762148 1_555
B1 B8 1.786208 1_455
B1 B13 1.786208 1_555
B1 Ni0 2.149830 1_555
B1 Nd2 2.915932 1_455
B1 Nd2 2.915933 1_555
B1 Nd3 2.946392 1_565
B1 Nd3 2.946393 1_465
B2 B3 1.700229 1_556
B2 B7 1.786227 1_555
B2 Ni1 2.149865 1_566
B2 Nd1 2.915995 1_556
B2 Nd1 2.915995 1_456
B2 Nd0 2.946403 1_555
B2 Nd0 2.946405 1_455
B3 B6 1.786225 1_555
B3 Ni1 2.149920 1_555
B3 Nd0 2.915993 1_554
B3 Nd0 2.915995 1_454
B3 Nd1 2.946404 1_555
B3 Nd1 2.946404 1_455
B4 B9 1.759038 1_455
B4 Nd0 2.924852 1_555
B4 Nd0 2.924853 1_455
B4 Nd2 2.946363 1_445
B4 Nd2 2.946363 1_545
B5 B8 1.759037 1_455
B5 Nd1 2.924850 1_555
B5 Nd1 2.924851 1_455
B5 Nd3 2.946361 1_565
B5 Nd3 2.946363 1_465
B6 Ni1 2.115024 1_555
B6 Nd1 2.883741 1_555
B6 Nd3 2.915577 1_555
B6 Nd0 2.997988 1_554
B6 Nd1 3.007986 1_545
B7 Ni1 2.114983 1_566
B7 Nd0 2.883741 1_555
B7 Nd2 2.915579 1_555
B7 Nd1 2.997990 1_556
B7 Nd0 3.007984 1_565
B8 Ni0 2.115003 1_655
B8 Nd3 2.883774 1_565
B8 Nd1 2.915500 1_555
B8 Nd2 2.997912 1_555
B8 Nd3 3.007948 1_555
B9 Ni0 2.115020 1_655
B9 Nd2 2.883776 1_545
B9 Nd0 2.915504 1_555
B9 Nd3 2.997914 1_555
B9 Nd2 3.007945 1_555
B10 B7 1.677313 1_555
B10 B19 1.759052 1_655
B10 B15 1.772723 1_655
B10 B2 1.786226 1_655
B10 Ni1 2.115054 1_666
B10 Nd0 2.883743 1_555
B10 Nd2 2.915580 1_555
B10 Nd1 2.997991 1_556
B10 Nd0 3.007985 1_565
B11 B6 1.677316 1_555
B11 B18 1.759051 1_655
B11 B14 1.772721 1_655
B11 B3 1.786223 1_655
B11 Ni1 2.115094 1_655
B11 Nd1 2.883742 1_555
B11 Nd3 2.915579 1_555
B11 Nd0 2.997989 1_554
B11 Nd1 3.007987 1_545
B12 B9 1.677348 1_555
B12 B4 1.759037 1_555
B12 B17 1.772689 1_555
B12 Ni0 2.115013 1_555
B12 Nd2 2.883776 1_545
B12 Nd0 2.915504 1_555
B12 Nd3 2.997913 1_555
B12 Nd2 3.007945 1_555
B13 B8 1.677348 1_555
B13 B5 1.759037 1_555
B13 B16 1.772689 1_555
B13 Ni0 2.114996 1_555
B13 Nd3 2.883773 1_565
B13 Nd1 2.915499 1_555
B13 Nd2 2.997913 1_555
B13 Nd3 3.007948 1_555
B14 B5 1.680949 1_545
B14 B18 1.743896 1_555
B14 B6 1.772723 1_555
B14 Ni1 2.097861 1_555
B14 Nd1 2.903332 1_545
B14 Nd1 2.903332 1_445
B14 Nd3 3.013217 1_555
B14 Nd3 3.013218 1_455
B15 B4 1.680951 1_565
B15 B19 1.743895 1_555
B15 B7 1.772724 1_555
B15 Ni1 2.097836 1_566
B15 Nd0 2.903332 1_565
B15 Nd0 2.903333 1_465
B15 Nd2 3.013216 1_455
B15 Nd2 3.013216 1_555
B16 B18 1.680935 1_555
B16 B5 1.743877 1_555
B16 B8 1.772688 1_455
B16 Ni0 2.097839 1_555
B16 Nd3 2.903340 1_555
B16 Nd3 2.903340 1_455
B16 Nd1 3.013169 1_455
B16 Nd1 3.013169 1_555
B17 B19 1.680935 1_555
B17 B4 1.743876 1_555
B17 B9 1.772688 1_455
B17 Ni0 2.097820 1_555
B17 Nd2 2.903340 1_455
B17 Nd2 2.903341 1_555
B17 Nd0 3.013170 1_555
B17 Nd0 3.013171 1_455
B18 B6 1.759051 1_555
B18 B3 1.762172 1_555
B18 Nd3 2.924899 1_555
B18 Nd3 2.924901 1_455
B18 Nd1 2.946327 1_555
B18 Nd1 2.946328 1_455
B19 B7 1.759052 1_555
B19 B2 1.762171 1_555
B19 Nd2 2.924903 1_555
B19 Nd2 2.924904 1_455
B19 Nd0 2.946327 1_555
B19 Nd0 2.946329 1_455
