# generated using pymatgen
data_Na5Mg3ZrP3(SO8)3
_symmetry_space_group_name_H-M   'P 1'
_cell_length_a   8.93838472
_cell_length_b   8.94633699
_cell_length_c   22.52755775
_cell_angle_alpha   90.07989501
_cell_angle_beta   89.86676111
_cell_angle_gamma   119.90399632
_symmetry_Int_Tables_number   1
_chemical_formula_structural   Na5Mg3ZrP3(SO8)3
_chemical_formula_sum   'Na15 Mg9 Zr3 P9 S9 O72'
_cell_volume   1561.59055131
_cell_formula_units_Z   3
loop_
 _symmetry_equiv_pos_site_id
 _symmetry_equiv_pos_as_xyz
  1  'x, y, z'
loop_
 _atom_site_type_symbol
 _atom_site_label
 _atom_site_symmetry_multiplicity
 _atom_site_fract_x
 _atom_site_fract_y
 _atom_site_fract_z
 _atom_site_occupancy
  Na  Na0  1  0.00135944  0.63560802  0.25579588  1
  Na  Na1  1  0.30166357  0.33965200  0.58919198  1
  Na  Na2  1  0.02555980  0.69142369  0.58132300  1
  Na  Na3  1  0.67194924  0.96296810  0.57994156  1
  Na  Na4  1  0.67013175  0.69918322  0.08246380  1
  Na  Na5  1  0.03418874  0.34099899  0.08591326  1
  Na  Na6  1  0.97885238  0.67872897  0.91129374  1
  Na  Na7  1  0.32490171  0.29583874  0.90562784  1
  Na  Na8  1  0.70203275  0.67877105  0.41644738  1
  Na  Na9  1  0.99748963  0.00369389  0.49409814  1
  Na  Na10  1  0.00079657  0.99368690  0.99474708  1
  Na  Na11  1  0.65618419  0.31889892  0.82111315  1
  Na  Na12  1  0.65514561  0.30253302  0.33150992  1
  Na  Na13  1  0.33605898  0.67952910  0.17186291  1
  Na  Na14  1  0.33221624  0.65204272  0.66470099  1
  Mg  Mg0  1  0.00222598  0.00532825  0.35259829  1
  Mg  Mg1  1  0.00005234  0.00689240  0.84817032  1
  Mg  Mg2  1  0.99944249  0.00621712  0.65255045  1
  Mg  Mg3  1  0.00461962  0.99428925  0.15337276  1
  Mg  Mg4  1  0.66615846  0.34199367  0.68544346  1
  Mg  Mg5  1  0.66624140  0.33093032  0.18651167  1
  Mg  Mg6  1  0.32745620  0.67259530  0.01504366  1
  Mg  Mg7  1  0.33242576  0.66742559  0.51252565  1
  Mg  Mg8  1  0.33575688  0.67377217  0.31984423  1
  Zr  Zr0  1  0.67003003  0.33408183  0.97943346  1
  Zr  Zr1  1  0.68209419  0.33504042  0.47888308  1
  Zr  Zr2  1  0.33581081  0.66373211  0.81227985  1
  P  P0  1  0.29845808  0.28854620  0.74966314  1
  P  P1  1  0.96386686  0.33422988  0.58720706  1
  P  P2  1  0.66502633  0.62878891  0.58414600  1
  P  P3  1  0.96534242  0.63141347  0.08661569  1
  P  P4  1  0.62965816  0.67512939  0.92057109  1
  P  P5  1  0.04443606  0.37038914  0.91925349  1
  P  P6  1  0.32845759  0.95701355  0.91703769  1
  P  P7  1  0.62762686  0.95562226  0.41648103  1
  P  P8  1  0.04475774  0.67540296  0.41512558  1
  S  S0  1  0.29537160  0.00169556  0.24998689  1
  S  S1  1  0.70117348  0.70344940  0.24908224  1
  S  S2  1  0.00166839  0.29456636  0.24818221  1
  S  S3  1  0.99582552  0.70607330  0.74997998  1
  S  S4  1  0.71000456  0.00590213  0.74874258  1
  S  S5  1  0.37325802  0.03918908  0.58512379  1
  S  S6  1  0.66489104  0.03672642  0.08637796  1
  S  S7  1  0.37000657  0.33130330  0.08538003  1
  S  S8  1  0.32910519  0.37211663  0.41660730  1
  O  O0  1  0.21182038  0.02383206  0.30298784  1
  O  O1  1  0.81312630  0.78803742  0.30137807  1
  O  O2  1  0.98349604  0.18703101  0.29974559  1
  O  O3  1  0.21146445  0.19015307  0.80714431  1
  O  O4  1  0.98005678  0.78883576  0.80475861  1
  O  O5  1  0.81086444  0.01926182  0.80172131  1
  O  O6  1  0.78240146  0.97663273  0.69379569  1
  O  O7  1  0.19093879  0.21061304  0.69328847  1
  O  O8  1  0.01826330  0.80904830  0.69616751  1
  O  O9  1  0.78162055  0.80612510  0.19397969  1
  O  O10  1  0.01884130  0.21502260  0.19202004  1
  O  O11  1  0.18779765  0.97513559  0.19626287  1
  O  O12  1  0.87375049  0.36292506  0.63941202  1
  O  O13  1  0.48290963  0.12002549  0.63695784  1
  O  O14  1  0.63201491  0.50773174  0.63598379  1
  O  O15  1  0.87460100  0.51396952  0.13996541  1
  O  O16  1  0.64154441  0.12112315  0.13798950  1
  O  O17  1  0.48259785  0.35322716  0.13558758  1
  O  O18  1  0.44807724  0.30700005  0.02916039  1
  O  O19  1  0.84645707  0.53750633  0.02978053  1
  O  O20  1  0.68865677  0.14495590  0.03179672  1
  O  O21  1  0.45348367  0.14878376  0.53110260  1
  O  O22  1  0.69213344  0.54378605  0.52621343  1
  O  O23  1  0.84664078  0.30427514  0.53041648  1
  O  O24  1  0.54978978  0.69281936  0.97803633  1
  O  O25  1  0.14749726  0.44827148  0.97623591  1
  O  O26  1  0.30057046  0.84758167  0.97179814  1
  O  O27  1  0.55111440  0.85270015  0.47460400  1
  O  O28  1  0.30881055  0.44746692  0.47245696  1
  O  O29  1  0.14192428  0.68866794  0.47255124  1
  O  O30  1  0.11973759  0.64317709  0.35869877  1
  O  O31  1  0.51656019  0.87014349  0.36242468  1
  O  O32  1  0.36007025  0.48501060  0.36513923  1
  O  O33  1  0.13044940  0.49477929  0.86567160  1
  O  O34  1  0.35923727  0.87428935  0.86143056  1
  O  O35  1  0.50792500  0.63906268  0.86671531  1
  O  O36  1  0.01213360  0.82904410  0.41036333  1
  O  O37  1  0.81097626  0.97926053  0.41010608  1
  O  O38  1  0.17919246  0.19898282  0.40967456  1
  O  O39  1  0.02284542  0.19236312  0.91050799  1
  O  O40  1  0.16994216  0.98121833  0.91032944  1
  O  O41  1  0.81308661  0.82251140  0.91123527  1
  O  O42  1  0.98169791  0.17087945  0.58974433  1
  O  O43  1  0.19817810  0.01978530  0.59021456  1
  O  O44  1  0.83164885  0.80761317  0.58955408  1
  O  O45  1  0.97166330  0.80674787  0.08961950  1
  O  O46  1  0.82687612  0.02601380  0.08964328  1
  O  O47  1  0.19370107  0.18156819  0.09014801  1
  O  O48  1  0.68808955  0.15787719  0.74436552  1
  O  O49  1  0.48097432  0.31381395  0.74543049  1
  O  O50  1  0.84533412  0.53114124  0.74617925  1
  O  O51  1  0.69139902  0.53090565  0.24367169  1
  O  O52  1  0.84508837  0.31649154  0.24525398  1
  O  O53  1  0.46969287  0.15515493  0.24332984  1
  O  O54  1  0.64158948  0.50217766  0.92408975  1
  O  O55  1  0.86288535  0.35939956  0.92370667  1
  O  O56  1  0.49011198  0.14361867  0.92348124  1
  O  O57  1  0.64420126  0.13981717  0.42234864  1
  O  O58  1  0.49188894  0.35799104  0.42171174  1
  O  O59  1  0.85308184  0.50948914  0.42049478  1
  O  O60  1  0.35849760  0.49191993  0.08041988  1
  O  O61  1  0.14127568  0.64201404  0.07902720  1
  O  O62  1  0.51595386  0.86113999  0.07984975  1
  O  O63  1  0.35417556  0.86494838  0.57793162  1
  O  O64  1  0.50471342  0.65133601  0.57749444  1
  O  O65  1  0.14354155  0.49642497  0.57841380  1
  O  O66  1  0.30862336  0.84098158  0.25438835  1
  O  O67  1  0.52710034  0.68157107  0.25493944  1
  O  O68  1  0.15598381  0.47187859  0.25268508  1
  O  O69  1  0.31638109  0.47628968  0.75584877  1
  O  O70  1  0.15742677  0.69043869  0.75425712  1
  O  O71  1  0.53165765  0.84613571  0.75457627  1
loop_
_geom_bond_atom_site_label_1
_geom_bond_atom_site_label_2
_geom_bond_distance
_geom_bond_site_symmetry_2
Na0 O66 2.426527 1_555
Na0 O51 2.458271 1_455
Na0 O68 2.465463 1_555
Na0 O52 2.486264 1_455
Na0 O30 2.537229 1_555
Na0 O1 2.832079 1_455
Na0 O15 2.837823 1_455
Na0 O11 2.959062 1_555
Na1 O65 2.450049 1_555
Na1 O64 2.468294 1_555
Na1 O42 2.480638 1_455
Na1 O43 2.530983 1_555
Na1 O7 2.582432 1_555
Na1 O14 2.770223 1_555
Na1 O28 2.791935 1_555
Na1 O21 2.960707 1_555
Na2 O44 2.431756 1_455
Na2 O65 2.448163 1_555
Na2 O63 2.548755 1_555
Na2 O43 2.555551 1_565
Na2 O29 2.664631 1_555
Na2 O8 2.804477 1_555
Na2 O12 2.866499 1_455
Na2 O22 2.873261 1_455
Na3 O64 2.419675 1_555
Na3 O44 2.448817 1_555
Na3 O42 2.457805 1_565
Na3 O63 2.521061 1_555
Na3 O27 2.591108 1_555
Na3 O6 2.731059 1_555
Na3 O23 2.872951 1_565
Na3 O13 2.971757 1_565
Na4 O45 2.373110 1_555
Na4 O62 2.448178 1_555
Na4 O60 2.459621 1_555
Na4 O46 2.540385 1_565
Na4 O24 2.577763 1_554
Na4 O9 2.696991 1_555
Na4 O19 2.871269 1_555
Na4 O17 2.940969 1_555
Na5 O61 2.371223 1_555
Na5 O47 2.470846 1_555
Na5 O46 2.484962 1_455
Na5 O60 2.517457 1_555
Na5 O10 2.618110 1_555
Na5 O25 2.660312 1_554
Na5 O15 2.846001 1_455
Na5 O20 2.951537 1_455
Na6 O40 2.373267 1_655
Na6 O41 2.398001 1_555
Na6 O55 2.522365 1_555
Na6 O4 2.593498 1_555
Na6 O54 2.629668 1_555
Na6 O33 2.795160 1_655
Na6 O26 2.844326 1_655
Na6 O19 2.936890 1_556
Na7 O39 2.380186 1_555
Na7 O3 2.427534 1_555
Na7 O40 2.442353 1_545
Na7 O56 2.491271 1_555
Na7 O54 2.527149 1_555
Na7 O35 2.804534 1_555
Na8 O37 2.363416 1_555
Na8 O36 2.406706 1_655
Na8 O59 2.482837 1_555
Na8 O58 2.530437 1_555
Na8 O22 2.735232 1_555
Na8 O1 2.772814 1_555
Na8 O27 2.834854 1_555
Na8 O32 2.900235 1_555
Na9 O37 2.461186 1_545
Na9 O36 2.492248 1_645
Na9 O38 2.544185 1_655
Na9 O42 2.664539 1_555
Na9 O44 2.702160 1_545
Na9 O43 2.772480 1_655
Na10 O40 2.463533 1_555
Na10 O41 2.478772 1_455
Na10 O39 2.541207 1_565
Na10 O45 2.646837 1_456
Na10 O46 2.738892 1_466
Na10 O47 2.744908 1_566
Na11 O49 2.302764 1_555
Na11 O48 2.355024 1_555
Na11 O50 2.471472 1_555
Na11 O56 2.766546 1_555
Na11 O55 2.869914 1_555
Na11 O54 2.878947 1_555
Na12 O57 2.486302 1_555
Na12 O53 2.502217 1_555
Na12 O52 2.539245 1_555
Na12 O58 2.685145 1_555
Na12 O59 2.704925 1_555
Na12 O51 2.746450 1_555
Na13 O66 2.438497 1_555
Na13 O68 2.524130 1_555
Na13 O67 2.530307 1_555
Na13 O62 2.628867 1_555
Na13 O61 2.636290 1_555
Na13 O60 2.724875 1_555
Na14 O65 2.495494 1_555
Na14 O64 2.496475 1_555
Na14 O69 2.548381 1_555
Na14 O63 2.668930 1_555
Na14 O70 2.673506 1_555
Na14 O71 2.685683 1_555
Mg0 O37 2.061076 1_445
Mg0 O36 2.081824 1_545
Mg0 O2 2.089457 1_455
Mg0 O38 2.104193 1_555
Mg0 O0 2.113704 1_555
Mg0 O1 2.166541 1_445
Mg1 O3 2.004998 1_555
Mg1 O5 2.040074 1_455
Mg1 O39 2.103472 1_555
Mg1 O4 2.107568 1_445
Mg1 O40 2.162894 1_545
Mg1 O41 2.186094 1_445
Mg2 O7 1.999389 1_655
Mg2 O6 2.043843 1_545
Mg2 O8 2.099224 1_645
Mg2 O42 2.106403 1_555
Mg2 O44 2.183148 1_545
Mg2 O43 2.217229 1_655
Mg3 O11 1.982749 1_555
Mg3 O9 2.072146 1_455
Mg3 O10 2.102197 1_565
Mg3 O45 2.113514 1_455
Mg3 O47 2.205491 1_565
Mg3 O46 2.264320 1_465
Mg4 O14 1.997631 1_555
Mg4 O12 2.049034 1_555
Mg4 O49 2.050375 1_555
Mg4 O13 2.139719 1_555
Mg4 O50 2.145218 1_555
Mg4 O48 2.200628 1_555
Mg5 O15 2.050455 1_555
Mg5 O16 2.085419 1_555
Mg5 O17 2.094319 1_555
Mg5 O53 2.106694 1_555
Mg5 O51 2.122063 1_555
Mg5 O52 2.130636 1_555
Mg6 O26 1.959096 1_554
Mg6 O25 2.040132 1_554
Mg6 O24 2.076375 1_554
Mg6 O61 2.111360 1_555
Mg6 O62 2.232981 1_555
Mg6 O60 2.305306 1_555
Mg7 O27 2.015868 1_555
Mg7 O29 2.019102 1_555
Mg7 O28 2.076880 1_555
Mg7 O64 2.183214 1_555
Mg7 O65 2.193919 1_555
Mg7 O63 2.232264 1_555
Mg8 O31 1.946750 1_555
Mg8 O30 2.008765 1_555
Mg8 O32 2.076530 1_555
Mg8 O66 2.200106 1_555
Mg8 O67 2.222058 1_555
Mg8 O68 2.289796 1_555
O0 S0 1.471464 1_555
O1 S1 1.486564 1_555
O2 S2 1.465487 1_655
O3 P0 1.540225 1_555
O4 S3 1.480411 1_555
O5 S4 1.465810 1_555
O6 S4 1.477784 1_565
O7 P0 1.535473 1_555
O8 S3 1.475216 1_455
O9 S1 1.497382 1_555
O10 S2 1.495392 1_555
O11 S0 1.490828 1_565
O12 P1 1.516165 1_555
O13 S5 1.464018 1_555
O14 P2 1.518878 1_555
O15 P3 1.534761 1_555
O16 S6 1.455676 1_555
O17 S7 1.462334 1_555
O18 S7 1.511503 1_555
O18 Zr0 2.181884 1_554
O19 P3 1.608572 1_555
O19 Zr0 2.055785 1_554
O20 S6 1.513783 1_555
O20 Zr0 2.137613 1_554
O21 S5 1.501589 1_555
O21 Zr1 2.221531 1_555
O22 P2 1.587365 1_555
O22 Zr1 2.111942 1_555
O23 P1 1.591152 1_555
O23 Zr1 1.999790 1_555
O24 P4 1.522609 1_555
O25 P5 1.531313 1_555
O26 P6 1.516915 1_555
O27 P7 1.549613 1_555
O28 S8 1.479456 1_555
O29 P8 1.531006 1_555
O30 P8 1.528334 1_555
O31 P7 1.516359 1_555
O32 S8 1.471070 1_555
O33 P5 1.559759 1_555
O33 Zr2 2.080651 1_555
O34 P6 1.546441 1_555
O34 Zr2 2.102425 1_555
O35 P4 1.554026 1_555
O35 Zr2 2.065753 1_555
O36 P8 1.544694 1_555
O37 P7 1.550673 1_555
O38 S8 1.466247 1_555
O39 P5 1.518394 1_555
O40 P6 1.544107 1_555
O41 P4 1.521360 1_555
O42 P1 1.548173 1_555
O43 S5 1.490183 1_555
O44 P2 1.554652 1_555
O45 P3 1.542606 1_555
O46 S6 1.499947 1_555
O47 S7 1.477886 1_555
O48 S4 1.470605 1_555
O49 P0 1.534041 1_555
O50 S3 1.472108 1_555
O51 S1 1.506768 1_555
O52 S2 1.508583 1_655
O53 S0 1.483810 1_555
O54 P4 1.605198 1_555
O54 Zr0 2.066025 1_555
O55 P5 1.579019 1_655
O55 Zr0 2.049453 1_555
O56 P6 1.578286 1_545
O56 Zr0 2.085568 1_555
O57 P7 1.584600 1_545
O57 Zr1 2.047700 1_555
O58 S8 1.526580 1_555
O58 Zr1 2.224936 1_555
O59 P8 1.617720 1_655
O59 Zr1 2.029716 1_555
O60 S7 1.495235 1_555
O61 P3 1.536637 1_455
O62 S6 1.475326 1_565
O63 S5 1.489821 1_565
O64 P2 1.551045 1_555
O65 P1 1.549106 1_455
O66 S0 1.503795 1_565
O67 S1 1.473806 1_555
O68 S2 1.499235 1_555
O69 P0 1.611629 1_555
O69 Zr2 2.040347 1_555
O70 S3 1.522312 1_455
O70 Zr2 2.167570 1_555
O71 S4 1.526149 1_565
O71 Zr2 2.136386 1_555
