# generated using pymatgen
data_MgV4O5F7
_symmetry_space_group_name_H-M   'P 1'
_cell_length_a   5.33139162
_cell_length_b   7.17385525
_cell_length_c   5.63299382
_cell_angle_alpha   93.71228387
_cell_angle_beta   88.81309473
_cell_angle_gamma   89.74279948
_symmetry_Int_Tables_number   1
_chemical_formula_structural   MgV4O5F7
_chemical_formula_sum   'Mg1 V4 O5 F7'
_cell_volume   214.94119139
_cell_formula_units_Z   1
loop_
 _symmetry_equiv_pos_site_id
 _symmetry_equiv_pos_as_xyz
  1  'x, y, z'
loop_
 _atom_site_type_symbol
 _atom_site_label
 _atom_site_symmetry_multiplicity
 _atom_site_fract_x
 _atom_site_fract_y
 _atom_site_fract_z
 _atom_site_occupancy
  Mg  Mg0  1  0.51512800  0.21117300  0.10551900  1
  V  V0  1  0.48842600  0.51258900  0.50927900  1
  V  V1  1  0.55770100  0.99572600  0.52449600  1
  V  V2  1  0.98338500  0.49682800  0.99449000  1
  V  V3  1  0.01171400  0.99379600  0.98250900  1
  O  O0  1  0.87671000  0.23926400  0.00162700  1
  O  O1  1  0.81359100  0.95684900  0.68230100  1
  O  O2  1  0.56555400  0.25530200  0.46601600  1
  O  O3  1  0.41231300  0.74957400  0.50324500  1
  O  O4  1  0.06899500  0.75720600  0.98643700  1
  F  F0  1  0.79722200  0.55176500  0.30421300  1
  F  F1  1  0.68921700  0.95427100  0.18779200  1
  F  F2  1  0.66542500  0.53852600  0.80907900  1
  F  F3  1  0.31073800  0.44381200  0.17536800  1
  F  F4  1  0.33693400  0.07615600  0.81710400  1
  F  F5  1  0.22571700  0.06057400  0.25846100  1
  F  F6  1  0.18123000  0.44766300  0.69206400  1
loop_
_geom_bond_atom_site_label_1
_geom_bond_atom_site_label_2
_geom_bond_distance
_geom_bond_site_symmetry_2
Mg0 O0 2.017742 1_555
Mg0 O2 2.058223 1_555
O0 V3 1.895113 1_644
O0 V2 1.938367 1_554
O1 V1 1.675726 1_555
O1 V3 2.015974 1_655
O2 V0 1.888390 1_555
O2 V1 1.912452 1_545
O3 V0 1.748716 1_555
O3 V1 1.929290 1_555
O4 V3 1.724802 1_555
O4 V2 1.928017 1_455
F0 V2 2.004987 1_554
F0 V0 2.022641 1_555
F1 V1 2.011804 1_555
F1 V3 2.082840 1_654
F1 Mg0 2.141459 1_565
F2 V0 1.950373 1_555
F2 V2 2.040378 1_555
F3 Mg0 2.002096 1_555
F3 V2 2.084838 1_454
F3 V0 2.153267 1_555
F4 V1 2.055573 1_545
F4 V3 2.058417 1_545
F4 Mg0 2.085330 1_556
F5 V3 1.982283 1_544
F5 Mg0 2.090596 1_555
F5 V1 2.405740 1_545
F6 V0 1.989596 1_555
F6 V2 1.995876 1_455
