# generated using pymatgen
data_Y2MgCr2O8
_symmetry_space_group_name_H-M   'P 1'
_cell_length_a   5.04606392
_cell_length_b   5.14940728
_cell_length_c   7.89629546
_cell_angle_alpha   105.43100438
_cell_angle_beta   105.25056005
_cell_angle_gamma   100.19807994
_symmetry_Int_Tables_number   1
_chemical_formula_structural   Y2MgCr2O8
_chemical_formula_sum   'Y2 Mg1 Cr2 O8'
_cell_volume   183.96253586
_cell_formula_units_Z   1
loop_
 _symmetry_equiv_pos_site_id
 _symmetry_equiv_pos_as_xyz
  1  'x, y, z'
loop_
 _atom_site_type_symbol
 _atom_site_label
 _atom_site_symmetry_multiplicity
 _atom_site_fract_x
 _atom_site_fract_y
 _atom_site_fract_z
 _atom_site_occupancy
  Y  Y0  1  0.40225430  0.15339330  0.80590757  1
  Y  Y1  1  0.57957248  0.82835121  0.15828816  1
  Mg  Mg0  1  0.73513251  0.48126412  0.46537596  1
  Cr  Cr0  1  0.92888188  0.67934637  0.85841071  1
  Cr  Cr1  1  0.06659424  0.31518098  0.13184869  1
  O  O0  1  0.90631381  0.23462025  0.30939598  1
  O  O1  1  0.72696515  0.94990145  0.92958291  1
  O  O2  1  0.40491623  0.56978264  0.30869741  1
  O  O3  1  0.20257316  0.47990576  0.92986666  1
  O  O4  1  0.80358895  0.51588590  0.05180044  1
  O  O5  1  0.24805788  0.03417570  0.05123769  1
  O  O6  1  0.02862518  0.79072357  0.66947785  1
  O  O7  1  0.64152423  0.37996974  0.67010998  1
loop_
_geom_bond_atom_site_label_1
_geom_bond_atom_site_label_2
_geom_bond_distance
_geom_bond_site_symmetry_2
Mg0 O7 1.967725 1_555
Mg0 O6 1.967748 1_655
Mg0 O0 1.997983 1_555
Mg0 O2 1.999861 1_555
Cr0 O7 1.882646 1_555
Cr0 O6 1.885752 1_655
Cr0 O3 1.918619 1_655
Cr0 O1 1.918905 1_555
Cr0 O5 2.106704 1_666
Cr0 O4 2.107991 1_556
Cr1 O2 1.887435 1_555
Cr1 O0 1.891809 1_455
Cr1 O4 1.902893 1_455
Cr1 O5 1.903454 1_555
Cr1 O3 2.196272 1_554
Cr1 O1 2.201332 1_444
O0 Y1 2.221269 1_545
O1 Y0 2.246592 1_565
O1 Y1 2.312917 1_556
O2 Y1 2.221892 1_555
O3 Y0 2.245716 1_555
O3 Y1 2.314235 1_556
O4 Y1 2.235595 1_555
O4 Y0 2.453492 1_554
O5 Y1 2.235388 1_545
O5 Y0 2.447798 1_554
O6 Y0 2.194739 1_565
O7 Y0 2.194741 1_555
