# generated using pymatgen
data_SmTl
_symmetry_space_group_name_H-M   'P 1'
_cell_length_a   4.25183612
_cell_length_b   5.15344420
_cell_length_c   5.15344420
_cell_angle_alpha   90.00000000
_cell_angle_beta   90.00000000
_cell_angle_gamma   90.00000000
_symmetry_Int_Tables_number   1
_chemical_formula_structural   SmTl
_chemical_formula_sum   'Sm2 Tl2'
_cell_volume   112.92020892
_cell_formula_units_Z   2
loop_
 _symmetry_equiv_pos_site_id
 _symmetry_equiv_pos_as_xyz
  1  'x, y, z'
loop_
 _atom_site_type_symbol
 _atom_site_label
 _atom_site_symmetry_multiplicity
 _atom_site_fract_x
 _atom_site_fract_y
 _atom_site_fract_z
 _atom_site_occupancy
  Sm  Sm0  1  0.00000000  0.00000000  0.00000000  1
  Sm  Sm1  1  0.00000000  0.50000000  0.50000000  1
  Tl  Tl0  1  0.50000000  -0.00000000  0.50000000  1
  Tl  Tl1  1  0.50000000  0.50000000  0.00000000  1
loop_
_geom_bond_atom_site_label_1
_geom_bond_atom_site_label_2
_geom_bond_distance
_geom_bond_site_symmetry_2
Sm0 Tl0 3.340513 1_554
Sm0 Tl0 3.340513 1_555
Sm0 Tl1 3.340513 1_555
Sm0 Tl1 3.340513 1_455
Sm0 Tl1 3.340513 1_545
Sm0 Tl1 3.340513 1_445
Sm0 Tl0 3.340513 1_455
Sm0 Tl0 3.340513 1_454
Sm1 Tl0 3.340513 1_555
Sm1 Tl1 3.340513 1_555
Sm1 Tl0 3.340513 1_565
Sm1 Tl0 3.340513 1_465
Sm1 Tl1 3.340513 1_455
Sm1 Tl1 3.340513 1_556
Sm1 Tl0 3.340513 1_455
Sm1 Tl1 3.340513 1_456
