# generated using pymatgen
data_K2RuCl6
_symmetry_space_group_name_H-M   'P 1'
_cell_length_a   6.89013664
_cell_length_b   6.89013599
_cell_length_c   6.89013619
_cell_angle_alpha   59.99999405
_cell_angle_beta   59.99998726
_cell_angle_gamma   60.00000721
_symmetry_Int_Tables_number   1
_chemical_formula_structural   K2RuCl6
_chemical_formula_sum   'K2 Ru1 Cl6'
_cell_volume   231.29614744
_cell_formula_units_Z   1
loop_
 _symmetry_equiv_pos_site_id
 _symmetry_equiv_pos_as_xyz
  1  'x, y, z'
loop_
 _atom_site_type_symbol
 _atom_site_label
 _atom_site_symmetry_multiplicity
 _atom_site_fract_x
 _atom_site_fract_y
 _atom_site_fract_z
 _atom_site_occupancy
  K  K0  1  0.75000000  0.75000000  0.75000000  1
  K  K1  1  0.25000000  0.25000000  0.25000000  1
  Ru  Ru0  1  0.00000000  -0.00000000  0.00000000  1
  Cl  Cl0  1  0.23937809  0.76062191  0.76062191  1
  Cl  Cl1  1  0.23937809  0.76062191  0.23937809  1
  Cl  Cl2  1  0.76062191  0.23937809  0.76062191  1
  Cl  Cl3  1  0.76062191  0.23937809  0.23937809  1
  Cl  Cl4  1  0.76062191  0.76062191  0.23937809  1
  Cl  Cl5  1  0.23937809  0.23937809  0.76062191  1
loop_
_geom_bond_atom_site_label_1
_geom_bond_atom_site_label_2
_geom_bond_distance
_geom_bond_site_symmetry_2
Cl0 Ru0 2.332530 1_566
Cl0 K1 3.446622 1_565
Cl0 K1 3.446622 1_556
Cl0 K0 3.446623 1_555
Cl0 K0 3.446623 1_455
Cl1 Ru0 2.332530 1_565
Cl1 K0 3.446622 1_455
Cl1 K0 3.446622 1_554
Cl1 K1 3.446622 1_555
Cl1 K1 3.446622 1_565
Cl2 Ru0 2.332530 1_656
Cl2 K1 3.446622 1_655
Cl2 K1 3.446622 1_556
Cl2 K0 3.446622 1_555
Cl2 K0 3.446622 1_545
Cl3 Ru0 2.332530 1_655
Cl3 K0 3.446622 1_545
Cl3 K0 3.446622 1_554
Cl3 K1 3.446623 1_555
Cl3 K1 3.446623 1_655
Cl4 Ru0 2.332529 1_665
Cl4 K0 3.446622 1_555
Cl4 K0 3.446623 1_554
Cl4 K1 3.446623 1_655
Cl4 K1 3.446623 1_565
Cl5 Ru0 2.332529 1_556
Cl5 K1 3.446622 1_555
Cl5 K1 3.446623 1_556
Cl5 K0 3.446623 1_455
Cl5 K0 3.446623 1_545
