# generated using pymatgen
data_Na8Hf3MgSi5SO24
_symmetry_space_group_name_H-M   'P 1'
_cell_length_a   9.22742856
_cell_length_b   9.22582063
_cell_length_c   22.45640533
_cell_angle_alpha   89.95353808
_cell_angle_beta   90.14435932
_cell_angle_gamma   119.92853070
_symmetry_Int_Tables_number   1
_chemical_formula_structural   Na8Hf3MgSi5SO24
_chemical_formula_sum   'Na24 Hf9 Mg3 Si15 S3 O72'
_cell_volume   1656.78994038
_cell_formula_units_Z   3
loop_
 _symmetry_equiv_pos_site_id
 _symmetry_equiv_pos_as_xyz
  1  'x, y, z'
loop_
 _atom_site_type_symbol
 _atom_site_label
 _atom_site_symmetry_multiplicity
 _atom_site_fract_x
 _atom_site_fract_y
 _atom_site_fract_z
 _atom_site_occupancy
  Na  Na0  1  0.65000415  0.02718295  0.24523747  1
  Na  Na1  1  0.36281897  0.36115904  0.23712121  1
  Na  Na2  1  0.98441911  0.60814102  0.23960481  1
  Na  Na3  1  0.63258889  0.61462621  0.74536985  1
  Na  Na4  1  0.98472158  0.36504508  0.75308254  1
  Na  Na5  1  0.38533065  0.01508408  0.74564559  1
  Na  Na6  1  0.32670406  0.33652314  0.59267636  1
  Na  Na7  1  0.03185127  0.70738005  0.58268175  1
  Na  Na8  1  0.65517023  0.96432510  0.59610802  1
  Na  Na9  1  0.31120783  0.97244461  0.07667891  1
  Na  Na10  1  0.66561906  0.68989605  0.07610705  1
  Na  Na11  1  0.02608442  0.34398718  0.07932401  1
  Na  Na12  1  0.96575982  0.66481003  0.91382618  1
  Na  Na13  1  0.69923396  0.03454305  0.91308836  1
  Na  Na14  1  0.33497746  0.30047922  0.91330109  1
  Na  Na15  1  0.96440595  0.28393797  0.40824670  1
  Na  Na16  1  0.31618462  0.02742852  0.41958766  1
  Na  Na17  1  0.71459164  0.68274695  0.41959786  1
  Na  Na18  1  0.00114909  0.99170125  0.49332023  1
  Na  Na19  1  0.00088093  0.99933441  0.99397680  1
  Na  Na20  1  0.66645517  0.33263333  0.82479278  1
  Na  Na21  1  0.68501751  0.33097311  0.33333277  1
  Na  Na22  1  0.32471142  0.65765931  0.15865497  1
  Na  Na23  1  0.34518656  0.67683312  0.67224345  1
  Hf  Hf0  1  0.99774600  0.99667699  0.85176255  1
  Hf  Hf1  1  0.00187396  0.99342911  0.64940529  1
  Hf  Hf2  1  0.00342239  0.01331705  0.14402800  1
  Hf  Hf3  1  0.66957953  0.33508291  0.98234603  1
  Hf  Hf4  1  0.65785481  0.33573128  0.47889782  1
  Hf  Hf5  1  0.33368338  0.66556069  0.01789072  1
  Hf  Hf6  1  0.33879875  0.67304242  0.51727575  1
  Hf  Hf7  1  0.32715388  0.65993966  0.31767732  1
  Hf  Hf8  1  0.33468731  0.66741738  0.81330048  1
  Mg  Mg0  1  0.99747677  0.00791836  0.35714255  1
  Mg  Mg1  1  0.65234247  0.32964874  0.68839498  1
  Mg  Mg2  1  0.67831071  0.33178600  0.17643715  1
  Si  Si0  1  -0.00148820  0.29830556  0.25379205  1
  Si  Si1  1  0.29287075  0.29548475  0.75002845  1
  Si  Si2  1  0.00026315  0.70060070  0.75031098  1
  Si  Si3  1  0.70470237  0.00007122  0.74927832  1
  Si  Si4  1  0.37144887  0.03740056  0.58471894  1
  Si  Si5  1  0.66618146  0.62958033  0.58506580  1
  Si  Si6  1  0.96484848  0.63079153  0.08691651  1
  Si  Si7  1  0.66187462  0.03628918  0.08714445  1
  Si  Si8  1  0.37966856  0.33751691  0.08783717  1
  Si  Si9  1  0.62855380  0.66541857  0.91699608  1
  Si  Si10  1  0.03786364  0.37079913  0.91645940  1
  Si  Si11  1  0.33471396  0.96269770  0.91696791  1
  Si  Si12  1  0.62912427  0.96420789  0.41456745  1
  Si  Si13  1  0.33117664  0.36955100  0.41752329  1
  Si  Si14  1  0.03420117  0.66411482  0.41674374  1
  S  S0  1  0.28977774  0.99632266  0.25284449  1
  S  S1  1  0.70726347  0.71100172  0.25224995  1
  S  S2  1  0.95902367  0.33348505  0.58298485  1
  O  O0  1  0.20169830  0.00233016  0.30604577  1
  O  O1  1  0.80537948  0.79266378  0.30574727  1
  O  O2  1  0.98075091  0.18835121  0.31186430  1
  O  O3  1  0.19160690  0.17944594  0.80782509  1
  O  O4  1  0.97803418  0.79582069  0.80848387  1
  O  O5  1  0.81808654  0.01627256  0.80815922  1
  O  O6  1  0.79809524  0.97644217  0.68982784  1
  O  O7  1  0.17728754  0.20429397  0.68976859  1
  O  O8  1  0.02642058  0.82060519  0.69115548  1
  O  O9  1  0.79385237  0.81008279  0.19763565  1
  O  O10  1  0.02329960  0.20179603  0.19460842  1
  O  O11  1  0.18830638  0.97864477  0.19790524  1
  O  O12  1  0.88226367  0.35497566  0.63650036  1
  O  O13  1  0.48868678  0.11827441  0.64213312  1
  O  O14  1  0.63734472  0.51444210  0.64256904  1
  O  O15  1  0.88776514  0.51927922  0.14601275  1
  O  O16  1  0.62920151  0.11146644  0.14703472  1
  O  O17  1  0.48709439  0.36238366  0.14772022  1
  O  O18  1  0.46845000  0.30793731  0.02964160  1
  O  O19  1  0.84287320  0.54162262  0.02899748  1
  O  O20  1  0.69711432  0.15971426  0.02972534  1
  O  O21  1  0.46513958  0.15282159  0.52466275  1
  O  O22  1  0.69421835  0.53980465  0.52497978  1
  O  O23  1  0.85898537  0.31753963  0.52851051  1
  O  O24  1  0.53863307  0.69013834  0.97621118  1
  O  O25  1  0.15233399  0.46040986  0.97599622  1
  O  O26  1  0.30923188  0.84628492  0.97592623  1
  O  O27  1  0.52708508  0.84533710  0.47198788  1
  O  O28  1  0.30936383  0.46639319  0.47488535  1
  O  O29  1  0.15081450  0.68850203  0.47531593  1
  O  O30  1  0.12842471  0.63499858  0.35836954  1
  O  O31  1  0.50914732  0.87454427  0.35520758  1
  O  O32  1  0.36160783  0.49215379  0.35884326  1
  O  O33  1  0.12962703  0.49001919  0.85893350  1
  O  O34  1  0.36195073  0.87090028  0.85946852  1
  O  O35  1  0.51061902  0.63908443  0.85918522  1
  O  O36  1  0.01315739  0.82695489  0.40988059  1
  O  O37  1  0.80973964  0.97658547  0.41363585  1
  O  O38  1  0.17344482  0.18316845  0.41334870  1
  O  O39  1  0.01790050  0.18430728  0.91291483  1
  O  O40  1  0.16700564  0.98107566  0.91337332  1
  O  O41  1  0.81455394  0.83261489  0.91413460  1
  O  O42  1  0.97546569  0.18041695  0.58403986  1
  O  O43  1  0.18555848  0.02582905  0.58577220  1
  O  O44  1  0.83299103  0.82028149  0.58575944  1
  O  O45  1  0.98615524  0.81973637  0.09262185  1
  O  O46  1  0.83116357  0.01437602  0.09081733  1
  O  O47  1  0.18943258  0.16635322  0.09031383  1
  O  O48  1  0.68862180  0.16670532  0.74609682  1
  O  O49  1  0.47514935  0.31229223  0.74908103  1
  O  O50  1  0.83709712  0.51599540  0.74516536  1
  O  O51  1  0.67970489  0.53851266  0.24944757  1
  O  O52  1  0.83288650  0.32065144  0.24817771  1
  O  O53  1  0.45733382  0.14832761  0.25052369  1
  O  O54  1  0.64694728  0.49810668  0.92274233  1
  O  O55  1  0.85268585  0.35387321  0.92215102  1
  O  O56  1  0.50178551  0.14835828  0.92326156  1
  O  O57  1  0.64707997  0.15024421  0.42082273  1
  O  O58  1  0.50653150  0.36269391  0.42038336  1
  O  O59  1  0.85282498  0.49064555  0.42066031  1
  O  O60  1  0.34873046  0.49732291  0.07988148  1
  O  O61  1  0.15327976  0.65624547  0.07829575  1
  O  O62  1  0.50301369  0.84686995  0.07832335  1
  O  O63  1  0.33680683  0.84269637  0.57821236  1
  O  O64  1  0.49725391  0.65121504  0.57867513  1
  O  O65  1  0.13098708  0.48369951  0.57811791  1
  O  O66  1  0.30858174  0.84321980  0.25180760  1
  O  O67  1  0.53941167  0.70265580  0.25193526  1
  O  O68  1  0.17645030  0.48911847  0.25200740  1
  O  O69  1  0.30435745  0.47941841  0.75302465  1
  O  O70  1  0.17395540  0.69343702  0.75332988  1
  O  O71  1  0.52108786  0.82815361  0.75282367  1
loop_
_geom_bond_atom_site_label_1
_geom_bond_atom_site_label_2
_geom_bond_distance
_geom_bond_site_symmetry_2
Na0 O52 2.371338 1_555
Na0 O16 2.376714 1_555
Na0 O53 2.531408 1_555
Na0 O67 2.641876 1_545
Na0 O66 2.737544 1_545
Na0 O31 2.820492 1_545
Na1 O17 2.311783 1_555
Na1 O53 2.532426 1_555
Na1 O68 2.547959 1_555
Na1 O51 2.554699 1_555
Na1 O67 2.751059 1_555
Na1 O10 2.877341 1_555
Na1 O32 2.991882 1_555
Na2 O15 2.269055 1_555
Na2 O52 2.308015 1_555
Na2 O68 2.522248 1_655
Na2 O51 2.562798 1_555
Na2 O66 2.692499 1_655
Na2 O30 2.931693 1_655
Na3 O49 2.419581 1_555
Na3 O50 2.470347 1_555
Na3 O14 2.495998 1_555
Na3 O69 2.644083 1_555
Na3 O71 2.644089 1_555
Na3 O35 2.849382 1_555
Na4 O50 2.391225 1_555
Na4 O48 2.418184 1_555
Na4 O69 2.589795 1_655
Na4 O70 2.636131 1_655
Na4 O33 2.686561 1_655
Na4 O12 2.767083 1_555
Na5 O48 2.425398 1_555
Na5 O49 2.437979 1_555
Na5 O13 2.514136 1_555
Na5 O71 2.593000 1_545
Na5 O70 2.620179 1_545
Na5 O34 2.839072 1_545
Na6 O43 2.492215 1_555
Na6 O64 2.538991 1_555
Na6 O7 2.544706 1_555
Na6 O14 2.730916 1_555
Na6 O65 2.766814 1_555
Na6 O42 2.820583 1_455
Na6 O28 2.939744 1_555
Na6 O21 3.001860 1_555
Na7 O63 2.445975 1_555
Na7 O44 2.522851 1_455
Na7 O43 2.547528 1_565
Na7 O65 2.643934 1_555
Na7 O8 2.661657 1_555
Na7 O29 2.693193 1_555
Na8 O6 2.453666 1_555
Na8 O64 2.533753 1_555
Na8 O44 2.586618 1_555
Na8 O63 2.599244 1_555
Na8 O42 2.628063 1_565
Na8 O13 2.762795 1_565
Na9 O61 2.528464 1_555
Na9 O26 2.541072 1_554
Na9 O62 2.553749 1_555
Na9 O47 2.562281 1_565
Na9 O45 2.626301 1_455
Na9 O18 2.884856 1_565
Na9 O11 2.963254 1_555
Na9 O16 2.995956 1_565
Na10 O24 2.528790 1_554
Na10 O62 2.553395 1_555
Na10 O60 2.555587 1_555
Na10 O45 2.603928 1_555
Na10 O46 2.615381 1_565
Na10 O19 2.812343 1_555
Na10 O9 2.959223 1_555
Na11 O61 2.510666 1_555
Na11 O25 2.579910 1_554
Na11 O60 2.581149 1_555
Na11 O46 2.663142 1_455
Na11 O47 2.735111 1_555
Na11 O20 2.860402 1_455
Na11 O10 2.895689 1_555
Na11 O15 2.925811 1_455
Na12 O55 2.523137 1_555
Na12 O41 2.549294 1_555
Na12 O54 2.558821 1_555
Na12 O40 2.560378 1_655
Na12 O4 2.632482 1_555
Na12 O19 2.826772 1_556
Na13 O56 2.526995 1_555
Na13 O39 2.549798 1_655
Na13 O55 2.561789 1_555
Na13 O41 2.565418 1_545
Na13 O5 2.642271 1_555
Na13 O20 2.867424 1_556
Na13 O34 2.951416 1_545
Na14 O54 2.533051 1_555
Na14 O40 2.555051 1_545
Na14 O56 2.557756 1_555
Na14 O39 2.565145 1_555
Na14 O3 2.668673 1_555
Na14 O18 2.871713 1_556
Na14 O35 2.968856 1_555
Na15 O2 2.371188 1_555
Na15 O37 2.460523 1_545
Na15 O38 2.527083 1_655
Na15 O57 2.564115 1_555
Na15 O59 2.595418 1_555
Na16 O38 2.388733 1_555
Na16 O36 2.474667 1_545
Na16 O57 2.674849 1_555
Na16 O21 2.682666 1_555
Na16 O58 2.689141 1_555
Na16 O0 2.722887 1_555
Na17 O36 2.398501 1_655
Na17 O37 2.400583 1_555
Na17 O58 2.597765 1_555
Na17 O59 2.650304 1_555
Na17 O22 2.669192 1_555
Na17 O1 2.725001 1_555
Na18 O36 2.450940 1_555
Na18 O37 2.465708 1_455
Na18 O38 2.465772 1_565
Na18 O43 2.598781 1_565
Na18 O44 2.603883 1_455
Na18 O42 2.767253 1_465
Na19 O41 2.426262 1_455
Na19 O40 2.434470 1_555
Na19 O39 2.445319 1_565
Na19 O47 2.718998 1_566
Na19 O46 2.726824 1_466
Na19 O45 2.728000 1_456
Na20 O49 2.386823 1_555
Na20 O48 2.413917 1_555
Na20 O50 2.426909 1_555
Na20 O55 2.723442 1_555
Na20 O54 2.735482 1_555
Na20 O56 2.742614 1_555
Na21 O52 2.381321 1_555
Na21 O59 2.475230 1_555
Na21 O57 2.485656 1_555
Na21 O58 2.667893 1_555
Na21 O53 2.676618 1_555
Na21 O51 2.702677 1_555
Na22 O60 2.387440 1_555
Na22 O61 2.392502 1_555
Na22 O62 2.480407 1_555
Na22 O68 2.563328 1_555
Na22 O66 2.755082 1_555
Na22 O67 2.764959 1_555
Na23 O71 2.363505 1_555
Na23 O69 2.462379 1_555
Na23 O70 2.468221 1_555
Na23 O64 2.605085 1_555
Na23 O63 2.630290 1_555
Na23 O65 2.831990 1_555
Hf0 O3 2.003275 1_665
Hf0 O5 2.007570 1_565
Hf0 O4 2.019206 1_555
Hf0 O41 2.136748 1_555
Hf0 O40 2.141814 1_655
Hf0 O39 2.144359 1_665
Hf1 O8 1.956895 1_555
Hf1 O7 2.019779 1_565
Hf1 O6 2.024503 1_455
Hf1 O43 2.123694 1_565
Hf1 O44 2.128738 1_455
Hf1 O42 2.367196 1_465
Hf2 O46 1.990067 1_455
Hf2 O47 1.995989 1_555
Hf2 O10 2.007833 1_555
Hf2 O45 2.065449 1_445
Hf2 O11 2.238328 1_545
Hf2 O9 2.257088 1_445
Hf3 O18 2.044715 1_556
Hf3 O20 2.054332 1_556
Hf3 O19 2.059078 1_556
Hf3 O54 2.099047 1_555
Hf3 O55 2.104977 1_555
Hf3 O56 2.111218 1_555
Hf4 O58 2.018681 1_555
Hf4 O21 2.019438 1_555
Hf4 O22 2.024657 1_555
Hf4 O59 2.105419 1_555
Hf4 O57 2.114793 1_555
Hf4 O23 2.239187 1_555
Hf5 O24 2.021045 1_554
Hf5 O26 2.022552 1_554
Hf5 O25 2.025387 1_554
Hf5 O62 2.113321 1_555
Hf5 O61 2.118244 1_555
Hf5 O60 2.139361 1_555
Hf6 O27 1.957064 1_555
Hf6 O28 2.024763 1_555
Hf6 O29 2.038504 1_555
Hf6 O63 2.086876 1_555
Hf6 O64 2.088706 1_555
Hf6 O65 2.293943 1_555
Hf7 O30 1.959009 1_555
Hf7 O32 1.959366 1_555
Hf7 O31 2.031827 1_555
Hf7 O68 2.097343 1_555
Hf7 O66 2.315250 1_555
Hf7 O67 2.326882 1_555
Hf8 O35 2.044516 1_555
Hf8 O34 2.047684 1_555
Hf8 O33 2.055720 1_555
Hf8 O70 2.101351 1_555
Hf8 O69 2.106260 1_555
Hf8 O71 2.113116 1_555
Mg0 O2 2.020279 1_555
Mg0 O37 2.050553 1_545
Mg0 O38 2.053562 1_655
Mg0 O36 2.108992 1_645
Mg0 O1 2.213308 1_545
Mg0 O0 2.231221 1_655
Mg1 O14 2.053441 1_555
Mg1 O13 2.054137 1_555
Mg1 O49 2.075044 1_555
Mg1 O48 2.132555 1_555
Mg1 O50 2.134320 1_555
Mg1 O12 2.330481 1_555
Mg2 O16 1.963277 1_555
Mg2 O15 1.965485 1_555
Mg2 O17 2.024787 1_555
Mg2 O52 2.185127 1_555
Mg2 O51 2.511230 1_555
Mg2 O53 2.521746 1_555
O0 S0 1.463184 1_545
O1 S1 1.464892 1_555
O2 Si0 1.609225 1_655
O3 Si1 1.646039 1_555
O4 Si2 1.644195 1_655
O5 Si3 1.643967 1_555
O6 Si3 1.663205 1_565
O7 Si1 1.666052 1_555
O8 Si2 1.667722 1_555
O9 S1 1.500823 1_555
O10 Si0 1.678730 1_555
O11 S0 1.505833 1_555
O12 S2 1.459466 1_555
O13 Si4 1.605757 1_555
O14 Si5 1.607523 1_555
O15 Si6 1.611789 1_555
O16 Si7 1.610266 1_555
O17 Si8 1.615696 1_555
O18 Si8 1.637848 1_555
O19 Si6 1.644901 1_555
O20 Si7 1.641722 1_555
O21 Si4 1.668864 1_555
O22 Si5 1.670621 1_555
O23 S2 1.493086 1_555
O24 Si9 1.644264 1_555
O25 Si10 1.646215 1_555
O26 Si11 1.645904 1_555
O27 Si12 1.650881 1_555
O28 Si13 1.637283 1_555
O29 Si14 1.640221 1_555
O30 Si14 1.669083 1_555
O31 Si12 1.663540 1_555
O32 Si13 1.666500 1_555
O33 Si10 1.633847 1_555
O34 Si11 1.632019 1_555
O35 Si9 1.630411 1_555
O36 Si14 1.615249 1_555
O37 Si12 1.612871 1_555
O38 Si13 1.608171 1_555
O39 Si10 1.638421 1_555
O40 Si11 1.640499 1_555
O41 Si9 1.639476 1_555
O42 S2 1.493836 1_555
O43 Si4 1.664829 1_555
O44 Si5 1.662094 1_555
O45 Si6 1.658907 1_555
O46 Si7 1.674002 1_555
O47 Si8 1.677046 1_555
O48 Si3 1.617997 1_555
O49 Si1 1.610411 1_555
O50 Si2 1.619136 1_655
O51 S1 1.482334 1_555
O52 Si0 1.645437 1_655
O53 S0 1.482084 1_545
O54 Si9 1.639851 1_555
O55 Si10 1.641721 1_655
O56 Si11 1.641624 1_545
O57 Si12 1.646061 1_545
O58 Si13 1.651637 1_555
O59 Si14 1.642523 1_655
O60 Si8 1.645114 1_555
O61 Si6 1.646214 1_455
O62 Si7 1.638568 1_565
O63 Si4 1.666576 1_565
O64 Si5 1.673162 1_555
O65 S2 1.502245 1_455
O66 S0 1.506796 1_555
O67 S1 1.511897 1_555
O68 Si0 1.706618 1_555
O69 Si1 1.648041 1_555
O70 Si2 1.637943 1_555
O71 Si3 1.646697 1_565
