# generated using pymatgen
data_AsCF3
_symmetry_space_group_name_H-M   'P 1'
_cell_length_a   10.71354800
_cell_length_b   10.71354800
_cell_length_c   6.48727700
_cell_angle_alpha   90.00000000
_cell_angle_beta   90.00000000
_cell_angle_gamma   90.00000000
_symmetry_Int_Tables_number   1
_chemical_formula_structural   AsCF3
_chemical_formula_sum   'As8 C8 F24'
_cell_volume   744.61037251
_cell_formula_units_Z   8
loop_
 _symmetry_equiv_pos_site_id
 _symmetry_equiv_pos_as_xyz
  1  'x, y, z'
loop_
 _atom_site_type_symbol
 _atom_site_label
 _atom_site_symmetry_multiplicity
 _atom_site_fract_x
 _atom_site_fract_y
 _atom_site_fract_z
 _atom_site_occupancy
  As  As0  1  0.50000000  0.65547800  0.06545400  1
  As  As1  1  0.50000000  0.34452200  0.06545400  1
  As  As2  1  0.84452200  0.00000000  0.56545400  1
  As  As3  1  0.15547800  0.00000000  0.56545400  1
  As  As4  1  0.65547800  0.50000000  0.93454600  1
  As  As5  1  0.00000000  0.84452200  0.43454600  1
  As  As6  1  0.00000000  0.15547800  0.43454600  1
  As  As7  1  0.34452200  0.50000000  0.93454600  1
  C  C0  1  0.50000000  0.76099600  0.80107100  1
  C  C1  1  0.50000000  0.23900400  0.80107100  1
  C  C2  1  0.73900400  0.00000000  0.30107100  1
  C  C3  1  0.26099600  0.00000000  0.30107100  1
  C  C4  1  0.76099600  0.50000000  0.19892900  1
  C  C5  1  0.00000000  0.73900400  0.69892900  1
  C  C6  1  0.00000000  0.26099600  0.69892900  1
  C  C7  1  0.23900400  0.50000000  0.19892900  1
  F  F0  1  0.33662100  0.89716800  0.29869400  1
  F  F1  1  0.39716800  0.16337900  0.79869400  1
  F  F2  1  0.60283200  0.83662100  0.79869400  1
  F  F3  1  0.66337900  0.10283200  0.29869400  1
  F  F4  1  0.16337900  0.39716800  0.20130600  1
  F  F5  1  0.83662100  0.60283200  0.20130600  1
  F  F6  1  0.89716800  0.33662100  0.70130600  1
  F  F7  1  0.10283200  0.66337900  0.70130600  1
  F  F8  1  0.30397300  0.50000000  0.38006000  1
  F  F9  1  0.00000000  0.19602700  0.88006000  1
  F  F10  1  0.00000000  0.80397300  0.88006000  1
  F  F11  1  0.69602700  0.50000000  0.38006000  1
  F  F12  1  0.19602700  0.00000000  0.11994000  1
  F  F13  1  0.80397300  0.00000000  0.11994000  1
  F  F14  1  0.50000000  0.30397300  0.61994000  1
  F  F15  1  0.50000000  0.69602700  0.61994000  1
  F  F16  1  0.16337900  0.60283200  0.20130600  1
  F  F17  1  0.10283200  0.33662100  0.70130600  1
  F  F18  1  0.89716800  0.66337900  0.70130600  1
  F  F19  1  0.83662100  0.39716800  0.20130600  1
  F  F20  1  0.33662100  0.10283200  0.29869400  1
  F  F21  1  0.66337900  0.89716800  0.29869400  1
  F  F22  1  0.60283200  0.16337900  0.79869400  1
  F  F23  1  0.39716800  0.83662100  0.79869400  1
loop_
_geom_bond_atom_site_label_1
_geom_bond_atom_site_label_2
_geom_bond_distance
_geom_bond_site_symmetry_2
As0 C0 2.054172 1_554
As1 C1 2.054172 1_554
As2 C2 2.054172 1_555
As3 C3 2.054172 1_555
As4 C4 2.054172 1_556
As5 C5 2.054172 1_555
As6 C6 2.054172 1_555
As7 C7 2.054172 1_556
C0 F15 1.365730 1_555
C0 F23 1.367631 1_555
C0 F2 1.367631 1_555
C1 F14 1.365730 1_555
C1 F1 1.367631 1_555
C1 F22 1.367631 1_555
C2 F13 1.365730 1_555
C2 F3 1.367631 1_555
C2 F21 1.367631 1_545
C3 F12 1.365730 1_555
C3 F20 1.367631 1_555
C3 F0 1.367631 1_545
C4 F11 1.365730 1_555
C4 F19 1.367631 1_555
C4 F5 1.367631 1_555
C5 F10 1.365730 1_555
C5 F7 1.367631 1_555
C5 F18 1.367631 1_455
C6 F9 1.365730 1_555
C6 F17 1.367631 1_555
C6 F6 1.367631 1_455
C7 F8 1.365730 1_555
C7 F4 1.367631 1_555
C7 F16 1.367631 1_555
