# generated using pymatgen
data_NaNi4(PO4)3
_symmetry_space_group_name_H-M   'P 1'
_cell_length_a   9.55469800
_cell_length_b   16.14137800
_cell_length_c   6.15599100
_cell_angle_alpha   90.00000000
_cell_angle_beta   90.00000000
_cell_angle_gamma   90.00000000
_symmetry_Int_Tables_number   1
_chemical_formula_structural   NaNi4(PO4)3
_chemical_formula_sum   'Na4 Ni16 P12 O48'
_cell_volume   949.41381930
_cell_formula_units_Z   4
loop_
 _symmetry_equiv_pos_site_id
 _symmetry_equiv_pos_as_xyz
  1  'x, y, z'
loop_
 _atom_site_type_symbol
 _atom_site_label
 _atom_site_symmetry_multiplicity
 _atom_site_fract_x
 _atom_site_fract_y
 _atom_site_fract_z
 _atom_site_occupancy
  Na  Na0  1  0.72106900  0.46493000  0.00000000  1
  Na  Na1  1  0.22106900  0.03507000  0.50000000  1
  Na  Na2  1  0.27893100  0.53507000  0.00000000  1
  Na  Na3  1  0.77893100  0.96493000  0.50000000  1
  Ni  Ni0  1  0.75227900  0.70353700  0.75011100  1
  Ni  Ni1  1  0.74772100  0.20353700  0.25011100  1
  Ni  Ni2  1  0.75227900  0.70353700  0.24988900  1
  Ni  Ni3  1  0.24772100  0.29646300  0.24988900  1
  Ni  Ni4  1  0.99355500  0.85851000  0.00000000  1
  Ni  Ni5  1  0.00644500  0.14149000  0.00000000  1
  Ni  Ni6  1  0.49355500  0.64149000  0.50000000  1
  Ni  Ni7  1  0.50644500  0.35851000  0.50000000  1
  Ni  Ni8  1  0.53457700  0.90711300  0.00000000  1
  Ni  Ni9  1  0.46542300  0.09288700  0.00000000  1
  Ni  Ni10  1  0.03457700  0.59288700  0.50000000  1
  Ni  Ni11  1  0.96542300  0.40711300  0.50000000  1
  Ni  Ni12  1  0.24772100  0.29646300  0.75011100  1
  Ni  Ni13  1  0.25227900  0.79646300  0.74988900  1
  Ni  Ni14  1  0.74772100  0.20353700  0.74988900  1
  Ni  Ni15  1  0.25227900  0.79646300  0.25011100  1
  P  P0  1  0.95562000  0.78246700  0.50000000  1
  P  P1  1  0.04438000  0.21753300  0.50000000  1
  P  P2  1  0.45562000  0.71753300  0.00000000  1
  P  P3  1  0.29333600  0.46507800  0.50000000  1
  P  P4  1  0.54331200  0.84005500  0.50000000  1
  P  P5  1  0.45668800  0.15994500  0.50000000  1
  P  P6  1  0.04331200  0.65994500  0.00000000  1
  P  P7  1  0.95668800  0.34005500  0.00000000  1
  P  P8  1  0.70666400  0.53492200  0.50000000  1
  P  P9  1  0.79333600  0.03492200  0.00000000  1
  P  P10  1  0.54438000  0.28246700  0.00000000  1
  P  P11  1  0.20666400  0.96507800  0.00000000  1
  O  O0  1  0.36716500  0.97986200  0.00000000  1
  O  O1  1  0.63283500  0.02013800  0.00000000  1
  O  O2  1  0.86716500  0.52013800  0.50000000  1
  O  O3  1  0.13283500  0.47986200  0.50000000  1
  O  O4  1  0.10627900  0.17971600  0.29053900  1
  O  O5  1  0.89372100  0.82028400  0.29053900  1
  O  O6  1  0.60627900  0.32028400  0.20946100  1
  O  O7  1  0.39372100  0.67971600  0.20946100  1
  O  O8  1  0.89372100  0.82028400  0.70946100  1
  O  O9  1  0.10627900  0.17971600  0.70946100  1
  O  O10  1  0.39372100  0.67971600  0.79053900  1
  O  O11  1  0.60627900  0.32028400  0.79053900  1
  O  O12  1  0.83912400  0.08850900  0.79713200  1
  O  O13  1  0.16087600  0.91149100  0.79713200  1
  O  O14  1  0.33912400  0.41149100  0.70286800  1
  O  O15  1  0.66087600  0.58850900  0.70286800  1
  O  O16  1  0.16087600  0.91149100  0.20286800  1
  O  O17  1  0.83912400  0.08850900  0.20286800  1
  O  O18  1  0.66087600  0.58850900  0.29713200  1
  O  O19  1  0.40617000  0.11278800  0.70022900  1
  O  O20  1  0.86314800  0.95144200  0.00000000  1
  O  O21  1  0.13685200  0.04855800  0.00000000  1
  O  O22  1  0.36314800  0.54855800  0.50000000  1
  O  O23  1  0.63685200  0.45144200  0.50000000  1
  O  O24  1  0.61456100  0.74867700  0.50000000  1
  O  O25  1  0.38543900  0.25132300  0.50000000  1
  O  O26  1  0.11456100  0.75132300  0.00000000  1
  O  O27  1  0.88543900  0.24867700  0.00000000  1
  O  O28  1  0.39393400  0.81017100  0.00000000  1
  O  O29  1  0.60606600  0.18982900  0.00000000  1
  O  O30  1  0.89393400  0.68982900  0.50000000  1
  O  O31  1  0.10606600  0.31017100  0.50000000  1
  O  O32  1  0.11927300  0.32940800  0.00000000  1
  O  O33  1  0.88072700  0.67059200  0.00000000  1
  O  O34  1  0.61927300  0.17059200  0.50000000  1
  O  O35  1  0.38072700  0.82940800  0.50000000  1
  O  O36  1  0.38278000  0.27627500  0.00000000  1
  O  O37  1  0.61722000  0.72372500  0.00000000  1
  O  O38  1  0.88278000  0.22372500  0.50000000  1
  O  O39  1  0.11722000  0.77627500  0.50000000  1
  O  O40  1  0.90617000  0.38721200  0.20022900  1
  O  O41  1  0.09383000  0.61278800  0.20022900  1
  O  O42  1  0.40617000  0.11278800  0.29977100  1
  O  O43  1  0.59383000  0.88721200  0.29977100  1
  O  O44  1  0.09383000  0.61278800  0.79977100  1
  O  O45  1  0.90617000  0.38721200  0.79977100  1
  O  O46  1  0.59383000  0.88721200  0.70022900  1
  O  O47  1  0.33912400  0.41149100  0.29713200  1
loop_
_geom_bond_atom_site_label_1
_geom_bond_atom_site_label_2
_geom_bond_distance
_geom_bond_site_symmetry_2
Na0 O45 2.494177 1_554
Na0 O40 2.494177 1_555
Na0 O15 2.766857 1_554
Na0 O18 2.766857 1_555
Na0 O6 2.883889 1_555
Na0 O11 2.883889 1_554
Na1 O19 2.494177 1_555
Na1 O42 2.494177 1_555
Na1 O13 2.766857 1_545
Na1 O16 2.766857 1_545
Na1 O9 2.883889 1_555
Na1 O4 2.883889 1_555
Na2 O44 2.494177 1_554
Na2 O41 2.494177 1_555
Na2 O14 2.766857 1_554
Na2 O47 2.766857 1_555
Na2 O10 2.883889 1_554
Na2 O7 2.883889 1_555
Na3 O43 2.494177 1_555
Na3 O46 2.494177 1_555
Na3 O12 2.766857 1_565
Na3 O17 2.766857 1_565
Na3 O5 2.883889 1_555
Na3 O8 2.883889 1_555
Ni0 O37 2.034171 1_556
Ni0 O33 2.038485 1_556
Ni0 O30 2.061907 1_555
Ni0 O15 2.072355 1_555
Ni0 O24 2.152436 1_555
Ni0 O8 2.332419 1_555
Ni1 O38 2.034171 1_555
Ni1 O34 2.038485 1_555
Ni1 O29 2.061907 1_555
Ni1 O17 2.072355 1_555
Ni1 O27 2.152436 1_555
Ni1 O6 2.332419 1_555
Ni2 O37 2.034171 1_555
Ni2 O33 2.038485 1_555
Ni2 O30 2.061907 1_555
Ni2 O18 2.072355 1_555
Ni2 O24 2.152436 1_555
Ni2 O5 2.332419 1_555
Ni3 O36 2.034171 1_555
Ni3 O32 2.038485 1_555
Ni3 O31 2.061907 1_555
Ni3 O47 2.072355 1_555
Ni3 O25 2.152436 1_555
Ni3 O4 2.332419 1_555
Ni4 O20 1.950043 1_555
Ni4 O26 2.080901 1_655
Ni4 O8 2.118853 1_554
Ni4 O5 2.118853 1_555
Ni4 O16 2.201551 1_655
Ni4 O13 2.201551 1_654
Ni5 O21 1.950043 1_555
Ni5 O27 2.080901 1_455
Ni5 O9 2.118853 1_554
Ni5 O4 2.118853 1_555
Ni5 O12 2.201551 1_454
Ni5 O17 2.201551 1_455
Ni6 O22 1.950043 1_555
Ni6 O24 2.080901 1_555
Ni6 O10 2.118853 1_555
Ni6 O7 2.118853 1_555
Ni6 O15 2.201551 1_555
Ni6 O18 2.201551 1_555
Ni7 O23 1.950043 1_555
Ni7 O25 2.080901 1_555
Ni7 O6 2.118853 1_555
Ni7 O11 2.118853 1_555
Ni7 O47 2.201551 1_555
Ni7 O14 2.201551 1_555
Ni8 O46 1.956825 1_554
Ni8 O43 1.956825 1_555
Ni8 O0 1.984322 1_555
Ni8 O1 2.051768 1_565
Ni8 O28 2.062603 1_555
Ni9 O42 1.956825 1_555
Ni9 O19 1.956825 1_554
Ni9 O1 1.984322 1_555
Ni9 O0 2.051768 1_545
Ni9 O29 2.062603 1_555
Ni10 O41 1.956825 1_555
Ni10 O44 1.956825 1_555
Ni10 O2 1.984322 1_455
Ni10 O3 2.051768 1_555
Ni10 O30 2.062603 1_455
Ni11 O40 1.956825 1_555
Ni11 O45 1.956825 1_555
Ni11 O3 1.984322 1_655
Ni11 O2 2.051768 1_555
Ni11 O31 2.062603 1_655
Ni12 O36 2.034171 1_556
Ni12 O32 2.038485 1_556
Ni12 O31 2.061907 1_555
Ni12 O14 2.072355 1_555
Ni12 O25 2.152436 1_555
Ni12 O9 2.332419 1_555
Ni13 O39 2.034171 1_555
Ni13 O35 2.038485 1_555
Ni13 O28 2.061907 1_556
Ni13 O13 2.072355 1_555
Ni13 O26 2.152436 1_556
Ni13 O10 2.332419 1_555
Ni14 O38 2.034171 1_555
Ni14 O34 2.038485 1_555
Ni14 O29 2.061907 1_556
Ni14 O12 2.072355 1_555
Ni14 O27 2.152436 1_556
Ni14 O11 2.332419 1_555
Ni15 O39 2.034171 1_555
Ni15 O35 2.038485 1_555
Ni15 O28 2.061907 1_555
Ni15 O16 2.072355 1_555
Ni15 O26 2.152436 1_555
Ni15 O7 2.332419 1_555
O0 P11 1.551994 1_555
O1 P9 1.551994 1_555
O2 P8 1.551994 1_555
O3 P3 1.551994 1_555
O4 P1 1.544361 1_555
O5 P0 1.544361 1_555
O6 P10 1.544361 1_555
O7 P2 1.544361 1_555
O8 P0 1.544361 1_555
O9 P1 1.544361 1_555
O10 P2 1.544361 1_556
O11 P10 1.544361 1_556
O12 P9 1.580887 1_556
O13 P11 1.580887 1_556
O14 P3 1.580887 1_555
O15 P8 1.580887 1_555
O16 P11 1.580887 1_555
O17 P9 1.580887 1_555
O18 P8 1.580887 1_555
O19 P5 1.526990 1_555
O20 P9 1.503543 1_565
O21 P11 1.503543 1_545
O22 P3 1.503543 1_555
O23 P8 1.503543 1_555
O24 P4 1.624489 1_555
O25 P5 1.624489 1_555
O26 P6 1.624489 1_555
O27 P7 1.624489 1_555
O28 P2 1.607271 1_555
O29 P10 1.607271 1_555
O30 P0 1.607271 1_555
O31 P1 1.607271 1_555
O32 P7 1.562928 1_455
O33 P6 1.562928 1_655
O34 P5 1.562928 1_555
O35 P4 1.562928 1_555
O36 P10 1.547271 1_555
O37 P2 1.547271 1_555
O38 P1 1.547271 1_655
O39 P0 1.547271 1_455
O40 P7 1.526990 1_555
O41 P6 1.526990 1_555
O42 P5 1.526990 1_555
O43 P4 1.526990 1_555
O44 P6 1.526990 1_556
O45 P7 1.526990 1_556
O46 P4 1.526990 1_555
O47 P3 1.580887 1_555
