# generated using pymatgen
data_Na10TaIn7(PO4)12
_symmetry_space_group_name_H-M   'P 1'
_cell_length_a   18.05704715
_cell_length_b   9.03867804
_cell_length_c   22.81950779
_cell_angle_alpha   89.98846261
_cell_angle_beta   89.98984504
_cell_angle_gamma   120.11053336
_symmetry_Int_Tables_number   1
_chemical_formula_structural   Na10TaIn7(PO4)12
_chemical_formula_sum   'Na30 Ta3 In21 P36 O144'
_cell_volume   3221.83817460
_cell_formula_units_Z   3
loop_
 _symmetry_equiv_pos_site_id
 _symmetry_equiv_pos_as_xyz
  1  'x, y, z'
loop_
 _atom_site_type_symbol
 _atom_site_label
 _atom_site_symmetry_multiplicity
 _atom_site_fract_x
 _atom_site_fract_y
 _atom_site_fract_z
 _atom_site_occupancy
  Na  Na0  1  0.31707099  0.99955660  0.25205721  1
  Na  Na1  1  0.68353471  0.36534068  0.25186175  1
  Na  Na2  1  0.31469072  0.63124461  0.75253713  1
  Na  Na3  1  0.81468182  0.63117464  0.75232580  1
  Na  Na4  1  0.15118047  0.33361643  0.58266536  1
  Na  Na5  1  0.65098879  0.33393782  0.58253863  1
  Na  Na6  1  0.01515330  0.69775010  0.58315279  1
  Na  Na7  1  0.51574040  0.69739834  0.58321566  1
  Na  Na8  1  0.33283196  0.96843368  0.58248683  1
  Na  Na9  1  0.83331944  0.96933749  0.58258951  1
  Na  Na10  1  0.15110854  0.96889547  0.08268376  1
  Na  Na11  1  0.65190873  0.96984156  0.08354585  1
  Na  Na12  1  0.33295556  0.69653732  0.08330433  1
  Na  Na13  1  0.83322638  0.69746484  0.08296392  1
  Na  Na14  1  0.01512199  0.33341696  0.08299971  1
  Na  Na15  1  0.51538887  0.33389972  0.08332962  1
  Na  Na16  1  0.66696799  0.03299946  0.41430717  1
  Na  Na17  1  0.34853345  0.66616660  0.41374315  1
  Na  Na18  1  0.00026925  0.99919846  0.49777994  1
  Na  Na19  1  0.49960739  0.01079669  0.49558839  1
  Na  Na20  1  0.00005016  0.00017877  0.99950883  1
  Na  Na21  1  0.50020343  0.99978599  0.99957754  1
  Na  Na22  1  0.33375753  0.32402271  0.83652904  1
  Na  Na23  1  0.83375229  0.32412480  0.83655522  1
  Na  Na24  1  0.33464830  0.33490114  0.33278164  1
  Na  Na25  1  0.84217351  0.34144036  0.33319208  1
  Na  Na26  1  0.16239039  0.65506834  0.17128421  1
  Na  Na27  1  0.66586201  0.67721596  0.17093123  1
  Na  Na28  1  0.16154311  0.66746116  0.67149431  1
  Na  Na29  1  0.66150175  0.66664893  0.67152511  1
  Ta  Ta0  1  0.00026046  0.99938812  0.35077004  1
  Ta  Ta1  1  0.00101192  0.00215593  0.85302797  1
  Ta  Ta2  1  0.50102365  0.00225203  0.85296853  1
  In  In0  1  0.49967344  0.00483281  0.34915901  1
  In  In1  1  0.00147503  0.00271926  0.65364123  1
  In  In2  1  0.50140927  0.00230957  0.65317828  1
  In  In3  1  0.99992827  0.00027130  0.15345601  1
  In  In4  1  0.50023339  0.99760503  0.15367978  1
  In  In5  1  0.33372456  0.32673330  0.68857705  1
  In  In6  1  0.83380900  0.32702792  0.68859966  1
  In  In7  1  0.33227697  0.34013902  0.18547584  1
  In  In8  1  0.83807595  0.33187785  0.18731284  1
  In  In9  1  0.33333295  0.33399078  0.98007396  1
  In  In10  1  0.83333591  0.33367447  0.98023412  1
  In  In11  1  0.33275568  0.32463930  0.48136097  1
  In  In12  1  0.83683541  0.34136580  0.48087488  1
  In  In13  1  0.16633069  0.66694583  0.01031520  1
  In  In14  1  0.66645574  0.66677194  0.01032424  1
  In  In15  1  0.16285418  0.66373599  0.51094344  1
  In  In16  1  0.66854907  0.66619472  0.51157192  1
  In  In17  1  0.16370127  0.66064319  0.31642591  1
  In  In18  1  0.66505511  0.66897659  0.31673965  1
  In  In19  1  0.16360773  0.66732195  0.81792494  1
  In  In20  1  0.66358512  0.66731339  0.81795973  1
  P  P0  1  0.14709306  0.99869441  0.25017213  1
  P  P1  1  0.65034868  0.00026114  0.24997119  1
  P  P2  1  0.34955888  0.70055850  0.25114215  1
  P  P3  1  0.85244083  0.70529161  0.25036684  1
  P  P4  1  0.00072932  0.29354084  0.25032211  1
  P  P5  1  0.49965325  0.29937880  0.24846495  1
  P  P6  1  0.14721479  0.29589069  0.75061270  1
  P  P7  1  0.64718053  0.29575238  0.75054703  1
  P  P8  1  0.00113011  0.70830803  0.75021157  1
  P  P9  1  0.50110120  0.70848760  0.75008879  1
  P  P10  1  0.35333765  0.99865836  0.75104152  1
  P  P11  1  0.85329566  0.99867386  0.75108916  1
  P  P12  1  0.48127695  0.33421797  0.58410217  1
  P  P13  1  0.98065264  0.33375008  0.58362409  1
  P  P14  1  0.18561438  0.03763429  0.58377786  1
  P  P15  1  0.68618020  0.03802761  0.58221360  1
  P  P16  1  0.33276905  0.62793055  0.58361904  1
  P  P17  1  0.83334722  0.62904463  0.58547919  1
  P  P18  1  0.48108825  0.62789581  0.08257639  1
  P  P19  1  0.98099421  0.62811606  0.08305819  1
  P  P20  1  0.33288889  0.03782427  0.08432070  1
  P  P21  1  0.83312535  0.03772119  0.08263261  1
  P  P22  1  0.18540456  0.33357934  0.08232366  1
  P  P23  1  0.68631334  0.33426725  0.08444761  1
  P  P24  1  0.31685278  0.66747971  0.91428690  1
  P  P25  1  0.81684105  0.66724254  0.91428484  1
  P  P26  1  0.01661394  0.36616908  0.91577763  1
  P  P27  1  0.51664878  0.36615130  0.91584800  1
  P  P28  1  0.16656293  0.96651226  0.91567484  1
  P  P29  1  0.66653970  0.96656471  0.91563105  1
  P  P30  1  0.31551082  0.96374290  0.41567306  1
  P  P31  1  0.81755715  0.96579953  0.41634669  1
  P  P32  1  0.16532032  0.36564232  0.41648575  1
  P  P33  1  0.66691079  0.36637950  0.41607782  1
  P  P34  1  0.01722580  0.66973151  0.41535815  1
  P  P35  1  0.51684992  0.66631297  0.41741415  1
  O  O0  1  0.09339957  0.01300770  0.30214314  1
  O  O1  1  0.60902929  0.03009894  0.30482952  1
  O  O2  1  0.40307652  0.78369327  0.30666606  1
  O  O3  1  0.91324913  0.81293046  0.30238795  1
  O  O4  1  0.48287840  0.18180529  0.30132689  1
  O  O5  1  0.99421462  0.17118023  0.30227635  1
  O  O6  1  0.09405807  0.17406228  0.80199915  1
  O  O7  1  0.59403435  0.17410972  0.80201245  1
  O  O8  1  0.49193427  0.81428274  0.80149636  1
  O  O9  1  0.99200206  0.81432148  0.80156642  1
  O  O10  1  0.41430090  0.01397764  0.80261462  1
  O  O11  1  0.91430050  0.01425375  0.80261160  1
  O  O12  1  0.38871643  0.96744466  0.69308558  1
  O  O13  1  0.88871477  0.96775097  0.69308161  1
  O  O14  1  0.09911308  0.22516906  0.69205784  1
  O  O15  1  0.59911267  0.22491138  0.69205403  1
  O  O16  1  0.01254943  0.80363279  0.69145895  1
  O  O17  1  0.51263722  0.80385738  0.69133247  1
  O  O18  1  0.38849094  0.80979593  0.19441514  1
  O  O19  1  0.88872550  0.80291931  0.19244141  1
  O  O20  1  0.01225078  0.22142459  0.19178086  1
  O  O21  1  0.51619782  0.22516417  0.19137766  1
  O  O22  1  0.09824661  0.97444240  0.19224502  1
  O  O23  1  0.59889476  0.97529378  0.19260981  1
  O  O24  1  0.44250592  0.37094677  0.63843180  1
  O  O25  1  0.94253636  0.37110114  0.63812536  1
  O  O26  1  0.24258878  0.11471588  0.63822712  1
  O  O27  1  0.74391527  0.11882701  0.63607167  1
  O  O28  1  0.31712569  0.51802598  0.63939685  1
  O  O29  1  0.81675083  0.52065389  0.64172193  1
  O  O30  1  0.44316612  0.51514175  0.13716285  1
  O  O31  1  0.94307679  0.51548981  0.13803407  1
  O  O32  1  0.31593711  0.11078341  0.14104977  1
  O  O33  1  0.81476909  0.11344848  0.13743507  1
  O  O34  1  0.24126666  0.37005774  0.13728114  1
  O  O35  1  0.74023347  0.36835743  0.14102739  1
  O  O36  1  0.22450665  0.29706829  0.02887746  1
  O  O37  1  0.72685177  0.29920342  0.03143704  1
  O  O38  1  0.42392321  0.55115150  0.02878098  1
  O  O39  1  0.92375900  0.55094562  0.02935880  1
  O  O40  1  0.35036205  0.15449101  0.03150578  1
  O  O41  1  0.85152462  0.15196957  0.02890058  1
  O  O42  1  0.22350905  0.15168490  0.52982505  1
  O  O43  1  0.72365263  0.14592332  0.52628171  1
  O  O44  1  0.34871348  0.54920812  0.52861577  1
  O  O45  1  0.85068476  0.54860063  0.53214889  1
  O  O46  1  0.42458380  0.29648368  0.52995338  1
  O  O47  1  0.92383900  0.29606676  0.52947660  1
  O  O48  1  0.28285110  0.70624098  0.97151605  1
  O  O49  1  0.78285855  0.70599012  0.97148384  1
  O  O50  1  0.06862850  0.43014854  0.97378393  1
  O  O51  1  0.56875599  0.43021688  0.97385505  1
  O  O52  1  0.14602175  0.86221311  0.97367582  1
  O  O53  1  0.64594369  0.86215838  0.97356584  1
  O  O54  1  0.27641705  0.85387094  0.47279097  1
  O  O55  1  0.78631246  0.86495739  0.47500666  1
  O  O56  1  0.14541139  0.42860706  0.47479793  1
  O  O57  1  0.65449895  0.44290980  0.47393992  1
  O  O58  1  0.06679337  0.70808318  0.47452355  1
  O  O59  1  0.57067594  0.70001607  0.47487241  1
  O  O60  1  0.06156519  0.64409474  0.36395262  1
  O  O61  1  0.55989767  0.63979732  0.36461624  1
  O  O62  1  0.26246986  0.87896712  0.36065189  1
  O  O63  1  0.75687595  0.87843114  0.36542555  1
  O  O64  1  0.18280252  0.48634962  0.36543802  1
  O  O65  1  0.67819454  0.47348761  0.36124979  1
  O  O66  1  0.06031244  0.47800189  0.86320409  1
  O  O67  1  0.56016492  0.47808806  0.86327363  1
  O  O68  1  0.17965981  0.87994493  0.86322173  1
  O  O69  1  0.67975075  0.88028214  0.86317010  1
  O  O70  1  0.26309140  0.64436276  0.85971355  1
  O  O71  1  0.76310145  0.64409308  0.85970647  1
  O  O72  1  0.00894423  0.83497597  0.40461721  1
  O  O73  1  0.51007916  0.83158083  0.41290748  1
  O  O74  1  0.40337977  0.97055762  0.41314709  1
  O  O75  1  0.90796549  0.98433244  0.40479866  1
  O  O76  1  0.08441601  0.18422043  0.40505952  1
  O  O77  1  0.58708246  0.18359780  0.41319787  1
  O  O78  1  0.00935111  0.18442404  0.90494777  1
  O  O79  1  0.50936368  0.18447054  0.90499901  1
  O  O80  1  0.08321164  0.98175658  0.90455928  1
  O  O81  1  0.58317130  0.98180182  0.90445334  1
  O  O82  1  0.40825082  0.83476382  0.90458667  1
  O  O83  1  0.90824708  0.83451377  0.90455607  1
  O  O84  1  0.49142696  0.17270721  0.58933256  1
  O  O85  1  0.99149519  0.17321301  0.58894549  1
  O  O86  1  0.09444592  0.01683254  0.58877528  1
  O  O87  1  0.59555237  0.01859618  0.58793403  1
  O  O88  1  0.41378299  0.81013682  0.58826512  1
  O  O89  1  0.91399066  0.81184301  0.58912401  1
  O  O90  1  0.49152107  0.81032177  0.08818015  1
  O  O91  1  0.99169220  0.81034418  0.08869747  1
  O  O92  1  0.41359660  0.01649271  0.08875061  1
  O  O93  1  0.91370162  0.01633851  0.08809323  1
  O  O94  1  0.09423919  0.17211093  0.08793020  1
  O  O95  1  0.59475799  0.17249946  0.08853853  1
  O  O96  1  0.34869082  0.16305301  0.75109511  1
  O  O97  1  0.84856154  0.16304783  0.75090558  1
  O  O98  1  0.23641484  0.31075235  0.75072018  1
  O  O99  1  0.73637182  0.31026845  0.75076552  1
  O  O100  1  0.41429911  0.53737113  0.75039007  1
  O  O101  1  0.91439318  0.53714495  0.75058008  1
  O  O102  1  0.34077833  0.52329291  0.24730850  1
  O  O103  1  0.84584402  0.52838113  0.25106479  1
  O  O104  1  0.41655668  0.30790412  0.24442261  1
  O  O105  1  0.91715222  0.29894145  0.25226917  1
  O  O106  1  0.23610712  0.16129057  0.25097740  1
  O  O107  1  0.73730733  0.17148281  0.24648122  1
  O  O108  1  0.32975908  0.51420054  0.91930946  1
  O  O109  1  0.82975178  0.51391897  0.91945540  1
  O  O110  1  0.42656370  0.33847141  0.92035280  1
  O  O111  1  0.92657332  0.33896090  0.92009379  1
  O  O112  1  0.24320610  0.14647462  0.92023336  1
  O  O113  1  0.74298040  0.14687558  0.92027250  1
  O  O114  1  0.32485578  0.14146112  0.41968429  1
  O  O115  1  0.82504196  0.14264537  0.42105132  1
  O  O116  1  0.24675497  0.35247975  0.42156342  1
  O  O117  1  0.74601706  0.34179244  0.41951219  1
  O  O118  1  0.42499221  0.51226657  0.42148065  1
  O  O119  1  0.92704248  0.51435749  0.41934270  1
  O  O120  1  0.17562603  0.49569770  0.07656979  1
  O  O121  1  0.67656839  0.49612078  0.07753033  1
  O  O122  1  0.07191240  0.64789879  0.07719744  1
  O  O123  1  0.57234858  0.64906332  0.07669346  1
  O  O124  1  0.25174148  0.85610621  0.07759964  1
  O  O125  1  0.75212464  0.85535892  0.07669687  1
  O  O126  1  0.17521355  0.85577566  0.57793823  1
  O  O127  1  0.67574697  0.85586160  0.57749732  1
  O  O128  1  0.25163075  0.64704268  0.57799341  1
  O  O129  1  0.75228247  0.64793781  0.57932731  1
  O  O130  1  0.07161089  0.49579943  0.57766041  1
  O  O131  1  0.57235962  0.49530615  0.57826124  1
  O  O132  1  0.15838951  0.84205423  0.25649059  1
  O  O133  1  0.66012844  0.84167661  0.25416059  1
  O  O134  1  0.26216581  0.69512511  0.25433767  1
  O  O135  1  0.76230801  0.68082030  0.25716808  1
  O  O136  1  0.08072987  0.46889457  0.25667534  1
  O  O137  1  0.58317906  0.47397115  0.25413073  1
  O  O138  1  0.15964502  0.47657809  0.75675093  1
  O  O139  1  0.65968756  0.47650447  0.75679456  1
  O  O140  1  0.07930829  0.68767009  0.75610083  1
  O  O141  1  0.57925313  0.68763404  0.75604800  1
  O  O142  1  0.26621839  0.83294361  0.75742209  1
  O  O143  1  0.76621783  0.83305701  0.75740778  1
loop_
_geom_bond_atom_site_label_1
_geom_bond_atom_site_label_2
_geom_bond_distance
_geom_bond_site_symmetry_2
Na0 O134 2.412469 1_555
Na0 O104 2.449775 1_565
Na0 O132 2.480740 1_555
Na0 O106 2.533639 1_565
Na0 O62 2.687152 1_555
Na0 O32 2.729021 1_565
Na0 O4 2.827564 1_565
Na0 O18 2.924868 1_555
Na1 O107 2.394833 1_555
Na1 O137 2.456782 1_555
Na1 O135 2.469757 1_555
Na1 O103 2.535400 1_555
Na1 O65 2.700223 1_555
Na1 O35 2.723373 1_555
Na1 O1 2.891438 1_555
Na1 O21 2.966720 1_555
Na2 O100 2.342783 1_555
Na2 O142 2.388149 1_555
Na2 O138 2.423764 1_555
Na2 O98 2.506599 1_555
Na2 O70 2.640805 1_555
Na2 O28 2.785868 1_555
Na3 O101 2.345430 1_555
Na3 O143 2.389820 1_555
Na3 O139 2.423196 1_555
Na3 O99 2.509763 1_555
Na3 O71 2.644594 1_555
Na3 O29 2.721755 1_555
Na4 O128 2.484180 1_555
Na4 O85 2.498420 1_455
Na4 O86 2.514784 1_555
Na4 O130 2.517853 1_555
Na4 O56 2.626005 1_555
Na4 O14 2.673896 1_555
Na4 O42 2.831763 1_555
Na4 O28 2.902431 1_555
Na5 O129 2.489437 1_555
Na5 O131 2.496109 1_555
Na5 O84 2.497217 1_555
Na5 O87 2.505665 1_555
Na5 O57 2.655525 1_555
Na5 O15 2.676941 1_555
Na5 O43 2.914634 1_555
Na5 O29 2.926644 1_555
Na6 O86 2.498288 1_565
Na6 O130 2.500822 1_555
Na6 O126 2.503093 1_555
Na6 O89 2.511754 1_455
Na6 O58 2.633382 1_555
Na6 O16 2.659412 1_555
Na6 O45 2.824302 1_455
Na6 O25 2.850208 1_455
Na7 O127 2.502790 1_555
Na7 O131 2.503691 1_555
Na7 O87 2.513833 1_565
Na7 O88 2.514636 1_555
Na7 O17 2.659137 1_555
Na7 O59 2.659435 1_555
Na7 O24 2.850582 1_555
Na7 O44 2.896817 1_555
Na8 O126 2.498080 1_555
Na8 O88 2.509911 1_555
Na8 O128 2.515095 1_555
Na8 O84 2.515879 1_565
Na8 O54 2.705474 1_555
Na8 O12 2.719915 1_555
Na8 O46 2.836006 1_565
Na8 O26 2.860621 1_565
Na9 O127 2.496654 1_555
Na9 O89 2.500240 1_555
Na9 O85 2.508789 1_565
Na9 O129 2.514156 1_555
Na9 O55 2.614524 1_555
Na9 O13 2.715394 1_555
Na9 O47 2.831376 1_565
Na9 O27 2.847798 1_565
Na10 O124 2.492671 1_555
Na10 O91 2.493908 1_455
Na10 O122 2.513162 1_555
Na10 O94 2.516985 1_565
Na10 O52 2.652946 1_554
Na10 O22 2.685430 1_555
Na10 O36 2.848906 1_565
Na10 O32 2.906787 1_565
Na11 O125 2.499718 1_555
Na11 O90 2.507543 1_555
Na11 O123 2.513148 1_555
Na11 O95 2.515944 1_565
Na11 O53 2.674580 1_554
Na11 O23 2.675705 1_555
Na11 O33 2.831473 1_565
Na11 O37 2.839661 1_565
Na12 O120 2.493120 1_555
Na12 O92 2.504861 1_565
Na12 O90 2.512723 1_555
Na12 O124 2.523864 1_555
Na12 O48 2.722858 1_554
Na12 O18 2.730250 1_555
Na12 O34 2.839393 1_555
Na12 O38 2.852843 1_555
Na13 O121 2.482805 1_555
Na13 O93 2.496066 1_565
Na13 O125 2.509748 1_555
Na13 O91 2.513329 1_555
Na13 O19 2.682795 1_555
Na13 O49 2.715825 1_554
Na13 O39 2.845128 1_555
Na13 O35 2.899987 1_555
Na14 O122 2.494814 1_555
Na14 O94 2.503844 1_555
Na14 O120 2.511415 1_555
Na14 O93 2.512928 1_455
Na14 O50 2.657055 1_554
Na14 O20 2.671259 1_555
Na14 O41 2.842797 1_455
Na14 O31 2.850654 1_455
Na15 O123 2.501148 1_555
Na15 O95 2.508802 1_555
Na15 O92 2.516639 1_555
Na15 O121 2.521132 1_555
Na15 O21 2.656840 1_555
Na15 O51 2.661550 1_554
Na15 O30 2.835011 1_555
Na15 O40 2.839294 1_555
Na16 O117 2.417562 1_555
Na16 O77 2.429903 1_555
Na16 O73 2.483211 1_545
Na16 O115 2.512994 1_555
Na16 O1 2.703663 1_555
Na16 O43 2.751780 1_555
Na16 O63 2.847362 1_545
Na16 O59 2.956124 1_545
Na17 O118 2.408159 1_555
Na17 O74 2.411787 1_555
Na17 O116 2.493976 1_555
Na17 O73 2.523676 1_555
Na17 O2 2.649011 1_555
Na17 O64 2.816761 1_555
Na17 O44 2.826892 1_555
Na17 O54 2.933735 1_555
Na18 O86 2.637885 1_565
Na18 O72 2.642321 1_555
Na18 O89 2.643879 1_455
Na18 O76 2.651439 1_565
Na18 O75 2.659830 1_455
Na18 O85 2.660468 1_465
Na19 O77 2.447801 1_555
Na19 O74 2.461304 1_545
Na19 O73 2.554986 1_545
Na19 O84 2.637751 1_555
Na19 O87 2.706643 1_555
Na19 O88 2.709405 1_545
Na20 O94 2.594128 1_556
Na20 O93 2.601194 1_456
Na20 O91 2.616830 1_446
Na20 O78 2.678732 1_555
Na20 O83 2.682744 1_445
Na20 O80 2.688336 1_545
Na21 O90 2.602752 1_556
Na21 O95 2.607964 1_566
Na21 O92 2.616328 1_566
Na21 O79 2.682033 1_565
Na21 O82 2.682928 1_555
Na21 O81 2.688142 1_555
Na22 O112 2.502450 1_555
Na22 O110 2.503178 1_555
Na22 O96 2.526852 1_555
Na22 O108 2.579566 1_555
Na22 O98 2.593833 1_555
Na22 O100 2.623190 1_555
Na23 O111 2.497388 1_555
Na23 O113 2.503156 1_555
Na23 O97 2.530378 1_555
Na23 O109 2.579224 1_555
Na23 O99 2.592399 1_555
Na23 O101 2.619370 1_555
Na24 O106 2.512783 1_555
Na24 O102 2.554519 1_555
Na24 O104 2.583372 1_555
Na24 O118 2.589725 1_555
Na24 O114 2.590210 1_555
Na24 O116 2.626902 1_555
Na25 O105 2.431421 1_555
Na25 O119 2.501047 1_555
Na25 O103 2.501610 1_555
Na25 O115 2.604729 1_555
Na25 O117 2.626620 1_555
Na25 O107 2.635280 1_555
Na26 O136 2.512175 1_555
Na26 O134 2.513158 1_555
Na26 O132 2.601158 1_555
Na26 O120 2.673954 1_555
Na26 O122 2.679203 1_555
Na26 O124 2.744271 1_555
Na27 O133 2.446030 1_555
Na27 O137 2.540499 1_555
Na27 O135 2.617416 1_555
Na27 O123 2.666629 1_555
Na27 O125 2.669088 1_555
Na27 O121 2.752845 1_555
Na28 O140 2.497426 1_555
Na28 O138 2.588872 1_555
Na28 O142 2.611625 1_555
Na28 O126 2.663217 1_555
Na28 O130 2.665326 1_555
Na28 O128 2.744605 1_555
Na29 O141 2.498726 1_555
Na29 O139 2.585179 1_555
Na29 O143 2.612941 1_555
Na29 O131 2.649564 1_555
Na29 O127 2.674302 1_555
Na29 O129 2.723820 1_555
In0 O4 2.080435 1_555
In0 O2 2.116890 1_545
In0 O1 2.126358 1_555
In0 O77 2.163435 1_555
In0 O74 2.170227 1_545
In0 O73 2.213175 1_545
In1 O14 2.089049 1_555
In1 O16 2.093640 1_545
In1 O13 2.099816 1_445
In1 O86 2.193118 1_555
In1 O85 2.205588 1_455
In1 O89 2.215148 1_445
In2 O17 2.093083 1_545
In2 O15 2.094636 1_555
In2 O12 2.103630 1_545
In2 O84 2.192028 1_555
In2 O87 2.208182 1_555
In2 O88 2.226931 1_545
In3 O20 2.089162 1_655
In3 O22 2.099081 1_645
In3 O19 2.100078 1_545
In3 O94 2.211934 1_655
In3 O93 2.213065 1_555
In3 O91 2.213109 1_545
In4 O23 2.089181 1_555
In4 O18 2.092623 1_555
In4 O21 2.111773 1_565
In4 O90 2.204141 1_555
In4 O95 2.216500 1_565
In4 O92 2.222720 1_565
In5 O26 2.130273 1_555
In5 O24 2.130464 1_555
In5 O96 2.167379 1_555
In5 O28 2.204128 1_555
In5 O98 2.205373 1_555
In5 O100 2.225710 1_555
In6 O27 2.133015 1_555
In6 O25 2.134047 1_555
In6 O97 2.164415 1_555
In6 O29 2.200536 1_555
In6 O99 2.205121 1_555
In6 O101 2.225696 1_555
In7 O34 2.104697 1_555
In7 O102 2.121574 1_555
In7 O30 2.132492 1_555
In7 O104 2.157717 1_555
In7 O32 2.190818 1_555
In7 O106 2.245999 1_555
In8 O31 2.110695 1_555
In8 O33 2.130235 1_555
In8 O107 2.141794 1_555
In8 O105 2.179835 1_555
In8 O35 2.220519 1_555
In8 O103 2.245410 1_555
In9 O38 2.131652 1_556
In9 O36 2.134072 1_556
In9 O40 2.145749 1_556
In9 O112 2.149433 1_555
In9 O110 2.150284 1_555
In9 O108 2.164402 1_555
In10 O37 2.134802 1_556
In10 O39 2.136256 1_556
In10 O41 2.139900 1_556
In10 O113 2.150052 1_555
In10 O111 2.153744 1_555
In10 O109 2.164926 1_555
In11 O42 2.112521 1_555
In11 O46 2.113692 1_555
In11 O114 2.122865 1_555
In11 O118 2.163669 1_555
In11 O116 2.174758 1_555
In11 O44 2.186341 1_555
In12 O45 2.114511 1_555
In12 O47 2.124060 1_555
In12 O119 2.124284 1_555
In12 O117 2.158061 1_555
In12 O43 2.178828 1_555
In12 O115 2.180024 1_555
In13 O48 2.141575 1_554
In13 O52 2.144186 1_554
In13 O50 2.145002 1_554
In13 O120 2.229279 1_555
In13 O122 2.229394 1_555
In13 O124 2.239530 1_555
In14 O49 2.140282 1_554
In14 O51 2.143156 1_554
In14 O53 2.148367 1_554
In14 O123 2.221051 1_555
In14 O125 2.224581 1_555
In14 O121 2.246383 1_555
In15 O54 2.092688 1_555
In15 O58 2.134973 1_555
In15 O56 2.150680 1_555
In15 O130 2.196679 1_555
In15 O126 2.238853 1_555
In15 O128 2.275306 1_555
In16 O57 2.088535 1_555
In16 O59 2.112022 1_555
In16 O55 2.147409 1_555
In16 O129 2.225968 1_555
In16 O127 2.235301 1_555
In16 O131 2.241625 1_555
In17 O60 2.079036 1_555
In17 O64 2.096735 1_555
In17 O136 2.122243 1_555
In17 O62 2.136279 1_555
In17 O134 2.169947 1_555
In17 O132 2.173798 1_555
In18 O61 2.089354 1_555
In18 O63 2.102275 1_555
In18 O133 2.149954 1_555
In18 O65 2.151763 1_555
In18 O137 2.172760 1_555
In18 O135 2.180315 1_555
In19 O66 2.066643 1_555
In19 O68 2.070719 1_555
In19 O70 2.134000 1_555
In19 O140 2.150073 1_555
In19 O142 2.189867 1_555
In19 O138 2.191684 1_555
In20 O67 2.067818 1_555
In20 O69 2.071751 1_555
In20 O71 2.135325 1_555
In20 O141 2.151718 1_555
In20 O143 2.191059 1_555
In20 O139 2.192435 1_555
O0 P0 1.577576 1_545
O0 Ta0 1.966348 1_545
O1 P1 1.548616 1_555
O2 P2 1.541464 1_555
O3 P3 1.578127 1_555
O3 Ta0 1.967849 1_655
O4 P5 1.533819 1_555
O5 P4 1.584767 1_655
O5 Ta0 1.953721 1_645
O6 P6 1.564450 1_555
O6 Ta1 1.993083 1_555
O7 P7 1.565087 1_555
O7 Ta2 1.991668 1_555
O8 P9 1.573900 1_555
O8 Ta2 2.003552 1_565
O9 P8 1.574020 1_655
O9 Ta1 2.002920 1_665
O10 P10 1.569582 1_545
O10 Ta2 1.987683 1_555
O11 P11 1.568590 1_545
O11 Ta1 1.989851 1_655
O12 P10 1.554822 1_555
O13 P11 1.555172 1_555
O14 P6 1.546652 1_555
O15 P7 1.545358 1_555
O16 P8 1.550343 1_555
O17 P9 1.550308 1_555
O18 P2 1.564451 1_555
O19 P3 1.540883 1_555
O20 P4 1.545661 1_555
O21 P5 1.561264 1_555
O22 P0 1.542689 1_555
O23 P1 1.554900 1_565
O24 P12 1.539620 1_555
O25 P13 1.538656 1_555
O26 P14 1.539245 1_555
O27 P15 1.538700 1_555
O28 P16 1.550650 1_555
O29 P17 1.549713 1_555
O30 P18 1.535628 1_555
O31 P19 1.542328 1_555
O32 P20 1.551489 1_555
O33 P21 1.539518 1_555
O34 P22 1.538145 1_555
O35 P23 1.552260 1_555
O36 P22 1.525958 1_555
O37 P23 1.527154 1_555
O38 P18 1.528403 1_555
O39 P19 1.527659 1_555
O40 P20 1.526305 1_555
O41 P21 1.528164 1_555
O42 P14 1.529101 1_555
O43 P15 1.541126 1_555
O44 P16 1.539598 1_555
O45 P17 1.528505 1_555
O46 P12 1.530175 1_555
O47 P13 1.531417 1_555
O48 P24 1.555927 1_555
O49 P25 1.555122 1_555
O50 P26 1.557073 1_555
O51 P27 1.557839 1_555
O52 P28 1.557752 1_555
O53 P29 1.556875 1_555
O54 P30 1.574543 1_555
O55 P31 1.556987 1_555
O56 P32 1.558586 1_555
O57 P33 1.558189 1_555
O58 P34 1.559943 1_555
O59 P35 1.568493 1_555
O60 P34 1.502226 1_555
O61 P35 1.516561 1_555
O62 P30 1.531455 1_555
O63 P31 1.518916 1_555
O64 P32 1.516824 1_555
O65 P33 1.531550 1_555
O66 P26 1.510820 1_555
O67 P27 1.510608 1_555
O68 P28 1.512217 1_555
O69 P29 1.511683 1_555
O70 P24 1.527723 1_555
O71 P25 1.527540 1_555
O72 P34 1.592865 1_555
O72 Ta0 1.993987 1_555
O73 P35 1.562100 1_555
O74 P30 1.557721 1_555
O75 P31 1.577351 1_555
O75 Ta0 2.021807 1_655
O76 P32 1.577307 1_555
O76 Ta0 2.022205 1_545
O77 P33 1.556362 1_555
O78 P26 1.600272 1_555
O78 Ta1 1.972933 1_555
O79 P27 1.599593 1_555
O79 Ta2 1.974089 1_555
O80 P28 1.598994 1_555
O80 Ta1 1.973577 1_565
O81 P29 1.599487 1_555
O81 Ta2 1.972409 1_565
O82 P24 1.598424 1_555
O82 Ta2 1.984851 1_565
O83 P25 1.598545 1_555
O83 Ta1 1.984039 1_665
O84 P12 1.564407 1_555
O85 P13 1.563196 1_555
O86 P14 1.564547 1_555
O87 P15 1.561236 1_555
O88 P16 1.564097 1_555
O89 P17 1.563142 1_555
O90 P18 1.568154 1_555
O91 P19 1.564504 1_555
O92 P20 1.566274 1_555
O93 P21 1.565891 1_555
O94 P22 1.563838 1_555
O95 P23 1.566626 1_555
O96 P10 1.529728 1_545
O97 P11 1.530401 1_545
O98 P6 1.547671 1_555
O99 P7 1.548882 1_555
O100 P9 1.554542 1_555
O101 P8 1.554157 1_655
O102 P2 1.531392 1_555
O103 P3 1.542802 1_555
O104 P5 1.543353 1_555
O105 P4 1.534861 1_655
O106 P0 1.540664 1_545
O107 P1 1.558441 1_555
O108 P24 1.520130 1_555
O109 P25 1.520833 1_555
O110 P27 1.520136 1_555
O111 P26 1.520652 1_655
O112 P28 1.521011 1_545
O113 P29 1.521719 1_545
O114 P30 1.531429 1_545
O115 P31 1.538882 1_545
O116 P32 1.538000 1_555
O117 P33 1.553856 1_555
O118 P35 1.543118 1_555
O119 P34 1.528948 1_655
O120 P22 1.566894 1_555
O121 P23 1.566615 1_555
O122 P19 1.565395 1_455
O123 P18 1.566445 1_555
O124 P20 1.566456 1_565
O125 P21 1.567103 1_565
O126 P14 1.563757 1_565
O127 P15 1.564293 1_565
O128 P16 1.564255 1_555
O129 P17 1.562824 1_555
O130 P13 1.564484 1_455
O131 P12 1.562019 1_555
O132 P0 1.535134 1_555
O133 P1 1.532602 1_565
O134 P2 1.555701 1_555
O135 P3 1.536417 1_555
O136 P4 1.524090 1_555
O137 P5 1.547227 1_555
O138 P6 1.539340 1_555
O139 P7 1.539612 1_555
O140 P8 1.519845 1_555
O141 P9 1.520666 1_555
O142 P10 1.541139 1_555
O143 P11 1.540201 1_555
