# generated using pymatgen
data_MgAlTl(MoO4)2
_symmetry_space_group_name_H-M   'P 1'
_cell_length_a   5.75907603
_cell_length_b   5.75907605
_cell_length_c   8.70541736
_cell_angle_alpha   90.00000000
_cell_angle_beta   90.00000000
_cell_angle_gamma   119.99999983
_symmetry_Int_Tables_number   1
_chemical_formula_structural   MgAlTl(MoO4)2
_chemical_formula_sum   'Mg1 Al1 Tl1 Mo2 O8'
_cell_volume   250.04942207
_cell_formula_units_Z   1
loop_
 _symmetry_equiv_pos_site_id
 _symmetry_equiv_pos_as_xyz
  1  'x, y, z'
loop_
 _atom_site_type_symbol
 _atom_site_label
 _atom_site_symmetry_multiplicity
 _atom_site_fract_x
 _atom_site_fract_y
 _atom_site_fract_z
 _atom_site_occupancy
  Mg  Mg0  1  0.00000000  0.00000000  0.72690117  1
  Al  Al0  1  0.00000000  0.00000000  0.01500234  1
  Tl  Tl0  1  0.00000000  0.00000000  0.39108744  1
  Mo  Mo0  1  0.66666700  0.33333300  0.20670896  1
  Mo  Mo1  1  0.33333300  0.66666700  0.80966814  1
  O  O0  1  0.84527457  0.15472543  0.15333642  1
  O  O1  1  0.84527457  0.69054914  0.15333642  1
  O  O2  1  0.30945086  0.15472543  0.15333642  1
  O  O3  1  0.70543648  0.85271824  0.87790421  1
  O  O4  1  0.33333300  0.66666700  0.59930342  1
  O  O5  1  0.66666700  0.33333300  0.40760664  1
  O  O6  1  0.14728176  0.85271824  0.87790421  1
  O  O7  1  0.14728176  0.29456352  0.87790421  1
loop_
_geom_bond_atom_site_label_1
_geom_bond_atom_site_label_2
_geom_bond_distance
_geom_bond_site_symmetry_2
Mg0 O6 1.971393 1_545
Mg0 O3 1.971393 1_445
Mg0 O7 1.971393 1_555
Mg0 Tl0 2.923399 1_555
Al0 O6 1.892828 1_544
Al0 O3 1.892828 1_444
Al0 O7 1.892828 1_554
Al0 O0 1.957621 1_455
Al0 O2 1.957621 1_555
Al0 O1 1.957621 1_445
Mo0 O5 1.748898 1_555
Mo0 O0 1.841202 1_555
Mo0 O2 1.841207 1_555
Mo0 O1 1.841207 1_555
Mo1 O4 1.831313 1_555
Mo1 O6 1.948613 1_555
Mo1 O3 1.948618 1_555
Mo1 O7 1.948618 1_555
O0 Tl0 2.581820 1_655
O1 Tl0 2.581820 1_665
O2 Tl0 2.581820 1_555
