# generated using pymatgen
data_Li2ZnI4
_symmetry_space_group_name_H-M   'P 1'
_cell_length_a   7.06393200
_cell_length_b   8.68382800
_cell_length_c   15.00896300
_cell_angle_alpha   90.00000000
_cell_angle_beta   90.00000000
_cell_angle_gamma   90.00000000
_symmetry_Int_Tables_number   1
_chemical_formula_structural   Li2ZnI4
_chemical_formula_sum   'Li8 Zn4 I16'
_cell_volume   920.67936546
_cell_formula_units_Z   4
loop_
 _symmetry_equiv_pos_site_id
 _symmetry_equiv_pos_as_xyz
  1  'x, y, z'
loop_
 _atom_site_type_symbol
 _atom_site_label
 _atom_site_symmetry_multiplicity
 _atom_site_fract_x
 _atom_site_fract_y
 _atom_site_fract_z
 _atom_site_occupancy
  Li  Li0  1  0.00000000  0.00000000  0.00000000  1
  Li  Li1  1  0.50000000  0.00000000  0.50000000  1
  Li  Li2  1  0.00000000  0.50000000  0.00000000  1
  Li  Li3  1  0.50000000  0.50000000  0.50000000  1
  Li  Li4  1  0.99882200  0.75000000  0.26552700  1
  Li  Li5  1  0.49882200  0.25000000  0.23447300  1
  Li  Li6  1  0.00117800  0.25000000  0.73447300  1
  Li  Li7  1  0.50117800  0.75000000  0.76552700  1
  Zn  Zn0  1  0.59638800  0.75000000  0.08663100  1
  Zn  Zn1  1  0.09638800  0.25000000  0.41336900  1
  Zn  Zn2  1  0.40361200  0.25000000  0.91336900  1
  Zn  Zn3  1  0.90361200  0.75000000  0.58663100  1
  I  I0  1  0.22634000  0.75000000  0.08965800  1
  I  I1  1  0.72634000  0.25000000  0.41034200  1
  I  I2  1  0.77366000  0.25000000  0.91034200  1
  I  I3  1  0.27366000  0.75000000  0.58965800  1
  I  I4  1  0.74783000  0.75000000  0.42512700  1
  I  I5  1  0.24783000  0.25000000  0.07487300  1
  I  I6  1  0.25217000  0.25000000  0.57487300  1
  I  I7  1  0.75217000  0.75000000  0.92512700  1
  I  I8  1  0.75401700  0.99089300  0.16660900  1
  I  I9  1  0.25401700  0.00910700  0.33339100  1
  I  I10  1  0.24598300  0.49089300  0.83339100  1
  I  I11  1  0.74598300  0.50910700  0.66660900  1
  I  I12  1  0.24598300  0.00910700  0.83339100  1
  I  I13  1  0.74598300  0.99089300  0.66660900  1
  I  I14  1  0.75401700  0.50910700  0.16660900  1
  I  I15  1  0.25401700  0.49089300  0.33339100  1
loop_
_geom_bond_atom_site_label_1
_geom_bond_atom_site_label_2
_geom_bond_distance
_geom_bond_site_symmetry_2
I0 Zn0 2.614389 1_555
I0 Li0 3.013339 1_565
I0 Li2 3.013339 1_555
I0 Li4 3.090396 1_455
I1 Zn1 2.614389 1_655
I1 Li3 3.013339 1_555
I1 Li1 3.013339 1_555
I1 Li5 3.090396 1_555
I2 Zn2 2.614389 1_555
I2 Li2 3.013339 1_656
I2 Li0 3.013339 1_656
I2 Li6 3.090396 1_655
I3 Zn3 2.614389 1_455
I3 Li3 3.013339 1_555
I3 Li1 3.013339 1_565
I3 Li7 3.090396 1_555
I4 Zn3 2.662098 1_555
I4 Li4 2.980198 1_555
I4 Li1 3.006775 1_565
I4 Li3 3.006775 1_555
I5 Zn2 2.662098 1_554
I5 Li5 2.980198 1_555
I5 Li2 3.006775 1_555
I5 Li0 3.006775 1_555
I6 Zn1 2.662098 1_555
I6 Li6 2.980198 1_555
I6 Li1 3.006775 1_555
I6 Li3 3.006775 1_555
I7 Zn0 2.662098 1_556
I7 Li7 2.980198 1_555
I7 Li0 3.006775 1_666
I7 Li2 3.006775 1_656
I8 Zn0 2.656445 1_555
I8 Li0 3.046092 1_665
I8 Li5 3.057747 1_565
I8 Li4 3.093634 1_555
I9 Zn1 2.656445 1_555
I9 Li1 3.046092 1_555
I9 Li4 3.057747 1_445
I9 Li5 3.093634 1_555
I10 Zn2 2.656445 1_555
I10 Li2 3.046092 1_556
I10 Li7 3.057747 1_555
I10 Li6 3.093634 1_555
I11 Zn3 2.656445 1_555
I11 Li3 3.046092 1_555
I11 Li6 3.057747 1_655
I11 Li7 3.093634 1_555
I12 Zn2 2.656445 1_555
I12 Li0 3.046092 1_556
I12 Li7 3.057747 1_545
I12 Li6 3.093634 1_555
I13 Zn3 2.656445 1_555
I13 Li1 3.046092 1_565
I13 Li6 3.057747 1_665
I13 Li7 3.093634 1_555
I14 Zn0 2.656445 1_555
I14 Li2 3.046092 1_655
I14 Li5 3.057747 1_555
I14 Li4 3.093634 1_555
I15 Zn1 2.656445 1_555
I15 Li3 3.046092 1_555
I15 Li4 3.057747 1_455
I15 Li5 3.093634 1_555
