# generated using pymatgen
data_La3MgTi4O12
_symmetry_space_group_name_H-M   'P 1'
_cell_length_a   5.51663326
_cell_length_b   5.51532676
_cell_length_c   7.93194977
_cell_angle_alpha   90.00186136
_cell_angle_beta   90.00063414
_cell_angle_gamma   90.17907127
_symmetry_Int_Tables_number   1
_chemical_formula_structural   La3MgTi4O12
_chemical_formula_sum   'La3 Mg1 Ti4 O12'
_cell_volume   241.33660264
_cell_formula_units_Z   1
loop_
 _symmetry_equiv_pos_site_id
 _symmetry_equiv_pos_as_xyz
  1  'x, y, z'
loop_
 _atom_site_type_symbol
 _atom_site_label
 _atom_site_symmetry_multiplicity
 _atom_site_fract_x
 _atom_site_fract_y
 _atom_site_fract_z
 _atom_site_occupancy
  La  La0  1  0.22955161  0.22943540  0.99998568  1
  La  La1  1  0.26183098  0.26198441  0.49998088  1
  La  La2  1  0.73727544  0.73716891  0.00013411  1
  Mg  Mg0  1  0.76880266  0.76877797  0.50009181  1
  Ti  Ti0  1  0.25137414  0.74957824  0.25671580  1
  Ti  Ti1  1  0.25126833  0.74954373  0.74329538  1
  Ti  Ti2  1  0.74958148  0.25135038  0.25668616  1
  Ti  Ti3  1  0.74951665  0.25123277  0.74334370  1
  O  O0  1  0.96473504  0.96470602  0.19978871  1
  O  O1  1  0.96451280  0.96452989  0.80020175  1
  O  O2  1  0.05366348  0.44863136  0.24813874  1
  O  O3  1  0.05355935  0.44849185  0.75180351  1
  O  O4  1  0.15905187  0.77916554  0.49996223  1
  O  O5  1  0.29812836  0.70688151  0.99999088  1
  O  O6  1  0.44849711  0.05367712  0.24837551  1
  O  O7  1  0.44840568  0.05360285  0.75155501  1
  O  O8  1  0.56473344  0.56476926  0.31246208  1
  O  O9  1  0.56453939  0.56456786  0.68750166  1
  O  O10  1  0.70664891  0.29783394  0.99998637  1
  O  O11  1  0.77952428  0.15927398  0.49999903  1
loop_
_geom_bond_atom_site_label_1
_geom_bond_atom_site_label_2
_geom_bond_distance
_geom_bond_site_symmetry_2
La0 O2 2.506911 1_556
La0 O3 2.506989 1_555
La0 O6 2.507527 1_556
La0 O7 2.507668 1_555
La0 O0 2.600878 1_446
La0 O1 2.601938 1_445
La0 O10 2.657701 1_555
La0 O5 2.659137 1_555
La0 O5 2.907951 1_545
La0 O10 2.910393 1_455
La1 O7 2.523820 1_555
La1 O6 2.523995 1_555
La1 O3 2.524938 1_555
La1 O2 2.525146 1_555
La1 O11 2.718612 1_455
La1 O4 2.720864 1_545
La1 O9 2.787195 1_555
La1 O8 2.788567 1_555
La1 O4 2.909967 1_555
La1 O11 2.913300 1_555
La2 O0 2.376418 1_555
La2 O1 2.376804 1_554
La2 O5 2.427845 1_554
La2 O10 2.428433 1_554
La2 O8 2.818160 1_555
La2 O9 2.820944 1_554
La2 O10 3.097391 1_564
La2 O5 3.099047 1_654
Mg0 O4 2.153445 1_655
Mg0 O11 2.154340 1_565
Mg0 O8 2.177216 1_555
Mg0 O9 2.177216 1_555
O0 Ti2 2.030646 1_565
O0 Ti0 2.030733 1_655
O1 Ti3 2.030336 1_565
O1 Ti1 2.030730 1_655
O2 Ti0 1.984421 1_555
O2 Ti2 1.997780 1_455
O3 Ti1 1.984885 1_555
O3 Ti3 1.997506 1_455
O4 Ti0 2.002299 1_555
O4 Ti1 2.002828 1_555
O5 Ti1 2.065981 1_555
O5 Ti0 2.066150 1_556
O6 Ti2 1.985058 1_555
O6 Ti0 1.997138 1_545
O7 Ti3 1.985027 1_555
O7 Ti1 1.996971 1_545
O8 Ti0 2.057631 1_555
O8 Ti2 2.057829 1_555
O9 Ti1 2.057755 1_555
O9 Ti3 2.057927 1_555
O10 Ti3 2.065508 1_555
O10 Ti2 2.065926 1_556
O11 Ti2 2.002610 1_555
O11 Ti3 2.002691 1_555
