# generated using pymatgen
data_MgCrCo5O12
_symmetry_space_group_name_H-M   'P 1'
_cell_length_a   5.00087025
_cell_length_b   4.96262386
_cell_length_c   10.02381974
_cell_angle_alpha   93.90990838
_cell_angle_beta   98.17392946
_cell_angle_gamma   59.67370079
_symmetry_Int_Tables_number   1
_chemical_formula_structural   MgCrCo5O12
_chemical_formula_sum   'Mg1 Cr1 Co5 O12'
_cell_volume   212.54213695
_cell_formula_units_Z   1
loop_
 _symmetry_equiv_pos_site_id
 _symmetry_equiv_pos_as_xyz
  1  'x, y, z'
loop_
 _atom_site_type_symbol
 _atom_site_label
 _atom_site_symmetry_multiplicity
 _atom_site_fract_x
 _atom_site_fract_y
 _atom_site_fract_z
 _atom_site_occupancy
  Mg  Mg0  1  0.42221400  0.34139400  0.25226500  1
  Cr  Cr0  1  0.01077100  0.00751900  0.00342100  1
  Co  Co0  1  0.14903000  0.67398100  0.50041600  1
  Co  Co1  1  0.67748500  0.67425100  0.00402900  1
  Co  Co2  1  0.33851900  0.34112900  0.98585800  1
  Co  Co3  1  0.81557200  0.34374300  0.50633600  1
  Co  Co4  1  0.47898500  0.01265500  0.50104000  1
  O  O0  1  0.05613000  0.64659300  0.10330800  1
  O  O1  1  0.32975400  0.67126400  0.90367900  1
  O  O2  1  0.15069000  0.34347100  0.39143500  1
  O  O3  1  0.45109800  0.66641200  0.40014600  1
  O  O4  1  0.47710400  0.34320800  0.59925600  1
  O  O5  1  0.18281800  0.00482600  0.59207600  1
  O  O6  1  0.84560100  0.68001300  0.59184000  1
  O  O7  1  0.67923300  0.34977700  0.10336100  1
  O  O8  1  0.38254000  0.02253100  0.10324400  1
  O  O9  1  0.97086600  0.35670100  0.90351200  1
  O  O10  1  0.64545400  0.99755600  0.90388500  1
  O  O11  1  0.77363800  0.02297500  0.40089300  1
loop_
_geom_bond_atom_site_label_1
_geom_bond_atom_site_label_2
_geom_bond_distance
_geom_bond_site_symmetry_2
Mg0 O2 2.076654 1_555
Mg0 O7 2.118863 1_555
Mg0 O11 2.139448 1_555
Mg0 O0 2.146154 1_555
Mg0 O3 2.160575 1_555
Mg0 O8 2.164505 1_555
Cr0 O1 1.966387 1_544
Cr0 O9 1.968804 1_454
Cr0 O10 1.975262 1_444
Cr0 O0 2.007943 1_545
Cr0 O7 2.008432 1_455
Cr0 O8 2.015934 1_555
Co0 O4 1.846019 1_555
Co0 O6 1.867902 1_455
Co0 O5 1.897024 1_565
Co0 O2 1.904768 1_555
Co0 O3 1.913850 1_555
Co0 O11 1.984623 1_465
Co1 O9 1.876199 1_554
Co1 O10 1.876683 1_554
Co1 O1 1.887487 1_554
Co1 O8 1.939124 1_565
Co1 O7 1.945844 1_555
Co1 O0 1.953215 1_655
Co2 O10 1.860917 1_545
Co2 O1 1.861689 1_555
Co2 O9 1.871193 1_455
Co2 O0 1.935414 1_556
Co2 O8 1.939424 1_556
Co2 O7 1.946425 1_556
Co3 O6 1.887692 1_555
Co3 O5 1.889275 1_655
Co3 O11 1.933836 1_555
Co3 O3 1.937185 1_555
Co3 O4 2.045905 1_555
Co3 O2 2.163670 1_655
Co4 O4 1.851237 1_555
Co4 O5 1.864167 1_555
Co4 O6 1.894432 1_545
Co4 O2 1.899708 1_555
Co4 O11 1.919754 1_555
Co4 O3 1.989880 1_545
