# generated using pymatgen
data_InP2H9(NO4)2
_symmetry_space_group_name_H-M   'P 1'
_cell_length_a   9.91032752
_cell_length_b   9.91032752
_cell_length_c   6.67239133
_cell_angle_alpha   72.04772728
_cell_angle_beta   72.04772728
_cell_angle_gamma   125.77688524
_symmetry_Int_Tables_number   1
_chemical_formula_structural   InP2H9(NO4)2
_chemical_formula_sum   'In2 P4 H18 N4 O16'
_cell_volume   391.61963927
_cell_formula_units_Z   2
loop_
 _symmetry_equiv_pos_site_id
 _symmetry_equiv_pos_as_xyz
  1  'x, y, z'
loop_
 _atom_site_type_symbol
 _atom_site_label
 _atom_site_symmetry_multiplicity
 _atom_site_fract_x
 _atom_site_fract_y
 _atom_site_fract_z
 _atom_site_occupancy
  In  In0  1  0.64128441  0.89047048  0.71884816  1
  In  In1  1  0.89047048  0.64128441  0.21884816  1
  P  P0  1  0.45424891  0.10673708  0.75666102  1
  P  P1  1  0.10673708  0.45424891  0.25666102  1
  P  P2  1  0.63604724  0.78845067  0.25775612  1
  P  P3  1  0.78845067  0.63604724  0.75775612  1
  H  H0  1  0.13109393  0.76101615  0.65367660  1
  H  H1  1  0.37268761  0.87317560  0.55535580  1
  H  H2  1  0.70466333  0.23335643  0.99437166  1
  H  H3  1  0.34451366  0.94342443  0.31634380  1
  H  H4  1  0.94342443  0.34451366  0.81634380  1
  H  H5  1  0.23335643  0.70466333  0.49437166  1
  H  H6  1  0.87317560  0.37268761  0.05535580  1
  H  H7  1  0.76101615  0.13109393  0.15367660  1
  H  H8  1  0.27376263  0.52633134  0.44557349  1
  H  H9  1  0.08721997  0.21661678  0.15144628  1
  H  H10  1  0.07496504  0.07427253  0.05313656  1
  H  H11  1  0.27588067  0.30423296  0.49222649  1
  H  H12  1  0.24276334  0.34114610  0.81372856  1
  H  H13  1  0.34114610  0.24276334  0.31372856  1
  H  H14  1  0.30423296  0.27588067  0.99222649  1
  H  H15  1  0.07427253  0.07496504  0.55313656  1
  H  H16  1  0.21661678  0.08721997  0.65144628  1
  H  H17  1  0.52633134  0.27376263  0.94557349  1
  N  N0  1  0.27260102  0.82188317  0.50659546  1
  N  N1  1  0.82188317  0.27260102  0.00659546  1
  N  N2  1  0.17430302  0.22309007  0.00434701  1
  N  N3  1  0.22309007  0.17430302  0.50434701  1
  O  O0  1  0.57606317  0.32152888  0.50771437  1
  O  O1  1  0.21586310  0.95990163  0.89435346  1
  O  O2  1  0.49613189  0.13867464  0.95495147  1
  O  O3  1  0.01107466  0.51719297  0.18479514  1
  O  O4  1  0.51719297  0.01107466  0.68479514  1
  O  O5  1  0.13867464  0.49613189  0.45495147  1
  O  O6  1  0.32152888  0.57606317  0.00771437  1
  O  O7  1  0.95990163  0.21586310  0.39435346  1
  O  O8  1  0.67053430  0.91644611  0.00828421  1
  O  O9  1  0.64638834  0.89075259  0.39424957  1
  O  O10  1  0.40770558  0.54952376  0.45527911  1
  O  O11  1  0.80074646  0.80631234  0.68278067  1
  O  O12  1  0.80631234  0.80074646  0.18278067  1
  O  O13  1  0.54952376  0.40770558  0.95527911  1
  O  O14  1  0.91644611  0.67053430  0.50828421  1
  O  O15  1  0.89075259  0.64638834  0.89424957  1
loop_
_geom_bond_atom_site_label_1
_geom_bond_atom_site_label_2
_geom_bond_distance
_geom_bond_site_symmetry_2
In0 O8 2.108142 1_556
In0 O6 2.110230 1_556
In0 O9 2.149892 1_555
In0 O7 2.152395 1_565
In0 O11 2.163647 1_555
In0 O4 2.171653 1_565
In1 O14 2.108142 1_555
In1 O0 2.110230 1_555
In1 O15 2.149892 1_554
In1 O1 2.152395 1_654
In1 O12 2.163647 1_555
In1 O3 2.171653 1_655
H0 N0 1.044607 1_555
H0 O15 1.701657 1_455
H1 N0 1.029287 1_555
H2 N1 1.028159 1_556
H3 N0 1.032576 1_555
H4 N1 1.032576 1_556
H5 N0 1.028159 1_555
H6 N1 1.029287 1_555
H7 N1 1.044607 1_555
H7 O9 1.701657 1_545
H8 O5 1.163660 1_555
H8 O10 1.234702 1_555
H9 N2 1.042378 1_555
H9 O7 1.714604 1_455
H10 N2 1.029111 1_555
H11 N3 1.029721 1_555
H12 N2 1.034129 1_556
H13 N3 1.034129 1_555
H14 N2 1.029721 1_556
H15 N3 1.029111 1_555
H16 N3 1.042378 1_555
H16 O1 1.714604 1_545
H17 O2 1.163660 1_555
H17 O13 1.234702 1_555
O0 P0 1.525508 1_555
O1 P0 1.536575 1_565
O2 P0 1.570369 1_555
O3 P1 1.518283 1_555
O4 P0 1.518283 1_555
O5 P1 1.570369 1_555
O6 P1 1.525508 1_555
O7 P1 1.536575 1_655
O8 P2 1.528859 1_555
O9 P2 1.540478 1_555
O10 P2 1.561109 1_555
O11 P3 1.521186 1_555
O12 P2 1.521186 1_555
O13 P3 1.561109 1_555
O14 P3 1.528859 1_555
O15 P3 1.540478 1_555
