# generated using pymatgen
data_Na4HfMgSi(PO6)2
_symmetry_space_group_name_H-M   'P 1'
_cell_length_a   9.09486128
_cell_length_b   9.11306636
_cell_length_c   22.24634907
_cell_angle_alpha   89.85555097
_cell_angle_beta   90.00000000
_cell_angle_gamma   119.93393894
_symmetry_Int_Tables_number   1
_chemical_formula_structural   Na4HfMgSi(PO6)2
_chemical_formula_sum   'Na24 Hf6 Mg6 Si6 P12 O72'
_cell_volume   1597.85316653
_cell_formula_units_Z   6
loop_
 _symmetry_equiv_pos_site_id
 _symmetry_equiv_pos_as_xyz
  1  'x, y, z'
loop_
 _atom_site_type_symbol
 _atom_site_label
 _atom_site_symmetry_multiplicity
 _atom_site_fract_x
 _atom_site_fract_y
 _atom_site_fract_z
 _atom_site_occupancy
  Na  Na0  1  0.63638226  0.01369424  0.24872704  1
  Na  Na1  1  0.36997613  0.35396538  0.24936417  1
  Na  Na2  1  0.99109619  0.62969896  0.24383428  1
  Na  Na3  1  0.63860277  0.62969896  0.74383428  1
  Na  Na4  1  0.98398924  0.35396538  0.74936417  1
  Na  Na5  1  0.37731199  0.01369424  0.74872704  1
  Na  Na6  1  0.31242983  0.34949318  0.58281919  1
  Na  Na7  1  0.03268312  0.69256512  0.58021595  1
  Na  Na8  1  0.65100826  0.95228799  0.57890089  1
  Na  Na9  1  0.30128073  0.95228799  0.07890089  1
  Na  Na10  1  0.65988300  0.69256512  0.08021595  1
  Na  Na11  1  0.03706434  0.34949318  0.08281919  1
  Na  Na12  1  0.98014189  0.68413937  0.91743587  1
  Na  Na13  1  0.70176135  0.02747525  0.91090749  1
  Na  Na14  1  0.32024859  0.28854760  0.91367397  1
  Na  Na15  1  0.96829802  0.28854760  0.41367397  1
  Na  Na16  1  0.32571289  0.02747525  0.41090749  1
  Na  Na17  1  0.70399648  0.68413937  0.41743587  1
  Na  Na18  1  0.99178466  0.99565814  0.49441075  1
  Na  Na19  1  0.00387348  0.99565814  0.99441075  1
  Na  Na20  1  0.66378841  0.32466026  0.82788622  1
  Na  Na21  1  0.66087285  0.32466026  0.32788622  1
  Na  Na22  1  0.32579971  0.66789619  0.16134808  1
  Na  Na23  1  0.34209548  0.66789619  0.66134808  1
  Hf  Hf0  1  0.99342899  0.99581863  0.64898805  1
  Hf  Hf1  1  0.00238964  0.99581863  0.14898805  1
  Hf  Hf2  1  0.66717697  0.33383918  0.98241465  1
  Hf  Hf3  1  0.66666321  0.33383918  0.48241465  1
  Hf  Hf4  1  0.33567458  0.67342858  0.31571086  1
  Hf  Hf5  1  0.33775301  0.67342858  0.81571086  1
  Mg  Mg0  1  0.00086194  0.00114886  0.34974225  1
  Mg  Mg1  1  0.00028691  0.00114886  0.84974225  1
  Mg  Mg2  1  0.66499870  0.33183784  0.68322607  1
  Mg  Mg3  1  0.66684014  0.33183784  0.18322607  1
  Mg  Mg4  1  0.32734444  0.66889685  0.01655512  1
  Mg  Mg5  1  0.34155142  0.66889685  0.51655512  1
  Si  Si0  1  0.29920319  0.00418027  0.25299783  1
  Si  Si1  1  0.70497708  0.00418027  0.75299783  1
  Si  Si2  1  0.66326591  0.62653885  0.58602112  1
  Si  Si3  1  0.96327394  0.62653885  0.08602112  1
  Si  Si4  1  0.32998437  0.96457095  0.91909870  1
  Si  Si5  1  0.63458558  0.96457095  0.41909870  1
  P  P0  1  0.70613934  0.70460257  0.25219937  1
  P  P1  1  0.99918656  0.29277374  0.25162126  1
  P  P2  1  0.29358718  0.29277374  0.75162126  1
  P  P3  1  0.99846322  0.70460257  0.75219937  1
  P  P4  1  0.96226732  0.33589235  0.58525870  1
  P  P5  1  0.37212317  0.03854679  0.58537947  1
  P  P6  1  0.66642463  0.03854679  0.08537947  1
  P  P7  1  0.37362604  0.33589235  0.08525870  1
  P  P8  1  0.62647636  0.66683137  0.91907721  1
  P  P9  1  0.04122314  0.37215895  0.91853778  1
  P  P10  1  0.33093480  0.37215895  0.41853778  1
  P  P11  1  0.04035401  0.66683137  0.41907721  1
  O  O0  1  0.21064175  0.03133853  0.31094254  1
  O  O1  1  0.81460713  0.78902500  0.30712982  1
  O  O2  1  0.97297098  0.18350747  0.30682584  1
  O  O3  1  0.21053648  0.18350747  0.80682584  1
  O  O4  1  0.97441787  0.78902500  0.80712982  1
  O  O5  1  0.82069677  0.03133853  0.81094254  1
  O  O6  1  0.79329884  0.96814773  0.69294114  1
  O  O7  1  0.18066940  0.20894161  0.69443228  1
  O  O8  1  0.03416681  0.82135153  0.69505098  1
  O  O9  1  0.78718471  0.82135153  0.19505098  1
  O  O10  1  0.02827220  0.20894161  0.19443228  1
  O  O11  1  0.17484889  0.96814773  0.19294114  1
  O  O12  1  0.87890293  0.35976824  0.64056630  1
  O  O13  1  0.48232966  0.11940119  0.64021307  1
  O  O14  1  0.63876296  0.51167895  0.64401178  1
  O  O15  1  0.87291699  0.51167895  0.14401178  1
  O  O16  1  0.63707252  0.11940119  0.14021307  1
  O  O17  1  0.48086631  0.35976824  0.14056630  1
  O  O18  1  0.45508509  0.30075279  0.02838120  1
  O  O19  1  0.84090448  0.54089768  0.02565107  1
  O  O20  1  0.69559813  0.15340503  0.02834576  1
  O  O21  1  0.45780790  0.15340503  0.52834576  1
  O  O22  1  0.69999420  0.54089768  0.52565107  1
  O  O23  1  0.84566871  0.30075279  0.52838120  1
  O  O24  1  0.54109647  0.68927623  0.97445653  1
  O  O25  1  0.15104814  0.45474690  0.97366638  1
  O  O26  1  0.30229119  0.84802534  0.97690145  1
  O  O27  1  0.54573315  0.84802534  0.47690145  1
  O  O28  1  0.30369776  0.45474690  0.47366638  1
  O  O29  1  0.14817876  0.68927623  0.47445653  1
  O  O30  1  0.12336639  0.63418552  0.36210689  1
  O  O31  1  0.50935563  0.87549030  0.35909621  1
  O  O32  1  0.36253794  0.48597661  0.36135394  1
  O  O33  1  0.12343767  0.48597661  0.86135394  1
  O  O34  1  0.36613367  0.87549030  0.85909621  1
  O  O35  1  0.51081813  0.63418552  0.86210689  1
  O  O36  1  0.01731441  0.82140621  0.41159124  1
  O  O37  1  0.82263456  0.98781797  0.41125432  1
  O  O38  1  0.17797871  0.19333231  0.41205326  1
  O  O39  1  0.01535360  0.19333231  0.91205326  1
  O  O40  1  0.16518341  0.98781797  0.91125432  1
  O  O41  1  0.80409180  0.82140621  0.91159124  1
  O  O42  1  0.98139511  0.17341288  0.58902486  1
  O  O43  1  0.19533379  0.02988546  0.58888293  1
  O  O44  1  0.84230229  0.81705933  0.58770320  1
  O  O45  1  0.97475704  0.81705933  0.08770320  1
  O  O46  1  0.83455167  0.02988546  0.08888293  1
  O  O47  1  0.19201777  0.17341288  0.08902486  1
  O  O48  1  0.67867511  0.16681592  0.74500843  1
  O  O49  1  0.47247790  0.31720478  0.74522590  1
  O  O50  1  0.84348402  0.52735893  0.74462374  1
  O  O51  1  0.68387590  0.52735893  0.24462374  1
  O  O52  1  0.84472787  0.31720478  0.24522590  1
  O  O53  1  0.48814181  0.16681592  0.24500843  1
  O  O54  1  0.64063523  0.50160956  0.92196654  1
  O  O55  1  0.86222334  0.36002245  0.92274091  1
  O  O56  1  0.50718137  0.15407987  0.92112992  1
  O  O57  1  0.64689950  0.15407987  0.42112992  1
  O  O58  1  0.49780010  0.36002245  0.42274091  1
  O  O59  1  0.86097532  0.50160956  0.42196654  1
  O  O60  1  0.35386671  0.49269587  0.07658024  1
  O  O61  1  0.15220842  0.65024632  0.08027507  1
  O  O62  1  0.51554521  0.85812124  0.07782134  1
  O  O63  1  0.34257503  0.85812124  0.57782134  1
  O  O64  1  0.49803690  0.65024632  0.58027507  1
  O  O65  1  0.13882816  0.49269587  0.57658024  1
  O  O66  1  0.30824860  0.82433753  0.25426407  1
  O  O67  1  0.52478331  0.68681691  0.25579071  1
  O  O68  1  0.16580404  0.47071235  0.25563785  1
  O  O69  1  0.30490731  0.47071235  0.75563785  1
  O  O70  1  0.16203260  0.68681691  0.75579071  1
  O  O71  1  0.51608792  0.82433753  0.75426407  1
loop_
_geom_bond_atom_site_label_1
_geom_bond_atom_site_label_2
_geom_bond_distance
_geom_bond_site_symmetry_2
Na0 O53 2.376701 1_555
Na0 O52 2.452593 1_555
Na0 O16 2.595735 1_555
Na0 O66 2.599723 1_545
Na0 O67 2.628433 1_545
Na0 O31 2.735281 1_545
Na0 O2 2.952743 1_555
Na0 O9 2.964655 1_545
Na1 O53 2.429650 1_555
Na1 O51 2.480997 1_555
Na1 O68 2.563585 1_555
Na1 O17 2.612313 1_555
Na1 O67 2.635080 1_555
Na1 O32 2.784794 1_555
Na1 O0 2.889374 1_555
Na1 O10 2.967700 1_555
Na2 O51 2.465052 1_555
Na2 O52 2.469629 1_555
Na2 O15 2.470182 1_555
Na2 O66 2.533004 1_655
Na2 O68 2.643579 1_655
Na2 O30 2.884987 1_655
Na2 O11 2.902740 1_655
Na2 O1 3.000602 1_555
Na3 O50 2.465061 1_555
Na3 O49 2.469629 1_555
Na3 O14 2.470184 1_555
Na3 O71 2.533012 1_555
Na3 O69 2.643587 1_555
Na3 O35 2.884991 1_555
Na3 O6 2.902740 1_555
Na3 O4 3.000602 1_555
Na4 O48 2.429643 1_555
Na4 O50 2.480989 1_555
Na4 O69 2.563577 1_655
Na4 O12 2.612310 1_555
Na4 O70 2.635080 1_655
Na4 O33 2.784792 1_655
Na4 O5 2.889374 1_555
Na4 O7 2.967700 1_655
Na5 O48 2.376709 1_555
Na5 O49 2.452591 1_555
Na5 O13 2.595737 1_555
Na5 O71 2.599715 1_545
Na5 O70 2.628434 1_545
Na5 O34 2.735279 1_545
Na5 O3 2.952743 1_555
Na5 O8 2.964655 1_545
Na6 O64 2.397187 1_555
Na6 O65 2.504124 1_555
Na6 O43 2.556953 1_555
Na6 O42 2.614527 1_455
Na6 O28 2.624314 1_555
Na6 O7 2.773797 1_555
Na6 O14 2.911817 1_555
Na6 O21 2.962920 1_555
Na7 O63 2.445090 1_555
Na7 O65 2.451867 1_555
Na7 O44 2.504871 1_455
Na7 O29 2.582931 1_555
Na7 O43 2.672039 1_565
Na7 O8 2.811265 1_555
Na7 O22 2.893751 1_455
Na7 O12 2.950039 1_455
Na8 O64 2.385515 1_555
Na8 O27 2.464013 1_555
Na8 O63 2.490698 1_555
Na8 O44 2.592766 1_555
Na8 O42 2.664527 1_565
Na8 O6 2.819054 1_555
Na8 O23 2.975388 1_565
Na8 O13 2.979144 1_565
Na9 O61 2.385515 1_555
Na9 O26 2.464010 1_554
Na9 O62 2.490680 1_555
Na9 O45 2.592774 1_455
Na9 O47 2.664534 1_565
Na9 O11 2.819058 1_555
Na9 O18 2.975388 1_565
Na9 O16 2.979143 1_565
Na10 O62 2.445105 1_555
Na10 O60 2.451881 1_555
Na10 O45 2.504863 1_555
Na10 O24 2.582939 1_554
Na10 O46 2.672039 1_565
Na10 O9 2.811263 1_555
Na10 O19 2.893751 1_555
Na10 O17 2.950039 1_555
Na11 O61 2.397189 1_555
Na11 O60 2.504108 1_555
Na11 O46 2.556954 1_455
Na11 O47 2.614519 1_555
Na11 O25 2.624311 1_554
Na11 O10 2.773795 1_555
Na11 O15 2.911817 1_455
Na11 O20 2.962919 1_455
Na12 O40 2.420718 1_655
Na12 O41 2.478606 1_555
Na12 O55 2.593316 1_555
Na12 O4 2.641177 1_555
Na12 O54 2.680407 1_555
Na12 O19 2.727191 1_556
Na12 O26 2.864928 1_655
Na12 O33 2.979322 1_655
Na13 O5 2.465451 1_555
Na13 O39 2.473361 1_655
Na13 O41 2.477316 1_545
Na13 O56 2.560010 1_555
Na13 O55 2.640709 1_555
Na13 O20 2.867925 1_556
Na13 O34 2.890191 1_545
Na14 O40 2.376132 1_545
Na14 O39 2.458141 1_555
Na14 O56 2.549070 1_555
Na14 O3 2.572977 1_555
Na14 O54 2.578774 1_555
Na14 O18 2.809503 1_556
Na14 O35 2.962228 1_555
Na14 O25 2.963021 1_555
Na15 O37 2.376132 1_545
Na15 O38 2.458149 1_655
Na15 O57 2.549053 1_555
Na15 O2 2.572979 1_555
Na15 O59 2.578760 1_555
Na15 O23 2.809495 1_555
Na15 O30 2.962228 1_655
Na15 O28 2.963021 1_655
Na16 O0 2.465447 1_555
Na16 O38 2.473353 1_555
Na16 O36 2.477309 1_545
Na16 O57 2.560027 1_555
Na16 O58 2.640709 1_555
Na16 O21 2.867929 1_555
Na16 O31 2.890191 1_545
Na17 O37 2.420717 1_555
Na17 O36 2.478615 1_655
Na17 O58 2.593313 1_555
Na17 O1 2.641178 1_555
Na17 O59 2.680423 1_555
Na17 O22 2.727195 1_555
Na17 O27 2.864928 1_555
Na17 O32 2.979322 1_555
Na18 O37 2.384317 1_555
Na18 O36 2.520484 1_655
Na18 O38 2.531490 1_665
Na18 O44 2.565021 1_555
Na18 O42 2.689459 1_565
Na18 O43 2.714484 1_665
Na19 O40 2.384317 1_555
Na19 O41 2.520484 1_455
Na19 O39 2.531490 1_565
Na19 O45 2.565021 1_456
Na19 O47 2.689459 1_566
Na19 O46 2.714484 1_466
Na20 O48 2.386321 1_555
Na20 O49 2.509220 1_555
Na20 O50 2.546364 1_555
Na20 O56 2.553837 1_555
Na20 O55 2.690121 1_555
Na20 O54 2.716795 1_555
Na21 O53 2.386321 1_555
Na21 O52 2.509220 1_555
Na21 O51 2.546364 1_555
Na21 O57 2.553837 1_555
Na21 O58 2.690121 1_555
Na21 O59 2.716795 1_555
Na22 O61 2.349334 1_555
Na22 O62 2.536562 1_555
Na22 O66 2.563713 1_555
Na22 O60 2.567568 1_555
Na22 O68 2.667921 1_555
Na22 O67 2.722034 1_555
Na23 O64 2.349334 1_555
Na23 O63 2.536562 1_555
Na23 O71 2.563713 1_555
Na23 O65 2.567568 1_555
Na23 O69 2.667921 1_555
Na23 O70 2.722034 1_555
Hf0 O6 1.968078 1_555
Hf0 O44 2.044095 1_555
Hf0 O8 2.072417 1_655
Hf0 O7 2.098392 1_665
Hf0 O42 2.139307 1_565
Hf0 O43 2.164536 1_665
Hf1 O11 1.968078 1_555
Hf1 O45 2.044095 1_455
Hf1 O9 2.072417 1_455
Hf1 O10 2.098392 1_565
Hf1 O47 2.139307 1_565
Hf1 O46 2.164536 1_465
Hf2 O19 2.003965 1_556
Hf2 O20 2.056782 1_556
Hf2 O18 2.067711 1_556
Hf2 O56 2.071719 1_555
Hf2 O55 2.131201 1_555
Hf2 O54 2.135914 1_555
Hf3 O22 2.003965 1_555
Hf3 O21 2.056782 1_555
Hf3 O23 2.067711 1_555
Hf3 O57 2.071719 1_555
Hf3 O58 2.131201 1_555
Hf3 O59 2.135914 1_555
Hf4 O31 1.980793 1_555
Hf4 O66 2.038377 1_555
Hf4 O30 2.056846 1_555
Hf4 O32 2.101583 1_555
Hf4 O67 2.130647 1_555
Hf4 O68 2.179374 1_555
Hf5 O34 1.980793 1_555
Hf5 O71 2.038377 1_555
Hf5 O35 2.056846 1_555
Hf5 O33 2.101583 1_555
Hf5 O70 2.130647 1_555
Hf5 O69 2.179374 1_555
Mg0 O0 1.983890 1_555
Mg0 O2 2.037229 1_455
Mg0 O1 2.060634 1_445
Mg0 O37 2.077848 1_445
Mg0 O38 2.186406 1_555
Mg0 O36 2.198145 1_545
Mg1 O5 1.983890 1_455
Mg1 O3 2.037229 1_555
Mg1 O4 2.060634 1_445
Mg1 O40 2.077848 1_545
Mg1 O39 2.186406 1_555
Mg1 O41 2.198145 1_445
Mg2 O14 1.971560 1_555
Mg2 O13 2.055014 1_555
Mg2 O12 2.062699 1_555
Mg2 O48 2.083837 1_555
Mg2 O49 2.179917 1_555
Mg2 O50 2.191158 1_555
Mg3 O15 1.971560 1_555
Mg3 O16 2.055014 1_555
Mg3 O17 2.062699 1_555
Mg3 O53 2.083837 1_555
Mg3 O52 2.179917 1_555
Mg3 O51 2.191158 1_555
Mg4 O26 1.964387 1_554
Mg4 O25 2.043605 1_554
Mg4 O61 2.074616 1_555
Mg4 O24 2.080795 1_554
Mg4 O60 2.189848 1_555
Mg4 O62 2.197078 1_555
Mg5 O27 1.964387 1_555
Mg5 O28 2.043605 1_555
Mg5 O64 2.074616 1_555
Mg5 O29 2.080795 1_555
Mg5 O65 2.189848 1_555
Mg5 O63 2.197078 1_555
O0 Si0 1.603820 1_555
O1 P0 1.518440 1_555
O2 P1 1.521017 1_555
O3 P2 1.521017 1_555
O4 P3 1.518440 1_555
O5 Si1 1.603820 1_555
O6 Si1 1.674376 1_565
O7 P2 1.574428 1_555
O8 P3 1.581807 1_455
O9 P0 1.581807 1_555
O10 P1 1.574428 1_455
O11 Si0 1.674376 1_565
O12 P4 1.517249 1_555
O13 P5 1.517581 1_555
O14 Si2 1.603122 1_555
O15 Si3 1.603122 1_555
O16 P6 1.517581 1_555
O17 P7 1.517249 1_555
O18 P7 1.578372 1_555
O19 Si3 1.670281 1_555
O20 P6 1.578598 1_555
O21 P5 1.578598 1_555
O22 Si2 1.670281 1_555
O23 P4 1.578372 1_555
O24 P8 1.523941 1_555
O25 P9 1.524014 1_555
O26 Si4 1.603481 1_555
O27 Si5 1.603481 1_555
O28 P10 1.524014 1_555
O29 P11 1.523941 1_555
O30 P11 1.578237 1_555
O31 Si5 1.679501 1_555
O32 P10 1.572447 1_555
O33 P9 1.572447 1_555
O34 Si4 1.679501 1_555
O35 P8 1.578237 1_555
O36 P11 1.532755 1_555
O37 Si5 1.624377 1_555
O38 P10 1.533124 1_555
O39 P9 1.533128 1_555
O40 Si4 1.624368 1_555
O41 P8 1.532760 1_555
O42 P4 1.576757 1_555
O43 P5 1.571902 1_555
O44 Si2 1.687050 1_555
O45 Si3 1.687054 1_555
O46 P6 1.571893 1_555
O47 P7 1.576762 1_555
O48 Si1 1.624181 1_555
O49 P2 1.534674 1_555
O50 P3 1.534059 1_555
O51 P0 1.534063 1_555
O52 P1 1.534665 1_555
O53 Si0 1.624186 1_555
O54 P8 1.575053 1_555
O55 P9 1.578462 1_655
O56 Si4 1.674674 1_545
O57 Si5 1.674666 1_545
O58 P10 1.578480 1_555
O59 P11 1.575043 1_655
O60 P7 1.538308 1_555
O61 Si3 1.626359 1_455
O62 P6 1.537666 1_565
O63 P5 1.537659 1_565
O64 Si2 1.626377 1_555
O65 P4 1.538297 1_455
O66 Si0 1.681649 1_565
O67 P0 1.576810 1_555
O68 P1 1.575489 1_455
O69 P2 1.575493 1_555
O70 P3 1.576801 1_455
O71 Si1 1.681654 1_565
