# generated using pymatgen
data_Ba2CuGe2O7
_symmetry_space_group_name_H-M   'P 1'
_cell_length_a   8.60686200
_cell_length_b   8.60686200
_cell_length_c   5.50933100
_cell_angle_alpha   90.00000000
_cell_angle_beta   90.00000000
_cell_angle_gamma   90.00000000
_symmetry_Int_Tables_number   1
_chemical_formula_structural   Ba2CuGe2O7
_chemical_formula_sum   'Ba4 Cu2 Ge4 O14'
_cell_volume   408.12062668
_cell_formula_units_Z   2
loop_
 _symmetry_equiv_pos_site_id
 _symmetry_equiv_pos_as_xyz
  1  'x, y, z'
loop_
 _atom_site_type_symbol
 _atom_site_label
 _atom_site_symmetry_multiplicity
 _atom_site_fract_x
 _atom_site_fract_y
 _atom_site_fract_z
 _atom_site_occupancy
  Ba  Ba0  1  0.66597500  0.16597500  0.99083500  1
  Ba  Ba1  1  0.83402500  0.66597500  0.00916500  1
  Ba  Ba2  1  0.16597500  0.33402500  0.00916500  1
  Ba  Ba3  1  0.33402500  0.83402500  0.99083500  1
  Cu  Cu0  1  0.00000000  0.00000000  0.50000000  1
  Cu  Cu1  1  0.50000000  0.50000000  0.50000000  1
  Ge  Ge0  1  0.86114100  0.36114100  0.52370300  1
  Ge  Ge1  1  0.13885900  0.63885900  0.52370300  1
  Ge  Ge2  1  0.63885900  0.86114100  0.47629700  1
  Ge  Ge3  1  0.36114100  0.13885900  0.47629700  1
  O  O0  1  0.68523700  0.41788500  0.66692100  1
  O  O1  1  0.31476300  0.58211500  0.66692100  1
  O  O2  1  0.41788500  0.31476300  0.33307900  1
  O  O3  1  0.58211500  0.68523700  0.33307900  1
  O  O4  1  0.91788500  0.18523700  0.66692100  1
  O  O5  1  0.81476300  0.91788500  0.33307900  1
  O  O6  1  0.18523700  0.08211500  0.33307900  1
  O  O7  1  0.08211500  0.81476300  0.66692100  1
  O  O8  1  0.86554300  0.36554300  0.20761600  1
  O  O9  1  0.63445700  0.86554300  0.79238400  1
  O  O10  1  0.00000000  0.50000000  0.65288500  1
  O  O11  1  0.50000000  0.00000000  0.34711500  1
  O  O12  1  0.13445700  0.63445700  0.20761600  1
  O  O13  1  0.36554300  0.13445700  0.79238400  1
loop_
_geom_bond_atom_site_label_1
_geom_bond_atom_site_label_2
_geom_bond_distance
_geom_bond_site_symmetry_2
Ba0 O8 2.706856 1_556
Ba0 O0 2.813005 1_555
Ba0 O4 2.813005 1_555
Ba0 O11 2.816771 1_556
Ba0 O13 2.820497 1_555
Ba0 O9 2.820497 1_545
Ba0 O5 3.123232 1_546
Ba0 O2 3.123232 1_556
Ba1 O9 2.706856 1_554
Ba1 O5 2.813005 1_555
Ba1 O3 2.813005 1_555
Ba1 O10 2.816771 1_654
Ba1 O8 2.820497 1_555
Ba1 O12 2.820497 1_655
Ba1 O7 3.123232 1_654
Ba1 O0 3.123232 1_554
Ba2 O13 2.706856 1_554
Ba2 O2 2.813005 1_555
Ba2 O6 2.813005 1_555
Ba2 O10 2.816771 1_554
Ba2 O8 2.820497 1_455
Ba2 O12 2.820497 1_555
Ba2 O1 3.123232 1_554
Ba2 O4 3.123232 1_454
Ba3 O12 2.706856 1_556
Ba3 O1 2.813005 1_555
Ba3 O7 2.813005 1_555
Ba3 O11 2.816771 1_566
Ba3 O13 2.820497 1_565
Ba3 O9 2.820497 1_555
Ba3 O6 3.123232 1_566
Ba3 O3 3.123232 1_556
Cu0 O7 1.971555 1_545
Cu0 O5 1.971555 1_445
Cu0 O6 1.971555 1_555
Cu0 O4 1.971555 1_455
Cu1 O0 1.971555 1_555
Cu1 O1 1.971555 1_555
Cu1 O2 1.971555 1_555
Cu1 O3 1.971555 1_555
Ge0 O8 1.742252 1_555
Ge0 O4 1.775736 1_555
Ge0 O0 1.775736 1_555
Ge0 O10 1.833916 1_655
Ge1 O12 1.742252 1_555
Ge1 O1 1.775736 1_555
Ge1 O7 1.775736 1_555
Ge1 O10 1.833916 1_555
Ge2 O9 1.742252 1_555
Ge2 O3 1.775736 1_555
Ge2 O5 1.775736 1_555
Ge2 O11 1.833916 1_565
Ge3 O13 1.742252 1_555
Ge3 O6 1.775736 1_555
Ge3 O2 1.775736 1_555
Ge3 O11 1.833916 1_555
