# generated using pymatgen
data_PrCoO3
_symmetry_space_group_name_H-M   'P 1'
_cell_length_a   5.40230677
_cell_length_b   5.34896231
_cell_length_c   7.59490712
_cell_angle_alpha   90.00000000
_cell_angle_beta   90.00000000
_cell_angle_gamma   90.00000000
_symmetry_Int_Tables_number   1
_chemical_formula_structural   PrCoO3
_chemical_formula_sum   'Pr4 Co4 O12'
_cell_volume   219.46802067
_cell_formula_units_Z   4
loop_
 _symmetry_equiv_pos_site_id
 _symmetry_equiv_pos_as_xyz
  1  'x, y, z'
loop_
 _atom_site_type_symbol
 _atom_site_label
 _atom_site_symmetry_multiplicity
 _atom_site_fract_x
 _atom_site_fract_y
 _atom_site_fract_z
 _atom_site_occupancy
  Pr  Pr0  1  0.00537148  0.97288180  0.75000000  1
  Pr  Pr1  1  0.49462852  0.47288180  0.75000000  1
  Pr  Pr2  1  0.50537148  0.52711820  0.25000000  1
  Pr  Pr3  1  0.99462852  0.02711820  0.25000000  1
  Co  Co0  1  0.50000000  0.00000000  0.50000000  1
  Co  Co1  1  -0.00000000  0.50000000  0.00000000  1
  Co  Co2  1  -0.00000000  0.50000000  0.50000000  1
  Co  Co3  1  0.50000000  0.00000000  0.00000000  1
  O  O0  1  0.72326272  0.27638975  0.46370545  1
  O  O1  1  0.77673728  0.77638975  0.03629455  1
  O  O2  1  0.22326272  0.22361025  0.53629455  1
  O  O3  1  0.27673728  0.72361025  0.96370545  1
  O  O4  1  0.27673728  0.72361025  0.53629455  1
  O  O5  1  0.22326272  0.22361025  0.96370545  1
  O  O6  1  0.77673728  0.77638975  0.46370545  1
  O  O7  1  0.72326272  0.27638975  0.03629455  1
  O  O8  1  0.06640753  0.49242651  0.25000000  1
  O  O9  1  0.43359247  0.99242651  0.25000000  1
  O  O10  1  0.56640753  0.00757349  0.75000000  1
  O  O11  1  0.93359247  0.50757349  0.75000000  1
loop_
_geom_bond_atom_site_label_1
_geom_bond_atom_site_label_2
_geom_bond_distance
_geom_bond_site_symmetry_2
Co0 O4 1.927798 1_545
Co0 O0 1.927798 1_555
Co0 O9 1.932746 1_545
Co0 O10 1.932746 1_555
Co0 O6 1.934343 1_545
Co0 O2 1.934343 1_555
Co1 O1 1.927798 1_455
Co1 O5 1.927798 1_554
Co1 O11 1.932746 1_454
Co1 O8 1.932746 1_555
Co1 O7 1.934343 1_455
Co1 O3 1.934343 1_554
Co2 O2 1.927798 1_555
Co2 O6 1.927798 1_455
Co2 O11 1.932746 1_455
Co2 O8 1.932746 1_555
Co2 O0 1.934343 1_455
Co2 O4 1.934343 1_555
Co3 O3 1.927798 1_544
Co3 O7 1.927798 1_555
Co3 O10 1.932746 1_554
Co3 O9 1.932746 1_545
Co3 O5 1.934343 1_554
Co3 O1 1.934343 1_545
O0 Pr2 2.412181 1_555
O0 Pr3 2.561510 1_555
O0 Pr1 2.712599 1_555
O0 Pr0 3.112269 1_645
O1 Pr3 2.412181 1_565
O1 Pr2 2.561510 1_555
O1 Pr0 2.712599 1_654
O1 Pr1 3.112269 1_554
O2 Pr0 2.412181 1_545
O2 Pr1 2.561510 1_555
O2 Pr3 2.712599 1_455
O2 Pr2 3.112269 1_555
O3 Pr1 2.412181 1_555
O3 Pr0 2.561510 1_555
O3 Pr2 2.712599 1_556
O3 Pr3 3.112269 1_466
O4 Pr1 2.412181 1_555
O4 Pr0 2.561510 1_555
O4 Pr2 2.712599 1_555
O4 Pr3 3.112269 1_465
O5 Pr0 2.412181 1_545
O5 Pr1 2.561510 1_555
O5 Pr3 2.712599 1_456
O5 Pr2 3.112269 1_556
O6 Pr3 2.412181 1_565
O6 Pr2 2.561510 1_555
O6 Pr0 2.712599 1_655
O6 Pr1 3.112269 1_555
O7 Pr2 2.412181 1_555
O7 Pr3 2.561510 1_555
O7 Pr1 2.712599 1_554
O7 Pr0 3.112269 1_644
O8 Pr2 2.378667 1_555
O8 Pr3 2.518943 1_455
O8 Pr3 2.886214 1_465
O8 Pr2 3.036564 1_455
O9 Pr3 2.378667 1_465
O9 Pr2 2.518943 1_555
O9 Pr2 2.886214 1_565
O9 Pr3 3.036564 1_565
O10 Pr0 2.378667 1_645
O10 Pr1 2.518943 1_555
O10 Pr1 2.886214 1_545
O10 Pr0 3.036564 1_545
O11 Pr1 2.378667 1_555
O11 Pr0 2.518943 1_655
O11 Pr0 2.886214 1_645
O11 Pr1 3.036564 1_655
