# generated using pymatgen
data_Pr2MgV4O12
_symmetry_space_group_name_H-M   'P 1'
_cell_length_a   5.36417652
_cell_length_b   5.49990547
_cell_length_c   7.58826963
_cell_angle_alpha   90.05050656
_cell_angle_beta   90.72365534
_cell_angle_gamma   90.63128911
_symmetry_Int_Tables_number   1
_chemical_formula_structural   Pr2MgV4O12
_chemical_formula_sum   'Pr2 Mg1 V4 O12'
_cell_volume   223.84108993
_cell_formula_units_Z   1
loop_
 _symmetry_equiv_pos_site_id
 _symmetry_equiv_pos_as_xyz
  1  'x, y, z'
loop_
 _atom_site_type_symbol
 _atom_site_label
 _atom_site_symmetry_multiplicity
 _atom_site_fract_x
 _atom_site_fract_y
 _atom_site_fract_z
 _atom_site_occupancy
  Pr  Pr0  1  0.00864500  0.95950600  0.75030700  1
  Pr  Pr1  1  0.51310600  0.54281200  0.24467700  1
  Mg  Mg0  1  0.98142200  0.05571700  0.25618700  1
  V  V0  1  0.00070400  0.49852200  0.99186500  1
  V  V1  1  0.01317200  0.49561600  0.50042000  1
  V  V2  1  0.50192800  0.01231000  0.50279600  1
  V  V3  1  0.49072800  0.00835400  0.99992000  1
  O  O0  1  0.07898000  0.45913100  0.24467100  1
  O  O1  1  0.23119300  0.21467700  0.96287800  1
  O  O2  1  0.19927000  0.19920200  0.53168600  1
  O  O3  1  0.27294100  0.70580600  0.53220100  1
  O  O4  1  0.28193300  0.72309200  0.96585300  1
  O  O5  1  0.38997000  0.98694600  0.25483100  1
  O  O6  1  0.56797900  0.00394800  0.74134900  1
  O  O7  1  0.73598500  0.26310800  0.05910800  1
  O  O8  1  0.72347800  0.28756100  0.45215900  1
  O  O9  1  0.79102200  0.79500000  0.05210000  1
  O  O10  1  0.79743400  0.80721600  0.44120600  1
  O  O11  1  0.92847400  0.50528900  0.75685800  1
loop_
_geom_bond_atom_site_label_1
_geom_bond_atom_site_label_2
_geom_bond_distance
_geom_bond_site_symmetry_2
Mg0 O10 2.195864 1_545
Mg0 O5 2.228177 1_645
Mg0 O0 2.276008 1_655
Mg0 O7 2.292867 1_555
Mg0 O9 2.328409 1_545
Mg0 O8 2.416481 1_555
Mg0 O2 2.504763 1_655
O0 V0 1.971227 1_554
O0 V1 1.987296 1_555
O0 Pr1 2.368792 1_555
O1 V3 1.824930 1_555
O1 V0 2.015669 1_555
O1 Pr0 2.430447 1_545
O2 V1 1.934190 1_555
O2 V2 1.945705 1_555
O2 Pr0 2.356409 1_545
O3 V1 1.814324 1_555
O3 V2 2.088603 1_565
O3 Pr0 2.606696 1_555
O3 Pr1 2.704922 1_555
O4 V3 1.932873 1_565
O4 V0 1.951184 1_555
O4 Pr0 2.549541 1_555
O4 Pr1 2.638549 1_556
O5 V2 1.972257 1_565
O5 V3 2.018177 1_564
O5 Pr1 2.538798 1_555
O6 V2 1.840868 1_555
O6 V3 2.010682 1_555
O6 Pr0 2.379215 1_645
O7 V3 1.959342 1_554
O7 V0 1.982954 1_654
O7 Pr1 2.420328 1_555
O8 V1 1.950391 1_655
O8 V2 1.955682 1_555
O8 Pr1 2.391029 1_555
O9 V3 2.038344 1_564
O9 V0 2.045722 1_654
O9 Pr1 2.508937 1_555
O9 Pr0 2.733817 1_654
O10 V2 2.015113 1_565
O10 V1 2.123694 1_655
O10 Pr1 2.560225 1_555
O10 Pr0 2.719418 1_655
O11 V0 1.820614 1_655
O11 V1 2.004630 1_655
O11 Pr0 2.530861 1_655
