# generated using pymatgen
data_Na3Ca2Nb4(PO4)9
_symmetry_space_group_name_H-M   'P 1'
_cell_length_a   8.91285096
_cell_length_b   8.91285066
_cell_length_c   23.16209229
_cell_angle_alpha   90.00000000
_cell_angle_beta   90.00000000
_cell_angle_gamma   120.00000110
_symmetry_Int_Tables_number   1
_chemical_formula_structural   Na3Ca2Nb4(PO4)9
_chemical_formula_sum   'Na6 Ca4 Nb8 P18 O72'
_cell_volume   1593.46191852
_cell_formula_units_Z   2
loop_
 _symmetry_equiv_pos_site_id
 _symmetry_equiv_pos_as_xyz
  1  'x, y, z'
loop_
 _atom_site_type_symbol
 _atom_site_label
 _atom_site_symmetry_multiplicity
 _atom_site_fract_x
 _atom_site_fract_y
 _atom_site_fract_z
 _atom_site_occupancy
  Na  Na0  1  -0.00000000  0.00000000  0.49588776  1
  Na  Na1  1  -0.00000000  0.00000000  0.99588776  1
  Na  Na2  1  0.66666700  0.33333300  0.82253185  1
  Na  Na3  1  0.66666700  0.33333300  0.32253185  1
  Na  Na4  1  0.33333300  0.66666700  0.16788217  1
  Na  Na5  1  0.33333300  0.66666700  0.66788217  1
  Ca  Ca0  1  -0.00000000  0.00000000  0.35894386  1
  Ca  Ca1  1  -0.00000000  0.00000000  0.85894386  1
  Ca  Ca2  1  0.66666700  0.33333300  0.68139090  1
  Ca  Ca3  1  0.66666700  0.33333300  0.18139090  1
  Nb  Nb0  1  -0.00000000  0.00000000  0.65028898  1
  Nb  Nb1  1  -0.00000000  0.00000000  0.15028898  1
  Nb  Nb2  1  0.66666700  0.33333300  0.97999215  1
  Nb  Nb3  1  0.66666700  0.33333300  0.47999215  1
  Nb  Nb4  1  0.33333300  0.66666700  0.01964667  1
  Nb  Nb5  1  0.33333300  0.66666700  0.51964667  1
  Nb  Nb6  1  0.33333300  0.66666700  0.31024729  1
  Nb  Nb7  1  0.33333300  0.66666700  0.81024729  1
  P  P0  1  0.29063445  0.99695292  0.25253025  1
  P  P1  1  0.70631847  0.70936555  0.25253025  1
  P  P2  1  0.00304708  0.29368153  0.25253025  1
  P  P3  1  0.29063445  0.29368153  0.75253025  1
  P  P4  1  0.00304708  0.70936555  0.75253025  1
  P  P5  1  0.70631847  0.99695292  0.75253025  1
  P  P6  1  0.96100892  0.32970460  0.58191037  1
  P  P7  1  0.36869669  0.03899108  0.58191037  1
  P  P8  1  0.67029540  0.63130331  0.58191037  1
  P  P9  1  0.96100892  0.63130331  0.08191037  1
  P  P10  1  0.67029540  0.03899108  0.08191037  1
  P  P11  1  0.36869669  0.32970460  0.08191037  1
  P  P12  1  0.61247266  0.65721910  0.91833777  1
  P  P13  1  0.04474544  0.38752734  0.91833777  1
  P  P14  1  0.34278090  0.95525456  0.91833777  1
  P  P15  1  0.61247266  0.95525456  0.41833777  1
  P  P16  1  0.34278090  0.38752734  0.41833777  1
  P  P17  1  0.04474544  0.65721910  0.41833777  1
  O  O0  1  0.20729165  0.01476142  0.30548416  1
  O  O1  1  0.80746977  0.79270835  0.30548416  1
  O  O2  1  0.98523858  0.19253023  0.30548416  1
  O  O3  1  0.20729165  0.19253023  0.80548416  1
  O  O4  1  0.98523858  0.79270835  0.80548416  1
  O  O5  1  0.80746977  0.01476142  0.80548416  1
  O  O6  1  0.80260312  0.97147997  0.69607407  1
  O  O7  1  0.16887685  0.19739688  0.69607407  1
  O  O8  1  0.02852003  0.83112315  0.69607407  1
  O  O9  1  0.80260312  0.83112315  0.19607407  1
  O  O10  1  0.02852003  0.19739688  0.19607407  1
  O  O11  1  0.16887685  0.97147997  0.19607407  1
  O  O12  1  0.90529155  0.37802751  0.63579690  1
  O  O13  1  0.47273697  0.09470845  0.63579690  1
  O  O14  1  0.62197249  0.52726303  0.63579690  1
  O  O15  1  0.90529155  0.52726303  0.13579690  1
  O  O16  1  0.62197249  0.09470845  0.13579690  1
  O  O17  1  0.47273697  0.37802751  0.13579690  1
  O  O18  1  0.46721599  0.30602459  0.02894609  1
  O  O19  1  0.83880959  0.53278401  0.02894609  1
  O  O20  1  0.69397541  0.16119041  0.02894609  1
  O  O21  1  0.46721599  0.16119041  0.52894609  1
  O  O22  1  0.69397541  0.53278401  0.52894609  1
  O  O23  1  0.83880959  0.30602459  0.52894609  1
  O  O24  1  0.50960436  0.66457174  0.97084467  1
  O  O25  1  0.15496638  0.49039564  0.97084467  1
  O  O26  1  0.33542826  0.84503362  0.97084467  1
  O  O27  1  0.50960436  0.84503362  0.47084467  1
  O  O28  1  0.33542826  0.49039564  0.47084467  1
  O  O29  1  0.15496638  0.66457174  0.47084467  1
  O  O30  1  0.13292563  0.63476737  0.36301850  1
  O  O31  1  0.50184074  0.86707437  0.36301850  1
  O  O32  1  0.36523263  0.49815926  0.36301850  1
  O  O33  1  0.13292563  0.49815926  0.86301850  1
  O  O34  1  0.36523263  0.86707437  0.86301850  1
  O  O35  1  0.50184074  0.63476737  0.86301850  1
  O  O36  1  0.02513643  0.81426255  0.42029851  1
  O  O37  1  0.78912612  0.97486357  0.42029851  1
  O  O38  1  0.18573745  0.21087388  0.42029851  1
  O  O39  1  0.02513643  0.21087388  0.92029851  1
  O  O40  1  0.18573745  0.97486357  0.92029851  1
  O  O41  1  0.78912612  0.81426255  0.92029851  1
  O  O42  1  0.97743544  0.16427088  0.58760597  1
  O  O43  1  0.18683544  0.02256456  0.58760597  1
  O  O44  1  0.83572912  0.81316456  0.58760597  1
  O  O45  1  0.97743544  0.81316456  0.08760597  1
  O  O46  1  0.83572912  0.02256456  0.08760597  1
  O  O47  1  0.18683544  0.16427088  0.08760597  1
  O  O48  1  0.66950406  0.14078587  0.74320841  1
  O  O49  1  0.47128281  0.33049594  0.74320841  1
  O  O50  1  0.85921413  0.52871719  0.74320841  1
  O  O51  1  0.66950406  0.52871719  0.24320841  1
  O  O52  1  0.85921413  0.33049594  0.24320841  1
  O  O53  1  0.47128281  0.14078587  0.24320841  1
  O  O54  1  0.62235718  0.48632427  0.92624973  1
  O  O55  1  0.86396809  0.37764282  0.92624973  1
  O  O56  1  0.51367573  0.13603191  0.92624973  1
  O  O57  1  0.62235718  0.13603191  0.42624973  1
  O  O58  1  0.51367573  0.37764282  0.42624973  1
  O  O59  1  0.86396809  0.48632427  0.42624973  1
  O  O60  1  0.33670750  0.48391102  0.06740167  1
  O  O61  1  0.14720252  0.66329250  0.06740167  1
  O  O62  1  0.51608898  0.85279748  0.06740167  1
  O  O63  1  0.33670750  0.85279748  0.56740167  1
  O  O64  1  0.51608898  0.66329250  0.56740167  1
  O  O65  1  0.14720252  0.48391102  0.56740167  1
  O  O66  1  0.29281949  0.81787382  0.25668904  1
  O  O67  1  0.52505332  0.70718051  0.25668904  1
  O  O68  1  0.18212618  0.47494668  0.25668904  1
  O  O69  1  0.29281949  0.47494668  0.75668904  1
  O  O70  1  0.18212618  0.70718051  0.75668904  1
  O  O71  1  0.52505332  0.81787382  0.75668904  1
loop_
_geom_bond_atom_site_label_1
_geom_bond_atom_site_label_2
_geom_bond_distance
_geom_bond_site_symmetry_2
Na0 O38 2.495378 1_555
Na0 O36 2.495378 1_545
Na0 O37 2.495378 1_445
Na0 O44 2.644158 1_445
Na0 O42 2.644158 1_455
Na0 O43 2.644158 1_555
Na1 O39 2.495378 1_555
Na1 O41 2.495378 1_445
Na1 O40 2.495378 1_545
Na1 O45 2.644158 1_446
Na1 O47 2.644158 1_556
Na1 O46 2.644158 1_456
Na2 O50 2.522864 1_555
Na2 O48 2.522864 1_555
Na2 O49 2.522864 1_555
Na2 O56 2.885310 1_555
Na2 O54 2.885310 1_555
Na2 O55 2.885310 1_555
Na3 O51 2.522864 1_555
Na3 O53 2.522864 1_555
Na3 O52 2.522864 1_555
Na3 O57 2.885310 1_555
Na3 O59 2.885310 1_555
Na3 O58 2.885310 1_555
Na4 O68 2.581536 1_555
Na4 O67 2.581536 1_555
Na4 O66 2.581536 1_555
Na4 O62 2.849498 1_555
Na4 O60 2.849498 1_555
Na4 O61 2.849498 1_555
Na5 O69 2.581536 1_555
Na5 O71 2.581536 1_555
Na5 O70 2.581536 1_555
Na5 O63 2.849498 1_555
Na5 O65 2.849498 1_555
Na5 O64 2.849498 1_555
Ca0 O1 2.172773 1_445
Ca0 O2 2.172773 1_455
Ca0 O0 2.172773 1_555
Ca0 O38 2.276208 1_555
Ca0 O36 2.276208 1_545
Ca0 O37 2.276208 1_445
Ca1 O4 2.172773 1_445
Ca1 O3 2.172773 1_555
Ca1 O5 2.172773 1_455
Ca1 O39 2.276208 1_555
Ca1 O41 2.276208 1_445
Ca1 O40 2.276208 1_545
Ca2 O14 2.224879 1_555
Ca2 O13 2.224879 1_555
Ca2 O12 2.224879 1_555
Ca2 O50 2.244839 1_555
Ca2 O48 2.244839 1_555
Ca2 O49 2.244839 1_555
Ca3 O17 2.224879 1_555
Ca3 O15 2.224879 1_555
Ca3 O16 2.224879 1_555
Ca3 O51 2.244839 1_555
Ca3 O53 2.244839 1_555
Ca3 O52 2.244839 1_555
Nb0 O7 1.958925 1_555
Nb0 O8 1.958925 1_545
Nb0 O6 1.958925 1_445
Nb0 O44 2.141607 1_445
Nb0 O42 2.141607 1_455
Nb0 O43 2.141607 1_555
Nb1 O10 1.958925 1_555
Nb1 O9 1.958925 1_445
Nb1 O11 1.958925 1_545
Nb1 O45 2.141607 1_445
Nb1 O47 2.141607 1_555
Nb1 O46 2.141607 1_455
Nb2 O20 2.018012 1_556
Nb2 O19 2.018012 1_556
Nb2 O18 2.018012 1_556
Nb2 O56 2.025673 1_555
Nb2 O54 2.025673 1_555
Nb2 O55 2.025673 1_555
Nb3 O23 2.018012 1_555
Nb3 O21 2.018012 1_555
Nb3 O22 2.018012 1_555
Nb3 O57 2.025673 1_555
Nb3 O59 2.025673 1_555
Nb3 O58 2.025673 1_555
Nb4 O26 1.943113 1_554
Nb4 O25 1.943113 1_554
Nb4 O24 1.943113 1_554
Nb4 O62 1.981566 1_555
Nb4 O60 1.981566 1_555
Nb4 O61 1.981566 1_555
Nb5 O27 1.943113 1_555
Nb5 O28 1.943113 1_555
Nb5 O29 1.943113 1_555
Nb5 O63 1.981566 1_555
Nb5 O65 1.981566 1_555
Nb5 O64 1.981566 1_555
Nb6 O68 1.993030 1_555
Nb6 O67 1.993030 1_555
Nb6 O66 1.993030 1_555
Nb6 O31 2.063371 1_555
Nb6 O32 2.063371 1_555
Nb6 O30 2.063371 1_555
Nb7 O69 1.993030 1_555
Nb7 O71 1.993030 1_555
Nb7 O70 1.993030 1_555
Nb7 O34 2.063371 1_555
Nb7 O33 2.063371 1_555
Nb7 O35 2.063371 1_555
O0 P0 1.482984 1_545
O1 P1 1.482984 1_555
O2 P2 1.482984 1_655
O3 P3 1.482984 1_555
O4 P4 1.482984 1_655
O5 P5 1.482984 1_545
O6 P5 1.640966 1_555
O7 P3 1.640966 1_555
O8 P4 1.640966 1_555
O9 P1 1.640966 1_555
O10 P2 1.640966 1_555
O11 P0 1.640966 1_555
O12 P6 1.484523 1_555
O13 P7 1.484523 1_555
O14 P8 1.484523 1_555
O15 P9 1.484523 1_555
O16 P10 1.484523 1_555
O17 P11 1.484523 1_555
O18 P11 1.582990 1_555
O19 P9 1.582990 1_555
O20 P10 1.582990 1_555
O21 P7 1.582990 1_555
O22 P8 1.582990 1_555
O23 P6 1.582990 1_555
O24 P12 1.544040 1_555
O25 P13 1.544040 1_555
O26 P14 1.544040 1_555
O27 P15 1.544040 1_555
O28 P16 1.544040 1_555
O29 P17 1.544040 1_555
O30 P17 1.567408 1_555
O31 P15 1.567408 1_555
O32 P16 1.567408 1_555
O33 P13 1.567408 1_555
O34 P14 1.567408 1_555
O35 P12 1.567408 1_555
O36 P17 1.495463 1_555
O37 P15 1.495472 1_555
O38 P16 1.495469 1_555
O39 P13 1.495472 1_555
O40 P14 1.495463 1_555
O41 P12 1.495469 1_555
O42 P6 1.558468 1_555
O43 P7 1.558477 1_555
O44 P8 1.558473 1_555
O45 P9 1.558477 1_555
O46 P10 1.558468 1_555
O47 P11 1.558473 1_555
O48 P5 1.489412 1_545
O49 P3 1.489420 1_555
O50 P4 1.489417 1_655
O51 P1 1.489420 1_555
O52 P2 1.489412 1_655
O53 P0 1.489417 1_545
O54 P12 1.579731 1_555
O55 P13 1.579714 1_655
O56 P14 1.579722 1_545
O57 P15 1.579714 1_545
O58 P16 1.579731 1_555
O59 P17 1.579722 1_655
O60 P11 1.573250 1_555
O61 P9 1.573233 1_455
O62 P10 1.573239 1_565
O63 P7 1.573233 1_565
O64 P8 1.573250 1_555
O65 P6 1.573239 1_455
O66 P0 1.608818 1_555
O67 P1 1.608827 1_555
O68 P2 1.608822 1_555
O69 P3 1.608827 1_555
O70 P4 1.608818 1_555
O71 P5 1.608822 1_555
