# generated using pymatgen
data_Na8TaAl3Si4(PO12)2
_symmetry_space_group_name_H-M   'P 1'
_cell_length_a   8.85928476
_cell_length_b   8.87039714
_cell_length_c   21.59444829
_cell_angle_alpha   89.65914975
_cell_angle_beta   89.95282227
_cell_angle_gamma   119.90148531
_symmetry_Int_Tables_number   1
_chemical_formula_structural   Na8TaAl3Si4(PO12)2
_chemical_formula_sum   'Na24 Ta3 Al9 Si12 P6 O72'
_cell_volume   1471.06853008
_cell_formula_units_Z   3
loop_
 _symmetry_equiv_pos_site_id
 _symmetry_equiv_pos_as_xyz
  1  'x, y, z'
loop_
 _atom_site_type_symbol
 _atom_site_label
 _atom_site_symmetry_multiplicity
 _atom_site_fract_x
 _atom_site_fract_y
 _atom_site_fract_z
 _atom_site_occupancy
  Na  Na0  1  0.62921248  0.99725553  0.25526198  1
  Na  Na1  1  0.37020646  0.37178666  0.25310977  1
  Na  Na2  1  0.00284452  0.62919851  0.25295117  1
  Na  Na3  1  0.63618480  0.63242551  0.73929708  1
  Na  Na4  1  0.99324033  0.35847438  0.74211529  1
  Na  Na5  1  0.37204571  0.00991125  0.74636549  1
  Na  Na6  1  0.29655527  0.33734197  0.58441259  1
  Na  Na7  1  0.03653156  0.70109653  0.58187926  1
  Na  Na8  1  0.66896187  0.96055672  0.58143118  1
  Na  Na9  1  0.29296757  0.96142747  0.08211524  1
  Na  Na10  1  0.66401538  0.70096710  0.08493002  1
  Na  Na11  1  0.04107494  0.33996750  0.08526938  1
  Na  Na12  1  0.97144838  0.67488232  0.91292266  1
  Na  Na13  1  0.70665545  0.03147443  0.91033080  1
  Na  Na14  1  0.32270701  0.29059963  0.91070291  1
  Na  Na15  1  0.97363994  0.29735163  0.41485388  1
  Na  Na16  1  0.32637312  0.02777397  0.41471064  1
  Na  Na17  1  0.69942848  0.67456023  0.41505586  1
  Na  Na18  1  0.99731368  0.00009891  0.49944466  1
  Na  Na19  1  0.00303965  0.00008437  0.99973733  1
  Na  Na20  1  0.66337338  0.32818235  0.82664489  1
  Na  Na21  1  0.66537868  0.33165903  0.33049982  1
  Na  Na22  1  0.33055409  0.66355580  0.16679485  1
  Na  Na23  1  0.33516890  0.66427425  0.65920669  1
  Ta  Ta0  1  0.66374294  0.33589809  0.98059474  1
  Ta  Ta1  1  0.67163405  0.33718184  0.47813002  1
  Ta  Ta2  1  0.33430007  0.66490015  0.81047994  1
  Al  Al0  1  0.99940866  0.99959557  0.35539834  1
  Al  Al1  1  0.00201986  0.00627358  0.85410616  1
  Al  Al2  1  0.99339419  0.00253510  0.64548772  1
  Al  Al3  1  0.00366453  0.99985779  0.14675718  1
  Al  Al4  1  0.66423977  0.33211044  0.68585997  1
  Al  Al5  1  0.66912721  0.33797529  0.18479774  1
  Al  Al6  1  0.32728122  0.65988250  0.02128783  1
  Al  Al7  1  0.33227650  0.65834331  0.51727743  1
  Al  Al8  1  0.33568456  0.66825646  0.31778106  1
  Si  Si0  1  0.28551786  0.27839918  0.74827201  1
  Si  Si1  1  0.71902567  0.00658740  0.74864077  1
  Si  Si2  1  0.96260875  0.33544367  0.58739592  1
  Si  Si3  1  0.66782127  0.62897142  0.58723309  1
  Si  Si4  1  0.96328237  0.62953437  0.08869706  1
  Si  Si5  1  0.37051000  0.33481786  0.08924385  1
  Si  Si6  1  0.62508813  0.67500508  0.92039574  1
  Si  Si7  1  0.04605269  0.37286610  0.91978875  1
  Si  Si8  1  0.32696669  0.95055448  0.91991700  1
  Si  Si9  1  0.61835768  0.94646843  0.41497210  1
  Si  Si10  1  0.32644011  0.37793668  0.41417948  1
  Si  Si11  1  0.05613805  0.67386646  0.41474527  1
  P  P0  1  0.28961106  0.00062243  0.24920356  1
  P  P1  1  0.71471348  0.71385155  0.24939233  1
  P  P2  1  0.99688449  0.28400851  0.24879747  1
  P  P3  1  0.99668647  0.71846845  0.74973895  1
  P  P4  1  0.37455116  0.04150750  0.58667128  1
  P  P5  1  0.66745563  0.04339840  0.08875595  1
  O  O0  1  0.20307554  0.02886631  0.30664329  1
  O  O1  1  0.82723181  0.80063551  0.30700684  1
  O  O2  1  0.97185715  0.17133161  0.30690490  1
  O  O3  1  0.20096761  0.16697386  0.81156597  1
  O  O4  1  0.97652177  0.80267248  0.80914571  1
  O  O5  1  0.83171301  0.03142515  0.81108347  1
  O  O6  1  0.79657418  0.95994697  0.68871645  1
  O  O7  1  0.16278563  0.19343649  0.68868583  1
  O  O8  1  0.02944848  0.83120398  0.69171278  1
  O  O9  1  0.80341325  0.82762140  0.19118062  1
  O  O10  1  0.02017563  0.19481733  0.19094814  1
  O  O11  1  0.17643577  0.97530268  0.19103076  1
  O  O12  1  0.86410490  0.36584318  0.64539474  1
  O  O13  1  0.49139692  0.13134184  0.64308312  1
  O  O14  1  0.63403734  0.49978519  0.64566194  1
  O  O15  1  0.86850669  0.49732658  0.14627503  1
  O  O16  1  0.63939640  0.13503675  0.14410954  1
  O  O17  1  0.50132020  0.36564448  0.14627542  1
  O  O18  1  0.46120331  0.29643771  0.02704319  1
  O  O19  1  0.83474520  0.53332302  0.02685279  1
  O  O20  1  0.69699257  0.15899719  0.02908430  1
  O  O21  1  0.46284232  0.15760534  0.52750262  1
  O  O22  1  0.69394659  0.53061093  0.52529831  1
  O  O23  1  0.83548531  0.30274552  0.52561085  1
  O  O24  1  0.53316064  0.70363613  0.97983700  1
  O  O25  1  0.16612430  0.46525297  0.97899350  1
  O  O26  1  0.30252929  0.83126649  0.97974984  1
  O  O27  1  0.53147015  0.82849712  0.47636796  1
  O  O28  1  0.29353526  0.46036853  0.47596737  1
  O  O29  1  0.17190311  0.70487300  0.47646082  1
  O  O30  1  0.13336696  0.62840164  0.35355077  1
  O  O31  1  0.49769813  0.86855804  0.35356663  1
  O  O32  1  0.37196074  0.50240870  0.35305993  1
  O  O33  1  0.12875505  0.49837572  0.85750525  1
  O  O34  1  0.36472244  0.86544397  0.85770959  1
  O  O35  1  0.49876108  0.63269726  0.85841683  1
  O  O36  1  0.02310633  0.83875929  0.40747104  1
  O  O37  1  0.81526179  0.97629448  0.40796759  1
  O  O38  1  0.15995315  0.18215369  0.40701035  1
  O  O39  1  0.02231618  0.18141609  0.91276937  1
  O  O40  1  0.15868847  0.97425058  0.91248326  1
  O  O41  1  0.81852516  0.83757170  0.91091828  1
  O  O42  1  0.97822874  0.15977888  0.58782607  1
  O  O43  1  0.19405183  0.02502322  0.58964155  1
  O  O44  1  0.84824728  0.81601289  0.58853860  1
  O  O45  1  0.97349550  0.81851359  0.09128408  1
  O  O46  1  0.83241587  0.02745691  0.09201665  1
  O  O47  1  0.17804796  0.16131766  0.09190806  1
  O  O48  1  0.69035161  0.17521751  0.74377231  1
  O  O49  1  0.48440155  0.31061316  0.74447296  1
  O  O50  1  0.83778781  0.53324321  0.74705725  1
  O  O51  1  0.69577490  0.52809603  0.24620000  1
  O  O52  1  0.82884992  0.30173375  0.24568029  1
  O  O53  1  0.47637709  0.16539244  0.24475458  1
  O  O54  1  0.63781180  0.49411252  0.92215119  1
  O  O55  1  0.85111692  0.35505203  0.92291636  1
  O  O56  1  0.50582870  0.14432473  0.92227689  1
  O  O57  1  0.63969406  0.14411112  0.42087412  1
  O  O58  1  0.50172252  0.35483969  0.42064017  1
  O  O59  1  0.85663452  0.49703520  0.42039635  1
  O  O60  1  0.35962154  0.51151038  0.08083370  1
  O  O61  1  0.15446769  0.64859105  0.08070577  1
  O  O62  1  0.50366511  0.86386281  0.08299613  1
  O  O63  1  0.36057652  0.86262165  0.58084080  1
  O  O64  1  0.49479341  0.64718848  0.57891153  1
  O  O65  1  0.15113375  0.51157451  0.57902613  1
  O  O66  1  0.30835494  0.83432988  0.25243372  1
  O  O67  1  0.52892080  0.69380197  0.25192138  1
  O  O68  1  0.16180200  0.46905666  0.25103673  1
  O  O69  1  0.30477837  0.47784119  0.75227122  1
  O  O70  1  0.16423432  0.69748569  0.75307802  1
  O  O71  1  0.51739040  0.83108012  0.75287328  1
loop_
_geom_bond_atom_site_label_1
_geom_bond_atom_site_label_2
_geom_bond_distance
_geom_bond_site_symmetry_2
Na0 O67 2.378672 1_555
Na0 O52 2.386549 1_565
Na0 O31 2.410008 1_555
Na0 O66 2.465365 1_555
Na0 O53 2.473686 1_565
Na0 O16 2.667953 1_565
Na0 O2 2.862776 1_565
Na0 O9 2.982854 1_555
Na1 O68 2.396522 1_555
Na1 O53 2.447378 1_555
Na1 O32 2.452176 1_555
Na1 O67 2.476179 1_555
Na1 O51 2.504697 1_555
Na1 O17 2.595146 1_555
Na1 O0 2.871650 1_555
Na2 O66 2.392951 1_555
Na2 O51 2.407481 1_455
Na2 O68 2.449051 1_555
Na2 O30 2.463444 1_555
Na2 O52 2.525847 1_455
Na2 O15 2.596139 1_455
Na3 O14 2.340773 1_555
Na3 O50 2.357439 1_555
Na3 O49 2.477555 1_555
Na3 O71 2.480600 1_555
Na3 O69 2.561076 1_555
Na3 O6 2.737949 1_555
Na3 O35 2.845515 1_555
Na4 O48 2.344013 1_555
Na4 O12 2.398405 1_555
Na4 O69 2.424239 1_655
Na4 O50 2.538068 1_555
Na4 O70 2.619367 1_655
Na4 O33 2.783280 1_655
Na4 O7 2.817825 1_655
Na4 O5 2.913423 1_555
Na5 O49 2.336386 1_555
Na5 O48 2.445718 1_555
Na5 O70 2.449207 1_545
Na5 O13 2.466698 1_555
Na5 O71 2.495659 1_545
Na5 O34 2.703295 1_545
Na5 O3 2.888885 1_555
Na5 O8 2.889482 1_545
Na6 O64 2.415726 1_555
Na6 O43 2.449545 1_555
Na6 O42 2.451342 1_455
Na6 O65 2.458707 1_555
Na6 O7 2.560724 1_555
Na6 O28 2.583514 1_555
Na6 O14 2.915259 1_555
Na6 O21 2.929940 1_555
Na7 O44 2.353472 1_455
Na7 O65 2.358755 1_555
Na7 O63 2.488659 1_555
Na7 O43 2.497998 1_565
Na7 O29 2.564412 1_555
Na7 O8 2.658163 1_555
Na7 O22 2.905745 1_455
Na7 O12 2.911562 1_455
Na8 O42 2.413512 1_565
Na8 O64 2.415820 1_555
Na8 O63 2.419280 1_555
Na8 O44 2.493756 1_555
Na8 O27 2.572325 1_555
Na8 O6 2.579893 1_555
Na8 O23 2.886469 1_565
Na8 O13 2.989767 1_565
Na9 O61 2.411077 1_555
Na9 O62 2.417468 1_555
Na9 O47 2.455422 1_565
Na9 O45 2.464883 1_455
Na9 O26 2.520757 1_554
Na9 O11 2.595934 1_555
Na9 O18 2.829435 1_565
Na9 O16 2.983655 1_565
Na10 O60 2.363903 1_555
Na10 O45 2.403200 1_555
Na10 O62 2.480653 1_555
Na10 O46 2.516821 1_565
Na10 O24 2.554572 1_554
Na10 O9 2.589156 1_555
Na10 O19 2.886810 1_555
Na10 O17 2.890541 1_555
Na11 O61 2.401685 1_555
Na11 O47 2.432942 1_555
Na11 O60 2.450549 1_555
Na11 O46 2.451235 1_455
Na11 O25 2.543073 1_554
Na11 O10 2.574212 1_555
Na11 O15 2.857865 1_455
Na11 O20 2.914051 1_455
Na12 O40 2.326222 1_655
Na12 O41 2.422514 1_555
Na12 O55 2.491720 1_555
Na12 O4 2.495571 1_555
Na12 O54 2.572416 1_555
Na12 O19 2.745629 1_556
Na12 O33 2.832082 1_655
Na12 O26 2.929884 1_655
Na13 O41 2.374897 1_545
Na13 O5 2.411916 1_555
Na13 O39 2.425905 1_655
Na13 O56 2.451960 1_555
Na13 O55 2.509499 1_555
Na13 O20 2.827335 1_556
Na13 O34 2.866056 1_545
Na13 O24 2.925733 1_545
Na14 O39 2.334903 1_555
Na14 O3 2.408602 1_555
Na14 O40 2.433224 1_545
Na14 O54 2.468806 1_555
Na14 O56 2.544306 1_555
Na14 O18 2.786234 1_556
Na14 O35 2.855418 1_555
Na14 O25 2.943770 1_555
Na15 O38 2.341068 1_655
Na15 O59 2.461536 1_555
Na15 O37 2.474420 1_545
Na15 O57 2.570053 1_555
Na15 O2 2.587917 1_555
Na15 O23 2.697345 1_555
Na15 O28 2.794174 1_655
Na15 O30 2.861086 1_655
Na16 O36 2.359368 1_545
Na16 O57 2.435977 1_555
Na16 O38 2.467257 1_555
Na16 O58 2.521485 1_555
Na16 O0 2.579477 1_555
Na16 O21 2.714881 1_555
Na16 O29 2.810407 1_545
Na16 O31 2.863196 1_545
Na17 O37 2.344484 1_555
Na17 O58 2.483653 1_555
Na17 O36 2.490648 1_655
Na17 O59 2.572445 1_555
Na17 O1 2.584357 1_555
Na17 O22 2.683652 1_555
Na17 O27 2.806362 1_555
Na17 O32 2.855606 1_555
Na18 O44 2.433183 1_545
Na18 O42 2.438813 1_555
Na18 O37 2.493737 1_545
Na18 O38 2.511031 1_655
Na18 O36 2.530649 1_645
Na18 O43 2.550890 1_655
Na19 O40 2.412491 1_545
Na19 O39 2.415165 1_555
Na19 O45 2.472177 1_446
Na19 O41 2.473368 1_445
Na19 O47 2.497813 1_556
Na19 O46 2.584873 1_456
Na20 O49 2.334213 1_555
Na20 O48 2.335023 1_555
Na20 O50 2.409601 1_555
Na20 O56 2.560912 1_555
Na20 O55 2.600302 1_555
Na20 O54 2.615122 1_555
Na21 O52 2.430521 1_555
Na21 O51 2.432332 1_555
Na21 O53 2.445977 1_555
Na21 O57 2.492251 1_555
Na21 O58 2.496149 1_555
Na21 O59 2.520424 1_555
Na22 O60 2.388804 1_555
Na22 O61 2.389251 1_555
Na22 O68 2.430547 1_555
Na22 O62 2.454384 1_555
Na22 O67 2.465905 1_555
Na22 O66 2.466407 1_555
Na23 O64 2.289564 1_555
Na23 O65 2.306862 1_555
Na23 O63 2.362010 1_555
Na23 O69 2.522256 1_555
Na23 O71 2.558541 1_555
Na23 O70 2.633638 1_555
Al0 O38 1.901367 1_665
Al0 O36 1.903651 1_655
Al0 O37 1.910726 1_555
Al0 O2 1.956782 1_565
Al0 O1 1.968245 1_555
Al0 O0 1.989489 1_665
Al1 O3 1.859888 1_555
Al1 O5 1.877455 1_455
Al1 O39 1.948335 1_555
Al1 O4 1.967194 1_445
Al1 O41 1.984085 1_445
Al1 O40 1.997005 1_545
Al2 O6 1.841451 1_545
Al2 O7 1.864727 1_655
Al2 O42 1.918454 1_555
Al2 O44 1.951656 1_545
Al2 O8 1.968406 1_645
Al2 O43 2.072284 1_655
Al3 O47 1.900429 1_565
Al3 O11 1.907002 1_555
Al3 O9 1.918123 1_455
Al3 O45 1.920625 1_455
Al3 O10 1.921045 1_565
Al3 O46 2.031948 1_465
Al4 O14 1.849082 1_555
Al4 O12 1.858614 1_555
Al4 O13 1.916421 1_555
Al4 O48 1.963433 1_555
Al4 O49 1.966648 1_555
Al4 O50 2.142411 1_555
Al5 O15 1.817778 1_555
Al5 O17 1.823670 1_555
Al5 O16 1.904829 1_555
Al5 O52 2.070202 1_555
Al5 O51 2.070784 1_555
Al5 O53 2.074202 1_555
Al6 O25 1.848388 1_554
Al6 O26 1.865554 1_554
Al6 O24 1.888389 1_554
Al6 O60 1.955538 1_555
Al6 O61 1.960279 1_555
Al6 O62 2.168996 1_555
Al7 O28 1.848169 1_555
Al7 O27 1.870478 1_555
Al7 O29 1.883692 1_555
Al7 O65 1.985222 1_555
Al7 O64 1.999459 1_555
Al7 O63 2.192622 1_555
Al8 O31 1.813761 1_555
Al8 O30 1.815760 1_555
Al8 O32 1.818340 1_555
Al8 O66 2.133428 1_555
Al8 O67 2.147119 1_555
Al8 O68 2.211952 1_555
O0 P0 1.543593 1_555
O1 P1 1.543552 1_555
O2 P2 1.544774 1_555
O3 Si0 1.627950 1_555
O4 P3 1.542591 1_555
O5 Si1 1.627846 1_555
O6 Si1 1.614305 1_565
O7 Si0 1.613306 1_555
O8 P3 1.532803 1_455
O9 P1 1.552013 1_555
O10 P2 1.550217 1_455
O11 P0 1.553939 1_565
O12 Si2 1.624731 1_555
O13 P4 1.543287 1_555
O14 Si3 1.623252 1_555
O15 Si4 1.620325 1_555
O16 P5 1.537498 1_555
O17 Si5 1.620170 1_555
O18 Si5 1.685831 1_555
O18 Ta0 1.927422 1_554
O19 Si4 1.689897 1_555
O19 Ta0 1.933371 1_554
O20 P5 1.580051 1_555
O20 Ta0 2.021717 1_554
O21 P4 1.576233 1_555
O21 Ta1 2.033347 1_555
O22 Si3 1.678779 1_555
O22 Ta1 1.924443 1_555
O23 Si2 1.677507 1_555
O23 Ta1 1.921605 1_555
O24 Si6 1.607412 1_555
O25 Si7 1.607250 1_555
O26 Si8 1.609596 1_555
O27 Si9 1.619895 1_555
O28 Si10 1.619697 1_555
O29 Si11 1.621416 1_555
O30 Si11 1.630025 1_555
O31 Si9 1.629507 1_555
O32 Si10 1.631422 1_555
O33 Si7 1.659082 1_555
O33 Ta2 1.956119 1_555
O34 Si8 1.658162 1_555
O34 Ta2 1.954827 1_555
O35 Si6 1.665646 1_555
O35 Ta2 1.920929 1_555
O36 Si11 1.635175 1_555
O37 Si9 1.635498 1_555
O38 Si10 1.632540 1_555
O39 Si7 1.611914 1_555
O40 Si8 1.613979 1_555
O41 Si6 1.609410 1_555
O42 Si2 1.631591 1_555
O43 P4 1.532708 1_555
O44 Si3 1.632496 1_555
O45 Si4 1.634398 1_555
O46 P5 1.538448 1_555
O47 Si5 1.631450 1_555
O48 Si1 1.640145 1_555
O49 Si0 1.640248 1_555
O50 P3 1.542661 1_555
O51 P1 1.572780 1_555
O52 P2 1.574415 1_555
O53 P0 1.571658 1_555
O54 Si6 1.663871 1_555
O54 Ta0 1.978893 1_555
O55 Si7 1.655183 1_655
O55 Ta0 2.012137 1_555
O56 Si8 1.659376 1_545
O56 Ta0 2.022118 1_555
O57 Si9 1.672683 1_545
O57 Ta1 2.020997 1_555
O58 Si10 1.670356 1_555
O58 Ta1 2.016807 1_555
O59 Si11 1.682988 1_655
O59 Ta1 1.977296 1_555
O60 Si5 1.626716 1_555
O61 Si4 1.625086 1_455
O62 P5 1.534903 1_565
O63 P4 1.534801 1_565
O64 Si3 1.629500 1_555
O65 Si2 1.630230 1_455
O66 P0 1.565668 1_565
O67 P1 1.565813 1_555
O68 P2 1.562476 1_455
O69 Si0 1.693299 1_555
O69 Ta2 1.998581 1_555
O70 P3 1.587016 1_455
O70 Ta2 2.079207 1_555
O71 Si1 1.687713 1_565
O71 Ta2 1.985550 1_555
