# generated using pymatgen
data_MgMn6(O2F)4
_symmetry_space_group_name_H-M   'P 1'
_cell_length_a   11.11461797
_cell_length_b   7.18310252
_cell_length_c   2.98462000
_cell_angle_alpha   89.99881111
_cell_angle_beta   89.99785621
_cell_angle_gamma   106.03568896
_symmetry_Int_Tables_number   1
_chemical_formula_structural   MgMn6(O2F)4
_chemical_formula_sum   'Mg1 Mn6 O8 F4'
_cell_volume   229.01273093
_cell_formula_units_Z   1
loop_
 _symmetry_equiv_pos_site_id
 _symmetry_equiv_pos_as_xyz
  1  'x, y, z'
loop_
 _atom_site_type_symbol
 _atom_site_label
 _atom_site_symmetry_multiplicity
 _atom_site_fract_x
 _atom_site_fract_y
 _atom_site_fract_z
 _atom_site_occupancy
  Mg  Mg0  1  0.83320700  0.66671900  0.50925400  1
  Mn  Mn0  1  0.04249500  0.05175700  0.00889300  1
  Mn  Mn1  1  0.33330000  0.16672400  0.50935700  1
  Mn  Mn2  1  0.03322900  0.50384100  0.50859600  1
  Mn  Mn3  1  0.62407300  0.28152000  0.00883200  1
  Mn  Mn4  1  0.33312100  0.66666700  0.00784100  1
  Mn  Mn5  1  0.63307200  0.82936700  0.50861200  1
  O  O0  1  0.15426600  0.06550700  0.50905300  1
  O  O1  1  0.03304300  0.33213300  0.00848800  1
  O  O2  1  0.96643500  0.64700400  0.00880200  1
  O  O3  1  0.63334100  0.00107600  0.00847900  1
  O  O4  1  0.51232400  0.26796400  0.50900600  1
  O  O5  1  0.21509800  0.63017200  0.50822300  1
  O  O6  1  0.45117500  0.70318100  0.50822400  1
  O  O7  1  0.69992900  0.68623300  0.00883100  1
  F  F0  1  0.32019000  0.35220300  0.00945700  1
  F  F1  1  0.76194900  0.37551900  0.50857900  1
  F  F2  1  0.34641300  0.98125400  0.00940200  1
  F  F3  1  0.90458800  0.95782700  0.50873800  1
loop_
_geom_bond_atom_site_label_1
_geom_bond_atom_site_label_2
_geom_bond_distance
_geom_bond_site_symmetry_2
Mg0 O2 2.133479 1_556
Mg0 O7 2.133490 1_556
Mg0 O2 2.135292 1_555
Mg0 O7 2.135329 1_555
Mn0 O0 1.926312 1_554
Mn0 O0 1.927126 1_555
Mn0 O1 2.045483 1_555
Mn1 O4 1.920587 1_555
Mn1 O0 1.920675 1_555
Mn2 O1 1.935410 1_556
Mn2 O1 1.935947 1_555
Mn2 O5 1.973861 1_555
Mn2 O2 2.062913 1_455
Mn2 O2 2.063793 1_456
Mn3 O4 1.926377 1_554
Mn3 O4 1.927107 1_555
Mn3 O3 2.045311 1_555
Mn4 O5 1.955315 1_554
Mn4 O6 1.955441 1_554
Mn4 O5 1.956971 1_555
Mn4 O6 1.957268 1_555
Mn5 O3 1.935236 1_566
Mn5 O3 1.935808 1_565
Mn5 O6 1.973957 1_555
Mn5 O7 2.063099 1_555
Mn5 O7 2.064054 1_556
F0 Mn1 2.032137 1_555
F0 Mn1 2.032608 1_554
F0 Mn4 2.223426 1_555
F1 Mg0 2.021710 1_555
F1 Mn3 2.111296 1_555
F1 Mn3 2.112262 1_556
F2 Mn1 2.032255 1_565
F2 Mn1 2.032420 1_564
F2 Mn4 2.223444 1_555
F3 Mg0 2.021243 1_555
F3 Mn0 2.111563 1_665
F3 Mn0 2.112317 1_666
