# generated using pymatgen
data_UNCl
_symmetry_space_group_name_H-M   'P 1'
_cell_length_a   3.84964159
_cell_length_b   3.84964159
_cell_length_c   7.52403874
_cell_angle_alpha   90.00000000
_cell_angle_beta   90.00000000
_cell_angle_gamma   90.00000000
_symmetry_Int_Tables_number   1
_chemical_formula_structural   UNCl
_chemical_formula_sum   'U2 N2 Cl2'
_cell_volume   111.50430067
_cell_formula_units_Z   2
loop_
 _symmetry_equiv_pos_site_id
 _symmetry_equiv_pos_as_xyz
  1  'x, y, z'
loop_
 _atom_site_type_symbol
 _atom_site_label
 _atom_site_symmetry_multiplicity
 _atom_site_fract_x
 _atom_site_fract_y
 _atom_site_fract_z
 _atom_site_occupancy
  U  U0  1  0.50000000  0.00000000  0.15652452  1
  U  U1  1  0.00000000  0.50000000  0.84347548  1
  N  N0  1  -0.00000000  0.00000000  0.00000000  1
  N  N1  1  0.50000000  0.50000000  0.00000000  1
  Cl  Cl0  1  0.50000000  0.00000000  0.64038643  1
  Cl  Cl1  1  -0.00000000  0.50000000  0.35961357  1
loop_
_geom_bond_atom_site_label_1
_geom_bond_atom_site_label_2
_geom_bond_distance
_geom_bond_site_symmetry_2
N0 U1 2.256525 1_554
N0 U1 2.256525 1_544
N0 U0 2.256525 1_455
N0 U0 2.256525 1_555
N1 U1 2.256525 1_654
N1 U1 2.256525 1_554
N1 U0 2.256525 1_565
N1 U0 2.256525 1_555
Cl0 U1 3.121667 1_645
Cl0 U1 3.121667 1_545
Cl0 U1 3.121667 1_655
Cl0 U1 3.121667 1_555
Cl1 U0 3.121667 1_565
Cl1 U0 3.121667 1_555
Cl1 U0 3.121667 1_455
Cl1 U0 3.121667 1_465
