# generated using pymatgen
data_MgTi4Pb2O9F2
_symmetry_space_group_name_H-M   'P 1'
_cell_length_a   4.01733900
_cell_length_b   7.76135139
_cell_length_c   7.87235846
_cell_angle_alpha   86.62564625
_cell_angle_beta   75.21724240
_cell_angle_gamma   75.00088314
_symmetry_Int_Tables_number   1
_chemical_formula_structural   MgTi4Pb2O9F2
_chemical_formula_sum   'Mg1 Ti4 Pb2 O9 F2'
_cell_volume   229.24248102
_cell_formula_units_Z   1
loop_
 _symmetry_equiv_pos_site_id
 _symmetry_equiv_pos_as_xyz
  1  'x, y, z'
loop_
 _atom_site_type_symbol
 _atom_site_label
 _atom_site_symmetry_multiplicity
 _atom_site_fract_x
 _atom_site_fract_y
 _atom_site_fract_z
 _atom_site_occupancy
  Mg  Mg0  1  0.00000000  0.00000000  0.00000000  1
  Ti  Ti0  1  0.32030900  0.10264900  0.25673400  1
  Ti  Ti1  1  0.67969100  0.89735100  0.74326600  1
  Ti  Ti2  1  0.37010900  0.70756900  0.55221300  1
  Ti  Ti3  1  0.62989100  0.29243100  0.44778700  1
  Pb  Pb0  1  0.91615200  0.36973200  0.79796500  1
  Pb  Pb1  1  0.08384800  0.63026800  0.20203500  1
  O  O0  1  0.81881500  0.13063500  0.23173500  1
  O  O1  1  0.18118500  0.86936500  0.76826500  1
  O  O2  1  0.13062700  0.29020600  0.44854000  1
  O  O3  1  0.86937300  0.70979400  0.55146000  1
  O  O4  1  0.50000000  0.00000000  0.00000000  1
  O  O5  1  0.56937300  0.52715200  0.33410200  1
  O  O6  1  0.43062700  0.47284800  0.66589800  1
  O  O7  1  0.36939400  0.89290100  0.36831000  1
  O  O8  1  0.63060600  0.10709900  0.63169000  1
  F  F0  1  0.28594200  0.34990200  0.07821400  1
  F  F1  1  0.71405800  0.65009800  0.92178600  1
loop_
_geom_bond_atom_site_label_1
_geom_bond_atom_site_label_2
_geom_bond_distance
_geom_bond_site_symmetry_2
Mg0 O4 2.008669 1_555
Mg0 O4 2.008669 1_455
Mg0 O0 2.010971 1_455
Mg0 O1 2.010971 1_544
O0 Ti0 2.028691 1_555
O0 Ti0 2.028695 1_655
O0 Ti3 2.035968 1_555
O1 Ti1 2.028691 1_555
O1 Ti1 2.028695 1_455
O1 Ti2 2.035968 1_555
O2 Ti3 2.008747 1_455
O2 Ti3 2.008747 1_555
O2 Ti0 2.019191 1_555
O3 Ti2 2.008747 1_655
O3 Ti2 2.008747 1_555
O3 Ti1 2.019191 1_555
O4 Ti0 2.094759 1_555
O4 Ti1 2.094759 1_544
O5 Ti3 1.966904 1_555
O5 Ti2 2.133367 1_555
O5 Pb1 2.377994 1_655
O5 Pb1 2.377997 1_555
O6 Ti2 1.966904 1_555
O6 Ti3 2.133367 1_555
O6 Pb0 2.377994 1_455
O6 Pb0 2.377997 1_555
O7 Ti0 1.792892 1_565
O7 Ti2 1.979873 1_555
O8 Ti1 1.792892 1_545
O8 Ti3 1.979873 1_555
F0 Pb1 2.296905 1_555
F0 Ti0 2.306764 1_555
F1 Pb0 2.296905 1_555
F1 Ti1 2.306764 1_555
