# generated using pymatgen
data_Sr3Sb4S9
_symmetry_space_group_name_H-M   'P 1'
_cell_length_a   4.06263300
_cell_length_b   16.72342400
_cell_length_c   24.48134300
_cell_angle_alpha   90.00000000
_cell_angle_beta   90.00000000
_cell_angle_gamma   90.00000000
_symmetry_Int_Tables_number   1
_chemical_formula_structural   Sr3Sb4S9
_chemical_formula_sum   'Sr12 Sb16 S36'
_cell_volume   1663.29021054
_cell_formula_units_Z   4
loop_
 _symmetry_equiv_pos_site_id
 _symmetry_equiv_pos_as_xyz
  1  'x, y, z'
loop_
 _atom_site_type_symbol
 _atom_site_label
 _atom_site_symmetry_multiplicity
 _atom_site_fract_x
 _atom_site_fract_y
 _atom_site_fract_z
 _atom_site_occupancy
  Sr  Sr0  1  0.75633800  0.37808900  0.05513700  1
  Sr  Sr1  1  0.25633800  0.62191100  0.94486300  1
  Sr  Sr2  1  0.25633800  0.12191100  0.55513700  1
  Sr  Sr3  1  0.75633800  0.87808900  0.44486300  1
  Sr  Sr4  1  0.75750500  0.17485300  0.17602800  1
  Sr  Sr5  1  0.25750500  0.82514700  0.82397200  1
  Sr  Sr6  1  0.25750500  0.32514700  0.67602800  1
  Sr  Sr7  1  0.75750500  0.67485300  0.32397200  1
  Sr  Sr8  1  0.76019600  0.44344100  0.23354200  1
  Sr  Sr9  1  0.26019600  0.55655900  0.76645800  1
  Sr  Sr10  1  0.26019600  0.05655900  0.73354200  1
  Sr  Sr11  1  0.76019600  0.94344100  0.26645800  1
  Sb  Sb0  1  0.72723200  0.83240000  0.98874100  1
  Sb  Sb1  1  0.22723200  0.16760000  0.01125900  1
  Sb  Sb2  1  0.22723200  0.66760000  0.48874100  1
  Sb  Sb3  1  0.72723200  0.33240000  0.51125900  1
  Sb  Sb4  1  0.23687800  0.09092400  0.39452100  1
  Sb  Sb5  1  0.73687800  0.90907600  0.60547900  1
  Sb  Sb6  1  0.73687800  0.40907600  0.89452100  1
  Sb  Sb7  1  0.23687800  0.59092400  0.10547900  1
  Sb  Sb8  1  0.20568400  0.25700000  0.32251000  1
  Sb  Sb9  1  0.70568400  0.74300000  0.67749000  1
  Sb  Sb10  1  0.70568400  0.24300000  0.82251000  1
  Sb  Sb11  1  0.20568400  0.75700000  0.17749000  1
  Sb  Sb12  1  0.20948000  0.47252000  0.38917400  1
  Sb  Sb13  1  0.70948000  0.52748000  0.61082600  1
  Sb  Sb14  1  0.70948000  0.02748000  0.88917400  1
  Sb  Sb15  1  0.20948000  0.97252000  0.11082600  1
  S  S0  1  0.78668200  0.64097500  0.19238200  1
  S  S1  1  0.28668200  0.35902500  0.80761800  1
  S  S2  1  0.28668200  0.85902500  0.69238200  1
  S  S3  1  0.78668200  0.14097500  0.30761800  1
  S  S4  1  0.76668700  0.56114400  0.03748900  1
  S  S5  1  0.26668700  0.43885600  0.96251100  1
  S  S6  1  0.26668700  0.93885600  0.53748900  1
  S  S7  1  0.76668700  0.06114400  0.46251100  1
  S  S8  1  0.25590800  0.45162300  0.13830700  1
  S  S9  1  0.75590800  0.54837700  0.86169300  1
  S  S10  1  0.75590800  0.04837700  0.63830700  1
  S  S11  1  0.25590800  0.95162300  0.36169300  1
  S  S12  1  0.25483500  0.25193700  0.09344700  1
  S  S13  1  0.75483500  0.74806300  0.90655300  1
  S  S14  1  0.75483500  0.24806300  0.59344700  1
  S  S15  1  0.77254300  0.56395900  0.42785600  1
  S  S16  1  0.25483500  0.75193700  0.40655300  1
  S  S17  1  0.27815200  0.13271800  0.84700900  1
  S  S18  1  0.27815200  0.63271800  0.65299100  1
  S  S19  1  0.77815200  0.36728200  0.34700900  1
  S  S20  1  0.25710900  0.54178200  0.30021900  1
  S  S21  1  0.75710900  0.45821800  0.69978100  1
  S  S22  1  0.75710900  0.95821800  0.80021900  1
  S  S23  1  0.25710900  0.04178200  0.19978100  1
  S  S24  1  0.24759200  0.79719700  0.27382300  1
  S  S25  1  0.74759200  0.20280300  0.72617700  1
  S  S26  1  0.74759200  0.70280300  0.77382300  1
  S  S27  1  0.24759200  0.29719700  0.22617700  1
  S  S28  1  0.25528000  0.25621100  0.46820400  1
  S  S29  1  0.75528000  0.74378900  0.53179600  1
  S  S30  1  0.75528000  0.24378900  0.96820400  1
  S  S31  1  0.25528000  0.75621100  0.03179600  1
  S  S32  1  0.77254300  0.06395900  0.07214400  1
  S  S33  1  0.27254300  0.93604100  0.92785600  1
  S  S34  1  0.27254300  0.43604100  0.57214400  1
  S  S35  1  0.77815200  0.86728200  0.15299100  1
loop_
_geom_bond_atom_site_label_1
_geom_bond_atom_site_label_2
_geom_bond_distance
_geom_bond_site_symmetry_2
S0 Sb11 2.606813 1_655
S0 Sb7 2.927806 1_655
S0 Sb11 3.077209 1_555
S0 Sb7 3.196260 1_555
S0 Sr7 3.273087 1_555
S0 Sr8 3.455385 1_555
S1 Sb10 2.606813 1_555
S1 Sb6 2.927806 1_555
S1 Sb10 3.077209 1_455
S1 Sb6 3.196260 1_455
S1 Sr6 3.273087 1_555
S1 Sr9 3.455385 1_555
S2 Sb9 2.606813 1_555
S2 Sb5 2.927806 1_555
S2 Sb9 3.077209 1_455
S2 Sb5 3.196260 1_455
S2 Sr5 3.273087 1_555
S2 Sr10 3.455385 1_565
S3 Sb8 2.606813 1_655
S3 Sb4 2.927806 1_655
S3 Sb8 3.077209 1_555
S3 Sb4 3.196260 1_555
S3 Sr4 3.273087 1_555
S3 Sr11 3.455385 1_545
S4 Sb7 2.582142 1_655
S4 Sb7 2.766126 1_555
S4 Sr0 3.091930 1_555
S4 Sr1 3.183078 1_654
S4 Sr1 3.236295 1_554
S5 Sb6 2.582142 1_555
S5 Sb6 2.766126 1_455
S5 Sr1 3.091930 1_555
S5 Sr0 3.183078 1_556
S5 Sr0 3.236295 1_456
S6 Sb5 2.582142 1_555
S6 Sb5 2.766126 1_455
S6 Sr2 3.091930 1_565
S6 Sr3 3.183078 1_555
S6 Sr3 3.236295 1_455
S7 Sb4 2.582142 1_655
S7 Sb4 2.766126 1_555
S7 Sr3 3.091930 1_545
S7 Sr2 3.183078 1_655
S7 Sr2 3.236295 1_555
S8 Sb7 2.465534 1_555
S8 Sr8 3.083878 1_455
S8 Sr8 3.106742 1_555
S8 Sr0 3.126847 1_455
S8 Sr0 3.129116 1_555
S9 Sb6 2.465534 1_555
S9 Sr9 3.083878 1_555
S9 Sr9 3.106742 1_655
S9 Sr1 3.126847 1_555
S9 Sr1 3.129116 1_655
S10 Sb5 2.465534 1_545
S10 Sr10 3.083878 1_555
S10 Sr10 3.106742 1_655
S10 Sr2 3.126847 1_555
S10 Sr2 3.129116 1_655
S11 Sb4 2.465534 1_565
S11 Sr11 3.083878 1_455
S11 Sr11 3.106742 1_555
S11 Sr3 3.126847 1_455
S11 Sr3 3.129116 1_555
S12 Sb1 2.459726 1_555
S12 Sr0 3.071140 1_455
S12 Sr0 3.079207 1_555
S12 Sr4 3.135497 1_455
S12 Sr4 3.149520 1_555
S13 Sb0 2.459726 1_555
S13 Sr1 3.071140 1_555
S13 Sr1 3.079207 1_655
S13 Sr5 3.135497 1_555
S13 Sr5 3.149520 1_655
S14 Sb3 2.459726 1_555
S14 Sr2 3.071140 1_555
S14 Sr2 3.079207 1_655
S14 Sr6 3.135497 1_555
S14 Sr6 3.149520 1_655
S15 Sb12 2.527091 1_655
S15 Sb12 2.909965 1_555
S15 Sb2 2.939064 1_655
S15 Sr7 3.148170 1_555
S16 Sb2 2.459726 1_555
S16 Sr3 3.071140 1_455
S16 Sr3 3.079207 1_555
S16 Sr7 3.135497 1_455
S16 Sr7 3.149520 1_555
S17 Sb10 2.603455 1_555
S17 Sb14 2.689534 1_555
S17 Sb10 3.028225 1_455
S17 Sr10 3.056761 1_555
S17 Sb14 3.082280 1_455
S18 Sb9 2.603455 1_555
S18 Sb13 2.689534 1_555
S18 Sb9 3.028225 1_455
S18 Sr9 3.056761 1_555
S18 Sb13 3.082280 1_455
S19 Sb8 2.603455 1_655
S19 Sb12 2.689534 1_655
S19 Sb8 3.028225 1_555
S19 Sr8 3.056761 1_555
S19 Sb12 3.082280 1_555
S20 Sb12 2.474194 1_555
S20 Sr7 3.067618 1_455
S20 Sr7 3.069748 1_555
S20 Sr8 3.073223 1_455
S20 Sr8 3.089757 1_555
S21 Sb13 2.474194 1_555
S21 Sr6 3.067618 1_555
S21 Sr6 3.069748 1_655
S21 Sr9 3.073223 1_555
S21 Sr9 3.089757 1_655
S22 Sb14 2.474194 1_565
S22 Sr5 3.067618 1_555
S22 Sr5 3.069748 1_655
S22 Sr10 3.073223 1_565
S22 Sr10 3.089757 1_665
S23 Sb15 2.474194 1_545
S23 Sr4 3.067618 1_455
S23 Sr4 3.069748 1_555
S23 Sr11 3.073223 1_445
S23 Sr11 3.089757 1_545
S24 Sb11 2.458201 1_555
S24 Sr7 3.107684 1_455
S24 Sr11 3.151952 1_455
S24 Sr7 3.159893 1_555
S24 Sr11 3.217275 1_555
S25 Sb10 2.458201 1_555
S25 Sr6 3.107684 1_555
S25 Sr10 3.151952 1_555
S25 Sr6 3.159893 1_655
S25 Sr10 3.217275 1_655
S26 Sb9 2.458201 1_555
S26 Sr5 3.107684 1_555
S26 Sr9 3.151952 1_555
S26 Sr5 3.159893 1_655
S26 Sr9 3.217275 1_655
S27 Sb8 2.458201 1_555
S27 Sr4 3.107684 1_455
S27 Sr8 3.151952 1_455
S27 Sr4 3.159893 1_555
S27 Sr8 3.217275 1_555
S28 Sb3 2.531945 1_555
S28 Sb3 2.708617 1_455
S28 Sr2 3.094144 1_555
S29 Sb2 2.531945 1_655
S29 Sb2 2.708617 1_555
S29 Sr3 3.094144 1_555
S30 Sb1 2.531945 1_656
S30 Sb1 2.708617 1_556
S30 Sr0 3.094144 1_556
S31 Sb0 2.531945 1_554
S31 Sb0 2.708617 1_454
S31 Sr1 3.094144 1_554
S32 Sb15 2.527091 1_645
S32 Sb15 2.909965 1_545
S32 Sb1 2.939064 1_655
S32 Sr4 3.148170 1_555
S33 Sb14 2.527091 1_565
S33 Sb14 2.909965 1_465
S33 Sb0 2.939064 1_555
S33 Sr5 3.148170 1_555
S34 Sb13 2.527091 1_555
S34 Sb13 2.909965 1_455
S34 Sb3 2.939064 1_555
S34 Sr6 3.148170 1_555
S35 Sb11 2.603455 1_655
S35 Sb15 2.689534 1_655
S35 Sb11 3.028225 1_555
S35 Sr11 3.056761 1_555
S35 Sb15 3.082280 1_555
