# generated using pymatgen
data_Na15Mg4Nb8Si9(PO8)9
_symmetry_space_group_name_H-M   'P 1'
_cell_length_a   9.00037643
_cell_length_b   8.99978988
_cell_length_c   22.55483544
_cell_angle_alpha   89.85403554
_cell_angle_beta   89.94323529
_cell_angle_gamma   120.05231702
_symmetry_Int_Tables_number   1
_chemical_formula_structural   Na15Mg4Nb8Si9(PO8)9
_chemical_formula_sum   'Na15 Mg4 Nb8 Si9 P9 O72'
_cell_volume   1581.36181202
_cell_formula_units_Z   1
loop_
 _symmetry_equiv_pos_site_id
 _symmetry_equiv_pos_as_xyz
  1  'x, y, z'
loop_
 _atom_site_type_symbol
 _atom_site_label
 _atom_site_symmetry_multiplicity
 _atom_site_fract_x
 _atom_site_fract_y
 _atom_site_fract_z
 _atom_site_occupancy
  Na  Na0  1  0.63870233  0.01399106  0.24286228  1
  Na  Na1  1  0.98829092  0.62788820  0.24260898  1
  Na  Na2  1  0.63788038  0.62620232  0.74340333  1
  Na  Na3  1  0.37155623  0.01464191  0.74330367  1
  Na  Na4  1  0.31237703  0.33743561  0.58711272  1
  Na  Na5  1  0.96438265  0.67840453  0.91353047  1
  Na  Na6  1  0.71050172  0.03171906  0.91311524  1
  Na  Na7  1  0.96358277  0.28979233  0.41363307  1
  Na  Na8  1  0.70892382  0.67685785  0.41251139  1
  Na  Na9  1  0.00838221  0.99376042  0.49354446  1
  Na  Na10  1  0.01091337  0.00711583  0.99464526  1
  Na  Na11  1  0.66725161  0.33301047  0.82797644  1
  Na  Na12  1  0.64502004  0.32514464  0.32830071  1
  Na  Na13  1  0.33309412  0.65931206  0.16306823  1
  Na  Na14  1  0.32156882  0.66654531  0.66401742  1
  Mg  Mg0  1  0.01072011  0.00234730  0.35330628  1
  Mg  Mg1  1  0.00439271  0.00275363  0.85355125  1
  Mg  Mg2  1  0.67212018  0.33383471  0.68358122  1
  Mg  Mg3  1  0.66196319  0.33252201  0.18345101  1
  Nb  Nb0  1  0.99722677  0.99826406  0.64359461  1
  Nb  Nb1  1  0.99934694  0.99744435  0.14342439  1
  Nb  Nb2  1  0.66145549  0.33369003  0.98280655  1
  Nb  Nb3  1  0.66545702  0.33401398  0.48223715  1
  Nb  Nb4  1  0.33748139  0.67528023  0.02228835  1
  Nb  Nb5  1  0.32723678  0.66635926  0.52178635  1
  Nb  Nb6  1  0.33031180  0.66004362  0.31278455  1
  Nb  Nb7  1  0.33408728  0.66423092  0.81332931  1
  Si  Si0  1  0.95166028  0.33370495  0.58575516  1
  Si  Si1  1  0.38014004  0.04176457  0.58808270  1
  Si  Si2  1  0.66688613  0.62283741  0.58631490  1
  Si  Si3  1  0.95599706  0.61937189  0.08717525  1
  Si  Si4  1  0.66833456  0.04630906  0.08720058  1
  Si  Si5  1  0.62417594  0.66370102  0.91681736  1
  Si  Si6  1  0.33320986  0.96232519  0.91605062  1
  Si  Si7  1  0.33173284  0.36941717  0.41781940  1
  Si  Si8  1  0.04024248  0.67000914  0.41623971  1
  P  P0  1  0.29201881  0.00521681  0.25167979  1
  P  P1  1  0.71066398  0.70920216  0.25228015  1
  P  P2  1  0.99962177  0.28665008  0.25227960  1
  P  P3  1  0.28786884  0.28840114  0.75140180  1
  P  P4  1  0.99708026  0.70785454  0.75263356  1
  P  P5  1  0.71291277  0.00482810  0.75333795  1
  P  P6  1  0.37710073  0.33505766  0.08587618  1
  P  P7  1  0.04556500  0.37715999  0.91821574  1
  P  P8  1  0.61874333  0.95656238  0.41563361  1
  O  O0  1  0.20447400  0.01915028  0.30638381  1
  O  O1  1  0.81389254  0.79195032  0.30808229  1
  O  O2  1  0.97590952  0.18298501  0.30829196  1
  O  O3  1  0.19887723  0.17540419  0.80413556  1
  O  O4  1  0.97594158  0.79005188  0.80859235  1
  O  O5  1  0.80909135  0.01632037  0.80978158  1
  O  O6  1  0.80250676  0.97404561  0.69813322  1
  O  O7  1  0.18157902  0.20738241  0.69297855  1
  O  O8  1  0.02935543  0.83119202  0.69763971  1
  O  O9  1  0.80379080  0.83129035  0.19694025  1
  O  O10  1  0.02605165  0.19849858  0.19678009  1
  O  O11  1  0.17400542  0.97225068  0.19552696  1
  O  O12  1  0.87538029  0.37192595  0.64174773  1
  O  O13  1  0.48044984  0.11628266  0.64784055  1
  O  O14  1  0.61798687  0.50600927  0.64388600  1
  O  O15  1  0.87977505  0.51563562  0.14651603  1
  O  O16  1  0.63340363  0.11756146  0.14614940  1
  O  O17  1  0.48668038  0.36675463  0.13969258  1
  O  O18  1  0.46467402  0.30554717  0.02888080  1
  O  O19  1  0.83409450  0.52989200  0.02673510  1
  O  O20  1  0.69318368  0.16395970  0.02638836  1
  O  O21  1  0.47287075  0.17156019  0.52952730  1
  O  O22  1  0.69876000  0.53262806  0.52598250  1
  O  O23  1  0.83845360  0.30212723  0.52353385  1
  O  O24  1  0.51784239  0.68353851  0.97167226  1
  O  O25  1  0.15580128  0.46815258  0.97225882  1
  O  O26  1  0.31132178  0.83363016  0.97194513  1
  O  O27  1  0.52768444  0.83971331  0.46926436  1
  O  O28  1  0.31626847  0.47397194  0.47466712  1
  O  O29  1  0.16401514  0.68608176  0.47192406  1
  O  O30  1  0.13795545  0.63874749  0.35764948  1
  O  O31  1  0.50731195  0.86972776  0.35857987  1
  O  O32  1  0.36624836  0.50513670  0.35998885  1
  O  O33  1  0.13475093  0.49730280  0.86218284  1
  O  O34  1  0.36516878  0.86362444  0.85757660  1
  O  O35  1  0.50052174  0.63442764  0.85699678  1
  O  O36  1  0.00574294  0.82608999  0.41321998  1
  O  O37  1  0.79609611  0.97459039  0.41052639  1
  O  O38  1  0.15708754  0.19220844  0.41317925  1
  O  O39  1  0.01618362  0.19738395  0.91152431  1
  O  O40  1  0.16192832  0.97102818  0.91250341  1
  O  O41  1  0.80838526  0.83434262  0.91284776  1
  O  O42  1  0.98093464  0.16431082  0.59163646  1
  O  O43  1  0.18820394  0.02900141  0.59112001  1
  O  O44  1  0.83907982  0.81458739  0.59202026  1
  O  O45  1  0.98028124  0.81648755  0.09171988  1
  O  O46  1  0.84296191  0.02681148  0.09140884  1
  O  O47  1  0.19640623  0.16987484  0.09012523  1
  O  O48  1  0.67637355  0.15155228  0.74716406  1
  O  O49  1  0.47151611  0.31804576  0.74690142  1
  O  O50  1  0.83894902  0.53160946  0.74483842  1
  O  O51  1  0.68749770  0.53103448  0.24431645  1
  O  O52  1  0.84619107  0.31635895  0.24644216  1
  O  O53  1  0.47512879  0.15450079  0.24513303  1
  O  O54  1  0.64417125  0.49217296  0.92236919  1
  O  O55  1  0.86770830  0.37082691  0.92206113  1
  O  O56  1  0.51634685  0.14329248  0.92247602  1
  O  O57  1  0.63537743  0.13593728  0.42116535  1
  O  O58  1  0.51329353  0.36747014  0.42149661  1
  O  O59  1  0.85622715  0.48560816  0.42110521  1
  O  O60  1  0.34982232  0.48878076  0.07387884  1
  O  O61  1  0.14753085  0.64509876  0.07380724  1
  O  O62  1  0.50466268  0.85023598  0.07429811  1
  O  O63  1  0.35102171  0.85100161  0.57417391  1
  O  O64  1  0.50162733  0.64788668  0.57207529  1
  O  O65  1  0.15210144  0.49278152  0.57464006  1
  O  O66  1  0.30449316  0.83122013  0.25471242  1
  O  O67  1  0.53122185  0.70438056  0.25441794  1
  O  O68  1  0.16838577  0.47417919  0.25561961  1
  O  O69  1  0.30558651  0.47420602  0.75546173  1
  O  O70  1  0.16952328  0.69917246  0.75555746  1
  O  O71  1  0.52708880  0.82789094  0.75463610  1
loop_
_geom_bond_atom_site_label_1
_geom_bond_atom_site_label_2
_geom_bond_distance
_geom_bond_site_symmetry_2
Na0 O53 2.373607 1_555
Na0 O16 2.379860 1_555
Na0 O52 2.410538 1_555
Na0 O67 2.462511 1_545
Na0 O66 2.620252 1_545
Na0 O31 2.887043 1_545
Na0 O9 2.904624 1_545
Na1 O15 2.387271 1_555
Na1 O51 2.393026 1_555
Na1 O52 2.431254 1_555
Na1 O66 2.512077 1_655
Na1 O68 2.621426 1_655
Na1 O11 2.884061 1_655
Na1 O30 2.903961 1_655
Na2 O50 2.354529 1_555
Na2 O49 2.403984 1_555
Na2 O14 2.461617 1_555
Na2 O71 2.483552 1_555
Na2 O69 2.605526 1_555
Na2 O35 2.860853 1_555
Na2 O6 2.893618 1_555
Na3 O13 2.349731 1_555
Na3 O48 2.380695 1_555
Na3 O49 2.410971 1_555
Na3 O70 2.503574 1_545
Na3 O71 2.684163 1_545
Na3 O8 2.862608 1_545
Na3 O34 2.897784 1_545
Na3 O3 2.940981 1_555
Na4 O43 2.419470 1_555
Na4 O64 2.459711 1_555
Na4 O65 2.476584 1_555
Na4 O42 2.584621 1_455
Na4 O7 2.656591 1_555
Na4 O14 2.710068 1_555
Na4 O28 2.807896 1_555
Na4 O21 2.857993 1_555
Na5 O40 2.325328 1_655
Na5 O41 2.431994 1_555
Na5 O55 2.457895 1_555
Na5 O54 2.512777 1_555
Na5 O4 2.550526 1_555
Na5 O19 2.843908 1_556
Na5 O33 2.976290 1_655
Na5 O26 3.014367 1_655
Na6 O41 2.345004 1_545
Na6 O39 2.384256 1_655
Na6 O56 2.421638 1_555
Na6 O5 2.521773 1_555
Na6 O55 2.652449 1_555
Na6 O20 2.858062 1_556
Na6 O34 2.970883 1_545
Na6 O24 3.017031 1_545
Na7 O38 2.310109 1_655
Na7 O59 2.403003 1_555
Na7 O37 2.458185 1_545
Na7 O57 2.563823 1_555
Na7 O2 2.588314 1_555
Na7 O23 2.747031 1_555
Na8 O36 2.312455 1_655
Na8 O37 2.385611 1_555
Na8 O58 2.445469 1_555
Na8 O1 2.552707 1_555
Na8 O59 2.653714 1_555
Na8 O22 2.847294 1_555
Na8 O32 2.923468 1_555
Na8 O27 2.974496 1_555
Na9 O36 2.353302 1_555
Na9 O38 2.418933 1_565
Na9 O37 2.620123 1_455
Na9 O43 2.657071 1_565
Na9 O44 2.714678 1_455
Na9 O42 2.776317 1_465
Na10 O40 2.413624 1_545
Na10 O41 2.515292 1_445
Na10 O39 2.520195 1_555
Na10 O47 2.672908 1_556
Na10 O45 2.705399 1_446
Na10 O46 2.709887 1_456
Na11 O48 2.478939 1_555
Na11 O49 2.497119 1_555
Na11 O50 2.511909 1_555
Na11 O54 2.634463 1_555
Na11 O56 2.637422 1_555
Na11 O55 2.696356 1_555
Na12 O53 2.425644 1_555
Na12 O58 2.533904 1_555
Na12 O51 2.537514 1_555
Na12 O52 2.613606 1_555
Na12 O57 2.669780 1_555
Na12 O59 2.711879 1_555
Na13 O61 2.579335 1_555
Na13 O62 2.581584 1_555
Na13 O60 2.582910 1_555
Na13 O68 2.614105 1_555
Na13 O67 2.622340 1_555
Na13 O66 2.673312 1_555
Na14 O65 2.543416 1_555
Na14 O63 2.544298 1_555
Na14 O70 2.573276 1_555
Na14 O69 2.646295 1_555
Na14 O71 2.653298 1_555
Na14 O64 2.687490 1_555
Mg0 O0 1.978729 1_555
Mg0 O38 2.059008 1_555
Mg0 O36 2.064510 1_545
Mg0 O2 2.067427 1_455
Mg0 O1 2.101873 1_445
Mg0 O37 2.229256 1_445
Mg1 O3 1.995940 1_555
Mg1 O40 2.065713 1_545
Mg1 O4 2.068266 1_445
Mg1 O5 2.072945 1_455
Mg1 O41 2.122511 1_445
Mg1 O39 2.148252 1_555
Mg2 O12 1.929083 1_555
Mg2 O13 2.021663 1_555
Mg2 O14 2.046947 1_555
Mg2 O50 2.161360 1_555
Mg2 O48 2.190978 1_555
Mg2 O49 2.248699 1_555
Mg3 O15 2.001734 1_555
Mg3 O16 2.006799 1_555
Mg3 O17 2.011521 1_555
Mg3 O53 2.148423 1_555
Mg3 O51 2.175119 1_555
Mg3 O52 2.243716 1_555
Nb0 O44 1.941181 1_555
Nb0 O42 1.959324 1_565
Nb0 O43 1.987433 1_665
Nb0 O6 2.060070 1_555
Nb0 O8 2.063305 1_655
Nb0 O7 2.102954 1_665
Nb1 O45 1.942127 1_555
Nb1 O46 1.949786 1_565
Nb1 O9 2.035043 1_555
Nb1 O47 2.056362 1_665
Nb1 O11 2.064674 1_655
Nb1 O10 2.087146 1_665
Nb2 O19 1.943690 1_556
Nb2 O20 1.952172 1_556
Nb2 O18 1.956175 1_556
Nb2 O54 2.032119 1_555
Nb2 O56 2.065790 1_555
Nb2 O55 2.192292 1_555
Nb3 O21 1.931298 1_555
Nb3 O22 1.931685 1_555
Nb3 O23 1.955336 1_555
Nb3 O58 2.063439 1_555
Nb3 O59 2.085687 1_555
Nb3 O57 2.162964 1_555
Nb4 O26 1.924595 1_554
Nb4 O62 1.938912 1_555
Nb4 O24 1.954245 1_554
Nb4 O61 1.968804 1_555
Nb4 O60 2.088201 1_555
Nb4 O25 2.093663 1_554
Nb5 O29 1.928176 1_555
Nb5 O63 1.964074 1_555
Nb5 O65 1.966374 1_555
Nb5 O28 1.993868 1_555
Nb5 O64 2.010395 1_555
Nb5 O27 2.063837 1_555
Nb6 O32 1.904343 1_555
Nb6 O30 1.929053 1_555
Nb6 O68 2.038992 1_555
Nb6 O31 2.041591 1_555
Nb6 O67 2.105234 1_555
Nb6 O66 2.119381 1_555
Nb7 O35 1.920917 1_555
Nb7 O34 1.949706 1_555
Nb7 O33 1.994488 1_555
Nb7 O69 2.065602 1_555
Nb7 O71 2.088614 1_555
Nb7 O70 2.111587 1_555
O0 P0 1.502250 1_555
O1 P1 1.521842 1_555
O2 P2 1.518570 1_555
O3 P3 1.505497 1_555
O4 P4 1.523709 1_555
O5 P5 1.514576 1_555
O6 P5 1.581415 1_565
O7 P3 1.578604 1_555
O8 P4 1.588823 1_455
O9 P1 1.592580 1_555
O10 P2 1.564107 1_455
O11 P0 1.584057 1_565
O12 Si0 1.556157 1_555
O13 Si1 1.575464 1_555
O14 Si2 1.585482 1_555
O15 Si3 1.576054 1_555
O16 Si4 1.575842 1_555
O17 P6 1.499929 1_555
O18 P6 1.598045 1_555
O19 Si3 1.683526 1_555
O20 Si4 1.675490 1_555
O21 Si1 1.678945 1_555
O22 Si2 1.682645 1_555
O23 Si0 1.674299 1_555
O24 Si5 1.627417 1_555
O25 P7 1.527911 1_555
O26 Si6 1.653233 1_555
O27 P8 1.539194 1_555
O28 Si7 1.638836 1_555
O29 Si8 1.637571 1_555
O30 Si8 1.687114 1_555
O31 P8 1.579621 1_555
O32 Si7 1.703180 1_555
O33 P7 1.591353 1_555
O34 Si6 1.694799 1_555
O35 Si5 1.685113 1_555
O36 Si8 1.584499 1_555
O37 P8 1.525688 1_555
O38 Si7 1.586059 1_555
O39 P7 1.511043 1_555
O40 Si6 1.584364 1_555
O41 Si5 1.601285 1_555
O42 Si0 1.677053 1_555
O43 Si1 1.674251 1_555
O44 Si2 1.649035 1_555
O45 Si3 1.678682 1_555
O46 Si4 1.669287 1_555
O47 P6 1.562545 1_555
O48 P5 1.518333 1_555
O49 P3 1.539932 1_555
O50 P4 1.520955 1_555
O51 P1 1.521033 1_555
O52 P2 1.538113 1_555
O53 P0 1.524388 1_555
O54 Si5 1.645735 1_555
O55 P7 1.575302 1_655
O56 Si6 1.644188 1_545
O57 P8 1.550180 1_545
O58 Si7 1.645131 1_555
O59 Si8 1.659823 1_655
O60 P6 1.544646 1_555
O61 Si3 1.647760 1_455
O62 Si4 1.663879 1_565
O63 Si1 1.633049 1_565
O64 Si2 1.643998 1_555
O65 Si0 1.666580 1_455
O66 P0 1.626343 1_565
O67 P1 1.594436 1_555
O68 P2 1.610755 1_455
O69 P3 1.601191 1_555
O70 P4 1.594039 1_455
O71 P5 1.632785 1_565
