# generated using pymatgen
data_MgAl4Cr2O10
_symmetry_space_group_name_H-M   'P 1'
_cell_length_a   4.97156526
_cell_length_b   5.50500606
_cell_length_c   7.32755798
_cell_angle_alpha   69.47798215
_cell_angle_beta   89.23616797
_cell_angle_gamma   62.49827231
_symmetry_Int_Tables_number   1
_chemical_formula_structural   MgAl4Cr2O10
_chemical_formula_sum   'Mg1 Al4 Cr2 O10'
_cell_volume   163.90790625
_cell_formula_units_Z   1
loop_
 _symmetry_equiv_pos_site_id
 _symmetry_equiv_pos_as_xyz
  1  'x, y, z'
loop_
 _atom_site_type_symbol
 _atom_site_label
 _atom_site_symmetry_multiplicity
 _atom_site_fract_x
 _atom_site_fract_y
 _atom_site_fract_z
 _atom_site_occupancy
  Mg  Mg0  1  0.78183700  0.40678900  0.07390300  1
  Al  Al0  1  0.61455200  0.75849500  0.68558900  1
  Al  Al1  1  0.35997100  0.26397400  0.77656200  1
  Al  Al2  1  0.57992000  0.80479400  0.21666700  1
  Al  Al3  1  0.34996000  0.28307600  0.31628100  1
  Cr  Cr0  1  0.98385600  0.00931400  0.49779700  1
  Cr  Cr1  1  0.00944400  0.96690400  0.97003200  1
  O  O0  1  0.01479500  0.62010000  0.65032100  1
  O  O1  1  0.71720600  0.82668800  0.93891100  1
  O  O2  1  0.40658600  0.87151400  0.43071100  1
  O  O3  1  0.63506000  0.39000200  0.82741100  1
  O  O4  1  0.36802600  0.61105900  0.16261600  1
  O  O5  1  0.20335200  0.99479300  0.73438500  1
  O  O6  1  0.55601200  0.17407100  0.55984000  1
  O  O7  1  0.22930200  0.17013800  0.03271400  1
  O  O8  1  0.94010100  0.42063500  0.31955900  1
  O  O9  1  0.76341100  0.03331300  0.23768800  1
loop_
_geom_bond_atom_site_label_1
_geom_bond_atom_site_label_2
_geom_bond_distance
_geom_bond_site_symmetry_2
Mg0 O3 2.004438 1_554
Mg0 O8 2.013568 1_555
Mg0 O9 2.028989 1_555
Mg0 O1 2.035758 1_554
Mg0 O4 2.063929 1_555
Mg0 O7 2.078064 1_655
Al0 O0 1.825078 1_655
Al0 O3 1.881261 1_555
Al0 O2 1.893889 1_555
Al0 O5 1.962095 1_555
Al0 O6 2.020340 1_565
Al0 O1 2.130201 1_555
Al1 O0 1.818720 1_555
Al1 O3 1.887244 1_555
Al1 O6 1.944488 1_555
Al1 O7 1.951788 1_556
Al1 O5 2.071421 1_545
Al1 O1 2.112895 1_545
Al2 O2 1.847430 1_555
Al2 O9 1.907336 1_565
Al2 O8 1.915194 1_555
Al2 O4 1.936225 1_555
Al2 O7 1.955629 1_565
Al2 O1 2.118880 1_554
Al3 O4 1.804874 1_555
Al3 O8 1.819996 1_455
Al3 O6 1.823392 1_555
Al3 O2 2.000190 1_545
Al3 O9 2.088225 1_555
Cr0 O0 1.970997 1_645
Cr0 O2 1.998868 1_645
Cr0 O6 2.008797 1_555
Cr0 O5 2.018741 1_645
Cr0 O8 2.087928 1_555
Cr0 O9 2.143990 1_555
Cr1 O5 1.959823 1_555
Cr1 O4 1.977501 1_556
Cr1 O1 1.981579 1_455
Cr1 O7 2.039732 1_566
Cr1 O3 2.079162 1_465
Cr1 O9 2.345661 1_466
