# generated using pymatgen
data_Na6Zr4Ga4Si5S7O48
_symmetry_space_group_name_H-M   'P 1'
_cell_length_a   17.75313462
_cell_length_b   8.90418412
_cell_length_c   22.88976097
_cell_angle_alpha   90.00716959
_cell_angle_beta   89.82350721
_cell_angle_gamma   120.24520921
_symmetry_Int_Tables_number   1
_chemical_formula_structural   Na6Zr4Ga4Si5S7O48
_chemical_formula_sum   'Na18 Zr12 Ga12 Si15 S21 O144'
_cell_volume   3125.79152085
_cell_formula_units_Z   3
loop_
 _symmetry_equiv_pos_site_id
 _symmetry_equiv_pos_as_xyz
  1  'x, y, z'
loop_
 _atom_site_type_symbol
 _atom_site_label
 _atom_site_symmetry_multiplicity
 _atom_site_fract_x
 _atom_site_fract_y
 _atom_site_fract_z
 _atom_site_occupancy
  Na  Na0  1  0.00057156  0.62871682  0.25468867  1
  Na  Na1  1  0.49554247  0.63833147  0.25126499  1
  Na  Na2  1  0.99531943  0.35710351  0.74951244  1
  Na  Na3  1  0.50162836  0.36563050  0.75233769  1
  Na  Na4  1  0.66524846  0.29848837  0.91656349  1
  Na  Na5  1  0.16612178  0.02981004  0.42506582  1
  Na  Na6  1  0.00168857  0.99619520  0.50216162  1
  Na  Na7  1  0.50527226  0.99571362  0.50253941  1
  Na  Na8  1  0.00620776  0.01218072  0.99706567  1
  Na  Na9  1  0.50265859  0.00960936  0.99674490  1
  Na  Na10  1  0.33107075  0.32462057  0.83334689  1
  Na  Na11  1  0.82968425  0.32790857  0.82530587  1
  Na  Na12  1  0.33660945  0.34231656  0.32947438  1
  Na  Na13  1  0.82828171  0.33533546  0.33558885  1
  Na  Na14  1  0.18094913  0.66152815  0.16973728  1
  Na  Na15  1  0.67461582  0.66033572  0.16549055  1
  Na  Na16  1  0.17508819  0.68909201  0.66762668  1
  Na  Na17  1  0.67960347  0.68785344  0.67493429  1
  Zr  Zr0  1  0.49848868  0.01286119  0.34981182  1
  Zr  Zr1  1  0.99868036  0.98336115  0.84943779  1
  Zr  Zr2  1  0.00003079  0.98839369  0.65030925  1
  Zr  Zr3  1  0.50513483  0.99824981  0.64498338  1
  Zr  Zr4  1  0.99954585  0.01017424  0.14183708  1
  Zr  Zr5  1  0.49962948  0.01193540  0.14961055  1
  Zr  Zr6  1  0.32920832  0.32512418  0.97419170  1
  Zr  Zr7  1  0.83082541  0.33642552  0.47543158  1
  Zr  Zr8  1  0.16650315  0.66310326  0.01950438  1
  Zr  Zr9  1  0.66538747  0.65594009  0.02217980  1
  Zr  Zr10  1  0.16470589  0.67454464  0.52393172  1
  Zr  Zr11  1  0.66627083  0.66777075  0.52087140  1
  Ga  Ga0  1  0.99728506  0.98833429  0.35184989  1
  Ga  Ga1  1  0.50414722  0.02141355  0.84929619  1
  Ga  Ga2  1  0.31987097  0.33312828  0.67578255  1
  Ga  Ga3  1  0.81895352  0.30452552  0.69782148  1
  Ga  Ga4  1  0.33174166  0.35224931  0.19076480  1
  Ga  Ga5  1  0.81748901  0.30697292  0.17257198  1
  Ga  Ga6  1  0.82489639  0.30669665  0.98802838  1
  Ga  Ga7  1  0.33007773  0.34436020  0.49570272  1
  Ga  Ga8  1  0.17168149  0.66389135  0.31878660  1
  Ga  Ga9  1  0.66010508  0.63311546  0.31591770  1
  Ga  Ga10  1  0.16454391  0.69391369  0.81387493  1
  Ga  Ga11  1  0.66853180  0.65436823  0.81080142  1
  Si  Si0  1  0.34585937  0.70303046  0.25243028  1
  Si  Si1  1  0.49828461  0.30756768  0.24791587  1
  Si  Si2  1  0.64579686  0.29459262  0.75261248  1
  Si  Si3  1  0.00013320  0.69032916  0.74769331  1
  Si  Si4  1  0.84744077  0.99019465  0.75256828  1
  Si  Si5  1  0.18847360  0.05063275  0.58258550  1
  Si  Si6  1  0.69577740  0.05203375  0.58587502  1
  Si  Si7  1  0.33366848  0.62354148  0.58283451  1
  Si  Si8  1  0.83139334  0.04631225  0.08243075  1
  Si  Si9  1  0.19580905  0.34056356  0.08662685  1
  Si  Si10  1  0.68835303  0.32868757  0.08186890  1
  Si  Si11  1  0.52349789  0.37687064  0.91033649  1
  Si  Si12  1  0.16295801  0.95307801  0.91621247  1
  Si  Si13  1  0.66433417  0.37344580  0.41565645  1
  Si  Si14  1  0.02496489  0.67126646  0.40858723  1
  S  S0  1  0.14537298  0.00046708  0.25194421  1
  S  S1  1  0.65319833  0.00424190  0.25124602  1
  S  S2  1  0.85333681  0.70668937  0.25169208  1
  S  S3  1  0.99784433  0.28794810  0.25368544  1
  S  S4  1  0.15327803  0.30268145  0.75145692  1
  S  S5  1  0.49578716  0.70367039  0.75325663  1
  S  S6  1  0.35231217  0.99934980  0.75118398  1
  S  S7  1  0.47428219  0.33284877  0.58438928  1
  S  S8  1  0.97555309  0.32890595  0.58486466  1
  S  S9  1  0.83335228  0.62121899  0.58458550  1
  S  S10  1  0.47637820  0.62238302  0.08528634  1
  S  S11  1  0.97464727  0.61402170  0.08517442  1
  S  S12  1  0.33241516  0.04694892  0.08554004  1
  S  S13  1  0.31336036  0.67561553  0.91055534  1
  S  S14  1  0.81301059  0.65990307  0.91764673  1
  S  S15  1  0.01571190  0.37511553  0.91562597  1
  S  S16  1  0.66695250  0.95845349  0.91476683  1
  S  S17  1  0.31233472  0.96340045  0.41684567  1
  S  S18  1  0.81273552  0.95115475  0.41064265  1
  S  S19  1  0.16616699  0.37081247  0.41361098  1
  S  S20  1  0.51648493  0.65720082  0.41535223  1
  O  O0  1  0.10493412  0.02727567  0.30567869  1
  O  O1  1  0.61065012  0.03005623  0.30325892  1
  O  O2  1  0.41310562  0.79432570  0.30750242  1
  O  O3  1  0.91074483  0.79176102  0.30360330  1
  O  O4  1  0.48488219  0.18627054  0.30524674  1
  O  O5  1  0.98691363  0.17863392  0.30580971  1
  O  O6  1  0.11104378  0.19165779  0.80354445  1
  O  O7  1  0.60462088  0.17501659  0.81180083  1
  O  O8  1  0.48140189  0.78558916  0.80513375  1
  O  O9  1  0.98751342  0.78621479  0.80518944  1
  O  O10  1  0.40758533  0.02680307  0.80368098  1
  O  O11  1  0.91509281  0.03139673  0.80761074  1
  O  O12  1  0.39091132  0.97353719  0.69803103  1
  O  O13  1  0.89716608  0.96467153  0.69528362  1
  O  O14  1  0.09714619  0.22288285  0.69917654  1
  O  O15  1  0.57764564  0.19857750  0.69827334  1
  O  O16  1  0.02315362  0.82622818  0.69317578  1
  O  O17  1  0.50468002  0.80603062  0.69954565  1
  O  O18  1  0.39527871  0.82466687  0.19486541  1
  O  O19  1  0.89575830  0.81189760  0.19887496  1
  O  O20  1  0.00744183  0.20306055  0.20023457  1
  O  O21  1  0.52088284  0.21945406  0.19298493  1
  O  O22  1  0.08697698  0.97183344  0.20135921  1
  O  O23  1  0.59656849  0.97112409  0.19912141  1
  O  O24  1  0.43626604  0.35663391  0.63882159  1
  O  O25  1  0.94006558  0.35715328  0.63837526  1
  O  O26  1  0.24915028  0.13071487  0.64004775  1
  O  O27  1  0.75435937  0.14358766  0.64195031  1
  O  O28  1  0.32056753  0.51388622  0.64220897  1
  O  O29  1  0.82354312  0.52208981  0.63681587  1
  O  O30  1  0.44063028  0.52232295  0.13973532  1
  O  O31  1  0.93693240  0.51496942  0.14050626  1
  O  O32  1  0.32277766  0.12655849  0.13773883  1
  O  O33  1  0.82190076  0.12670772  0.14392792  1
  O  O34  1  0.25153578  0.35939077  0.14385222  1
  O  O35  1  0.74716510  0.37209508  0.14100365  1
  O  O36  1  0.23692370  0.31472209  0.02674993  1
  O  O37  1  0.73139931  0.31089769  0.02069509  1
  O  O38  1  0.42441821  0.53700993  0.03286162  1
  O  O39  1  0.92262437  0.53564177  0.03271316  1
  O  O40  1  0.34422970  0.14715488  0.03106781  1
  O  O41  1  0.85615576  0.16892884  0.02516941  1
  O  O42  1  0.23088364  0.15030055  0.51970987  1
  O  O43  1  0.73734211  0.15971846  0.52525402  1
  O  O44  1  0.35721865  0.55107167  0.52398771  1
  O  O45  1  0.84496562  0.54449924  0.52994319  1
  O  O46  1  0.42290454  0.31110332  0.53091219  1
  O  O47  1  0.92521951  0.31222928  0.53138742  1
  O  O48  1  0.27337537  0.69705102  0.96567201  1
  O  O49  1  0.77384995  0.68775926  0.97075952  1
  O  O50  1  0.07245587  0.46171459  0.96810836  1
  O  O51  1  0.58638630  0.46297278  0.96762226  1
  O  O52  1  0.15393729  0.83930696  0.97483193  1
  O  O53  1  0.65876313  0.85973777  0.96869777  1
  O  O54  1  0.27256853  0.85675585  0.46952192  1
  O  O55  1  0.77394224  0.84947272  0.46508059  1
  O  O56  1  0.15441657  0.45044308  0.46633226  1
  O  O57  1  0.65411461  0.46928829  0.47334055  1
  O  O58  1  0.08874047  0.71252692  0.46493856  1
  O  O59  1  0.57305146  0.68377160  0.46705356  1
  O  O60  1  0.07154238  0.64751760  0.34967687  1
  O  O61  1  0.55898910  0.64289547  0.36062805  1
  O  O62  1  0.25745793  0.88159243  0.36434682  1
  O  O63  1  0.75722905  0.86896270  0.35923834  1
  O  O64  1  0.18056586  0.47862324  0.36085366  1
  O  O65  1  0.68324948  0.49388208  0.35831848  1
  O  O66  1  0.05848891  0.47516793  0.86180080  1
  O  O67  1  0.56943224  0.49658413  0.85302788  1
  O  O68  1  0.18185766  0.86923091  0.85983083  1
  O  O69  1  0.68028798  0.87980561  0.86279874  1
  O  O70  1  0.25644223  0.64393382  0.85986725  1
  O  O71  1  0.75885953  0.63173158  0.86557969  1
  O  O72  1  0.01697212  0.85034688  0.40400582  1
  O  O73  1  0.50801071  0.81399137  0.41199721  1
  O  O74  1  0.39876771  0.97692988  0.41161991  1
  O  O75  1  0.90147031  0.97118207  0.40553048  1
  O  O76  1  0.08551113  0.19424544  0.40697930  1
  O  O77  1  0.57928516  0.17809176  0.41218111  1
  O  O78  1  0.00698249  0.20092563  0.91330574  1
  O  O79  1  0.51293986  0.18038275  0.90780063  1
  O  O80  1  0.07888555  0.97980452  0.91375691  1
  O  O81  1  0.58672554  0.97447920  0.91168799  1
  O  O82  1  0.40116700  0.83153428  0.90534988  1
  O  O83  1  0.89999781  0.81954784  0.91293290  1
  O  O84  1  0.48397868  0.17781824  0.58756984  1
  O  O85  1  0.98570078  0.17360236  0.58764870  1
  O  O86  1  0.09346296  0.03745674  0.58634680  1
  O  O87  1  0.59763957  0.02819541  0.58978171  1
  O  O88  1  0.41558129  0.82060040  0.58925007  1
  O  O89  1  0.91144538  0.80045227  0.58616832  1
  O  O90  1  0.48557227  0.79660249  0.08937732  1
  O  O91  1  0.98667059  0.79180622  0.09112648  1
  O  O92  1  0.41040439  0.02376396  0.08751852  1
  O  O93  1  0.91556869  0.01562732  0.08878166  1
  O  O94  1  0.09753923  0.16578030  0.09208166  1
  O  O95  1  0.59311316  0.15042484  0.08757445  1
  O  O96  1  0.34657350  0.16088974  0.74660135  1
  O  O97  1  0.84729903  0.17105224  0.74731447  1
  O  O98  1  0.23993854  0.31644378  0.74520388  1
  O  O99  1  0.74163408  0.32021858  0.74768389  1
  O  O100  1  0.41951413  0.52164975  0.74706872  1
  O  O101  1  0.91571825  0.50234260  0.73788983  1
  O  O102  1  0.34193094  0.51624697  0.24751251  1
  O  O103  1  0.84798641  0.53463453  0.24728642  1
  O  O104  1  0.41179289  0.32331882  0.23866549  1
  O  O105  1  0.92120424  0.31221832  0.24885075  1
  O  O106  1  0.23254320  0.15293782  0.24614857  1
  O  O107  1  0.73998458  0.16429103  0.24472441  1
  O  O108  1  0.32280809  0.51953070  0.91791032  1
  O  O109  1  0.82257709  0.50407310  0.92381593  1
  O  O110  1  0.42887426  0.36147787  0.91983412  1
  O  O111  1  0.93053780  0.36633780  0.92266300  1
  O  O112  1  0.24971026  0.14770687  0.91884668  1
  O  O113  1  0.74491844  0.14278961  0.92001622  1
  O  O114  1  0.32181027  0.13760003  0.42205031  1
  O  O115  1  0.82388427  0.12707687  0.41723366  1
  O  O116  1  0.24259566  0.34411579  0.41820388  1
  O  O117  1  0.75077224  0.35249465  0.41884980  1
  O  O118  1  0.43116391  0.49544853  0.42154975  1
  O  O119  1  0.93039572  0.49813493  0.41703518  1
  O  O120  1  0.18099136  0.50839574  0.08037321  1
  O  O121  1  0.67541650  0.49861227  0.07906674  1
  O  O122  1  0.06355144  0.63529977  0.08000740  1
  O  O123  1  0.56468740  0.64408733  0.07864876  1
  O  O124  1  0.25392810  0.86868469  0.07950872  1
  O  O125  1  0.74394256  0.85822208  0.07606976  1
  O  O126  1  0.17594835  0.85447015  0.57923289  1
  O  O127  1  0.68096507  0.85413179  0.57812160  1
  O  O128  1  0.24436134  0.63123668  0.57429798  1
  O  O129  1  0.75497026  0.64189474  0.57805778  1
  O  O130  1  0.06485636  0.48483302  0.57708275  1
  O  O131  1  0.56278157  0.49091087  0.57858942  1
  O  O132  1  0.15030674  0.83912828  0.25554943  1
  O  O133  1  0.66071697  0.84755042  0.25892630  1
  O  O134  1  0.25030053  0.68699307  0.26153592  1
  O  O135  1  0.76725236  0.69305408  0.25731118  1
  O  O136  1  0.07770234  0.46221712  0.25628081  1
  O  O137  1  0.58210150  0.50782987  0.25601598  1
  O  O138  1  0.16095497  0.47451667  0.75902502  1
  O  O139  1  0.64860061  0.48170104  0.75462842  1
  O  O140  1  0.08502601  0.66126492  0.75553712  1
  O  O141  1  0.57578628  0.69223123  0.75629687  1
  O  O142  1  0.26462664  0.84093000  0.75729939  1
  O  O143  1  0.75155964  0.82263131  0.76185460  1
loop_
_geom_bond_atom_site_label_1
_geom_bond_atom_site_label_2
_geom_bond_distance
_geom_bond_site_symmetry_2
Na0 O132 2.357966 1_555
Na0 O103 2.405233 1_455
Na0 O105 2.438452 1_455
Na0 O136 2.473803 1_555
Na0 O60 2.479356 1_555
Na0 O31 2.828069 1_455
Na0 O3 2.867966 1_455
Na0 O22 2.906099 1_555
Na1 O137 2.350204 1_555
Na1 O102 2.375087 1_555
Na1 O104 2.441839 1_555
Na1 O133 2.569022 1_555
Na1 O61 2.740089 1_555
Na1 O30 2.744963 1_555
Na1 O2 2.786405 1_555
Na1 O23 2.838279 1_555
Na2 O97 2.295137 1_555
Na2 O140 2.355078 1_655
Na2 O101 2.363002 1_555
Na2 O138 2.587301 1_655
Na2 O25 2.729373 1_555
Na2 O66 2.792568 1_655
Na2 O11 2.834795 1_555
Na2 O14 2.861306 1_655
Na3 O139 2.272250 1_555
Na3 O96 2.421745 1_555
Na3 O100 2.472031 1_555
Na3 O141 2.518390 1_555
Na3 O67 2.592880 1_555
Na3 O15 2.752602 1_555
Na3 O24 2.833593 1_555
Na3 O10 2.860990 1_555
Na4 O79 2.365630 1_555
Na4 O113 2.429995 1_555
Na4 O109 2.455977 1_555
Na4 O81 2.495694 1_545
Na4 O7 2.634523 1_555
Na4 O37 2.638019 1_556
Na4 O51 2.743409 1_555
Na4 O71 2.819497 1_555
Na5 O72 2.354198 1_545
Na5 O116 2.423086 1_555
Na5 O114 2.427307 1_555
Na5 O42 2.436851 1_555
Na5 O76 2.545163 1_555
Na5 O58 2.604759 1_545
Na5 O62 2.905888 1_545
Na5 O0 2.939721 1_555
Na6 O86 2.432885 1_565
Na6 O89 2.543794 1_455
Na6 O85 2.617704 1_465
Na6 O72 2.675551 1_555
Na6 O76 2.721832 1_565
Na6 O75 2.780716 1_455
Na7 O87 2.510518 1_565
Na7 O88 2.527086 1_555
Na7 O77 2.544787 1_565
Na7 O73 2.644536 1_555
Na7 O84 2.678155 1_565
Na7 O74 2.764003 1_555
Na8 O80 2.396587 1_545
Na8 O78 2.545163 1_555
Na8 O83 2.639966 1_445
Na8 O94 2.648904 1_556
Na8 O93 2.650746 1_456
Na8 O91 2.813734 1_446
Na9 O79 2.491858 1_555
Na9 O95 2.542622 1_556
Na9 O81 2.562822 1_545
Na9 O92 2.683727 1_556
Na9 O82 2.698412 1_545
Na9 O90 2.757278 1_546
Na10 O112 2.467608 1_555
Na10 O110 2.547268 1_555
Na10 O96 2.558097 1_555
Na10 O98 2.568044 1_555
Na10 O100 2.578785 1_555
Na10 O108 2.652187 1_555
Na11 O99 2.348248 1_555
Na11 O97 2.381468 1_555
Na11 O101 2.518152 1_555
Na11 O113 2.676435 1_555
Na11 O111 2.774199 1_555
Na11 O109 2.785251 1_555
Na12 O102 2.404032 1_555
Na12 O104 2.518130 1_555
Na12 O106 2.603274 1_555
Na12 O118 2.614228 1_555
Na12 O116 2.630008 1_555
Na12 O114 2.719772 1_555
Na13 O117 2.396779 1_555
Na13 O119 2.497218 1_555
Na13 O107 2.591686 1_555
Na13 O103 2.593850 1_555
Na13 O115 2.606041 1_555
Na13 O105 2.650932 1_555
Na14 O134 2.391048 1_555
Na14 O120 2.458387 1_555
Na14 O124 2.631246 1_555
Na14 O136 2.671137 1_555
Na14 O132 2.741195 1_555
Na14 O122 2.855298 1_555
Na15 O121 2.450905 1_555
Na15 O137 2.562827 1_555
Na15 O125 2.570926 1_555
Na15 O135 2.597188 1_555
Na15 O123 2.742309 1_555
Na15 O133 2.797162 1_555
Na16 O126 2.498070 1_555
Na16 O140 2.499636 1_555
Na16 O142 2.534201 1_555
Na16 O128 2.638799 1_555
Na16 O138 2.757729 1_555
Na16 O130 2.805603 1_555
Na17 O143 2.345462 1_555
Na17 O139 2.444774 1_555
Na17 O141 2.630228 1_555
Na17 O127 2.658545 1_555
Na17 O129 2.721766 1_555
Na17 O131 2.933124 1_555
Ga0 O72 1.868840 1_655
Ga0 O3 1.986093 1_555
Ga0 O75 2.037650 1_555
Ga0 O0 2.051725 1_665
Ga0 O5 2.081262 1_565
Ga0 O76 2.127406 1_665
Ga1 O7 1.822661 1_555
Ga1 O79 1.897244 1_555
Ga1 O10 2.031047 1_555
Ga1 O82 2.172408 1_545
Ga1 O8 2.177605 1_545
Ga1 O81 2.234658 1_545
Ga2 O28 1.778041 1_555
Ga2 O26 1.794468 1_555
Ga2 O98 2.081972 1_555
Ga2 O24 2.140810 1_555
Ga2 O100 2.373870 1_555
Ga2 O96 2.437680 1_555
Ga3 O27 1.832267 1_555
Ga3 O99 1.841173 1_555
Ga3 O97 1.885592 1_555
Ga3 O101 1.963628 1_555
Ga3 O29 2.355932 1_555
Ga3 O25 2.379338 1_555
Ga4 O34 1.812536 1_555
Ga4 O102 1.893994 1_555
Ga4 O104 1.914863 1_555
Ga4 O30 2.105231 1_555
Ga4 O106 2.167113 1_555
Ga4 O32 2.283722 1_555
Ga5 O33 1.771575 1_555
Ga5 O35 1.775391 1_555
Ga5 O107 2.111972 1_555
Ga5 O31 2.121251 1_555
Ga5 O103 2.495271 1_555
Ga5 O105 2.524705 1_555
Ga6 O41 1.795694 1_556
Ga6 O37 1.835908 1_556
Ga6 O113 2.120158 1_555
Ga6 O39 2.158573 1_556
Ga6 O111 2.239992 1_555
Ga6 O109 2.307525 1_555
Ga7 O44 1.774071 1_555
Ga7 O42 1.821463 1_555
Ga7 O46 1.988185 1_555
Ga7 O118 2.336891 1_555
Ga7 O116 2.360606 1_555
Ga7 O114 2.445748 1_555
Ga8 O134 1.845873 1_555
Ga8 O60 1.847401 1_555
Ga8 O64 1.984162 1_555
Ga8 O62 2.049299 1_555
Ga8 O136 2.247483 1_555
Ga8 O132 2.296586 1_555
Ga9 O65 1.778683 1_555
Ga9 O137 1.870088 1_555
Ga9 O61 2.103228 1_555
Ga9 O135 2.159752 1_555
Ga9 O63 2.174548 1_555
Ga9 O133 2.308077 1_555
Ga10 O68 1.776545 1_555
Ga10 O140 1.859731 1_555
Ga10 O142 2.047128 1_555
Ga10 O70 2.170302 1_555
Ga10 O66 2.198990 1_555
Ga10 O138 2.295908 1_555
Ga11 O143 1.854227 1_555
Ga11 O67 1.871665 1_555
Ga11 O139 1.896444 1_555
Ga11 O71 2.126593 1_555
Ga11 O141 2.225573 1_555
Ga11 O69 2.251317 1_555
O0 S0 1.500779 1_555
O1 S1 1.486657 1_555
O1 Zr0 2.191734 1_555
O2 Si0 1.645142 1_555
O2 Zr0 2.014742 1_565
O3 S2 1.501305 1_555
O4 Si1 1.638529 1_555
O4 Zr0 1.964873 1_555
O5 S3 1.489018 1_555
O6 S4 1.486288 1_555
O6 Zr1 2.187035 1_445
O7 Si2 1.647328 1_555
O8 S5 1.480844 1_555
O9 Si3 1.643712 1_655
O9 Zr1 1.948555 1_555
O10 S6 1.494035 1_545
O11 Si4 1.652202 1_545
O11 Zr1 1.987441 1_545
O12 S6 1.468373 1_555
O12 Zr3 2.273824 1_555
O13 Si4 1.656859 1_555
O13 Zr2 2.009769 1_655
O14 S4 1.491240 1_555
O14 Zr2 2.228903 1_545
O15 Si2 1.645841 1_555
O15 Zr3 2.005671 1_545
O16 Si3 1.639380 1_555
O16 Zr2 1.953520 1_555
O17 S5 1.490391 1_555
O17 Zr3 2.115616 1_555
O18 Si0 1.647709 1_555
O18 Zr5 2.040125 1_565
O19 S2 1.479971 1_555
O19 Zr4 2.219273 1_565
O20 S3 1.491801 1_455
O20 Zr4 2.124679 1_455
O21 Si1 1.634382 1_555
O21 Zr5 1.960070 1_555
O22 S0 1.490471 1_565
O22 Zr4 2.220143 1_465
O23 S1 1.493277 1_565
O23 Zr5 2.240598 1_565
O24 S7 1.480362 1_555
O25 S8 1.454382 1_555
O26 Si5 1.622814 1_555
O27 Si6 1.596106 1_555
O28 Si7 1.619910 1_555
O29 S9 1.443216 1_555
O30 S10 1.475016 1_555
O31 S11 1.493468 1_555
O32 S12 1.442239 1_555
O33 Si8 1.625473 1_555
O34 Si9 1.601090 1_555
O35 Si10 1.635159 1_555
O36 Si9 1.620842 1_555
O36 Zr6 1.993759 1_554
O37 Si10 1.638632 1_555
O38 S10 1.472731 1_555
O38 Zr6 2.240712 1_554
O39 S11 1.462643 1_555
O40 S12 1.484889 1_555
O40 Zr6 2.169233 1_554
O41 Si8 1.617561 1_555
O42 Si5 1.657196 1_555
O43 Si6 1.634188 1_555
O43 Zr7 1.971992 1_555
O44 Si7 1.635135 1_555
O45 S9 1.487826 1_555
O45 Zr7 2.141337 1_555
O46 S7 1.482131 1_555
O47 S8 1.480517 1_555
O47 Zr7 2.207305 1_555
O48 S13 1.504292 1_555
O48 Zr8 2.148826 1_556
O49 S14 1.480309 1_555
O49 Zr9 2.147059 1_556
O50 S15 1.509052 1_555
O50 Zr8 2.093486 1_556
O51 Si11 1.643212 1_555
O51 Zr9 2.015299 1_556
O52 Si12 1.639470 1_555
O52 Zr8 1.977718 1_556
O53 S16 1.479217 1_555
O53 Zr9 2.240952 1_556
O54 S17 1.474324 1_555
O54 Zr10 2.169389 1_555
O55 S18 1.487809 1_555
O55 Zr11 2.184547 1_555
O56 S19 1.466225 1_555
O56 Zr10 2.321003 1_555
O57 Si13 1.630588 1_555
O57 Zr11 1.992592 1_555
O58 Si14 1.634162 1_555
O58 Zr10 2.056064 1_555
O59 S20 1.494279 1_555
O59 Zr11 2.127621 1_555
O60 Si14 1.648026 1_555
O61 S20 1.498549 1_555
O62 S17 1.488581 1_555
O63 S18 1.473609 1_555
O64 S19 1.482014 1_555
O65 Si13 1.618693 1_555
O66 S15 1.483671 1_555
O67 Si11 1.624835 1_555
O68 Si12 1.607786 1_555
O69 S16 1.458265 1_555
O70 S13 1.471995 1_555
O71 S14 1.473621 1_555
O72 Si14 1.673870 1_555
O73 S20 1.479625 1_555
O73 Zr0 2.343924 1_565
O74 S17 1.481900 1_555
O74 Zr0 2.156895 1_565
O75 S18 1.497664 1_555
O76 S19 1.509483 1_555
O77 Si13 1.633002 1_555
O77 Zr0 2.036236 1_555
O78 S15 1.479993 1_555
O78 Zr1 2.371665 1_445
O79 Si11 1.664078 1_555
O80 Si12 1.626604 1_555
O80 Zr1 2.062607 1_455
O81 S16 1.503086 1_555
O82 S13 1.479978 1_555
O83 S14 1.484825 1_555
O83 Zr1 2.172484 1_555
O84 S7 1.476477 1_555
O84 Zr3 2.243479 1_545
O85 S8 1.483192 1_555
O85 Zr2 2.294999 1_645
O86 Si5 1.632792 1_555
O86 Zr2 2.083489 1_545
O87 Si6 1.647724 1_555
O87 Zr3 1.977578 1_545
O88 Si7 1.626596 1_555
O88 Zr3 2.033660 1_555
O89 S9 1.497236 1_555
O89 Zr2 2.188976 1_655
O90 S10 1.478805 1_555
O90 Zr5 2.271313 1_565
O91 S11 1.493258 1_555
O91 Zr4 2.175680 1_565
O92 S12 1.499998 1_555
O92 Zr5 2.173067 1_555
O93 Si8 1.655783 1_555
O93 Zr4 1.945235 1_555
O94 Si9 1.656735 1_555
O94 Zr4 1.950192 1_455
O95 Si10 1.640239 1_555
O95 Zr5 2.053189 1_555
O96 S6 1.496012 1_545
O97 Si4 1.616154 1_545
O98 S4 1.487008 1_555
O99 Si2 1.602285 1_555
O100 S5 1.506875 1_555
O101 Si3 1.604050 1_655
O102 Si0 1.633025 1_555
O103 S2 1.489854 1_555
O104 Si1 1.625184 1_555
O105 S3 1.485709 1_555
O106 S0 1.462150 1_555
O107 S1 1.487862 1_555
O108 S13 1.491009 1_555
O108 Zr6 2.206494 1_555
O109 S14 1.487159 1_555
O110 Si11 1.629051 1_555
O110 Zr6 2.047720 1_555
O111 S15 1.482554 1_655
O112 Si12 1.640329 1_545
O112 Zr6 1.963877 1_555
O113 S16 1.528605 1_545
O114 S17 1.478389 1_545
O115 S18 1.484409 1_545
O115 Zr7 2.243557 1_555
O116 S19 1.494794 1_555
O117 Si13 1.638312 1_555
O117 Zr7 1.983407 1_555
O118 S20 1.479812 1_555
O119 Si14 1.619673 1_655
O119 Zr7 2.099170 1_555
O120 Si9 1.649019 1_555
O120 Zr8 2.065097 1_555
O121 Si10 1.642051 1_555
O121 Zr9 1.985660 1_555
O122 S11 1.496198 1_455
O122 Zr8 2.201917 1_555
O123 S10 1.487156 1_555
O123 Zr9 2.161851 1_555
O124 S12 1.501047 1_565
O124 Zr8 2.190111 1_555
O125 Si8 1.618142 1_565
O125 Zr9 2.047002 1_555
O126 Si5 1.647721 1_565
O126 Zr10 1.971745 1_555
O127 Si6 1.655063 1_565
O127 Zr11 2.025925 1_555
O128 Si7 1.633395 1_555
O128 Zr10 2.009255 1_555
O129 S9 1.500643 1_555
O129 Zr11 2.150455 1_555
O130 S8 1.501253 1_455
O130 Zr10 2.108687 1_555
O131 S7 1.496018 1_555
O131 Zr11 2.161430 1_555
O132 S0 1.484961 1_565
O133 S1 1.477548 1_565
O134 Si0 1.641834 1_555
O135 S2 1.476062 1_555
O136 S3 1.485132 1_455
O137 Si1 1.660376 1_555
O138 S4 1.476364 1_555
O139 Si2 1.642186 1_555
O140 Si3 1.662888 1_555
O141 S5 1.476017 1_555
O142 S6 1.489717 1_555
O143 Si4 1.614961 1_555
