# generated using pymatgen
data_Na8Ca2Sc2Si3(SO8)3
_symmetry_space_group_name_H-M   'P 1'
_cell_length_a   9.40694044
_cell_length_b   9.37002685
_cell_length_c   22.88544555
_cell_angle_alpha   91.27042574
_cell_angle_beta   89.99885274
_cell_angle_gamma   119.94633493
_symmetry_Int_Tables_number   1
_chemical_formula_structural   Na8Ca2Sc2Si3(SO8)3
_chemical_formula_sum   'Na24 Ca6 Sc6 Si9 S9 O72'
_cell_volume   1747.31716414
_cell_formula_units_Z   3
loop_
 _symmetry_equiv_pos_site_id
 _symmetry_equiv_pos_as_xyz
  1  'x, y, z'
loop_
 _atom_site_type_symbol
 _atom_site_label
 _atom_site_symmetry_multiplicity
 _atom_site_fract_x
 _atom_site_fract_y
 _atom_site_fract_z
 _atom_site_occupancy
  Na  Na0  1  0.64415520  0.02527844  0.26057184  1
  Na  Na1  1  0.34507813  0.34040162  0.25532577  1
  Na  Na2  1  0.00466387  0.62323959  0.24266713  1
  Na  Na3  1  0.62259977  0.62394490  0.73431508  1
  Na  Na4  1  0.99028120  0.34352837  0.73776516  1
  Na  Na5  1  0.38301441  0.02914054  0.75210566  1
  Na  Na6  1  0.30657096  0.35340031  0.59286513  1
  Na  Na7  1  0.01265903  0.67495473  0.58680418  1
  Na  Na8  1  0.67038925  0.95660558  0.57893654  1
  Na  Na9  1  0.28088674  0.94440198  0.08029600  1
  Na  Na10  1  0.68295850  0.69805693  0.08215150  1
  Na  Na11  1  0.02824017  0.35135594  0.09442847  1
  Na  Na12  1  0.99393075  0.69086108  0.91811387  1
  Na  Na13  1  0.68377641  0.02722130  0.89988669  1
  Na  Na14  1  0.32626808  0.27732230  0.90264732  1
  Na  Na15  1  0.94800551  0.27696415  0.41574506  1
  Na  Na16  1  0.34543113  0.03474200  0.40898941  1
  Na  Na17  1  0.69301410  0.68492652  0.42999345  1
  Na  Na18  1  0.96909557  0.99431623  0.50648884  1
  Na  Na19  1  0.01626180  0.98553310  0.99774284  1
  Na  Na20  1  0.64254527  0.30954852  0.82030360  1
  Na  Na21  1  0.66388263  0.30446807  0.33183225  1
  Na  Na22  1  0.30039407  0.65988213  0.17268459  1
  Na  Na23  1  0.34115779  0.64742269  0.66070911  1
  Ca  Ca0  1  0.00000142  0.00496293  0.34798584  1
  Ca  Ca1  1  0.00487176  0.00722576  0.84485556  1
  Ca  Ca2  1  0.66783088  0.33405364  0.68105350  1
  Ca  Ca3  1  0.67276256  0.33275450  0.18340190  1
  Ca  Ca4  1  0.32704485  0.67129232  0.01431114  1
  Ca  Ca5  1  0.34117087  0.66838648  0.51658419  1
  Sc  Sc0  1  0.98575122  0.01499910  0.65041320  1
  Sc  Sc1  1  0.01188253  0.99675593  0.15625155  1
  Sc  Sc2  1  0.66850790  0.33549176  0.98279528  1
  Sc  Sc3  1  0.67621444  0.32789302  0.48954259  1
  Sc  Sc4  1  0.33228755  0.68216125  0.31403777  1
  Sc  Sc5  1  0.34743925  0.68519176  0.81016744  1
  Si  Si0  1  0.30229502  0.99727473  0.25224234  1
  Si  Si1  1  0.00784913  0.30421170  0.25033806  1
  Si  Si2  1  0.29972612  0.30617985  0.75313330  1
  Si  Si3  1  0.69554808  0.99752183  0.75347441  1
  Si  Si4  1  0.97045382  0.33336049  0.58511788  1
  Si  Si5  1  0.67584974  0.63732177  0.58412639  1
  Si  Si6  1  0.96402674  0.63828193  0.08380426  1
  Si  Si7  1  0.33726208  0.97278421  0.92009164  1
  Si  Si8  1  0.63213480  0.97174901  0.41726915  1
  S  S0  1  0.69663332  0.70445011  0.24868589  1
  S  S1  1  0.00665482  0.70261915  0.75150469  1
  S  S2  1  0.36255693  0.03726769  0.58205637  1
  S  S3  1  0.67372790  0.03587384  0.08072372  1
  S  S4  1  0.36811971  0.33031952  0.08177278  1
  S  S5  1  0.62910531  0.65910132  0.91854926  1
  S  S6  1  0.02736121  0.36654310  0.91838995  1
  S  S7  1  0.33992005  0.37134284  0.41451527  1
  S  S8  1  0.03199484  0.66112960  0.41562511  1
  O  O0  1  0.22199893  0.01926850  0.31114533  1
  O  O1  1  0.79701318  0.77760892  0.30200774  1
  O  O2  1  0.97281064  0.19298287  0.30697163  1
  O  O3  1  0.23001819  0.20192616  0.81223979  1
  O  O4  1  0.98518959  0.77605125  0.80636768  1
  O  O5  1  0.79049433  0.01546495  0.81439786  1
  O  O6  1  0.79288769  0.97327386  0.69696962  1
  O  O7  1  0.17659236  0.20460190  0.69623759  1
  O  O8  1  0.02858065  0.80664053  0.70043658  1
  O  O9  1  0.78214364  0.80927651  0.19678801  1
  O  O10  1  0.02895962  0.20494129  0.19103213  1
  O  O11  1  0.18085917  0.96864392  0.19360996  1
  O  O12  1  0.89283169  0.35969954  0.64396301  1
  O  O13  1  0.46114561  0.10901567  0.63570187  1
  O  O14  1  0.64237762  0.52843432  0.64130985  1
  O  O15  1  0.87974699  0.53258056  0.14097941  1
  O  O16  1  0.64385683  0.10778174  0.13465548  1
  O  O17  1  0.46358582  0.35205021  0.13609037  1
  O  O18  1  0.45522867  0.31024432  0.03013861  1
  O  O19  1  0.84317369  0.53756704  0.02553334  1
  O  O20  1  0.68767859  0.13997507  0.02982132  1
  O  O21  1  0.45066547  0.14241142  0.53044733  1
  O  O22  1  0.69285646  0.53503562  0.52493089  1
  O  O23  1  0.84843448  0.30505655  0.52672130  1
  O  O24  1  0.55592116  0.68015971  0.97315804  1
  O  O25  1  0.12689810  0.44086574  0.97243721  1
  O  O26  1  0.31476434  0.87260251  0.97943104  1
  O  O27  1  0.54794024  0.86609587  0.47413125  1
  O  O28  1  0.31709946  0.44870406  0.46757199  1
  O  O29  1  0.12936355  0.68321335  0.46866658  1
  O  O30  1  0.11793204  0.64246222  0.36268365  1
  O  O31  1  0.51318253  0.87247262  0.35805924  1
  O  O32  1  0.35372571  0.47069309  0.36198316  1
  O  O33  1  0.10793200  0.46900783  0.86745211  1
  O  O34  1  0.36273848  0.87467981  0.86302399  1
  O  O35  1  0.52380093  0.63942690  0.86725282  1
  O  O36  1  0.01057433  0.80695396  0.41068253  1
  O  O37  1  0.81580749  0.99163854  0.41485907  1
  O  O38  1  0.19671458  0.20216710  0.41061294  1
  O  O39  1  -0.00022212  0.19688468  0.91366272  1
  O  O40  1  0.17351621  0.99279155  0.91652429  1
  O  O41  1  0.79692853  0.80369907  0.91438296  1
  O  O42  1  0.98066410  0.16075529  0.58599243  1
  O  O43  1  0.20056609  0.02878074  0.58551877  1
  O  O44  1  0.85281394  0.81651751  0.58771044  1
  O  O45  1  0.97558459  0.82397318  0.08629568  1
  O  O46  1  0.82966105  0.03113666  0.08487148  1
  O  O47  1  0.20240596  0.17804810  0.08364043  1
  O  O48  1  0.67236458  0.15746541  0.74880631  1
  O  O49  1  0.48622368  0.33742559  0.74794408  1
  O  O50  1  0.86275716  0.53549422  0.74584617  1
  O  O51  1  0.66947932  0.53615200  0.24109825  1
  O  O52  1  0.85350761  0.33792738  0.24628731  1
  O  O53  1  0.48355892  0.15954449  0.24614083  1
  O  O54  1  0.64052629  0.50386626  0.92117110  1
  O  O55  1  0.86184814  0.35647351  0.92441690  1
  O  O56  1  0.50975911  0.15958415  0.92430874  1
  O  O57  1  0.64246566  0.15651969  0.41922885  1
  O  O58  1  0.49440067  0.36193696  0.41816241  1
  O  O59  1  0.86737852  0.50711922  0.41723386  1
  O  O60  1  0.35114289  0.47844180  0.07632786  1
  O  O61  1  0.14777447  0.65785083  0.08145010  1
  O  O62  1  0.53497389  0.86517342  0.07462243  1
  O  O63  1  0.33681856  0.86890921  0.57456263  1
  O  O64  1  0.52062260  0.67015569  0.58024710  1
  O  O65  1  0.15219903  0.49516093  0.57902870  1
  O  O66  1  0.31361544  0.82469821  0.25273494  1
  O  O67  1  0.53407195  0.69588224  0.25279047  1
  O  O68  1  0.18406056  0.48427302  0.25462893  1
  O  O69  1  0.30295013  0.48644397  0.75852667  1
  O  O70  1  0.15910767  0.68855238  0.75625500  1
  O  O71  1  0.51070472  0.82466842  0.75288896  1
loop_
_geom_bond_atom_site_label_1
_geom_bond_atom_site_label_2
_geom_bond_distance
_geom_bond_site_symmetry_2
Na0 O53 2.426945 1_555
Na0 O52 2.617231 1_555
Na0 O31 2.631709 1_545
Na0 O66 2.717226 1_545
Na0 O67 2.723033 1_545
Na0 O2 2.868964 1_555
Na0 O16 3.000415 1_555
Na1 O68 2.480199 1_555
Na1 O53 2.607898 1_555
Na1 O51 2.687180 1_555
Na1 O32 2.687708 1_555
Na1 O67 2.890530 1_555
Na1 O17 2.931278 1_555
Na1 O0 2.952765 1_555
Na1 O10 2.961084 1_555
Na2 O52 2.321712 1_455
Na2 O15 2.536536 1_455
Na2 O66 2.562505 1_555
Na2 O68 2.613053 1_555
Na2 O51 2.835296 1_455
Na2 O30 2.915186 1_555
Na3 O14 2.334019 1_555
Na3 O49 2.355676 1_555
Na3 O71 2.601345 1_555
Na3 O69 2.678125 1_555
Na3 O50 2.781959 1_555
Na3 O6 2.983228 1_555
Na4 O12 2.371670 1_555
Na4 O69 2.590276 1_655
Na4 O50 2.616905 1_555
Na4 O48 2.619396 1_555
Na4 O7 2.809317 1_655
Na4 O70 2.822447 1_655
Na5 O48 2.365739 1_555
Na5 O49 2.551105 1_555
Na5 O71 2.722679 1_545
Na5 O13 2.781390 1_555
Na5 O70 2.816466 1_545
Na5 O34 2.908934 1_545
Na5 O3 2.968826 1_555
Na6 O65 2.432673 1_555
Na6 O64 2.649208 1_555
Na6 O42 2.672924 1_455
Na6 O43 2.687689 1_555
Na6 O7 2.734911 1_555
Na6 O14 2.940206 1_555
Na6 O28 3.009054 1_555
Na7 O44 2.451719 1_455
Na7 O65 2.605246 1_555
Na7 O63 2.677608 1_555
Na7 O8 2.825050 1_555
Na7 O43 2.875846 1_565
Na7 O29 2.906061 1_555
Na7 O12 2.924812 1_455
Na7 O22 2.958765 1_455
Na8 O64 2.327689 1_555
Na8 O42 2.572238 1_565
Na8 O27 2.594907 1_555
Na8 O44 2.639841 1_555
Na8 O63 2.820218 1_555
Na8 O6 2.907009 1_555
Na9 O61 2.329021 1_555
Na9 O26 2.455150 1_554
Na9 O45 2.512304 1_455
Na9 O47 2.636286 1_565
Na9 O11 2.801617 1_555
Na9 O62 2.836934 1_555
Na10 O45 2.393955 1_555
Na10 O62 2.570576 1_555
Na10 O46 2.709269 1_565
Na10 O24 2.731221 1_554
Na10 O60 2.751432 1_555
Na10 O9 2.783429 1_555
Na10 O19 2.896211 1_555
Na11 O61 2.532587 1_555
Na11 O10 2.629384 1_555
Na11 O46 2.629677 1_455
Na11 O60 2.688266 1_555
Na11 O47 2.832081 1_555
Na11 O15 2.873590 1_455
Na11 O25 2.947141 1_554
Na12 O40 2.468197 1_655
Na12 O41 2.553364 1_555
Na12 O4 2.709261 1_555
Na12 O55 2.741352 1_555
Na12 O19 2.870632 1_556
Na12 O54 2.883896 1_555
Na12 O26 2.956490 1_655
Na12 O33 2.989034 1_655
Na13 O5 2.224499 1_555
Na13 O56 2.554688 1_555
Na13 O39 2.592850 1_655
Na13 O55 2.720798 1_555
Na13 O34 2.740816 1_545
Na13 O41 2.808223 1_545
Na14 O3 2.212771 1_555
Na14 O40 2.342286 1_545
Na14 O56 2.523418 1_555
Na14 O54 2.668324 1_555
Na14 O39 2.785976 1_555
Na15 O37 2.317935 1_545
Na15 O57 2.511283 1_555
Na15 O59 2.618568 1_555
Na15 O2 2.639481 1_555
Na15 O38 2.758995 1_655
Na15 O23 2.759224 1_555
Na16 O57 2.443239 1_555
Na16 O0 2.490159 1_555
Na16 O38 2.570618 1_555
Na16 O58 2.662572 1_555
Na16 O36 2.787609 1_545
Na16 O31 2.911583 1_545
Na16 O21 2.933041 1_555
Na17 O37 2.538382 1_555
Na17 O22 2.612731 1_555
Na17 O36 2.653056 1_655
Na17 O58 2.653622 1_555
Na17 O27 2.828651 1_555
Na17 O59 2.873691 1_555
Na18 O42 2.336501 1_565
Na18 O44 2.396866 1_555
Na18 O37 2.537506 1_555
Na18 O43 2.718250 1_665
Na18 O36 2.924873 1_655
Na18 O38 3.036123 1_665
Na19 O40 2.356439 1_555
Na19 O45 2.470374 1_456
Na19 O47 2.621805 1_566
Na19 O41 2.673149 1_455
Na19 O46 2.819698 1_466
Na19 O39 2.850275 1_565
Na20 O48 2.254407 1_555
Na20 O49 2.318546 1_555
Na20 O50 2.730982 1_555
Na20 O56 2.756080 1_555
Na20 O54 2.914170 1_555
Na21 O57 2.409751 1_555
Na21 O53 2.479837 1_555
Na21 O52 2.565475 1_555
Na21 O59 2.701208 1_555
Na21 O58 2.746817 1_555
Na22 O66 2.332252 1_555
Na22 O68 2.400203 1_555
Na22 O61 2.528266 1_555
Na22 O67 2.745747 1_555
Na22 O60 2.936838 1_555
Na23 O64 2.438130 1_555
Na23 O65 2.457501 1_555
Na23 O71 2.636772 1_555
Na23 O69 2.650309 1_555
Na23 O63 2.908866 1_555
Na23 O70 2.912724 1_555
Ca0 O2 2.138562 1_455
Ca0 O0 2.194389 1_555
Ca0 O1 2.265184 1_445
Ca0 O37 2.269896 1_445
Ca0 O38 2.315543 1_555
Ca0 O36 2.411072 1_545
Ca1 O3 2.138643 1_555
Ca1 O5 2.171755 1_455
Ca1 O4 2.239900 1_445
Ca1 O40 2.334387 1_545
Ca1 O39 2.366636 1_555
Ca1 O41 2.530829 1_445
Ca2 O14 2.170437 1_555
Ca2 O12 2.181584 1_555
Ca2 O13 2.261336 1_555
Ca2 O49 2.305335 1_555
Ca2 O48 2.308263 1_555
Ca2 O50 2.354630 1_555
Ca3 O15 2.163395 1_555
Ca3 O52 2.208877 1_555
Ca3 O53 2.254482 1_555
Ca3 O16 2.255127 1_555
Ca3 O51 2.307343 1_555
Ca3 O17 2.332568 1_555
Ca4 O26 2.119653 1_554
Ca4 O25 2.230408 1_554
Ca4 O61 2.239874 1_555
Ca4 O24 2.313917 1_554
Ca4 O62 2.317876 1_555
Ca4 O60 2.419452 1_555
Ca5 O27 2.154386 1_555
Ca5 O64 2.223451 1_555
Ca5 O28 2.231327 1_555
Ca5 O65 2.249200 1_555
Ca5 O63 2.293201 1_555
Ca5 O29 2.339864 1_555
O0 Si0 1.604126 1_545
O1 S0 1.472202 1_555
O2 Si1 1.609848 1_655
O3 Si2 1.622658 1_555
O4 S1 1.480214 1_655
O5 Si3 1.615453 1_545
O6 Si3 1.660393 1_555
O6 Sc0 1.972264 1_565
O7 Si2 1.669562 1_555
O7 Sc0 2.052354 1_455
O8 S1 1.486015 1_555
O8 Sc0 2.483729 1_465
O9 S0 1.511734 1_555
O9 Sc1 2.213366 1_655
O10 Si1 1.695635 1_555
O10 Sc1 2.020621 1_545
O11 Si0 1.689838 1_555
O11 Sc1 1.937806 1_555
O12 Si4 1.603999 1_555
O13 S2 1.469792 1_555
O14 Si5 1.609715 1_555
O15 Si6 1.610928 1_555
O16 S3 1.486084 1_555
O17 S4 1.483057 1_555
O18 S4 1.499062 1_555
O18 Sc2 2.189191 1_554
O19 Si6 1.683607 1_555
O19 Sc2 2.013305 1_554
O20 S3 1.499438 1_555
O20 Sc2 2.228058 1_554
O21 S2 1.512907 1_555
O21 Sc3 2.188409 1_555
O22 Si5 1.695560 1_555
O22 Sc3 2.018555 1_555
O23 Si4 1.689474 1_555
O23 Sc3 1.936121 1_555
O24 S5 1.483037 1_555
O25 S6 1.484068 1_555
O26 Si7 1.621209 1_555
O27 Si8 1.604692 1_555
O28 S7 1.470441 1_555
O29 S8 1.467974 1_555
O30 S8 1.511224 1_555
O30 Sc4 2.170984 1_555
O31 Si8 1.690719 1_555
O31 Sc4 1.995343 1_555
O32 S7 1.502572 1_555
O32 Sc4 2.380376 1_555
O33 S6 1.475896 1_555
O33 Sc5 2.541511 1_555
O34 Si7 1.665779 1_555
O34 Sc5 2.070276 1_555
O35 S5 1.483755 1_555
O35 Sc5 2.319091 1_555
O36 S8 1.483955 1_555
O37 Si8 1.643786 1_555
O38 S7 1.482321 1_555
O39 S6 1.478765 1_555
O40 Si7 1.644221 1_555
O41 S5 1.485712 1_555
O42 Si4 1.667890 1_555
O42 Sc0 2.048323 1_555
O43 S2 1.487944 1_555
O43 Sc0 2.460407 1_455
O44 Si5 1.673470 1_555
O44 Sc0 2.154430 1_565
O45 Si6 1.687949 1_555
O45 Sc1 2.152666 1_655
O46 S3 1.492594 1_555
O46 Sc1 2.507065 1_645
O47 S4 1.499914 1_555
O47 Sc1 2.438159 1_545
O48 Si3 1.624319 1_545
O49 Si2 1.632903 1_555
O50 S1 1.475146 1_655
O51 S0 1.472378 1_555
O52 Si1 1.635723 1_655
O53 Si0 1.630898 1_545
O54 S5 1.513528 1_555
O54 Sc2 2.249568 1_555
O55 S6 1.518549 1_655
O55 Sc2 2.187686 1_555
O56 Si7 1.692018 1_545
O56 Sc2 2.045291 1_555
O57 Si8 1.684475 1_545
O57 Sc3 2.155267 1_555
O58 S7 1.501564 1_555
O58 Sc3 2.502673 1_555
O59 S8 1.501039 1_655
O59 Sc3 2.429095 1_555
O60 S4 1.481987 1_555
O61 Si6 1.645679 1_455
O62 S3 1.478938 1_565
O63 S2 1.477596 1_565
O64 Si5 1.638439 1_555
O65 Si4 1.631700 1_455
O66 Si0 1.673032 1_555
O66 Sc4 2.024887 1_555
O67 S0 1.493820 1_555
O67 Sc4 2.312686 1_555
O68 Si1 1.674635 1_555
O68 Sc4 2.130237 1_555
O69 Si2 1.675935 1_555
O69 Sc5 2.040644 1_555
O70 S1 1.508389 1_555
O70 Sc5 2.172427 1_555
O71 Si3 1.683520 1_555
O71 Sc5 1.963934 1_555
