# generated using pymatgen
data_NaCaLa(SO4)3
_symmetry_space_group_name_H-M   'P 1'
_cell_length_a   9.34855610
_cell_length_b   9.34855575
_cell_length_c   25.00755336
_cell_angle_alpha   90.00000000
_cell_angle_beta   90.00000000
_cell_angle_gamma   120.00000123
_symmetry_Int_Tables_number   1
_chemical_formula_structural   NaCaLa(SO4)3
_chemical_formula_sum   'Na6 Ca6 La6 S18 O72'
_cell_volume   1892.73969967
_cell_formula_units_Z   6
loop_
 _symmetry_equiv_pos_site_id
 _symmetry_equiv_pos_as_xyz
  1  'x, y, z'
loop_
 _atom_site_type_symbol
 _atom_site_label
 _atom_site_symmetry_multiplicity
 _atom_site_fract_x
 _atom_site_fract_y
 _atom_site_fract_z
 _atom_site_occupancy
  Na  Na0  1  0.00000000  -0.00000000  0.49575549  1
  Na  Na1  1  0.00000000  -0.00000000  0.99575549  1
  Na  Na2  1  0.66666700  0.33333300  0.82908849  1
  Na  Na3  1  0.66666700  0.33333300  0.32908849  1
  Na  Na4  1  0.33333300  0.66666700  0.16242249  1
  Na  Na5  1  0.33333300  0.66666700  0.66242249  1
  Ca  Ca0  1  0.00000000  -0.00000000  0.34975595  1
  Ca  Ca1  1  0.00000000  -0.00000000  0.84975595  1
  Ca  Ca2  1  0.66666700  0.33333300  0.68308895  1
  Ca  Ca3  1  0.66666700  0.33333300  0.18308895  1
  Ca  Ca4  1  0.33333300  0.66666700  0.01642295  1
  Ca  Ca5  1  0.33333300  0.66666700  0.51642295  1
  La  La0  1  0.00000000  -0.00000000  0.64952325  1
  La  La1  1  0.00000000  -0.00000000  0.14952325  1
  La  La2  1  0.66666700  0.33333300  0.98285625  1
  La  La3  1  0.66666700  0.33333300  0.48285625  1
  La  La4  1  0.33333300  0.66666700  0.31619025  1
  La  La5  1  0.33333300  0.66666700  0.81619025  1
  S  S0  1  0.30039312  0.00608436  0.25090123  1
  S  S1  1  0.70569124  0.69960688  0.25090123  1
  S  S2  1  0.99391564  0.29430876  0.25090123  1
  S  S3  1  0.30039312  0.29430876  0.75090123  1
  S  S4  1  0.99391564  0.69960688  0.75090123  1
  S  S5  1  0.70569124  0.00608436  0.75090123  1
  S  S6  1  0.96706012  0.33941736  0.58423423  1
  S  S7  1  0.37235824  0.03293988  0.58423423  1
  S  S8  1  0.66058264  0.62764176  0.58423423  1
  S  S9  1  0.96706012  0.62764176  0.08423423  1
  S  S10  1  0.66058264  0.03293988  0.08423423  1
  S  S11  1  0.37235824  0.33941736  0.08423423  1
  S  S12  1  0.63372612  0.67275136  0.91756823  1
  S  S13  1  0.03902424  0.36627388  0.91756823  1
  S  S14  1  0.32724864  0.96097576  0.91756823  1
  S  S15  1  0.63372612  0.96097576  0.41756823  1
  S  S16  1  0.32724864  0.36627388  0.41756823  1
  S  S17  1  0.03902424  0.67275136  0.41756823  1
  O  O0  1  0.21656538  0.02058957  0.29862797  1
  O  O1  1  0.80402419  0.78343462  0.29862797  1
  O  O2  1  0.97941043  0.19597581  0.29862797  1
  O  O3  1  0.21656538  0.19597581  0.79862797  1
  O  O4  1  0.97941043  0.78343462  0.79862797  1
  O  O5  1  0.80402419  0.02058957  0.79862797  1
  O  O6  1  0.78370152  0.98426057  0.70180403  1
  O  O7  1  0.20055905  0.21629848  0.70180403  1
  O  O8  1  0.01573943  0.79944095  0.70180403  1
  O  O9  1  0.78370152  0.79944095  0.20180403  1
  O  O10  1  0.01573943  0.21629848  0.20180403  1
  O  O11  1  0.20055905  0.98426057  0.20180403  1
  O  O12  1  0.88323238  0.35392257  0.63196097  1
  O  O13  1  0.47069119  0.11676762  0.63196097  1
  O  O14  1  0.64607743  0.52930881  0.63196097  1
  O  O15  1  0.88323238  0.52930881  0.13196097  1
  O  O16  1  0.64607743  0.11676762  0.13196097  1
  O  O17  1  0.47069119  0.35392257  0.13196097  1
  O  O18  1  0.45036852  0.31759357  0.03513703  1
  O  O19  1  0.86722605  0.54963148  0.03513703  1
  O  O20  1  0.68240643  0.13277395  0.03513703  1
  O  O21  1  0.45036852  0.13277395  0.53513703  1
  O  O22  1  0.68240643  0.54963148  0.53513703  1
  O  O23  1  0.86722605  0.31759357  0.53513703  1
  O  O24  1  0.54989838  0.68725657  0.96529497  1
  O  O25  1  0.13735719  0.45010162  0.96529497  1
  O  O26  1  0.31274343  0.86264281  0.96529497  1
  O  O27  1  0.54989838  0.86264281  0.46529497  1
  O  O28  1  0.31274343  0.45010162  0.46529497  1
  O  O29  1  0.13735719  0.68725657  0.46529497  1
  O  O30  1  0.11703452  0.65092757  0.36847103  1
  O  O31  1  0.53389205  0.88296548  0.36847103  1
  O  O32  1  0.34907243  0.46610795  0.36847103  1
  O  O33  1  0.11703452  0.46610795  0.86847103  1
  O  O34  1  0.34907243  0.88296548  0.86847103  1
  O  O35  1  0.53389205  0.65092757  0.86847103  1
  O  O36  1  0.02168122  0.82095517  0.41248582  1
  O  O37  1  0.79927395  0.97831878  0.41248582  1
  O  O38  1  0.17904483  0.20072605  0.41248582  1
  O  O39  1  0.02168122  0.20072605  0.91248582  1
  O  O40  1  0.17904483  0.97831878  0.91248582  1
  O  O41  1  0.79927395  0.82095517  0.91248582  1
  O  O42  1  0.98371126  0.18809565  0.58783606  1
  O  O43  1  0.20438440  0.01628874  0.58783606  1
  O  O44  1  0.81190435  0.79561560  0.58783606  1
  O  O45  1  0.98371126  0.79561560  0.08783606  1
  O  O46  1  0.81190435  0.01628874  0.08783606  1
  O  O47  1  0.20438440  0.18809565  0.08783606  1
  O  O48  1  0.68834822  0.15428817  0.74581882  1
  O  O49  1  0.46594095  0.31165178  0.74581882  1
  O  O50  1  0.84571183  0.53405905  0.74581882  1
  O  O51  1  0.68834822  0.53405905  0.24581882  1
  O  O52  1  0.84571183  0.31165178  0.24581882  1
  O  O53  1  0.46594095  0.15428817  0.24581882  1
  O  O54  1  0.65037826  0.52142865  0.92116906  1
  O  O55  1  0.87105140  0.34962174  0.92116906  1
  O  O56  1  0.47857135  0.12894860  0.92116906  1
  O  O57  1  0.65037826  0.12894860  0.42116906  1
  O  O58  1  0.47857135  0.34962174  0.42116906  1
  O  O59  1  0.87105140  0.52142865  0.42116906  1
  O  O60  1  0.35501422  0.48762217  0.07915282  1
  O  O61  1  0.13260695  0.64498578  0.07915282  1
  O  O62  1  0.51237783  0.86739305  0.07915282  1
  O  O63  1  0.35501422  0.86739305  0.57915282  1
  O  O64  1  0.51237783  0.64498578  0.57915282  1
  O  O65  1  0.13260695  0.48762217  0.57915282  1
  O  O66  1  0.31704426  0.85476265  0.25450306  1
  O  O67  1  0.53771740  0.68295574  0.25450306  1
  O  O68  1  0.14523735  0.46228260  0.25450306  1
  O  O69  1  0.31704426  0.46228260  0.75450306  1
  O  O70  1  0.14523735  0.68295574  0.75450306  1
  O  O71  1  0.53771740  0.85476265  0.75450306  1
loop_
_geom_bond_atom_site_label_1
_geom_bond_atom_site_label_2
_geom_bond_distance
_geom_bond_site_symmetry_2
Na0 O38 2.741943 1_555
Na0 O36 2.741943 1_545
Na0 O37 2.741943 1_445
Na0 O42 2.947113 1_455
Na0 O44 2.947113 1_445
Na0 O43 2.947113 1_555
Na1 O39 2.741943 1_555
Na1 O41 2.741943 1_445
Na1 O40 2.741943 1_545
Na1 O47 2.947113 1_556
Na1 O46 2.947113 1_456
Na1 O45 2.947113 1_446
Na2 O50 2.741943 1_555
Na2 O48 2.741943 1_555
Na2 O49 2.741943 1_555
Na2 O54 2.947113 1_555
Na2 O56 2.947113 1_555
Na2 O55 2.947113 1_555
Na3 O51 2.741943 1_555
Na3 O53 2.741943 1_555
Na3 O52 2.741943 1_555
Na3 O59 2.947113 1_555
Na3 O58 2.947113 1_555
Na3 O57 2.947113 1_555
Na4 O62 2.741943 1_555
Na4 O60 2.741943 1_555
Na4 O61 2.741943 1_555
Na4 O66 2.947113 1_555
Na4 O68 2.947113 1_555
Na4 O67 2.947113 1_555
Na5 O63 2.741943 1_555
Na5 O65 2.741943 1_555
Na5 O64 2.741943 1_555
Na5 O71 2.947113 1_555
Na5 O70 2.947113 1_555
Na5 O69 2.947113 1_555
Ca0 O1 2.319705 1_445
Ca0 O2 2.319705 1_455
Ca0 O0 2.319706 1_555
Ca0 O38 2.375473 1_555
Ca0 O36 2.375473 1_545
Ca0 O37 2.375473 1_445
Ca1 O4 2.319705 1_445
Ca1 O3 2.319705 1_555
Ca1 O5 2.319706 1_455
Ca1 O39 2.375473 1_555
Ca1 O41 2.375473 1_445
Ca1 O40 2.375473 1_545
Ca2 O13 2.319705 1_555
Ca2 O14 2.319705 1_555
Ca2 O12 2.319706 1_555
Ca2 O50 2.375473 1_555
Ca2 O48 2.375473 1_555
Ca2 O49 2.375473 1_555
Ca3 O16 2.319705 1_555
Ca3 O15 2.319705 1_555
Ca3 O17 2.319706 1_555
Ca3 O51 2.375473 1_555
Ca3 O53 2.375473 1_555
Ca3 O52 2.375473 1_555
Ca4 O25 2.319705 1_554
Ca4 O26 2.319705 1_554
Ca4 O24 2.319706 1_554
Ca4 O62 2.375473 1_555
Ca4 O60 2.375473 1_555
Ca4 O61 2.375473 1_555
Ca5 O28 2.319705 1_555
Ca5 O27 2.319705 1_555
Ca5 O29 2.319706 1_555
Ca5 O63 2.375473 1_555
Ca5 O65 2.375473 1_555
Ca5 O64 2.375473 1_555
La0 O7 2.349948 1_555
La0 O8 2.349948 1_545
La0 O6 2.349948 1_445
La0 O42 2.400575 1_455
La0 O44 2.400575 1_445
La0 O43 2.400575 1_555
La1 O10 2.349948 1_555
La1 O9 2.349948 1_445
La1 O11 2.349948 1_545
La1 O47 2.400575 1_555
La1 O46 2.400575 1_455
La1 O45 2.400575 1_445
La2 O19 2.349948 1_556
La2 O20 2.349948 1_556
La2 O18 2.349948 1_556
La2 O54 2.400575 1_555
La2 O56 2.400575 1_555
La2 O55 2.400575 1_555
La3 O22 2.349948 1_555
La3 O21 2.349948 1_555
La3 O23 2.349948 1_555
La3 O59 2.400575 1_555
La3 O58 2.400575 1_555
La3 O57 2.400575 1_555
La4 O31 2.349948 1_555
La4 O32 2.349948 1_555
La4 O30 2.349948 1_555
La4 O66 2.400575 1_555
La4 O68 2.400575 1_555
La4 O67 2.400575 1_555
La5 O34 2.349948 1_555
La5 O33 2.349948 1_555
La5 O35 2.349948 1_555
La5 O71 2.400575 1_555
La5 O70 2.400575 1_555
La5 O69 2.400575 1_555
O0 S0 1.470817 1_555
O1 S1 1.470817 1_555
O2 S2 1.470817 1_555
O3 S3 1.470817 1_555
O4 S4 1.470817 1_555
O5 S5 1.470817 1_555
O6 S5 1.493239 1_565
O7 S3 1.493239 1_555
O8 S4 1.493239 1_455
O9 S1 1.493239 1_555
O10 S2 1.493239 1_455
O11 S0 1.493239 1_565
O12 S6 1.470817 1_555
O13 S7 1.470817 1_555
O14 S8 1.470817 1_555
O15 S9 1.470817 1_555
O16 S10 1.470817 1_555
O17 S11 1.470817 1_555
O18 S11 1.493239 1_555
O19 S9 1.493239 1_555
O20 S10 1.493239 1_555
O21 S7 1.493239 1_555
O22 S8 1.493239 1_555
O23 S6 1.493239 1_555
O24 S12 1.470817 1_555
O25 S13 1.470817 1_555
O26 S14 1.470817 1_555
O27 S15 1.470817 1_555
O28 S16 1.470817 1_555
O29 S17 1.470817 1_555
O30 S17 1.493239 1_555
O31 S15 1.493239 1_555
O32 S16 1.493239 1_555
O33 S13 1.493239 1_555
O34 S14 1.493239 1_555
O35 S12 1.493239 1_555
O36 S17 1.478736 1_555
O37 S15 1.478745 1_555
O38 S16 1.478742 1_555
O39 S13 1.478745 1_555
O40 S14 1.478736 1_555
O41 S12 1.478742 1_555
O42 S6 1.501252 1_555
O43 S7 1.501261 1_555
O44 S8 1.501257 1_555
O45 S9 1.501261 1_555
O46 S10 1.501252 1_555
O47 S11 1.501257 1_555
O48 S5 1.478736 1_555
O49 S3 1.478745 1_555
O50 S4 1.478742 1_555
O51 S1 1.478745 1_555
O52 S2 1.478736 1_555
O53 S0 1.478742 1_555
O54 S12 1.501265 1_555
O55 S13 1.501247 1_655
O56 S14 1.501254 1_545
O57 S15 1.501247 1_545
O58 S16 1.501265 1_555
O59 S17 1.501254 1_655
O60 S11 1.478749 1_555
O61 S9 1.478730 1_455
O62 S10 1.478738 1_565
O63 S7 1.478730 1_565
O64 S8 1.478749 1_555
O65 S6 1.478738 1_455
O66 S0 1.501252 1_565
O67 S1 1.501261 1_555
O68 S2 1.501257 1_455
O69 S3 1.501261 1_555
O70 S4 1.501252 1_455
O71 S5 1.501257 1_565
