# generated using pymatgen
data_Na4LaTa3Si4(PO12)2
_symmetry_space_group_name_H-M   'P 1'
_cell_length_a   9.09167384
_cell_length_b   9.11170232
_cell_length_c   23.02094170
_cell_angle_alpha   89.97131563
_cell_angle_beta   89.96831096
_cell_angle_gamma   119.98663478
_symmetry_Int_Tables_number   1
_chemical_formula_structural   Na4LaTa3Si4(PO12)2
_chemical_formula_sum   'Na12 La3 Ta9 Si12 P6 O72'
_cell_volume   1651.79185035
_cell_formula_units_Z   3
loop_
 _symmetry_equiv_pos_site_id
 _symmetry_equiv_pos_as_xyz
  1  'x, y, z'
loop_
 _atom_site_type_symbol
 _atom_site_label
 _atom_site_symmetry_multiplicity
 _atom_site_fract_x
 _atom_site_fract_y
 _atom_site_fract_z
 _atom_site_occupancy
  Na  Na0  1  0.63168814  0.62448930  0.74772447  1
  Na  Na1  1  0.99455886  0.36965637  0.74818026  1
  Na  Na2  1  0.31593423  0.97466514  0.08349088  1
  Na  Na3  1  0.02619904  0.34386654  0.08344342  1
  Na  Na4  1  0.96342818  0.29263916  0.41489179  1
  Na  Na5  1  0.70595247  0.67766216  0.41726332  1
  Na  Na6  1  0.00452256  0.99411959  0.50275464  1
  Na  Na7  1  0.99114280  0.99091726  0.99598226  1
  Na  Na8  1  0.65255715  0.31830539  0.83439078  1
  Na  Na9  1  0.65659121  0.32330316  0.32620011  1
  Na  Na10  1  0.34436580  0.66463587  0.16555017  1
  Na  Na11  1  0.33366329  0.67052386  0.66641599  1
  La  La0  1  0.00979667  0.99921298  0.35453590  1
  La  La1  1  0.65562068  0.32322011  0.68256835  1
  La  La2  1  0.66792148  0.33776946  0.17656301  1
  Ta  Ta0  1  0.00377393  0.00579846  0.85857627  1
  Ta  Ta1  1  0.99455851  0.00194769  0.64581300  1
  Ta  Ta2  1  0.99564965  0.99675168  0.14596870  1
  Ta  Ta3  1  0.66719248  0.33440090  0.97776756  1
  Ta  Ta4  1  0.67018184  0.33145239  0.48356714  1
  Ta  Ta5  1  0.33656304  0.66695060  0.01355580  1
  Ta  Ta6  1  0.33512819  0.66928167  0.52122829  1
  Ta  Ta7  1  0.33105141  0.67224271  0.31173745  1
  Ta  Ta8  1  0.33594333  0.66969256  0.81529617  1
  Si  Si0  1  0.28068756  0.28892712  0.75314485  1
  Si  Si1  1  0.71226168  0.99152560  0.75393721  1
  Si  Si2  1  0.96922803  0.33287703  0.58434912  1
  Si  Si3  1  0.66991328  0.63586415  0.58338235  1
  Si  Si4  1  0.96692231  0.63236802  0.07922846  1
  Si  Si5  1  0.66313655  0.03086562  0.07981072  1
  Si  Si6  1  0.36827869  0.33753828  0.08038786  1
  Si  Si7  1  0.62467259  0.66360701  0.91490941  1
  Si  Si8  1  0.04011336  0.37802032  0.91540630  1
  Si  Si9  1  0.33642472  0.95908827  0.91614256  1
  Si  Si10  1  0.60842236  0.95965647  0.41802842  1
  Si  Si11  1  0.04186262  0.65528179  0.41936866  1
  P  P0  1  0.29511765  0.98873013  0.24809800  1
  P  P1  1  0.69519617  0.70829805  0.25162061  1
  P  P2  1  0.01273142  0.30445778  0.25113939  1
  P  P3  1  0.01480172  0.72982144  0.75275386  1
  P  P4  1  0.36201182  0.03160820  0.57990273  1
  P  P5  1  0.34785787  0.39575460  0.41895981  1
  O  O0  1  0.21815415  0.00676226  0.30398227  1
  O  O1  1  0.78473142  0.78138980  0.30932095  1
  O  O2  1  0.99437287  0.21314991  0.30867308  1
  O  O3  1  0.17710104  0.17062185  0.80856895  1
  O  O4  1  0.99610971  0.82012098  0.80628647  1
  O  O5  1  0.83050026  -0.00026455  0.80820779  1
  O  O6  1  0.80650631  0.96689614  0.69422665  1
  O  O7  1  0.16274171  0.18872041  0.69469000  1
  O  O8  1  0.03058166  0.83255004  0.69630043  1
  O  O9  1  0.80469871  0.82970577  0.19888587  1
  O  O10  1  0.02610665  0.19954456  0.19736790  1
  O  O11  1  0.17876090  0.97224632  0.19416233  1
  O  O12  1  0.91310476  0.37646792  0.64462797  1
  O  O13  1  0.46219958  0.08197645  0.63590497  1
  O  O14  1  0.62327098  0.53718475  0.64414319  1
  O  O15  1  0.92398659  0.51856530  0.13622395  1
  O  O16  1  0.59969631  0.08006008  0.13721635  1
  O  O17  1  0.46610984  0.38496723  0.14029865  1
  O  O18  1  0.46675201  0.29497756  0.02800952  1
  O  O19  1  0.83149796  0.52963493  0.02636960  1
  O  O20  1  0.70551167  0.17131626  0.02733476  1
  O  O21  1  0.46653056  0.15875932  0.52932673  1
  O  O22  1  0.68969726  0.52378312  0.52789654  1
  O  O23  1  0.83286040  0.30449116  0.52888172  1
  O  O24  1  0.52595853  0.69036475  0.96912357  1
  O  O25  1  0.15887019  0.47007836  0.97148893  1
  O  O26  1  0.30892721  0.84041389  0.97234362  1
  O  O27  1  0.50947428  0.83482294  0.47137774  1
  O  O28  1  0.33292699  0.48961452  0.47161571  1
  O  O29  1  0.16036662  0.66494167  0.47225155  1
  O  O30  1  0.13670124  0.63144760  0.36009757  1
  O  O31  1  0.49371655  0.85749895  0.35911787  1
  O  O32  1  0.36894045  0.50242397  0.36279484  1
  O  O33  1  0.13684483  0.49770494  0.85802187  1
  O  O34  1  0.36067360  0.85797070  0.86019708  1
  O  O35  1  0.50219570  0.63771674  0.85741011  1
  O  O36  1  0.00270701  0.80795156  0.42349043  1
  O  O37  1  0.79796077  0.98542246  0.41959815  1
  O  O38  1  0.18542262  0.22381789  0.41988623  1
  O  O39  1  0.02063293  0.18868127  0.90907305  1
  O  O40  1  0.16675120  0.97659299  0.90835021  1
  O  O41  1  0.81287629  0.83097632  0.90826974  1
  O  O42  1  0.98021686  0.15753888  0.58963280  1
  O  O43  1  0.18834501  0.02147856  0.58581573  1
  O  O44  1  0.84705457  0.81986300  0.58909511  1
  O  O45  1  0.98471574  0.82197462  0.09239969  1
  O  O46  1  0.84242406  0.02552870  0.09246389  1
  O  O47  1  0.17724564  0.15847917  0.09167016  1
  O  O48  1  0.70909758  0.16595626  0.75446375  1
  O  O49  1  0.47379899  0.32809247  0.75534101  1
  O  O50  1  0.85563603  0.55212983  0.75120371  1
  O  O51  1  0.66761310  0.53114003  0.24641520  1
  O  O52  1  0.86417401  0.33439115  0.24596062  1
  O  O53  1  0.47496230  0.13386680  0.24475840  1
  O  O54  1  0.63826196  0.49284900  0.92520419  1
  O  O55  1  0.85271533  0.35928533  0.92449574  1
  O  O56  1  0.50587061  0.14532760  0.92533528  1
  O  O57  1  0.62521698  0.14788056  0.42534663  1
  O  O58  1  0.51133608  0.38196651  0.42472910  1
  O  O59  1  0.85270535  0.47683198  0.42545972  1
  O  O60  1  0.32277361  0.48687345  0.06667002  1
  O  O61  1  0.16023883  0.67134159  0.06506674  1
  O  O62  1  0.50517996  0.84243298  0.06526544  1
  O  O63  1  0.33411774  0.85276022  0.56640276  1
  O  O64  1  0.51155327  0.66687981  0.56812561  1
  O  O65  1  0.15637727  0.49023754  0.56817602  1
  O  O66  1  0.29467815  0.81413130  0.25369903  1
  O  O67  1  0.52002469  0.70423868  0.25396916  1
  O  O68  1  0.18582531  0.47841671  0.25471349  1
  O  O69  1  0.28514104  0.47483926  0.75721526  1
  O  O70  1  0.17450388  0.70772112  0.75774039  1
  O  O71  1  0.52574043  0.81508287  0.75771433  1
loop_
_geom_bond_atom_site_label_1
_geom_bond_atom_site_label_2
_geom_bond_distance
_geom_bond_site_symmetry_2
Na0 O49 2.347139 1_555
Na0 O71 2.380943 1_555
Na0 O50 2.434883 1_555
Na0 O14 2.503186 1_555
Na0 O69 2.745617 1_555
Na0 O35 2.813429 1_555
Na0 O6 2.968838 1_555
Na1 O48 2.320724 1_555
Na1 O69 2.326192 1_655
Na1 O12 2.506564 1_555
Na1 O50 2.542373 1_555
Na1 O70 2.679016 1_655
Na1 O33 2.815440 1_655
Na2 O61 2.431741 1_555
Na2 O47 2.557646 1_565
Na2 O16 2.576018 1_565
Na2 O62 2.580689 1_555
Na2 O45 2.618579 1_455
Na2 O26 2.823624 1_554
Na2 O11 2.831232 1_555
Na2 O18 2.832608 1_565
Na3 O60 2.367207 1_555
Na3 O15 2.520534 1_455
Na3 O46 2.530382 1_455
Na3 O61 2.632647 1_555
Na3 O47 2.663428 1_555
Na3 O25 2.833181 1_554
Na3 O20 2.839902 1_455
Na3 O10 2.933088 1_555
Na4 O59 2.361822 1_555
Na4 O38 2.396934 1_655
Na4 O37 2.429166 1_545
Na4 O2 2.605323 1_555
Na4 O57 2.682804 1_555
Na4 O23 2.903790 1_555
Na4 O30 2.955636 1_655
Na5 O36 2.346917 1_655
Na5 O58 2.377679 1_555
Na5 O37 2.494330 1_555
Na5 O1 2.626821 1_555
Na5 O59 2.757677 1_555
Na6 O43 2.469633 1_565
Na6 O36 2.486471 1_555
Na6 O44 2.498565 1_455
Na6 O42 2.568562 1_465
Na6 O37 2.655786 1_455
Na6 O38 2.697488 1_565
Na7 O41 2.544298 1_555
Na7 O39 2.614337 1_665
Na7 O40 2.615507 1_655
Na7 O45 2.684449 1_556
Na7 O46 2.698987 1_566
Na7 O47 2.733414 1_666
Na8 O49 2.471622 1_555
Na8 O48 2.508310 1_555
Na8 O56 2.557049 1_555
Na8 O55 2.660724 1_555
Na8 O54 2.669555 1_555
Na8 O50 2.770458 1_555
Na9 O53 2.525635 1_555
Na9 O51 2.603171 1_555
Na9 O52 2.605663 1_555
Na9 O57 2.717661 1_555
Na9 O59 2.805701 1_555
Na9 O58 2.806798 1_555
Na10 O67 2.500443 1_555
Na10 O68 2.591994 1_555
Na10 O66 2.606594 1_555
Na10 O60 2.744081 1_555
Na10 O62 2.777930 1_555
Na10 O61 2.874625 1_555
Na11 O71 2.628603 1_555
Na11 O69 2.636674 1_555
Na11 O70 2.667644 1_555
Na11 O65 2.787880 1_555
Na11 O64 2.790431 1_555
Na11 O63 2.836823 1_555
La0 O0 2.194269 1_565
La0 O1 2.270355 1_455
La0 O2 2.281582 1_465
La0 O36 2.333642 1_555
La0 O37 2.392310 1_455
La0 O38 2.395923 1_565
La1 O13 2.284456 1_555
La1 O14 2.289451 1_555
La1 O12 2.310921 1_555
La1 O49 2.368876 1_555
La1 O48 2.392485 1_555
La1 O50 2.523669 1_555
La2 O17 2.244658 1_555
La2 O15 2.271235 1_555
La2 O16 2.294763 1_555
La2 O51 2.387061 1_555
La2 O53 2.393760 1_555
La2 O52 2.407254 1_555
O0 P0 1.511904 1_545
O1 P1 1.526687 1_555
O2 P2 1.527784 1_655
O3 Si0 1.630769 1_555
O3 Ta0 1.922138 1_555
O4 P3 1.537902 1_655
O4 Ta0 2.049512 1_665
O5 Si1 1.625819 1_545
O5 Ta0 1.935038 1_655
O6 Si1 1.692709 1_555
O6 Ta1 1.928469 1_565
O7 Si0 1.678854 1_555
O7 Ta1 1.975594 1_455
O8 P3 1.565270 1_555
O8 Ta1 2.084337 1_465
O9 P1 1.607836 1_555
O9 Ta2 2.041837 1_555
O10 P2 1.605660 1_555
O10 Ta2 2.093369 1_445
O11 P0 1.589394 1_555
O11 Ta2 2.103723 1_455
O12 Si2 1.595655 1_555
O13 P4 1.512098 1_555
O14 Si3 1.600559 1_555
O15 Si4 1.594570 1_555
O16 Si5 1.593181 1_555
O17 Si6 1.580445 1_555
O18 Si6 1.658977 1_555
O18 Ta3 2.032394 1_554
O19 Si4 1.650351 1_555
O19 Ta3 1.998855 1_554
O20 Si5 1.658508 1_555
O20 Ta3 2.036616 1_554
O21 P4 1.580443 1_555
O21 Ta4 2.024301 1_555
O22 Si3 1.700458 1_555
O22 Ta4 1.958369 1_555
O23 Si2 1.707651 1_555
O23 Ta4 1.923728 1_555
O24 Si7 1.624916 1_555
O24 Ta5 1.920265 1_556
O25 Si8 1.622823 1_555
O25 Ta5 1.967808 1_556
O26 Si9 1.622870 1_555
O26 Ta5 1.963948 1_556
O27 Si10 1.608095 1_555
O27 Ta6 1.926399 1_555
O28 P5 1.528443 1_555
O28 Ta6 1.988471 1_555
O29 Si11 1.599187 1_555
O29 Ta6 1.933014 1_555
O30 Si11 1.684812 1_555
O30 Ta7 1.959756 1_555
O31 Si10 1.680988 1_555
O31 Ta7 1.932475 1_555
O32 P5 1.570167 1_555
O32 Ta7 2.103779 1_555
O33 Si8 1.657238 1_555
O33 Ta8 1.964895 1_555
O34 Si9 1.661368 1_555
O34 Ta8 1.917951 1_555
O35 Si7 1.669459 1_555
O35 Ta8 1.936760 1_555
O36 Si11 1.601857 1_555
O37 Si10 1.619133 1_555
O38 P5 1.524143 1_555
O39 Si8 1.650393 1_555
O39 Ta0 1.974459 1_555
O40 Si9 1.638141 1_555
O40 Ta0 1.993749 1_565
O41 Si7 1.633388 1_555
O41 Ta0 2.022575 1_665
O42 Si2 1.654256 1_555
O42 Ta1 1.970453 1_555
O43 P4 1.540818 1_555
O43 Ta1 2.174192 1_455
O44 Si3 1.650240 1_555
O44 Ta1 2.008969 1_565
O45 Si4 1.680492 1_555
O45 Ta2 1.977537 1_555
O46 Si5 1.680457 1_555
O46 Ta2 1.973140 1_545
O47 Si6 1.706584 1_555
O47 Ta2 2.005938 1_445
O48 Si1 1.603983 1_545
O49 Si0 1.608177 1_555
O50 P3 1.541054 1_655
O51 P1 1.509474 1_555
O52 P2 1.510362 1_655
O53 P0 1.505524 1_545
O54 Si7 1.638310 1_555
O54 Ta3 1.998994 1_555
O55 Si8 1.638466 1_655
O55 Ta3 2.003879 1_555
O56 Si9 1.638679 1_545
O56 Ta3 2.013546 1_555
O57 Si10 1.652761 1_545
O57 Ta4 2.020050 1_555
O58 P5 1.558633 1_555
O58 Ta4 2.190469 1_555
O59 Si11 1.680887 1_655
O59 Ta4 2.023942 1_555
O60 Si6 1.638542 1_555
O60 Ta5 1.998815 1_555
O61 Si4 1.642197 1_455
O61 Ta5 2.009906 1_555
O62 Si5 1.630579 1_565
O62 Ta5 1.969142 1_555
O63 P4 1.550488 1_565
O63 Ta6 1.973221 1_555
O64 Si3 1.638080 1_555
O64 Ta6 1.943156 1_555
O65 Si2 1.627781 1_455
O65 Ta6 1.953649 1_555
O66 P0 1.594058 1_555
O66 Ta7 1.998023 1_555
O67 P1 1.575339 1_555
O67 Ta7 2.074075 1_555
O68 P2 1.581965 1_555
O68 Ta7 2.063737 1_555
O69 Si0 1.676776 1_555
O69 Ta8 2.082466 1_555
O70 P3 1.566634 1_555
O70 Ta8 2.130736 1_555
O71 Si1 1.656029 1_555
O71 Ta8 2.049496 1_555
