# generated using pymatgen
data_CaIn2Pt
_symmetry_space_group_name_H-M   'P 1'
_cell_length_a   4.40855046
_cell_length_b   5.72515115
_cell_length_c   7.81765464
_cell_angle_alpha   90.00000000
_cell_angle_beta   90.00000000
_cell_angle_gamma   112.64473829
_symmetry_Int_Tables_number   1
_chemical_formula_structural   CaIn2Pt
_chemical_formula_sum   'Ca2 In4 Pt2'
_cell_volume   182.10360459
_cell_formula_units_Z   2
loop_
 _symmetry_equiv_pos_site_id
 _symmetry_equiv_pos_as_xyz
  1  'x, y, z'
loop_
 _atom_site_type_symbol
 _atom_site_label
 _atom_site_symmetry_multiplicity
 _atom_site_fract_x
 _atom_site_fract_y
 _atom_site_fract_z
 _atom_site_occupancy
  Ca  Ca0  1  0.06709180  0.13418259  0.75000000  1
  Ca  Ca1  1  0.93290820  0.86581741  0.25000000  1
  In  In0  1  0.35612332  0.71224763  0.94813266  1
  In  In1  1  0.35612332  0.71224763  0.55186734  1
  In  In2  1  0.64387668  0.28775237  0.05186734  1
  In  In3  1  0.64387668  0.28775237  0.44813266  1
  Pt  Pt0  1  0.78260234  0.56520568  0.75000000  1
  Pt  Pt1  1  0.21739766  0.43479432  0.25000000  1
loop_
_geom_bond_atom_site_label_1
_geom_bond_atom_site_label_2
_geom_bond_distance
_geom_bond_site_symmetry_2
Ca0 Pt0 3.006359 1_445
Ca0 Pt0 3.169470 1_555
Ca0 Pt0 3.169476 1_455
Ca0 In3 3.329618 1_555
Ca0 In2 3.329618 1_556
Ca0 In3 3.329618 1_455
Ca0 In2 3.329618 1_456
Ca0 In1 3.424679 1_555
Ca0 In0 3.424679 1_555
Ca0 In1 3.496900 1_545
Ca0 In0 3.496900 1_545
Ca0 In0 3.496906 1_445
Ca0 In1 3.496906 1_445
Ca1 Pt1 3.006359 1_665
Ca1 Pt1 3.169470 1_555
Ca1 Pt1 3.169476 1_655
Ca1 In0 3.329618 1_554
Ca1 In1 3.329618 1_555
Ca1 In0 3.329618 1_654
Ca1 In1 3.329618 1_655
Ca1 In2 3.424679 1_555
Ca1 In3 3.424679 1_555
Ca1 In2 3.496900 1_565
Ca1 In3 3.496900 1_565
Ca1 In2 3.496906 1_665
Ca1 In3 3.496906 1_665
In0 Pt1 2.778179 1_556
In0 Pt0 2.803865 1_555
In0 Pt0 2.803865 1_455
In0 In1 3.097865 1_555
In0 In2 3.147131 1_566
In0 In2 3.247658 1_456
In0 In2 3.247664 1_556
In1 Pt1 2.778179 1_555
In1 Pt0 2.803865 1_555
In1 Pt0 2.803865 1_455
In1 In3 3.147131 1_565
In1 In3 3.247658 1_455
In1 In3 3.247664 1_555
In2 Pt0 2.778179 1_554
In2 Pt1 2.803865 1_555
In2 Pt1 2.803865 1_655
In2 In3 3.097865 1_555
In3 Pt0 2.778179 1_555
In3 Pt1 2.803865 1_555
In3 Pt1 2.803865 1_655
