# generated using pymatgen
data_Na9Nb10Zn2Si9(PO8)9
_symmetry_space_group_name_H-M   'P 1'
_cell_length_a   8.92292169
_cell_length_b   8.91749843
_cell_length_c   22.69012743
_cell_angle_alpha   89.99896641
_cell_angle_beta   89.98679375
_cell_angle_gamma   119.88938378
_symmetry_Int_Tables_number   1
_chemical_formula_structural   Na9Nb10Zn2Si9(PO8)9
_chemical_formula_sum   'Na9 Nb10 Zn2 Si9 P9 O72'
_cell_volume   1565.31114620
_cell_formula_units_Z   1
loop_
 _symmetry_equiv_pos_site_id
 _symmetry_equiv_pos_as_xyz
  1  'x, y, z'
loop_
 _atom_site_type_symbol
 _atom_site_label
 _atom_site_symmetry_multiplicity
 _atom_site_fract_x
 _atom_site_fract_y
 _atom_site_fract_z
 _atom_site_occupancy
  Na  Na0  1  0.62844748  0.00839745  0.24477263  1
  Na  Na1  1  0.37827292  0.36489890  0.24361107  1
  Na  Na2  1  0.99108121  0.36944725  0.74400545  1
  Na  Na3  1  0.00039186  0.99926360  0.49845640  1
  Na  Na4  1  0.99959468  0.99888528  0.99906827  1
  Na  Na5  1  0.65237353  0.33209049  0.82561812  1
  Na  Na6  1  0.68240225  0.34754214  0.32708715  1
  Na  Na7  1  0.32054374  0.66462271  0.16445800  1
  Na  Na8  1  0.34676646  0.67803296  0.66556841  1
  Nb  Nb0  1  0.99251236  0.99732818  0.35673697  1
  Nb  Nb1  1  0.00657550  0.00385738  0.85645627  1
  Nb  Nb2  1  0.00297737  0.00234201  0.64499682  1
  Nb  Nb3  1  0.99705703  0.00035970  0.14507973  1
  Nb  Nb4  1  0.66718373  0.33441347  0.97781692  1
  Nb  Nb5  1  0.66635688  0.33441206  0.47811120  1
  Nb  Nb6  1  0.33406542  0.66614150  0.01957369  1
  Nb  Nb7  1  0.33234201  0.66536941  0.52001348  1
  Nb  Nb8  1  0.32983230  0.66299395  0.31326541  1
  Nb  Nb9  1  0.33781554  0.66749476  0.81237791  1
  Zn  Zn0  1  0.65238673  0.33183664  0.68515152  1
  Zn  Zn1  1  0.68170702  0.34678648  0.18524399  1
  Si  Si0  1  0.71087750  0.70598598  0.25029981  1
  Si  Si1  1  0.99793051  0.29162721  0.24986590  1
  Si  Si2  1  0.29804963  0.29132597  0.74982771  1
  Si  Si3  1  0.62303712  0.66760933  0.91669411  1
  Si  Si4  1  0.04547696  0.38036297  0.91589327  1
  Si  Si5  1  0.33515497  0.95446164  0.91676765  1
  Si  Si6  1  0.61886991  0.95491160  0.41663937  1
  Si  Si7  1  0.33299776  0.37672827  0.41674991  1
  Si  Si8  1  0.04454507  0.66702017  0.41748826  1
  P  P0  1  0.28207793  0.99488957  0.25023498  1
  P  P1  1  0.00059417  0.71274943  0.75033730  1
  P  P2  1  0.71215348  0.99792006  0.74995948  1
  P  P3  1  0.95460562  0.33464083  0.58656673  1
  P  P4  1  0.38038181  0.04447890  0.58510270  1
  P  P5  1  0.66595206  0.62171575  0.58505620  1
  P  P6  1  0.95701385  0.62217935  0.08437919  1
  P  P7  1  0.66428812  0.04407304  0.08589092  1
  P  P8  1  0.37817960  0.33350042  0.08583122  1
  O  O0  1  0.19215458  0.01730282  0.30484739  1
  O  O1  1  0.83002013  0.80894305  0.30753853  1
  O  O2  1  0.98330181  0.16990221  0.30663869  1
  O  O3  1  0.18626758  0.17132488  0.80678880  1
  O  O4  1  0.98372545  0.80666061  0.80528039  1
  O  O5  1  0.82438296  0.01308290  0.80451117  1
  O  O6  1  0.80086878  0.97095711  0.69399137  1
  O  O7  1  0.16362058  0.19084412  0.69284069  1
  O  O8  1  0.02191113  0.82707670  0.69466051  1
  O  O9  1  0.80902359  0.83614423  0.19281437  1
  O  O10  1  0.03396728  0.19635952  0.19199325  1
  O  O11  1  0.16982874  0.97065977  0.19400222  1
  O  O12  1  0.88441928  0.36268645  0.64370552  1
  O  O13  1  0.48568914  0.11675538  0.64011352  1
  O  O14  1  0.63487048  0.51723296  0.64020109  1
  O  O15  1  0.88619820  0.51835257  0.13968067  1
  O  O16  1  0.63529920  0.11350938  0.14289722  1
  O  O17  1  0.47577975  0.36103471  0.14296452  1
  O  O18  1  0.47251118  0.31236916  0.03114394  1
  O  O19  1  0.84285937  0.53373964  0.02884109  1
  O  O20  1  0.68956960  0.16007586  0.03112276  1
  O  O21  1  0.46473566  0.15843522  0.52930325  1
  O  O22  1  0.69119289  0.53346816  0.52923768  1
  O  O23  1  0.83876498  0.30990328  0.53182887  1
  O  O24  1  0.52935326  0.69573587  0.97400785  1
  O  O25  1  0.16905826  0.47315889  0.97289990  1
  O  O26  1  0.30602518  0.83344888  0.97432404  1
  O  O27  1  0.52414866  0.83162942  0.47341163  1
  O  O28  1  0.30500724  0.47240301  0.47346690  1
  O  O29  1  0.16515033  0.69282376  0.47478299  1
  O  O30  1  0.13700272  0.63595943  0.35948992  1
  O  O31  1  0.50376938  0.86897389  0.35688729  1
  O  O32  1  0.36550946  0.49683042  0.35735555  1
  O  O33  1  0.13212049  0.49772288  0.85652076  1
  O  O34  1  0.36431521  0.86263824  0.85880843  1
  O  O35  1  0.49855085  0.63459185  0.85876846  1
  O  O36  1  0.02678315  0.83778466  0.41020263  1
  O  O37  1  0.81014572  0.97517005  0.41100343  1
  O  O38  1  0.16471295  0.18719877  0.40948811  1
  O  O39  1  0.02254103  0.18806494  0.90908739  1
  O  O40  1  0.16382780  0.97380640  0.90959666  1
  O  O41  1  0.81195758  0.83641485  0.90847451  1
  O  O42  1  0.97287180  0.16640401  0.58938339  1
  O  O43  1  0.19313133  0.02375817  0.59003613  1
  O  O44  1  0.83183616  0.80700973  0.58882691  1
  O  O45  1  0.97668685  0.80759129  0.08807460  1
  O  O46  1  0.83209096  0.02566649  0.08855536  1
  O  O47  1  0.19379336  0.16652664  0.08754276  1
  O  O48  1  0.70404294  0.16292067  0.74644672  1
  O  O49  1  0.48224664  0.30836551  0.74787146  1
  O  O50  1  0.84821674  0.53110996  0.74698527  1
  O  O51  1  0.67524360  0.51312070  0.24746309  1
  O  O52  1  0.82248321  0.29610978  0.24701510  1
  O  O53  1  0.46099128  0.15381012  0.24608793  1
  O  O54  1  0.63882908  0.49448092  0.92626119  1
  O  O55  1  0.85517420  0.36028192  0.92651930  1
  O  O56  1  0.50475745  0.14493174  0.92668952  1
  O  O57  1  0.64005449  0.14571136  0.42682984  1
  O  O58  1  0.50642894  0.36154666  0.42625490  1
  O  O59  1  0.85545136  0.49451065  0.42647159  1
  O  O60  1  0.35075078  0.49230049  0.07578518  1
  O  O61  1  0.14297023  0.64924831  0.07467092  1
  O  O62  1  0.50752540  0.85804563  0.07575974  1
  O  O63  1  0.35002812  0.85772943  0.57519734  1
  O  O64  1  0.50774698  0.64994781  0.57517731  1
  O  O65  1  0.14075250  0.49091231  0.57619053  1
  O  O66  1  0.29936606  0.82949715  0.25447999  1
  O  O67  1  0.52469177  0.70640569  0.25474847  1
  O  O68  1  0.18038760  0.47737066  0.25462154  1
  O  O69  1  0.29442528  0.47605215  0.75451159  1
  O  O70  1  0.17192007  0.70373003  0.75419087  1
  O  O71  1  0.53129111  0.83163027  0.75477342  1
loop_
_geom_bond_atom_site_label_1
_geom_bond_atom_site_label_2
_geom_bond_distance
_geom_bond_site_symmetry_2
Na0 O52 2.270614 1_555
Na0 O67 2.382369 1_545
Na0 O53 2.417860 1_555
Na0 O16 2.483629 1_555
Na0 O66 2.558660 1_545
Na0 O31 2.806225 1_545
Na1 O51 2.299074 1_555
Na1 O53 2.340094 1_555
Na1 O68 2.439455 1_555
Na1 O17 2.449968 1_555
Na1 O67 2.660805 1_555
Na1 O32 2.862090 1_555
Na1 O10 2.910134 1_555
Na2 O48 2.292049 1_555
Na2 O50 2.353604 1_555
Na2 O69 2.392206 1_655
Na2 O12 2.456135 1_555
Na2 O70 2.597976 1_655
Na2 O33 2.824332 1_655
Na2 O7 2.949195 1_655
Na3 O36 2.544963 1_555
Na3 O37 2.550182 1_455
Na3 O38 2.565760 1_565
Na3 O44 2.614285 1_455
Na3 O42 2.627362 1_465
Na3 O43 2.636396 1_565
Na4 O40 2.577635 1_655
Na4 O45 2.585065 1_556
Na4 O47 2.586015 1_666
Na4 O41 2.590713 1_555
Na4 O39 2.590713 1_665
Na4 O46 2.601562 1_566
Na5 O49 2.267667 1_555
Na5 O50 2.508839 1_555
Na5 O48 2.531470 1_555
Na5 O54 2.738780 1_555
Na5 O56 2.754500 1_555
Na5 O55 2.850951 1_555
Na6 O51 2.354213 1_555
Na6 O52 2.375701 1_555
Na6 O53 2.620239 1_555
Na6 O59 2.678046 1_555
Na6 O58 2.781728 1_555
Na6 O57 2.797455 1_555
Na7 O68 2.540688 1_555
Na7 O61 2.542609 1_555
Na7 O66 2.578078 1_555
Na7 O60 2.625804 1_555
Na7 O62 2.634269 1_555
Na7 O67 2.641878 1_555
Na8 O71 2.537299 1_555
Na8 O64 2.586458 1_555
Na8 O69 2.587704 1_555
Na8 O63 2.593592 1_555
Na8 O70 2.623923 1_555
Na8 O65 2.687195 1_555
Nb0 O1 1.934883 1_555
Nb0 O2 1.947629 1_565
Nb0 O37 1.970204 1_555
Nb0 O36 2.005767 1_655
Nb0 O38 2.017031 1_665
Nb0 O0 2.067387 1_665
Nb1 O3 1.919304 1_555
Nb1 O40 1.967239 1_545
Nb1 O39 1.977804 1_555
Nb1 O41 2.013205 1_445
Nb1 O4 2.031034 1_445
Nb1 O5 2.042793 1_455
Nb2 O7 1.912625 1_555
Nb2 O8 2.001081 1_545
Nb2 O6 2.015556 1_445
Nb2 O43 2.036319 1_555
Nb2 O42 2.048588 1_455
Nb2 O44 2.083351 1_445
Nb3 O9 1.919103 1_545
Nb3 O10 1.929505 1_655
Nb3 O11 2.021559 1_645
Nb3 O46 2.048050 1_555
Nb3 O45 2.085628 1_545
Nb3 O47 2.094777 1_655
Nb4 O54 1.957024 1_555
Nb4 O55 1.958361 1_555
Nb4 O56 1.965081 1_555
Nb4 O18 2.044203 1_556
Nb4 O19 2.044743 1_556
Nb4 O20 2.056532 1_556
Nb5 O58 1.955584 1_555
Nb5 O57 1.961428 1_555
Nb5 O59 1.963738 1_555
Nb5 O22 2.038116 1_555
Nb5 O21 2.057577 1_555
Nb5 O23 2.058147 1_555
Nb6 O26 1.927385 1_554
Nb6 O24 1.927655 1_554
Nb6 O25 1.930388 1_554
Nb6 O61 2.058170 1_555
Nb6 O60 2.069342 1_555
Nb6 O62 2.076196 1_555
Nb7 O29 1.924447 1_555
Nb7 O27 1.927575 1_555
Nb7 O28 1.928184 1_555
Nb7 O64 2.061706 1_555
Nb7 O63 2.065332 1_555
Nb7 O65 2.077454 1_555
Nb8 O30 1.924683 1_555
Nb8 O32 1.941137 1_555
Nb8 O31 1.980379 1_555
Nb8 O68 2.022313 1_555
Nb8 O67 2.064947 1_555
Nb8 O66 2.111882 1_555
Nb9 O35 1.916033 1_555
Nb9 O34 1.945290 1_555
Nb9 O33 1.973230 1_555
Nb9 O69 2.032217 1_555
Nb9 O71 2.076436 1_555
Nb9 O70 2.125167 1_555
O0 P0 1.542294 1_545
O1 Si0 1.639445 1_555
O2 Si1 1.647234 1_555
O3 Si2 1.657106 1_555
O4 P1 1.550400 1_655
O5 P2 1.555265 1_545
O6 P2 1.576830 1_555
O7 Si2 1.686180 1_555
O8 P1 1.574204 1_555
O9 Si0 1.673862 1_555
O10 Si1 1.679753 1_455
O11 P0 1.569323 1_555
O12 P3 1.513729 1_555
O12 Zn0 2.162886 1_555
O13 P4 1.501110 1_555
O13 Zn0 2.023087 1_555
O14 P5 1.500967 1_555
O14 Zn0 2.013838 1_555
O15 P6 1.499181 1_555
O15 Zn1 1.988897 1_555
O16 P7 1.510930 1_555
O16 Zn1 2.136321 1_555
O17 P8 1.512179 1_555
O17 Zn1 2.132194 1_555
O18 P8 1.562477 1_555
O19 P6 1.564457 1_555
O20 P7 1.559656 1_555
O21 P4 1.561857 1_555
O22 P5 1.565458 1_555
O23 P3 1.559808 1_555
O24 Si3 1.631367 1_555
O25 Si4 1.632511 1_555
O26 Si5 1.630295 1_555
O27 Si6 1.629638 1_555
O28 Si7 1.630556 1_555
O29 Si8 1.629408 1_555
O30 Si8 1.648156 1_555
O31 Si6 1.642096 1_555
O32 Si7 1.654549 1_555
O33 Si4 1.643448 1_555
O34 Si5 1.637043 1_555
O35 Si3 1.650075 1_555
O36 Si8 1.616132 1_555
O37 Si6 1.629278 1_555
O38 Si7 1.615300 1_555
O39 Si4 1.629902 1_555
O40 Si5 1.629793 1_555
O41 Si3 1.616546 1_555
O42 P3 1.589059 1_555
O43 P4 1.590765 1_555
O44 P5 1.578287 1_555
O45 P6 1.575549 1_555
O46 P7 1.586652 1_555
O47 P8 1.576031 1_555
O48 P2 1.510865 1_545
O48 Zn0 2.260071 1_555
O49 Si2 1.573995 1_555
O49 Zn0 2.013991 1_555
O50 P1 1.511023 1_655
O50 Zn0 2.255230 1_555
O51 Si0 1.586886 1_555
O51 Zn1 2.069256 1_555
O52 Si1 1.587134 1_555
O52 Zn1 2.076803 1_555
O53 P0 1.520165 1_545
O53 Zn1 2.316645 1_555
O54 Si3 1.633200 1_555
O55 Si4 1.634120 1_655
O56 Si5 1.632235 1_545
O57 Si6 1.632065 1_545
O58 Si7 1.633583 1_555
O59 Si8 1.633356 1_655
O60 P8 1.569279 1_555
O61 P6 1.568638 1_455
O62 P7 1.564886 1_565
O63 P4 1.564521 1_565
O64 P5 1.568674 1_555
O65 P3 1.564976 1_455
O66 P0 1.560488 1_555
O67 Si0 1.666226 1_555
O68 Si1 1.648698 1_455
O69 Si2 1.667040 1_555
O70 P1 1.572809 1_555
O71 P2 1.558881 1_555
