# generated using pymatgen
data_LaCuO2
_symmetry_space_group_name_H-M   'P 1'
_cell_length_a   6.05499750
_cell_length_b   6.05499750
_cell_length_c   6.05499746
_cell_angle_alpha   37.02923858
_cell_angle_beta   37.02923858
_cell_angle_gamma   37.02923233
_symmetry_Int_Tables_number   1
_chemical_formula_structural   LaCuO2
_chemical_formula_sum   'La1 Cu1 O2'
_cell_volume   72.14298184
_cell_formula_units_Z   1
loop_
 _symmetry_equiv_pos_site_id
 _symmetry_equiv_pos_as_xyz
  1  'x, y, z'
loop_
 _atom_site_type_symbol
 _atom_site_label
 _atom_site_symmetry_multiplicity
 _atom_site_fract_x
 _atom_site_fract_y
 _atom_site_fract_z
 _atom_site_occupancy
  La  La0  1  0.50000000  0.50000000  0.50000000  1
  Cu  Cu0  1  -0.00000000  -0.00000000  -0.00000000  1
  O  O0  1  0.89359770  0.89359770  0.89359770  1
  O  O1  1  0.10640230  0.10640230  0.10640230  1
loop_
_geom_bond_atom_site_label_1
_geom_bond_atom_site_label_2
_geom_bond_distance
_geom_bond_site_symmetry_2
La0 O1 2.442644 1_655
La0 O1 2.442644 1_565
La0 O0 2.442644 1_455
La0 O0 2.442644 1_545
La0 O1 2.442645 1_556
La0 O0 2.442645 1_554
Cu0 O0 1.798179 1_444
Cu0 O1 1.798179 1_555
