# generated using pymatgen
data_MgTe2Mo2W2(Se2S)2
_symmetry_space_group_name_H-M   'P 1'
_cell_length_a   6.67214401
_cell_length_b   6.67153912
_cell_length_c   91.64892002
_cell_angle_alpha   89.99731860
_cell_angle_beta   89.99932406
_cell_angle_gamma   119.99830592
_symmetry_Int_Tables_number   1
_chemical_formula_structural   MgTe2Mo2W2(Se2S)2
_chemical_formula_sum   'Mg8 Te16 Mo16 W16 Se32 S16'
_cell_volume   3533.10743993
_cell_formula_units_Z   8
loop_
 _symmetry_equiv_pos_site_id
 _symmetry_equiv_pos_as_xyz
  1  'x, y, z'
loop_
 _atom_site_type_symbol
 _atom_site_label
 _atom_site_symmetry_multiplicity
 _atom_site_fract_x
 _atom_site_fract_y
 _atom_site_fract_z
 _atom_site_occupancy
  Mg  Mg0_0  1  0.49998400  0.49998100  0.28369400  1
  Mg  Mg0_1  1  0.49998400  0.49998100  0.78369400  1
  Mg  Mg0_2  1  0.49998400  0.99998100  0.28369400  1
  Mg  Mg0_3  1  0.49998400  0.99998100  0.78369400  1
  Mg  Mg0_4  1  0.99998400  0.49998100  0.28369400  1
  Mg  Mg0_5  1  0.99998400  0.49998100  0.78369400  1
  Mg  Mg0_6  1  0.99998400  0.99998100  0.28369400  1
  Mg  Mg0_7  1  0.99998400  0.99998100  0.78369400  1
  Te  Te0_0  1  0.33342250  0.16673450  0.02610850  1
  Te  Te0_1  1  0.33342250  0.16673450  0.52610850  1
  Te  Te0_2  1  0.33342250  0.66673450  0.02610850  1
  Te  Te0_3  1  0.33342250  0.66673450  0.52610850  1
  Te  Te0_4  1  0.83342250  0.16673450  0.02610850  1
  Te  Te0_5  1  0.83342250  0.16673450  0.52610850  1
  Te  Te0_6  1  0.83342250  0.66673450  0.02610850  1
  Te  Te0_7  1  0.83342250  0.66673450  0.52610850  1
  Te  Te1_0  1  0.33338350  0.16671050  0.06756600  1
  Te  Te1_1  1  0.33338350  0.16671050  0.56756600  1
  Te  Te1_2  1  0.33338350  0.66671050  0.06756600  1
  Te  Te1_3  1  0.33338350  0.66671050  0.56756600  1
  Te  Te1_4  1  0.83338350  0.16671050  0.06756600  1
  Te  Te1_5  1  0.83338350  0.16671050  0.56756600  1
  Te  Te1_6  1  0.83338350  0.66671050  0.06756600  1
  Te  Te1_7  1  0.83338350  0.66671050  0.56756600  1
  Mo  Mo0_0  1  0.16670850  0.33337200  0.04683800  1
  Mo  Mo0_1  1  0.16670850  0.33337200  0.54683800  1
  Mo  Mo0_2  1  0.16670850  0.83337200  0.04683800  1
  Mo  Mo0_3  1  0.16670850  0.83337200  0.54683800  1
  Mo  Mo0_4  1  0.66670850  0.33337200  0.04683800  1
  Mo  Mo0_5  1  0.66670850  0.33337200  0.54683800  1
  Mo  Mo0_6  1  0.66670850  0.83337200  0.04683800  1
  Mo  Mo0_7  1  0.66670850  0.83337200  0.54683800  1
  Mo  Mo1_0  1  0.33332900  0.16666300  0.14098300  1
  Mo  Mo1_1  1  0.33332900  0.16666300  0.64098300  1
  Mo  Mo1_2  1  0.33332900  0.66666300  0.14098300  1
  Mo  Mo1_3  1  0.33332900  0.66666300  0.64098300  1
  Mo  Mo1_4  1  0.83332900  0.16666300  0.14098300  1
  Mo  Mo1_5  1  0.83332900  0.16666300  0.64098300  1
  Mo  Mo1_6  1  0.83332900  0.66666300  0.14098300  1
  Mo  Mo1_7  1  0.83332900  0.66666300  0.64098300  1
  W  W0_0  1  0.16662100  0.33331150  0.23111400  1
  W  W0_1  1  0.16662100  0.33331150  0.73111400  1
  W  W0_2  1  0.16662100  0.83331150  0.23111400  1
  W  W0_3  1  0.16662100  0.83331150  0.73111400  1
  W  W0_4  1  0.66662100  0.33331150  0.23111400  1
  W  W0_5  1  0.66662100  0.33331150  0.73111400  1
  W  W0_6  1  0.66662100  0.83331150  0.23111400  1
  W  W0_7  1  0.66662100  0.83331150  0.73111400  1
  W  W1_0  1  0.33333050  0.16665150  0.33260050  1
  W  W1_1  1  0.33333050  0.16665150  0.83260050  1
  W  W1_2  1  0.33333050  0.66665150  0.33260050  1
  W  W1_3  1  0.33333050  0.66665150  0.83260050  1
  W  W1_4  1  0.83333050  0.16665150  0.33260050  1
  W  W1_5  1  0.83333050  0.16665150  0.83260050  1
  W  W1_6  1  0.83333050  0.66665150  0.33260050  1
  W  W1_7  1  0.83333050  0.66665150  0.83260050  1
  Se  Se0_0  1  0.16665250  0.33331150  0.15920550  1
  Se  Se0_1  1  0.16665250  0.33331150  0.65920550  1
  Se  Se0_2  1  0.16665250  0.83331150  0.15920550  1
  Se  Se0_3  1  0.16665250  0.83331150  0.65920550  1
  Se  Se0_4  1  0.66665250  0.33331150  0.15920550  1
  Se  Se0_5  1  0.66665250  0.33331150  0.65920550  1
  Se  Se0_6  1  0.66665250  0.83331150  0.15920550  1
  Se  Se0_7  1  0.66665250  0.83331150  0.65920550  1
  Se  Se1_0  1  0.33331600  0.16667900  0.21281500  1
  Se  Se1_1  1  0.33331600  0.16667900  0.71281500  1
  Se  Se1_2  1  0.33331600  0.66667900  0.21281500  1
  Se  Se1_3  1  0.33331600  0.66667900  0.71281500  1
  Se  Se1_4  1  0.83331600  0.16667900  0.21281500  1
  Se  Se1_5  1  0.83331600  0.16667900  0.71281500  1
  Se  Se1_6  1  0.83331600  0.66667900  0.21281500  1
  Se  Se1_7  1  0.83331600  0.66667900  0.71281500  1
  Se  Se2_0  1  0.33329600  0.16663300  0.24954150  1
  Se  Se2_1  1  0.33329600  0.16663300  0.74954150  1
  Se  Se2_2  1  0.33329600  0.66663300  0.24954150  1
  Se  Se2_3  1  0.33329600  0.66663300  0.74954150  1
  Se  Se2_4  1  0.83329600  0.16663300  0.24954150  1
  Se  Se2_5  1  0.83329600  0.16663300  0.74954150  1
  Se  Se2_6  1  0.83329600  0.66663300  0.24954150  1
  Se  Se2_7  1  0.83329600  0.66663300  0.74954150  1
  Se  Se3_0  1  0.16665050  0.33332850  0.12275100  1
  Se  Se3_1  1  0.16665050  0.33332850  0.62275100  1
  Se  Se3_2  1  0.16665050  0.83332850  0.12275100  1
  Se  Se3_3  1  0.16665050  0.83332850  0.62275100  1
  Se  Se3_4  1  0.66665050  0.33332850  0.12275100  1
  Se  Se3_5  1  0.66665050  0.33332850  0.62275100  1
  Se  Se3_6  1  0.66665050  0.83332850  0.12275100  1
  Se  Se3_7  1  0.66665050  0.83332850  0.62275100  1
  S  S0_0  1  0.16662150  0.33327450  0.34913950  1
  S  S0_1  1  0.16662150  0.33327450  0.84913950  1
  S  S0_2  1  0.16662150  0.83327450  0.34913950  1
  S  S0_3  1  0.16662150  0.83327450  0.84913950  1
  S  S0_4  1  0.66662150  0.33327450  0.34913950  1
  S  S0_5  1  0.66662150  0.33327450  0.84913950  1
  S  S0_6  1  0.66662150  0.83327450  0.34913950  1
  S  S0_7  1  0.66662150  0.83327450  0.84913950  1
  S  S1_0  1  0.16668450  0.33334850  0.31587050  1
  S  S1_1  1  0.16668450  0.33334850  0.81587050  1
  S  S1_2  1  0.16668450  0.83334850  0.31587050  1
  S  S1_3  1  0.16668450  0.83334850  0.81587050  1
  S  S1_4  1  0.66668450  0.33334850  0.31587050  1
  S  S1_5  1  0.66668450  0.33334850  0.81587050  1
  S  S1_6  1  0.66668450  0.83334850  0.31587050  1
  S  S1_7  1  0.66668450  0.83334850  0.81587050  1
loop_
_geom_bond_atom_site_label_1
_geom_bond_atom_site_label_2
_geom_bond_distance
_geom_bond_site_symmetry_2
Mg0_0 Mg0_2 3.335770 1_555
Mg0_0 Mg0_2 3.335770 1_545
Mg0_0 Mg0_6 3.336006 1_555
Mg0_0 Mg0_6 3.336006 1_445
Mg0_0 Mg0_4 3.336072 1_555
Mg0_0 Mg0_4 3.336072 1_455
Mg0_1 Mg0_3 3.335770 1_555
Mg0_1 Mg0_3 3.335770 1_545
Mg0_1 Mg0_7 3.336006 1_555
Mg0_1 Mg0_7 3.336006 1_445
Mg0_1 Mg0_5 3.336072 1_455
Mg0_1 Mg0_5 3.336072 1_555
Mg0_2 Mg0_4 3.336006 1_455
Mg0_2 Mg0_4 3.336006 1_565
Mg0_2 Mg0_6 3.336072 1_555
Mg0_2 Mg0_6 3.336072 1_455
Mg0_3 Mg0_5 3.336006 1_455
Mg0_3 Mg0_5 3.336006 1_565
Mg0_3 Mg0_7 3.336072 1_455
Mg0_3 Mg0_7 3.336072 1_555
Mg0_4 Mg0_6 3.335770 1_555
Mg0_4 Mg0_6 3.335770 1_545
Mg0_5 Mg0_7 3.335770 1_555
Mg0_5 Mg0_7 3.335770 1_545
Mo0_0 Te1_0 2.705212 1_555
Mo0_0 Te1_4 2.705234 1_455
Mo0_0 Te0_4 2.705280 1_455
Mo0_0 Te1_2 2.705303 1_555
Mo0_0 Te0_2 2.705333 1_555
Mo0_0 Te0_0 2.705425 1_555
Mo0_1 Te1_1 2.705212 1_555
Mo0_1 Te1_5 2.705234 1_455
Mo0_1 Te0_5 2.705280 1_455
Mo0_1 Te1_3 2.705303 1_555
Mo0_1 Te0_3 2.705333 1_555
Mo0_1 Te0_1 2.705425 1_555
Mo0_2 Te1_2 2.705212 1_555
Mo0_2 Te1_6 2.705234 1_455
Mo0_2 Te0_6 2.705280 1_455
Mo0_2 Te1_0 2.705303 1_565
Mo0_2 Te0_0 2.705333 1_565
Mo0_2 Te0_2 2.705425 1_555
Mo0_3 Te1_3 2.705212 1_555
Mo0_3 Te1_7 2.705234 1_455
Mo0_3 Te0_7 2.705280 1_455
Mo0_3 Te1_1 2.705303 1_565
Mo0_3 Te0_1 2.705333 1_565
Mo0_3 Te0_3 2.705425 1_555
Mo0_4 Te1_4 2.705212 1_555
Mo0_4 Te1_0 2.705234 1_555
Mo0_4 Te0_0 2.705280 1_555
Mo0_4 Te1_6 2.705303 1_555
Mo0_4 Te0_6 2.705333 1_555
Mo0_4 Te0_4 2.705425 1_555
Mo0_5 Te1_5 2.705212 1_555
Mo0_5 Te1_1 2.705234 1_555
Mo0_5 Te0_1 2.705280 1_555
Mo0_5 Te1_7 2.705303 1_555
Mo0_5 Te0_7 2.705333 1_555
Mo0_5 Te0_5 2.705425 1_555
Mo0_6 Te1_6 2.705212 1_555
Mo0_6 Te1_2 2.705234 1_555
Mo0_6 Te0_2 2.705280 1_555
Mo0_6 Te1_4 2.705303 1_565
Mo0_6 Te0_4 2.705333 1_565
Mo0_6 Te0_6 2.705425 1_555
Mo0_7 Te1_7 2.705212 1_555
Mo0_7 Te1_3 2.705234 1_555
Mo0_7 Te0_3 2.705280 1_555
Mo0_7 Te1_5 2.705303 1_565
Mo0_7 Te0_5 2.705333 1_565
Mo0_7 Te0_7 2.705425 1_555
Mo1_0 Se0_2 2.549196 1_545
Mo1_0 Se0_0 2.549211 1_555
Mo1_0 Se0_4 2.549334 1_555
Mo1_0 Se3_4 2.549793 1_555
Mo1_0 Se3_0 2.549814 1_555
Mo1_0 Se3_2 2.549846 1_545
Mo1_1 Se0_3 2.549196 1_545
Mo1_1 Se0_1 2.549211 1_555
Mo1_1 Se0_5 2.549334 1_555
Mo1_1 Se3_5 2.549793 1_555
Mo1_1 Se3_1 2.549814 1_555
Mo1_1 Se3_3 2.549846 1_545
Mo1_2 Se0_0 2.549196 1_555
Mo1_2 Se0_2 2.549211 1_555
Mo1_2 Se0_6 2.549334 1_555
Mo1_2 Se3_6 2.549793 1_555
Mo1_2 Se3_2 2.549814 1_555
Mo1_2 Se3_0 2.549846 1_555
Mo1_3 Se0_1 2.549196 1_555
Mo1_3 Se0_3 2.549211 1_555
Mo1_3 Se0_7 2.549334 1_555
Mo1_3 Se3_7 2.549793 1_555
Mo1_3 Se3_3 2.549814 1_555
Mo1_3 Se3_1 2.549846 1_555
Mo1_4 Se0_6 2.549196 1_545
Mo1_4 Se0_4 2.549211 1_555
Mo1_4 Se0_0 2.549334 1_655
Mo1_4 Se3_0 2.549793 1_655
Mo1_4 Se3_4 2.549814 1_555
Mo1_4 Se3_6 2.549846 1_545
Mo1_5 Se0_7 2.549196 1_545
Mo1_5 Se0_5 2.549211 1_555
Mo1_5 Se0_1 2.549334 1_655
Mo1_5 Se3_1 2.549793 1_655
Mo1_5 Se3_5 2.549814 1_555
Mo1_5 Se3_7 2.549846 1_545
Mo1_6 Se0_4 2.549196 1_555
Mo1_6 Se0_6 2.549211 1_555
Mo1_6 Se0_2 2.549334 1_655
Mo1_6 Se3_2 2.549793 1_655
Mo1_6 Se3_6 2.549814 1_555
Mo1_6 Se3_4 2.549846 1_555
Mo1_7 Se0_5 2.549196 1_555
Mo1_7 Se0_7 2.549211 1_555
Mo1_7 Se0_3 2.549334 1_655
Mo1_7 Se3_3 2.549793 1_655
Mo1_7 Se3_7 2.549814 1_555
Mo1_7 Se3_5 2.549846 1_555
Se1_0 W0_0 2.553821 1_555
Se1_0 W0_4 2.553852 1_555
Se1_0 W0_2 2.553864 1_545
Se1_1 W0_1 2.553821 1_555
Se1_1 W0_5 2.553852 1_555
Se1_1 W0_3 2.553864 1_545
Se1_2 W0_2 2.553821 1_555
Se1_2 W0_6 2.553852 1_555
Se1_2 W0_0 2.553864 1_555
Se1_3 W0_3 2.553821 1_555
Se1_3 W0_7 2.553852 1_555
Se1_3 W0_1 2.553864 1_555
Se1_4 W0_4 2.553821 1_555
Se1_4 W0_0 2.553852 1_655
Se1_4 W0_6 2.553864 1_545
Se1_5 W0_5 2.553821 1_555
Se1_5 W0_1 2.553852 1_655
Se1_5 W0_7 2.553864 1_545
Se1_6 W0_6 2.553821 1_555
Se1_6 W0_2 2.553852 1_655
Se1_6 W0_4 2.553864 1_555
Se1_7 W0_7 2.553821 1_555
Se1_7 W0_3 2.553852 1_655
Se1_7 W0_5 2.553864 1_555
Se2_0 W0_2 2.561568 1_545
Se2_0 W0_4 2.561585 1_555
Se2_0 W0_0 2.561632 1_555
Se2_1 W0_3 2.561568 1_545
Se2_1 W0_5 2.561585 1_555
Se2_1 W0_1 2.561632 1_555
Se2_2 W0_0 2.561568 1_555
Se2_2 W0_6 2.561585 1_555
Se2_2 W0_2 2.561632 1_555
Se2_3 W0_1 2.561568 1_555
Se2_3 W0_7 2.561585 1_555
Se2_3 W0_3 2.561632 1_555
Se2_4 W0_6 2.561568 1_545
Se2_4 W0_0 2.561585 1_655
Se2_4 W0_4 2.561632 1_555
Se2_5 W0_7 2.561568 1_545
Se2_5 W0_1 2.561585 1_655
Se2_5 W0_5 2.561632 1_555
Se2_6 W0_4 2.561568 1_555
Se2_6 W0_2 2.561585 1_655
Se2_6 W0_6 2.561632 1_555
Se2_7 W0_5 2.561568 1_555
Se2_7 W0_3 2.561585 1_655
Se2_7 W0_7 2.561632 1_555
S0_0 W1_4 2.450879 1_455
S0_0 W1_0 2.450933 1_555
S0_0 W1_2 2.451011 1_555
S0_1 W1_5 2.450879 1_455
S0_1 W1_1 2.450933 1_555
S0_1 W1_3 2.451011 1_555
S0_2 W1_6 2.450879 1_455
S0_2 W1_2 2.450933 1_555
S0_2 W1_0 2.451011 1_565
S0_3 W1_7 2.450879 1_455
S0_3 W1_3 2.450933 1_555
S0_3 W1_1 2.451011 1_565
S0_4 W1_0 2.450879 1_555
S0_4 W1_4 2.450933 1_555
S0_4 W1_6 2.451011 1_555
S0_5 W1_1 2.450879 1_555
S0_5 W1_5 2.450933 1_555
S0_5 W1_7 2.451011 1_555
S0_6 W1_2 2.450879 1_555
S0_6 W1_6 2.450933 1_555
S0_6 W1_4 2.451011 1_565
S0_7 W1_3 2.450879 1_555
S0_7 W1_7 2.450933 1_555
S0_7 W1_5 2.451011 1_565
S1_0 W1_2 2.461686 1_555
S1_0 W1_0 2.461799 1_555
S1_0 W1_4 2.461931 1_455
S1_1 W1_3 2.461686 1_555
S1_1 W1_1 2.461799 1_555
S1_1 W1_5 2.461931 1_455
S1_2 W1_0 2.461686 1_565
S1_2 W1_2 2.461799 1_555
S1_2 W1_6 2.461931 1_455
S1_3 W1_1 2.461686 1_565
S1_3 W1_3 2.461799 1_555
S1_3 W1_7 2.461931 1_455
S1_4 W1_6 2.461686 1_555
S1_4 W1_4 2.461799 1_555
S1_4 W1_0 2.461931 1_555
S1_5 W1_7 2.461686 1_555
S1_5 W1_5 2.461799 1_555
S1_5 W1_1 2.461931 1_555
S1_6 W1_4 2.461686 1_565
S1_6 W1_6 2.461799 1_555
S1_6 W1_2 2.461931 1_555
S1_7 W1_5 2.461686 1_565
S1_7 W1_7 2.461799 1_555
S1_7 W1_3 2.461931 1_555
