# generated using pymatgen
data_MgCo4(CuO4)2
_symmetry_space_group_name_H-M   'P 1'
_cell_length_a   6.65429851
_cell_length_b   6.65528710
_cell_length_c   6.48001511
_cell_angle_alpha   53.08470805
_cell_angle_beta   103.54453728
_cell_angle_gamma   130.02328155
_symmetry_Int_Tables_number   1
_chemical_formula_structural   MgCo4(CuO4)2
_chemical_formula_sum   'Mg1 Co4 Cu2 O8'
_cell_volume   170.19888592
_cell_formula_units_Z   1
loop_
 _symmetry_equiv_pos_site_id
 _symmetry_equiv_pos_as_xyz
  1  'x, y, z'
loop_
 _atom_site_type_symbol
 _atom_site_label
 _atom_site_symmetry_multiplicity
 _atom_site_fract_x
 _atom_site_fract_y
 _atom_site_fract_z
 _atom_site_occupancy
  Mg  Mg0  1  0.03406900  0.54339800  0.42250700  1
  Co  Co0  1  0.00126200  0.02207200  0.97659000  1
  Co  Co1  1  0.57097700  0.23936300  0.67531600  1
  Co  Co2  1  0.27930800  0.48581100  0.23494500  1
  Co  Co3  1  0.08530900  0.75375600  0.67524600  1
  Cu  Cu0  1  0.63268900  0.24081300  0.12650200  1
  Cu  Cu1  1  0.63599200  0.74897800  0.61512400  1
  O  O0  1  0.87916900  0.22836600  0.36056400  1
  O  O1  1  0.36109400  0.20374300  0.43506800  1
  O  O2  1  0.89153100  0.29768200  0.81082900  1
  O  O3  1  0.87960200  0.72980100  0.39044100  1
  O  O4  1  0.86797800  0.72776700  0.87132800  1
  O  O5  1  0.40102600  0.26082900  0.87116500  1
  O  O6  1  0.41110000  0.76029500  0.36055300  1
  O  O7  1  0.34493700  0.78857700  0.86653200  1
loop_
_geom_bond_atom_site_label_1
_geom_bond_atom_site_label_2
_geom_bond_distance
_geom_bond_site_symmetry_2
Mg0 O6 1.912304 1_555
Mg0 O0 1.912319 1_455
Mg0 O3 1.966997 1_455
Mg0 O2 2.021277 1_455
Co0 O2 2.009964 1_455
Co0 O4 2.043406 1_445
Co0 O5 2.044138 1_555
Co0 O3 2.087114 1_446
Co1 O7 1.844387 1_545
Co1 O1 1.851885 1_555
Co1 O2 1.984670 1_555
Co1 O5 2.001962 1_555
Co1 O3 2.048188 1_555
Co2 O7 1.878330 1_554
Co2 O1 1.887063 1_555
Co2 O6 2.039592 1_555
Co2 O0 2.039604 1_455
Co3 O7 1.844436 1_555
Co3 O1 1.851692 1_565
Co3 O2 1.985142 1_455
Co3 O4 2.002700 1_455
Co3 O3 2.048075 1_455
Cu0 O0 1.963673 1_555
Cu0 O6 1.964071 1_545
Cu0 O5 1.984043 1_554
Cu0 O4 1.984301 1_554
Cu1 O6 1.950854 1_555
Cu1 O0 1.951026 1_565
Cu1 O4 1.989355 1_555
Cu1 O5 1.989633 1_555
Cu1 O3 2.521652 1_555
