# generated using pymatgen
data_MgMn2(CO3)4
_symmetry_space_group_name_H-M   'P 1'
_cell_length_a   6.45494279
_cell_length_b   7.99173807
_cell_length_c   5.20097386
_cell_angle_alpha   88.64240278
_cell_angle_beta   70.76658625
_cell_angle_gamma   88.17645919
_symmetry_Int_Tables_number   1
_chemical_formula_structural   MgMn2(CO3)4
_chemical_formula_sum   'Mg1 Mn2 C4 O12'
_cell_volume   253.17020519
_cell_formula_units_Z   1
loop_
 _symmetry_equiv_pos_site_id
 _symmetry_equiv_pos_as_xyz
  1  'x, y, z'
loop_
 _atom_site_type_symbol
 _atom_site_label
 _atom_site_symmetry_multiplicity
 _atom_site_fract_x
 _atom_site_fract_y
 _atom_site_fract_z
 _atom_site_occupancy
  Mg  Mg0  1  0.18292000  0.45629400  0.21504100  1
  Mn  Mn0  1  0.97823700  0.00729300  0.00797900  1
  Mn  Mn1  1  0.53960100  0.50863000  0.52687900  1
  C  C0  1  0.11803500  0.27629200  0.75284400  1
  C  C1  1  0.35653800  0.75807400  0.77960300  1
  C  C2  1  0.61909500  0.25530300  0.26039300  1
  C  C3  1  0.88375100  0.73499300  0.21578100  1
  O  O0  1  0.11864600  0.27012400  0.00416400  1
  O  O1  1  0.05757100  0.14248000  0.66500000  1
  O  O2  1  0.17368100  0.40781400  0.60199100  1
  O  O3  1  0.28909200  0.89534200  0.89024000  1
  O  O4  1  0.36920400  0.61636900  0.91382000  1
  O  O5  1  0.43281600  0.73851400  0.51469800  1
  O  O6  1  0.64094100  0.27430900  0.50005900  1
  O  O7  1  0.53150900  0.38849800  0.17528500  1
  O  O8  1  0.67811300  0.12601400  0.11973400  1
  O  O9  1  0.87615500  0.58719900  0.33503400  1
  O  O10  1  0.91365200  0.86786600  0.33934800  1
  O  O11  1  0.87470100  0.75555700  0.97585900  1
loop_
_geom_bond_atom_site_label_1
_geom_bond_atom_site_label_2
_geom_bond_distance
_geom_bond_site_symmetry_2
Mg0 O0 2.001259 1_555
Mg0 O2 2.022212 1_555
Mg0 O4 2.073312 1_554
Mg0 O9 2.118926 1_455
Mg0 O7 2.240658 1_555
Mn0 O10 1.962355 1_545
Mn0 O1 1.988352 1_654
Mn0 O8 2.039213 1_555
Mn0 O3 2.074576 1_644
Mn0 O11 2.167252 1_544
Mn0 O0 2.311097 1_655
Mn1 O5 1.948589 1_555
Mn1 O6 1.956633 1_555
Mn1 O7 2.101821 1_555
Mn1 O4 2.136509 1_555
Mn1 O9 2.176772 1_555
Mn1 O2 2.424674 1_555
C0 O2 1.284001 1_555
C0 O1 1.293001 1_555
C0 O0 1.308170 1_556
C1 O3 1.248417 1_555
C1 O5 1.312810 1_555
C1 O4 1.330679 1_555
C2 O8 1.255014 1_555
C2 O6 1.312574 1_555
C2 O7 1.323968 1_555
C3 O11 1.274831 1_554
C3 O10 1.305749 1_555
C3 O9 1.315712 1_555
