# generated using pymatgen
data_UNi5
_symmetry_space_group_name_H-M   'P 1'
_cell_length_a   4.73029261
_cell_length_b   4.73029712
_cell_length_c   4.73033039
_cell_angle_alpha   60.00188108
_cell_angle_beta   60.00191035
_cell_angle_gamma   60.00162669
_symmetry_Int_Tables_number   1
_chemical_formula_structural   UNi5
_chemical_formula_sum   'U1 Ni5'
_cell_volume   74.84636058
_cell_formula_units_Z   1
loop_
 _symmetry_equiv_pos_site_id
 _symmetry_equiv_pos_as_xyz
  1  'x, y, z'
loop_
 _atom_site_type_symbol
 _atom_site_label
 _atom_site_symmetry_multiplicity
 _atom_site_fract_x
 _atom_site_fract_y
 _atom_site_fract_z
 _atom_site_occupancy
  U  U0  1  0.99999056  0.00000319  0.00000503  1
  Ni  Ni0  1  0.25000828  0.24999456  0.24999798  1
  Ni  Ni1  1  0.62410713  0.62410735  0.62410488  1
  Ni  Ni2  1  0.62410928  0.62410956  0.12767160  1
  Ni  Ni3  1  0.12767197  0.62411004  0.62410775  1
  Ni  Ni4  1  0.62411077  0.12767129  0.62410777  1
loop_
_geom_bond_atom_site_label_1
_geom_bond_atom_site_label_2
_geom_bond_distance
_geom_bond_site_symmetry_2
Ni0 Ni4 2.771585 1_555
Ni0 Ni2 2.771587 1_555
Ni0 Ni3 2.771613 1_555
Ni0 Ni2 2.771620 1_545
Ni0 Ni1 2.771644 1_545
Ni0 Ni3 2.771645 1_545
Ni0 Ni4 2.771657 1_554
Ni0 Ni4 2.771670 1_455
Ni0 Ni2 2.771674 1_455
Ni0 Ni3 2.771682 1_554
Ni0 Ni1 2.771684 1_554
Ni0 Ni1 2.771701 1_455
Ni0 U0 2.896678 1_455
Ni0 U0 2.896696 1_555
Ni0 U0 2.896800 1_465
Ni0 U0 2.896822 1_456
Ni1 Ni3 2.348270 1_555
Ni1 Ni4 2.348275 1_555
Ni1 Ni2 2.348283 1_555
Ni1 Ni3 2.382022 1_655
Ni1 Ni4 2.382022 1_565
Ni1 Ni2 2.382047 1_556
Ni1 U0 2.775263 1_565
Ni1 U0 2.775264 1_556
Ni1 U0 2.775315 1_466
Ni2 Ni3 2.348368 1_555
Ni2 Ni4 2.348371 1_555
Ni2 Ni4 2.382078 1_564
Ni2 Ni3 2.382080 1_654
Ni2 U0 2.775174 1_565
Ni2 U0 2.775216 1_555
Ni2 U0 2.775263 1_465
Ni3 Ni4 2.348360 1_555
Ni3 Ni4 2.382052 1_465
Ni3 U0 2.775215 1_466
Ni3 U0 2.775252 1_465
Ni3 U0 2.775256 1_456
Ni4 U0 2.775185 1_556
Ni4 U0 2.775227 1_555
Ni4 U0 2.775281 1_456
