# generated using pymatgen
data_NaTiInSi(SO6)2
_symmetry_space_group_name_H-M   'P 1'
_cell_length_a   8.84270768
_cell_length_b   8.87045739
_cell_length_c   23.07613220
_cell_angle_alpha   90.23446478
_cell_angle_beta   90.00000000
_cell_angle_gamma   119.89656954
_symmetry_Int_Tables_number   1
_chemical_formula_structural   NaTiInSi(SO6)2
_chemical_formula_sum   'Na6 Ti6 In6 Si6 S12 O72'
_cell_volume   1569.17647262
_cell_formula_units_Z   6
loop_
 _symmetry_equiv_pos_site_id
 _symmetry_equiv_pos_as_xyz
  1  'x, y, z'
loop_
 _atom_site_type_symbol
 _atom_site_label
 _atom_site_symmetry_multiplicity
 _atom_site_fract_x
 _atom_site_fract_y
 _atom_site_fract_z
 _atom_site_occupancy
  Na  Na0  1  0.00960951  0.00285276  0.50163893  1
  Na  Na1  1  0.99324325  0.00285276  0.00163893  1
  Na  Na2  1  0.67957983  0.33625388  0.83458136  1
  Na  Na3  1  0.65667504  0.33625388  0.33458136  1
  Na  Na4  1  0.33582738  0.67698482  0.16780152  1
  Na  Na5  1  0.34115645  0.67698482  0.66780152  1
  Ti  Ti0  1  0.02706119  0.01686571  0.35404936  1
  Ti  Ti1  1  0.98980452  0.01686571  0.85404936  1
  Ti  Ti2  1  0.65519118  0.30398208  0.68718868  1
  Ti  Ti3  1  0.64879190  0.30398208  0.18718868  1
  Ti  Ti4  1  0.32876191  0.66390074  0.02029180  1
  Ti  Ti5  1  0.33513783  0.66390074  0.52029180  1
  In  In0  1  0.99846188  0.99576936  0.64893421  1
  In  In1  1  0.99730748  0.99576936  0.14893421  1
  In  In2  1  0.67566222  0.32891360  0.98174333  1
  In  In3  1  0.65325238  0.32891360  0.48174333  1
  In  In4  1  0.33722069  0.67035756  0.31512321  1
  In  In5  1  0.33313586  0.67035756  0.81512321  1
  Si  Si0  1  0.28981462  0.99575235  0.24870032  1
  Si  Si1  1  0.70593773  0.99575235  0.74870032  1
  Si  Si2  1  0.36845299  0.03128012  0.58281943  1
  Si  Si3  1  0.66282813  0.03128012  0.08281943  1
  Si  Si4  1  0.04593886  0.38119733  0.91638235  1
  Si  Si5  1  0.33525746  0.38119733  0.41638235  1
  S  S0  1  0.71179693  0.70523985  0.25080833  1
  S  S1  1  0.99563205  0.28967358  0.25039198  1
  S  S2  1  0.29404153  0.28967358  0.75039198  1
  S  S3  1  0.99344292  0.70523985  0.75080833  1
  S  S4  1  0.95810135  0.33807154  0.58291327  1
  S  S5  1  0.66312673  0.62172388  0.58355792  1
  S  S6  1  0.95859815  0.62172388  0.08355792  1
  S  S7  1  0.37997119  0.33807154  0.08291327  1
  S  S8  1  0.62680072  0.66921233  0.91780618  1
  S  S9  1  0.32715165  0.95652644  0.91755278  1
  S  S10  1  0.62937379  0.95652644  0.41755278  1
  S  S11  1  0.04241061  0.66921233  0.41780618  1
  O  O0  1  0.19491671  0.03065069  0.30716433  1
  O  O1  1  0.82031402  0.79424295  0.30269882  1
  O  O2  1  0.96820223  0.17871013  0.30263955  1
  O  O3  1  0.21050790  0.17871013  0.80263955  1
  O  O4  1  0.97392893  0.79424295  0.80269882  1
  O  O5  1  0.83573397  0.03065069  0.80716433  1
  O  O6  1  0.78969702  0.96957743  0.69149381  1
  O  O7  1  0.19212716  0.21599532  0.69738857  1
  O  O8  1  0.02722011  0.80851598  0.69740687  1
  O  O9  1  0.78129587  0.80851598  0.19740687  1
  O  O10  1  0.02386816  0.21599532  0.19738857  1
  O  O11  1  0.17988041  0.96957743  0.19149381  1
  O  O12  1  0.87311893  0.36329382  0.63548683  1
  O  O13  1  0.50121292  0.13551739  0.64082232  1
  O  O14  1  0.63825751  0.51409142  0.63541310  1
  O  O15  1  0.87583491  0.51409142  0.13541310  1
  O  O16  1  0.63430547  0.13551739  0.14082232  1
  O  O17  1  0.49017589  0.36329382  0.13548683  1
  O  O18  1  0.45607878  0.31332248  0.02955732  1
  O  O19  1  0.85554222  0.55230222  0.03018732  1
  O  O20  1  0.69745788  0.14928703  0.02678959  1
  O  O21  1  0.45183014  0.14928703  0.52678959  1
  O  O22  1  0.69676100  0.55230222  0.53018732  1
  O  O23  1  0.85724470  0.31332248  0.52955732  1
  O  O24  1  0.54406269  0.69948276  0.96980049  1
  O  O25  1  0.17391342  0.48022152  0.97374074  1
  O  O26  1  0.30795937  0.84585480  0.96942784  1
  O  O27  1  0.53789444  0.84585480  0.46942784  1
  O  O28  1  0.30630710  0.48022152  0.47374074  1
  O  O29  1  0.15541907  0.69948276  0.46980049  1
  O  O30  1  0.11421497  0.64106070  0.36429482  1
  O  O31  1  0.52349295  0.88861539  0.36471204  1
  O  O32  1  0.35853623  0.48739961  0.35797530  1
  O  O33  1  0.12886238  0.48739961  0.85797530  1
  O  O34  1  0.36512144  0.88861539  0.86471204  1
  O  O35  1  0.52684473  0.64106070  0.86429482  1
  O  O36  1  0.02330595  0.82843247  0.41135863  1
  O  O37  1  0.80038699  0.96368908  0.41169617  1
  O  O38  1  0.15123812  0.18364092  0.40778011  1
  O  O39  1  0.03240279  0.18364092  0.90778011  1
  O  O40  1  0.16330208  0.96368908  0.91169617  1
  O  O41  1  0.80512652  0.82843247  0.91135863  1
  O  O42  1  0.98103223  0.18486318  0.58843720  1
  O  O43  1  0.17718014  0.01016385  0.59032144  1
  O  O44  1  0.81317052  0.80021750  0.58805211  1
  O  O45  1  0.98704698  0.80021750  0.08805211  1
  O  O46  1  0.83298371  0.01016385  0.09032144  1
  O  O47  1  0.20383095  0.18486318  0.08843720  1
  O  O48  1  0.69737555  0.18112586  0.74136772  1
  O  O49  1  0.47192729  0.30643655  0.74443314  1
  O  O50  1  0.83178426  0.53197369  0.74400713  1
  O  O51  1  0.70019043  0.53197369  0.24400713  1
  O  O52  1  0.83451027  0.30643655  0.24443314  1
  O  O53  1  0.48375131  0.18112586  0.24136772  1
  O  O54  1  0.64494157  0.51345233  0.92536304  1
  O  O55  1  0.84992103  0.35127564  0.91883696  1
  O  O56  1  0.47714542  0.13566267  0.92375909  1
  O  O57  1  0.65851825  0.13566267  0.42375909  1
  O  O58  1  0.50135561  0.35127564  0.41883696  1
  O  O59  1  0.86851175  0.51345233  0.42536304  1
  O  O60  1  0.36587861  0.50006828  0.07794959  1
  O  O61  1  0.13598635  0.63538685  0.07656377  1
  O  O62  1  0.48244279  0.84039707  0.07302914  1
  O  O63  1  0.35795329  0.84039707  0.57302914  1
  O  O64  1  0.49939951  0.63538685  0.57656377  1
  O  O65  1  0.13418867  0.50006828  0.57794959  1
  O  O66  1  0.32080354  0.83340886  0.25658304  1
  O  O67  1  0.53342133  0.68162284  0.25513546  1
  O  O68  1  0.14864131  0.46548280  0.25604162  1
  O  O69  1  0.31684049  0.46548280  0.75604162  1
  O  O70  1  0.14820050  0.68162284  0.75513546  1
  O  O71  1  0.51260432  0.83340886  0.75658304  1
loop_
_geom_bond_atom_site_label_1
_geom_bond_atom_site_label_2
_geom_bond_distance
_geom_bond_site_symmetry_2
Na0 O43 2.508175 1_555
Na0 O38 2.618710 1_555
Na0 O36 2.628517 1_545
Na0 O42 2.657564 1_455
Na0 O44 2.672342 1_445
Na0 O37 2.684166 1_445
Na1 O46 2.508175 1_555
Na1 O39 2.618710 1_654
Na1 O41 2.628517 1_544
Na1 O47 2.657564 1_655
Na1 O45 2.672342 1_545
Na1 O40 2.684166 1_644
Na2 O55 2.421714 1_555
Na2 O48 2.595530 1_555
Na2 O50 2.625731 1_555
Na2 O49 2.698242 1_555
Na2 O54 2.721401 1_555
Na2 O56 2.731307 1_555
Na3 O58 2.421714 1_555
Na3 O53 2.595530 1_555
Na3 O51 2.625731 1_555
Na3 O52 2.698242 1_555
Na3 O59 2.721401 1_555
Na3 O57 2.731307 1_555
Na4 O66 2.510131 1_555
Na4 O62 2.591801 1_555
Na4 O61 2.652417 1_555
Na4 O67 2.654024 1_555
Na4 O60 2.687310 1_555
Na4 O68 2.709513 1_555
Na5 O71 2.510131 1_555
Na5 O63 2.591801 1_555
Na5 O64 2.652417 1_555
Na5 O70 2.654024 1_555
Na5 O65 2.687310 1_555
Na5 O69 2.709513 1_555
In0 O6 2.000180 1_555
In0 O43 2.035555 1_665
In0 O8 2.123942 1_655
In0 O7 2.155533 1_665
In0 O44 2.194120 1_555
In0 O42 2.250122 1_565
In1 O11 2.000180 1_655
In1 O46 2.035555 1_565
In1 O9 2.123942 1_555
In1 O10 2.155533 1_665
In1 O45 2.194120 1_555
In1 O47 2.250122 1_665
In2 O20 1.994043 1_556
In2 O55 2.053943 1_555
In2 O19 2.132177 1_556
In2 O18 2.177230 1_556
In2 O56 2.189044 1_555
In2 O54 2.215130 1_555
In3 O21 1.994044 1_555
In3 O58 2.053943 1_555
In3 O22 2.132177 1_555
In3 O23 2.177230 1_555
In3 O57 2.189044 1_555
In3 O59 2.215130 1_555
In4 O32 1.991311 1_555
In4 O66 2.040381 1_555
In4 O31 2.138628 1_555
In4 O30 2.176072 1_555
In4 O67 2.182789 1_555
In4 O68 2.213803 1_555
In5 O33 1.991311 1_555
In5 O71 2.040381 1_555
In5 O34 2.138628 1_555
In5 O35 2.176072 1_555
In5 O70 2.182789 1_555
In5 O69 2.213803 1_555
O0 Si0 1.695785 1_545
O0 Ti0 1.791314 1_555
O1 S0 1.488286 1_555
O1 Ti0 2.242333 1_665
O2 S1 1.501010 1_555
O2 Ti0 2.120884 1_655
O3 S2 1.501010 1_555
O3 Ti1 2.120884 1_455
O4 S3 1.488286 1_555
O4 Ti1 2.242333 1_565
O5 Si1 1.695784 1_545
O5 Ti1 1.791314 1_555
O6 Si1 1.585586 1_555
O7 S2 1.463427 1_555
O8 S3 1.477665 1_455
O9 S0 1.477665 1_555
O10 S1 1.463427 1_455
O11 Si0 1.585586 1_555
O12 S4 1.500664 1_555
O12 Ti2 2.099590 1_555
O13 Si2 1.712438 1_555
O13 Ti2 1.786172 1_555
O14 S5 1.480489 1_555
O14 Ti2 2.284727 1_555
O15 S6 1.480489 1_555
O15 Ti3 2.284727 1_555
O16 Si3 1.712438 1_555
O16 Ti3 1.786172 1_555
O17 S7 1.500664 1_555
O17 Ti3 2.099590 1_555
O18 S7 1.470431 1_555
O19 S6 1.469982 1_555
O20 Si3 1.597739 1_555
O21 Si2 1.597739 1_555
O22 S5 1.469982 1_555
O23 S4 1.470431 1_555
O24 S8 1.496718 1_555
O24 Ti4 2.117966 1_556
O25 Si4 1.674424 1_555
O25 Ti4 1.856129 1_556
O26 S9 1.506345 1_555
O26 Ti4 2.080393 1_556
O27 S10 1.506345 1_555
O27 Ti5 2.080393 1_555
O28 Si5 1.674424 1_555
O28 Ti5 1.856129 1_555
O29 S11 1.496718 1_555
O29 Ti5 2.117966 1_555
O30 S11 1.464879 1_555
O31 S10 1.469039 1_555
O32 Si5 1.601100 1_555
O33 Si4 1.601100 1_555
O34 S9 1.469039 1_555
O35 S8 1.464879 1_555
O36 S11 1.511621 1_555
O36 Ti0 2.122895 1_565
O37 S10 1.487750 1_555
O37 Ti0 2.252197 1_665
O38 Si5 1.706673 1_555
O38 Ti0 1.815835 1_555
O39 Si4 1.706677 1_555
O39 Ti1 1.815835 1_455
O40 S9 1.487742 1_555
O40 Ti1 2.252197 1_465
O41 S8 1.511626 1_555
O41 Ti1 2.122895 1_565
O42 S4 1.476635 1_555
O43 Si2 1.615621 1_555
O44 S5 1.477338 1_555
O45 S6 1.477341 1_555
O46 Si3 1.615612 1_555
O47 S7 1.476640 1_555
O48 Si1 1.692522 1_545
O48 Ti2 1.818322 1_555
O49 S2 1.510736 1_555
O49 Ti2 2.099186 1_555
O50 S3 1.496044 1_555
O50 Ti2 2.253384 1_555
O51 S0 1.496048 1_555
O51 Ti3 2.253384 1_555
O52 S1 1.510727 1_555
O52 Ti3 2.099186 1_555
O53 Si0 1.692526 1_545
O53 Ti3 1.818322 1_555
O54 S8 1.479206 1_555
O55 Si4 1.618514 1_655
O56 S9 1.483858 1_545
O57 S10 1.483852 1_545
O58 Si5 1.618531 1_555
O59 S11 1.479196 1_655
O60 S7 1.507791 1_555
O60 Ti4 2.116910 1_555
O61 S6 1.520482 1_455
O61 Ti4 2.056432 1_555
O62 Si3 1.663380 1_565
O62 Ti4 1.908501 1_555
O63 Si2 1.663372 1_565
O63 Ti5 1.908501 1_555
O64 S5 1.520499 1_555
O64 Ti5 2.056432 1_555
O65 S4 1.507781 1_455
O65 Ti5 2.116910 1_555
O66 Si0 1.605453 1_555
O67 S0 1.487472 1_555
O68 S1 1.474657 1_455
O69 S2 1.474660 1_555
O70 S3 1.487463 1_455
O71 Si1 1.605458 1_555
