# generated using pymatgen
data_H4NF
_symmetry_space_group_name_H-M   'P 1'
_cell_length_a   4.40766733
_cell_length_b   4.40766774
_cell_length_c   7.13632075
_cell_angle_alpha   90.00000000
_cell_angle_beta   90.00000000
_cell_angle_gamma   120.00001185
_symmetry_Int_Tables_number   1
_chemical_formula_structural   H4NF
_chemical_formula_sum   'H8 N2 F2'
_cell_volume   120.06670688
_cell_formula_units_Z   2
loop_
 _symmetry_equiv_pos_site_id
 _symmetry_equiv_pos_as_xyz
  1  'x, y, z'
loop_
 _atom_site_type_symbol
 _atom_site_label
 _atom_site_symmetry_multiplicity
 _atom_site_fract_x
 _atom_site_fract_y
 _atom_site_fract_z
 _atom_site_occupancy
  H  H0  1  0.53787739  0.07575478  0.92307162  1
  H  H1  1  0.53787739  0.46212261  0.92307162  1
  H  H2  1  0.33333300  0.66666700  0.22863250  1
  H  H3  1  0.66666700  0.33333300  0.72863250  1
  H  H4  1  0.46212261  0.53787739  0.42307162  1
  H  H5  1  0.92424522  0.46212261  0.92307162  1
  H  H6  1  0.46212261  0.92424522  0.42307162  1
  H  H7  1  0.07575478  0.53787739  0.42307162  1
  N  N0  1  0.33333300  0.66666700  0.37470910  1
  N  N1  1  0.66666700  0.33333300  0.87470910  1
  F  F0  1  0.33333300  0.66666700  0.99764353  1
  F  F1  1  0.66666700  0.33333300  0.49764353  1
loop_
_geom_bond_atom_site_label_1
_geom_bond_atom_site_label_2
_geom_bond_distance
_geom_bond_site_symmetry_2
H0 N1 1.042030 1_555
H1 N1 1.042034 1_555
H2 N0 1.042449 1_555
H3 N1 1.042449 1_555
H4 N0 1.042034 1_555
H5 N1 1.042030 1_555
H6 N0 1.042030 1_555
H7 N0 1.042030 1_555
F0 H2 1.648411 1_556
F0 H5 1.649740 1_455
F0 H0 1.649740 1_565
F0 H1 1.649744 1_555
F1 H3 1.648411 1_555
F1 H7 1.649740 1_655
F1 H6 1.649740 1_545
F1 H4 1.649744 1_555
