# generated using pymatgen
data_Na14Ta4Al4Si11SO48
_symmetry_space_group_name_H-M   'P 1'
_cell_length_a   17.88080131
_cell_length_b   8.93353695
_cell_length_c   21.99483023
_cell_angle_alpha   90.06473394
_cell_angle_beta   90.13443582
_cell_angle_gamma   120.00387343
_symmetry_Int_Tables_number   1
_chemical_formula_structural   Na14Ta4Al4Si11SO48
_chemical_formula_sum   'Na42 Ta12 Al12 Si33 S3 O144'
_cell_volume   3042.57979844
_cell_formula_units_Z   3
loop_
 _symmetry_equiv_pos_site_id
 _symmetry_equiv_pos_as_xyz
  1  'x, y, z'
loop_
 _atom_site_type_symbol
 _atom_site_label
 _atom_site_symmetry_multiplicity
 _atom_site_fract_x
 _atom_site_fract_y
 _atom_site_fract_z
 _atom_site_occupancy
  Na  Na0  1  0.32303153  0.99985304  0.25002630  1
  Na  Na1  1  0.82363496  0.00024249  0.24998644  1
  Na  Na2  1  0.31837209  0.62943438  0.74868281  1
  Na  Na3  1  0.82346885  0.64689864  0.74917611  1
  Na  Na4  1  0.49415762  0.36275368  0.74805546  1
  Na  Na5  1  0.68171796  0.00143345  0.75102964  1
  Na  Na6  1  0.14873930  0.32384761  0.58519463  1
  Na  Na7  1  0.65293025  0.33285978  0.58220435  1
  Na  Na8  1  0.01700145  0.70931768  0.58589201  1
  Na  Na9  1  0.51103567  0.68927095  0.58291989  1
  Na  Na10  1  0.33089333  0.97803842  0.58327494  1
  Na  Na11  1  0.83967550  0.97035367  0.58628582  1
  Na  Na12  1  0.14847097  0.96172395  0.08153290  1
  Na  Na13  1  0.64817479  0.96160240  0.08148335  1
  Na  Na14  1  0.33202853  0.70528459  0.08338245  1
  Na  Na15  1  0.83216097  0.70520633  0.08393914  1
  Na  Na16  1  0.02071250  0.33553932  0.08353360  1
  Na  Na17  1  0.52024260  0.33486786  0.08359294  1
  Na  Na18  1  0.48405184  0.67660456  0.91419763  1
  Na  Na19  1  0.98593649  0.67519698  0.91371531  1
  Na  Na20  1  0.35328015  0.02961437  0.91431209  1
  Na  Na21  1  0.85305385  0.03049211  0.91404932  1
  Na  Na22  1  0.16268562  0.29847980  0.91592670  1
  Na  Na23  1  0.66080661  0.29212388  0.91493089  1
  Na  Na24  1  0.47864984  0.29505210  0.41628459  1
  Na  Na25  1  0.98027760  0.29548640  0.41634748  1
  Na  Na26  1  0.16741284  0.03857746  0.42000844  1
  Na  Na27  1  0.66779018  0.03817933  0.41777444  1
  Na  Na28  1  0.35198226  0.66306175  0.41668839  1
  Na  Na29  1  0.85332890  0.66537429  0.41611344  1
  Na  Na30  1  0.00193014  0.00026628  0.50022529  1
  Na  Na31  1  0.49873111  0.99840650  0.49451746  1
  Na  Na32  1  0.00046673  0.00181192  0.00037429  1
  Na  Na33  1  0.49948072  0.00005736  0.99949533  1
  Na  Na34  1  0.33055481  0.32385160  0.82737906  1
  Na  Na35  1  0.83978630  0.33537477  0.83248879  1
  Na  Na36  1  0.33682090  0.34593735  0.33757042  1
  Na  Na37  1  0.83759127  0.34667052  0.33705838  1
  Na  Na38  1  0.16428190  0.65367179  0.16267603  1
  Na  Na39  1  0.66416646  0.65346492  0.16258916  1
  Na  Na40  1  0.16311790  0.67449544  0.66828047  1
  Na  Na41  1  0.66720080  0.66723570  0.66658559  1
  Ta  Ta0  1  0.49733169  0.99703862  0.64583847  1
  Ta  Ta1  1  0.83965754  0.33891401  0.68925662  1
  Ta  Ta2  1  0.33922594  0.34723518  0.18774675  1
  Ta  Ta3  1  0.83941140  0.34761399  0.18773963  1
  Ta  Ta4  1  0.33323060  0.33547307  0.98020122  1
  Ta  Ta5  1  0.83309727  0.33385026  0.98089050  1
  Ta  Ta6  1  0.16645597  0.66874416  0.52034038  1
  Ta  Ta7  1  0.66597343  0.66540796  0.51867674  1
  Ta  Ta8  1  0.16547847  0.65232087  0.31210767  1
  Ta  Ta9  1  0.66558984  0.65320201  0.31187610  1
  Ta  Ta10  1  0.16400323  0.67238726  0.81318158  1
  Ta  Ta11  1  0.66791109  0.66978479  0.81309464  1
  Al  Al0  1  0.99156738  0.99593540  0.35657207  1
  Al  Al1  1  0.49111532  0.99528858  0.35596651  1
  Al  Al2  1  0.99344058  0.99007600  0.85651186  1
  Al  Al3  1  0.49765014  0.99827986  0.85400142  1
  Al  Al4  1  0.99651587  0.98700120  0.64333869  1
  Al  Al5  1  0.99379799  0.00439106  0.14367652  1
  Al  Al6  1  0.49349368  0.00418548  0.14350062  1
  Al  Al7  1  0.33728207  0.32806402  0.68263089  1
  Al  Al8  1  0.33148346  0.33022225  0.48045251  1
  Al  Al9  1  0.83485120  0.33400486  0.47928760  1
  Al  Al10  1  0.16685301  0.66604888  0.01985313  1
  Al  Al11  1  0.66662271  0.66607575  0.02024462  1
  Si  Si0  1  0.36186141  0.72186608  0.25024982  1
  Si  Si1  1  0.86202051  0.72219746  0.25032802  1
  Si  Si2  1  0.00096171  0.27774001  0.24963161  1
  Si  Si3  1  0.50086484  0.27763378  0.24957091  1
  Si  Si4  1  0.64304496  0.28509938  0.75336335  1
  Si  Si5  1  0.00357833  0.72845995  0.74975484  1
  Si  Si6  1  0.49483112  0.70469062  0.75244457  1
  Si  Si7  1  0.35362493  0.00610164  0.75263858  1
  Si  Si8  1  0.86406344  0.00497827  0.75006325  1
  Si  Si9  1  0.47375984  0.33361370  0.58216884  1
  Si  Si10  1  0.97755070  0.32603035  0.58046505  1
  Si  Si11  1  0.19064958  0.05660868  0.58437164  1
  Si  Si12  1  0.69156725  0.05002711  0.58080365  1
  Si  Si13  1  0.33179659  0.60712528  0.58395421  1
  Si  Si14  1  0.83575867  0.62179543  0.58076725  1
  Si  Si15  1  0.48468662  0.63697427  0.08313391  1
  Si  Si16  1  0.98480638  0.63717995  0.08298335  1
  Si  Si17  1  0.33127896  0.03521595  0.08436911  1
  Si  Si18  1  0.83128511  0.03455471  0.08479174  1
  Si  Si19  1  0.18338402  0.33088614  0.08444073  1
  Si  Si20  1  0.68332391  0.33084508  0.08448514  1
  Si  Si21  1  0.31134134  0.67253137  0.91792217  1
  Si  Si22  1  0.81195291  0.67086374  0.92006097  1
  Si  Si23  1  0.02402152  0.37344347  0.91924411  1
  Si  Si24  1  0.52377205  0.37483351  0.91908751  1
  Si  Si25  1  0.16309143  0.95477402  0.91962511  1
  Si  Si26  1  0.66303241  0.95344252  0.91996734  1
  Si  Si27  1  0.31368740  0.96487810  0.41527247  1
  Si  Si28  1  0.81411539  0.96550767  0.41539037  1
  Si  Si29  1  0.16606368  0.36388383  0.41766448  1
  Si  Si30  1  0.66639456  0.36304383  0.41655061  1
  Si  Si31  1  0.01810455  0.66896869  0.41515139  1
  Si  Si32  1  0.51748849  0.66848707  0.41503820  1
  S  S0  1  0.14209616  0.00017061  0.24990433  1
  S  S1  1  0.64226542  0.00019032  0.24977769  1
  S  S2  1  0.14255201  0.28195036  0.75000498  1
  O  O0  1  0.10330085  0.02282373  0.30544322  1
  O  O1  1  0.60335190  0.02285543  0.30573379  1
  O  O2  1  0.41600551  0.80342080  0.31207212  1
  O  O3  1  0.91599011  0.80394826  0.31208299  1
  O  O4  1  0.48376227  0.16249888  0.31041082  1
  O  O5  1  0.98331447  0.16207973  0.31035673  1
  O  O6  1  0.10222380  0.18342454  0.80592574  1
  O  O7  1  0.59848615  0.16291088  0.81091119  1
  O  O8  1  0.48256848  0.80029722  0.81047670  1
  O  O9  1  0.98485932  0.80629873  0.81064284  1
  O  O10  1  0.41615369  0.03628270  0.81032149  1
  O  O11  1  0.91576624  0.02592822  0.81226990  1
  O  O12  1  0.39968678  0.96971561  0.69159554  1
  O  O13  1  0.90306182  0.96783855  0.68936719  1
  O  O14  1  0.09109442  0.20488363  0.69478908  1
  O  O15  1  0.58427164  0.20101986  0.69105553  1
  O  O16  1  0.01345785  0.83140796  0.68773044  1
  O  O17  1  0.51638874  0.83164958  0.69145506  1
  O  O18  1  0.40233566  0.83749133  0.18969183  1
  O  O19  1  0.90217245  0.83730859  0.18960071  1
  O  O20  1  0.01416254  0.19613841  0.18802638  1
  O  O21  1  0.51441176  0.19626762  0.18805637  1
  O  O22  1  0.09169427  0.97740264  0.19434437  1
  O  O23  1  0.59184604  0.97734124  0.19455533  1
  O  O24  1  0.43806082  0.37494464  0.64363146  1
  O  O25  1  0.93267921  0.36875602  0.63955002  1
  O  O26  1  0.25682719  0.13993145  0.64088741  1
  O  O27  1  0.74973306  0.13295585  0.64285805  1
  O  O28  1  0.31586018  0.49437448  0.64504190  1
  O  O29  1  0.81456257  0.49823795  0.64215128  1
  O  O30  1  0.43434075  0.49856915  0.13970302  1
  O  O31  1  0.93426621  0.49873483  0.13953715  1
  O  O32  1  0.31473820  0.13068348  0.14304021  1
  O  O33  1  0.81462612  0.13066169  0.14313168  1
  O  O34  1  0.25279252  0.36545247  0.13999180  1
  O  O35  1  0.75286147  0.36555250  0.13991094  1
  O  O36  1  0.23064059  0.29652291  0.02437740  1
  O  O37  1  0.73091818  0.29682723  0.02442130  1
  O  O38  1  0.41779053  0.54174027  0.02462817  1
  O  O39  1  0.91767249  0.54158721  0.02448325  1
  O  O40  1  0.34972372  0.16805598  0.02562068  1
  O  O41  1  0.84966435  0.16704787  0.02581758  1
  O  O42  1  0.23075414  0.16809858  0.52229087  1
  O  O43  1  0.73354093  0.17062587  0.52245956  1
  O  O44  1  0.35261197  0.53112398  0.52377078  1
  O  O45  1  0.85052997  0.52998481  0.52266151  1
  O  O46  1  0.41476444  0.29556467  0.52241500  1
  O  O47  1  0.91558676  0.29154585  0.52241364  1
  O  O48  1  0.26587548  0.70331267  0.97624339  1
  O  O49  1  0.76587048  0.70238069  0.97724774  1
  O  O50  1  0.08429935  0.46330388  0.97795428  1
  O  O51  1  0.58529646  0.46710513  0.97688572  1
  O  O52  1  0.14551010  0.83078216  0.97738709  1
  O  O53  1  0.64839653  0.83036133  0.97728573  1
  O  O54  1  0.26661749  0.83344722  0.47445433  1
  O  O55  1  0.76576663  0.83280243  0.47433358  1
  O  O56  1  0.14725131  0.45996001  0.47583751  1
  O  O57  1  0.64740250  0.45801635  0.47542730  1
  O  O58  1  0.08224216  0.70217051  0.47532370  1
  O  O59  1  0.58179211  0.70255282  0.47573546  1
  O  O60  1  0.06972399  0.63387694  0.35970255  1
  O  O61  1  0.57041997  0.63523821  0.36017414  1
  O  O62  1  0.24948673  0.86888494  0.35673467  1
  O  O63  1  0.74928561  0.86940403  0.35708578  1
  O  O64  1  0.18455741  0.50105376  0.36053599  1
  O  O65  1  0.68471912  0.50128609  0.36030456  1
  O  O66  1  0.06793205  0.50437334  0.86018090  1
  O  O67  1  0.56701091  0.50166249  0.85802206  1
  O  O68  1  0.18506631  0.86574000  0.86031771  1
  O  O69  1  0.68410961  0.86973488  0.85824105  1
  O  O70  1  0.24851216  0.62821988  0.85682979  1
  O  O71  1  0.75048862  0.63157531  0.85796457  1
  O  O72  1  0.01379332  0.84494975  0.40877249  1
  O  O73  1  0.51412692  0.84575303  0.40905473  1
  O  O74  1  0.40711122  0.97557848  0.41273882  1
  O  O75  1  0.90703174  0.97547416  0.41299497  1
  O  O76  1  0.07986836  0.17908690  0.40770234  1
  O  O77  1  0.57974498  0.17845319  0.40774512  1
  O  O78  1  0.01314625  0.18332116  0.90924822  1
  O  O79  1  0.51169051  0.18371368  0.91052708  1
  O  O80  1  0.08108314  0.98179523  0.90771161  1
  O  O81  1  0.57933851  0.97617764  0.91126936  1
  O  O82  1  0.40739998  0.83955451  0.91031169  1
  O  O83  1  0.90787860  0.83795573  0.91298582  1
  O  O84  1  0.48758466  0.16245852  0.58798821  1
  O  O85  1  0.99097933  0.16183043  0.59218199  1
  O  O86  1  0.09275883  0.02748659  0.59159824  1
  O  O87  1  0.59341347  0.02398626  0.58772344  1
  O  O88  1  0.41733359  0.80869591  0.58939441  1
  O  O89  1  0.91911623  0.81466977  0.58708059  1
  O  O90  1  0.49045527  0.82131409  0.09263969  1
  O  O91  1  0.99027262  0.82120529  0.09249084  1
  O  O92  1  0.41915218  0.02448628  0.08726177  1
  O  O93  1  0.91930628  0.02446654  0.08728239  1
  O  O94  1  0.09115300  0.15492867  0.09100522  1
  O  O95  1  0.59124845  0.15492831  0.09097899  1
  O  O96  1  0.34620791  0.17802326  0.74323268  1
  O  O97  1  0.84395038  0.16779187  0.74550528  1
  O  O98  1  0.23144802  0.30850335  0.74654182  1
  O  O99  1  0.74024156  0.30959673  0.74664740  1
  O  O100  1  0.40982818  0.51434236  0.74454585  1
  O  O101  1  0.91461023  0.52962656  0.74468729  1
  O  O102  1  0.34478459  0.52086208  0.24465161  1
  O  O103  1  0.84469468  0.52094486  0.24469687  1
  O  O104  1  0.41133114  0.29577615  0.24430317  1
  O  O105  1  0.91135073  0.29615085  0.24422083  1
  O  O106  1  0.23223436  0.15520048  0.24603507  1
  O  O107  1  0.73228137  0.15508706  0.24620426  1
  O  O108  1  0.31984971  0.49511654  0.92208159  1
  O  O109  1  0.82000631  0.49370707  0.92168650  1
  O  O110  1  0.42732033  0.36018493  0.92231056  1
  O  O111  1  0.92713120  0.35753053  0.92259396  1
  O  O112  1  0.25253925  0.14618729  0.92218553  1
  O  O113  1  0.75280630  0.14591744  0.92220073  1
  O  O114  1  0.32051013  0.15132759  0.42213668  1
  O  O115  1  0.82044104  0.15149252  0.42247738  1
  O  O116  1  0.25429869  0.35762347  0.42295685  1
  O  O117  1  0.75445829  0.35691900  0.42245260  1
  O  O118  1  0.42539373  0.49430349  0.42203206  1
  O  O119  1  0.92554065  0.49413837  0.42222984  1
  O  O120  1  0.17875854  0.50614022  0.07768855  1
  O  O121  1  0.67865789  0.50592149  0.07759558  1
  O  O122  1  0.07588220  0.64300069  0.07716318  1
  O  O123  1  0.57587619  0.64306285  0.07725320  1
  O  O124  1  0.24486736  0.84865686  0.07716474  1
  O  O125  1  0.74488327  0.84832144  0.07762965  1
  O  O126  1  0.17886324  0.85580585  0.57730568  1
  O  O127  1  0.67984218  0.85409724  0.57827578  1
  O  O128  1  0.24784420  0.63950222  0.57826024  1
  O  O129  1  0.74723004  0.64022563  0.57753457  1
  O  O130  1  0.07309949  0.50493293  0.57802457  1
  O  O131  1  0.57337405  0.50389944  0.57718610  1
  O  O132  1  0.15473395  0.84504296  0.25368815  1
  O  O133  1  0.65475823  0.84494208  0.25383562  1
  O  O134  1  0.26319456  0.70381316  0.25580486  1
  O  O135  1  0.76319836  0.70402551  0.25592759  1
  O  O136  1  0.08420197  0.47894460  0.25521063  1
  O  O137  1  0.58417185  0.47902055  0.25541335  1
  O  O138  1  0.15344384  0.46355190  0.75387938  1
  O  O139  1  0.65360486  0.47962608  0.75437004  1
  O  O140  1  0.08538813  0.69083313  0.75492168  1
  O  O141  1  0.58440053  0.69002552  0.75465335  1
  O  O142  1  0.26088421  0.81979981  0.75468860  1
  O  O143  1  0.76254624  0.83067104  0.75509101  1
loop_
_geom_bond_atom_site_label_1
_geom_bond_atom_site_label_2
_geom_bond_distance
_geom_bond_site_symmetry_2
Na0 O104 2.307540 1_565
Na0 O134 2.307963 1_555
Na0 O132 2.610380 1_555
Na0 O106 2.612000 1_565
Na0 O62 2.662464 1_555
Na0 O32 2.665187 1_565
Na0 O4 2.817153 1_565
Na0 O18 2.817303 1_555
Na1 O105 2.306347 1_555
Na1 O135 2.308467 1_545
Na1 O107 2.616906 1_555
Na1 O133 2.619514 1_545
Na1 O33 2.664436 1_555
Na1 O63 2.673840 1_545
Na1 O5 2.802673 1_555
Na1 O19 2.811326 1_545
Na2 O100 2.328462 1_555
Na2 O142 2.390548 1_555
Na2 O98 2.486082 1_555
Na2 O138 2.556803 1_555
Na2 O28 2.567748 1_555
Na2 O70 2.686827 1_555
Na2 O8 2.879525 1_555
Na2 O12 2.920348 1_555
Na3 O101 2.339071 1_555
Na3 O143 2.384892 1_555
Na3 O99 2.610004 1_555
Na3 O139 2.633256 1_555
Na3 O29 2.666469 1_555
Na3 O71 2.698846 1_555
Na3 O13 2.812964 1_555
Na3 O9 2.837398 1_555
Na4 O96 2.316284 1_555
Na4 O100 2.481029 1_555
Na4 O139 2.501718 1_555
Na4 O24 2.528285 1_555
Na4 O141 2.540173 1_555
Na4 O67 2.729230 1_555
Na4 O10 2.876946 1_555
Na4 O15 2.930780 1_555
Na5 O99 2.408976 1_555
Na5 O141 2.435849 1_545
Na5 O97 2.515706 1_555
Na5 O143 2.574632 1_545
Na5 O69 2.646280 1_545
Na5 O27 2.666653 1_555
Na5 O7 2.860534 1_555
Na5 O17 2.872228 1_545
Na6 O86 2.319996 1_555
Na6 O85 2.448478 1_455
Na6 O128 2.473859 1_555
Na6 O130 2.580504 1_555
Na6 O14 2.631415 1_555
Na6 O56 2.702475 1_555
Na6 O42 2.836664 1_555
Na6 O28 2.899537 1_555
Na7 O129 2.400915 1_555
Na7 O87 2.413650 1_555
Na7 O131 2.558130 1_555
Na7 O84 2.564277 1_555
Na7 O57 2.625056 1_555
Na7 O15 2.683365 1_555
Na7 O29 2.825126 1_555
Na7 O43 2.828211 1_555
Na8 O89 2.365915 1_455
Na8 O86 2.465248 1_565
Na8 O130 2.490332 1_555
Na8 O16 2.505022 1_555
Na8 O126 2.517914 1_555
Na8 O58 2.714162 1_555
Na8 O25 2.889847 1_455
Na8 O45 2.927011 1_455
Na9 O88 2.398800 1_555
Na9 O131 2.418076 1_555
Na9 O87 2.591453 1_565
Na9 O127 2.616502 1_555
Na9 O59 2.652749 1_555
Na9 O17 2.682554 1_555
Na9 O44 2.772897 1_555
Na9 O24 2.779034 1_555
Na10 O126 2.372481 1_555
Na10 O84 2.440637 1_565
Na10 O128 2.621214 1_555
Na10 O88 2.652117 1_555
Na10 O54 2.685810 1_555
Na10 O12 2.696854 1_555
Na10 O26 2.714911 1_565
Na10 O46 2.801936 1_565
Na11 O85 2.373123 1_565
Na11 O89 2.434776 1_555
Na11 O127 2.511219 1_555
Na11 O13 2.537534 1_555
Na11 O129 2.566887 1_555
Na11 O55 2.770111 1_555
Na11 O47 2.858710 1_565
Na11 O27 2.930279 1_565
Na12 O124 2.396301 1_555
Na12 O94 2.417075 1_565
Na12 O91 2.467400 1_455
Na12 O122 2.470598 1_555
Na12 O52 2.559253 1_554
Na12 O22 2.712973 1_555
Na12 O36 2.882184 1_565
Na12 O32 2.904428 1_565
Na13 O125 2.402545 1_555
Na13 O95 2.412655 1_565
Na13 O90 2.460339 1_555
Na13 O123 2.469297 1_555
Na13 O53 2.574035 1_554
Na13 O23 2.715141 1_555
Na13 O37 2.884194 1_565
Na13 O33 2.908381 1_565
Na14 O120 2.411061 1_555
Na14 O124 2.466570 1_555
Na14 O92 2.474215 1_565
Na14 O90 2.490134 1_555
Na14 O48 2.630322 1_554
Na14 O18 2.633972 1_555
Na14 O38 2.898620 1_555
Na14 O34 2.913655 1_555
Na15 O121 2.415207 1_555
Na15 O125 2.466621 1_555
Na15 O93 2.474328 1_565
Na15 O91 2.483766 1_555
Na15 O19 2.619830 1_555
Na15 O49 2.620942 1_554
Na15 O39 2.902562 1_555
Na15 O35 2.906344 1_555
Na16 O122 2.414302 1_555
Na16 O93 2.445205 1_455
Na16 O120 2.453604 1_555
Na16 O94 2.499779 1_555
Na16 O50 2.590096 1_554
Na16 O20 2.590105 1_555
Na16 O31 2.879370 1_455
Na16 O41 2.933382 1_455
Na17 O123 2.419057 1_555
Na17 O92 2.439434 1_555
Na17 O121 2.459530 1_555
Na17 O95 2.502645 1_555
Na17 O21 2.588754 1_555
Na17 O51 2.627137 1_554
Na17 O30 2.876183 1_555
Na17 O40 2.928537 1_555
Na18 O81 2.347331 1_555
Na18 O82 2.449516 1_555
Na18 O110 2.487075 1_555
Na18 O8 2.541834 1_555
Na18 O108 2.553703 1_555
Na18 O38 2.710605 1_556
Na18 O53 2.896085 1_555
Na18 O67 2.914163 1_555
Na19 O80 2.399056 1_655
Na19 O83 2.468217 1_555
Na19 O111 2.493034 1_555
Na19 O9 2.557344 1_555
Na19 O109 2.579617 1_555
Na19 O39 2.722808 1_556
Na19 O52 2.836371 1_655
Na19 O66 2.847215 1_655
Na20 O82 2.338891 1_545
Na20 O79 2.454937 1_555
Na20 O112 2.497298 1_555
Na20 O10 2.538577 1_555
Na20 O110 2.567571 1_555
Na20 O40 2.756800 1_556
Na20 O68 2.859355 1_545
Na20 O48 2.873686 1_545
Na21 O83 2.367792 1_545
Na21 O113 2.481566 1_555
Na21 O78 2.482452 1_655
Na21 O11 2.515513 1_555
Na21 O111 2.540251 1_555
Na21 O41 2.757375 1_556
Na21 O69 2.886963 1_545
Na21 O49 2.898911 1_545
Na22 O78 2.340145 1_555
Na22 O80 2.456557 1_545
Na22 O108 2.462116 1_555
Na22 O112 2.576197 1_555
Na22 O6 2.636243 1_555
Na22 O36 2.678507 1_556
Na22 O50 2.839440 1_555
Na22 O70 2.866864 1_555
Na23 O79 2.339352 1_555
Na23 O81 2.445805 1_545
Na23 O109 2.497770 1_555
Na23 O7 2.550353 1_555
Na23 O113 2.566284 1_555
Na23 O37 2.702937 1_556
Na23 O51 2.870223 1_555
Na23 O71 2.914111 1_555
Na24 O118 2.405526 1_555
Na24 O114 2.455983 1_555
Na24 O74 2.477025 1_545
Na24 O77 2.504444 1_555
Na24 O46 2.602248 1_555
Na24 O4 2.633700 1_555
Na24 O61 2.912416 1_555
Na24 O57 2.915549 1_555
Na25 O119 2.421017 1_555
Na25 O76 2.478241 1_655
Na25 O75 2.479543 1_545
Na25 O115 2.483231 1_555
Na25 O47 2.598813 1_555
Na25 O5 2.630034 1_555
Na25 O56 2.893946 1_655
Na25 O60 2.903666 1_655
Na26 O114 2.398390 1_555
Na26 O72 2.417066 1_545
Na26 O76 2.462357 1_555
Na26 O116 2.472261 1_555
Na26 O42 2.520752 1_555
Na26 O0 2.740050 1_555
Na26 O58 2.875927 1_545
Na26 O62 2.935718 1_545
Na27 O115 2.391811 1_555
Na27 O73 2.411280 1_545
Na27 O77 2.463651 1_555
Na27 O117 2.470952 1_555
Na27 O43 2.583363 1_555
Na27 O1 2.692087 1_555
Na27 O63 2.894913 1_545
Na27 O59 2.895946 1_545
Na28 O116 2.398070 1_555
Na28 O118 2.447170 1_555
Na28 O74 2.454053 1_555
Na28 O73 2.523525 1_555
Na28 O2 2.600144 1_555
Na28 O44 2.637434 1_555
Na28 O64 2.868375 1_555
Na28 O54 2.930782 1_555
Na29 O117 2.422405 1_555
Na29 O75 2.437528 1_555
Na29 O119 2.449593 1_555
Na29 O72 2.496284 1_655
Na29 O3 2.579666 1_555
Na29 O45 2.627518 1_555
Na29 O65 2.881608 1_555
Na29 O55 2.945426 1_555
Na30 O89 2.481179 1_445
Na30 O75 2.493465 1_445
Na30 O72 2.511248 1_545
Na30 O86 2.514840 1_555
Na30 O76 2.535661 1_555
Na30 O85 2.547603 1_455
Na31 O74 2.368959 1_555
Na31 O73 2.416832 1_555
Na31 O77 2.453105 1_565
Na31 O84 2.588719 1_565
Na31 O87 2.591696 1_565
Na31 O88 2.626911 1_555
Na32 O93 2.471196 1_455
Na32 O83 2.476501 1_444
Na32 O94 2.496901 1_555
Na32 O78 2.517888 1_554
Na32 O91 2.540961 1_445
Na32 O80 2.556261 1_544
Na33 O92 2.482484 1_556
Na33 O81 2.483302 1_545
Na33 O79 2.493955 1_555
Na33 O82 2.496403 1_545
Na33 O95 2.522543 1_556
Na33 O90 2.554253 1_546
Na34 O96 2.358515 1_555
Na34 O100 2.414783 1_555
Na34 O98 2.462136 1_555
Na34 O112 2.572966 1_555
Na34 O110 2.622726 1_555
Na34 O108 2.646481 1_555
Na35 O97 2.452110 1_555
Na35 O111 2.466077 1_555
Na35 O101 2.495715 1_555
Na35 O99 2.521768 1_555
Na35 O109 2.544038 1_555
Na35 O113 2.562485 1_555
Na36 O118 2.365881 1_555
Na36 O116 2.425267 1_555
Na36 O114 2.463747 1_555
Na36 O102 2.534793 1_555
Na36 O104 2.606131 1_555
Na36 O106 2.691051 1_555
Na37 O119 2.372049 1_555
Na37 O117 2.427879 1_555
Na37 O115 2.477787 1_555
Na37 O103 2.525373 1_555
Na37 O105 2.592013 1_555
Na37 O107 2.686963 1_555
Na38 O120 2.374070 1_555
Na38 O122 2.424885 1_555
Na38 O124 2.481494 1_555
Na38 O136 2.532727 1_555
Na38 O134 2.590959 1_555
Na38 O132 2.691639 1_555
Na39 O121 2.374343 1_555
Na39 O123 2.421333 1_555
Na39 O125 2.472354 1_555
Na39 O137 2.536624 1_555
Na39 O135 2.595231 1_555
Na39 O133 2.695147 1_555
Na40 O140 2.408165 1_555
Na40 O142 2.462189 1_555
Na40 O126 2.502124 1_555
Na40 O130 2.523093 1_555
Na40 O128 2.607590 1_555
Na40 O138 2.609478 1_555
Na41 O139 2.489610 1_555
Na41 O127 2.498508 1_555
Na41 O141 2.509895 1_555
Na41 O129 2.509924 1_555
Na41 O143 2.513227 1_555
Na41 O131 2.517934 1_555
Al0 O3 1.843190 1_555
Al0 O5 1.865429 1_565
Al0 O75 1.895082 1_555
Al0 O72 1.957804 1_655
Al0 O76 1.959231 1_665
Al0 O0 2.201156 1_665
Al1 O2 1.833490 1_555
Al1 O4 1.857911 1_565
Al1 O74 1.895051 1_555
Al1 O73 1.966808 1_555
Al1 O77 1.969733 1_565
Al1 O1 2.196739 1_565
Al2 O11 1.848712 1_565
Al2 O9 1.865588 1_555
Al2 O83 1.914086 1_555
Al2 O78 1.958343 1_665
Al2 O80 1.958916 1_655
Al2 O6 2.158544 1_665
Al3 O8 1.906665 1_555
Al3 O10 1.910684 1_565
Al3 O7 1.916066 1_565
Al3 O82 1.968154 1_555
Al3 O79 1.982663 1_565
Al3 O81 2.009839 1_555
Al4 O16 1.843911 1_655
Al4 O13 1.889133 1_555
Al4 O89 1.916610 1_555
Al4 O86 1.942947 1_665
Al4 O85 1.968064 1_565
Al4 O14 2.150162 1_665
Al5 O20 1.840969 1_655
Al5 O19 1.870254 1_545
Al5 O93 1.891167 1_555
Al5 O91 1.960076 1_545
Al5 O94 1.962822 1_655
Al5 O22 2.185807 1_645
Al6 O21 1.843212 1_555
Al6 O18 1.868217 1_545
Al6 O92 1.887821 1_555
Al6 O90 1.957076 1_545
Al6 O95 1.965226 1_555
Al6 O23 2.196447 1_545
Al7 O26 1.819192 1_555
Al7 O24 1.847079 1_555
Al7 O28 1.899510 1_555
Al7 O96 1.953411 1_555
Al7 O100 2.033268 1_555
Al7 O98 2.295656 1_555
Al8 O44 1.894203 1_555
Al8 O42 1.894833 1_555
Al8 O46 1.902769 1_555
Al8 O116 1.973395 1_555
Al8 O114 1.979489 1_555
Al8 O118 2.042574 1_555
Al9 O45 1.886286 1_555
Al9 O47 1.915641 1_555
Al9 O43 1.918443 1_555
Al9 O115 1.964664 1_555
Al9 O119 1.986099 1_555
Al9 O117 1.989324 1_555
Al10 O48 1.893432 1_554
Al10 O50 1.903864 1_554
Al10 O52 1.935701 1_554
Al10 O124 1.976705 1_555
Al10 O122 1.988087 1_555
Al10 O120 2.002809 1_555
Al11 O49 1.892564 1_554
Al11 O51 1.894258 1_554
Al11 O53 1.906055 1_554
Al11 O125 1.977499 1_555
Al11 O123 1.980888 1_555
Al11 O121 1.998816 1_555
O0 S0 1.469085 1_555
O1 S1 1.477915 1_555
O2 Si0 1.613453 1_555
O3 Si1 1.611315 1_555
O4 Si3 1.622526 1_555
O5 Si2 1.621769 1_655
O6 S2 1.476267 1_555
O7 Si4 1.602037 1_555
O8 Si6 1.610259 1_555
O9 Si5 1.619218 1_655
O10 Si7 1.619725 1_555
O11 Si8 1.606918 1_555
O12 Si7 1.690749 1_565
O12 Ta0 1.924433 1_555
O13 Si8 1.616578 1_565
O14 S2 1.467936 1_555
O15 Si4 1.657769 1_555
O15 Ta0 1.970262 1_545
O16 Si5 1.606114 1_555
O17 Si6 1.674245 1_555
O17 Ta0 1.952201 1_555
O18 Si0 1.620138 1_555
O19 Si1 1.620564 1_555
O20 Si2 1.610751 1_555
O21 Si3 1.610300 1_555
O22 S0 1.468973 1_565
O23 S1 1.462861 1_565
O24 Si9 1.615536 1_555
O25 Si10 1.669837 1_555
O25 Ta1 1.897008 1_555
O26 Si11 1.615418 1_555
O27 Si12 1.647389 1_555
O27 Ta1 2.010346 1_555
O28 Si13 1.618293 1_555
O29 Si14 1.665010 1_555
O29 Ta1 1.985083 1_555
O30 Si15 1.668182 1_555
O30 Ta2 1.883874 1_555
O31 Si16 1.668695 1_555
O31 Ta3 1.882807 1_555
O32 Si17 1.652791 1_555
O32 Ta2 2.011891 1_555
O33 Si18 1.651517 1_555
O33 Ta3 2.012485 1_555
O34 Si19 1.654467 1_555
O34 Ta2 1.939751 1_555
O35 Si20 1.653714 1_555
O35 Ta3 1.941169 1_555
O36 Si19 1.678467 1_555
O36 Ta4 1.949596 1_554
O37 Si20 1.680747 1_555
O37 Ta5 1.941330 1_554
O38 Si15 1.668247 1_555
O38 Ta4 1.959345 1_554
O39 Si16 1.670593 1_555
O39 Ta5 1.957732 1_554
O40 Si17 1.673563 1_555
O40 Ta4 1.940356 1_554
O41 Si18 1.675698 1_555
O41 Ta5 1.930843 1_554
O42 Si11 1.632198 1_555
O43 Si12 1.603044 1_555
O44 Si13 1.613933 1_555
O45 Si14 1.609876 1_555
O46 Si9 1.609198 1_555
O47 Si10 1.613658 1_555
O48 Si21 1.615455 1_555
O49 Si22 1.605124 1_555
O50 Si23 1.612272 1_555
O51 Si24 1.609336 1_555
O52 Si25 1.611418 1_555
O53 Si26 1.607413 1_555
O54 Si27 1.673815 1_555
O54 Ta6 1.940994 1_555
O55 Si28 1.678493 1_555
O55 Ta7 1.927253 1_555
O56 Si29 1.665909 1_555
O56 Ta6 1.977034 1_555
O57 Si30 1.673289 1_555
O57 Ta7 1.956286 1_555
O58 Si31 1.675288 1_555
O58 Ta6 1.944321 1_555
O59 Si32 1.684895 1_555
O59 Ta7 1.939450 1_555
O60 Si31 1.652695 1_555
O60 Ta8 1.944530 1_555
O61 Si32 1.651031 1_555
O61 Ta9 1.945720 1_555
O62 Si27 1.648320 1_555
O62 Ta8 2.011261 1_555
O63 Si28 1.649424 1_555
O63 Ta9 2.014143 1_555
O64 Si29 1.670335 1_555
O64 Ta8 1.881417 1_555
O65 Si30 1.662435 1_555
O65 Ta9 1.886600 1_555
O66 Si23 1.661913 1_555
O66 Ta10 1.924989 1_555
O67 Si24 1.678603 1_555
O67 Ta11 1.946530 1_555
O68 Si25 1.673700 1_555
O68 Ta10 1.882509 1_555
O69 Si26 1.681207 1_555
O69 Ta11 1.933352 1_555
O70 Si21 1.664730 1_555
O70 Ta10 1.987734 1_555
O71 Si22 1.674083 1_555
O71 Ta11 1.941315 1_555
O72 Si31 1.618297 1_555
O73 Si32 1.619998 1_555
O74 Si27 1.625895 1_555
O75 Si28 1.619720 1_555
O76 Si29 1.612996 1_555
O77 Si30 1.612449 1_555
O78 Si23 1.624675 1_555
O79 Si24 1.620942 1_555
O80 Si25 1.621587 1_555
O81 Si26 1.618683 1_555
O82 Si21 1.625833 1_555
O83 Si22 1.623442 1_555
O84 Si9 1.671438 1_555
O84 Ta0 2.023372 1_545
O85 Si10 1.621312 1_555
O86 Si11 1.643987 1_555
O87 Si12 1.658476 1_555
O87 Ta0 2.059315 1_545
O88 Si13 1.685352 1_555
O88 Ta0 1.999574 1_555
O89 Si14 1.624732 1_555
O90 Si15 1.611074 1_555
O91 Si16 1.610724 1_555
O92 Si17 1.622410 1_555
O93 Si18 1.621640 1_555
O94 Si19 1.618796 1_555
O95 Si20 1.617002 1_555
O96 Si7 1.619748 1_555
O97 Si8 1.666817 1_555
O97 Ta1 1.998673 1_555
O98 S2 1.487344 1_555
O99 Si4 1.646536 1_555
O99 Ta1 2.089890 1_555
O100 Si6 1.626400 1_555
O101 Si5 1.694391 1_655
O101 Ta1 1.972134 1_555
O102 Si0 1.668475 1_555
O102 Ta2 1.955294 1_555
O103 Si1 1.669136 1_555
O103 Ta3 1.955717 1_555
O104 Si3 1.691555 1_555
O104 Ta2 2.001893 1_555
O105 Si2 1.694506 1_655
O105 Ta3 1.998641 1_555
O106 S0 1.513779 1_555
O106 Ta2 2.231761 1_555
O107 S1 1.511622 1_555
O107 Ta3 2.236674 1_555
O108 Si21 1.668824 1_555
O108 Ta4 2.017256 1_555
O109 Si22 1.659754 1_555
O109 Ta5 2.031501 1_555
O110 Si24 1.664749 1_555
O110 Ta4 2.034629 1_555
O111 Si23 1.667759 1_655
O111 Ta5 2.042290 1_555
O112 Si25 1.658135 1_545
O112 Ta4 2.028764 1_555
O113 Si26 1.665757 1_545
O113 Ta5 2.030267 1_555
O114 Si27 1.614991 1_545
O115 Si28 1.615259 1_545
O116 Si29 1.610359 1_555
O117 Si30 1.607667 1_555
O118 Si32 1.611131 1_555
O119 Si31 1.618469 1_655
O120 Si19 1.615579 1_555
O121 Si20 1.614672 1_555
O122 Si16 1.608550 1_455
O123 Si15 1.609554 1_555
O124 Si17 1.616465 1_565
O125 Si18 1.614692 1_565
O126 Si11 1.705194 1_565
O126 Ta6 2.008709 1_555
O127 Si12 1.656344 1_565
O127 Ta7 2.048597 1_555
O128 Si13 1.669190 1_555
O128 Ta6 2.044819 1_555
O129 Si14 1.672750 1_555
O129 Ta7 2.038692 1_555
O130 Si10 1.657077 1_455
O130 Ta6 2.027025 1_555
O131 Si9 1.670383 1_555
O131 Ta7 2.025920 1_555
O132 S0 1.513906 1_565
O132 Ta8 2.233118 1_555
O133 S1 1.513749 1_565
O133 Ta9 2.221903 1_555
O134 Si0 1.694102 1_555
O134 Ta8 2.001406 1_555
O135 Si1 1.696483 1_555
O135 Ta9 1.996352 1_555
O136 Si2 1.668612 1_555
O136 Ta8 1.952692 1_555
O137 Si3 1.670478 1_555
O137 Ta9 1.950527 1_555
O138 S2 1.536491 1_555
O138 Ta10 2.204227 1_555
O139 Si4 1.651622 1_555
O139 Ta11 2.044145 1_555
O140 Si5 1.660374 1_555
O140 Ta10 1.966945 1_555
O141 Si6 1.671543 1_555
O141 Ta11 2.043594 1_555
O142 Si7 1.661986 1_565
O142 Ta10 2.030535 1_555
O143 Si8 1.704821 1_565
O143 Ta11 2.034371 1_555
