# generated using pymatgen
data_CeSbRh
_symmetry_space_group_name_H-M   'P 1'
_cell_length_a   4.66590310
_cell_length_b   7.43533361
_cell_length_c   7.81084026
_cell_angle_alpha   90.00000000
_cell_angle_beta   90.00000000
_cell_angle_gamma   90.00000000
_symmetry_Int_Tables_number   1
_chemical_formula_structural   CeSbRh
_chemical_formula_sum   'Ce4 Sb4 Rh4'
_cell_volume   270.97793612
_cell_formula_units_Z   4
loop_
 _symmetry_equiv_pos_site_id
 _symmetry_equiv_pos_as_xyz
  1  'x, y, z'
loop_
 _atom_site_type_symbol
 _atom_site_label
 _atom_site_symmetry_multiplicity
 _atom_site_fract_x
 _atom_site_fract_y
 _atom_site_fract_z
 _atom_site_occupancy
  Ce  Ce0  1  0.25000000  0.51579501  0.20028715  1
  Ce  Ce1  1  0.75000000  0.48420499  0.79971285  1
  Ce  Ce2  1  0.25000000  0.01579501  0.29971285  1
  Ce  Ce3  1  0.75000000  0.98420499  0.70028715  1
  Sb  Sb0  1  0.25000000  0.18537077  0.90932342  1
  Sb  Sb1  1  0.75000000  0.31462923  0.40932342  1
  Sb  Sb2  1  0.25000000  0.68537077  0.59067658  1
  Sb  Sb3  1  0.75000000  0.81462923  0.09067658  1
  Rh  Rh0  1  0.75000000  0.20354366  0.07992338  1
  Rh  Rh1  1  0.25000000  0.29645634  0.57992338  1
  Rh  Rh2  1  0.75000000  0.70354366  0.42007662  1
  Rh  Rh3  1  0.25000000  0.79645634  0.92007662  1
loop_
_geom_bond_atom_site_label_1
_geom_bond_atom_site_label_2
_geom_bond_distance
_geom_bond_site_symmetry_2
Ce0 Rh3 3.024086 1_554
Ce0 Rh2 3.215370 1_455
Ce0 Rh2 3.215370 1_555
Ce0 Sb1 3.216482 1_455
Ce0 Sb1 3.216482 1_555
Ce0 Sb2 3.299666 1_555
Ce0 Sb3 3.333563 1_555
Ce0 Sb3 3.333563 1_455
Ce0 Sb0 3.346785 1_554
Ce0 Rh1 3.384164 1_555
Ce0 Rh0 3.422979 1_555
Ce0 Rh0 3.422979 1_455
Ce1 Rh0 3.024086 1_556
Ce1 Rh1 3.215370 1_655
Ce1 Rh1 3.215370 1_555
Ce1 Sb2 3.216482 1_655
Ce1 Sb2 3.216482 1_555
Ce1 Sb1 3.299666 1_555
Ce1 Sb0 3.333563 1_555
Ce1 Sb0 3.333563 1_655
Ce1 Sb3 3.346785 1_556
Ce1 Rh2 3.384164 1_555
Ce1 Rh3 3.422979 1_655
Ce1 Rh3 3.422979 1_555
Ce2 Rh1 3.024086 1_555
Ce2 Rh0 3.215370 1_555
Ce2 Rh0 3.215370 1_455
Ce2 Sb3 3.216482 1_545
Ce2 Sb3 3.216482 1_445
Ce2 Sb0 3.299666 1_554
Ce2 Sb1 3.333563 1_455
Ce2 Sb1 3.333563 1_555
Ce2 Sb2 3.346785 1_545
Ce2 Rh3 3.384164 1_544
Ce2 Rh2 3.422979 1_545
Ce2 Rh2 3.422979 1_445
Ce3 Rh2 3.024086 1_555
Ce3 Rh3 3.215370 1_655
Ce3 Rh3 3.215370 1_555
Ce3 Sb0 3.216482 1_565
Ce3 Sb0 3.216482 1_665
Ce3 Sb3 3.299666 1_556
Ce3 Sb2 3.333563 1_655
Ce3 Sb2 3.333563 1_555
Ce3 Sb1 3.346785 1_565
Ce3 Rh0 3.384164 1_566
Ce3 Rh1 3.422979 1_665
Ce3 Rh1 3.422979 1_565
Rh0 Sb0 2.690084 1_654
Rh0 Sb0 2.690084 1_554
Rh0 Sb1 2.702217 1_555
Rh0 Sb3 2.892928 1_545
Rh1 Sb1 2.690084 1_455
Rh1 Sb1 2.690084 1_555
Rh1 Sb0 2.702217 1_555
Rh1 Sb2 2.892928 1_555
Rh2 Sb2 2.690084 1_655
Rh2 Sb2 2.690084 1_555
Rh2 Sb3 2.702217 1_555
Rh2 Sb1 2.892928 1_555
Rh3 Sb3 2.690084 1_456
Rh3 Sb3 2.690084 1_556
Rh3 Sb2 2.702217 1_555
Rh3 Sb0 2.892928 1_565
