# generated using pymatgen
data_MgTi3O6
_symmetry_space_group_name_H-M   'P 1'
_cell_length_a   5.47676286
_cell_length_b   7.85228733
_cell_length_c   2.96957828
_cell_angle_alpha   79.06862235
_cell_angle_beta   89.97489926
_cell_angle_gamma   81.45897550
_symmetry_Int_Tables_number   1
_chemical_formula_structural   MgTi3O6
_chemical_formula_sum   'Mg1 Ti3 O6'
_cell_volume   123.94864916
_cell_formula_units_Z   1
loop_
 _symmetry_equiv_pos_site_id
 _symmetry_equiv_pos_as_xyz
  1  'x, y, z'
loop_
 _atom_site_type_symbol
 _atom_site_label
 _atom_site_symmetry_multiplicity
 _atom_site_fract_x
 _atom_site_fract_y
 _atom_site_fract_z
 _atom_site_occupancy
  Mg  Mg0  1  0.79831212  0.85924303  0.56623836  1
  Ti  Ti0  1  0.54901014  0.31389288  0.33895104  1
  Ti  Ti1  1  0.42055140  0.65026816  0.66993198  1
  Ti  Ti2  1  0.10856281  0.06663826  0.96206939  1
  O  O0  1  0.83892856  0.12352160  0.43376886  1
  O  O1  1  0.67911227  0.44235717  0.77465826  1
  O  O2  1  0.61870349  0.77234797  0.10995199  1
  O  O3  1  0.36434117  0.20256950  0.89486927  1
  O  O4  1  0.27973830  0.54740665  0.22176894  1
  O  O5  1  0.16557075  0.87653077  0.55744291  1
loop_
_geom_bond_atom_site_label_1
_geom_bond_atom_site_label_2
_geom_bond_distance
_geom_bond_site_symmetry_2
Mg0 O2 1.954548 1_556
Mg0 O2 1.954565 1_555
Mg0 O5 2.035806 1_655
Mg0 O0 2.082806 1_565
O0 Ti0 1.992672 1_555
O0 Ti2 2.093271 1_655
O0 Ti2 2.093292 1_654
O1 Ti1 1.971908 1_555
O1 Ti0 1.976014 1_556
O1 Ti0 1.977036 1_555
O2 Ti1 2.136529 1_555
O2 Ti1 2.142280 1_554
O3 Ti2 1.872045 1_555
O3 Ti0 2.055760 1_555
O3 Ti0 2.055986 1_556
O4 Ti1 1.900502 1_555
O4 Ti1 1.901173 1_554
O4 Ti0 2.147867 1_555
O5 Ti1 2.063165 1_555
O5 Ti2 2.076331 1_565
O5 Ti2 2.076725 1_564
