# generated using pymatgen
data_PtPb4
_symmetry_space_group_name_H-M   'P 1'
_cell_length_a   6.08984512
_cell_length_b   6.73755872
_cell_length_c   6.73755872
_cell_angle_alpha   90.00000000
_cell_angle_beta   90.00000000
_cell_angle_gamma   90.00000000
_symmetry_Int_Tables_number   1
_chemical_formula_structural   PtPb4
_chemical_formula_sum   'Pt2 Pb8'
_cell_volume   276.44667708
_cell_formula_units_Z   2
loop_
 _symmetry_equiv_pos_site_id
 _symmetry_equiv_pos_as_xyz
  1  'x, y, z'
loop_
 _atom_site_type_symbol
 _atom_site_label
 _atom_site_symmetry_multiplicity
 _atom_site_fract_x
 _atom_site_fract_y
 _atom_site_fract_z
 _atom_site_occupancy
  Pt  Pt0  1  0.00000000  0.75000000  0.75000000  1
  Pt  Pt1  1  0.00000000  0.25000000  0.25000000  1
  Pb  Pb0  1  0.25177775  0.92385007  0.07614993  1
  Pb  Pb1  1  0.25177775  0.07614993  0.57614993  1
  Pb  Pb2  1  0.74822225  0.42385007  0.57614993  1
  Pb  Pb3  1  0.74822225  0.07614993  0.92385007  1
  Pb  Pb4  1  0.74822225  0.92385007  0.42385007  1
  Pb  Pb5  1  0.74822225  0.57614993  0.07614993  1
  Pb  Pb6  1  0.25177775  0.57614993  0.42385007  1
  Pb  Pb7  1  0.25177775  0.42385007  0.92385007  1
loop_
_geom_bond_atom_site_label_1
_geom_bond_atom_site_label_2
_geom_bond_distance
_geom_bond_site_symmetry_2
Pb0 Pt1 2.924342 1_565
Pb0 Pt0 2.924342 1_554
Pb0 Pb6 3.313008 1_555
Pb0 Pb3 3.353512 1_564
Pb0 Pb3 3.392604 1_464
Pb0 Pb1 3.521593 1_564
Pb0 Pb7 3.521593 1_554
Pb0 Pb1 3.521593 1_565
Pb0 Pb7 3.521593 1_564
Pb1 Pt1 2.924342 1_555
Pb1 Pt0 2.924342 1_545
Pb1 Pb7 3.313008 1_555
Pb1 Pb4 3.353512 1_545
Pb1 Pb4 3.392604 1_445
Pb1 Pb6 3.521593 1_545
Pb1 Pb6 3.521593 1_555
Pb2 Pt0 2.924342 1_655
Pb2 Pt1 2.924342 1_655
Pb2 Pb3 3.313008 1_555
Pb2 Pb6 3.353512 1_555
Pb2 Pb6 3.392604 1_655
Pb2 Pb5 3.521593 1_556
Pb2 Pb4 3.521593 1_555
Pb2 Pb4 3.521593 1_545
Pb2 Pb5 3.521593 1_555
Pb3 Pt1 2.924342 1_656
Pb3 Pt0 2.924342 1_645
Pb3 Pb4 3.521593 1_545
Pb3 Pb5 3.521593 1_546
Pb3 Pb5 3.521593 1_556
Pb3 Pb4 3.521593 1_546
Pb4 Pt0 2.924342 1_655
Pb4 Pt1 2.924342 1_665
Pb4 Pb5 3.313008 1_555
Pb5 Pt1 2.924342 1_655
Pb5 Pt0 2.924342 1_654
Pb5 Pb7 3.353512 1_554
Pb5 Pb7 3.392604 1_654
Pb6 Pt0 2.924342 1_555
Pb6 Pt1 2.924342 1_555
Pb6 Pb7 3.521593 1_555
Pb6 Pb7 3.521593 1_554
Pb7 Pt0 2.924342 1_555
Pb7 Pt1 2.924342 1_556
