# generated using pymatgen
data_Na3YSi2GeSO12
_symmetry_space_group_name_H-M   'P 1'
_cell_length_a   9.19041710
_cell_length_b   9.19041675
_cell_length_c   22.57757325
_cell_angle_alpha   85.82160467
_cell_angle_beta   94.17839534
_cell_angle_gamma   118.08029417
_symmetry_Int_Tables_number   1
_chemical_formula_structural   Na3YSi2GeSO12
_chemical_formula_sum   'Na18 Y6 Si12 Ge6 S6 O72'
_cell_volume   1676.42866186
_cell_formula_units_Z   6
loop_
 _symmetry_equiv_pos_site_id
 _symmetry_equiv_pos_as_xyz
  1  'x, y, z'
loop_
 _atom_site_type_symbol
 _atom_site_label
 _atom_site_symmetry_multiplicity
 _atom_site_fract_x
 _atom_site_fract_y
 _atom_site_fract_z
 _atom_site_occupancy
  Na  Na0  1  0.64757162  0.00408765  0.24144870  1
  Na  Na1  1  0.99651745  0.62913302  0.25207509  1
  Na  Na2  1  0.99591235  0.35242838  0.74144870  1
  Na  Na3  1  0.37086698  0.00348255  0.75207509  1
  Na  Na4  1  0.31423862  0.33742065  0.57478170  1
  Na  Na5  1  0.66318445  0.96246602  0.58540809  1
  Na  Na6  1  0.66257935  0.68576138  0.07478170  1
  Na  Na7  1  0.03753398  0.33681555  0.08540809  1
  Na  Na8  1  0.98090462  0.67075465  0.90811570  1
  Na  Na9  1  0.32985045  0.29580002  0.91874209  1
  Na  Na10  1  0.32924535  0.01909538  0.40811570  1
  Na  Na11  1  0.70419998  0.67014955  0.41874209  1
  Na  Na12  1  0.99486676  0.01718085  0.50202911  1
  Na  Na13  1  0.98281915  0.00513324  0.00202911  1
  Na  Na14  1  0.66153376  0.35051385  0.83536211  1
  Na  Na15  1  0.64948615  0.33846624  0.33536211  1
  Na  Na16  1  0.32819976  0.68384785  0.16869611  1
  Na  Na17  1  0.31615215  0.67180024  0.66869611  1
  Y  Y0  1  0.00601748  0.01303102  0.35337528  1
  Y  Y1  1  0.98696898  0.99398252  0.85337528  1
  Y  Y2  1  0.67268448  0.34636402  0.68670828  1
  Y  Y3  1  0.65363598  0.32731552  0.18670828  1
  Y  Y4  1  0.33935048  0.67969802  0.02004228  1
  Y  Y5  1  0.32030198  0.66064952  0.52004228  1
  Si  Si0  1  0.28184059  0.97932494  0.25410984  1
  Si  Si1  1  0.70149579  0.70224900  0.25291699  1
  Si  Si2  1  0.29775100  0.29850421  0.75291699  1
  Si  Si3  1  0.02067506  0.71815941  0.75410984  1
  Si  Si4  1  0.94850759  0.31265794  0.58744284  1
  Si  Si5  1  0.36816279  0.03558200  0.58624999  1
  Si  Si6  1  0.96441800  0.63183721  0.08624999  1
  Si  Si7  1  0.68734206  0.05149241  0.08744284  1
  Si  Si8  1  0.61517359  0.64599194  0.92077684  1
  Si  Si9  1  0.03482879  0.36891600  0.91958399  1
  Si  Si10  1  0.63108400  0.96517121  0.41958399  1
  Si  Si11  1  0.35400806  0.38482641  0.42077684  1
  Ge  Ge0  1  0.06407868  0.03590594  0.64724067  1
  Ge  Ge1  1  0.96409406  0.93592132  0.14724067  1
  Ge  Ge2  1  0.73074568  0.36923894  0.98057367  1
  Ge  Ge3  1  0.63076106  0.26925432  0.48057367  1
  Ge  Ge4  1  0.39741168  0.70257294  0.31390767  1
  Ge  Ge5  1  0.29742706  0.60258832  0.81390767  1
  S  S0  1  0.01932344  0.31700458  0.24492249  1
  S  S1  1  0.68299542  0.98067656  0.74492249  1
  S  S2  1  0.68599044  0.65033758  0.57825549  1
  S  S3  1  0.34966242  0.31400956  0.07825549  1
  S  S4  1  0.35265644  0.98367158  0.91158949  1
  S  S5  1  0.01632842  0.64734356  0.41158949  1
  O  O0  1  0.20944609  0.00219074  0.31297809  1
  O  O1  1  0.80808446  0.79859429  0.30973593  1
  O  O2  1  0.01157571  0.21544526  0.29938115  1
  O  O3  1  0.20140571  0.19191554  0.80973593  1
  O  O4  1  0.99780926  0.79055391  0.81297809  1
  O  O5  1  0.78455474  -0.01157571  0.79938115  1
  O  O6  1  0.76540692  0.97867067  0.69157693  1
  O  O7  1  0.18377908  0.21772623  0.68970177  1
  O  O8  1  0.05718132  0.86467916  0.69566734  1
  O  O9  1  0.78227377  0.81622092  0.18970177  1
  O  O10  1  0.02132933  0.23459308  0.19157693  1
  O  O11  1  0.13532084  0.94281868  0.19566734  1
  O  O12  1  0.87611309  0.33552374  0.64631109  1
  O  O13  1  0.47475146  0.13192729  0.64306893  1
  O  O14  1  0.67824271  0.54877826  0.63271415  1
  O  O15  1  0.86807271  0.52524854  0.14306893  1
  O  O16  1  0.66447626  0.12388691  0.14631109  1
  O  O17  1  0.45122174  0.32175729  0.13271415  1
  O  O18  1  0.43207392  0.31200367  0.02490993  1
  O  O19  1  0.85044608  0.55105923  0.02303477  1
  O  O20  1  0.72384832  0.19801216  0.02900034  1
  O  O21  1  0.44894077  0.14955392  0.52303477  1
  O  O22  1  0.68799633  0.56792608  0.52490993  1
  O  O23  1  0.80198784  0.27615168  0.52900034  1
  O  O24  1  0.54277909  0.66885774  0.97964509  1
  O  O25  1  0.14141746  0.46526129  0.97640293  1
  O  O26  1  0.34490871  0.88211226  0.96604815  1
  O  O27  1  0.53473871  0.85858254  0.47640293  1
  O  O28  1  0.33114226  0.45722091  0.47964509  1
  O  O29  1  0.11788774  0.65509129  0.46604815  1
  O  O30  1  0.09873992  0.64533767  0.35824393  1
  O  O31  1  0.51711208  0.88439323  0.35636877  1
  O  O32  1  0.39051432  0.53134616  0.36233434  1
  O  O33  1  0.11560677  0.48288792  0.85636877  1
  O  O34  1  0.35466233  0.90126008  0.85824393  1
  O  O35  1  0.46865384  0.60948568  0.86233434  1
  O  O36  1  0.00209638  0.80391874  0.41431978  1
  O  O37  1  0.81365194  0.98422100  0.41719891  1
  O  O38  1  0.20998967  0.19930081  0.41009683  1
  O  O39  1  0.01577900  0.18634806  0.91719891  1
  O  O40  1  0.19608126  0.99790362  0.91431978  1
  O  O41  1  0.80069919  0.79001033  0.91009683  1
  O  O42  1  0.95943404  0.12921216  0.59405106  1
  O  O43  1  0.18628667  0.04075785  0.58604337  1
  O  O44  1  0.82933776  0.81534793  0.58113068  1
  O  O45  1  0.95924215  0.81371333  0.08604337  1
  O  O46  1  0.87078784  0.04056596  0.09405106  1
  O  O47  1  0.18465207  0.17066224  0.08113068  1
  O  O48  1  0.66876338  0.13725174  0.74765278  1
  O  O49  1  0.48031894  0.31755400  0.75053191  1
  O  O50  1  0.87665667  0.53263381  0.74342983  1
  O  O51  1  0.68244600  0.51968106  0.25053191  1
  O  O52  1  0.86274826  0.33123662  0.24765278  1
  O  O53  1  0.46736619  0.12334333  0.24342983  1
  O  O54  1  0.62610104  0.46254516  0.92738406  1
  O  O55  1  0.85295367  0.37409085  0.91937637  1
  O  O56  1  0.49600476  0.14868093  0.91446368  1
  O  O57  1  0.62590915  0.14704633  0.41937637  1
  O  O58  1  0.53745484  0.37389896  0.42738406  1
  O  O59  1  0.85131907  0.50399524  0.41446368  1
  O  O60  1  0.33542938  0.47058574  0.08098678  1
  O  O61  1  0.14698494  0.65088800  0.08386591  1
  O  O62  1  0.54332267  0.86596781  0.07676383  1
  O  O63  1  0.34911200  0.85301506  0.58386591  1
  O  O64  1  0.52941426  0.66457062  0.58098678  1
  O  O65  1  0.13403219  0.45667733  0.57676383  1
  O  O66  1  0.29276704  0.79587916  0.26071806  1
  O  O67  1  0.51961967  0.70742485  0.25271037  1
  O  O68  1  0.16267076  0.48201493  0.24779768  1
  O  O69  1  0.29257515  0.48038033  0.75271037  1
  O  O70  1  0.20412084  0.70723296  0.76071806  1
  O  O71  1  0.51798507  0.83732924  0.74779768  1
loop_
_geom_bond_atom_site_label_1
_geom_bond_atom_site_label_2
_geom_bond_distance
_geom_bond_site_symmetry_2
Na0 O16 2.322309 1_555
Na0 O53 2.381782 1_555
Na0 O67 2.409413 1_545
Na0 O52 2.719145 1_555
Na1 O66 2.416113 1_655
Na1 O52 2.422847 1_555
Na1 O68 2.480611 1_655
Na1 O30 2.498539 1_655
Na1 O51 2.569376 1_555
Na1 O15 2.687014 1_555
Na1 O11 2.792834 1_655
Na2 O12 2.322309 1_555
Na2 O50 2.381782 1_555
Na2 O69 2.409413 1_655
Na2 O48 2.719145 1_555
Na3 O70 2.416113 1_545
Na3 O48 2.422847 1_555
Na3 O71 2.480611 1_545
Na3 O34 2.498539 1_545
Na3 O49 2.569376 1_555
Na3 O13 2.687014 1_555
Na3 O8 2.792834 1_545
Na4 O28 2.322294 1_555
Na4 O65 2.381800 1_555
Na4 O43 2.409413 1_555
Na4 O64 2.719152 1_555
Na5 O42 2.416113 1_565
Na5 O64 2.422836 1_555
Na5 O44 2.480611 1_555
Na5 O6 2.498539 1_555
Na5 O63 2.569386 1_555
Na5 O27 2.686993 1_555
Na5 O23 2.792834 1_565
Na6 O24 2.322294 1_554
Na6 O62 2.381800 1_555
Na6 O45 2.409413 1_555
Na6 O60 2.719152 1_555
Na7 O46 2.416113 1_455
Na7 O60 2.422836 1_555
Na7 O47 2.480611 1_555
Na7 O10 2.498539 1_555
Na7 O61 2.569386 1_555
Na7 O25 2.686993 1_554
Na7 O20 2.792834 1_455
Na8 O4 2.322309 1_555
Na8 O41 2.381782 1_555
Na8 O55 2.409420 1_555
Na8 O40 2.719145 1_655
Na9 O54 2.416118 1_555
Na9 O40 2.422847 1_545
Na9 O56 2.480630 1_555
Na9 O18 2.498521 1_556
Na9 O39 2.569376 1_555
Na9 O3 2.687014 1_555
Na9 O35 2.792834 1_555
Na10 O0 2.322309 1_555
Na10 O38 2.381782 1_555
Na10 O57 2.409420 1_555
Na10 O36 2.719145 1_545
Na11 O58 2.416118 1_555
Na11 O36 2.422847 1_655
Na11 O59 2.480630 1_555
Na11 O22 2.498521 1_555
Na11 O37 2.569376 1_555
Na11 O1 2.687014 1_555
Na11 O32 2.792834 1_555
Na12 O37 2.382951 1_545
Na12 O43 2.440202 1_655
Na12 O44 2.490218 1_545
Na12 O42 2.491720 1_555
Na12 O38 2.827522 1_655
Na12 O36 2.911133 1_645
Na13 O39 2.382951 1_654
Na13 O45 2.440202 1_545
Na13 O47 2.490218 1_655
Na13 O46 2.491720 1_555
Na13 O41 2.827522 1_544
Na13 O40 2.911133 1_644
Na14 O49 2.382951 1_555
Na14 O55 2.440202 1_555
Na14 O56 2.490218 1_555
Na14 O54 2.491720 1_555
Na14 O50 2.827522 1_555
Na14 O48 2.911133 1_555
Na15 O51 2.382951 1_555
Na15 O57 2.440202 1_555
Na15 O59 2.490218 1_555
Na15 O58 2.491720 1_555
Na15 O53 2.827522 1_555
Na15 O52 2.911133 1_555
Na16 O61 2.382951 1_555
Na16 O67 2.440202 1_555
Na16 O68 2.490218 1_555
Na16 O66 2.491720 1_555
Na16 O62 2.827522 1_555
Na16 O60 2.911133 1_555
Na17 O63 2.382951 1_555
Na17 O69 2.440202 1_555
Na17 O71 2.490218 1_555
Na17 O70 2.491720 1_555
Na17 O65 2.827522 1_555
Na17 O64 2.911133 1_555
Ge0 O7 1.808506 1_555
Ge0 O8 1.827914 1_545
Ge0 O43 1.828253 1_555
Ge0 O42 1.886911 1_455
Ge1 O9 1.808506 1_555
Ge1 O11 1.827915 1_655
Ge1 O45 1.828253 1_555
Ge1 O46 1.886911 1_565
Ge2 O19 1.808506 1_556
Ge2 O20 1.827914 1_556
Ge2 O55 1.828253 1_555
Ge2 O54 1.886911 1_555
Ge3 O21 1.808506 1_555
Ge3 O23 1.827915 1_555
Ge3 O57 1.828253 1_555
Ge3 O58 1.886911 1_555
Ge4 O31 1.808506 1_555
Ge4 O32 1.827914 1_555
Ge4 O67 1.828253 1_555
Ge4 O66 1.886911 1_555
Ge5 O33 1.808506 1_555
Ge5 O35 1.827915 1_555
Ge5 O69 1.828253 1_555
Ge5 O70 1.886911 1_555
O0 Si0 1.598292 1_545
O0 Y0 2.185008 1_555
O1 Si1 1.598476 1_555
O1 Y0 2.193297 1_665
O2 S0 1.473427 1_555
O2 Y0 2.130367 1_555
O3 Si2 1.598476 1_555
O3 Y1 2.193297 1_445
O4 Si3 1.598292 1_655
O4 Y1 2.185008 1_555
O5 S1 1.473427 1_545
O5 Y1 2.130367 1_545
O6 S1 1.474419 1_555
O7 Si2 1.699945 1_555
O8 Si3 1.745612 1_555
O9 Si1 1.699945 1_555
O10 S0 1.474419 1_555
O11 Si0 1.745612 1_555
O12 Si4 1.598292 1_555
O12 Y2 2.185008 1_555
O13 Si5 1.598476 1_555
O13 Y2 2.193297 1_555
O14 S2 1.473427 1_555
O14 Y2 2.130367 1_555
O15 Si6 1.598476 1_555
O15 Y3 2.193297 1_555
O16 Si7 1.598292 1_555
O16 Y3 2.185008 1_555
O17 S3 1.473427 1_555
O17 Y3 2.130367 1_555
O18 S3 1.474419 1_555
O19 Si6 1.699945 1_555
O20 Si7 1.745612 1_555
O21 Si5 1.699945 1_555
O22 S2 1.474419 1_555
O23 Si4 1.745612 1_555
O24 Si8 1.598292 1_555
O24 Y4 2.185008 1_556
O25 Si9 1.598476 1_555
O25 Y4 2.193297 1_556
O26 S4 1.473427 1_555
O26 Y4 2.130367 1_556
O27 Si10 1.598476 1_555
O27 Y5 2.193297 1_555
O28 Si11 1.598292 1_555
O28 Y5 2.185008 1_555
O29 S5 1.473427 1_555
O29 Y5 2.130367 1_555
O30 S5 1.474419 1_555
O31 Si10 1.699945 1_555
O32 Si11 1.745612 1_555
O33 Si9 1.699945 1_555
O34 S4 1.474419 1_555
O35 Si8 1.745612 1_555
O36 S5 1.510926 1_555
O36 Y0 2.268197 1_565
O37 Si10 1.607503 1_555
O37 Y0 2.268708 1_665
O38 Si11 1.614333 1_555
O38 Y0 2.243488 1_555
O39 Si9 1.607502 1_555
O39 Y1 2.268708 1_445
O40 S4 1.510926 1_555
O40 Y1 2.268197 1_455
O41 Si8 1.614333 1_555
O41 Y1 2.243488 1_555
O42 Si4 1.730691 1_555
O43 Si5 1.694090 1_555
O44 S2 1.469920 1_555
O45 Si6 1.694089 1_555
O46 Si7 1.730691 1_555
O47 S3 1.469920 1_555
O48 S1 1.510926 1_545
O48 Y2 2.268197 1_555
O49 Si2 1.607503 1_555
O49 Y2 2.268708 1_555
O50 Si3 1.614333 1_655
O50 Y2 2.243488 1_555
O51 Si1 1.607502 1_555
O51 Y3 2.268708 1_555
O52 S0 1.510926 1_655
O52 Y3 2.268197 1_555
O53 Si0 1.614333 1_545
O53 Y3 2.243488 1_555
O54 Si8 1.730705 1_555
O55 Si9 1.694074 1_655
O56 S4 1.469917 1_545
O57 Si10 1.694074 1_545
O58 Si11 1.730705 1_555
O59 S5 1.469917 1_655
O60 S3 1.510942 1_555
O60 Y4 2.268197 1_555
O61 Si6 1.607488 1_455
O61 Y4 2.268708 1_555
O62 Si7 1.614326 1_565
O62 Y4 2.243488 1_555
O63 Si5 1.607487 1_565
O63 Y5 2.268708 1_555
O64 S2 1.510942 1_555
O64 Y5 2.268197 1_555
O65 Si4 1.614326 1_455
O65 Y5 2.243488 1_555
O66 Si0 1.730691 1_555
O67 Si1 1.694090 1_555
O68 S0 1.469920 1_555
O69 Si2 1.694089 1_555
O70 Si3 1.730691 1_555
O71 S1 1.469920 1_555
