# generated using pymatgen
data_NaSn2Cl5
_symmetry_space_group_name_H-M   'P 1'
_cell_length_a   8.35463143
_cell_length_b   8.73591580
_cell_length_c   11.96988825
_cell_angle_alpha   90.00000000
_cell_angle_beta   90.00000000
_cell_angle_gamma   90.00000000
_symmetry_Int_Tables_number   1
_chemical_formula_structural   NaSn2Cl5
_chemical_formula_sum   'Na4 Sn8 Cl20'
_cell_volume   873.62656374
_cell_formula_units_Z   4
loop_
 _symmetry_equiv_pos_site_id
 _symmetry_equiv_pos_as_xyz
  1  'x, y, z'
loop_
 _atom_site_type_symbol
 _atom_site_label
 _atom_site_symmetry_multiplicity
 _atom_site_fract_x
 _atom_site_fract_y
 _atom_site_fract_z
 _atom_site_occupancy
  Na  Na0  1  -0.00000000  0.25236777  0.50000000  1
  Na  Na1  1  0.50000000  0.24763223  -0.00000000  1
  Na  Na2  1  -0.00000000  0.74763223  0.50000000  1
  Na  Na3  1  0.50000000  0.75236777  -0.00000000  1
  Sn  Sn0  1  0.95256666  -0.00000000  0.83165828  1
  Sn  Sn1  1  0.04805081  0.50000000  0.17349636  1
  Sn  Sn2  1  0.54805081  -0.00000000  0.32650364  1
  Sn  Sn3  1  0.95194919  0.50000000  0.82650364  1
  Sn  Sn4  1  0.45194919  -0.00000000  0.67349636  1
  Sn  Sn5  1  0.54743334  0.50000000  0.33165828  1
  Sn  Sn6  1  0.04743334  -0.00000000  0.16834172  1
  Sn  Sn7  1  0.45256666  0.50000000  0.66834172  1
  Cl  Cl0  1  0.16327222  0.50000000  0.59974453  1
  Cl  Cl1  1  0.50000000  0.70216652  0.50000000  1
  Cl  Cl2  1  -0.00000000  0.79783348  -0.00000000  1
  Cl  Cl3  1  0.50000000  0.29783348  0.50000000  1
  Cl  Cl4  1  -0.00000000  0.20216652  -0.00000000  1
  Cl  Cl5  1  0.83672778  0.50000000  0.40025547  1
  Cl  Cl6  1  0.33672778  -0.00000000  0.09974453  1
  Cl  Cl7  1  0.16985683  0.71731565  0.29354960  1
  Cl  Cl8  1  0.83014317  0.28268435  0.70645040  1
  Cl  Cl9  1  0.33014317  0.21731565  0.79354960  1
  Cl  Cl10  1  0.16985683  0.28268435  0.29354960  1
  Cl  Cl11  1  0.66985683  0.21731565  0.20645040  1
  Cl  Cl12  1  0.83014317  0.71731565  0.70645040  1
  Cl  Cl13  1  0.66985683  0.78268435  0.20645040  1
  Cl  Cl14  1  0.68564219  0.50000000  0.93525334  1
  Cl  Cl15  1  0.33014317  0.78268435  0.79354960  1
  Cl  Cl16  1  0.81435781  -0.00000000  0.43525334  1
  Cl  Cl17  1  0.31435781  0.50000000  0.06474666  1
  Cl  Cl18  1  0.18564219  -0.00000000  0.56474666  1
  Cl  Cl19  1  0.66327222  -0.00000000  0.90025547  1
loop_
_geom_bond_atom_site_label_1
_geom_bond_atom_site_label_2
_geom_bond_distance
_geom_bond_site_symmetry_2
Cl0 Sn7 2.552616 1_555
Cl0 Na0 2.822415 1_555
Cl0 Na2 2.822415 1_555
Cl1 Sn5 2.708605 1_555
Cl1 Sn7 2.708605 1_555
Cl2 Sn0 2.708605 1_464
Cl2 Sn6 2.708605 1_565
Cl3 Sn5 2.708605 1_555
Cl3 Sn7 2.708605 1_555
Cl4 Sn0 2.708605 1_454
Cl4 Sn6 2.708605 1_555
Cl5 Sn5 2.552616 1_555
Cl5 Na2 2.822415 1_655
Cl5 Na0 2.822415 1_655
Cl6 Sn6 2.552616 1_555
Cl6 Na3 2.822415 1_545
Cl6 Na1 2.822415 1_555
Cl7 Sn1 2.589354 1_555
Cl7 Na2 2.861946 1_555
Cl7 Sn6 3.064435 1_565
Cl8 Sn3 2.589354 1_555
Cl8 Na0 2.861946 1_655
Cl8 Sn0 3.064435 1_555
Cl9 Sn4 2.589354 1_555
Cl9 Na1 2.861946 1_556
Cl9 Sn7 3.064435 1_555
Cl10 Sn1 2.589354 1_555
Cl10 Na0 2.861946 1_555
Cl10 Sn6 3.064435 1_555
Cl11 Sn2 2.589354 1_555
Cl11 Na1 2.861946 1_555
Cl11 Sn5 3.064435 1_555
Cl12 Sn3 2.589354 1_555
Cl12 Na2 2.861946 1_655
Cl12 Sn0 3.064435 1_565
Cl13 Sn2 2.589354 1_565
Cl13 Na3 2.861946 1_555
Cl13 Sn5 3.064435 1_555
Cl14 Sn3 2.577721 1_555
Cl14 Na3 2.804763 1_556
Cl14 Na1 2.804763 1_556
Cl15 Sn4 2.589354 1_565
Cl15 Na3 2.861946 1_556
Cl15 Sn7 3.064435 1_555
Cl16 Sn2 2.577721 1_555
Cl16 Na0 2.804763 1_655
Cl16 Na2 2.804763 1_645
Cl17 Sn1 2.577721 1_555
Cl17 Na3 2.804763 1_555
Cl17 Na1 2.804763 1_555
Cl18 Sn4 2.577721 1_555
Cl18 Na0 2.804763 1_555
Cl18 Na2 2.804763 1_545
Cl19 Sn0 2.552616 1_555
Cl19 Na3 2.822415 1_546
Cl19 Na1 2.822415 1_556
