# generated using pymatgen
data_Lu(BH4)3
_symmetry_space_group_name_H-M   'P 1'
_cell_length_a   10.76574200
_cell_length_b   10.76574200
_cell_length_c   10.76574200
_cell_angle_alpha   90.00000000
_cell_angle_beta   90.00000000
_cell_angle_gamma   90.00000000
_symmetry_Int_Tables_number   1
_chemical_formula_structural   Lu(BH4)3
_chemical_formula_sum   'Lu8 B24 H96'
_cell_volume   1247.76242542
_cell_formula_units_Z   8
loop_
 _symmetry_equiv_pos_site_id
 _symmetry_equiv_pos_as_xyz
  1  'x, y, z'
loop_
 _atom_site_type_symbol
 _atom_site_label
 _atom_site_symmetry_multiplicity
 _atom_site_fract_x
 _atom_site_fract_y
 _atom_site_fract_z
 _atom_site_occupancy
  Lu  Lu0  1  0.00000000  0.00000000  0.00000000  1
  Lu  Lu1  1  0.00000000  0.00000000  0.50000000  1
  Lu  Lu2  1  0.50000000  0.50000000  0.00000000  1
  Lu  Lu3  1  0.50000000  0.50000000  0.50000000  1
  Lu  Lu4  1  0.50000000  0.00000000  0.50000000  1
  Lu  Lu5  1  0.50000000  0.00000000  0.00000000  1
  Lu  Lu6  1  0.00000000  0.50000000  0.50000000  1
  Lu  Lu7  1  0.00000000  0.50000000  0.00000000  1
  B  B0  1  0.00000000  0.00000000  0.25000000  1
  B  B1  1  0.00000000  0.00000000  0.75000000  1
  B  B2  1  0.00000000  0.25000000  0.00000000  1
  B  B3  1  0.00000000  0.75000000  0.00000000  1
  B  B4  1  0.25000000  0.00000000  0.00000000  1
  B  B5  1  0.75000000  0.00000000  0.00000000  1
  B  B6  1  0.25000000  0.00000000  0.50000000  1
  B  B7  1  0.75000000  0.00000000  0.50000000  1
  B  B8  1  0.00000000  0.25000000  0.50000000  1
  B  B9  1  0.00000000  0.75000000  0.50000000  1
  B  B10  1  0.50000000  0.50000000  0.25000000  1
  B  B11  1  0.50000000  0.50000000  0.75000000  1
  B  B12  1  0.50000000  0.75000000  0.00000000  1
  B  B13  1  0.50000000  0.25000000  0.00000000  1
  B  B14  1  0.75000000  0.50000000  0.00000000  1
  B  B15  1  0.25000000  0.50000000  0.00000000  1
  B  B16  1  0.75000000  0.50000000  0.50000000  1
  B  B17  1  0.25000000  0.50000000  0.50000000  1
  B  B18  1  0.50000000  0.75000000  0.50000000  1
  B  B19  1  0.50000000  0.25000000  0.50000000  1
  B  B20  1  0.50000000  0.00000000  0.75000000  1
  B  B21  1  0.50000000  0.00000000  0.25000000  1
  B  B22  1  0.00000000  0.50000000  0.75000000  1
  B  B23  1  0.00000000  0.50000000  0.25000000  1
  H  H0  1  0.00000000  0.40468900  0.31286500  1
  H  H1  1  0.00000000  0.59531100  0.68713500  1
  H  H2  1  0.00000000  0.40468900  0.68713500  1
  H  H3  1  0.00000000  0.59531100  0.31286500  1
  H  H4  1  0.40468900  0.31286500  0.00000000  1
  H  H5  1  0.59531100  0.68713500  0.00000000  1
  H  H6  1  0.40468900  0.68713500  0.00000000  1
  H  H7  1  0.59531100  0.31286500  0.00000000  1
  H  H8  1  0.31286500  0.00000000  0.40468900  1
  H  H9  1  0.68713500  0.00000000  0.59531100  1
  H  H10  1  0.68713500  0.00000000  0.40468900  1
  H  H11  1  0.31286500  0.00000000  0.59531100  1
  H  H12  1  0.40468900  0.00000000  0.81286500  1
  H  H13  1  0.59531100  0.00000000  0.18713500  1
  H  H14  1  0.40468900  0.00000000  0.18713500  1
  H  H15  1  0.59531100  0.00000000  0.81286500  1
  H  H16  1  0.31286500  0.40468900  0.50000000  1
  H  H17  1  0.68713500  0.59531100  0.50000000  1
  H  H18  1  0.68713500  0.40468900  0.50000000  1
  H  H19  1  0.31286500  0.59531100  0.50000000  1
  H  H20  1  0.00000000  0.31286500  0.90468900  1
  H  H21  1  0.00000000  0.68713500  0.09531100  1
  H  H22  1  0.00000000  0.68713500  0.90468900  1
  H  H23  1  0.00000000  0.31286500  0.09531100  1
  H  H24  1  0.50000000  0.90468900  0.31286500  1
  H  H25  1  0.50000000  0.09531100  0.68713500  1
  H  H26  1  0.50000000  0.90468900  0.68713500  1
  H  H27  1  0.50000000  0.09531100  0.31286500  1
  H  H28  1  0.90468900  0.81286500  0.00000000  1
  H  H29  1  0.09531100  0.18713500  0.00000000  1
  H  H30  1  0.90468900  0.18713500  0.00000000  1
  H  H31  1  0.09531100  0.81286500  0.00000000  1
  H  H32  1  0.81286500  0.50000000  0.40468900  1
  H  H33  1  0.18713500  0.50000000  0.59531100  1
  H  H34  1  0.18713500  0.50000000  0.40468900  1
  H  H35  1  0.81286500  0.50000000  0.59531100  1
  H  H36  1  0.90468900  0.50000000  0.81286500  1
  H  H37  1  0.09531100  0.50000000  0.18713500  1
  H  H38  1  0.90468900  0.50000000  0.18713500  1
  H  H39  1  0.09531100  0.50000000  0.81286500  1
  H  H40  1  0.81286500  0.90468900  0.50000000  1
  H  H41  1  0.18713500  0.09531100  0.50000000  1
  H  H42  1  0.18713500  0.90468900  0.50000000  1
  H  H43  1  0.81286500  0.09531100  0.50000000  1
  H  H44  1  0.50000000  0.81286500  0.90468900  1
  H  H45  1  0.50000000  0.18713500  0.09531100  1
  H  H46  1  0.50000000  0.18713500  0.90468900  1
  H  H47  1  0.50000000  0.81286500  0.09531100  1
  H  H48  1  0.50000000  0.40468900  0.81286500  1
  H  H49  1  0.50000000  0.59531100  0.18713500  1
  H  H50  1  0.50000000  0.40468900  0.18713500  1
  H  H51  1  0.50000000  0.59531100  0.81286500  1
  H  H52  1  0.90468900  0.31286500  0.50000000  1
  H  H53  1  0.09531100  0.68713500  0.50000000  1
  H  H54  1  0.90468900  0.68713500  0.50000000  1
  H  H55  1  0.09531100  0.31286500  0.50000000  1
  H  H56  1  0.81286500  0.00000000  0.90468900  1
  H  H57  1  0.18713500  0.00000000  0.09531100  1
  H  H58  1  0.18713500  0.00000000  0.90468900  1
  H  H59  1  0.81286500  0.00000000  0.09531100  1
  H  H60  1  0.90468900  0.00000000  0.31286500  1
  H  H61  1  0.09531100  0.00000000  0.68713500  1
  H  H62  1  0.90468900  0.00000000  0.68713500  1
  H  H63  1  0.09531100  0.00000000  0.31286500  1
  H  H64  1  0.81286500  0.40468900  0.00000000  1
  H  H65  1  0.18713500  0.59531100  0.00000000  1
  H  H66  1  0.18713500  0.40468900  0.00000000  1
  H  H67  1  0.81286500  0.59531100  0.00000000  1
  H  H68  1  0.50000000  0.31286500  0.40468900  1
  H  H69  1  0.50000000  0.68713500  0.59531100  1
  H  H70  1  0.50000000  0.68713500  0.40468900  1
  H  H71  1  0.50000000  0.31286500  0.59531100  1
  H  H72  1  0.00000000  0.90468900  0.81286500  1
  H  H73  1  0.00000000  0.09531100  0.18713500  1
  H  H74  1  0.00000000  0.90468900  0.18713500  1
  H  H75  1  0.00000000  0.09531100  0.81286500  1
  H  H76  1  0.40468900  0.81286500  0.50000000  1
  H  H77  1  0.59531100  0.18713500  0.50000000  1
  H  H78  1  0.40468900  0.18713500  0.50000000  1
  H  H79  1  0.59531100  0.81286500  0.50000000  1
  H  H80  1  0.31286500  0.50000000  0.90468900  1
  H  H81  1  0.68713500  0.50000000  0.09531100  1
  H  H82  1  0.68713500  0.50000000  0.90468900  1
  H  H83  1  0.31286500  0.50000000  0.09531100  1
  H  H84  1  0.40468900  0.50000000  0.31286500  1
  H  H85  1  0.59531100  0.50000000  0.68713500  1
  H  H86  1  0.40468900  0.50000000  0.68713500  1
  H  H87  1  0.59531100  0.50000000  0.31286500  1
  H  H88  1  0.31286500  0.90468900  0.00000000  1
  H  H89  1  0.68713500  0.09531100  0.00000000  1
  H  H90  1  0.68713500  0.90468900  0.00000000  1
  H  H91  1  0.31286500  0.09531100  0.00000000  1
  H  H92  1  0.00000000  0.81286500  0.40468900  1
  H  H93  1  0.00000000  0.18713500  0.59531100  1
  H  H94  1  0.00000000  0.18713500  0.40468900  1
  H  H95  1  0.00000000  0.81286500  0.59531100  1
loop_
_geom_bond_atom_site_label_1
_geom_bond_atom_site_label_2
_geom_bond_distance
_geom_bond_site_symmetry_2
B0 H73 1.229191 1_555
B0 H63 1.229191 1_555
B0 H60 1.229191 1_455
B0 H74 1.229191 1_545
B1 H75 1.229191 1_555
B1 H61 1.229191 1_555
B1 H72 1.229191 1_545
B1 H62 1.229191 1_455
B2 H29 1.229191 1_555
B2 H23 1.229191 1_555
B2 H20 1.229191 1_554
B2 H30 1.229191 1_455
B3 H31 1.229191 1_555
B3 H21 1.229191 1_555
B3 H28 1.229191 1_455
B3 H22 1.229191 1_554
B4 H57 1.229191 1_555
B4 H91 1.229191 1_555
B4 H58 1.229191 1_554
B4 H88 1.229191 1_545
B5 H59 1.229191 1_555
B5 H89 1.229191 1_555
B5 H56 1.229191 1_554
B5 H90 1.229191 1_545
B6 H41 1.229191 1_555
B6 H11 1.229191 1_555
B6 H42 1.229191 1_545
B6 H8 1.229191 1_555
B7 H43 1.229191 1_555
B7 H9 1.229191 1_555
B7 H40 1.229191 1_545
B7 H10 1.229191 1_555
B8 H55 1.229191 1_555
B8 H93 1.229191 1_555
B8 H52 1.229191 1_455
B8 H94 1.229191 1_555
B9 H95 1.229191 1_555
B9 H53 1.229191 1_555
B9 H54 1.229191 1_455
B9 H92 1.229191 1_555
B10 H87 1.229191 1_555
B10 H49 1.229191 1_555
B10 H84 1.229191 1_555
B10 H50 1.229191 1_555
B11 H51 1.229191 1_555
B11 H85 1.229191 1_555
B11 H48 1.229191 1_555
B11 H86 1.229191 1_555
B12 H47 1.229191 1_555
B12 H5 1.229191 1_555
B12 H44 1.229191 1_554
B12 H6 1.229191 1_555
B13 H45 1.229191 1_555
B13 H7 1.229191 1_555
B13 H46 1.229191 1_554
B13 H4 1.229191 1_555
B14 H67 1.229191 1_555
B14 H81 1.229191 1_555
B14 H82 1.229191 1_554
B14 H64 1.229191 1_555
B15 H83 1.229191 1_555
B15 H65 1.229191 1_555
B15 H80 1.229191 1_554
B15 H66 1.229191 1_555
B16 H35 1.229191 1_555
B16 H17 1.229191 1_555
B16 H32 1.229191 1_555
B16 H18 1.229191 1_555
B17 H33 1.229191 1_555
B17 H19 1.229191 1_555
B17 H34 1.229191 1_555
B17 H16 1.229191 1_555
B18 H79 1.229191 1_555
B18 H69 1.229191 1_555
B18 H76 1.229191 1_555
B18 H70 1.229191 1_555
B19 H77 1.229191 1_555
B19 H71 1.229191 1_555
B19 H78 1.229191 1_555
B19 H68 1.229191 1_555
B20 H15 1.229191 1_555
B20 H25 1.229191 1_555
B20 H26 1.229191 1_545
B20 H12 1.229191 1_555
B21 H27 1.229191 1_555
B21 H13 1.229191 1_555
B21 H24 1.229191 1_545
B21 H14 1.229191 1_555
B22 H39 1.229191 1_555
B22 H1 1.229191 1_555
B22 H36 1.229191 1_455
B22 H2 1.229191 1_555
B23 H37 1.229191 1_555
B23 H3 1.229191 1_555
B23 H38 1.229191 1_455
B23 H0 1.229191 1_555
H0 Lu6 2.260901 1_555
H1 Lu6 2.260901 1_555
H2 Lu6 2.260901 1_555
H3 Lu6 2.260901 1_555
H4 Lu2 2.260901 1_555
H5 Lu2 2.260901 1_555
H6 Lu2 2.260901 1_555
H7 Lu2 2.260901 1_555
H8 Lu4 2.260901 1_555
H9 Lu4 2.260901 1_555
H10 Lu4 2.260901 1_555
H11 Lu4 2.260901 1_555
H12 Lu5 2.260901 1_556
H13 Lu5 2.260901 1_555
H14 Lu5 2.260901 1_555
H15 Lu5 2.260901 1_556
H16 Lu3 2.260901 1_555
H17 Lu3 2.260901 1_555
H18 Lu3 2.260901 1_555
H19 Lu3 2.260901 1_555
H20 Lu7 2.260901 1_556
H21 Lu7 2.260901 1_555
H22 Lu7 2.260901 1_556
H23 Lu7 2.260901 1_555
H24 Lu4 2.260901 1_565
H25 Lu4 2.260901 1_555
H26 Lu4 2.260901 1_565
H27 Lu4 2.260901 1_555
H28 Lu0 2.260901 1_665
H29 Lu0 2.260901 1_555
H30 Lu0 2.260901 1_655
H31 Lu0 2.260901 1_565
H32 Lu6 2.260901 1_655
H33 Lu6 2.260901 1_555
H34 Lu6 2.260901 1_555
H35 Lu6 2.260901 1_655
H36 Lu7 2.260901 1_656
H37 Lu7 2.260901 1_555
H38 Lu7 2.260901 1_655
H39 Lu7 2.260901 1_556
H40 Lu1 2.260901 1_665
H41 Lu1 2.260901 1_555
H42 Lu1 2.260901 1_565
H43 Lu1 2.260901 1_655
H44 Lu5 2.260901 1_566
H45 Lu5 2.260901 1_555
H46 Lu5 2.260901 1_556
H47 Lu5 2.260901 1_565
H48 Lu2 2.260901 1_556
H49 Lu2 2.260901 1_555
H50 Lu2 2.260901 1_555
H51 Lu2 2.260901 1_556
H52 Lu6 2.260901 1_655
H53 Lu6 2.260901 1_555
H54 Lu6 2.260901 1_655
H55 Lu6 2.260901 1_555
H56 Lu0 2.260901 1_656
H57 Lu0 2.260901 1_555
H58 Lu0 2.260901 1_556
H59 Lu0 2.260901 1_655
H60 Lu1 2.260901 1_655
H61 Lu1 2.260901 1_555
H62 Lu1 2.260901 1_655
H63 Lu1 2.260901 1_555
H64 Lu7 2.260901 1_655
H65 Lu7 2.260901 1_555
H66 Lu7 2.260901 1_555
H67 Lu7 2.260901 1_655
H68 Lu3 2.260901 1_555
H69 Lu3 2.260901 1_555
H70 Lu3 2.260901 1_555
H71 Lu3 2.260901 1_555
H72 Lu0 2.260901 1_566
H73 Lu0 2.260901 1_555
H74 Lu0 2.260901 1_565
H75 Lu0 2.260901 1_556
H76 Lu4 2.260901 1_565
H77 Lu4 2.260901 1_555
H78 Lu4 2.260901 1_555
H79 Lu4 2.260901 1_565
H80 Lu2 2.260901 1_556
H81 Lu2 2.260901 1_555
H82 Lu2 2.260901 1_556
H83 Lu2 2.260901 1_555
H84 Lu3 2.260901 1_555
H85 Lu3 2.260901 1_555
H86 Lu3 2.260901 1_555
H87 Lu3 2.260901 1_555
H88 Lu5 2.260901 1_565
H89 Lu5 2.260901 1_555
H90 Lu5 2.260901 1_565
H91 Lu5 2.260901 1_555
H92 Lu1 2.260901 1_565
H93 Lu1 2.260901 1_555
H94 Lu1 2.260901 1_555
H95 Lu1 2.260901 1_565
