# generated using pymatgen
data_Na8Mg3Zr(PO4)6
_symmetry_space_group_name_H-M   'P 1'
_cell_length_a   9.05875670
_cell_length_b   9.05875639
_cell_length_c   22.28854439
_cell_angle_alpha   90.00000000
_cell_angle_beta   90.00000000
_cell_angle_gamma   120.00000114
_symmetry_Int_Tables_number   1
_chemical_formula_structural   Na8Mg3Zr(PO4)6
_chemical_formula_sum   'Na24 Mg9 Zr3 P18 O72'
_cell_volume   1583.97932855
_cell_formula_units_Z   3
loop_
 _symmetry_equiv_pos_site_id
 _symmetry_equiv_pos_as_xyz
  1  'x, y, z'
loop_
 _atom_site_type_symbol
 _atom_site_label
 _atom_site_symmetry_multiplicity
 _atom_site_fract_x
 _atom_site_fract_y
 _atom_site_fract_z
 _atom_site_occupancy
  Na  Na0  1  0.63436556  0.99899773  0.25184661  1
  Na  Na1  1  0.36463217  0.36563444  0.25184661  1
  Na  Na2  1  0.00100227  0.63536783  0.25184661  1
  Na  Na3  1  0.64302061  0.63294213  0.74345333  1
  Na  Na4  1  0.98992152  0.35697939  0.74345333  1
  Na  Na5  1  0.36705787  0.01007848  0.74345333  1
  Na  Na6  1  0.29801109  0.33395619  0.58118767  1
  Na  Na7  1  0.03594610  0.70198891  0.58118767  1
  Na  Na8  1  0.66604381  0.96405390  0.58118767  1
  Na  Na9  1  0.29707653  0.96501639  0.09124599  1
  Na  Na10  1  0.66794087  0.70292347  0.09124599  1
  Na  Na11  1  0.03498361  0.33205913  0.09124599  1
  Na  Na12  1  0.97202202  0.67617208  0.91526528  1
  Na  Na13  1  0.70414906  0.02797798  0.91526528  1
  Na  Na14  1  0.32382792  0.29585094  0.91526528  1
  Na  Na15  1  0.97635499  0.29897721  0.40962489  1
  Na  Na16  1  0.32262121  0.02364501  0.40962489  1
  Na  Na17  1  0.70102279  0.67737879  0.40962489  1
  Na  Na18  1  0.00000000  0.00000000  0.49694199  1
  Na  Na19  1  0.00000000  0.00000000  0.00502812  1
  Na  Na20  1  0.66666700  0.33333300  0.82750389  1
  Na  Na21  1  0.66666700  0.33333300  0.32557975  1
  Na  Na22  1  0.33333300  0.66666700  0.17286788  1
  Na  Na23  1  0.33333300  0.66666700  0.65800591  1
  Mg  Mg0  1  0.00000000  0.00000000  0.34605841  1
  Mg  Mg1  1  0.00000000  0.00000000  0.84788817  1
  Mg  Mg2  1  0.00000000  0.00000000  0.64894549  1
  Mg  Mg3  1  0.00000000  0.00000000  0.15542027  1
  Mg  Mg4  1  0.66666700  0.33333300  0.68123510  1
  Mg  Mg5  1  0.66666700  0.33333300  0.18606292  1
  Mg  Mg6  1  0.33333300  0.66666700  0.01947556  1
  Mg  Mg7  1  0.33333300  0.66666700  0.51410804  1
  Mg  Mg8  1  0.33333300  0.66666700  0.31555578  1
  Zr  Zr0  1  0.66666700  0.33333300  0.98589578  1
  Zr  Zr1  1  0.66666700  0.33333300  0.48172563  1
  Zr  Zr2  1  0.33333300  0.66666700  0.81416059  1
  P  P0  1  0.29536143  0.99960784  0.24976365  1
  P  P1  1  0.70424641  0.70463857  0.24976365  1
  P  P2  1  0.00039216  0.29575359  0.24976365  1
  P  P3  1  0.29370410  0.28938154  0.75038386  1
  P  P4  1  0.99567744  0.70629590  0.75038386  1
  P  P5  1  0.71061846  0.00432256  0.75038386  1
  P  P6  1  0.96502400  0.33408402  0.58621118  1
  P  P7  1  0.36906102  0.03497600  0.58621118  1
  P  P8  1  0.66591598  0.63093898  0.58621118  1
  P  P9  1  0.96574107  0.63149636  0.08528041  1
  P  P10  1  0.66575630  0.03425893  0.08528041  1
  P  P11  1  0.36850364  0.33424370  0.08528041  1
  P  P12  1  0.63007952  0.67017552  0.91843080  1
  P  P13  1  0.04009500  0.36992048  0.91843080  1
  P  P14  1  0.32982448  0.95990500  0.91843080  1
  P  P15  1  0.62698717  0.95605224  0.41698745  1
  P  P16  1  0.32906407  0.37301283  0.41698745  1
  P  P17  1  0.04394776  0.67093593  0.41698745  1
  O  O0  1  0.21340922  0.02899189  0.30572895  1
  O  O1  1  0.81558267  0.78659078  0.30572895  1
  O  O2  1  0.97100811  0.18441733  0.30572895  1
  O  O3  1  0.21366401  0.18573780  0.80761473  1
  O  O4  1  0.97207379  0.78633599  0.80761473  1
  O  O5  1  0.81426220  0.02792621  0.80761473  1
  O  O6  1  0.78670570  0.96728882  0.69497458  1
  O  O7  1  0.18058311  0.21329430  0.69497458  1
  O  O8  1  0.03271118  0.81941689  0.69497458  1
  O  O9  1  0.78489656  0.81459956  0.19284307  1
  O  O10  1  0.02970299  0.21510344  0.19284307  1
  O  O11  1  0.18540044  0.97029701  0.19284307  1
  O  O12  1  0.88037042  0.36250563  0.64138941  1
  O  O13  1  0.48213621  0.11962958  0.64138941  1
  O  O14  1  0.63749437  0.51786379  0.64138941  1
  O  O15  1  0.87612015  0.51336517  0.13761872  1
  O  O16  1  0.63724602  0.12387985  0.13761872  1
  O  O17  1  0.48663483  0.36275398  0.13761872  1
  O  O18  1  0.45543118  0.30677204  0.02642334  1
  O  O19  1  0.85134186  0.54456882  0.02642334  1
  O  O20  1  0.69322796  0.14865814  0.02642334  1
  O  O21  1  0.45846369  0.15138702  0.52996247  1
  O  O22  1  0.69292434  0.54153631  0.52996247  1
  O  O23  1  0.84861298  0.30707566  0.52996247  1
  O  O24  1  0.54346616  0.69434472  0.97239786  1
  O  O25  1  0.15087757  0.45653384  0.97239786  1
  O  O26  1  0.30565528  0.84912243  0.97239786  1
  O  O27  1  0.54695995  0.85208101  0.47438130  1
  O  O28  1  0.30512005  0.45304005  0.47438130  1
  O  O29  1  0.14791899  0.69487995  0.47438130  1
  O  O30  1  0.11948823  0.63376627  0.36177710  1
  O  O31  1  0.51427704  0.88051177  0.36177710  1
  O  O32  1  0.36623373  0.48572296  0.36177710  1
  O  O33  1  0.12213499  0.48422488  0.86129476  1
  O  O34  1  0.36208889  0.87786501  0.86129476  1
  O  O35  1  0.51577512  0.63791111  0.86129476  1
  O  O36  1  0.01736838  0.82591851  0.41175593  1
  O  O37  1  0.80855013  0.98263162  0.41175593  1
  O  O38  1  0.17408149  0.19144987  0.41175593  1
  O  O39  1  0.01769333  0.19135808  0.91082838  1
  O  O40  1  0.17366474  0.98230667  0.91082838  1
  O  O41  1  0.80864192  0.82633526  0.91082838  1
  O  O42  1  0.97829392  0.17106972  0.58915633  1
  O  O43  1  0.19277579  0.02170608  0.58915633  1
  O  O44  1  0.82893028  0.80722421  0.58915633  1
  O  O45  1  0.97847740  0.80746170  0.08676998  1
  O  O46  1  0.82898430  0.02152260  0.08676998  1
  O  O47  1  0.19253830  0.17101570  0.08676998  1
  O  O48  1  0.68425776  0.15937445  0.74529888  1
  O  O49  1  0.47511769  0.31574224  0.74529888  1
  O  O50  1  0.84062555  0.52488231  0.74529888  1
  O  O51  1  0.68576432  0.52436858  0.24426995  1
  O  O52  1  0.83860526  0.31423568  0.24426995  1
  O  O53  1  0.47563142  0.16139474  0.24426995  1
  O  O54  1  0.64511237  0.50428484  0.92090067  1
  O  O55  1  0.85917347  0.35488763  0.92090067  1
  O  O56  1  0.49571516  0.14082653  0.92090067  1
  O  O57  1  0.64686800  0.14135227  0.42358013  1
  O  O58  1  0.49448527  0.35313200  0.42358013  1
  O  O59  1  0.85864773  0.50551473  0.42358013  1
  O  O60  1  0.35301813  0.49457380  0.07664482  1
  O  O61  1  0.14155466  0.64698187  0.07664482  1
  O  O62  1  0.50542620  0.85844534  0.07664482  1
  O  O63  1  0.35261200  0.85795959  0.57893926  1
  O  O64  1  0.50534659  0.64738800  0.57893926  1
  O  O65  1  0.14204041  0.49465341  0.57893926  1
  O  O66  1  0.31423175  0.83836321  0.25518406  1
  O  O67  1  0.52413047  0.68576825  0.25518406  1
  O  O68  1  0.16163679  0.47586953  0.25518406  1
  O  O69  1  0.31360634  0.47450417  0.75643112  1
  O  O70  1  0.16089684  0.68639366  0.75643112  1
  O  O71  1  0.52549583  0.83910316  0.75643112  1
loop_
_geom_bond_atom_site_label_1
_geom_bond_atom_site_label_2
_geom_bond_distance
_geom_bond_site_symmetry_2
Na0 O67 2.494089 1_555
Na0 O66 2.512593 1_555
Na0 O52 2.514555 1_565
Na0 O53 2.525018 1_565
Na0 O31 2.677924 1_555
Na0 O16 2.780815 1_565
Na0 O2 2.905369 1_565
Na0 O9 2.942292 1_555
Na1 O68 2.494097 1_555
Na1 O67 2.512593 1_555
Na1 O53 2.514562 1_555
Na1 O51 2.525026 1_555
Na1 O32 2.677926 1_555
Na1 O17 2.780818 1_555
Na1 O0 2.905369 1_555
Na1 O10 2.942292 1_555
Na2 O66 2.494090 1_555
Na2 O68 2.512585 1_555
Na2 O51 2.514554 1_455
Na2 O52 2.525026 1_455
Na2 O30 2.677922 1_555
Na2 O15 2.780816 1_455
Na2 O1 2.905369 1_455
Na2 O11 2.942292 1_555
Na3 O50 2.432380 1_555
Na3 O49 2.490235 1_555
Na3 O14 2.492394 1_555
Na3 O71 2.587113 1_555
Na3 O69 2.601050 1_555
Na3 O6 2.844796 1_555
Na3 O35 2.877703 1_555
Na3 O4 2.952827 1_555
Na4 O48 2.432373 1_555
Na4 O50 2.490228 1_555
Na4 O12 2.492390 1_555
Na4 O69 2.587105 1_655
Na4 O70 2.601050 1_655
Na4 O7 2.844796 1_655
Na4 O33 2.877701 1_655
Na4 O5 2.952827 1_555
Na5 O49 2.432372 1_555
Na5 O48 2.490236 1_555
Na5 O13 2.492392 1_555
Na5 O70 2.587106 1_545
Na5 O71 2.601042 1_545
Na5 O8 2.844796 1_545
Na5 O34 2.877699 1_545
Na5 O3 2.952827 1_555
Na6 O65 2.484893 1_555
Na6 O43 2.498957 1_555
Na6 O64 2.501801 1_555
Na6 O42 2.514648 1_455
Na6 O28 2.601046 1_555
Na6 O7 2.756015 1_555
Na6 O21 2.924947 1_555
Na6 O14 2.984963 1_555
Na7 O63 2.484877 1_555
Na7 O44 2.498966 1_455
Na7 O65 2.501787 1_555
Na7 O43 2.514648 1_565
Na7 O29 2.601039 1_555
Na7 O8 2.756017 1_555
Na7 O22 2.924947 1_455
Na7 O12 2.984963 1_455
Na8 O64 2.484877 1_555
Na8 O42 2.498959 1_565
Na8 O63 2.501804 1_555
Na8 O44 2.514640 1_555
Na8 O27 2.601043 1_555
Na8 O6 2.756013 1_555
Na8 O23 2.924947 1_565
Na8 O13 2.984963 1_565
Na9 O47 2.481174 1_565
Na9 O11 2.490351 1_555
Na9 O45 2.501486 1_455
Na9 O61 2.516351 1_555
Na9 O62 2.534213 1_555
Na9 O16 2.863636 1_565
Na9 O26 2.864746 1_554
Na10 O45 2.481166 1_555
Na10 O9 2.490349 1_555
Na10 O46 2.501486 1_565
Na10 O62 2.516367 1_555
Na10 O60 2.534227 1_555
Na10 O17 2.863636 1_555
Na10 O24 2.864753 1_554
Na11 O46 2.481167 1_455
Na11 O10 2.490347 1_555
Na11 O47 2.501478 1_555
Na11 O60 2.516351 1_555
Na11 O61 2.534230 1_555
Na11 O15 2.863636 1_455
Na11 O25 2.864750 1_554
Na12 O40 2.443641 1_655
Na12 O41 2.462497 1_555
Na12 O55 2.560509 1_555
Na12 O54 2.568853 1_555
Na12 O4 2.598544 1_555
Na12 O19 2.729714 1_556
Na12 O26 2.911250 1_655
Na12 O33 2.946881 1_655
Na13 O41 2.443648 1_545
Na13 O39 2.462505 1_655
Na13 O56 2.560493 1_555
Na13 O55 2.568853 1_555
Na13 O5 2.598547 1_555
Na13 O20 2.729710 1_556
Na13 O24 2.911250 1_545
Na13 O34 2.946881 1_545
Na14 O39 2.443640 1_555
Na14 O40 2.462505 1_545
Na14 O54 2.560506 1_555
Na14 O56 2.568869 1_555
Na14 O3 2.598545 1_555
Na14 O18 2.729717 1_556
Na14 O25 2.911250 1_555
Na14 O35 2.946881 1_555
Na15 O38 2.429814 1_655
Na15 O37 2.483755 1_545
Na15 O2 2.528134 1_555
Na15 O59 2.594075 1_555
Na15 O57 2.604308 1_555
Na15 O30 2.843223 1_655
Na15 O23 2.936541 1_555
Na15 O28 2.957059 1_655
Na16 O36 2.429807 1_545
Na16 O38 2.483747 1_555
Na16 O0 2.528131 1_555
Na16 O57 2.594092 1_555
Na16 O58 2.604309 1_555
Na16 O31 2.843223 1_545
Na16 O21 2.936545 1_555
Na16 O29 2.957059 1_545
Na17 O37 2.429806 1_555
Na17 O36 2.483755 1_655
Na17 O1 2.528133 1_555
Na17 O58 2.594089 1_555
Na17 O59 2.604324 1_555
Na17 O32 2.843223 1_555
Na17 O22 2.936549 1_555
Na17 O27 2.957059 1_555
Na18 O38 2.522823 1_555
Na18 O36 2.522823 1_545
Na18 O37 2.522823 1_445
Na18 O44 2.639931 1_445
Na18 O43 2.639931 1_555
Na18 O42 2.639931 1_455
Na19 O45 2.461583 1_445
Na19 O47 2.461583 1_555
Na19 O46 2.461583 1_455
Na19 O40 2.675999 1_544
Na19 O41 2.675999 1_444
Na19 O39 2.675999 1_554
Na20 O50 2.473230 1_555
Na20 O48 2.473230 1_555
Na20 O49 2.473230 1_555
Na20 O56 2.659339 1_555
Na20 O54 2.659339 1_555
Na20 O55 2.659339 1_555
Na21 O51 2.451465 1_555
Na21 O53 2.451465 1_555
Na21 O52 2.451465 1_555
Na21 O57 2.741505 1_555
Na21 O59 2.741505 1_555
Na21 O58 2.741505 1_555
Na22 O66 2.466647 1_555
Na22 O68 2.466647 1_555
Na22 O67 2.466647 1_555
Na22 O60 2.709195 1_555
Na22 O62 2.709195 1_555
Na22 O61 2.709195 1_555
Na23 O63 2.415853 1_555
Na23 O65 2.415853 1_555
Na23 O64 2.415853 1_555
Na23 O70 2.750210 1_555
Na23 O71 2.750210 1_555
Na23 O69 2.750210 1_555
Mg0 O1 2.026473 1_445
Mg0 O2 2.026473 1_455
Mg0 O0 2.026473 1_555
Mg0 O38 2.214465 1_555
Mg0 O36 2.214465 1_545
Mg0 O37 2.214465 1_445
Mg1 O4 2.031350 1_445
Mg1 O3 2.031350 1_555
Mg1 O5 2.031350 1_455
Mg1 O40 2.172724 1_545
Mg1 O41 2.172724 1_445
Mg1 O39 2.172724 1_555
Mg2 O8 2.073908 1_545
Mg2 O7 2.073909 1_555
Mg2 O6 2.073909 1_445
Mg2 O44 2.126203 1_445
Mg2 O43 2.126203 1_555
Mg2 O42 2.126203 1_455
Mg3 O11 2.010159 1_545
Mg3 O9 2.010159 1_445
Mg3 O10 2.010159 1_555
Mg3 O45 2.254173 1_445
Mg3 O47 2.254173 1_555
Mg3 O46 2.254173 1_455
Mg4 O13 2.023519 1_555
Mg4 O14 2.023519 1_555
Mg4 O12 2.023519 1_555
Mg4 O50 2.190586 1_555
Mg4 O48 2.190586 1_555
Mg4 O49 2.190586 1_555
Mg5 O16 2.081172 1_555
Mg5 O15 2.081172 1_555
Mg5 O17 2.081172 1_555
Mg5 O51 2.099631 1_555
Mg5 O53 2.099631 1_555
Mg5 O52 2.099631 1_555
Mg6 O26 2.076077 1_554
Mg6 O25 2.076077 1_554
Mg6 O24 2.076077 1_554
Mg6 O60 2.088961 1_555
Mg6 O62 2.088961 1_555
Mg6 O61 2.088961 1_555
Mg7 O28 2.024780 1_555
Mg7 O27 2.024780 1_555
Mg7 O29 2.024780 1_555
Mg7 O63 2.195158 1_555
Mg7 O65 2.195158 1_555
Mg7 O64 2.195158 1_555
Mg8 O31 2.079764 1_555
Mg8 O32 2.079764 1_555
Mg8 O30 2.079764 1_555
Mg8 O66 2.128105 1_555
Mg8 O68 2.128105 1_555
Mg8 O67 2.128105 1_555
O0 P0 1.541288 1_545
O1 P1 1.541288 1_555
O2 P2 1.541288 1_655
O3 P3 1.534147 1_555
O4 P4 1.534147 1_555
O5 P5 1.534147 1_555
O6 P5 1.531031 1_565
O7 P3 1.531031 1_555
O8 P4 1.531031 1_455
O9 P1 1.551705 1_555
O10 P2 1.551705 1_555
O11 P0 1.551705 1_555
O12 P6 1.537630 1_555
O13 P7 1.537630 1_555
O14 P8 1.537630 1_555
O15 P9 1.515359 1_555
O16 P10 1.515359 1_555
O17 P11 1.515359 1_555
O18 P11 1.612111 1_555
O18 Zr0 2.018673 1_554
O19 P9 1.612111 1_555
O19 Zr0 2.018673 1_554
O20 P10 1.612111 1_555
O20 Zr0 2.018673 1_554
O21 P7 1.576602 1_555
O21 Zr1 2.078725 1_555
O22 P8 1.576602 1_555
O22 Zr1 2.078725 1_555
O23 P6 1.576602 1_555
O23 Zr1 2.078725 1_555
O24 P12 1.510687 1_555
O25 P13 1.510687 1_555
O26 P14 1.510687 1_555
O27 P15 1.538264 1_555
O28 P16 1.538264 1_555
O29 P17 1.538264 1_555
O30 P17 1.525231 1_555
O31 P15 1.525231 1_555
O32 P16 1.525231 1_555
O33 P13 1.573755 1_555
O33 Zr2 2.081693 1_555
O34 P14 1.573755 1_555
O34 Zr2 2.081693 1_555
O35 P12 1.573755 1_555
O35 Zr2 2.081693 1_555
O36 P17 1.542946 1_555
O37 P15 1.542955 1_555
O38 P16 1.542951 1_555
O39 P13 1.535617 1_555
O40 P14 1.535608 1_555
O41 P12 1.535614 1_555
O42 P6 1.541731 1_555
O43 P7 1.541741 1_555
O44 P8 1.541736 1_555
O45 P9 1.539943 1_555
O46 P10 1.539934 1_555
O47 P11 1.539939 1_555
O48 P5 1.542113 1_555
O49 P3 1.542122 1_555
O50 P4 1.542118 1_555
O51 P1 1.560890 1_555
O52 P2 1.560881 1_655
O53 P0 1.560886 1_545
O54 P12 1.576235 1_555
O54 Zr0 2.199381 1_555
O55 P13 1.576217 1_655
O55 Zr0 2.199381 1_555
O56 P14 1.576225 1_545
O56 Zr0 2.199381 1_555
O57 P15 1.602928 1_545
O57 Zr1 2.103403 1_555
O58 P16 1.602946 1_555
O58 Zr1 2.103403 1_555
O59 P17 1.602935 1_655
O59 Zr1 2.103403 1_555
O60 P11 1.539450 1_555
O61 P9 1.539432 1_455
O62 P10 1.539440 1_565
O63 P7 1.543017 1_565
O64 P8 1.543035 1_555
O65 P6 1.543024 1_455
O66 P0 1.557909 1_555
O67 P1 1.557918 1_555
O68 P2 1.557914 1_555
O69 P3 1.600186 1_555
O69 Zr2 2.099216 1_555
O70 P4 1.600177 1_455
O70 Zr2 2.099216 1_555
O71 P5 1.600182 1_565
O71 Zr2 2.099216 1_555
