# generated using pymatgen
data_Na30Ca16Nb8Si15(S7O48)3
_symmetry_space_group_name_H-M   'P 1'
_cell_length_a   18.59356633
_cell_length_b   9.27837195
_cell_length_c   23.32122347
_cell_angle_alpha   89.90840099
_cell_angle_beta   90.12922632
_cell_angle_gamma   119.93876368
_symmetry_Int_Tables_number   1
_chemical_formula_structural   Na30Ca16Nb8Si15(S7O48)3
_chemical_formula_sum   'Na30 Ca16 Nb8 Si15 S21 O144'
_cell_volume   3486.44583808
_cell_formula_units_Z   1
loop_
 _symmetry_equiv_pos_site_id
 _symmetry_equiv_pos_as_xyz
  1  'x, y, z'
loop_
 _atom_site_type_symbol
 _atom_site_label
 _atom_site_symmetry_multiplicity
 _atom_site_fract_x
 _atom_site_fract_y
 _atom_site_fract_z
 _atom_site_occupancy
  Na  Na0  1  0.33042648  0.03633941  0.24953631  1
  Na  Na1  1  0.82842006  0.03051962  0.24994099  1
  Na  Na2  1  0.18426647  0.33458573  0.24988915  1
  Na  Na3  1  0.68179165  0.33584086  0.24799907  1
  Na  Na4  1  0.98293231  0.62710399  0.25057802  1
  Na  Na5  1  0.48332657  0.61710111  0.23922906  1
  Na  Na6  1  0.32829342  0.62541295  0.75191727  1
  Na  Na7  1  0.83277376  0.62895643  0.75288564  1
  Na  Na8  1  0.98234120  0.34488928  0.74325702  1
  Na  Na9  1  0.48188928  0.34522896  0.74151508  1
  Na  Na10  1  0.18031610  0.03034724  0.75054110  1
  Na  Na11  1  0.68268271  0.03129857  0.75067009  1
  Na  Na12  1  0.01194569  0.66925486  0.59292164  1
  Na  Na13  1  0.51196467  0.66885204  0.59201878  1
  Na  Na14  1  0.51255205  0.35436028  0.08799959  1
  Na  Na15  1  0.47856292  0.66909314  0.91646618  1
  Na  Na16  1  0.47961627  0.28933276  0.41925894  1
  Na  Na17  1  0.97821187  0.28710315  0.42108006  1
  Na  Na18  1  0.99652530  0.00842586  0.50937872  1
  Na  Na19  1  0.49835377  0.00939983  0.50849181  1
  Na  Na20  1  0.00070788  0.00109813  0.99661020  1
  Na  Na21  1  0.49643133  0.98609466  0.00252738  1
  Na  Na22  1  0.32623003  0.31772245  0.82385121  1
  Na  Na23  1  0.83638977  0.33858721  0.82496622  1
  Na  Na24  1  0.32980538  0.33640572  0.32364774  1
  Na  Na25  1  0.82445308  0.33143827  0.32636414  1
  Na  Na26  1  0.16614229  0.66482231  0.15454056  1
  Na  Na27  1  0.66344941  0.68387874  0.15220506  1
  Na  Na28  1  0.16208300  0.64202481  0.65501900  1
  Na  Na29  1  0.66316246  0.64307023  0.65385478  1
  Ca  Ca0  1  0.00015139  0.99410443  0.35088774  1
  Ca  Ca1  1  0.50169447  0.99364307  0.35040355  1
  Ca  Ca2  1  0.00058932  0.00253418  0.85192812  1
  Ca  Ca3  1  0.50041131  0.00902407  0.85050465  1
  Ca  Ca4  1  0.33293664  0.32939202  0.67846770  1
  Ca  Ca5  1  0.83378636  0.32811926  0.67809665  1
  Ca  Ca6  1  0.33350653  0.33706557  0.17718401  1
  Ca  Ca7  1  0.83367258  0.33387421  0.17695965  1
  Ca  Ca8  1  0.33178651  0.34283159  0.98561226  1
  Ca  Ca9  1  0.83517876  0.33723967  0.97983954  1
  Ca  Ca10  1  0.33392281  0.32231712  0.48745141  1
  Ca  Ca11  1  0.83332492  0.32065464  0.48808616  1
  Ca  Ca12  1  0.16718019  0.66518086  0.01846189  1
  Ca  Ca13  1  0.67122752  0.67632239  0.01946805  1
  Ca  Ca14  1  0.17171052  0.66830081  0.52003387  1
  Ca  Ca15  1  0.67155458  0.66829173  0.51969501  1
  Nb  Nb0  1  0.99902084  0.01529891  0.65699913  1
  Nb  Nb1  1  0.49841893  0.01421946  0.65768704  1
  Nb  Nb2  1  0.99972215  0.99984658  0.15811460  1
  Nb  Nb3  1  0.49898406  0.98337080  0.15628025  1
  Nb  Nb4  1  0.16780447  0.66813318  0.30788496  1
  Nb  Nb5  1  0.66646788  0.66557235  0.30756851  1
  Nb  Nb6  1  0.16385249  0.66788565  0.80850004  1
  Nb  Nb7  1  0.66738301  0.66687232  0.80824721  1
  Si  Si0  1  0.14762511  0.99685490  0.25273148  1
  Si  Si1  1  0.64929178  -0.00056049  0.25406497  1
  Si  Si2  1  0.34933059  0.70155095  0.25322621  1
  Si  Si3  1  0.84928840  0.70200382  0.25190341  1
  Si  Si4  1  0.00195720  0.29982933  0.25606446  1
  Si  Si5  1  0.50103257  0.29322115  0.25358560  1
  Si  Si6  1  0.14805283  0.30037109  0.75532882  1
  Si  Si7  1  0.64890207  0.30011908  0.75475126  1
  Si  Si8  1  0.00050212  0.70944933  0.74961269  1
  Si  Si9  1  0.50140690  0.70846930  0.75434616  1
  Si  Si10  1  0.34727517  0.99552277  0.75368807  1
  Si  Si11  1  0.84941244  0.99728952  0.75417773  1
  Si  Si12  1  0.48871165  0.32781299  0.58378260  1
  Si  Si13  1  0.98908156  0.32797983  0.58350718  1
  Si  Si14  1  0.48809311  0.64746030  0.08418015  1
  S  S0  1  0.17139747  0.02605318  0.58612237  1
  S  S1  1  0.67063939  0.02473336  0.58672676  1
  S  S2  1  0.34289507  0.65285016  0.58694124  1
  S  S3  1  0.84239229  0.65219423  0.58671778  1
  S  S4  1  0.98730714  0.65694378  0.08766149  1
  S  S5  1  0.33996593  0.02798332  0.08763371  1
  S  S6  1  0.84418735  0.03147529  0.08758256  1
  S  S7  1  0.16968042  0.31626640  0.08857740  1
  S  S8  1  0.67322650  0.31786829  0.08613290  1
  S  S9  1  0.30990052  0.66071964  0.91347417  1
  S  S10  1  0.80881201  0.65987658  0.91365950  1
  S  S11  1  0.02162099  0.38314075  0.91396866  1
  S  S12  1  0.52205618  0.38354233  0.91563211  1
  S  S13  1  0.17038003  0.95690293  0.91431938  1
  S  S14  1  0.66917025  0.95713677  0.91295560  1
  S  S15  1  0.30986641  0.95917477  0.41192441  1
  S  S16  1  0.81012368  0.96012082  0.41191818  1
  S  S17  1  0.16941242  0.38371000  0.41223298  1
  S  S18  1  0.66968610  0.38303360  0.41250114  1
  S  S19  1  0.02268006  0.66019896  0.41406962  1
  S  S20  1  0.52292018  0.66057418  0.41433263  1
  O  O0  1  0.11238729  0.04703374  0.30570709  1
  O  O1  1  0.61713582  0.05283280  0.30785623  1
  O  O2  1  0.40796660  0.77519509  0.30682681  1
  O  O3  1  0.90969891  0.77387360  0.30502409  1
  O  O4  1  0.48702517  0.19577925  0.31236005  1
  O  O5  1  0.98231526  0.19804734  0.31413584  1
  O  O6  1  0.11512298  0.18096348  0.80866601  1
  O  O7  1  0.61520621  0.18146352  0.80843614  1
  O  O8  1  0.48596199  0.77680858  0.81288078  1
  O  O9  1  0.98125194  0.78901773  0.80280603  1
  O  O10  1  0.40866596  0.04483697  0.80611672  1
  O  O11  1  0.91058312  0.04793877  0.80665999  1
  O  O12  1  0.39932034  0.96567638  0.69760818  1
  O  O13  1  0.90057923  0.96646927  0.69762551  1
  O  O14  1  0.07990508  0.19986684  0.69973482  1
  O  O15  1  0.58007611  0.19940574  0.69977093  1
  O  O16  1  0.01939043  0.83272790  0.69113596  1
  O  O17  1  0.51811945  0.83851733  0.69827773  1
  O  O18  1  0.40046561  0.83362266  0.19718907  1
  O  O19  1  0.90140664  0.83836119  0.19645905  1
  O  O20  1  0.01705556  0.18956035  0.20249716  1
  O  O21  1  0.51836486  0.19851986  0.19760516  1
  O  O22  1  0.07951163  0.96192785  0.19692692  1
  O  O23  1  0.58045631  0.96152961  0.19953428  1
  O  O24  1  0.44362219  0.34860180  0.63989986  1
  O  O25  1  0.94340644  0.34675662  0.63945131  1
  O  O26  1  0.21524988  0.10158931  0.64010776  1
  O  O27  1  0.71480969  0.10092691  0.64046230  1
  O  O28  1  0.33156087  0.56068735  0.64081684  1
  O  O29  1  0.83140149  0.56063150  0.64058581  1
  O  O30  1  0.44524441  0.54202399  0.14179613  1
  O  O31  1  0.95078866  0.56676399  0.14185107  1
  O  O32  1  0.32932755  0.09678286  0.14188267  1
  O  O33  1  0.83570569  0.10412871  0.14182197  1
  O  O34  1  0.21510010  0.33185498  0.14239473  1
  O  O35  1  0.71643824  0.33125572  0.14103353  1
  O  O36  1  0.21116983  0.29692431  0.03810758  1
  O  O37  1  0.71813327  0.30313197  0.03690601  1
  O  O38  1  0.43668011  0.57390287  0.02435079  1
  O  O39  1  0.93555686  0.56912893  0.03764889  1
  O  O40  1  0.34825532  0.13552932  0.03834914  1
  O  O41  1  0.85107467  0.13407129  0.03758369  1
  O  O42  1  0.21505842  0.12879088  0.53557572  1
  O  O43  1  0.71330572  0.12736885  0.53591418  1
  O  O44  1  0.35016712  0.56196639  0.53714858  1
  O  O45  1  0.84936298  0.56010593  0.53700485  1
  O  O46  1  0.43933189  0.29626001  0.52250519  1
  O  O47  1  0.93983823  0.29665791  0.52204641  1
  O  O48  1  0.26615116  0.66076476  0.96516570  1
  O  O49  1  0.76529314  0.66115167  0.96518345  1
  O  O50  1  0.06632581  0.47077648  0.96579781  1
  O  O51  1  0.56515728  0.46524631  0.96893033  1
  O  O52  1  0.17059740  0.86724922  0.96573363  1
  O  O53  1  0.66707096  0.86397625  0.96391197  1
  O  O54  1  0.26635627  0.87103965  0.46316653  1
  O  O55  1  0.76650911  0.87289372  0.46323904  1
  O  O56  1  0.16744773  0.47291761  0.46295908  1
  O  O57  1  0.66856135  0.47350086  0.46310047  1
  O  O58  1  0.06616782  0.66334585  0.46686435  1
  O  O59  1  0.56608436  0.66390312  0.46726161  1
  O  O60  1  0.07526694  0.66082782  0.36234911  1
  O  O61  1  0.57589364  0.66114060  0.36292073  1
  O  O62  1  0.26084281  0.85736376  0.35904979  1
  O  O63  1  0.76262847  0.86011219  0.35878446  1
  O  O64  1  0.17147272  0.48664557  0.35889844  1
  O  O65  1  0.67171849  0.48505202  0.35892321  1
  O  O66  1  0.07225561  0.48558298  0.86136360  1
  O  O67  1  0.57408955  0.48855987  0.86429949  1
  O  O68  1  0.17002870  0.85397839  0.86116104  1
  O  O69  1  0.67193439  0.86180155  0.85967040  1
  O  O70  1  0.26282641  0.66455565  0.86046612  1
  O  O71  1  0.75800423  0.65954615  0.86074591  1
  O  O72  1  0.01166311  0.80510973  0.41190832  1
  O  O73  1  0.51163430  0.80517574  0.41205896  1
  O  O74  1  0.39448674  0.98176239  0.41188989  1
  O  O75  1  0.89506608  0.98295205  0.41261024  1
  O  O76  1  0.09094391  0.22218235  0.41082586  1
  O  O77  1  0.59133351  0.22164024  0.41170333  1
  O  O78  1  0.01386866  0.21800007  0.91302850  1
  O  O79  1  0.51048126  0.21558593  0.91380100  1
  O  O80  1  0.09518408  0.97026027  0.91329311  1
  O  O81  1  0.59108486  0.96305835  0.91212289  1
  O  O82  1  0.39523851  0.80760352  0.91471021  1
  O  O83  1  0.89154554  0.80911725  0.91254112  1
  O  O84  1  0.49588411  0.15185053  0.59662559  1
  O  O85  1  0.99624821  0.15156948  0.59547430  1
  O  O86  1  0.08578712  0.00636362  0.58754239  1
  O  O87  1  0.58456926  0.00346152  0.58890133  1
  O  O88  1  0.42533261  0.81468846  0.59017134  1
  O  O89  1  0.92449573  0.81459310  0.58917618  1
  O  O90  1  0.49612091  0.83907647  0.09679186  1
  O  O91  1  0.99234791  0.82602777  0.09105729  1
  O  O92  1  0.42202059  0.02842742  0.09057146  1
  O  O93  1  0.92408825  0.02317294  0.09121308  1
  O  O94  1  0.08460430  0.15979661  0.09254944  1
  O  O95  1  0.58693939  0.16539030  0.08825922  1
  O  O96  1  0.31942536  0.13065571  0.74187543  1
  O  O97  1  0.82041523  0.13037996  0.74191090  1
  O  O98  1  0.24140964  0.35050563  0.73969498  1
  O  O99  1  0.74215924  0.35181445  0.73925475  1
  O  O100  1  0.42822110  0.52046853  0.74303380  1
  O  O101  1  0.92895672  0.51845396  0.74166218  1
  O  O102  1  0.32169606  0.51080190  0.24175599  1
  O  O103  1  0.82400598  0.51315695  0.23862064  1
  O  O104  1  0.42738245  0.33408107  0.24309383  1
  O  O105  1  0.93199897  0.34550388  0.23966206  1
  O  O106  1  0.24132298  0.13369652  0.23893637  1
  O  O107  1  0.74304386  0.13627282  0.23861943  1
  O  O108  1  0.31635456  0.50667040  0.90928237  1
  O  O109  1  0.81266717  0.50417807  0.90923512  1
  O  O110  1  0.44174628  0.38277804  0.91070240  1
  O  O111  1  0.93998178  0.37462695  0.90965635  1
  O  O112  1  0.24754580  0.11973981  0.90951344  1
  O  O113  1  0.74409760  0.12348032  0.91100125  1
  O  O114  1  0.31485493  0.12415180  0.40663813  1
  O  O115  1  0.81602263  0.12633232  0.40688832  1
  O  O116  1  0.24394813  0.36783622  0.40905820  1
  O  O117  1  0.74425679  0.36653109  0.40929052  1
  O  O118  1  0.44279844  0.50073804  0.40887532  1
  O  O119  1  0.94257634  0.50039328  0.40853735  1
  O  O120  1  0.15671297  0.46136697  0.08377661  1
  O  O121  1  0.66015778  0.46354566  0.08135516  1
  O  O122  1  0.07319259  0.68503010  0.08292671  1
  O  O123  1  0.57977919  0.66510043  0.08185713  1
  O  O124  1  0.27069032  0.85465751  0.08142413  1
  O  O125  1  0.77385078  0.85880420  0.08302006  1
  O  O126  1  0.15951032  0.85506035  0.58150390  1
  O  O127  1  0.65901019  0.85420229  0.58185435  1
  O  O128  1  0.27518803  0.69127861  0.58079317  1
  O  O129  1  0.77443656  0.69003957  0.58052403  1
  O  O130  1  0.08128567  0.49319476  0.58116182  1
  O  O131  1  0.58064129  0.49368835  0.58147865  1
  O  O132  1  0.14361314  0.81123324  0.26059464  1
  O  O133  1  0.64645957  0.81480152  0.26094262  1
  O  O134  1  0.26048660  0.71212792  0.25893559  1
  O  O135  1  0.76043040  0.70949193  0.25871480  1
  O  O136  1  0.09435658  0.48011148  0.25974296  1
  O  O137  1  0.59188596  0.48265947  0.25991224  1
  O  O138  1  0.14464375  0.47895869  0.76129998  1
  O  O139  1  0.64462195  0.47780000  0.76126280  1
  O  O140  1  0.09203907  0.70661083  0.75964348  1
  O  O141  1  0.59295670  0.70460987  0.76068574  1
  O  O142  1  0.25924317  0.80849521  0.76028530  1
  O  O143  1  0.76108456  0.80871024  0.76008807  1
loop_
_geom_bond_atom_site_label_1
_geom_bond_atom_site_label_2
_geom_bond_distance
_geom_bond_site_symmetry_2
Na0 O106 2.261228 1_555
Na0 O104 2.435802 1_555
Na0 O32 2.573873 1_555
Na0 O134 2.623488 1_545
Na0 O4 2.915721 1_555
Na1 O107 2.259319 1_555
Na1 O105 2.586416 1_555
Na1 O33 2.597362 1_555
Na1 O135 2.598625 1_545
Na1 O5 2.897227 1_555
Na2 O102 2.251621 1_555
Na2 O34 2.575862 1_555
Na2 O106 2.577097 1_555
Na2 O136 2.631825 1_555
Na2 O0 2.652661 1_555
Na2 O20 2.917505 1_555
Na2 O64 2.976451 1_555
Na3 O103 2.325049 1_555
Na3 O35 2.583528 1_555
Na3 O107 2.623161 1_555
Na3 O137 2.646441 1_555
Na3 O1 2.670945 1_555
Na3 O21 2.891782 1_555
Na3 O65 2.985998 1_555
Na4 O105 2.306421 1_555
Na4 O31 2.600742 1_555
Na4 O132 2.608189 1_655
Na4 O103 2.608916 1_555
Na4 O3 2.680495 1_555
Na5 O104 2.293257 1_555
Na5 O30 2.378074 1_555
Na5 O102 2.655187 1_555
Na5 O133 2.695192 1_555
Na5 O137 2.893086 1_555
Na5 O23 2.927218 1_555
Na5 O2 2.944353 1_555
Na6 O98 2.254848 1_555
Na6 O100 2.500290 1_555
Na6 O142 2.598300 1_555
Na6 O28 2.668281 1_555
Na6 O8 2.909656 1_555
Na6 O70 2.912077 1_555
Na7 O99 2.286429 1_555
Na7 O101 2.480163 1_555
Na7 O143 2.609128 1_555
Na7 O9 2.661057 1_555
Na7 O29 2.692656 1_555
Na8 O101 2.274909 1_555
Na8 O25 2.527747 1_555
Na8 O97 2.654354 1_555
Na8 O138 2.660905 1_655
Na8 O11 2.807907 1_555
Na8 O14 2.929281 1_655
Na8 O140 2.956017 1_655
Na9 O100 2.293585 1_555
Na9 O24 2.477405 1_555
Na9 O96 2.661954 1_555
Na9 O139 2.676010 1_555
Na9 O10 2.846022 1_555
Na9 O15 2.930715 1_555
Na9 O141 2.951369 1_555
Na10 O96 2.279505 1_555
Na10 O98 2.609458 1_555
Na10 O140 2.615351 1_545
Na10 O6 2.638959 1_555
Na10 O26 2.658059 1_555
Na11 O97 2.257673 1_555
Na11 O99 2.617989 1_555
Na11 O141 2.641516 1_545
Na11 O27 2.645079 1_555
Na11 O7 2.662455 1_555
Na11 O17 2.929509 1_545
Na11 O69 2.941233 1_545
Na12 O126 2.419007 1_555
Na12 O130 2.551699 1_555
Na12 O89 2.580229 1_455
Na12 O16 2.714062 1_555
Na12 O86 2.719764 1_565
Na12 O25 2.818652 1_455
Na12 O45 2.965685 1_455
Na13 O127 2.407778 1_555
Na13 O131 2.531121 1_555
Na13 O88 2.569543 1_555
Na13 O87 2.698659 1_565
Na13 O24 2.813860 1_555
Na13 O17 2.909219 1_555
Na13 O44 2.946209 1_555
Na14 O121 2.410161 1_555
Na14 O123 2.509553 1_555
Na14 O92 2.627019 1_555
Na14 O95 2.721722 1_555
Na14 O30 2.891577 1_555
Na14 O40 2.931878 1_555
Na14 O51 2.953765 1_554
Na14 O21 2.962971 1_555
Na15 O110 2.393623 1_555
Na15 O82 2.457754 1_555
Na15 O81 2.476090 1_555
Na15 O8 2.590387 1_555
Na15 O108 2.618654 1_555
Na15 O38 2.651788 1_556
Na16 O118 2.390145 1_555
Na16 O77 2.458581 1_555
Na16 O74 2.484049 1_545
Na16 O46 2.533673 1_555
Na16 O4 2.667467 1_555
Na16 O114 2.670483 1_555
Na17 O119 2.397306 1_555
Na17 O75 2.457355 1_545
Na17 O76 2.465077 1_655
Na17 O47 2.476438 1_555
Na17 O115 2.633616 1_555
Na17 O5 2.641844 1_555
Na18 O85 2.410573 1_555
Na18 O89 2.467327 1_545
Na18 O86 2.468959 1_655
Na18 O75 2.871430 1_545
Na18 O76 2.970912 1_655
Na18 O72 3.058037 1_645
Na19 O84 2.458320 1_555
Na19 O87 2.482669 1_555
Na19 O88 2.507606 1_545
Na19 O74 2.891170 1_545
Na19 O77 2.926952 1_555
Na19 O73 3.031891 1_545
Na20 O93 2.691832 1_456
Na20 O91 2.693019 1_446
Na20 O94 2.703644 1_556
Na20 O78 2.721684 1_555
Na20 O80 2.731670 1_545
Na20 O83 2.742451 1_445
Na21 O90 2.583831 1_555
Na21 O95 2.607311 1_565
Na21 O92 2.615791 1_565
Na21 O82 2.713005 1_554
Na21 O81 2.825219 1_554
Na21 O79 2.883909 1_564
Na22 O96 2.544363 1_555
Na22 O112 2.612424 1_555
Na22 O98 2.625770 1_555
Na22 O100 2.670454 1_555
Na22 O108 2.722280 1_555
Na22 O110 2.787546 1_555
Na23 O101 2.580587 1_555
Na23 O97 2.647373 1_555
Na23 O111 2.657977 1_555
Na23 O109 2.665961 1_555
Na23 O99 2.697867 1_555
Na23 O113 2.745563 1_555
Na24 O102 2.553580 1_555
Na24 O104 2.622200 1_555
Na24 O106 2.656250 1_555
Na24 O116 2.661197 1_555
Na24 O114 2.673091 1_555
Na24 O118 2.735468 1_555
Na25 O117 2.563062 1_555
Na25 O115 2.620097 1_555
Na25 O107 2.649462 1_555
Na25 O103 2.651983 1_555
Na25 O119 2.740038 1_555
Na25 O105 2.803759 1_555
Na26 O120 2.448689 1_555
Na26 O122 2.474023 1_555
Na26 O124 2.525183 1_555
Na26 O134 2.900493 1_555
Na26 O136 2.907952 1_555
Na26 O132 2.953228 1_555
Na27 O123 2.204781 1_555
Na27 O125 2.476366 1_555
Na27 O121 2.607415 1_555
Na27 O133 2.898734 1_555
Na27 O135 3.005325 1_555
Na27 O137 3.014312 1_555
Na28 O130 2.248523 1_555
Na28 O128 2.585082 1_555
Na28 O126 2.632846 1_555
Na28 O138 2.835435 1_555
Na28 O140 2.967614 1_555
Na28 O142 2.980436 1_555
Na29 O131 2.235488 1_555
Na29 O129 2.551245 1_555
Na29 O127 2.608229 1_555
Na29 O139 2.865082 1_555
Na29 O141 3.000073 1_555
Na29 O143 3.002291 1_555
Ca0 O0 2.166035 1_565
Ca0 O3 2.171779 1_455
Ca0 O5 2.246143 1_465
Ca0 O72 2.347601 1_555
Ca0 O75 2.389744 1_455
Ca0 O76 2.390614 1_565
Ca1 O2 2.156593 1_555
Ca1 O1 2.173645 1_565
Ca1 O4 2.209802 1_565
Ca1 O73 2.339412 1_555
Ca1 O77 2.403405 1_565
Ca1 O74 2.415559 1_555
Ca2 O9 2.158880 1_445
Ca2 O6 2.186126 1_555
Ca2 O11 2.187933 1_455
Ca2 O78 2.367048 1_555
Ca2 O83 2.388001 1_445
Ca2 O80 2.396725 1_545
Ca3 O10 2.156093 1_555
Ca3 O7 2.161941 1_555
Ca3 O8 2.216188 1_545
Ca3 O79 2.353057 1_555
Ca3 O81 2.407098 1_545
Ca3 O82 2.432123 1_545
Ca4 O24 2.172096 1_555
Ca4 O96 2.276077 1_555
Ca4 O98 2.306090 1_555
Ca4 O100 2.326071 1_555
Ca4 O28 2.329340 1_555
Ca4 O26 2.331684 1_555
Ca5 O25 2.156971 1_555
Ca5 O97 2.276048 1_555
Ca5 O101 2.307586 1_555
Ca5 O99 2.317531 1_555
Ca5 O27 2.334575 1_555
Ca5 O29 2.347469 1_555
Ca6 O30 2.161718 1_555
Ca6 O102 2.297184 1_555
Ca6 O106 2.312268 1_555
Ca6 O34 2.322381 1_555
Ca6 O104 2.333703 1_555
Ca6 O32 2.342403 1_555
Ca7 O103 2.274751 1_555
Ca7 O107 2.277613 1_555
Ca7 O105 2.298684 1_555
Ca7 O33 2.302843 1_555
Ca7 O31 2.321040 1_555
Ca7 O35 2.322301 1_555
Ca8 O38 2.245248 1_556
Ca8 O36 2.401485 1_556
Ca8 O40 2.425818 1_556
Ca8 O108 2.446714 1_555
Ca8 O110 2.574328 1_555
Ca8 O112 2.578884 1_555
Ca9 O39 2.433088 1_556
Ca9 O109 2.433401 1_555
Ca9 O37 2.435542 1_556
Ca9 O111 2.436071 1_555
Ca9 O41 2.449606 1_556
Ca9 O113 2.454434 1_555
Ca10 O46 2.243478 1_555
Ca10 O42 2.326371 1_555
Ca10 O44 2.390608 1_555
Ca10 O114 2.532922 1_555
Ca10 O118 2.618903 1_555
Ca10 O116 2.647363 1_555
Ca11 O47 2.243113 1_555
Ca11 O43 2.334626 1_555
Ca11 O45 2.381544 1_555
Ca11 O115 2.523754 1_555
Ca11 O119 2.641025 1_555
Ca11 O117 2.643491 1_555
Ca12 O50 2.213369 1_554
Ca12 O52 2.214806 1_554
Ca12 O48 2.240251 1_554
Ca12 O120 2.357743 1_555
Ca12 O124 2.359904 1_555
Ca12 O122 2.383714 1_555
Ca13 O53 2.200637 1_554
Ca13 O123 2.202950 1_555
Ca13 O49 2.222133 1_554
Ca13 O51 2.292559 1_554
Ca13 O125 2.339840 1_555
Ca13 O121 2.368463 1_555
Ca14 O130 2.185311 1_555
Ca14 O56 2.219952 1_555
Ca14 O54 2.256674 1_555
Ca14 O58 2.299975 1_555
Ca14 O128 2.309623 1_555
Ca14 O126 2.347549 1_555
Ca15 O131 2.197308 1_555
Ca15 O57 2.217767 1_555
Ca15 O55 2.260862 1_555
Ca15 O59 2.291800 1_555
Ca15 O129 2.305624 1_555
Ca15 O127 2.354228 1_555
Nb0 O14 1.901508 1_655
Nb0 O13 1.905766 1_545
Nb0 O85 1.928461 1_555
Nb0 O16 2.069170 1_645
Nb0 O89 2.305141 1_545
Nb0 O86 2.319292 1_655
Nb1 O15 1.901445 1_555
Nb1 O12 1.908620 1_545
Nb1 O84 1.927367 1_555
Nb1 O17 2.068207 1_545
Nb1 O88 2.289499 1_545
Nb1 O87 2.306710 1_555
Nb2 O19 1.911942 1_555
Nb2 O22 1.912583 1_655
Nb2 O20 1.926578 1_665
Nb2 O94 2.167285 1_665
Nb2 O93 2.179831 1_565
Nb2 O91 2.202682 1_555
Nb3 O23 1.911096 1_555
Nb3 O90 1.911660 1_555
Nb3 O18 1.912960 1_555
Nb3 O21 2.080906 1_565
Nb3 O92 2.270699 1_565
Nb3 O95 2.299892 1_565
Nb4 O134 1.935137 1_555
Nb4 O132 1.941833 1_555
Nb4 O136 1.946861 1_555
Nb4 O64 2.088887 1_555
Nb4 O62 2.113000 1_555
Nb4 O60 2.114610 1_555
Nb5 O137 1.920543 1_555
Nb5 O133 1.935310 1_555
Nb5 O135 1.952779 1_555
Nb5 O65 2.098950 1_555
Nb5 O61 2.108262 1_555
Nb5 O63 2.158117 1_555
Nb6 O140 1.918586 1_555
Nb6 O138 1.947178 1_555
Nb6 O142 1.951120 1_555
Nb6 O68 2.076287 1_555
Nb6 O66 2.099748 1_555
Nb6 O70 2.214246 1_555
Nb7 O139 1.928795 1_555
Nb7 O141 1.934795 1_555
Nb7 O143 1.935012 1_555
Nb7 O71 2.108909 1_555
Nb7 O69 2.137802 1_555
Nb7 O67 2.143305 1_555
O0 Si0 1.575553 1_545
O1 Si1 1.574051 1_555
O2 Si2 1.571980 1_555
O3 Si3 1.577912 1_555
O4 Si5 1.589542 1_555
O5 Si4 1.585313 1_655
O6 Si6 1.572114 1_555
O7 Si7 1.575667 1_555
O8 Si9 1.591952 1_555
O9 Si8 1.575043 1_655
O10 Si10 1.575274 1_545
O11 Si11 1.573080 1_545
O12 Si10 1.731465 1_555
O13 Si11 1.733411 1_555
O14 Si6 1.724285 1_555
O15 Si7 1.719812 1_555
O16 Si8 1.699321 1_555
O17 Si9 1.698479 1_555
O18 Si2 1.717856 1_555
O19 Si3 1.728680 1_555
O20 Si4 1.725855 1_555
O21 Si5 1.693680 1_555
O22 Si0 1.728278 1_555
O23 Si1 1.709931 1_565
O24 Si12 1.618641 1_555
O25 Si13 1.614687 1_555
O26 S0 1.472723 1_555
O27 S1 1.470851 1_555
O28 S2 1.473832 1_555
O29 S3 1.471790 1_555
O30 Si14 1.618611 1_555
O31 S4 1.480427 1_555
O32 S5 1.475456 1_555
O33 S6 1.479552 1_555
O34 S7 1.477580 1_555
O35 S8 1.482068 1_555
O36 S7 1.468214 1_555
O37 S8 1.467187 1_555
O38 Si14 1.634714 1_555
O39 S4 1.471581 1_555
O40 S5 1.477887 1_555
O41 S6 1.468892 1_555
O42 S0 1.478378 1_555
O43 S1 1.478860 1_555
O44 S2 1.481706 1_555
O45 S3 1.485046 1_555
O46 Si12 1.642573 1_555
O47 Si13 1.645319 1_555
O48 S9 1.455929 1_555
O49 S10 1.453524 1_555
O50 S11 1.461873 1_555
O51 S12 1.467667 1_555
O52 S13 1.459392 1_555
O53 S14 1.457440 1_555
O54 S15 1.446444 1_555
O55 S16 1.446136 1_555
O56 S17 1.455818 1_555
O57 S18 1.455439 1_555
O58 S19 1.463789 1_555
O59 S20 1.462757 1_555
O60 S19 1.552601 1_555
O61 S20 1.551740 1_555
O62 S15 1.543679 1_555
O63 S16 1.535315 1_555
O64 S17 1.555840 1_555
O65 S18 1.555441 1_555
O66 S11 1.550215 1_555
O67 S12 1.542447 1_555
O68 S13 1.564109 1_555
O69 S14 1.542240 1_555
O70 S9 1.523702 1_555
O71 S10 1.551485 1_555
O72 S19 1.458399 1_555
O73 S20 1.458650 1_555
O74 S15 1.479987 1_555
O75 S16 1.485102 1_555
O76 S17 1.480973 1_555
O77 S18 1.479052 1_555
O78 S11 1.465827 1_555
O79 S12 1.463570 1_555
O80 S13 1.464099 1_555
O81 S14 1.480156 1_555
O82 S9 1.489080 1_555
O83 S10 1.469149 1_555
O84 Si12 1.728760 1_555
O85 Si13 1.729405 1_555
O86 S0 1.509390 1_555
O87 S1 1.512518 1_555
O88 S2 1.520661 1_555
O89 S3 1.519240 1_555
O90 Si14 1.733855 1_555
O91 S4 1.526389 1_555
O92 S5 1.525022 1_555
O93 S6 1.527704 1_555
O94 S7 1.525293 1_555
O95 S8 1.520710 1_555
O96 Si10 1.600748 1_545
O97 Si11 1.600048 1_545
O98 Si6 1.599623 1_555
O99 Si7 1.593574 1_555
O100 Si9 1.610787 1_555
O101 Si8 1.609763 1_655
O102 Si2 1.600343 1_555
O103 Si3 1.601884 1_555
O104 Si5 1.610993 1_555
O105 Si4 1.601685 1_655
O106 Si0 1.595015 1_545
O107 Si1 1.603946 1_555
O108 S9 1.496208 1_555
O109 S10 1.485465 1_555
O110 S12 1.493892 1_555
O111 S11 1.483313 1_655
O112 S13 1.479970 1_545
O113 S14 1.476110 1_545
O114 S15 1.491520 1_545
O115 S16 1.494901 1_545
O116 S17 1.466999 1_555
O117 S18 1.471035 1_555
O118 S20 1.493120 1_555
O119 S19 1.492961 1_655
O120 S7 1.485459 1_555
O121 S8 1.491860 1_555
O122 S4 1.488479 1_455
O123 Si14 1.630292 1_555
O124 S5 1.482782 1_565
O125 S6 1.482221 1_565
O126 S0 1.492639 1_565
O127 S1 1.490689 1_565
O128 S2 1.476353 1_555
O129 S3 1.477354 1_555
O130 Si13 1.633707 1_455
O131 Si12 1.633278 1_555
O132 Si0 1.695939 1_555
O133 Si1 1.694833 1_565
O134 Si2 1.708529 1_555
O135 Si3 1.695753 1_555
O136 Si4 1.699508 1_555
O137 Si5 1.732304 1_555
O138 Si6 1.695489 1_555
O139 Si7 1.696777 1_555
O140 Si8 1.730648 1_555
O141 Si9 1.726396 1_555
O142 Si10 1.696856 1_555
O143 Si11 1.705784 1_555
