# generated using pymatgen
data_MgV4O7F5
_symmetry_space_group_name_H-M   'P 1'
_cell_length_a   5.21419026
_cell_length_b   7.36943499
_cell_length_c   5.45852815
_cell_angle_alpha   93.20035617
_cell_angle_beta   88.90103167
_cell_angle_gamma   89.16931152
_symmetry_Int_Tables_number   1
_chemical_formula_structural   MgV4O7F5
_chemical_formula_sum   'Mg1 V4 O7 F5'
_cell_volume   209.35631199
_cell_formula_units_Z   1
loop_
 _symmetry_equiv_pos_site_id
 _symmetry_equiv_pos_as_xyz
  1  'x, y, z'
loop_
 _atom_site_type_symbol
 _atom_site_label
 _atom_site_symmetry_multiplicity
 _atom_site_fract_x
 _atom_site_fract_y
 _atom_site_fract_z
 _atom_site_occupancy
  Mg  Mg0  1  0.97853900  0.29994800  0.42257000  1
  V  V0  1  0.44589400  0.49851800  0.49396000  1
  V  V1  1  0.53449700  0.00039000  0.47373400  1
  V  V2  1  0.01755400  0.52657900  0.99154700  1
  V  V3  1  0.03060700  0.99841100  0.97800900  1
  O  O0  1  0.70905100  0.95488300  0.21251800  1
  O  O1  1  0.61628700  0.25426000  0.51291000  1
  O  O2  1  0.42586200  0.73035400  0.50572600  1
  O  O3  1  0.28002200  0.43894400  0.22397700  1
  O  O4  1  0.27516900  0.04301200  0.78887300  1
  O  O5  1  0.18449400  0.43250700  0.69348500  1
  O  O6  1  0.10612700  0.74571000  0.00832000  1
  F  F0  1  0.90095700  0.25289500  0.03748600  1
  F  F1  1  0.80610400  0.53279900  0.30951400  1
  F  F2  1  0.79415300  0.94290900  0.71301200  1
  F  F3  1  0.70520600  0.54067100  0.80945000  1
  F  F4  1  0.18947800  0.06614000  0.31241000  1
loop_
_geom_bond_atom_site_label_1
_geom_bond_atom_site_label_2
_geom_bond_distance
_geom_bond_site_symmetry_2
Mg0 O1 1.981298 1_555
Mg0 O5 2.055339 1_655
Mg0 O3 2.191073 1_655
O0 V1 1.691714 1_565
O0 V3 2.128796 1_654
O1 V1 1.926072 1_555
O1 V0 2.004536 1_555
O2 V0 1.707725 1_555
O2 V1 2.092653 1_565
O3 V0 1.760755 1_555
O3 V2 2.008025 1_554
O4 V3 1.673186 1_545
O4 V1 2.173538 1_555
O5 V0 1.817139 1_555
O5 V2 1.920314 1_555
O6 V2 1.684109 1_554
O6 V3 1.914706 1_554
F0 V3 1.991577 1_644
F0 V2 2.141621 1_654
F0 Mg0 2.158136 1_555
F1 V2 2.036262 1_654
F1 Mg0 2.056358 1_555
F1 V0 2.138866 1_555
F2 V3 1.948511 1_655
F2 V1 1.957387 1_565
F3 V2 1.928724 1_655
F3 V0 2.220836 1_555
F4 V3 2.058025 1_544
F4 V1 2.080802 1_555
F4 Mg0 2.084261 1_455
