# generated using pymatgen
data_RbBrO3
_symmetry_space_group_name_H-M   'P 1'
_cell_length_a   4.46698570
_cell_length_b   4.46698527
_cell_length_c   4.46698608
_cell_angle_alpha   87.66332651
_cell_angle_beta   87.66333298
_cell_angle_gamma   87.66332228
_symmetry_Int_Tables_number   1
_chemical_formula_structural   RbBrO3
_chemical_formula_sum   'Rb1 Br1 O3'
_cell_volume   88.91758518
_cell_formula_units_Z   1
loop_
 _symmetry_equiv_pos_site_id
 _symmetry_equiv_pos_as_xyz
  1  'x, y, z'
loop_
 _atom_site_type_symbol
 _atom_site_label
 _atom_site_symmetry_multiplicity
 _atom_site_fract_x
 _atom_site_fract_y
 _atom_site_fract_z
 _atom_site_occupancy
  Rb  Rb0  1  0.00182951  0.00182951  0.00182951  1
  Br  Br0  1  0.47342567  0.47342567  0.47342567  1
  O  O0  1  0.10317306  0.52876638  0.52876638  1
  O  O1  1  0.52876638  0.52876638  0.10317306  1
  O  O2  1  0.52876638  0.10317306  0.52876638  1
loop_
_geom_bond_atom_site_label_1
_geom_bond_atom_site_label_2
_geom_bond_distance
_geom_bond_site_symmetry_2
Br0 O2 1.672111 1_555
Br0 O0 1.672111 1_555
Br0 O1 1.672111 1_555
O0 Rb0 3.056795 1_566
O0 Rb0 3.132757 1_565
O0 Rb0 3.132757 1_556
O0 Rb0 3.451294 1_555
O1 Rb0 3.056795 1_665
O1 Rb0 3.132756 1_565
O1 Rb0 3.132756 1_655
O1 Rb0 3.451294 1_555
O2 Rb0 3.056795 1_656
O2 Rb0 3.132757 1_655
O2 Rb0 3.132757 1_556
O2 Rb0 3.451294 1_555
