# generated using pymatgen
data_Na14Al4Zn4Si5S7O48
_symmetry_space_group_name_H-M   'P 1'
_cell_length_a   17.91293598
_cell_length_b   8.88674165
_cell_length_c   21.76532485
_cell_angle_alpha   89.93991557
_cell_angle_beta   90.37462665
_cell_angle_gamma   119.73166115
_symmetry_Int_Tables_number   1
_chemical_formula_structural   Na14Al4Zn4Si5S7O48
_chemical_formula_sum   'Na42 Al12 Zn12 Si15 S21 O144'
_cell_volume   3008.58592711
_cell_formula_units_Z   3
loop_
 _symmetry_equiv_pos_site_id
 _symmetry_equiv_pos_as_xyz
  1  'x, y, z'
loop_
 _atom_site_type_symbol
 _atom_site_label
 _atom_site_symmetry_multiplicity
 _atom_site_fract_x
 _atom_site_fract_y
 _atom_site_fract_z
 _atom_site_occupancy
  Na  Na0  1  0.81090655  0.99867801  0.24990351  1
  Na  Na1  1  0.18494121  0.35655397  0.25285401  1
  Na  Na2  1  0.68240434  0.35991771  0.25232787  1
  Na  Na3  1  0.00541237  0.64564561  0.24578073  1
  Na  Na4  1  0.50289722  0.63997720  0.24105751  1
  Na  Na5  1  0.31950800  0.62325746  0.75246626  1
  Na  Na6  1  0.00286067  0.36571336  0.74169870  1
  Na  Na7  1  0.50355558  0.37003828  0.74561683  1
  Na  Na8  1  0.18559310  0.00993238  0.75172436  1
  Na  Na9  1  0.67697885  0.00204110  0.75122070  1
  Na  Na10  1  0.14954053  0.32594228  0.58311309  1
  Na  Na11  1  0.65363736  0.32436622  0.58144301  1
  Na  Na12  1  0.32906419  0.97819678  0.58999983  1
  Na  Na13  1  0.83249514  0.98469880  0.58571313  1
  Na  Na14  1  0.15609838  0.98603076  0.07520207  1
  Na  Na15  1  0.64785635  0.96957789  0.07677125  1
  Na  Na16  1  0.33396636  0.68096697  0.08204161  1
  Na  Na17  1  0.82639149  0.67889123  0.08302729  1
  Na  Na18  1  0.48073871  0.67261625  0.91812511  1
  Na  Na19  1  0.98465864  0.67273191  0.91584679  1
  Na  Na20  1  0.34916090  0.04143984  0.91156720  1
  Na  Na21  1  0.84700256  0.03069472  0.91243050  1
  Na  Na22  1  0.16811747  0.28129485  0.91511581  1
  Na  Na23  1  0.66581710  0.27876800  0.91540782  1
  Na  Na24  1  0.48522190  0.29789634  0.41913761  1
  Na  Na25  1  0.98235257  0.29440640  0.42923688  1
  Na  Na26  1  0.16808561  0.05694643  0.41962570  1
  Na  Na27  1  0.66732029  0.05315098  0.41855374  1
  Na  Na28  1  0.34931116  0.66243425  0.41703294  1
  Na  Na29  1  0.84703807  0.65699229  0.41696381  1
  Na  Na30  1  0.00806362  0.00922770  0.50464763  1
  Na  Na31  1  0.51000453  0.00072548  0.50385801  1
  Na  Na32  1  0.00961276  0.02048828  0.00052644  1
  Na  Na33  1  0.50757065  0.00616378  0.00055080  1
  Na  Na34  1  0.33025325  0.33494353  0.83025650  1
  Na  Na35  1  0.82128275  0.33270909  0.82964926  1
  Na  Na36  1  0.32437869  0.31323480  0.33112046  1
  Na  Na37  1  0.82126167  0.32431656  0.33563832  1
  Na  Na38  1  0.16995757  0.67017497  0.16517265  1
  Na  Na39  1  0.65647761  0.64775070  0.16361019  1
  Na  Na40  1  0.15840396  0.66497714  0.66575930  1
  Na  Na41  1  0.66278827  0.66845858  0.66889975  1
  Al  Al0  1  0.01003236  0.02066901  0.64655752  1
  Al  Al1  1  0.51954321  0.00890229  0.65706060  1
  Al  Al2  1  0.01245373  0.00654287  0.15103941  1
  Al  Al3  1  0.51092035  0.00153999  0.14515391  1
  Al  Al4  1  0.82555796  0.31770236  0.67763777  1
  Al  Al5  1  0.32574914  0.32921695  0.17686405  1
  Al  Al6  1  0.16447481  0.65596085  0.01603222  1
  Al  Al7  1  0.64541127  0.64825620  0.02302996  1
  Al  Al8  1  0.15039991  0.64461355  0.52585968  1
  Al  Al9  1  0.66143642  0.66448280  0.51890238  1
  Al  Al10  1  0.17480019  0.68344795  0.31537730  1
  Al  Al11  1  0.66471764  0.66801286  0.81005445  1
  Zn  Zn0  1  0.01996193  0.02800717  0.34845474  1
  Zn  Zn1  1  0.51492344  0.02974949  0.34850030  1
  Zn  Zn2  1  0.01267440  0.99700789  0.84816358  1
  Zn  Zn3  1  0.52178086  0.99426692  0.84158957  1
  Zn  Zn4  1  0.32576056  0.32594927  0.68339950  1
  Zn  Zn5  1  0.81566669  0.32062961  0.17646449  1
  Zn  Zn6  1  0.32319087  0.32881252  0.99108596  1
  Zn  Zn7  1  0.81769710  0.30550608  0.98516728  1
  Zn  Zn8  1  0.31758193  0.33197568  0.48868877  1
  Zn  Zn9  1  0.82326796  0.31858449  0.49331440  1
  Zn  Zn10  1  0.66335865  0.66332605  0.31668143  1
  Zn  Zn11  1  0.16560534  0.66633225  0.81511961  1
  Si  Si0  1  0.15603488  0.00089166  0.24857674  1
  Si  Si1  1  0.64894534  0.99678204  0.25115732  1
  Si  Si2  1  0.14666492  0.30069656  0.75183464  1
  Si  Si3  1  0.65766758  0.31194370  0.74881432  1
  Si  Si4  1  0.49819090  0.69671197  0.75231103  1
  Si  Si5  1  0.97605293  0.32948512  0.58543614  1
  Si  Si6  1  0.17979530  0.02179245  0.58303828  1
  Si  Si7  1  0.67876698  0.02150524  0.58242755  1
  Si  Si8  1  0.47539409  0.62156707  0.08550514  1
  Si  Si9  1  0.17856958  0.33554285  0.08391414  1
  Si  Si10  1  0.67812478  0.33973975  0.08230024  1
  Si  Si11  1  0.16894280  0.95461135  0.91861096  1
  Si  Si12  1  0.66823845  0.94531653  0.91738282  1
  Si  Si13  1  0.16717451  0.39120044  0.41592243  1
  Si  Si14  1  0.66913366  0.38308307  0.41789490  1
  S  S0  1  0.35255973  0.70906756  0.25148105  1
  S  S1  1  0.86156916  0.71936584  0.24861231  1
  S  S2  1  -0.00003399  0.29199857  0.24935470  1
  S  S3  1  0.49151123  0.28029894  0.24688901  1
  S  S4  1  0.99177093  0.70309127  0.74664680  1
  S  S5  1  0.36006851  0.99958738  0.74880504  1
  S  S6  1  0.85419129  0.99873540  0.75053206  1
  S  S7  1  0.48362459  0.33627794  0.58128233  1
  S  S8  1  0.33656316  0.64466804  0.58247542  1
  S  S9  1  0.83521024  0.63272292  0.58382287  1
  S  S10  1  0.98279210  0.63112647  0.08437415  1
  S  S11  1  0.33597512  0.03865589  0.08431465  1
  S  S12  1  0.83998842  0.03375125  0.08529954  1
  S  S13  1  0.31139360  0.66883251  0.91855314  1
  S  S14  1  0.81007202  0.66872173  0.91589169  1
  S  S15  1  0.01832792  0.37573132  0.91931332  1
  S  S16  1  0.52342645  0.37965748  0.91469188  1
  S  S17  1  0.31148361  0.95415929  0.41628425  1
  S  S18  1  0.81309503  0.95617166  0.41647443  1
  S  S19  1  0.02522259  0.66722998  0.41418313  1
  S  S20  1  0.51845084  0.66210181  0.41852951  1
  O  O0  1  0.12262944  0.05245230  0.31058097  1
  O  O1  1  0.61351471  0.03325800  0.31485290  1
  O  O2  1  0.40291781  0.78875583  0.30812727  1
  O  O3  1  0.90888830  0.80385002  0.30619211  1
  O  O4  1  0.48032123  0.19385372  0.30763086  1
  O  O5  1  0.98228896  0.19171215  0.30754807  1
  O  O6  1  0.10904781  0.19422792  0.81557154  1
  O  O7  1  0.62396286  0.19376166  0.81106493  1
  O  O8  1  0.47010172  0.75754396  0.81507220  1
  O  O9  1  0.97990054  0.76553580  0.80741153  1
  O  O10  1  0.40766861  0.01442986  0.80663021  1
  O  O11  1  0.90484540  0.02249848  0.80726893  1
  O  O12  1  0.40702235  0.98724082  0.69348419  1
  O  O13  1  0.89626160  0.97791172  0.69524686  1
  O  O14  1  0.08170408  0.19885359  0.69373847  1
  O  O15  1  0.58828870  0.21857928  0.69113843  1
  O  O16  1  -0.00013100  0.82384547  0.69665060  1
  O  O17  1  0.51762729  0.83991119  0.69853446  1
  O  O18  1  0.39360670  0.81258818  0.19598759  1
  O  O19  1  0.90738193  0.82972460  0.19379821  1
  O  O20  1  0.01071094  0.19381980  0.19806759  1
  O  O21  1  0.50025014  0.17708093  0.19691378  1
  O  O22  1  0.08468066  0.95508906  0.19251232  1
  O  O23  1  0.58442880  0.97233508  0.19352287  1
  O  O24  1  0.44606909  0.36188916  0.63636429  1
  O  O25  1  0.92574891  0.35283299  0.64408970  1
  O  O26  1  0.24731491  0.10389834  0.64072655  1
  O  O27  1  0.74750427  0.11688295  0.63945875  1
  O  O28  1  0.32180285  0.53295902  0.63589289  1
  O  O29  1  0.81848287  0.50618712  0.63374409  1
  O  O30  1  0.42594837  0.49909395  0.14529799  1
  O  O31  1  0.94388712  0.52841567  0.14059229  1
  O  O32  1  0.31888907  0.13052901  0.13493376  1
  O  O33  1  0.82812719  0.11856857  0.14049907  1
  O  O34  1  0.24633388  0.37668245  0.14190240  1
  O  O35  1  0.74245415  0.39971202  0.14290299  1
  O  O36  1  0.21050089  0.27847096  0.02315281  1
  O  O37  1  0.71802289  0.28478412  0.02478513  1
  O  O38  1  0.41924590  0.54615050  0.02285010  1
  O  O39  1  0.93016872  0.55106908  0.02891181  1
  O  O40  1  0.35157787  0.13137078  0.02604458  1
  O  O41  1  0.85692750  0.14017488  0.02939947  1
  O  O42  1  0.21447522  0.14645453  0.52166723  1
  O  O43  1  0.71140686  0.13886693  0.52052890  1
  O  O44  1  0.35378446  0.57310272  0.52540864  1
  O  O45  1  0.85154314  0.57181351  0.52477485  1
  O  O46  1  0.43137890  0.31490155  0.52467965  1
  O  O47  1  0.92120760  0.29664750  0.52185149  1
  O  O48  1  0.26310377  0.67689365  0.97409673  1
  O  O49  1  0.77098074  0.68690482  0.97301488  1
  O  O50  1  0.07853936  0.46526117  0.97205189  1
  O  O51  1  0.57759587  0.46386539  0.97034506  1
  O  O52  1  0.15799022  0.82791391  0.97859867  1
  O  O53  1  0.66002859  0.83033435  0.97920336  1
  O  O54  1  0.27059274  0.85392292  0.47167432  1
  O  O55  1  0.76668669  0.85019900  0.47133045  1
  O  O56  1  0.15752194  0.49018199  0.47625528  1
  O  O57  1  0.65889157  0.49038939  0.47635171  1
  O  O58  1  0.07865698  0.68971067  0.46939948  1
  O  O59  1  0.57860037  0.69102433  0.47062739  1
  O  O60  1  0.06922538  0.65412913  0.35750435  1
  O  O61  1  0.55352386  0.63964791  0.35988332  1
  O  O62  1  0.25562750  0.87262146  0.36065922  1
  O  O63  1  0.76351080  0.88017020  0.35887575  1
  O  O64  1  0.17678879  0.50749558  0.35378810  1
  O  O65  1  0.68244663  0.48841322  0.35295713  1
  O  O66  1  0.05372115  0.46918691  0.86127803  1
  O  O67  1  0.56765069  0.48274174  0.85900746  1
  O  O68  1  0.18112051  0.87287385  0.85456985  1
  O  O69  1  0.68077493  0.84999954  0.85699108  1
  O  O70  1  0.26165036  0.64616715  0.86171674  1
  O  O71  1  0.75415019  0.64136994  0.86146647  1
  O  O72  1  0.01362626  0.82237022  0.41238416  1
  O  O73  1  0.50599648  0.81544478  0.41787605  1
  O  O74  1  0.39658941  0.96366923  0.41022755  1
  O  O75  1  0.89798532  0.96310812  0.41572735  1
  O  O76  1  0.07987321  0.19721294  0.41681949  1
  O  O77  1  0.57914587  0.19230931  0.41972386  1
  O  O78  1  0.00502482  0.19700129  0.91891733  1
  O  O79  1  0.51236428  0.20293326  0.91273165  1
  O  O80  1  0.07901195  0.96591829  0.92030092  1
  O  O81  1  0.58252644  0.96836284  0.91884876  1
  O  O82  1  0.39462333  0.83246030  0.92052395  1
  O  O83  1  0.89635431  0.82928973  0.91102921  1
  O  O84  1  0.49062987  0.17425798  0.58501807  1
  O  O85  1  0.98427570  0.15031929  0.59244619  1
  O  O86  1  0.08514859  0.00597028  0.59424639  1
  O  O87  1  0.58583008  0.01355166  0.59376746  1
  O  O88  1  0.40989992  0.82383952  0.59013510  1
  O  O89  1  0.90797197  0.80840972  0.59589631  1
  O  O90  1  0.48476145  0.81814350  0.09371154  1
  O  O91  1  0.98844804  0.80817605  0.08928433  1
  O  O92  1  0.40919502  0.00898770  0.09727143  1
  O  O93  1  0.91412041  0.00160500  0.09381351  1
  O  O94  1  0.08447803  0.16068507  0.09684293  1
  O  O95  1  0.58452962  0.16510758  0.09309418  1
  O  O96  1  0.35042433  0.15581420  0.74641970  1
  O  O97  1  0.84585253  0.15999982  0.74592000  1
  O  O98  1  0.24142212  0.31800399  0.74635352  1
  O  O99  1  0.74990550  0.31781423  0.73452774  1
  O  O100  1  0.41837176  0.50235526  0.74040484  1
  O  O101  1  0.91781708  0.52530995  0.73960624  1
  O  O102  1  0.34384504  0.53118778  0.24774547  1
  O  O103  1  0.85657003  0.54712538  0.24611536  1
  O  O104  1  0.41712200  0.30909147  0.24027024  1
  O  O105  1  0.92669256  0.32252175  0.24049051  1
  O  O106  1  0.24904570  0.17646026  0.23477658  1
  O  O107  1  0.74643160  0.16866708  0.24558268  1
  O  O108  1  0.32338870  0.51569619  0.92119634  1
  O  O109  1  0.82454577  0.51618453  0.91802602  1
  O  O110  1  0.43881830  0.36899986  0.91766032  1
  O  O111  1  0.93423889  0.36891039  0.92753649  1
  O  O112  1  0.25566432  0.14832099  0.92228477  1
  O  O113  1  0.75598686  0.13991168  0.91650793  1
  O  O114  1  0.32501748  0.13398615  0.41775460  1
  O  O115  1  0.82571441  0.13415553  0.41875994  1
  O  O116  1  0.25430100  0.37109630  0.41548325  1
  O  O117  1  0.75589421  0.36285959  0.42186981  1
  O  O118  1  0.43369149  0.50176451  0.42569042  1
  O  O119  1  0.93995029  0.50957925  0.41547315  1
  O  O120  1  0.17529519  0.51855470  0.07470268  1
  O  O121  1  0.67457292  0.51840764  0.06975384  1
  O  O122  1  0.07232605  0.66057645  0.07968445  1
  O  O123  1  0.57479976  0.65702523  0.08118232  1
  O  O124  1  0.25551106  0.86223253  0.08155849  1
  O  O125  1  0.76004531  0.86222168  0.07995563  1
  O  O126  1  0.17575263  0.83469426  0.57049437  1
  O  O127  1  0.67589447  0.83254863  0.57327844  1
  O  O128  1  0.25568256  0.65572596  0.57542555  1
  O  O129  1  0.75431227  0.64683345  0.58003170  1
  O  O130  1  0.07574833  0.49219662  0.58126981  1
  O  O131  1  0.57392331  0.48908000  0.57582527  1
  O  O132  1  0.15774440  0.81560785  0.25770295  1
  O  O133  1  0.65641055  0.81790101  0.25210525  1
  O  O134  1  0.26303628  0.68453193  0.25433457  1
  O  O135  1  0.77409252  0.69771264  0.24644211  1
  O  O136  1  0.08134759  0.46379126  0.25176519  1
  O  O137  1  0.57251246  0.45287624  0.24656053  1
  O  O138  1  0.15461079  0.49467296  0.75240259  1
  O  O139  1  0.66198426  0.49960169  0.75832151  1
  O  O140  1  0.07310931  0.69451632  0.74636071  1
  O  O141  1  0.58938158  0.69034520  0.75699405  1
  O  O142  1  0.27331349  0.84197519  0.74666601  1
  O  O143  1  0.76582278  0.84576577  0.75327154  1
loop_
_geom_bond_atom_site_label_1
_geom_bond_atom_site_label_2
_geom_bond_distance
_geom_bond_site_symmetry_2
Na0 O107 2.313783 1_565
Na0 O133 2.415328 1_555
Na0 O135 2.417515 1_555
Na0 O33 2.564923 1_565
Na0 O63 2.567034 1_555
Na0 O105 2.590356 1_565
Na1 O106 2.421761 1_555
Na1 O136 2.470970 1_555
Na1 O102 2.478957 1_555
Na1 O134 2.531519 1_555
Na1 O64 2.617538 1_555
Na1 O34 2.629035 1_555
Na1 O0 2.673415 1_555
Na1 O20 2.954991 1_555
Na2 O65 2.470914 1_555
Na2 O107 2.482293 1_555
Na2 O137 2.486491 1_555
Na2 O35 2.570776 1_555
Na2 O135 2.614756 1_555
Na2 O103 2.715917 1_555
Na2 O1 2.874429 1_555
Na3 O103 2.357989 1_455
Na3 O132 2.387073 1_555
Na3 O105 2.495915 1_455
Na3 O31 2.524828 1_455
Na3 O136 2.580031 1_555
Na3 O22 2.657902 1_555
Na3 O60 2.665340 1_555
Na4 O133 2.408148 1_555
Na4 O30 2.463263 1_555
Na4 O102 2.519172 1_555
Na4 O137 2.527496 1_555
Na4 O104 2.554609 1_555
Na4 O61 2.735549 1_555
Na4 O23 2.767993 1_555
Na5 O98 2.359605 1_555
Na5 O142 2.464143 1_555
Na5 O100 2.500700 1_555
Na5 O138 2.585097 1_555
Na5 O70 2.648090 1_555
Na5 O28 2.668643 1_555
Na5 O8 2.705571 1_555
Na6 O138 2.378887 1_555
Na6 O97 2.482688 1_455
Na6 O25 2.497971 1_455
Na6 O101 2.544863 1_455
Na6 O140 2.546307 1_555
Na6 O14 2.717144 1_555
Na6 O66 2.755468 1_555
Na7 O100 2.345423 1_555
Na7 O96 2.443301 1_555
Na7 O141 2.486615 1_555
Na7 O139 2.491055 1_555
Na7 O24 2.571866 1_555
Na7 O67 2.690693 1_555
Na7 O15 2.752207 1_555
Na8 O98 2.407126 1_555
Na8 O140 2.515169 1_545
Na8 O68 2.529924 1_545
Na8 O96 2.572812 1_555
Na8 O26 2.621305 1_555
Na8 O142 2.652912 1_545
Na9 O141 2.416892 1_545
Na9 O99 2.466021 1_555
Na9 O143 2.579650 1_545
Na9 O97 2.631907 1_555
Na9 O7 2.669645 1_555
Na9 O69 2.685626 1_545
Na9 O27 2.703869 1_555
Na9 O17 2.724001 1_545
Na10 O130 2.422400 1_555
Na10 O86 2.494737 1_555
Na10 O85 2.581736 1_455
Na10 O128 2.590023 1_555
Na10 O14 2.687181 1_555
Na10 O56 2.711147 1_555
Na10 O42 2.747885 1_555
Na10 O28 2.924593 1_555
Na11 O87 2.419015 1_555
Na11 O131 2.503398 1_555
Na11 O129 2.517909 1_555
Na11 O84 2.539857 1_555
Na11 O15 2.625795 1_555
Na11 O43 2.694568 1_555
Na11 O57 2.697338 1_555
Na11 O29 2.802407 1_555
Na12 O126 2.420869 1_555
Na12 O88 2.438946 1_555
Na12 O26 2.501499 1_565
Na12 O128 2.510166 1_555
Na12 O84 2.534866 1_565
Na12 O12 2.622529 1_555
Na12 O54 2.787959 1_555
Na13 O85 2.367680 1_565
Na13 O127 2.449329 1_555
Na13 O89 2.535284 1_555
Na13 O129 2.611412 1_555
Na13 O27 2.620332 1_565
Na13 O13 2.650362 1_555
Na13 O55 2.754374 1_555
Na13 O47 2.791713 1_565
Na14 O94 2.502262 1_565
Na14 O122 2.514518 1_555
Na14 O124 2.518003 1_555
Na14 O52 2.539859 1_554
Na14 O36 2.546227 1_565
Na14 O91 2.629404 1_455
Na14 O22 2.814937 1_555
Na14 O32 2.842947 1_565
Na15 O123 2.415044 1_555
Na15 O53 2.523410 1_554
Na15 O95 2.528635 1_565
Na15 O90 2.568183 1_555
Na15 O125 2.617898 1_555
Na15 O37 2.688184 1_565
Na15 O23 2.795419 1_555
Na16 O90 2.360622 1_555
Na16 O120 2.472395 1_555
Na16 O92 2.554043 1_565
Na16 O124 2.610605 1_555
Na16 O48 2.654830 1_554
Na16 O38 2.696860 1_555
Na16 O34 2.698678 1_555
Na16 O18 2.718865 1_555
Na17 O121 2.378402 1_555
Na17 O125 2.447543 1_555
Na17 O93 2.505146 1_565
Na17 O35 2.536378 1_555
Na17 O91 2.540174 1_555
Na17 O49 2.600454 1_554
Na17 O19 2.783238 1_555
Na17 O39 2.873892 1_555
Na18 O81 2.340693 1_555
Na18 O8 2.402162 1_555
Na18 O110 2.415444 1_555
Na18 O108 2.448931 1_555
Na18 O38 2.543918 1_556
Na18 O82 2.564120 1_555
Na19 O80 2.298913 1_655
Na19 O111 2.398581 1_555
Na19 O109 2.491505 1_555
Na19 O9 2.514090 1_555
Na19 O83 2.574707 1_555
Na19 O39 2.675216 1_556
Na20 O112 2.311915 1_555
Na20 O82 2.376440 1_545
Na20 O110 2.536028 1_555
Na20 O79 2.538595 1_555
Na20 O10 2.579648 1_555
Na20 O40 2.610993 1_556
Na20 O68 2.885526 1_545
Na21 O113 2.275872 1_555
Na21 O83 2.357084 1_545
Na21 O78 2.462204 1_655
Na21 O11 2.534572 1_555
Na21 O111 2.630698 1_555
Na21 O41 2.699507 1_556
Na21 O69 2.848738 1_545
Na21 O49 2.969122 1_545
Na22 O6 2.360926 1_555
Na22 O112 2.390528 1_555
Na22 O80 2.445390 1_545
Na22 O36 2.470188 1_556
Na22 O108 2.518278 1_555
Na22 O78 2.633499 1_555
Na23 O7 2.389568 1_555
Na23 O81 2.399943 1_545
Na23 O113 2.471546 1_555
Na23 O79 2.484749 1_555
Na23 O37 2.542903 1_556
Na23 O109 2.566514 1_555
Na24 O77 2.297134 1_555
Na24 O118 2.411584 1_555
Na24 O114 2.492151 1_555
Na24 O46 2.530666 1_555
Na24 O4 2.583455 1_555
Na24 O74 2.588462 1_545
Na25 O47 2.305220 1_555
Na25 O76 2.318172 1_655
Na25 O119 2.399903 1_555
Na25 O115 2.445774 1_555
Na25 O75 2.573171 1_545
Na25 O5 2.802130 1_555
Na25 O56 2.909796 1_655
Na26 O42 2.362178 1_555
Na26 O116 2.431455 1_555
Na26 O76 2.450841 1_555
Na26 O0 2.498054 1_555
Na26 O72 2.509949 1_545
Na26 O114 2.542679 1_555
Na27 O43 2.348219 1_555
Na27 O117 2.401097 1_555
Na27 O1 2.420331 1_555
Na27 O77 2.441860 1_555
Na27 O115 2.557826 1_555
Na27 O73 2.599627 1_545
Na28 O116 2.286852 1_555
Na28 O74 2.378566 1_555
Na28 O73 2.437368 1_555
Na28 O44 2.501486 1_555
Na28 O118 2.548565 1_555
Na28 O2 2.599212 1_555
Na29 O117 2.297419 1_555
Na29 O75 2.402436 1_555
Na29 O45 2.477933 1_555
Na29 O119 2.578876 1_555
Na29 O72 2.593879 1_655
Na29 O3 2.708822 1_555
Na30 O86 2.390582 1_555
Na30 O85 2.439486 1_455
Na30 O76 2.448205 1_555
Na30 O75 2.636652 1_445
Na30 O72 2.640784 1_545
Na30 O89 2.685017 1_445
Na31 O87 2.345101 1_555
Na31 O77 2.391140 1_555
Na31 O73 2.471020 1_545
Na31 O84 2.482673 1_555
Na31 O88 2.540620 1_545
Na31 O74 2.769934 1_545
Na32 O80 2.336171 1_544
Na32 O78 2.396355 1_554
Na32 O94 2.461073 1_555
Na32 O91 2.593851 1_445
Na32 O93 2.614716 1_455
Na32 O83 2.708058 1_444
Na33 O81 2.357485 1_544
Na33 O95 2.447648 1_555
Na33 O82 2.524275 1_544
Na33 O90 2.529199 1_545
Na33 O79 2.562189 1_554
Na33 O92 2.762270 1_555
Na34 O98 2.369507 1_555
Na34 O100 2.496895 1_555
Na34 O112 2.525459 1_555
Na34 O96 2.565055 1_555
Na34 O108 2.592076 1_555
Na34 O110 2.619464 1_555
Na35 O99 2.395146 1_555
Na35 O113 2.431465 1_555
Na35 O109 2.504508 1_555
Na35 O97 2.560639 1_555
Na35 O101 2.619584 1_555
Na35 O111 2.834817 1_555
Na36 O116 2.425715 1_555
Na36 O106 2.457040 1_555
Na36 O114 2.470757 1_555
Na36 O102 2.548963 1_555
Na36 O104 2.602907 1_555
Na36 O118 2.752914 1_555
Na37 O117 2.332138 1_555
Na37 O107 2.384172 1_555
Na37 O115 2.502130 1_555
Na37 O119 2.595359 1_555
Na37 O103 2.623567 1_555
Na37 O105 2.817231 1_555
Na38 O120 2.416165 1_555
Na38 O124 2.451368 1_555
Na38 O132 2.462904 1_555
Na38 O134 2.511871 1_555
Na38 O122 2.517489 1_555
Na38 O136 2.565103 1_555
Na39 O123 2.334756 1_555
Na39 O137 2.442606 1_555
Na39 O121 2.445915 1_555
Na39 O133 2.450364 1_555
Na39 O135 2.628756 1_555
Na39 O125 2.630458 1_555
Na40 O130 2.376321 1_555
Na40 O138 2.396904 1_555
Na40 O140 2.432032 1_555
Na40 O126 2.491504 1_555
Na40 O142 2.561057 1_555
Na40 O128 2.663866 1_555
Na41 O141 2.393893 1_555
Na41 O139 2.452108 1_555
Na41 O127 2.484655 1_555
Na41 O143 2.517678 1_555
Na41 O131 2.574218 1_555
Na41 O129 2.611670 1_555
Al0 O14 1.783243 1_555
Al0 O86 1.821700 1_555
Al0 O85 1.856010 1_455
Al0 O16 1.990992 1_545
Al0 O89 2.161889 1_445
Al0 O13 2.163344 1_445
Al1 O17 1.737186 1_545
Al1 O15 1.803783 1_555
Al1 O87 1.811626 1_555
Al1 O12 2.088978 1_545
Al1 O88 2.334050 1_545
Al1 O84 2.371866 1_555
Al2 O94 1.787730 1_555
Al2 O22 1.807889 1_545
Al2 O20 1.968262 1_555
Al2 O19 1.990998 1_445
Al2 O91 2.084390 1_445
Al2 O93 2.133242 1_455
Al3 O23 1.797159 1_545
Al3 O95 1.802894 1_555
Al3 O90 1.835462 1_545
Al3 O21 2.010348 1_555
Al3 O92 2.122633 1_555
Al3 O18 2.232998 1_545
Al4 O25 1.820039 1_555
Al4 O27 1.828464 1_555
Al4 O99 1.841995 1_555
Al4 O29 1.984961 1_555
Al4 O97 2.190641 1_555
Al4 O101 2.214954 1_555
Al5 O30 1.816303 1_555
Al5 O34 1.833304 1_555
Al5 O106 1.867752 1_555
Al5 O32 1.937097 1_555
Al5 O104 2.208124 1_555
Al5 O102 2.264706 1_555
Al6 O52 1.784551 1_554
Al6 O120 1.840534 1_555
Al6 O50 1.885344 1_554
Al6 O48 1.919321 1_554
Al6 O122 2.177817 1_555
Al6 O124 2.250245 1_555
Al7 O53 1.782264 1_554
Al7 O121 1.796416 1_555
Al7 O123 1.823968 1_555
Al7 O51 1.867364 1_554
Al7 O125 2.337975 1_555
Al7 O49 2.372213 1_554
Al8 O126 1.800054 1_555
Al8 O56 1.801102 1_555
Al8 O130 1.816155 1_555
Al8 O58 1.952297 1_555
Al8 O128 2.125838 1_555
Al8 O54 2.354272 1_555
Al9 O57 1.784904 1_555
Al9 O127 1.820583 1_555
Al9 O59 1.920328 1_555
Al9 O131 2.004943 1_555
Al9 O55 2.070288 1_555
Al9 O129 2.189085 1_555
Al10 O64 1.788100 1_555
Al10 O132 1.842907 1_555
Al10 O62 1.861292 1_555
Al10 O60 2.004623 1_555
Al10 O134 2.067809 1_555
Al10 O136 2.294312 1_555
Al11 O69 1.811121 1_555
Al11 O141 1.854464 1_555
Al11 O139 1.854793 1_555
Al11 O67 2.012547 1_555
Al11 O71 2.055930 1_555
Al11 O143 2.119034 1_555
O0 Si0 1.634963 1_555
O0 Zn0 1.931865 1_555
O1 Si1 1.626765 1_545
O1 Zn1 1.902240 1_555
O2 S0 1.479521 1_555
O2 Zn1 2.259019 1_565
O3 S1 1.486484 1_555
O3 Zn0 2.195836 1_665
O4 S3 1.492245 1_555
O4 Zn1 2.046681 1_555
O5 S2 1.490562 1_655
O5 Zn0 2.080330 1_655
O6 Si2 1.628140 1_555
O6 Zn2 1.888791 1_545
O7 Si3 1.637707 1_555
O7 Zn3 1.931192 1_545
O8 Si4 1.640657 1_555
O8 Zn3 1.918215 1_555
O9 S4 1.491506 1_555
O9 Zn2 2.040091 1_655
O10 S5 1.484324 1_545
O10 Zn3 2.265398 1_545
O11 S6 1.479429 1_545
O11 Zn2 2.232819 1_645
O12 S5 1.508082 1_555
O13 S6 1.483491 1_555
O14 Si2 1.646405 1_555
O15 Si3 1.663669 1_555
O16 S4 1.483903 1_455
O17 Si4 1.635051 1_555
O18 S0 1.477894 1_555
O19 S1 1.506885 1_555
O20 S2 1.488551 1_555
O21 S3 1.481818 1_555
O22 Si0 1.659225 1_565
O23 Si1 1.639809 1_555
O24 S7 1.450745 1_555
O24 Zn4 2.267126 1_555
O25 Si5 1.638843 1_555
O26 Si6 1.636612 1_555
O26 Zn4 1.991881 1_555
O27 Si7 1.649964 1_555
O28 S8 1.465750 1_555
O28 Zn4 2.140764 1_555
O29 S9 1.484032 1_555
O30 Si8 1.648843 1_555
O31 S10 1.481179 1_555
O31 Zn5 2.260168 1_555
O32 S11 1.492734 1_555
O33 S12 1.490240 1_555
O33 Zn5 2.071179 1_555
O34 Si9 1.655550 1_555
O35 Si10 1.650518 1_555
O35 Zn5 1.909970 1_555
O36 Si9 1.622474 1_555
O36 Zn6 1.970808 1_554
O37 Si10 1.635718 1_555
O37 Zn7 1.912852 1_554
O38 Si8 1.623528 1_555
O38 Zn6 1.964667 1_554
O39 S10 1.474341 1_555
O39 Zn7 2.312178 1_554
O40 S11 1.462708 1_555
O40 Zn6 2.189358 1_554
O41 S12 1.478047 1_555
O41 Zn7 2.142821 1_554
O42 Si6 1.650032 1_555
O42 Zn8 1.907651 1_555
O43 Si7 1.627021 1_555
O43 Zn9 1.938033 1_555
O44 S8 1.497884 1_555
O44 Zn8 2.066282 1_555
O45 S9 1.481141 1_555
O45 Zn9 2.158190 1_555
O46 S7 1.496257 1_555
O46 Zn8 2.253342 1_555
O47 Si5 1.632281 1_555
O47 Zn9 1.956118 1_555
O48 S13 1.513340 1_555
O49 S14 1.478611 1_555
O50 S15 1.499498 1_555
O51 S16 1.495031 1_555
O52 Si11 1.670956 1_555
O53 Si12 1.651327 1_555
O54 S17 1.464771 1_555
O55 S18 1.495862 1_555
O56 Si13 1.638378 1_555
O57 Si14 1.655590 1_555
O58 S19 1.481958 1_555
O59 S20 1.490876 1_555
O60 S19 1.503573 1_555
O61 S20 1.482980 1_555
O61 Zn10 2.100596 1_555
O62 S17 1.502937 1_555
O63 S18 1.486241 1_555
O63 Zn10 2.080503 1_555
O64 Si13 1.658384 1_555
O65 Si14 1.646495 1_555
O65 Zn10 1.917692 1_555
O66 S15 1.474204 1_555
O66 Zn11 2.152989 1_555
O67 S16 1.492012 1_555
O68 Si11 1.637488 1_555
O68 Zn11 1.917737 1_555
O69 Si12 1.640297 1_555
O70 S13 1.474093 1_555
O70 Zn11 2.074431 1_555
O71 S14 1.486387 1_555
O72 S19 1.493089 1_555
O72 Zn0 2.253789 1_565
O73 S20 1.486082 1_555
O73 Zn1 2.372276 1_565
O74 S17 1.491113 1_555
O74 Zn1 2.333232 1_565
O75 S18 1.491221 1_555
O75 Zn0 2.457790 1_665
O76 Si13 1.656544 1_555
O76 Zn0 2.002517 1_555
O77 Si14 1.662607 1_555
O77 Zn1 2.036292 1_555
O78 S15 1.484664 1_555
O78 Zn2 2.408137 1_545
O79 S16 1.482875 1_555
O79 Zn3 2.486854 1_545
O80 Si11 1.663691 1_555
O80 Zn2 2.062503 1_555
O81 Si12 1.647066 1_555
O81 Zn3 2.070851 1_555
O82 S13 1.479197 1_555
O83 S14 1.500142 1_555
O83 Zn2 2.321182 1_655
O84 S7 1.508077 1_555
O85 Si5 1.676869 1_555
O86 Si6 1.650015 1_555
O87 Si7 1.651062 1_555
O88 S8 1.487207 1_555
O89 S9 1.477640 1_555
O90 Si8 1.679678 1_555
O91 S10 1.529494 1_555
O92 S11 1.485697 1_555
O93 S12 1.500756 1_555
O94 Si9 1.655930 1_555
O95 Si10 1.642599 1_555
O96 S5 1.482456 1_545
O96 Zn4 2.238948 1_555
O97 S6 1.515928 1_545
O98 Si2 1.631762 1_555
O98 Zn4 2.021361 1_555
O99 Si3 1.658474 1_555
O100 Si4 1.625206 1_555
O100 Zn4 2.036352 1_555
O101 S4 1.482020 1_555
O102 S0 1.511674 1_555
O103 S1 1.489308 1_555
O103 Zn5 2.327122 1_555
O104 S3 1.482383 1_555
O105 S2 1.477594 1_655
O105 Zn5 2.414170 1_555
O106 Si0 1.651545 1_555
O107 Si1 1.659532 1_545
O107 Zn5 1.995968 1_555
O108 S13 1.480266 1_555
O108 Zn6 2.249693 1_555
O109 S14 1.501741 1_555
O109 Zn7 2.329095 1_555
O110 S16 1.472759 1_555
O110 Zn6 2.505982 1_555
O111 S15 1.489138 1_655
O111 Zn7 2.261641 1_555
O112 Si11 1.652019 1_545
O112 Zn6 2.082131 1_555
O113 Si12 1.663058 1_545
O113 Zn7 1.997559 1_555
O114 S17 1.493107 1_545
O114 Zn8 2.395411 1_555
O115 S18 1.483481 1_545
O115 Zn9 2.323588 1_555
O116 Si13 1.656664 1_555
O116 Zn8 2.076207 1_555
O117 Si14 1.652385 1_555
O117 Zn9 2.115318 1_555
O118 S20 1.488823 1_555
O118 Zn8 2.324404 1_555
O119 S19 1.474667 1_655
O120 Si9 1.668091 1_555
O121 Si10 1.642776 1_555
O122 S10 1.495624 1_455
O123 Si8 1.650588 1_555
O124 S11 1.515521 1_565
O125 S12 1.490253 1_565
O126 Si6 1.650939 1_565
O127 Si7 1.666406 1_565
O128 S8 1.506827 1_555
O129 S9 1.516950 1_555
O130 Si5 1.651915 1_455
O131 S7 1.515902 1_555
O132 Si0 1.673568 1_565
O133 Si1 1.660151 1_555
O133 Zn10 2.010270 1_555
O134 S0 1.509132 1_555
O135 S1 1.481421 1_555
O135 Zn10 2.408848 1_555
O136 S2 1.500103 1_555
O137 S3 1.500118 1_555
O137 Zn10 2.330228 1_555
O138 Si2 1.657896 1_555
O138 Zn11 1.982964 1_555
O139 Si3 1.643936 1_555
O140 S4 1.496318 1_455
O140 Zn11 2.329392 1_555
O141 Si4 1.664744 1_555
O142 S5 1.489711 1_555
O142 Zn11 2.329020 1_555
O143 S6 1.491281 1_555
