# generated using pymatgen
data_V2Co2O7
_symmetry_space_group_name_H-M   'P 1'
_cell_length_a   8.29909359
_cell_length_b   6.57097904
_cell_length_c   9.40556026
_cell_angle_alpha   79.91085297
_cell_angle_beta   90.00000000
_cell_angle_gamma   90.00000000
_symmetry_Int_Tables_number   1
_chemical_formula_structural   V2Co2O7
_chemical_formula_sum   'V8 Co8 O28'
_cell_volume   504.98349384
_cell_formula_units_Z   4
loop_
 _symmetry_equiv_pos_site_id
 _symmetry_equiv_pos_as_xyz
  1  'x, y, z'
loop_
 _atom_site_type_symbol
 _atom_site_label
 _atom_site_symmetry_multiplicity
 _atom_site_fract_x
 _atom_site_fract_y
 _atom_site_fract_z
 _atom_site_occupancy
  V  V0  1  0.25942954  0.63615854  0.03104737  1
  V  V1  1  0.75942954  0.36384146  0.46895263  1
  V  V2  1  0.74057046  0.36384146  0.96895263  1
  V  V3  1  0.24057046  0.63615854  0.53104737  1
  V  V4  1  0.51885654  0.80413155  0.31243419  1
  V  V5  1  0.01885654  0.19586845  0.18756581  1
  V  V6  1  0.48114346  0.19586845  0.68756581  1
  V  V7  1  0.98114346  0.80413155  0.81243419  1
  Co  Co0  1  0.62198948  0.85597567  0.96312526  1
  Co  Co1  1  0.12198948  0.14402433  0.53687474  1
  Co  Co2  1  0.37801052  0.14402433  0.03687474  1
  Co  Co3  1  0.87801052  0.85597567  0.46312526  1
  Co  Co4  1  0.88844841  0.69782536  0.17852183  1
  Co  Co5  1  0.38844841  0.30217464  0.32147817  1
  Co  Co6  1  0.11155159  0.30217464  0.82147817  1
  Co  Co7  1  0.61155159  0.69782536  0.67852183  1
  O  O0  1  0.63184476  0.39648613  0.62456332  1
  O  O1  1  0.13184476  0.60351387  0.87543668  1
  O  O2  1  0.36815524  0.60351387  0.37543668  1
  O  O3  1  0.86815524  0.39648613  0.12456332  1
  O  O4  1  0.62657399  0.57543342  0.89401637  1
  O  O5  1  0.12657399  0.42456658  0.60598363  1
  O  O6  1  0.37342601  0.42456658  0.10598363  1
  O  O7  1  0.87342601  0.57543342  0.39401637  1
  O  O8  1  0.86839703  0.82822297  0.96072996  1
  O  O9  1  0.36839703  0.17177703  0.53927004  1
  O  O10  1  0.13160297  0.17177703  0.03927004  1
  O  O11  1  0.63160297  0.82822297  0.46072996  1
  O  O12  1  0.85576223  0.74691109  0.67967927  1
  O  O13  1  0.35576223  0.25308891  0.82032073  1
  O  O14  1  0.14423777  0.25308891  0.32032073  1
  O  O15  1  0.64423777  0.74691109  0.17967927  1
  O  O16  1  0.87765538  0.32275161  0.84832089  1
  O  O17  1  0.37765538  0.67724839  0.65167911  1
  O  O18  1  0.12234462  0.67724839  0.15167911  1
  O  O19  1  0.62234462  0.32275161  0.34832089  1
  O  O20  1  0.58291290  0.97183205  0.74844788  1
  O  O21  1  0.08291290  0.02816795  0.75155212  1
  O  O22  1  0.41708710  0.02816795  0.25155212  1
  O  O23  1  0.91708710  0.97183205  0.24844788  1
  O  O24  1  0.87983079  0.14767016  0.50585396  1
  O  O25  1  0.37983079  0.85232984  0.99414604  1
  O  O26  1  0.12016921  0.85232984  0.49414604  1
  O  O27  1  0.62016921  0.14767016  0.00585396  1
loop_
_geom_bond_atom_site_label_1
_geom_bond_atom_site_label_2
_geom_bond_distance
_geom_bond_site_symmetry_2
Co0 O27 2.026187 1_566
Co0 O25 2.030305 1_555
Co0 O15 2.045697 1_556
Co0 O8 2.053549 1_555
Co0 O20 2.055038 1_555
Co0 O4 2.059621 1_555
Co1 O26 2.026187 1_545
Co1 O24 2.030305 1_455
Co1 O14 2.045697 1_555
Co1 O9 2.053549 1_555
Co1 O21 2.055038 1_555
Co1 O5 2.059621 1_555
Co2 O25 2.026187 1_544
Co2 O27 2.030305 1_555
Co2 O13 2.045697 1_554
Co2 O10 2.053549 1_555
Co2 O22 2.055038 1_555
Co2 O6 2.059621 1_555
Co3 O24 2.026187 1_565
Co3 O26 2.030305 1_655
Co3 O12 2.045697 1_555
Co3 O11 2.053549 1_555
Co3 O23 2.055038 1_555
Co3 O7 2.059621 1_555
Co4 O18 1.965186 1_655
Co4 O23 2.036102 1_555
Co4 O7 2.049228 1_555
Co4 O15 2.052560 1_555
Co4 O8 2.084006 1_554
Co4 O3 2.135131 1_555
Co5 O19 1.965186 1_555
Co5 O22 2.036102 1_555
Co5 O6 2.049228 1_555
Co5 O14 2.052560 1_555
Co5 O9 2.084006 1_555
Co5 O2 2.135131 1_555
Co6 O16 1.965186 1_455
Co6 O21 2.036102 1_555
Co6 O5 2.049228 1_555
Co6 O13 2.052560 1_555
Co6 O10 2.084006 1_556
Co6 O1 2.135131 1_555
Co7 O17 1.965186 1_555
Co7 O20 2.036102 1_555
Co7 O4 2.049228 1_555
Co7 O12 2.052560 1_555
Co7 O11 2.084006 1_555
Co7 O0 2.135131 1_555
O0 V6 1.838331 1_555
O0 V1 1.849132 1_555
O1 V7 1.838331 1_455
O1 V0 1.849132 1_556
O2 V4 1.838331 1_555
O2 V3 1.849132 1_555
O3 V5 1.838331 1_655
O3 V2 1.849132 1_554
O4 V2 1.726729 1_555
O5 V3 1.726729 1_555
O6 V0 1.726729 1_555
O7 V1 1.726729 1_555
O8 V7 1.709802 1_555
O9 V6 1.709802 1_555
O10 V5 1.709802 1_555
O11 V4 1.709802 1_555
O12 V7 1.716884 1_555
O13 V6 1.716884 1_555
O14 V5 1.716884 1_555
O15 V4 1.716884 1_555
O16 V2 1.661892 1_555
O17 V3 1.661892 1_555
O18 V0 1.661892 1_555
O19 V1 1.661892 1_555
O20 V6 1.706776 1_565
O21 V7 1.706776 1_445
O22 V4 1.706776 1_545
O23 V5 1.706776 1_665
O24 V1 1.721590 1_555
O25 V0 1.721590 1_556
O26 V3 1.721590 1_555
O27 V2 1.721590 1_554
