# generated using pymatgen
data_Bi2(PO4)3
_symmetry_space_group_name_H-M   'P 1'
_cell_length_a   9.49038448
_cell_length_b   9.49038448
_cell_length_c   9.49038501
_cell_angle_alpha   54.88935408
_cell_angle_beta   54.88935408
_cell_angle_gamma   54.88935939
_symmetry_Int_Tables_number   1
_chemical_formula_structural   Bi2(PO4)3
_chemical_formula_sum   'Bi4 P6 O24'
_cell_volume   532.51354818
_cell_formula_units_Z   2
loop_
 _symmetry_equiv_pos_site_id
 _symmetry_equiv_pos_as_xyz
  1  'x, y, z'
loop_
 _atom_site_type_symbol
 _atom_site_label
 _atom_site_symmetry_multiplicity
 _atom_site_fract_x
 _atom_site_fract_y
 _atom_site_fract_z
 _atom_site_occupancy
  Bi  Bi0  1  0.65380300  0.65380300  0.65380300  1
  Bi  Bi1  1  0.14389700  0.14389700  0.14389700  1
  Bi  Bi2  1  0.85610300  0.85610300  0.85610300  1
  Bi  Bi3  1  0.34619700  0.34619700  0.34619700  1
  P  P0  1  0.54792700  0.25414900  0.95329500  1
  P  P1  1  0.74585100  0.04670500  0.45207300  1
  P  P2  1  0.25414900  0.95329500  0.54792700  1
  P  P3  1  0.45207300  0.74585100  0.04670500  1
  P  P4  1  0.04670500  0.45207300  0.74585100  1
  P  P5  1  0.95329500  0.54792700  0.25414900  1
  O  O0  1  0.49345300  0.53502700  0.16756000  1
  O  O1  1  0.86177700  0.74844500  0.13777100  1
  O  O2  1  0.14794200  0.53228700  0.20849200  1
  O  O3  1  0.83244000  0.50654700  0.46497300  1
  O  O4  1  0.13822300  0.25155500  0.86222900  1
  O  O5  1  0.85205800  0.46771300  0.79150800  1
  O  O6  1  0.16756000  0.49345300  0.53502700  1
  O  O7  1  0.46771300  0.79150800  0.85205800  1
  O  O8  1  0.40884200  0.20717100  0.96788600  1
  O  O9  1  0.79150800  0.85205800  0.46771300  1
  O  O10  1  0.74844500  0.13777100  0.86177700  1
  O  O11  1  0.03211400  0.59115800  0.79282900  1
  O  O12  1  0.53502700  0.16756000  0.49345300  1
  O  O13  1  0.86222900  0.13822300  0.25155500  1
  O  O14  1  0.59115800  0.79282900  0.03211400  1
  O  O15  1  0.79282900  0.03211400  0.59115800  1
  O  O16  1  0.20717100  0.96788600  0.40884200  1
  O  O17  1  0.50654700  0.46497300  0.83244000  1
  O  O18  1  0.13777100  0.86177700  0.74844500  1
  O  O19  1  0.46497300  0.83244000  0.50654700  1
  O  O20  1  0.96788600  0.40884200  0.20717100  1
  O  O21  1  0.25155500  0.86222900  0.13822300  1
  O  O22  1  0.20849200  0.14794200  0.53228700  1
  O  O23  1  0.53228700  0.20849200  0.14794200  1
loop_
_geom_bond_atom_site_label_1
_geom_bond_atom_site_label_2
_geom_bond_distance
_geom_bond_site_symmetry_2
Bi0 O17 2.167809 1_555
Bi0 O3 2.167809 1_555
Bi0 O19 2.167809 1_555
Bi0 O9 2.172144 1_555
Bi0 O7 2.172144 1_555
Bi0 O5 2.172144 1_555
Bi1 O13 2.270030 1_455
Bi1 O21 2.270030 1_545
Bi1 O4 2.270030 1_554
Bi1 O8 2.285774 1_554
Bi1 O16 2.285775 1_545
Bi1 O20 2.285775 1_455
Bi2 O18 2.270030 1_655
Bi2 O10 2.270030 1_565
Bi2 O1 2.270030 1_556
Bi2 O14 2.285774 1_556
Bi2 O15 2.285775 1_565
Bi2 O11 2.285775 1_655
Bi3 O0 2.167809 1_555
Bi3 O6 2.167809 1_555
Bi3 O12 2.167809 1_555
Bi3 O22 2.172144 1_555
Bi3 O23 2.172144 1_555
Bi3 O2 2.172144 1_555
O0 P3 1.564430 1_555
O1 P5 1.542748 1_555
O2 P5 1.568451 1_455
O3 P5 1.564430 1_555
O4 P4 1.542748 1_555
O5 P4 1.568451 1_655
O6 P4 1.564430 1_555
O7 P3 1.568451 1_556
O8 P0 1.534910 1_555
O9 P1 1.568451 1_565
O10 P0 1.542748 1_555
O11 P4 1.534910 1_555
O12 P1 1.564430 1_555
O13 P1 1.542748 1_555
O14 P3 1.534910 1_555
O15 P1 1.534910 1_555
O16 P2 1.534910 1_555
O17 P0 1.564430 1_555
O18 P2 1.542748 1_555
O19 P2 1.564430 1_555
O20 P5 1.534910 1_555
O21 P3 1.542748 1_555
O22 P2 1.568451 1_545
O23 P0 1.568451 1_554
