# generated using pymatgen
data_Na3InSiSn(PO6)2
_symmetry_space_group_name_H-M   'P 1'
_cell_length_a   9.08384746
_cell_length_b   9.08384714
_cell_length_c   22.56368221
_cell_angle_alpha   90.04760668
_cell_angle_beta   89.95239331
_cell_angle_gamma   119.85961204
_symmetry_Int_Tables_number   1
_chemical_formula_structural   Na3InSiSn(PO6)2
_chemical_formula_sum   'Na18 In6 Si6 Sn6 P12 O72'
_cell_volume   1614.70314374
_cell_formula_units_Z   6
loop_
 _symmetry_equiv_pos_site_id
 _symmetry_equiv_pos_as_xyz
  1  'x, y, z'
loop_
 _atom_site_type_symbol
 _atom_site_label
 _atom_site_symmetry_multiplicity
 _atom_site_fract_x
 _atom_site_fract_y
 _atom_site_fract_z
 _atom_site_occupancy
  Na  Na0  1  0.00162055  0.99431498  0.49764604  1
  Na  Na1  1  0.00568502  0.99837945  0.99764604  1
  Na  Na2  1  0.66610680  0.32514889  0.83126675  1
  Na  Na3  1  0.67485111  0.33389320  0.33126675  1
  Na  Na4  1  0.34693103  0.67416518  0.16426667  1
  Na  Na5  1  0.32583482  0.65306897  0.66426667  1
  Na  Na6  1  0.36196954  0.36111021  0.24762900  1
  Na  Na7  1  0.99448761  0.62781307  0.24764801  1
  Na  Na8  1  0.63888979  0.63803046  0.74762900  1
  Na  Na9  1  0.37218693  0.00551239  0.74764801  1
  Na  Na10  1  0.03922422  0.70032034  0.57924220  1
  Na  Na11  1  0.65450823  0.96461084  0.58518394  1
  Na  Na12  1  0.29967966  0.96077578  0.07924220  1
  Na  Na13  1  0.03538916  0.34549177  0.08518394  1
  Na  Na14  1  0.97433190  0.67585464  0.91946478  1
  Na  Na15  1  0.69747874  0.02763743  0.91090523  1
  Na  Na16  1  0.97236257  0.30252126  0.41090523  1
  Na  Na17  1  0.32414536  0.02566810  0.41946478  1
  In  In0  1  0.99058725  0.99233015  0.35038137  1
  In  In1  1  0.00766985  0.00941275  0.85038137  1
  In  In2  1  0.67004015  0.32879956  0.68408715  1
  In  In3  1  0.67120044  0.32995985  0.18408715  1
  In  In4  1  0.33324256  0.66623302  0.01690384  1
  In  In5  1  0.33376698  0.66675744  0.51690384  1
  Si  Si0  1  0.00075246  0.29598964  0.25189967  1
  Si  Si1  1  0.70401036  0.99924754  0.75189967  1
  Si  Si2  1  0.36700738  0.03860486  0.58390256  1
  Si  Si3  1  0.96139514  0.63299262  0.08390256  1
  Si  Si4  1  0.33554417  0.96824388  0.91793194  1
  Si  Si5  1  0.03175612  0.66445583  0.41793194  1
  Sn  Sn0  1  0.00580556  0.00825561  0.64932607  1
  Sn  Sn1  1  0.99174439  0.99419444  0.14932607  1
  Sn  Sn2  1  0.66286022  0.33645870  0.98243893  1
  Sn  Sn3  1  0.66354130  0.33713978  0.48243893  1
  Sn  Sn4  1  0.33130001  0.66496893  0.31597025  1
  Sn  Sn5  1  0.33503107  0.66869999  0.81597025  1
  P  P0  1  0.29489716  0.99728773  0.25070097  1
  P  P1  1  0.69872439  0.70432920  0.25012577  1
  P  P2  1  0.29567080  0.30127561  0.75012577  1
  P  P3  1  0.00271227  0.70510284  0.75070097  1
  P  P4  1  0.96089774  0.33014268  0.58195778  1
  P  P5  1  0.67026660  0.63116718  0.58617545  1
  P  P6  1  0.66985732  0.03910226  0.08195778  1
  P  P7  1  0.36883282  0.32973340  0.08617545  1
  P  P8  1  0.62593917  0.66106017  0.91561487  1
  P  P9  1  0.03663168  0.37334980  0.91876769  1
  P  P10  1  0.62665020  0.96336832  0.41876769  1
  P  P11  1  0.33893983  0.37406083  0.41561487  1
  O  O0  1  0.21694619  0.02528214  0.30699527  1
  O  O1  1  0.81503322  0.77772866  0.30370709  1
  O  O2  1  0.98305211  0.19396941  0.31233259  1
  O  O3  1  0.22227134  0.18496678  0.80370709  1
  O  O4  1  0.97471786  0.78305381  0.80699527  1
  O  O5  1  0.80603059  0.01694789  0.81233259  1
  O  O6  1  0.79194506  0.96471824  0.69238685  1
  O  O7  1  0.18664929  0.21991471  0.69334113  1
  O  O8  1  0.03925314  0.82258914  0.69505685  1
  O  O9  1  0.78008529  0.81335071  0.19334113  1
  O  O10  1  0.03528176  0.20805494  0.19238685  1
  O  O11  1  0.17741086  0.96074686  0.19505685  1
  O  O12  1  0.88339452  0.37020765  0.63545098  1
  O  O13  1  0.48067967  0.11757128  0.64279537  1
  O  O14  1  0.64911738  0.53395016  0.64384712  1
  O  O15  1  0.88242872  0.51932033  0.14279537  1
  O  O16  1  0.62979235  0.11660548  0.13545098  1
  O  O17  1  0.46604984  0.35088262  0.14384712  1
  O  O18  1  0.45422081  0.29386845  0.03198314  1
  O  O19  1  0.84823250  0.54538258  0.02312350  1
  O  O20  1  0.70273854  0.15121884  0.02494847  1
  O  O21  1  0.45461742  0.15176750  0.52312350  1
  O  O22  1  0.70613155  0.54577919  0.53198314  1
  O  O23  1  0.84878116  0.29726146  0.52494847  1
  O  O24  1  0.54016005  0.68850615  0.96892025  1
  O  O25  1  0.13367748  0.44467943  0.97683800  1
  O  O26  1  0.30186192  0.85471074  0.97709296  1
  O  O27  1  0.55532057  0.86632252  0.47683800  1
  O  O28  1  0.31149385  0.45983995  0.46892025  1
  O  O29  1  0.14528926  0.69813808  0.47709296  1
  O  O30  1  0.11816008  0.62593863  0.35866732  1
  O  O31  1  0.50806044  0.87242340  0.36478403  1
  O  O32  1  0.36654376  0.47811249  0.35711744  1
  O  O33  1  0.12757660  0.49193956  0.86478403  1
  O  O34  1  0.37406137  0.88183992  0.85866732  1
  O  O35  1  0.52188751  0.63345624  0.85711744  1
  O  O36  1  0.02187280  0.83753974  0.41216053  1
  O  O37  1  0.80926107  0.99713257  0.41316777  1
  O  O38  1  0.18049069  0.19562294  0.41231595  1
  O  O39  1  0.00286743  0.19073893  0.91316777  1
  O  O40  1  0.16246026  0.97812720  0.91216053  1
  O  O41  1  0.80437706  0.81950931  0.91231595  1
  O  O42  1  0.96113648  0.15900058  0.58799324  1
  O  O43  1  0.17260372  0.01234425  0.58780931  1
  O  O44  1  0.83554243  0.81089798  0.58816821  1
  O  O45  1  0.98765575  0.82739628  0.08780931  1
  O  O46  1  0.84099942  0.03886352  0.08799324  1
  O  O47  1  0.18910202  0.16445757  0.08816821  1
  O  O48  1  0.66942848  0.15823280  0.74875457  1
  O  O49  1  0.47780312  0.33150839  0.74436380  1
  O  O50  1  0.84076279  0.53245155  0.74389539  1
  O  O51  1  0.66849161  0.52219688  0.24436380  1
  O  O52  1  0.84176720  0.33057152  0.24875457  1
  O  O53  1  0.46754845  0.15923721  0.24389539  1
  O  O54  1  0.64828141  0.50156767  0.91991161  1
  O  O55  1  0.85980682  0.36650182  0.92017607  1
  O  O56  1  0.51636020  0.15243018  0.92221630  1
  O  O57  1  0.63349818  0.14019318  0.42017607  1
  O  O58  1  0.49843233  0.35171859  0.41991161  1
  O  O59  1  0.84756982  0.48363980  0.42221630  1
  O  O60  1  0.34291006  0.48327471  0.07886579  1
  O  O61  1  0.15173974  0.65292739  0.08089777  1
  O  O62  1  0.51650933  0.86033945  0.07669711  1
  O  O63  1  0.34707261  0.84826026  0.58089777  1
  O  O64  1  0.51672529  0.65708994  0.57886579  1
  O  O65  1  0.13966055  0.48349067  0.57669711  1
  O  O66  1  0.30839853  0.83261622  0.25494843  1
  O  O67  1  0.52205528  0.69236052  0.25616496  1
  O  O68  1  0.18130112  0.48612783  0.25266790  1
  O  O69  1  0.30763948  0.47794472  0.75616496  1
  O  O70  1  0.16738378  0.69160147  0.75494843  1
  O  O71  1  0.51387217  0.81869888  0.75266790  1
loop_
_geom_bond_atom_site_label_1
_geom_bond_atom_site_label_2
_geom_bond_distance
_geom_bond_site_symmetry_2
Na0 O36 2.457280 1_555
Na0 O43 2.515841 1_565
Na0 O44 2.592576 1_455
Na0 O38 2.594817 1_565
Na0 O37 2.595662 1_455
Na0 O42 2.659030 1_465
Na1 O40 2.457280 1_555
Na1 O45 2.515841 1_456
Na1 O47 2.592576 1_566
Na1 O41 2.594817 1_455
Na1 O39 2.595661 1_565
Na1 O46 2.659030 1_466
Na2 O48 2.409748 1_555
Na2 O56 2.529599 1_555
Na2 O55 2.570618 1_555
Na2 O54 2.616785 1_555
Na2 O49 2.622654 1_555
Na2 O50 2.641163 1_555
Na3 O52 2.409748 1_555
Na3 O59 2.529599 1_555
Na3 O57 2.570618 1_555
Na3 O58 2.616785 1_555
Na3 O51 2.622654 1_555
Na3 O53 2.641163 1_555
Na4 O61 2.526650 1_555
Na4 O62 2.558039 1_555
Na4 O67 2.569189 1_555
Na4 O68 2.569361 1_555
Na4 O60 2.579307 1_555
Na4 O66 2.622288 1_555
Na5 O63 2.526650 1_555
Na5 O65 2.558039 1_555
Na5 O69 2.569189 1_555
Na5 O71 2.569361 1_555
Na5 O64 2.579307 1_555
Na5 O70 2.622288 1_555
Na6 O51 2.417082 1_555
Na6 O68 2.418959 1_555
Na6 O53 2.457746 1_555
Na6 O17 2.543520 1_555
Na6 O67 2.616944 1_555
Na6 O32 2.680737 1_555
Na6 O10 2.861487 1_555
Na6 O0 2.972903 1_555
Na7 O52 2.342192 1_555
Na7 O66 2.517383 1_655
Na7 O15 2.570202 1_555
Na7 O68 2.593157 1_655
Na7 O51 2.620394 1_555
Na7 O30 2.749765 1_655
Na7 O11 2.883470 1_655
Na7 O1 2.883758 1_555
Na8 O49 2.417082 1_555
Na8 O71 2.418959 1_555
Na8 O50 2.457746 1_555
Na8 O14 2.543520 1_555
Na8 O69 2.616944 1_555
Na8 O35 2.680737 1_555
Na8 O6 2.861487 1_555
Na8 O4 2.972903 1_555
Na9 O48 2.342192 1_555
Na9 O70 2.517383 1_545
Na9 O13 2.570202 1_555
Na9 O71 2.593157 1_545
Na9 O49 2.620394 1_555
Na9 O34 2.749765 1_545
Na9 O8 2.883470 1_545
Na9 O3 2.883758 1_555
Na10 O63 2.426003 1_555
Na10 O43 2.473655 1_565
Na10 O29 2.501266 1_555
Na10 O44 2.514449 1_455
Na10 O65 2.550350 1_555
Na10 O22 2.834840 1_455
Na10 O8 2.838542 1_555
Na10 O12 2.895002 1_455
Na11 O64 2.430738 1_555
Na11 O42 2.446002 1_565
Na11 O63 2.446785 1_555
Na11 O27 2.604696 1_555
Na11 O44 2.635399 1_555
Na11 O6 2.722771 1_555
Na11 O13 2.879594 1_565
Na11 O23 2.964018 1_565
Na12 O61 2.426003 1_555
Na12 O45 2.473655 1_455
Na12 O26 2.501266 1_554
Na12 O47 2.514449 1_565
Na12 O62 2.550350 1_555
Na12 O18 2.834839 1_565
Na12 O11 2.838542 1_555
Na12 O16 2.895002 1_565
Na13 O60 2.430739 1_555
Na13 O46 2.446002 1_455
Na13 O61 2.446785 1_555
Na13 O25 2.604696 1_554
Na13 O47 2.635399 1_555
Na13 O10 2.722771 1_555
Na13 O15 2.879594 1_455
Na13 O20 2.964018 1_455
Na14 O40 2.411399 1_655
Na14 O55 2.463392 1_555
Na14 O41 2.473694 1_555
Na14 O54 2.570918 1_555
Na14 O19 2.614508 1_556
Na14 O4 2.718273 1_555
Na14 O26 2.893447 1_655
Na14 O33 2.925858 1_655
Na15 O39 2.408495 1_655
Na15 O56 2.431665 1_555
Na15 O5 2.453568 1_555
Na15 O41 2.519237 1_545
Na15 O55 2.678263 1_555
Na15 O20 2.797506 1_556
Na15 O34 2.811261 1_545
Na15 O24 2.977563 1_545
Na16 O37 2.408495 1_545
Na16 O59 2.431665 1_555
Na16 O2 2.453568 1_555
Na16 O38 2.519237 1_655
Na16 O57 2.678263 1_555
Na16 O23 2.797506 1_555
Na16 O30 2.811261 1_655
Na16 O28 2.977563 1_655
Na17 O36 2.411399 1_545
Na17 O57 2.463392 1_555
Na17 O38 2.473694 1_555
Na17 O58 2.570918 1_555
Na17 O21 2.614508 1_555
Na17 O0 2.718273 1_555
Na17 O29 2.893447 1_545
Na17 O31 2.925858 1_545
In0 O2 2.055304 1_565
In0 O1 2.087160 1_555
In0 O36 2.098290 1_655
In0 O0 2.158752 1_665
In0 O37 2.188506 1_555
In0 O38 2.273014 1_665
In1 O5 2.055304 1_455
In1 O3 2.087160 1_555
In1 O40 2.098290 1_545
In1 O4 2.158752 1_445
In1 O39 2.188506 1_555
In1 O41 2.273014 1_445
In2 O13 2.054686 1_555
In2 O12 2.091218 1_555
In2 O48 2.127187 1_555
In2 O14 2.165443 1_555
In2 O50 2.188847 1_555
In2 O49 2.222287 1_555
In3 O15 2.054686 1_555
In3 O16 2.091218 1_555
In3 O52 2.127187 1_555
In3 O17 2.165443 1_555
In3 O53 2.188847 1_555
In3 O51 2.222286 1_555
In4 O26 2.075672 1_554
In4 O24 2.089108 1_554
In4 O25 2.126210 1_554
In4 O61 2.148448 1_555
In4 O62 2.185758 1_555
In4 O60 2.207689 1_555
In5 O29 2.075672 1_555
In5 O28 2.089108 1_555
In5 O27 2.126210 1_555
In5 O63 2.148447 1_555
In5 O65 2.185758 1_555
In5 O64 2.207689 1_555
O0 P0 1.535174 1_545
O1 P1 1.523748 1_555
O2 Si0 1.611654 1_655
O3 P2 1.523748 1_555
O4 P3 1.535174 1_655
O5 Si1 1.611654 1_545
O6 Si1 1.669320 1_555
O6 Sn0 2.026546 1_665
O7 P2 1.562165 1_555
O7 Sn0 2.058187 1_555
O8 P3 1.572996 1_555
O8 Sn0 2.124903 1_565
O9 P1 1.562165 1_555
O9 Sn1 2.058187 1_555
O10 Si0 1.669320 1_555
O10 Sn1 2.026546 1_445
O11 P0 1.572996 1_555
O11 Sn1 2.124903 1_455
O12 P4 1.529040 1_555
O13 Si2 1.615467 1_555
O14 P5 1.530582 1_555
O15 Si3 1.615467 1_555
O16 P6 1.529040 1_555
O17 P7 1.530582 1_555
O18 P7 1.565998 1_555
O18 Sn2 2.063593 1_554
O19 Si3 1.660331 1_555
O19 Sn2 2.024222 1_554
O20 P6 1.574724 1_555
O20 Sn2 2.119647 1_554
O21 Si2 1.660331 1_555
O21 Sn3 2.024222 1_555
O22 P5 1.565998 1_555
O22 Sn3 2.063593 1_555
O23 P4 1.574724 1_555
O23 Sn3 2.119647 1_555
O24 P8 1.518996 1_555
O25 P9 1.531514 1_555
O26 Si4 1.620668 1_555
O27 P10 1.531514 1_555
O28 P11 1.518996 1_555
O29 Si5 1.620668 1_555
O30 Si5 1.672592 1_555
O30 Sn4 2.028888 1_555
O31 P10 1.562368 1_555
O31 Sn4 2.080638 1_555
O32 P11 1.569702 1_555
O32 Sn4 2.095181 1_555
O33 P9 1.562368 1_555
O33 Sn5 2.080638 1_555
O34 Si4 1.672592 1_555
O34 Sn5 2.028888 1_555
O35 P8 1.569702 1_555
O35 Sn5 2.095181 1_555
O36 Si5 1.624180 1_555
O37 P10 1.534532 1_555
O38 P11 1.543180 1_555
O39 P9 1.534532 1_555
O40 Si4 1.624180 1_555
O41 P8 1.543180 1_555
O42 P4 1.561771 1_555
O42 Sn0 2.124211 1_655
O43 Si2 1.662378 1_555
O43 Sn0 2.040671 1_555
O44 P5 1.575063 1_555
O44 Sn0 2.179177 1_665
O45 Si3 1.662378 1_555
O45 Sn1 2.040671 1_555
O46 P6 1.561772 1_555
O46 Sn1 2.124211 1_545
O47 P7 1.575063 1_555
O47 Sn1 2.179177 1_445
O48 Si1 1.625233 1_545
O49 P2 1.541699 1_555
O50 P3 1.532979 1_655
O51 P1 1.541699 1_555
O52 Si0 1.625233 1_655
O53 P0 1.532979 1_545
O54 P8 1.562909 1_555
O54 Sn2 2.111660 1_555
O55 P9 1.576497 1_655
O55 Sn2 2.181536 1_555
O56 Si4 1.664349 1_545
O56 Sn2 2.048415 1_555
O57 P10 1.576497 1_545
O57 Sn3 2.181535 1_555
O58 P11 1.562909 1_555
O58 Sn3 2.111660 1_555
O59 Si5 1.664349 1_655
O59 Sn3 2.048415 1_555
O60 P7 1.534749 1_555
O61 Si3 1.647753 1_455
O62 P6 1.529366 1_565
O63 Si2 1.647753 1_565
O64 P5 1.534749 1_555
O65 P4 1.529366 1_455
O66 P0 1.563564 1_555
O66 Sn4 2.139548 1_555
O67 P1 1.559425 1_555
O67 Sn4 2.110162 1_555
O68 Si0 1.688974 1_555
O68 Sn4 2.081139 1_555
O69 P2 1.559425 1_555
O69 Sn5 2.110162 1_555
O70 P3 1.563564 1_555
O70 Sn5 2.139548 1_555
O71 Si1 1.688974 1_555
O71 Sn5 2.081139 1_555
