# generated using pymatgen
data_KClO4
_symmetry_space_group_name_H-M   'P 1'
_cell_length_a   5.61273066
_cell_length_b   7.19777613
_cell_length_c   8.75090701
_cell_angle_alpha   90.00000000
_cell_angle_beta   90.00000000
_cell_angle_gamma   90.00000000
_symmetry_Int_Tables_number   1
_chemical_formula_structural   KClO4
_chemical_formula_sum   'K4 Cl4 O16'
_cell_volume   353.52945668
_cell_formula_units_Z   4
loop_
 _symmetry_equiv_pos_site_id
 _symmetry_equiv_pos_as_xyz
  1  'x, y, z'
loop_
 _atom_site_type_symbol
 _atom_site_label
 _atom_site_symmetry_multiplicity
 _atom_site_fract_x
 _atom_site_fract_y
 _atom_site_fract_z
 _atom_site_occupancy
  K  K0  1  0.25000000  0.16046530  0.68076986  1
  K  K1  1  0.75000000  0.83953470  0.31923014  1
  K  K2  1  0.75000000  0.66046530  0.81923014  1
  K  K3  1  0.25000000  0.33953470  0.18076986  1
  Cl  Cl0  1  0.25000000  0.68818634  0.56948910  1
  Cl  Cl1  1  0.75000000  0.31181366  0.43051090  1
  Cl  Cl2  1  0.75000000  0.18818634  0.93051090  1
  Cl  Cl3  1  0.25000000  0.81181366  0.06948910  1
  O  O0  1  0.25000000  0.59339029  0.42498674  1
  O  O1  1  0.75000000  0.40660971  0.57501326  1
  O  O2  1  0.75000000  0.09339029  0.07501326  1
  O  O3  1  0.25000000  0.90660971  0.92498674  1
  O  O4  1  0.54029636  0.19480261  0.41907523  1
  O  O5  1  0.04029636  0.80519739  0.58092477  1
  O  O6  1  0.45970364  0.69480261  0.08092477  1
  O  O7  1  0.95970364  0.30519739  0.91907523  1
  O  O8  1  0.25000000  0.94352771  0.19390840  1
  O  O9  1  0.75000000  0.05647229  0.80609160  1
  O  O10  1  0.75000000  0.44352771  0.30609160  1
  O  O11  1  0.25000000  0.55647229  0.69390840  1
  O  O12  1  0.04029636  0.69480261  0.08092477  1
  O  O13  1  0.54029636  0.30519739  0.91907523  1
  O  O14  1  0.95970364  0.19480261  0.41907523  1
  O  O15  1  0.45970364  0.80519739  0.58092477  1
loop_
_geom_bond_atom_site_label_1
_geom_bond_atom_site_label_2
_geom_bond_distance
_geom_bond_site_symmetry_2
K0 O3 2.811747 1_545
K0 O14 2.821397 1_455
K0 O4 2.821397 1_555
K0 O7 2.844096 1_455
K0 O13 2.844096 1_555
K0 O11 2.852688 1_555
K0 O5 2.947495 1_545
K0 O15 2.947495 1_545
K0 O9 3.104621 1_555
K0 O9 3.104621 1_455
K1 O2 2.811747 1_565
K1 O15 2.821397 1_555
K1 O5 2.821397 1_655
K1 O6 2.844096 1_555
K1 O12 2.844096 1_655
K1 O10 2.852688 1_555
K1 O4 2.947495 1_565
K1 O14 2.947495 1_565
K1 O8 3.104621 1_555
K1 O8 3.104621 1_655
K2 O1 2.811747 1_555
K2 O6 2.821397 1_556
K2 O12 2.821397 1_656
K2 O15 2.844096 1_555
K2 O5 2.844096 1_655
K2 O9 2.852688 1_565
K2 O13 2.947495 1_555
K2 O7 2.947495 1_555
K2 O11 3.104621 1_555
K2 O11 3.104621 1_655
K3 O0 2.811747 1_555
K3 O13 2.821397 1_554
K3 O7 2.821397 1_454
K3 O4 2.844096 1_555
K3 O14 2.844096 1_455
K3 O8 2.852688 1_545
K3 O12 2.947495 1_555
K3 O6 2.947495 1_555
K3 O10 3.104621 1_455
K3 O10 3.104621 1_555
Cl0 O0 1.436868 1_555
Cl0 O11 1.443690 1_555
Cl0 O5 1.450759 1_555
Cl0 O15 1.450759 1_555
Cl1 O1 1.436868 1_555
Cl1 O10 1.443690 1_555
Cl1 O14 1.450759 1_555
Cl1 O4 1.450759 1_555
Cl2 O2 1.436868 1_556
Cl2 O9 1.443690 1_555
Cl2 O7 1.450759 1_555
Cl2 O13 1.450759 1_555
Cl3 O3 1.436868 1_554
Cl3 O8 1.443690 1_555
Cl3 O12 1.450759 1_555
Cl3 O6 1.450759 1_555
