# generated using pymatgen
data_Na4Al3Si3BrO12
_symmetry_space_group_name_H-M   'P 1'
_cell_length_a   9.03071600
_cell_length_b   9.03071600
_cell_length_c   9.03071600
_cell_angle_alpha   90.00000000
_cell_angle_beta   90.00000000
_cell_angle_gamma   90.00000000
_symmetry_Int_Tables_number   1
_chemical_formula_structural   Na4Al3Si3BrO12
_chemical_formula_sum   'Na8 Al6 Si6 Br2 O24'
_cell_volume   736.48949074
_cell_formula_units_Z   2
loop_
 _symmetry_equiv_pos_site_id
 _symmetry_equiv_pos_as_xyz
  1  'x, y, z'
loop_
 _atom_site_type_symbol
 _atom_site_label
 _atom_site_symmetry_multiplicity
 _atom_site_fract_x
 _atom_site_fract_y
 _atom_site_fract_z
 _atom_site_occupancy
  Na  Na0  1  0.18574100  0.18574100  0.18574100  1
  Na  Na1  1  0.68574100  0.68574100  0.68574100  1
  Na  Na2  1  0.31425900  0.68574100  0.31425900  1
  Na  Na3  1  0.31425900  0.31425900  0.68574100  1
  Na  Na4  1  0.68574100  0.31425900  0.31425900  1
  Na  Na5  1  0.81425900  0.81425900  0.18574100  1
  Na  Na6  1  0.81425900  0.18574100  0.81425900  1
  Na  Na7  1  0.18574100  0.81425900  0.81425900  1
  Al  Al0  1  0.75000000  0.50000000  0.00000000  1
  Al  Al1  1  0.00000000  0.25000000  0.50000000  1
  Al  Al2  1  0.50000000  0.00000000  0.25000000  1
  Al  Al3  1  0.50000000  0.00000000  0.75000000  1
  Al  Al4  1  0.25000000  0.50000000  0.00000000  1
  Al  Al5  1  0.00000000  0.75000000  0.50000000  1
  Si  Si0  1  0.75000000  0.00000000  0.50000000  1
  Si  Si1  1  0.25000000  0.00000000  0.50000000  1
  Si  Si2  1  0.00000000  0.50000000  0.75000000  1
  Si  Si3  1  0.00000000  0.50000000  0.25000000  1
  Si  Si4  1  0.50000000  0.25000000  0.00000000  1
  Si  Si5  1  0.50000000  0.75000000  0.00000000  1
  Br  Br0  1  0.00000000  0.00000000  0.00000000  1
  Br  Br1  1  0.50000000  0.50000000  0.50000000  1
  O  O0  1  0.34952000  0.05742500  0.64055500  1
  O  O1  1  0.64055500  0.65048000  0.94257500  1
  O  O2  1  0.64055500  0.34952000  0.05742500  1
  O  O3  1  0.65048000  0.94257500  0.64055500  1
  O  O4  1  0.34952000  0.94257500  0.35944500  1
  O  O5  1  0.94257500  0.64055500  0.65048000  1
  O  O6  1  0.05742500  0.35944500  0.65048000  1
  O  O7  1  0.85944500  0.55742500  0.15048000  1
  O  O8  1  0.85944500  0.44257500  0.84952000  1
  O  O9  1  0.14055500  0.55742500  0.84952000  1
  O  O10  1  0.44257500  0.84952000  0.85944500  1
  O  O11  1  0.84952000  0.14055500  0.55742500  1
  O  O12  1  0.84952000  0.85944500  0.44257500  1
  O  O13  1  0.55742500  0.15048000  0.85944500  1
  O  O14  1  0.15048000  0.85944500  0.55742500  1
  O  O15  1  0.55742500  0.84952000  0.14055500  1
  O  O16  1  0.44257500  0.15048000  0.14055500  1
  O  O17  1  0.15048000  0.14055500  0.44257500  1
  O  O18  1  0.05742500  0.64055500  0.34952000  1
  O  O19  1  0.94257500  0.35944500  0.34952000  1
  O  O20  1  0.14055500  0.44257500  0.15048000  1
  O  O21  1  0.35944500  0.65048000  0.05742500  1
  O  O22  1  0.35944500  0.34952000  0.94257500  1
  O  O23  1  0.65048000  0.05742500  0.35944500  1
loop_
_geom_bond_atom_site_label_1
_geom_bond_atom_site_label_2
_geom_bond_distance
_geom_bond_site_symmetry_2
Na0 O17 2.376448 1_555
Na0 O20 2.376448 1_555
Na0 O16 2.376448 1_555
Na1 O3 2.376448 1_555
Na1 O1 2.376448 1_555
Na1 O5 2.376448 1_555
Na2 O21 2.376448 1_555
Na2 O18 2.376448 1_555
Na2 O4 2.376448 1_555
Na3 O6 2.376448 1_555
Na3 O0 2.376448 1_555
Na3 O22 2.376448 1_555
Na4 O23 2.376448 1_555
Na4 O2 2.376448 1_555
Na4 O19 2.376448 1_555
Na5 O12 2.376448 1_555
Na5 O7 2.376448 1_555
Na5 O15 2.376448 1_555
Na6 O8 2.376448 1_555
Na6 O13 2.376448 1_555
Na6 O11 2.376448 1_555
Na7 O10 2.376448 1_555
Na7 O14 2.376448 1_555
Na7 O9 2.376448 1_555
Al0 O8 1.758558 1_554
Al0 O2 1.758558 1_555
Al0 O7 1.758558 1_555
Al0 O1 1.758558 1_554
Al1 O6 1.758558 1_555
Al1 O19 1.758558 1_455
Al1 O11 1.758558 1_455
Al1 O17 1.758558 1_555
Al2 O23 1.758558 1_555
Al2 O4 1.758558 1_545
Al2 O15 1.758558 1_545
Al2 O16 1.758558 1_555
Al3 O0 1.758558 1_555
Al3 O10 1.758558 1_545
Al3 O13 1.758558 1_555
Al3 O3 1.758558 1_545
Al4 O21 1.758558 1_555
Al4 O22 1.758558 1_554
Al4 O9 1.758558 1_554
Al4 O20 1.758558 1_555
Al5 O12 1.758558 1_455
Al5 O18 1.758558 1_555
Al5 O14 1.758558 1_555
Al5 O5 1.758558 1_455
Br0 Na0 2.905297 1_555
Br0 Na5 2.905297 1_445
Br0 Na6 2.905297 1_454
Br0 Na7 2.905297 1_544
Br1 Na1 2.905297 1_555
Br1 Na2 2.905297 1_555
Br1 Na3 2.905297 1_555
Br1 Na4 2.905297 1_555
O0 Si1 1.639456 1_555
O1 Si5 1.639456 1_556
O2 Si4 1.639456 1_555
O3 Si0 1.639456 1_565
O4 Si1 1.639456 1_565
O5 Si2 1.639456 1_655
O6 Si2 1.639456 1_555
O7 Si3 1.639456 1_655
O8 Si2 1.639456 1_655
O9 Si2 1.639456 1_555
O10 Si5 1.639456 1_556
O11 Si0 1.639456 1_555
O12 Si0 1.639456 1_565
O13 Si4 1.639456 1_556
O14 Si1 1.639456 1_565
O15 Si5 1.639456 1_555
O16 Si4 1.639456 1_555
O17 Si1 1.639456 1_555
O18 Si3 1.639456 1_555
O19 Si3 1.639456 1_655
O20 Si3 1.639456 1_555
O21 Si5 1.639456 1_555
O22 Si4 1.639456 1_556
O23 Si0 1.639456 1_555
