# generated using pymatgen
data_YMnO3
_symmetry_space_group_name_H-M   'P 1'
_cell_length_a   5.33623100
_cell_length_b   5.88945500
_cell_length_c   7.49551000
_cell_angle_alpha   90.00000000
_cell_angle_beta   90.00000000
_cell_angle_gamma   90.00000000
_symmetry_Int_Tables_number   1
_chemical_formula_structural   YMnO3
_chemical_formula_sum   'Y4 Mn4 O12'
_cell_volume   235.56508314
_cell_formula_units_Z   4
loop_
 _symmetry_equiv_pos_site_id
 _symmetry_equiv_pos_as_xyz
  1  'x, y, z'
loop_
 _atom_site_type_symbol
 _atom_site_label
 _atom_site_symmetry_multiplicity
 _atom_site_fract_x
 _atom_site_fract_y
 _atom_site_fract_z
 _atom_site_occupancy
  Y  Y0  1  0.51815600  0.58293100  0.25000000  1
  Y  Y1  1  0.98184400  0.08293100  0.25000000  1
  Y  Y2  1  0.48184400  0.41706900  0.75000000  1
  Y  Y3  1  0.01815600  0.91706900  0.75000000  1
  Mn  Mn0  1  0.00000000  0.50000000  0.00000000  1
  Mn  Mn1  1  0.50000000  0.00000000  0.50000000  1
  Mn  Mn2  1  0.00000000  0.50000000  0.50000000  1
  Mn  Mn3  1  0.50000000  0.00000000  0.00000000  1
  O  O0  1  0.38313500  0.95837000  0.25000000  1
  O  O1  1  0.11686500  0.45837000  0.25000000  1
  O  O2  1  0.61686500  0.04163000  0.75000000  1
  O  O3  1  0.88313500  0.54163000  0.75000000  1
  O  O4  1  0.80008200  0.82716700  0.05566600  1
  O  O5  1  0.69991800  0.32716700  0.44433400  1
  O  O6  1  0.19991800  0.17283300  0.55566600  1
  O  O7  1  0.30008200  0.67283300  0.94433400  1
  O  O8  1  0.19991800  0.17283300  0.94433400  1
  O  O9  1  0.30008200  0.67283300  0.55566600  1
  O  O10  1  0.80008200  0.82716700  0.44433400  1
  O  O11  1  0.69991800  0.32716700  0.05566600  1
loop_
_geom_bond_atom_site_label_1
_geom_bond_atom_site_label_2
_geom_bond_distance
_geom_bond_site_symmetry_2
Mn0 O11 1.942777 1_455
Mn0 O7 1.942777 1_554
Mn0 O1 1.990083 1_555
Mn0 O3 1.990083 1_454
Mn0 O4 2.241622 1_455
Mn0 O8 2.241622 1_554
Mn1 O6 1.942777 1_555
Mn1 O10 1.942777 1_545
Mn1 O0 1.990083 1_545
Mn1 O2 1.990083 1_555
Mn1 O9 2.241622 1_545
Mn1 O5 2.241622 1_555
Mn2 O5 1.942777 1_455
Mn2 O9 1.942777 1_555
Mn2 O1 1.990083 1_555
Mn2 O3 1.990083 1_455
Mn2 O10 2.241622 1_455
Mn2 O6 2.241622 1_555
Mn3 O8 1.942777 1_554
Mn3 O4 1.942777 1_545
Mn3 O2 1.990083 1_554
Mn3 O0 1.990083 1_545
Mn3 O11 2.241622 1_555
Mn3 O7 2.241622 1_544
O0 Y1 2.263554 1_465
O0 Y0 2.325559 1_555
O1 Y0 2.263554 1_555
O1 Y1 2.325559 1_455
O2 Y3 2.263554 1_645
O2 Y2 2.325559 1_555
O3 Y2 2.263554 1_555
O3 Y3 2.325559 1_655
O4 Y1 2.309005 1_565
O4 Y0 2.540494 1_555
O4 Y3 2.623693 1_654
O5 Y0 2.309005 1_555
O5 Y1 2.540494 1_555
O5 Y2 2.623693 1_555
O6 Y3 2.309005 1_545
O6 Y2 2.540494 1_555
O6 Y1 2.623693 1_455
O7 Y2 2.309005 1_555
O7 Y3 2.540494 1_555
O7 Y0 2.623693 1_556
O8 Y3 2.309005 1_545
O8 Y2 2.540494 1_555
O8 Y1 2.623693 1_456
O9 Y2 2.309005 1_555
O9 Y3 2.540494 1_555
O9 Y0 2.623693 1_555
O10 Y1 2.309005 1_565
O10 Y0 2.540494 1_555
O10 Y3 2.623693 1_655
O11 Y0 2.309005 1_555
O11 Y1 2.540494 1_555
O11 Y2 2.623693 1_554
