# generated using pymatgen
data_KLaGeSe4
_symmetry_space_group_name_H-M   'P 1'
_cell_length_a   7.12578400
_cell_length_b   6.99967200
_cell_length_c   9.20113688
_cell_angle_alpha   72.36482220
_cell_angle_beta   90.00000000
_cell_angle_gamma   90.00000000
_symmetry_Int_Tables_number   1
_chemical_formula_structural   KLaGeSe4
_chemical_formula_sum   'K2 La2 Ge2 Se8'
_cell_volume   437.36793701
_cell_formula_units_Z   2
loop_
 _symmetry_equiv_pos_site_id
 _symmetry_equiv_pos_as_xyz
  1  'x, y, z'
loop_
 _atom_site_type_symbol
 _atom_site_label
 _atom_site_symmetry_multiplicity
 _atom_site_fract_x
 _atom_site_fract_y
 _atom_site_fract_z
 _atom_site_occupancy
  K  K0  1  0.49165800  0.25803900  0.93662600  1
  K  K1  1  0.99165800  0.74196100  0.06337400  1
  La  La0  1  0.50293500  0.23310400  0.44586600  1
  La  La1  1  0.00293500  0.76689600  0.55413400  1
  Ge  Ge0  1  0.47093000  0.78259000  0.31716900  1
  Ge  Ge1  1  0.97093000  0.21741000  0.68283100  1
  Se  Se0  1  0.91773300  0.41832200  0.42542600  1
  Se  Se1  1  0.41773300  0.58167800  0.57457400  1
  Se  Se2  1  0.74483800  0.98741900  0.28360500  1
  Se  Se3  1  0.24483800  0.01258100  0.71639500  1
  Se  Se4  1  0.72785900  0.97107400  0.73052200  1
  Se  Se5  1  0.22785900  0.02892600  0.26947800  1
  Se  Se6  1  0.46742600  0.58206300  0.15318700  1
  Se  Se7  1  0.96742600  0.41793700  0.84681300  1
loop_
_geom_bond_atom_site_label_1
_geom_bond_atom_site_label_2
_geom_bond_distance
_geom_bond_site_symmetry_2
K0 Se6 3.447133 1_556
K0 Se1 3.454607 1_555
K0 Se3 3.501571 1_555
K0 Se5 3.536822 1_556
K0 Se4 3.573785 1_545
K0 Se7 3.587306 1_555
K0 Se2 3.656692 1_546
K0 Se7 3.915305 1_455
K1 Se7 3.447133 1_554
K1 Se0 3.454607 1_555
K1 Se2 3.501571 1_555
K1 Se4 3.536822 1_554
K1 Se5 3.573785 1_665
K1 Se6 3.587306 1_655
K1 Se3 3.656692 1_664
K1 Se6 3.915305 1_555
La0 Se6 3.049074 1_555
La0 Se1 3.078145 1_555
La0 Se3 3.103714 1_555
La0 Se2 3.116635 1_545
La0 Se4 3.143586 1_545
La0 Se5 3.150257 1_555
La0 Se0 3.210137 1_555
La1 Se7 3.049074 1_455
La1 Se0 3.078145 1_455
La1 Se2 3.103714 1_455
La1 Se3 3.116635 1_565
La1 Se5 3.143586 1_565
La1 Se4 3.150257 1_455
La1 Se1 3.210137 1_555
Ge0 Se6 2.351707 1_555
Ge0 Se2 2.385843 1_555
Ge0 Se5 2.388993 1_565
Ge0 Se1 2.390125 1_555
Ge1 Se7 2.351707 1_555
Ge1 Se3 2.385843 1_655
Ge1 Se4 2.388993 1_545
Ge1 Se0 2.390125 1_555
