# generated using pymatgen
data_Rb2MgV2(CuS2)4
_symmetry_space_group_name_H-M   'P 1'
_cell_length_a   5.56085597
_cell_length_b   7.77650077
_cell_length_c   9.87262279
_cell_angle_alpha   91.99497472
_cell_angle_beta   108.08837287
_cell_angle_gamma   89.41711819
_symmetry_Int_Tables_number   1
_chemical_formula_structural   Rb2MgV2(CuS2)4
_chemical_formula_sum   'Rb2 Mg1 V2 Cu4 S8'
_cell_volume   405.58613969
_cell_formula_units_Z   1
loop_
 _symmetry_equiv_pos_site_id
 _symmetry_equiv_pos_as_xyz
  1  'x, y, z'
loop_
 _atom_site_type_symbol
 _atom_site_label
 _atom_site_symmetry_multiplicity
 _atom_site_fract_x
 _atom_site_fract_y
 _atom_site_fract_z
 _atom_site_occupancy
  Rb  Rb0  1  0.55018600  0.78060900  0.37375200  1
  Rb  Rb1  1  0.18540500  0.30300800  0.58481200  1
  Mg  Mg0  1  0.12678400  0.98296200  0.85614500  1
  V  V0  1  0.53207800  0.75294500  0.79792200  1
  V  V1  1  0.70863400  0.25517100  0.20594800  1
  Cu  Cu0  1  0.62128600  0.48079200  0.99002900  1
  Cu  Cu1  1  0.20452400  0.25853700  0.20000800  1
  Cu  Cu2  1  0.04518700  0.64763200  0.79272200  1
  Cu  Cu3  1  0.63856800  0.00680200  0.00207800  1
  S  S0  1  0.95306400  0.02637400  0.21109200  1
  S  S1  1  0.39179500  0.74464100  0.99658000  1
  S  S2  1  0.36546500  0.24848300  0.00587700  1
  S  S3  1  0.71382100  0.49223200  0.78012000  1
  S  S4  1  0.15177800  0.80217500  0.62888100  1
  S  S5  1  0.68191000  0.02402600  0.77828700  1
  S  S6  1  0.57244000  0.26211700  0.38913100  1
  S  S7  1  0.93637500  0.48506400  0.20522800  1
loop_
_geom_bond_atom_site_label_1
_geom_bond_atom_site_label_2
_geom_bond_distance
_geom_bond_site_symmetry_2
Rb0 S4 3.509057 1_655
Rb0 S1 3.551853 1_554
Rb0 S0 3.712887 1_565
Rb0 S6 3.743986 1_565
Rb0 S0 3.745751 1_465
Rb0 S7 3.809772 1_555
Rb0 S4 3.835242 1_555
Rb1 S3 3.299973 1_555
Rb1 S6 3.315219 1_555
Rb1 S6 3.367804 1_455
Rb1 S5 3.587496 1_555
Rb1 S4 3.900075 1_555
Rb1 S4 3.946705 1_545
Mg0 S5 2.373415 1_465
Mg0 S1 2.526525 1_555
Mg0 S2 2.614431 1_566
Mg0 S4 2.645760 1_555
Cu0 S3 2.289825 1_555
Cu0 S7 2.295576 1_556
Cu0 S2 2.349901 1_556
Cu0 S1 2.414849 1_555
Cu1 S6 2.301789 1_555
Cu1 S7 2.305925 1_455
Cu1 S0 2.320986 1_455
Cu1 S2 2.352371 1_555
Cu2 S3 2.182617 1_455
Cu2 S4 2.270972 1_555
Cu2 S1 2.418628 1_555
Cu2 Mg0 2.670578 1_555
Cu2 V0 2.821336 1_555
Cu2 V0 2.975785 1_455
Cu2 Rb1 3.545672 1_555
Cu3 S0 2.254417 1_555
Cu3 S5 2.304220 1_554
Cu3 S2 2.410907 1_555
Cu3 S1 2.458721 1_544
Cu3 Mg0 2.766870 1_544
S0 V1 2.220367 1_555
S1 V0 2.327923 1_555
S2 V1 2.280374 1_555
S3 V0 2.281795 1_555
S4 V0 2.289210 1_555
S5 V0 2.310886 1_545
S6 V1 2.165653 1_555
S7 V1 2.202849 1_555
