# generated using pymatgen
data_La2CoO4
_symmetry_space_group_name_H-M   'P 1'
_cell_length_a   5.48754788
_cell_length_b   5.74836900
_cell_length_c   12.54695534
_cell_angle_alpha   89.99965620
_cell_angle_beta   90.00102792
_cell_angle_gamma   90.00313393
_symmetry_Int_Tables_number   1
_chemical_formula_structural   La2CoO4
_chemical_formula_sum   'La8 Co4 O16'
_cell_volume   395.78680616
_cell_formula_units_Z   4
loop_
 _symmetry_equiv_pos_site_id
 _symmetry_equiv_pos_as_xyz
  1  'x, y, z'
loop_
 _atom_site_type_symbol
 _atom_site_label
 _atom_site_symmetry_multiplicity
 _atom_site_fract_x
 _atom_site_fract_y
 _atom_site_fract_z
 _atom_site_occupancy
  La  La0  1  0.00001100  0.48201100  0.13804200  1
  La  La1  1  0.49998600  0.48203500  0.63805500  1
  La  La2  1  0.50002200  0.51795400  0.36195200  1
  La  La3  1  0.99999600  0.51800400  0.86195200  1
  La  La4  1  0.99999200  0.98202900  0.36195000  1
  La  La5  1  0.49997500  0.98202500  0.86194200  1
  La  La6  1  0.50000600  0.01796800  0.13805600  1
  La  La7  1  0.99998700  0.01797100  0.63805400  1
  Co  Co0  1  0.00000200  0.49999900  0.50000000  1
  Co  Co1  1  0.00000100  0.00000100  0.00000000  1
  Co  Co2  1  0.50000100  0.50000200  0.00000000  1
  Co  Co3  1  0.50000200  0.00000300  0.50000000  1
  O  O0  1  0.99999200  0.57348800  0.31793900  1
  O  O1  1  0.49999700  0.57347900  0.81796000  1
  O  O2  1  0.50000400  0.42651500  0.18203900  1
  O  O3  1  0.00001200  0.42651300  0.68205900  1
  O  O4  1  0.99999700  0.07348600  0.18206800  1
  O  O5  1  0.49999700  0.07349400  0.68205000  1
  O  O6  1  0.50000200  0.92650000  0.31795000  1
  O  O7  1  0.00000700  0.92651300  0.81793000  1
  O  O8  1  0.25000300  0.25000700  0.48054600  1
  O  O9  1  0.74999800  0.24998500  0.98054600  1
  O  O10  1  0.75000300  0.75003000  0.01945100  1
  O  O11  1  0.24999500  0.74998700  0.51945300  1
  O  O12  1  0.75000800  0.25001800  0.48054800  1
  O  O13  1  0.25000500  0.24997600  0.98055000  1
  O  O14  1  0.25000800  0.75002200  0.01945300  1
  O  O15  1  0.74999200  0.74998700  0.51945500  1
loop_
_geom_bond_atom_site_label_1
_geom_bond_atom_site_label_2
_geom_bond_distance
_geom_bond_site_symmetry_2
La0 O0 2.317606 1_455
La0 O4 2.412443 1_455
La0 O14 2.543484 1_555
La0 O10 2.543621 1_455
La0 O9 2.750618 1_454
La0 O13 2.750664 1_554
La0 O2 2.816847 1_555
La0 O2 2.816907 1_455
La1 O1 2.317660 1_555
La1 O5 2.412443 1_555
La1 O15 2.543386 1_555
La1 O11 2.543418 1_555
La1 O8 2.750659 1_555
La1 O12 2.750825 1_555
La1 O3 2.816765 1_555
La1 O3 2.817058 1_655
La2 O2 2.317751 1_555
La2 O6 2.412492 1_555
La2 O12 2.543304 1_555
La2 O8 2.543363 1_555
La2 O15 2.750583 1_555
La2 O11 2.750829 1_555
La2 O0 2.816774 1_555
La2 O0 2.817109 1_455
La3 O3 2.317575 1_655
La3 O7 2.412342 1_655
La3 O9 2.543551 1_555
La3 O13 2.543707 1_655
La3 O14 2.750638 1_656
La3 O10 2.750699 1_556
La3 O1 2.816849 1_655
La3 O1 2.816853 1_555
La4 O4 2.317390 1_565
La4 O0 2.412496 1_555
La4 O8 2.543444 1_665
La4 O12 2.543537 1_565
La4 O15 2.750732 1_555
La4 O11 2.750760 1_655
La4 O6 2.816827 1_555
La4 O6 2.816987 1_655
La5 O5 2.317528 1_565
La5 O1 2.412441 1_555
La5 O13 2.543436 1_565
La5 O9 2.543475 1_565
La5 O14 2.750587 1_556
La5 O10 2.750752 1_556
La5 O7 2.816728 1_555
La5 O7 2.817123 1_655
La6 O6 2.317551 1_545
La6 O2 2.412449 1_555
La6 O14 2.543345 1_545
La6 O10 2.543449 1_545
La6 O9 2.750686 1_554
La6 O13 2.750687 1_554
La6 O4 2.816854 1_555
La6 O4 2.817004 1_455
La7 O7 2.317318 1_645
La7 O3 2.412484 1_655
La7 O15 2.543439 1_545
La7 O11 2.543612 1_645
La7 O12 2.750735 1_555
La7 O8 2.750787 1_655
La7 O5 2.816866 1_555
La7 O5 2.816920 1_655
Co0 O12 2.001561 1_455
Co0 O11 2.001588 1_555
Co0 O8 2.001750 1_555
Co0 O15 2.001769 1_455
Co0 O3 2.323014 1_555
Co0 O0 2.323042 1_455
Co1 O10 2.001537 1_445
Co1 O13 2.001575 1_554
Co1 O14 2.001709 1_545
Co1 O9 2.001716 1_454
Co1 O4 2.323129 1_455
Co1 O7 2.323157 1_544
Co2 O13 2.001751 1_554
Co2 O10 2.001784 1_555
Co2 O14 2.001834 1_555
Co2 O9 2.001838 1_554
Co2 O2 2.322768 1_555
Co2 O1 2.322770 1_554
Co3 O12 2.001751 1_555
Co3 O11 2.001760 1_545
Co3 O8 2.001784 1_555
Co3 O15 2.001801 1_545
Co3 O5 2.322913 1_555
Co3 O6 2.322926 1_545
