# generated using pymatgen
data_Cs4Mg(WO4)2
_symmetry_space_group_name_H-M   'P 1'
_cell_length_a   6.65074305
_cell_length_b   7.58101948
_cell_length_c   10.68777174
_cell_angle_alpha   67.88341927
_cell_angle_beta   86.57513766
_cell_angle_gamma   63.91608293
_symmetry_Int_Tables_number   1
_chemical_formula_structural   Cs4Mg(WO4)2
_chemical_formula_sum   'Cs4 Mg1 W2 O8'
_cell_volume   444.73635115
_cell_formula_units_Z   1
loop_
 _symmetry_equiv_pos_site_id
 _symmetry_equiv_pos_as_xyz
  1  'x, y, z'
loop_
 _atom_site_type_symbol
 _atom_site_label
 _atom_site_symmetry_multiplicity
 _atom_site_fract_x
 _atom_site_fract_y
 _atom_site_fract_z
 _atom_site_occupancy
  Cs  Cs0  1  0.48237216  0.99654244  0.18371675  1
  Cs  Cs1  1  0.17288002  0.68093405  0.78897601  1
  Cs  Cs2  1  0.82158936  0.31903194  0.21619940  1
  Cs  Cs3  1  0.51215408  0.00017069  0.80869935  1
  Mg  Mg0  1  0.83490701  0.49640914  0.53308903  1
  W  W0  1  0.15962334  0.67355393  0.15337868  1
  W  W1  1  0.84794109  0.32962307  0.83653235  1
  O  O0  1  0.08917234  0.84512317  0.24703946  1
  O  O1  1  0.73266433  0.60431457  0.70489299  1
  O  O2  1  0.07152697  0.28564614  0.94987489  1
  O  O3  1  0.62408656  0.27887226  0.92259262  1
  O  O4  1  0.90708101  0.72626596  0.05672443  1
  O  O5  1  0.35274396  0.72895218  0.03288972  1
  O  O6  1  0.30425462  0.39122308  0.26201460  1
  O  O7  1  0.95700314  0.19333738  0.71744171  1
loop_
_geom_bond_atom_site_label_1
_geom_bond_atom_site_label_2
_geom_bond_distance
_geom_bond_site_symmetry_2
Cs0 O6 3.115472 1_565
Cs0 O2 3.152942 1_564
Cs0 O3 3.196873 1_564
Cs0 O0 3.233831 1_555
Cs0 O4 3.250465 1_555
Cs0 O5 3.409312 1_555
Cs0 O0 3.705394 1_655
Cs0 Mg0 4.047707 1_555
Cs1 O3 3.086436 1_555
Cs1 O5 3.135197 1_556
Cs1 O2 3.185781 1_555
Cs1 O7 3.275050 1_465
Cs1 O4 3.321732 1_456
Cs1 O1 3.452483 1_455
Cs1 O1 3.619009 1_555
Cs2 O0 3.120777 1_645
Cs2 O4 3.197671 1_555
Cs2 O2 3.245992 1_654
Cs2 O6 3.274455 1_555
Cs2 O5 3.292852 1_555
Cs2 O6 3.574691 1_655
Cs2 O3 3.637123 1_554
Cs2 Mg0 4.105687 1_555
Cs3 O5 2.999436 1_546
Cs3 O3 3.150877 1_555
Cs3 O4 3.182538 1_546
Cs3 O1 3.290905 1_545
Cs3 O7 3.365712 1_455
Cs3 O2 3.449868 1_555
Cs3 O7 3.773408 1_555
Mg0 O7 2.227606 1_555
Mg0 O1 2.235151 1_555
O0 W0 1.817076 1_555
O1 W1 1.850022 1_555
O2 W1 1.806920 1_455
O3 W1 1.812235 1_555
O4 W0 1.831419 1_655
O5 W0 1.831357 1_555
O6 W0 1.818294 1_555
O7 W1 1.853251 1_555
