# generated using pymatgen
data_Na3Ca2Sc2PS5O24
_symmetry_space_group_name_H-M   'P 1'
_cell_length_a   9.07914974
_cell_length_b   9.04115202
_cell_length_c   23.44756549
_cell_angle_alpha   90.01205617
_cell_angle_beta   89.94636647
_cell_angle_gamma   119.87126464
_symmetry_Int_Tables_number   1
_chemical_formula_structural   Na3Ca2Sc2PS5O24
_chemical_formula_sum   'Na9 Ca6 Sc6 P3 S15 O72'
_cell_volume   1669.01041403
_cell_formula_units_Z   3
loop_
 _symmetry_equiv_pos_site_id
 _symmetry_equiv_pos_as_xyz
  1  'x, y, z'
loop_
 _atom_site_type_symbol
 _atom_site_label
 _atom_site_symmetry_multiplicity
 _atom_site_fract_x
 _atom_site_fract_y
 _atom_site_fract_z
 _atom_site_occupancy
  Na  Na0  1  0.36492875  0.99562926  0.75070506  1
  Na  Na1  1  0.66464458  0.96276053  0.58793362  1
  Na  Na2  1  0.66966572  0.70298200  0.08228217  1
  Na  Na3  1  0.02558227  0.00096711  0.50034324  1
  Na  Na4  1  0.01559745  0.00353614  0.99911274  1
  Na  Na5  1  0.68028461  0.33923142  0.83409353  1
  Na  Na6  1  0.66667369  0.33334673  0.33338730  1
  Na  Na7  1  0.30662766  0.66470869  0.16725870  1
  Na  Na8  1  0.33140257  0.65766951  0.66698402  1
  Ca  Ca0  1  0.00519222  0.00068610  0.64658928  1
  Ca  Ca1  1  0.00900180  0.00294014  0.14713004  1
  Ca  Ca2  1  0.31692300  0.66593273  0.01658033  1
  Ca  Ca3  1  0.32580217  0.66596612  0.51540812  1
  Ca  Ca4  1  0.33312626  0.66715980  0.31899296  1
  Ca  Ca5  1  0.33838971  0.66505651  0.82034385  1
  Sc  Sc0  1  0.00053267  0.99964458  0.34824510  1
  Sc  Sc1  1  0.98511770  0.00006777  0.84725401  1
  Sc  Sc2  1  0.66640006  0.32867451  0.68550430  1
  Sc  Sc3  1  0.67568977  0.33789633  0.18625018  1
  Sc  Sc4  1  0.67395421  0.33692769  0.98272592  1
  Sc  Sc5  1  0.65778341  0.32855034  0.48229022  1
  P  P0  1  0.70206872  0.00415243  0.74649190  1
  P  P1  1  0.38135331  0.04623746  0.58422027  1
  P  P2  1  0.95173735  0.61764894  0.08409932  1
  S  S0  1  0.30209055  0.00798105  0.25041451  1
  S  S1  1  0.70592099  0.70087134  0.24861679  1
  S  S2  1  0.99390125  0.29266297  0.25017782  1
  S  S3  1  0.29805732  0.29299164  0.75020947  1
  S  S4  1  0.99451520  0.70189218  0.75117948  1
  S  S5  1  0.95173900  0.33592697  0.58266791  1
  S  S6  1  0.66508664  0.61898963  0.58307323  1
  S  S7  1  0.66549909  0.04524582  0.08363558  1
  S  S8  1  0.38560145  0.33482627  0.08304058  1
  S  S9  1  0.64467225  0.66770985  0.91901817  1
  S  S10  1  0.02344809  0.35511789  0.91628874  1
  S  S11  1  0.33141183  0.98046883  0.91454458  1
  S  S12  1  0.64620815  0.97632827  0.41766407  1
  S  S13  1  0.33073011  0.35573050  0.41595654  1
  S  S14  1  0.02112085  0.66670385  0.41594947  1
  O  O0  1  0.21094123  0.02529614  0.30138843  1
  O  O1  1  0.81810496  0.79481203  0.29824674  1
  O  O2  1  0.97719340  0.18544067  0.30130824  1
  O  O3  1  0.21045810  0.18080834  0.80065574  1
  O  O4  1  0.97508248  0.78980105  0.80230280  1
  O  O5  1  0.81782825  0.01977570  0.79868774  1
  O  O6  1  0.77573405  0.98388006  0.69046228  1
  O  O7  1  0.20269411  0.21630490  0.69797581  1
  O  O8  1  0.02307359  0.80530768  0.69970369  1
  O  O9  1  0.77922890  0.79390878  0.19498380  1
  O  O10  1  0.01229894  0.21426978  0.19815550  1
  O  O11  1  0.20506013  0.98740145  0.19828323  1
  O  O12  1  0.86493482  0.34789543  0.63521803  1
  O  O13  1  0.48368814  0.13849810  0.64003746  1
  O  O14  1  0.65909120  0.52313679  0.63530872  1
  O  O15  1  0.85347380  0.51306263  0.13814576  1
  O  O16  1  0.65281813  0.13202560  0.13573502  1
  O  O17  1  0.48415312  0.34426674  0.13513932  1
  O  O18  1  0.47233041  0.32121612  0.03109066  1
  O  O19  1  0.84499390  0.51978129  0.03064577  1
  O  O20  1  0.67281166  0.14197771  0.03161194  1
  O  O21  1  0.48492307  0.15473940  0.53185752  1
  O  O22  1  0.67602297  0.53124584  0.53112895  1
  O  O23  1  0.85295917  0.32836301  0.53122289  1
  O  O24  1  0.57232205  0.69515813  0.97191349  1
  O  O25  1  0.12797816  0.42972360  0.96741856  1
  O  O26  1  0.30369273  0.86997271  0.96427359  1
  O  O27  1  0.57645041  0.87640903  0.47071678  1
  O  O28  1  0.30126657  0.43033439  0.46739070  1
  O  O29  1  0.12607064  0.69918395  0.46734842  1
  O  O30  1  0.09734462  0.63526226  0.36555503  1
  O  O31  1  0.53481750  0.89544878  0.36861531  1
  O  O32  1  0.36034787  0.46192755  0.36537148  1
  O  O33  1  0.09785619  0.46081252  0.86546746  1
  O  O34  1  0.36069600  0.90815465  0.86179673  1
  O  O35  1  0.53590666  0.63958231  0.86944265  1
  O  O36  1  0.00167062  0.82166884  0.40708152  1
  O  O37  1  0.81850105  0.99560925  0.40782137  1
  O  O38  1  0.17813500  0.18093717  0.40773743  1
  O  O39  1  0.00311608  0.18077984  0.90844167  1
  O  O40  1  0.17823436  0.00056124  0.90787980  1
  O  O41  1  0.81733557  0.82147003  0.91007899  1
  O  O42  1  0.95583753  0.17330802  0.58325477  1
  O  O43  1  0.20538806  0.02782721  0.58273905  1
  O  O44  1  0.81637579  0.79337813  0.58329892  1
  O  O45  1  0.95607962  0.79095771  0.08336145  1
  O  O46  1  0.82021955  0.02834770  0.08454949  1
  O  O47  1  0.21325103  0.18660235  0.08404511  1
  O  O48  1  0.68724153  0.17191611  0.74576782  1
  O  O49  1  0.46888782  0.30120313  0.74736898  1
  O  O50  1  0.83812457  0.53156860  0.74659988  1
  O  O51  1  0.69402842  0.52848009  0.24690778  1
  O  O52  1  0.83306105  0.30317535  0.24774072  1
  O  O53  1  0.47243774  0.16750391  0.24747023  1
  O  O54  1  0.66617055  0.51406770  0.92445929  1
  O  O55  1  0.84880089  0.33241005  0.92385676  1
  O  O56  1  0.48509668  0.15274617  0.92332604  1
  O  O57  1  0.66856472  0.15191028  0.42404570  1
  O  O58  1  0.48388038  0.33423649  0.42313342  1
  O  O59  1  0.84751125  0.51560145  0.42403464  1
  O  O60  1  0.38146367  0.49784553  0.08102121  1
  O  O61  1  0.12866672  0.63731020  0.08412845  1
  O  O62  1  0.51456546  0.87027449  0.08195619  1
  O  O63  1  0.37741759  0.87277752  0.58305602  1
  O  O64  1  0.51020588  0.63614236  0.58197770  1
  O  O65  1  0.12392263  0.48444851  0.58147745  1
  O  O66  1  0.32505058  0.85812451  0.25637971  1
  O  O67  1  0.53502215  0.67868561  0.25574310  1
  O  O68  1  0.14175510  0.46565421  0.25586867  1
  O  O69  1  0.32323317  0.46537043  0.75661667  1
  O  O70  1  0.14739596  0.68327486  0.75798212  1
  O  O71  1  0.51885491  0.85348590  0.75418851  1
loop_
_geom_bond_atom_site_label_1
_geom_bond_atom_site_label_2
_geom_bond_distance
_geom_bond_site_symmetry_2
Na0 O71 2.323916 1_555
Na0 O49 2.435609 1_565
Na0 O70 2.519679 1_555
Na0 O48 2.543742 1_565
Na0 O34 2.717075 1_555
Na0 O13 2.858907 1_565
Na0 O3 2.911480 1_565
Na0 O8 2.951345 1_555
Na1 O63 2.315743 1_555
Na1 O42 2.368913 1_565
Na1 O44 2.521087 1_555
Na1 O64 2.565448 1_555
Na1 O6 2.577922 1_555
Na1 O27 2.860973 1_555
Na2 O45 2.309798 1_555
Na2 O60 2.335265 1_555
Na2 O62 2.528311 1_555
Na2 O46 2.553326 1_565
Na2 O24 2.724911 1_554
Na2 O9 2.799640 1_555
Na3 O43 2.463196 1_555
Na3 O38 2.651754 1_555
Na3 O36 2.665659 1_545
Na3 O44 2.712447 1_445
Na3 O42 2.754541 1_455
Na3 O37 2.856646 1_445
Na4 O40 2.605925 1_555
Na4 O45 2.617880 1_446
Na4 O47 2.640526 1_556
Na4 O39 2.698800 1_555
Na4 O41 2.713309 1_445
Na4 O46 2.756737 1_456
Na5 O48 2.583616 1_555
Na5 O50 2.607678 1_555
Na5 O55 2.621949 1_555
Na5 O54 2.684122 1_555
Na5 O49 2.699382 1_555
Na5 O56 2.716459 1_555
Na6 O53 2.605383 1_555
Na6 O52 2.606519 1_555
Na6 O51 2.617251 1_555
Na6 O58 2.681289 1_555
Na6 O59 2.690472 1_555
Na6 O57 2.690624 1_555
Na7 O61 2.465433 1_555
Na7 O68 2.666206 1_555
Na7 O66 2.675896 1_555
Na7 O62 2.741956 1_555
Na7 O60 2.800633 1_555
Na7 O67 2.892644 1_555
Na8 O64 2.637152 1_555
Na8 O63 2.649579 1_555
Na8 O65 2.662328 1_555
Na8 O71 2.686153 1_555
Na8 O69 2.705189 1_555
Na8 O70 2.788467 1_555
Ca0 O8 2.232641 1_545
Ca0 O7 2.233494 1_555
Ca0 O6 2.258796 1_445
Ca0 O43 2.270705 1_555
Ca0 O44 2.336040 1_445
Ca0 O42 2.353884 1_455
Ca1 O11 2.209086 1_545
Ca1 O10 2.241671 1_555
Ca1 O45 2.285302 1_445
Ca1 O9 2.291714 1_445
Ca1 O47 2.304943 1_555
Ca1 O46 2.353868 1_455
Ca2 O61 2.247536 1_555
Ca2 O26 2.267979 1_554
Ca2 O25 2.277227 1_554
Ca2 O62 2.384251 1_555
Ca2 O60 2.413626 1_555
Ca2 O24 2.434919 1_554
Ca3 O29 2.279235 1_555
Ca3 O63 2.314971 1_555
Ca3 O28 2.320026 1_555
Ca3 O65 2.334988 1_555
Ca3 O27 2.362263 1_555
Ca3 O64 2.401436 1_555
Ca4 O32 2.268223 1_555
Ca4 O31 2.281500 1_555
Ca4 O30 2.288780 1_555
Ca4 O66 2.295449 1_555
Ca4 O67 2.318418 1_555
Ca4 O68 2.319327 1_555
Ca5 O35 2.238232 1_555
Ca5 O71 2.282315 1_555
Ca5 O69 2.294108 1_555
Ca5 O33 2.297402 1_555
Ca5 O34 2.317872 1_555
Ca5 O70 2.337002 1_555
O0 S0 1.504997 1_555
O0 Sc0 2.113078 1_545
O1 S1 1.501025 1_555
O1 Sc0 2.120056 1_655
O2 S2 1.501254 1_555
O2 Sc0 2.105628 1_645
O3 S3 1.501868 1_555
O3 Sc1 2.171677 1_455
O4 S4 1.496209 1_555
O4 Sc1 2.135420 1_565
O5 P0 1.573802 1_555
O5 Sc1 1.976947 1_555
O6 P0 1.525527 1_565
O7 S3 1.460834 1_555
O8 S4 1.468555 1_455
O9 S1 1.474182 1_555
O10 S2 1.461279 1_455
O11 S0 1.464066 1_565
O12 S5 1.494706 1_555
O12 Sc2 2.086538 1_555
O13 P1 1.581697 1_555
O13 Sc2 2.001533 1_555
O14 S6 1.485749 1_555
O14 Sc2 2.144299 1_555
O15 P2 1.566547 1_555
O15 Sc3 1.958764 1_555
O16 S7 1.486764 1_555
O16 Sc3 2.127218 1_555
O17 S8 1.492011 1_555
O17 Sc3 2.137130 1_555
O18 S8 1.487818 1_555
O18 Sc4 2.096275 1_554
O19 P2 1.562269 1_555
O19 Sc4 1.962725 1_554
O20 S7 1.483144 1_555
O20 Sc4 2.098402 1_554
O21 P1 1.559960 1_555
O21 Sc5 1.955510 1_555
O22 S6 1.483396 1_555
O22 Sc5 2.096280 1_555
O23 S5 1.484909 1_555
O23 Sc5 2.112654 1_555
O24 S9 1.480561 1_555
O25 S10 1.468702 1_555
O26 S11 1.473254 1_555
O27 S12 1.481124 1_555
O28 S13 1.469609 1_555
O29 S14 1.473059 1_555
O30 S14 1.466379 1_555
O31 S12 1.464703 1_555
O32 S13 1.464142 1_555
O33 S10 1.464743 1_555
O34 S11 1.483254 1_555
O35 S9 1.463876 1_555
O36 S14 1.511304 1_555
O36 Sc0 2.123691 1_555
O37 S12 1.502770 1_555
O37 Sc0 2.149358 1_655
O38 S13 1.507803 1_555
O38 Sc0 2.145493 1_545
O39 S10 1.504161 1_555
O39 Sc1 2.118497 1_455
O40 S11 1.497864 1_545
O40 Sc1 2.256505 1_455
O41 S9 1.504228 1_555
O41 Sc1 2.155107 1_565
O42 S5 1.489212 1_555
O43 P1 1.522005 1_555
O44 S6 1.488422 1_555
O45 P2 1.547753 1_555
O46 S7 1.486910 1_555
O47 S8 1.468384 1_555
O48 P0 1.588215 1_555
O48 Sc2 2.075962 1_555
O49 S3 1.516788 1_555
O49 Sc2 2.221082 1_555
O50 S4 1.490367 1_555
O50 Sc2 2.236560 1_555
O51 S1 1.508275 1_555
O51 Sc3 2.175610 1_555
O52 S2 1.511014 1_555
O52 Sc3 2.160932 1_555
O53 S0 1.501602 1_555
O53 Sc3 2.236817 1_555
O54 S9 1.501392 1_555
O54 Sc4 2.133150 1_555
O55 S10 1.504372 1_655
O55 Sc4 2.118370 1_555
O56 S11 1.500311 1_545
O56 Sc4 2.193670 1_555
O57 S12 1.504201 1_545
O57 Sc5 2.140035 1_555
O58 S13 1.506357 1_555
O58 Sc5 2.122387 1_555
O59 S14 1.497117 1_655
O59 Sc5 2.188117 1_555
O60 S8 1.493710 1_555
O61 P2 1.525642 1_455
O62 S7 1.490856 1_565
O63 P1 1.551025 1_565
O64 S6 1.489752 1_555
O65 S5 1.468564 1_455
O66 S0 1.476542 1_565
O67 S1 1.471454 1_555
O68 S2 1.474756 1_455
O69 S3 1.465901 1_555
O70 S4 1.487799 1_455
O71 P0 1.548415 1_565
