# generated using pymatgen
data_CsNO3
_symmetry_space_group_name_H-M   'P 1'
_cell_length_a   5.55043639
_cell_length_b   5.07934978
_cell_length_c   6.15494142
_cell_angle_alpha   90.00000000
_cell_angle_beta   90.00000000
_cell_angle_gamma   90.00000000
_symmetry_Int_Tables_number   1
_chemical_formula_structural   CsNO3
_chemical_formula_sum   'Cs2 N2 O6'
_cell_volume   173.52384983
_cell_formula_units_Z   2
loop_
 _symmetry_equiv_pos_site_id
 _symmetry_equiv_pos_as_xyz
  1  'x, y, z'
loop_
 _atom_site_type_symbol
 _atom_site_label
 _atom_site_symmetry_multiplicity
 _atom_site_fract_x
 _atom_site_fract_y
 _atom_site_fract_z
 _atom_site_occupancy
  Cs  Cs0  1  0.25000000  0.40170045  0.75000000  1
  Cs  Cs1  1  0.75000000  0.59829955  0.25000000  1
  N  N0  1  0.75000000  0.99404318  0.75000000  1
  N  N1  1  0.25000000  0.00595682  0.25000000  1
  O  O0  1  0.25000000  0.88168439  0.07251148  1
  O  O1  1  0.75000000  0.11831561  0.92748852  1
  O  O2  1  0.25000000  0.25468694  0.25000000  1
  O  O3  1  0.75000000  0.74531306  0.75000000  1
  O  O4  1  0.25000000  0.88168439  0.42748852  1
  O  O5  1  0.75000000  0.11831561  0.57251148  1
loop_
_geom_bond_atom_site_label_1
_geom_bond_atom_site_label_2
_geom_bond_distance
_geom_bond_site_symmetry_2
Cs0 O4 3.143924 1_555
Cs0 O0 3.143924 1_556
Cs0 O2 3.166771 1_555
Cs0 O2 3.166771 1_556
Cs0 O3 3.278415 1_555
Cs0 O3 3.278415 1_455
Cs0 O0 3.304100 1_546
Cs0 O4 3.304100 1_545
Cs0 O1 3.311668 1_555
Cs0 O5 3.311668 1_555
Cs0 O5 3.311668 1_455
Cs0 O1 3.311668 1_455
Cs1 O1 3.143924 1_554
Cs1 O5 3.143924 1_555
Cs1 O3 3.166771 1_555
Cs1 O3 3.166771 1_554
Cs1 O2 3.278415 1_555
Cs1 O2 3.278415 1_655
Cs1 O1 3.304100 1_564
Cs1 O5 3.304100 1_565
Cs1 O4 3.311668 1_555
Cs1 O0 3.311668 1_655
Cs1 O4 3.311668 1_655
Cs1 O0 3.311668 1_555
N0 O1 1.261685 1_565
N0 O5 1.261685 1_565
N0 O3 1.263387 1_555
N1 O4 1.261685 1_545
N1 O0 1.261685 1_545
N1 O2 1.263387 1_555
