# generated using pymatgen
data_MgCoHO2
_symmetry_space_group_name_H-M   'P 1'
_cell_length_a   5.91835197
_cell_length_b   5.91267064
_cell_length_c   5.91267052
_cell_angle_alpha   33.46162542
_cell_angle_beta   33.49558446
_cell_angle_gamma   33.49558573
_symmetry_Int_Tables_number   1
_chemical_formula_structural   MgCoHO2
_chemical_formula_sum   'Mg1 Co1 H1 O2'
_cell_volume   56.08893116
_cell_formula_units_Z   1
loop_
 _symmetry_equiv_pos_site_id
 _symmetry_equiv_pos_as_xyz
  1  'x, y, z'
loop_
 _atom_site_type_symbol
 _atom_site_label
 _atom_site_symmetry_multiplicity
 _atom_site_fract_x
 _atom_site_fract_y
 _atom_site_fract_z
 _atom_site_occupancy
  Mg  Mg0  1  0.24551119  0.24664575  0.24664575  1
  Co  Co0  1  0.03883052  0.04666861  0.04666861  1
  H  H0  1  0.48056626  0.48013123  0.48013123  1
  O  O0  1  0.36161872  0.36694782  0.36694782  1
  O  O1  1  0.54014030  0.54016259  0.54016259  1
loop_
_geom_bond_atom_site_label_1
_geom_bond_atom_site_label_2
_geom_bond_distance
_geom_bond_site_symmetry_2
Mg0 O0 1.989661 1_555
Mg0 O1 2.074727 1_554
Mg0 O1 2.074727 1_545
Mg0 O1 2.075936 1_455
Co0 O0 1.975292 1_455
Co0 O0 1.979285 1_554
Co0 O0 1.979285 1_545
H0 O1 1.001973 1_555
