# generated using pymatgen
data_TbTiGe
_symmetry_space_group_name_H-M   'P 1'
_cell_length_a   4.04114053
_cell_length_b   4.04114053
_cell_length_c   7.76484200
_cell_angle_alpha   90.00000000
_cell_angle_beta   90.00000000
_cell_angle_gamma   90.00000000
_symmetry_Int_Tables_number   1
_chemical_formula_structural   TbTiGe
_chemical_formula_sum   'Tb2 Ti2 Ge2'
_cell_volume   126.80621205
_cell_formula_units_Z   2
loop_
 _symmetry_equiv_pos_site_id
 _symmetry_equiv_pos_as_xyz
  1  'x, y, z'
loop_
 _atom_site_type_symbol
 _atom_site_label
 _atom_site_symmetry_multiplicity
 _atom_site_fract_x
 _atom_site_fract_y
 _atom_site_fract_z
 _atom_site_occupancy
  Tb  Tb0  1  0.00000000  0.50000000  0.34792591  1
  Tb  Tb1  1  0.50000000  -0.00000000  0.65207409  1
  Ti  Ti0  1  0.50000000  0.50000000  0.00000000  1
  Ti  Ti1  1  0.00000000  0.00000000  0.00000000  1
  Ge  Ge0  1  0.50000000  0.00000000  0.24008605  1
  Ge  Ge1  1  -0.00000000  0.50000000  0.75991395  1
loop_
_geom_bond_atom_site_label_1
_geom_bond_atom_site_label_2
_geom_bond_distance
_geom_bond_site_symmetry_2
Ge0 Ti0 2.749192 1_545
Ge0 Ti1 2.749192 1_555
Ge0 Ti1 2.749192 1_655
Ge0 Ti0 2.749192 1_555
Ge0 Tb0 2.977680 1_545
Ge0 Tb0 2.977680 1_655
Ge0 Tb0 2.977680 1_555
Ge0 Tb0 2.977680 1_645
Ge0 Tb1 3.199022 1_555
Ge1 Ti0 2.749192 1_556
Ge1 Ti1 2.749192 1_556
Ge1 Ti1 2.749192 1_566
Ge1 Ti0 2.749192 1_456
Ge1 Tb1 2.977680 1_465
Ge1 Tb1 2.977680 1_565
Ge1 Tb1 2.977680 1_455
Ge1 Tb1 2.977680 1_555
Ge1 Tb0 3.199022 1_555
