# generated using pymatgen
data_Ca2Mn2O5
_symmetry_space_group_name_H-M   'P 1'
_cell_length_a   3.83360100
_cell_length_b   5.48019300
_cell_length_c   10.37721200
_cell_angle_alpha   90.00000000
_cell_angle_beta   90.00000000
_cell_angle_gamma   90.00000000
_symmetry_Int_Tables_number   1
_chemical_formula_structural   Ca2Mn2O5
_chemical_formula_sum   'Ca4 Mn4 O10'
_cell_volume   218.01353279
_cell_formula_units_Z   2
loop_
 _symmetry_equiv_pos_site_id
 _symmetry_equiv_pos_as_xyz
  1  'x, y, z'
loop_
 _atom_site_type_symbol
 _atom_site_label
 _atom_site_symmetry_multiplicity
 _atom_site_fract_x
 _atom_site_fract_y
 _atom_site_fract_z
 _atom_site_occupancy
  Ca  Ca0  1  0.50000000  0.69503100  0.87084300  1
  Ca  Ca1  1  0.50000000  0.30496900  0.12915700  1
  Ca  Ca2  1  0.50000000  0.19503100  0.62915700  1
  Ca  Ca3  1  0.50000000  0.80496900  0.37084300  1
  Mn  Mn0  1  0.00000000  0.72093600  0.62112500  1
  Mn  Mn1  1  0.00000000  0.27906400  0.37887500  1
  Mn  Mn2  1  0.00000000  0.77906400  0.12112500  1
  Mn  Mn3  1  0.00000000  0.22093600  0.87887500  1
  O  O0  1  0.00000000  0.00000000  0.50000000  1
  O  O1  1  0.00000000  0.58186800  0.28992900  1
  O  O2  1  0.00000000  0.08186800  0.21007100  1
  O  O3  1  0.00000000  0.91813200  0.78992900  1
  O  O4  1  0.50000000  0.79008700  0.09966900  1
  O  O5  1  0.50000000  0.20991300  0.90033100  1
  O  O6  1  0.00000000  0.41813200  0.71007100  1
  O  O7  1  0.50000000  0.70991300  0.59966900  1
  O  O8  1  0.00000000  0.50000000  0.00000000  1
  O  O9  1  0.50000000  0.29008700  0.40033100  1
loop_
_geom_bond_atom_site_label_1
_geom_bond_atom_site_label_2
_geom_bond_distance
_geom_bond_site_symmetry_2
Ca0 O3 2.423633 1_655
Ca0 O3 2.423633 1_555
Ca0 O4 2.431044 1_556
Ca0 O8 2.571546 1_556
Ca0 O8 2.571546 1_656
Ca0 O5 2.676093 1_555
Ca0 O7 2.815212 1_555
Ca0 O5 2.838197 1_565
Ca0 O6 2.959772 1_555
Ca0 O6 2.959772 1_655
Ca1 O2 2.423633 1_655
Ca1 O2 2.423633 1_555
Ca1 O5 2.431044 1_554
Ca1 O8 2.571546 1_555
Ca1 O8 2.571546 1_655
Ca1 O4 2.676093 1_555
Ca1 O9 2.815212 1_555
Ca1 O4 2.838197 1_545
Ca1 O1 2.959772 1_555
Ca1 O1 2.959772 1_655
Ca2 O6 2.423633 1_555
Ca2 O6 2.423633 1_655
Ca2 O9 2.431044 1_555
Ca2 O0 2.571546 1_555
Ca2 O0 2.571546 1_655
Ca2 O7 2.676093 1_545
Ca2 O5 2.815212 1_555
Ca2 O7 2.838197 1_555
Ca2 O3 2.959772 1_545
Ca2 O3 2.959772 1_645
Ca3 O1 2.423633 1_555
Ca3 O1 2.423633 1_655
Ca3 O7 2.431044 1_555
Ca3 O0 2.571546 1_565
Ca3 O0 2.571546 1_665
Ca3 O9 2.676093 1_565
Ca3 O4 2.815212 1_555
Ca3 O9 2.838197 1_555
Ca3 O2 2.959772 1_565
Ca3 O2 2.959772 1_665
Mn0 O6 1.898852 1_555
Mn0 O7 1.930634 1_455
Mn0 O7 1.930634 1_555
Mn0 O0 1.979579 1_565
Mn0 O3 2.058241 1_555
Mn1 O1 1.898852 1_555
Mn1 O9 1.930634 1_555
Mn1 O9 1.930634 1_455
Mn1 O0 1.979579 1_555
Mn1 O2 2.058241 1_555
Mn2 O2 1.898852 1_565
Mn2 O4 1.930634 1_455
Mn2 O4 1.930634 1_555
Mn2 O8 1.979579 1_555
Mn2 O1 2.058241 1_555
Mn3 O3 1.898852 1_545
Mn3 O5 1.930634 1_455
Mn3 O5 1.930634 1_555
Mn3 O8 1.979579 1_556
Mn3 O6 2.058241 1_555
