# generated using pymatgen
data_Pb(CO2)2
_symmetry_space_group_name_H-M   'P 1'
_cell_length_a   5.72882900
_cell_length_b   5.75579754
_cell_length_c   7.12721327
_cell_angle_alpha   109.20938101
_cell_angle_beta   88.36029128
_cell_angle_gamma   114.63591549
_symmetry_Int_Tables_number   1
_chemical_formula_structural   Pb(CO2)2
_chemical_formula_sum   'Pb2 C4 O8'
_cell_volume   200.10750321
_cell_formula_units_Z   2
loop_
 _symmetry_equiv_pos_site_id
 _symmetry_equiv_pos_as_xyz
  1  'x, y, z'
loop_
 _atom_site_type_symbol
 _atom_site_label
 _atom_site_symmetry_multiplicity
 _atom_site_fract_x
 _atom_site_fract_y
 _atom_site_fract_z
 _atom_site_occupancy
  Pb  Pb0  1  0.25901300  0.10829800  0.26068500  1
  Pb  Pb1  1  0.74098700  0.89170200  0.73931500  1
  C  C0  1  0.12442100  0.62483400  0.49964600  1
  C  C1  1  0.87557900  0.37516600  0.50035400  1
  C  C2  1  0.35847300  0.45600300  0.95497900  1
  C  C3  1  0.64152700  0.54399700  0.04502100  1
  O  O0  1  0.87348000  0.14213600  0.42673300  1
  O  O1  1  0.12652000  0.85786400  0.57326700  1
  O  O2  1  0.32303300  0.59149300  0.86111200  1
  O  O3  1  0.67696700  0.40850700  0.13888800  1
  O  O4  1  0.18076800  0.24926700  0.98445700  1
  O  O5  1  0.81923200  0.75073300  0.01554300  1
  O  O6  1  0.68638400  0.41797500  0.57488500  1
  O  O7  1  0.31361600  0.58202500  0.42511500  1
loop_
_geom_bond_atom_site_label_1
_geom_bond_atom_site_label_2
_geom_bond_distance
_geom_bond_site_symmetry_2
C0 O1 1.264230 1_555
C0 O7 1.273273 1_555
C1 O0 1.264230 1_555
C1 O6 1.273273 1_555
C2 O2 1.257005 1_555
C2 O4 1.280160 1_555
C3 O3 1.257005 1_555
C3 O5 1.280160 1_555
O0 Pb0 2.524683 1_655
O1 Pb1 2.524683 1_455
O2 Pb1 2.625110 1_555
O3 Pb0 2.625110 1_555
O4 Pb0 2.477921 1_556
O4 Pb1 2.683031 1_445
O5 Pb1 2.477921 1_554
O5 Pb0 2.683031 1_665
O6 Pb1 2.472481 1_555
O7 Pb0 2.472481 1_555
