# generated using pymatgen
data_Sn7Os3
_symmetry_space_group_name_H-M   'P 1'
_cell_length_a   8.17370530
_cell_length_b   8.17370531
_cell_length_c   8.17370576
_cell_angle_alpha   109.47122424
_cell_angle_beta   109.47122425
_cell_angle_gamma   109.47121347
_symmetry_Int_Tables_number   1
_chemical_formula_structural   Sn7Os3
_chemical_formula_sum   'Sn14 Os6'
_cell_volume   420.37323781
_cell_formula_units_Z   2
loop_
 _symmetry_equiv_pos_site_id
 _symmetry_equiv_pos_as_xyz
  1  'x, y, z'
loop_
 _atom_site_type_symbol
 _atom_site_label
 _atom_site_symmetry_multiplicity
 _atom_site_fract_x
 _atom_site_fract_y
 _atom_site_fract_z
 _atom_site_occupancy
  Sn  Sn0  1  0.50000000  0.25000000  0.75000000  1
  Sn  Sn1  1  0.25000000  0.75000000  0.50000000  1
  Sn  Sn2  1  0.75000000  0.25000000  0.50000000  1
  Sn  Sn3  1  0.25000000  0.50000000  0.75000000  1
  Sn  Sn4  1  0.75000000  0.50000000  0.25000000  1
  Sn  Sn5  1  0.50000000  0.75000000  0.25000000  1
  Sn  Sn6  1  0.32103939  0.32103939  0.32103939  1
  Sn  Sn7  1  0.32103939  -0.00000000  0.00000000  1
  Sn  Sn8  1  -0.00000000  0.32103939  0.00000000  1
  Sn  Sn9  1  0.00000000  0.00000000  0.32103939  1
  Sn  Sn10  1  0.00000000  0.67896061  -0.00000000  1
  Sn  Sn11  1  -0.00000000  -0.00000000  0.67896061  1
  Sn  Sn12  1  0.67896061  0.00000000  -0.00000000  1
  Sn  Sn13  1  0.67896061  0.67896061  0.67896061  1
  Os  Os0  1  0.00000000  0.65624647  0.65624647  1
  Os  Os1  1  0.34375353  0.34375353  0.00000000  1
  Os  Os2  1  0.65624647  0.65624647  -0.00000000  1
  Os  Os3  1  0.65624647  0.00000000  0.65624647  1
  Os  Os4  1  0.34375353  -0.00000000  0.34375353  1
  Os  Os5  1  -0.00000000  0.34375353  0.34375353  1
loop_
_geom_bond_atom_site_label_1
_geom_bond_atom_site_label_2
_geom_bond_distance
_geom_bond_site_symmetry_2
Sn6 Sn8 3.030028 1_555
Sn6 Sn7 3.030028 1_555
Sn6 Sn9 3.030028 1_555
Sn10 Sn8 2.925543 1_555
Sn10 Sn13 3.030028 1_454
Sn10 Sn9 3.030028 1_565
Sn10 Sn7 3.030028 1_565
Sn11 Sn9 2.925543 1_555
Sn11 Sn7 3.030028 1_556
Sn11 Sn8 3.030028 1_556
Sn11 Sn13 3.030028 1_445
Sn12 Sn7 2.925543 1_555
Sn12 Sn9 3.030028 1_655
Sn12 Sn13 3.030028 1_544
Sn12 Sn8 3.030028 1_655
Sn13 Sn6 2.925543 1_555
Os0 Sn11 2.753423 1_565
Os0 Sn13 2.753423 1_455
Os0 Sn7 2.753423 1_566
Os0 Sn10 2.753423 1_556
Os0 Sn3 2.782471 1_555
Os0 Sn4 2.782471 1_455
Os0 Sn2 2.782471 1_455
Os0 Sn1 2.782471 1_555
Os0 Os5 2.949365 1_555
Os1 Sn8 2.753423 1_555
Os1 Sn7 2.753423 1_555
Os1 Sn11 2.753423 1_554
Os1 Sn6 2.753423 1_555
Os1 Sn4 2.782471 1_555
Os1 Sn5 2.782471 1_555
Os1 Sn0 2.782471 1_554
Os1 Sn3 2.782471 1_554
Os1 Os2 2.949365 1_555
Os2 Sn10 2.753423 1_655
Os2 Sn12 2.753423 1_565
Os2 Sn9 2.753423 1_665
Os2 Sn13 2.753423 1_554
Os2 Sn3 2.782471 1_554
Os2 Sn0 2.782471 1_554
Os2 Sn5 2.782471 1_555
Os2 Sn4 2.782471 1_555
Os3 Sn11 2.753423 1_655
Os3 Sn13 2.753423 1_545
Os3 Sn8 2.753423 1_656
Os3 Sn12 2.753423 1_556
Os3 Sn0 2.782471 1_555
Os3 Sn5 2.782471 1_545
Os3 Sn1 2.782471 1_545
Os3 Sn2 2.782471 1_555
Os3 Os4 2.949365 1_555
Os4 Sn9 2.753423 1_555
Os4 Sn6 2.753423 1_555
Os4 Sn10 2.753423 1_545
Os4 Sn7 2.753423 1_555
Os4 Sn5 2.782471 1_545
Os4 Sn0 2.782471 1_555
Os4 Sn2 2.782471 1_555
Os4 Sn1 2.782471 1_545
Os5 Sn9 2.753423 1_555
Os5 Sn6 2.753423 1_555
Os5 Sn12 2.753423 1_455
Os5 Sn8 2.753423 1_555
Os5 Sn4 2.782471 1_455
Os5 Sn3 2.782471 1_555
Os5 Sn1 2.782471 1_555
Os5 Sn2 2.782471 1_455
