# generated using pymatgen
data_MgFe4(PO3)12
_symmetry_space_group_name_H-M   'P 1'
_cell_length_a   8.73515540
_cell_length_b   8.67531597
_cell_length_c   8.80826811
_cell_angle_alpha   89.33882942
_cell_angle_beta   90.41846422
_cell_angle_gamma   91.37305684
_symmetry_Int_Tables_number   1
_chemical_formula_structural   MgFe4(PO3)12
_chemical_formula_sum   'Mg1 Fe4 P12 O36'
_cell_volume   667.24003762
_cell_formula_units_Z   1
loop_
 _symmetry_equiv_pos_site_id
 _symmetry_equiv_pos_as_xyz
  1  'x, y, z'
loop_
 _atom_site_type_symbol
 _atom_site_label
 _atom_site_symmetry_multiplicity
 _atom_site_fract_x
 _atom_site_fract_y
 _atom_site_fract_z
 _atom_site_occupancy
  Mg  Mg0  1  0.79604000  0.46711400  0.65323300  1
  Fe  Fe0  1  0.87184200  0.64706500  0.33085100  1
  Fe  Fe1  1  0.60031800  0.33231300  0.87449600  1
  Fe  Fe2  1  0.38093300  0.86178600  0.64489300  1
  Fe  Fe3  1  0.13220000  0.14526300  0.14682000  1
  P  P0  1  0.69056700  0.97653700  0.82207500  1
  P  P1  1  0.67478000  0.28593200  0.45317300  1
  P  P2  1  0.81712100  0.68320100  0.93665900  1
  P  P3  1  0.81767600  0.01431800  0.30984400  1
  P  P4  1  0.05282300  0.69135000  0.69155600  1
  P  P5  1  0.18269000  0.51468800  0.19130100  1
  P  P6  1  0.21429300  0.18953800  0.54686000  1
  P  P7  1  0.29804400  0.81142200  0.05022000  1
  P  P8  1  0.31736500  0.48951000  0.69201900  1
  P  P9  1  0.45638000  0.32844100  0.19129200  1
  P  P10  1  0.54060300  0.82231200  0.30488200  1
  P  P11  1  0.96968700  0.17185700  0.79545800  1
  O  O0  1  0.63436200  0.68658100  0.34801900  1
  O  O1  1  0.97517400  0.73230800  0.84907100  1
  O  O2  1  0.89754600  0.88343300  0.38347300  1
  O  O3  1  0.92762100  0.63601400  0.58504900  1
  O  O4  1  0.05364500  0.19043600  0.63559900  1
  O  O5  1  0.10524900  0.37572600  0.11971800  1
  O  O6  1  0.07881300  0.13067800  0.92001500  1
  O  O7  1  0.10363700  0.59118500  0.31903000  1
  O  O8  1  0.15319200  0.82174900  0.63641000  1
  O  O9  1  0.14933000  0.54362700  0.74251800  1
  O  O10  1  0.17424000  0.16500000  0.38345200  1
  O  O11  1  0.19352200  0.92193300  0.12732900  1
  O  O12  1  0.22298500  0.63877900  0.05857900  1
  O  O13  1  0.27397200  0.36735300  0.56127200  1
  O  O14  1  0.32500500  0.08710700  0.62920100  1
  O  O15  1  0.34399800  0.83811700  0.88802400  1
  O  O16  1  0.35207100  0.46627600  0.24909500  1
  O  O17  1  0.35771500  0.19883300  0.12865300  1
  O  O18  1  0.38747100  0.40950100  0.82572700  1
  O  O19  1  0.43022100  0.88152500  0.42087500  1
  O  O20  1  0.40140500  0.62655200  0.62249400  1
  O  O21  1  0.45169400  0.78873900  0.14882000  1
  O  O22  1  0.52580400  0.26807800  0.35161400  1
  O  O23  1  0.87474900  0.31443600  0.80959000  1
  O  O24  1  0.58641600  0.39005500  0.09775400  1
  O  O25  1  0.60122700  0.90346600  0.69320600  1
  O  O26  1  0.90432900  0.10873500  0.19162000  1
  O  O27  1  0.65256300  0.96244700  0.24200000  1
  O  O28  1  0.62421200  0.30607000  0.61655500  1
  O  O29  1  0.72187900  0.57486000  0.83721400  1
  O  O30  1  0.73499300  0.84617000  0.94416300  1
  O  O31  1  0.75904800  0.12652300  0.44360500  1
  O  O32  1  0.78701600  0.41551900  0.41389200  1
  O  O33  1  0.85706700  0.63639800  0.09336700  1
  O  O34  1  0.85641700  0.02734600  0.75605700  1
  O  O35  1  0.62211200  0.10423000  0.90849200  1
loop_
_geom_bond_atom_site_label_1
_geom_bond_atom_site_label_2
_geom_bond_distance
_geom_bond_site_symmetry_2
Mg0 O3 1.933346 1_555
Mg0 O29 1.999721 1_555
Mg0 O23 2.027701 1_555
Mg0 O28 2.052305 1_555
Mg0 O32 2.160704 1_555
Fe0 O7 2.096857 1_655
Fe0 O33 2.097831 1_555
Fe0 O2 2.113866 1_555
Fe0 O0 2.117424 1_555
Fe0 O32 2.240924 1_555
Fe0 O3 2.289380 1_555
Fe1 O35 2.011138 1_555
Fe1 O18 2.032514 1_555
Fe1 O24 2.040099 1_556
Fe1 O28 2.297517 1_555
Fe1 O29 2.354779 1_555
Fe1 O23 2.477366 1_555
Fe2 O25 1.993245 1_555
Fe2 O8 2.012228 1_555
Fe2 O19 2.027147 1_555
Fe2 O14 2.029111 1_565
Fe2 O20 2.064649 1_555
Fe2 O15 2.174699 1_555
Fe3 O17 2.020183 1_555
Fe3 O5 2.029899 1_555
Fe3 O11 2.031971 1_545
Fe3 O26 2.048546 1_455
Fe3 O6 2.052785 1_554
Fe3 O10 2.121932 1_555
O0 P10 1.494324 1_555
O1 P4 1.596233 1_655
O1 P2 1.631745 1_555
O2 P3 1.486947 1_565
O3 P4 1.508940 1_655
O4 P11 1.597093 1_455
O4 P6 1.611494 1_555
O5 P5 1.510202 1_555
O6 P11 1.493977 1_455
O7 P5 1.494518 1_555
O8 P4 1.493437 1_555
O9 P4 1.608564 1_555
O9 P8 1.618679 1_555
O10 P6 1.495184 1_555
O11 P7 1.509994 1_555
O12 P5 1.615021 1_555
O12 P7 1.621605 1_555
O13 P8 1.611085 1_555
O13 P6 1.622500 1_555
O14 P6 1.505657 1_555
O15 P7 1.500713 1_556
O16 P9 1.610069 1_555
O16 P5 1.624348 1_555
O17 P9 1.507446 1_555
O18 P8 1.494934 1_555
O19 P10 1.512506 1_555
O20 P8 1.508414 1_555
O21 P10 1.600131 1_555
O21 P7 1.608129 1_555
O22 P1 1.579309 1_555
O22 P9 1.619204 1_555
O23 P11 1.512421 1_555
O24 P9 1.493044 1_555
O25 P0 1.509738 1_555
O26 P3 1.513401 1_555
O27 P3 1.613169 1_565
O27 P10 1.636032 1_555
O28 P1 1.521666 1_555
O29 P2 1.521083 1_555
O30 P2 1.602917 1_555
O30 P0 1.604064 1_555
O31 P1 1.585495 1_555
O31 P3 1.630074 1_555
O32 P1 1.512580 1_555
O33 P2 1.476054 1_554
O34 P0 1.614630 1_545
O34 P11 1.617625 1_555
O35 P0 1.490633 1_545
