# generated using pymatgen
data_LiCrP2O7
_symmetry_space_group_name_H-M   'P 1'
_cell_length_a   5.01245900
_cell_length_b   8.37727600
_cell_length_c   12.18392527
_cell_angle_alpha   77.98231938
_cell_angle_beta   90.00000000
_cell_angle_gamma   90.00000000
_symmetry_Int_Tables_number   1
_chemical_formula_structural   LiCrP2O7
_chemical_formula_sum   'Li4 Cr4 P8 O28'
_cell_volume   500.39938830
_cell_formula_units_Z   4
loop_
 _symmetry_equiv_pos_site_id
 _symmetry_equiv_pos_as_xyz
  1  'x, y, z'
loop_
 _atom_site_type_symbol
 _atom_site_label
 _atom_site_symmetry_multiplicity
 _atom_site_fract_x
 _atom_site_fract_y
 _atom_site_fract_z
 _atom_site_occupancy
  Li  Li0  1  0.73127500  0.12452400  0.29852800  1
  Li  Li1  1  0.26872500  0.87547600  0.70147200  1
  Li  Li2  1  0.76872500  0.62452400  0.79852800  1
  Li  Li3  1  0.23127500  0.37547600  0.20147200  1
  Cr  Cr0  1  0.23935500  0.76245600  0.96805900  1
  Cr  Cr1  1  0.73935500  0.73754400  0.53194100  1
  Cr  Cr2  1  0.26064500  0.26245600  0.46805900  1
  Cr  Cr3  1  0.76064500  0.23754400  0.03194100  1
  P  P0  1  0.73405900  0.58071000  0.11595200  1
  P  P1  1  0.26594100  0.41929000  0.88404800  1
  P  P2  1  0.25868800  0.52692500  0.64214400  1
  P  P3  1  0.23405900  0.91929000  0.38404800  1
  P  P4  1  0.24131200  0.02692500  0.14214400  1
  P  P5  1  0.76594100  0.08071000  0.61595200  1
  P  P6  1  0.75868800  0.97307500  0.85785600  1
  P  P7  1  0.74131200  0.47307500  0.35785600  1
  O  O0  1  0.78781400  0.60626700  0.24209400  1
  O  O1  1  0.66047600  0.90597100  0.62123200  1
  O  O2  1  0.55434900  0.83200400  0.86083700  1
  O  O3  1  0.04286500  0.90812700  0.84310000  1
  O  O4  1  0.95713500  0.09187300  0.15690000  1
  O  O5  1  0.44565100  0.16799600  0.13916300  1
  O  O6  1  0.33952400  0.09402900  0.37876800  1
  O  O7  1  0.06674400  0.09504200  0.59000400  1
  O  O8  1  0.71218600  0.10626700  0.74209400  1
  O  O9  1  0.60366500  0.21289900  0.54263500  1
  O  O10  1  0.71813000  0.06468000  0.94951900  1
  O  O11  1  0.83952400  0.40597100  0.12123200  1
  O  O12  1  0.94565100  0.33200400  0.36083700  1
  O  O13  1  0.45713500  0.40812700  0.34310000  1
  O  O14  1  0.21813000  0.43532000  0.55048100  1
  O  O15  1  0.28781400  0.89373300  0.25790600  1
  O  O16  1  0.10366500  0.28710100  0.95736500  1
  O  O17  1  0.21218600  0.39373300  0.75790600  1
  O  O18  1  0.43325600  0.59504200  0.09000400  1
  O  O19  1  0.89633500  0.71289900  0.04263500  1
  O  O20  1  0.56674400  0.40495800  0.90999600  1
  O  O21  1  0.78187000  0.56468000  0.44951900  1
  O  O22  1  0.54286500  0.59187300  0.65690000  1
  O  O23  1  0.05434900  0.66799600  0.63916300  1
  O  O24  1  0.16047600  0.59402900  0.87876800  1
  O  O25  1  0.28187000  0.93532000  0.05048100  1
  O  O26  1  0.39633500  0.78710100  0.45736500  1
  O  O27  1  0.93325600  0.90495800  0.40999600  1
loop_
_geom_bond_atom_site_label_1
_geom_bond_atom_site_label_2
_geom_bond_distance
_geom_bond_site_symmetry_2
Li0 O4 2.128542 1_555
Li0 O6 2.184697 1_555
Li0 O27 2.283085 1_545
Li0 O12 2.302506 1_555
Li0 O5 2.378661 1_555
Li1 O3 2.128542 1_555
Li1 O1 2.184697 1_555
Li1 O7 2.283085 1_565
Li1 O23 2.302506 1_555
Li1 O2 2.378661 1_555
Li2 O22 2.128542 1_555
Li2 O24 2.184697 1_655
Li2 O20 2.283085 1_555
Li2 O2 2.302506 1_555
Li2 O23 2.378661 1_655
Li3 O13 2.128542 1_555
Li3 O11 2.184697 1_455
Li3 O18 2.283085 1_555
Li3 O5 2.302506 1_555
Li3 O12 2.378661 1_455
Cr0 O25 1.938181 1_556
Cr0 O19 1.948620 1_456
Cr0 O24 1.992462 1_555
Cr0 O3 2.000876 1_555
Cr0 O2 2.054761 1_555
Cr0 O18 2.061878 1_556
Cr1 O21 1.938181 1_555
Cr1 O26 1.948620 1_555
Cr1 O1 1.992462 1_555
Cr1 O22 2.000876 1_555
Cr1 O23 2.054761 1_655
Cr1 O27 2.061878 1_555
Cr2 O14 1.938181 1_555
Cr2 O9 1.948620 1_555
Cr2 O6 1.992462 1_555
Cr2 O13 2.000876 1_555
Cr2 O12 2.054761 1_455
Cr2 O7 2.061878 1_555
Cr3 O10 1.938181 1_554
Cr3 O16 1.948620 1_654
Cr3 O11 1.992462 1_555
Cr3 O4 2.000876 1_555
Cr3 O5 2.054761 1_555
Cr3 O20 2.061878 1_554
O0 P0 1.617881 1_555
O0 P7 1.622741 1_555
O1 P5 1.545057 1_565
O2 P6 1.558571 1_555
O3 P6 1.548573 1_455
O4 P4 1.548573 1_655
O5 P4 1.558571 1_555
O6 P3 1.545057 1_545
O7 P5 1.540100 1_455
O8 P5 1.617881 1_555
O8 P6 1.622741 1_545
O9 P5 1.507963 1_555
O10 P6 1.494793 1_545
O11 P0 1.545057 1_555
O12 P7 1.558571 1_555
O13 P7 1.548573 1_555
O14 P2 1.494793 1_555
O15 P3 1.617881 1_555
O15 P4 1.622741 1_565
O16 P1 1.507963 1_555
O17 P1 1.617881 1_555
O17 P2 1.622741 1_555
O18 P0 1.540100 1_555
O19 P0 1.507963 1_555
O20 P1 1.540100 1_555
O21 P7 1.494793 1_555
O22 P2 1.548573 1_555
O23 P2 1.558571 1_555
O24 P1 1.545057 1_555
O25 P4 1.494793 1_565
O26 P3 1.507963 1_555
O27 P3 1.540100 1_655
