# generated using pymatgen
data_Sr2H6Ru
_symmetry_space_group_name_H-M   'P 1'
_cell_length_a   5.37382454
_cell_length_b   5.37382454
_cell_length_c   5.37382454
_cell_angle_alpha   60.00000000
_cell_angle_beta   60.00000000
_cell_angle_gamma   60.00000000
_symmetry_Int_Tables_number   1
_chemical_formula_structural   Sr2H6Ru
_chemical_formula_sum   'Sr2 H6 Ru1'
_cell_volume   109.73254399
_cell_formula_units_Z   1
loop_
 _symmetry_equiv_pos_site_id
 _symmetry_equiv_pos_as_xyz
  1  'x, y, z'
loop_
 _atom_site_type_symbol
 _atom_site_label
 _atom_site_symmetry_multiplicity
 _atom_site_fract_x
 _atom_site_fract_y
 _atom_site_fract_z
 _atom_site_occupancy
  Sr  Sr0  1  0.75000000  0.75000000  0.75000000  1
  Sr  Sr1  1  0.25000000  0.25000000  0.25000000  1
  H  H0  1  0.22592189  0.77407811  0.77407811  1
  H  H1  1  0.22592189  0.22592189  0.77407811  1
  H  H2  1  0.22592189  0.77407811  0.22592189  1
  H  H3  1  0.77407811  0.22592189  0.22592189  1
  H  H4  1  0.77407811  0.77407811  0.22592189  1
  H  H5  1  0.77407811  0.22592189  0.77407811  1
  Ru  Ru0  1  0.00000000  -0.00000000  -0.00000000  1
loop_
_geom_bond_atom_site_label_1
_geom_bond_atom_site_label_2
_geom_bond_distance
_geom_bond_site_symmetry_2
H0 Ru0 1.716947 1_566
H0 Sr0 2.693136 1_455
H0 Sr0 2.693136 1_555
H0 Sr1 2.693136 1_556
H0 Sr1 2.693136 1_565
H1 Ru0 1.716947 1_556
H1 Sr0 2.693136 1_455
H1 Sr1 2.693136 1_555
H1 Sr1 2.693136 1_556
H1 Sr0 2.693136 1_545
H2 Ru0 1.716947 1_565
H2 Sr1 2.693136 1_565
H2 Sr0 2.693136 1_455
H2 Sr0 2.693136 1_554
H2 Sr1 2.693136 1_555
H3 Ru0 1.716947 1_655
H3 Sr1 2.693136 1_655
H3 Sr0 2.693136 1_554
H3 Sr1 2.693136 1_555
H3 Sr0 2.693136 1_545
H4 Ru0 1.716947 1_665
H4 Sr0 2.693136 1_554
H4 Sr0 2.693136 1_555
H4 Sr1 2.693136 1_655
H4 Sr1 2.693136 1_565
H5 Ru0 1.716947 1_656
H5 Sr1 2.693136 1_655
H5 Sr0 2.693136 1_555
H5 Sr1 2.693136 1_556
H5 Sr0 2.693136 1_545
