# generated using pymatgen
data_KMn2O4
_symmetry_space_group_name_H-M   'P 1'
_cell_length_a   3.04444587
_cell_length_b   4.93193277
_cell_length_c   12.50339405
_cell_angle_alpha   90.00000000
_cell_angle_beta   90.00000000
_cell_angle_gamma   90.00541233
_symmetry_Int_Tables_number   1
_chemical_formula_structural   KMn2O4
_chemical_formula_sum   'K2 Mn4 O8'
_cell_volume   187.73849051
_cell_formula_units_Z   2
loop_
 _symmetry_equiv_pos_site_id
 _symmetry_equiv_pos_as_xyz
  1  'x, y, z'
loop_
 _atom_site_type_symbol
 _atom_site_label
 _atom_site_symmetry_multiplicity
 _atom_site_fract_x
 _atom_site_fract_y
 _atom_site_fract_z
 _atom_site_occupancy
  K  K0  1  0.00007213  0.67331954  0.25000000  1
  K  K1  1  0.99993380  0.32667892  0.75000000  1
  Mn  Mn0  1  0.49999174  0.49999816  0.00001941  1
  Mn  Mn1  1  0.49999174  0.49999816  0.49998059  1
  Mn  Mn2  1  0.00000138  0.00000018  0.49997533  1
  Mn  Mn3  1  0.00000138  0.00000018  0.00002467  1
  O  O0  1  0.50007628  0.82385522  0.41919619  1
  O  O1  1  0.50007628  0.82385522  0.08080381  1
  O  O2  1  0.00009644  0.66887385  0.57768263  1
  O  O3  1  0.00009644  0.66887385  0.92231737  1
  O  O4  1  0.49992816  0.17615063  0.91922234  1
  O  O5  1  0.49992816  0.17615063  0.58077766  1
  O  O6  1  -0.00009597  0.33112272  0.42229148  1
  O  O7  1  -0.00009597  0.33112272  0.07770952  1
loop_
_geom_bond_atom_site_label_1
_geom_bond_atom_site_label_2
_geom_bond_distance
_geom_bond_site_symmetry_2
K0 O1 2.709916 1_555
K0 O0 2.709916 1_555
K0 O1 2.709981 1_455
K0 O0 2.709981 1_455
K0 O7 2.736594 1_555
K0 O6 2.736604 1_555
K1 O4 2.710164 1_555
K1 O5 2.710164 1_555
K1 O4 2.710223 1_655
K1 O5 2.710223 1_655
K1 O2 2.736853 1_655
K1 O3 2.736853 1_655
Mn0 O1 1.889825 1_555
Mn0 O4 1.889870 1_554
Mn0 O7 1.988437 1_655
Mn0 O3 1.988471 1_554
Mn0 O7 1.988725 1_555
Mn0 O3 1.988838 1_654
Mn1 O0 1.889825 1_555
Mn1 O5 1.889870 1_555
Mn1 O6 1.988431 1_655
Mn1 O2 1.988471 1_555
Mn1 O6 1.988719 1_555
Mn1 O2 1.988838 1_655
Mn2 O6 1.900099 1_555
Mn2 O2 1.900265 1_545
Mn2 O0 2.022634 1_445
Mn2 O5 2.022794 1_555
Mn2 O0 2.023100 1_545
Mn2 O5 2.023253 1_455
Mn3 O7 1.900106 1_555
Mn3 O3 1.900265 1_544
Mn3 O1 2.022634 1_445
Mn3 O4 2.022794 1_554
Mn3 O1 2.023100 1_545
Mn3 O4 2.023253 1_454
