# generated using pymatgen
data_Ho4Sb3
_symmetry_space_group_name_H-M   'P 1'
_cell_length_a   7.90050188
_cell_length_b   7.90050282
_cell_length_c   7.90050111
_cell_angle_alpha   109.47121626
_cell_angle_beta   109.47121865
_cell_angle_gamma   109.47122671
_symmetry_Int_Tables_number   1
_chemical_formula_structural   Ho4Sb3
_chemical_formula_sum   'Ho8 Sb6'
_cell_volume   379.61394903
_cell_formula_units_Z   2
loop_
 _symmetry_equiv_pos_site_id
 _symmetry_equiv_pos_as_xyz
  1  'x, y, z'
loop_
 _atom_site_type_symbol
 _atom_site_label
 _atom_site_symmetry_multiplicity
 _atom_site_fract_x
 _atom_site_fract_y
 _atom_site_fract_z
 _atom_site_occupancy
  Ho  Ho0  1  0.35570606  0.50000000  -0.00000000  1
  Ho  Ho1  1  0.64429394  0.64429394  0.64429394  1
  Ho  Ho2  1  0.50000000  -0.00000000  0.35570606  1
  Ho  Ho3  1  0.00000000  0.35570506  0.50000000  1
  Ho  Ho4  1  0.50000000  -0.00000000  0.85570606  1
  Ho  Ho5  1  0.00000000  0.85570606  0.50000000  1
  Ho  Ho6  1  0.85570606  0.50000000  -0.00000000  1
  Ho  Ho7  1  0.14429394  0.14429394  0.14429394  1
  Sb  Sb0  1  0.75000000  0.87500100  0.12500100  1
  Sb  Sb1  1  0.62500000  0.37500000  0.25000000  1
  Sb  Sb2  1  0.87500000  0.12500000  0.75000000  1
  Sb  Sb3  1  0.12500000  0.75000100  0.87500000  1
  Sb  Sb4  1  0.37500000  0.24999900  0.62500000  1
  Sb  Sb5  1  0.25000000  0.62500000  0.37500000  1
loop_
_geom_bond_atom_site_label_1
_geom_bond_atom_site_label_2
_geom_bond_distance
_geom_bond_site_symmetry_2
Ho0 Sb1 3.050007 1_555
Ho0 Sb0 3.050009 1_555
Ho0 Sb4 3.050010 1_554
Ho0 Sb5 3.270933 1_555
Ho0 Sb2 3.270933 1_454
Ho0 Sb3 3.270940 1_554
Ho1 Sb5 3.050007 1_555
Ho1 Sb1 3.050007 1_555
Ho1 Sb4 3.050013 1_555
Ho1 Sb3 3.270930 1_655
Ho1 Sb2 3.270933 1_565
Ho1 Sb0 3.270941 1_556
Ho2 Sb4 3.050003 1_555
Ho2 Sb2 3.050007 1_555
Ho2 Sb5 3.050007 1_545
Ho2 Sb0 3.270925 1_545
Ho2 Sb1 3.270933 1_555
Ho2 Sb3 3.270934 1_544
Ho3 Sb5 3.050012 1_555
Ho3 Sb1 3.050012 1_455
Ho3 Sb3 3.050017 1_555
Ho3 Sb0 3.270920 1_445
Ho3 Sb2 3.270928 1_455
Ho3 Sb4 3.270933 1_555
Ho4 Sb3 3.050004 1_545
Ho4 Sb0 3.050006 1_546
Ho4 Sb1 3.050007 1_556
Ho4 Sb4 3.270926 1_555
Ho4 Sb2 3.270933 1_555
Ho4 Sb5 3.270933 1_545
Ho5 Sb4 3.050003 1_565
Ho5 Sb0 3.050006 1_455
Ho5 Sb2 3.050007 1_465
Ho5 Sb3 3.270928 1_555
Ho5 Sb1 3.270933 1_455
Ho5 Sb5 3.270933 1_555
Ho6 Sb5 3.050007 1_655
Ho6 Sb2 3.050007 1_554
Ho6 Sb3 3.050011 1_654
Ho6 Sb4 3.270932 1_554
Ho6 Sb1 3.270933 1_555
Ho6 Sb0 3.270941 1_555
Ho7 Sb3 3.050001 1_544
Ho7 Sb2 3.050007 1_454
Ho7 Sb0 3.050008 1_445
Ho7 Sb1 3.270933 1_555
Ho7 Sb5 3.270933 1_555
Ho7 Sb4 3.270935 1_555
