# generated using pymatgen
data_Na4HfSi3GeO12
_symmetry_space_group_name_H-M   'P 1'
_cell_length_a   9.00689851
_cell_length_b   9.00689820
_cell_length_c   22.08203872
_cell_angle_alpha   90.00000000
_cell_angle_beta   90.00000000
_cell_angle_gamma   120.00000111
_symmetry_Int_Tables_number   1
_chemical_formula_structural   Na4HfSi3GeO12
_chemical_formula_sum   'Na24 Hf6 Si18 Ge6 O72'
_cell_volume   1551.38760413
_cell_formula_units_Z   6
loop_
 _symmetry_equiv_pos_site_id
 _symmetry_equiv_pos_as_xyz
  1  'x, y, z'
loop_
 _atom_site_type_symbol
 _atom_site_label
 _atom_site_symmetry_multiplicity
 _atom_site_fract_x
 _atom_site_fract_y
 _atom_site_fract_z
 _atom_site_occupancy
  Na  Na0  1  0.62823983  -0.00025143  0.25073232  1
  Na  Na1  1  0.37150874  0.37176017  0.25073232  1
  Na  Na2  1  0.00025143  0.62849126  0.25073232  1
  Na  Na3  1  0.63260771  0.63032238  0.74676248  1
  Na  Na4  1  0.99771467  0.36739229  0.74676248  1
  Na  Na5  1  0.36967762  0.00228533  0.74676248  1
  Na  Na6  1  0.29478844  0.33333255  0.58281891  1
  Na  Na7  1  0.03854511  0.70521156  0.58281891  1
  Na  Na8  1  0.66666745  0.96145489  0.58281891  1
  Na  Na9  1  0.30134298  0.96961589  0.08551575  1
  Na  Na10  1  0.66827391  0.69865702  0.08551575  1
  Na  Na11  1  0.03038411  0.33172609  0.08551575  1
  Na  Na12  1  0.96852743  0.66727553  0.91636086  1
  Na  Na13  1  0.69874710  0.03147257  0.91636086  1
  Na  Na14  1  0.33272447  0.30125290  0.91636086  1
  Na  Na15  1  0.96482691  0.29838687  0.41766117  1
  Na  Na16  1  0.33355896  0.03517309  0.41766117  1
  Na  Na17  1  0.70161313  0.66644104  0.41766117  1
  Na  Na18  1  0.00000000  0.00000000  0.50028143  1
  Na  Na19  1  0.00000000  0.00000000  0.00124209  1
  Na  Na20  1  0.66666700  0.33333300  0.83068998  1
  Na  Na21  1  0.66666700  0.33333300  0.33764372  1
  Na  Na22  1  0.33333300  0.66666700  0.16725877  1
  Na  Na23  1  0.33333300  0.66666700  0.66254579  1
  Hf  Hf0  1  0.00000000  0.00000000  0.84896082  1
  Hf  Hf1  1  0.66666700  0.33333300  0.19027416  1
  Hf  Hf2  1  0.66666700  0.33333300  0.98290506  1
  Hf  Hf3  1  0.33333300  0.66666700  0.02033665  1
  Hf  Hf4  1  0.33333300  0.66666700  0.31486658  1
  Hf  Hf5  1  0.33333300  0.66666700  0.80939843  1
  Si  Si0  1  0.27636077  0.99898114  0.25183591  1
  Si  Si1  1  0.72262037  0.72363923  0.25183591  1
  Si  Si2  1  0.00101886  0.27737963  0.25183591  1
  Si  Si3  1  0.29450655  0.28650124  0.74330266  1
  Si  Si4  1  0.99199469  0.70549345  0.74330266  1
  Si  Si5  1  0.71349876  0.00800531  0.74330266  1
  Si  Si6  1  0.95408960  0.33385032  0.58252430  1
  Si  Si7  1  0.37976172  0.04591040  0.58252430  1
  Si  Si8  1  0.66614968  0.62023828  0.58252430  1
  Si  Si9  1  0.96228573  0.63633578  0.08668307  1
  Si  Si10  1  0.67405105  0.03771427  0.08668307  1
  Si  Si11  1  0.36366422  0.32594895  0.08668307  1
  Si  Si12  1  0.62854085  0.66648995  0.91568911  1
  Si  Si13  1  0.03794811  0.37145915  0.91568911  1
  Si  Si14  1  0.33351005  0.96205189  0.91568911  1
  Si  Si15  1  0.62626859  0.96078800  0.41988498  1
  Si  Si16  1  0.33451840  0.37373141  0.41988498  1
  Si  Si17  1  0.03921200  0.66548160  0.41988498  1
  Ge  Ge0  1  0.00000000  0.00000000  0.35599785  1
  Ge  Ge1  1  0.00000000  0.00000000  0.64379729  1
  Ge  Ge2  1  0.00000000  0.00000000  0.14781498  1
  Ge  Ge3  1  0.66666700  0.33333300  0.68298673  1
  Ge  Ge4  1  0.66666700  0.33333300  0.48246592  1
  Ge  Ge5  1  0.33333300  0.66666700  0.51964858  1
  O  O0  1  0.19378646  0.03269534  0.31308083  1
  O  O1  1  0.83890888  0.80621354  0.31308083  1
  O  O2  1  0.96730466  0.16109112  0.31308083  1
  O  O3  1  0.21652671  0.17303499  0.80521432  1
  O  O4  1  0.95650828  0.78347329  0.80521432  1
  O  O5  1  0.82696501  0.04349172  0.80521432  1
  O  O6  1  0.80428138  0.96796880  0.68604639  1
  O  O7  1  0.16368742  0.19571862  0.68604639  1
  O  O8  1  0.03203120  0.83631258  0.68604639  1
  O  O9  1  0.80435787  0.83834515  0.19026694  1
  O  O10  1  0.03398728  0.19564213  0.19026694  1
  O  O11  1  0.16165485  0.96601272  0.19026694  1
  O  O12  1  0.87016377  0.37497586  0.64206707  1
  O  O13  1  0.50481309  0.12983623  0.64206707  1
  O  O14  1  0.62502414  0.49518691  0.64206707  1
  O  O15  1  0.87421896  0.51134019  0.14472844  1
  O  O16  1  0.63712224  0.12578104  0.14472844  1
  O  O17  1  0.48865981  0.36287776  0.14472844  1
  O  O18  1  0.45043709  0.29297485  0.02645454  1
  O  O19  1  0.84253876  0.54956291  0.02645454  1
  O  O20  1  0.70702515  0.15746124  0.02645454  1
  O  O21  1  0.46510076  0.17178378  0.52357569  1
  O  O22  1  0.70668402  0.53489924  0.52357569  1
  O  O23  1  0.82821622  0.29331598  0.52357569  1
  O  O24  1  0.54217069  0.69680094  0.97574846  1
  O  O25  1  0.15462925  0.45782931  0.97574846  1
  O  O26  1  0.30319906  0.84537075  0.97574846  1
  O  O27  1  0.53522986  0.82908145  0.47785118  1
  O  O28  1  0.29385059  0.46477014  0.47785118  1
  O  O29  1  0.17091855  0.70614941  0.47785118  1
  O  O30  1  0.11865386  0.62535830  0.35941010  1
  O  O31  1  0.50670343  0.88134614  0.35941010  1
  O  O32  1  0.37464170  0.49329657  0.35941010  1
  O  O33  1  0.12684742  0.49023154  0.85590512  1
  O  O34  1  0.36338312  0.87315258  0.85590512  1
  O  O35  1  0.50976846  0.63661688  0.85590512  1
  O  O36  1  0.02271857  0.84048524  0.41414664  1
  O  O37  1  0.81776667  0.97728143  0.41414664  1
  O  O38  1  0.15951476  0.18223333  0.41414664  1
  O  O39  1  0.02055247  0.18321881  0.91177804  1
  O  O40  1  0.16266634  0.97944753  0.91177804  1
  O  O41  1  0.81678119  0.83733366  0.91177804  1
  O  O42  1  0.97408237  0.15968658  0.58727739  1
  O  O43  1  0.18560421  0.02591763  0.58727739  1
  O  O44  1  0.84031342  0.81439579  0.58727739  1
  O  O45  1  0.97601997  0.82422918  0.09079106  1
  O  O46  1  0.84820921  0.02398003  0.09079106  1
  O  O47  1  0.17577082  0.15179079  0.09079106  1
  O  O48  1  0.69574085  0.18133689  0.73910376  1
  O  O49  1  0.48559704  0.30425915  0.73910376  1
  O  O50  1  0.81866311  0.51440296  0.73910376  1
  O  O51  1  0.70024717  0.53081098  0.24945714  1
  O  O52  1  0.83056482  0.29975283  0.24945714  1
  O  O53  1  0.46918902  0.16943518  0.24945714  1
  O  O54  1  0.64504994  0.49505322  0.92000095  1
  O  O55  1  0.85000428  0.35495006  0.92000095  1
  O  O56  1  0.50494678  0.14999572  0.92000095  1
  O  O57  1  0.64423619  0.15247271  0.42580770  1
  O  O58  1  0.50823752  0.35576381  0.42580770  1
  O  O59  1  0.84752729  0.49176248  0.42580770  1
  O  O60  1  0.34381138  0.49572452  0.08225916  1
  O  O61  1  0.15191214  0.65618862  0.08225916  1
  O  O62  1  0.50427548  0.84808786  0.08225916  1
  O  O63  1  0.36076809  0.85210520  0.57724855  1
  O  O64  1  0.49133611  0.63923191  0.57724855  1
  O  O65  1  0.14789480  0.50866389  0.57724855  1
  O  O66  1  0.29809656  0.82810044  0.25426884  1
  O  O67  1  0.53000287  0.70190344  0.25426884  1
  O  O68  1  0.17189956  0.46999713  0.25426884  1
  O  O69  1  0.31336055  0.47717867  0.74803520  1
  O  O70  1  0.16381712  0.68663945  0.74803520  1
  O  O71  1  0.52282133  0.83618288  0.74803520  1
loop_
_geom_bond_atom_site_label_1
_geom_bond_atom_site_label_2
_geom_bond_distance
_geom_bond_site_symmetry_2
Na0 O67 2.368968 1_545
Na0 O52 2.387242 1_555
Na0 O53 2.564820 1_555
Na0 O66 2.577049 1_545
Na0 O16 2.585234 1_555
Na0 O31 2.631988 1_545
Na1 O68 2.368977 1_555
Na1 O53 2.387249 1_555
Na1 O51 2.564828 1_555
Na1 O67 2.577049 1_555
Na1 O17 2.585238 1_555
Na1 O32 2.631990 1_555
Na2 O66 2.368970 1_555
Na2 O51 2.387240 1_455
Na2 O52 2.564828 1_455
Na2 O68 2.577041 1_555
Na2 O15 2.585236 1_455
Na2 O30 2.631986 1_555
Na3 O50 2.382557 1_555
Na3 O69 2.491035 1_555
Na3 O71 2.499995 1_555
Na3 O49 2.553057 1_555
Na3 O14 2.597655 1_555
Na3 O35 2.664321 1_555
Na3 O4 2.838209 1_555
Na3 O6 2.955446 1_555
Na4 O48 2.382550 1_555
Na4 O70 2.491035 1_655
Na4 O69 2.499986 1_655
Na4 O50 2.553049 1_555
Na4 O12 2.597651 1_555
Na4 O33 2.664319 1_655
Na4 O5 2.838209 1_555
Na4 O7 2.955446 1_655
Na5 O49 2.382549 1_555
Na5 O71 2.491027 1_545
Na5 O70 2.499988 1_545
Na5 O48 2.553057 1_555
Na5 O13 2.597653 1_555
Na5 O34 2.664317 1_545
Na5 O3 2.838209 1_555
Na5 O8 2.955446 1_545
Na6 O64 2.421300 1_555
Na6 O43 2.433192 1_555
Na6 O42 2.506370 1_455
Na6 O65 2.519685 1_555
Na6 O7 2.581284 1_555
Na6 O28 2.604655 1_555
Na6 O14 2.889265 1_555
Na6 O21 2.900645 1_555
Na7 O65 2.421286 1_555
Na7 O44 2.433201 1_455
Na7 O43 2.506371 1_565
Na7 O63 2.519669 1_555
Na7 O8 2.581286 1_555
Na7 O29 2.604647 1_555
Na7 O12 2.889265 1_455
Na7 O22 2.900645 1_455
Na8 O63 2.421303 1_555
Na8 O42 2.433194 1_565
Na8 O44 2.506363 1_555
Na8 O64 2.519670 1_555
Na8 O6 2.581282 1_555
Na8 O27 2.604651 1_555
Na8 O13 2.889265 1_565
Na8 O23 2.900645 1_565
Na9 O47 2.416795 1_565
Na9 O61 2.446733 1_555
Na9 O45 2.545018 1_455
Na9 O62 2.558283 1_555
Na9 O11 2.625586 1_555
Na9 O26 2.673296 1_554
Na9 O18 2.841758 1_565
Na9 O16 2.929289 1_565
Na10 O45 2.416787 1_555
Na10 O62 2.446749 1_555
Na10 O46 2.545018 1_565
Na10 O60 2.558297 1_555
Na10 O9 2.625584 1_555
Na10 O24 2.673304 1_554
Na10 O19 2.841758 1_555
Na10 O17 2.929289 1_555
Na11 O46 2.416788 1_455
Na11 O60 2.446734 1_555
Na11 O47 2.545010 1_555
Na11 O61 2.558299 1_555
Na11 O10 2.625582 1_555
Na11 O25 2.673300 1_554
Na11 O20 2.841758 1_455
Na11 O15 2.929289 1_455
Na12 O55 2.460990 1_555
Na12 O40 2.461089 1_655
Na12 O41 2.513532 1_555
Na12 O54 2.526235 1_555
Na12 O19 2.668123 1_556
Na12 O4 2.691495 1_555
Na12 O26 2.922996 1_655
Na12 O33 2.938072 1_655
Na13 O56 2.460974 1_555
Na13 O41 2.461096 1_545
Na13 O39 2.513540 1_655
Na13 O55 2.526235 1_555
Na13 O20 2.668119 1_556
Na13 O5 2.691499 1_555
Na13 O24 2.922996 1_545
Na13 O34 2.938072 1_545
Na14 O54 2.460988 1_555
Na14 O39 2.461088 1_555
Na14 O40 2.513539 1_545
Na14 O56 2.526251 1_555
Na14 O18 2.668127 1_556
Na14 O3 2.691497 1_555
Na14 O25 2.922996 1_555
Na14 O35 2.938072 1_555
Na15 O38 2.451514 1_655
Na15 O59 2.454031 1_555
Na15 O37 2.508835 1_545
Na15 O57 2.510479 1_555
Na15 O2 2.624953 1_555
Na15 O23 2.632469 1_555
Na15 O30 2.857779 1_655
Na15 O28 2.890244 1_655
Na16 O36 2.451507 1_545
Na16 O57 2.454047 1_555
Na16 O38 2.508827 1_555
Na16 O58 2.510479 1_555
Na16 O0 2.624949 1_555
Na16 O21 2.632473 1_555
Na16 O31 2.857779 1_545
Na16 O29 2.890244 1_545
Na17 O37 2.451505 1_555
Na17 O58 2.454045 1_555
Na17 O36 2.508834 1_655
Na17 O59 2.510495 1_555
Na17 O1 2.624951 1_555
Na17 O22 2.632477 1_555
Na17 O32 2.857780 1_555
Na17 O27 2.890244 1_555
Na18 O38 2.453118 1_555
Na18 O36 2.453118 1_545
Na18 O37 2.453118 1_445
Na18 O44 2.479782 1_445
Na18 O42 2.479782 1_455
Na18 O43 2.479782 1_555
Na19 O45 2.474122 1_445
Na19 O47 2.474122 1_555
Na19 O46 2.474122 1_455
Na19 O39 2.520882 1_554
Na19 O41 2.520882 1_444
Na19 O40 2.520882 1_544
Na20 O56 2.516473 1_555
Na20 O54 2.516473 1_555
Na20 O55 2.516473 1_555
Na20 O50 2.528124 1_555
Na20 O48 2.528124 1_555
Na20 O49 2.528124 1_555
Na21 O57 2.481029 1_555
Na21 O59 2.481029 1_555
Na21 O58 2.481029 1_555
Na21 O51 2.551331 1_555
Na21 O53 2.551331 1_555
Na21 O52 2.551332 1_555
Na22 O62 2.459222 1_555
Na22 O60 2.459222 1_555
Na22 O61 2.459222 1_555
Na22 O68 2.523483 1_555
Na22 O67 2.523483 1_555
Na22 O66 2.523483 1_555
Na23 O63 2.446568 1_555
Na23 O65 2.446568 1_555
Na23 O64 2.446568 1_555
Na23 O69 2.490359 1_555
Na23 O71 2.490359 1_555
Na23 O70 2.490359 1_555
Hf0 O4 2.031277 1_445
Hf0 O3 2.031277 1_555
Hf0 O5 2.031277 1_455
Hf0 O39 2.091935 1_555
Hf0 O41 2.091935 1_445
Hf0 O40 2.091935 1_545
Hf1 O17 2.019783 1_555
Hf1 O15 2.019783 1_555
Hf1 O16 2.019783 1_555
Hf1 O51 2.103592 1_555
Hf1 O53 2.103592 1_555
Hf1 O52 2.103592 1_555
Hf2 O19 2.035185 1_556
Hf2 O20 2.035185 1_556
Hf2 O18 2.035185 1_556
Hf2 O56 2.091089 1_555
Hf2 O54 2.091089 1_555
Hf2 O55 2.091089 1_555
Hf3 O25 2.017588 1_554
Hf3 O26 2.017588 1_554
Hf3 O24 2.017588 1_554
Hf3 O62 2.096304 1_555
Hf3 O60 2.096304 1_555
Hf3 O61 2.096304 1_555
Hf4 O32 2.031080 1_555
Hf4 O31 2.031080 1_555
Hf4 O30 2.031080 1_555
Hf4 O68 2.113508 1_555
Hf4 O67 2.113508 1_555
Hf4 O66 2.113508 1_555
Hf5 O34 2.020736 1_555
Hf5 O33 2.020736 1_555
Hf5 O35 2.020736 1_555
Hf5 O69 2.115246 1_555
Hf5 O71 2.115246 1_555
Hf5 O70 2.115246 1_555
Ge0 O1 1.875453 1_445
Ge0 O2 1.875453 1_455
Ge0 O0 1.875453 1_555
Ge0 O38 2.012171 1_555
Ge0 O36 2.012171 1_545
Ge0 O37 2.012171 1_445
Ge1 O7 1.884827 1_555
Ge1 O8 1.884827 1_545
Ge1 O6 1.884827 1_445
Ge1 O44 2.004142 1_445
Ge1 O42 2.004142 1_455
Ge1 O43 2.004142 1_555
Ge2 O10 1.880997 1_555
Ge2 O9 1.880997 1_445
Ge2 O11 1.880998 1_545
Ge2 O45 1.948505 1_445
Ge2 O47 1.948505 1_555
Ge2 O46 1.948505 1_455
Ge3 O13 1.905025 1_555
Ge3 O14 1.905025 1_555
Ge3 O12 1.905025 1_555
Ge3 O50 1.958783 1_555
Ge3 O48 1.958783 1_555
Ge3 O49 1.958783 1_555
Ge4 O22 1.896213 1_555
Ge4 O21 1.896213 1_555
Ge4 O23 1.896213 1_555
Ge4 O57 1.982585 1_555
Ge4 O59 1.982585 1_555
Ge4 O58 1.982585 1_555
Ge5 O28 1.907480 1_555
Ge5 O27 1.907480 1_555
Ge5 O29 1.907480 1_555
Ge5 O63 2.013896 1_555
Ge5 O65 2.013896 1_555
Ge5 O64 2.013896 1_555
O0 Si0 1.643235 1_545
O1 Si1 1.643235 1_555
O2 Si2 1.643235 1_655
O3 Si3 1.639821 1_555
O4 Si4 1.639821 1_555
O5 Si5 1.639821 1_555
O6 Si5 1.640737 1_565
O7 Si3 1.640737 1_555
O8 Si4 1.640737 1_455
O9 Si1 1.642317 1_555
O10 Si2 1.642317 1_555
O11 Si0 1.642317 1_555
O12 Si6 1.648446 1_555
O13 Si7 1.648446 1_555
O14 Si8 1.648446 1_555
O15 Si9 1.626823 1_555
O16 Si10 1.626823 1_555
O17 Si11 1.626823 1_555
O18 Si11 1.643158 1_555
O19 Si9 1.643158 1_555
O20 Si10 1.643158 1_555
O21 Si7 1.642911 1_555
O22 Si8 1.642911 1_555
O23 Si6 1.642911 1_555
O24 Si12 1.628183 1_555
O25 Si13 1.628182 1_555
O26 Si14 1.628182 1_555
O27 Si15 1.656898 1_555
O28 Si16 1.656898 1_555
O29 Si17 1.656898 1_555
O30 Si17 1.638436 1_555
O31 Si15 1.638436 1_555
O32 Si16 1.638436 1_555
O33 Si13 1.634555 1_555
O34 Si14 1.634555 1_555
O35 Si12 1.634555 1_555
O36 Si17 1.660366 1_555
O37 Si15 1.660375 1_555
O38 Si16 1.660371 1_555
O39 Si13 1.625100 1_555
O40 Si14 1.625092 1_555
O41 Si12 1.625097 1_555
O42 Si6 1.669329 1_555
O43 Si7 1.669338 1_555
O44 Si8 1.669334 1_555
O45 Si9 1.636517 1_555
O46 Si10 1.636508 1_555
O47 Si11 1.636513 1_555
O48 Si5 1.649595 1_555
O49 Si3 1.649604 1_555
O50 Si4 1.649600 1_555
O51 Si1 1.646148 1_555
O52 Si2 1.646139 1_655
O53 Si0 1.646144 1_545
O54 Si12 1.626365 1_555
O55 Si13 1.626348 1_655
O56 Si14 1.626355 1_545
O57 Si15 1.656696 1_545
O58 Si16 1.656714 1_555
O59 Si17 1.656704 1_655
O60 Si11 1.628881 1_555
O61 Si9 1.628863 1_455
O62 Si10 1.628870 1_565
O63 Si7 1.670712 1_565
O64 Si8 1.670730 1_555
O65 Si6 1.670719 1_455
O66 Si0 1.646624 1_555
O67 Si1 1.646633 1_555
O68 Si2 1.646629 1_555
O69 Si3 1.642443 1_555
O70 Si4 1.642434 1_455
O71 Si5 1.642439 1_565
