# generated using pymatgen
data_UPb
_symmetry_space_group_name_H-M   'P 1'
_cell_length_a   6.96413200
_cell_length_b   6.96413200
_cell_length_c   9.08479600
_cell_angle_alpha   90.00000000
_cell_angle_beta   90.00000000
_cell_angle_gamma   90.00000000
_symmetry_Int_Tables_number   1
_chemical_formula_structural   UPb
_chemical_formula_sum   'U8 Pb8'
_cell_volume   440.60474323
_cell_formula_units_Z   8
loop_
 _symmetry_equiv_pos_site_id
 _symmetry_equiv_pos_as_xyz
  1  'x, y, z'
loop_
 _atom_site_type_symbol
 _atom_site_label
 _atom_site_symmetry_multiplicity
 _atom_site_fract_x
 _atom_site_fract_y
 _atom_site_fract_z
 _atom_site_occupancy
  U  U0_0  1  0.25000000  0.25000000  0.25000000  1
  U  U0_1  1  0.25000000  0.25000000  0.75000000  1
  U  U0_2  1  0.25000000  0.75000000  0.25000000  1
  U  U0_3  1  0.25000000  0.75000000  0.75000000  1
  U  U0_4  1  0.75000000  0.25000000  0.25000000  1
  U  U0_5  1  0.75000000  0.25000000  0.75000000  1
  U  U0_6  1  0.75000000  0.75000000  0.25000000  1
  U  U0_7  1  0.75000000  0.75000000  0.75000000  1
  Pb  Pb0_0  1  0.00000000  0.00000000  0.00000000  1
  Pb  Pb0_1  1  0.00000000  0.00000000  0.50000000  1
  Pb  Pb0_2  1  0.00000000  0.50000000  0.00000000  1
  Pb  Pb0_3  1  0.00000000  0.50000000  0.50000000  1
  Pb  Pb0_4  1  0.50000000  0.00000000  0.00000000  1
  Pb  Pb0_5  1  0.50000000  0.00000000  0.50000000  1
  Pb  Pb0_6  1  0.50000000  0.50000000  0.00000000  1
  Pb  Pb0_7  1  0.50000000  0.50000000  0.50000000  1
loop_
_geom_bond_atom_site_label_1
_geom_bond_atom_site_label_2
_geom_bond_distance
_geom_bond_site_symmetry_2
U0_0 U0_2 3.482066 1_545
U0_0 U0_4 3.482066 1_455
U0_0 U0_4 3.482066 1_555
U0_0 U0_2 3.482066 1_555
U0_1 U0_5 3.482066 1_455
U0_1 U0_3 3.482066 1_545
U0_1 U0_5 3.482066 1_555
U0_1 U0_3 3.482066 1_555
U0_2 U0_6 3.482066 1_455
U0_2 U0_6 3.482066 1_555
U0_3 U0_7 3.482066 1_455
U0_3 U0_7 3.482066 1_555
U0_4 U0_6 3.482066 1_545
U0_4 U0_6 3.482066 1_555
U0_5 U0_7 3.482066 1_545
U0_5 U0_7 3.482066 1_555
Pb0_0 U0_6 3.349737 1_445
Pb0_0 U0_7 3.349737 1_444
Pb0_0 U0_4 3.349737 1_455
Pb0_0 U0_0 3.349737 1_555
Pb0_0 U0_1 3.349737 1_554
Pb0_0 U0_2 3.349737 1_545
Pb0_0 U0_3 3.349737 1_544
Pb0_0 U0_5 3.349737 1_454
Pb0_0 Pb0_2 3.482066 1_545
Pb0_0 Pb0_2 3.482066 1_555
Pb0_0 Pb0_4 3.482066 1_455
Pb0_0 Pb0_4 3.482066 1_555
Pb0_1 U0_6 3.349737 1_445
Pb0_1 U0_7 3.349737 1_445
Pb0_1 U0_4 3.349737 1_455
Pb0_1 U0_3 3.349737 1_545
Pb0_1 U0_0 3.349737 1_555
Pb0_1 U0_1 3.349737 1_555
Pb0_1 U0_2 3.349737 1_545
Pb0_1 U0_5 3.349737 1_455
Pb0_1 Pb0_5 3.482066 1_555
Pb0_1 Pb0_3 3.482066 1_545
Pb0_1 Pb0_5 3.482066 1_455
Pb0_1 Pb0_3 3.482066 1_555
Pb0_2 U0_4 3.349737 1_455
Pb0_2 U0_0 3.349737 1_555
Pb0_2 U0_7 3.349737 1_454
Pb0_2 U0_1 3.349737 1_554
Pb0_2 U0_5 3.349737 1_454
Pb0_2 U0_6 3.349737 1_455
Pb0_2 U0_3 3.349737 1_554
Pb0_2 U0_2 3.349737 1_555
Pb0_2 Pb0_6 3.482066 1_555
Pb0_2 Pb0_6 3.482066 1_455
Pb0_3 U0_4 3.349737 1_455
Pb0_3 U0_7 3.349737 1_455
Pb0_3 U0_0 3.349737 1_555
Pb0_3 U0_1 3.349737 1_555
Pb0_3 U0_5 3.349737 1_455
Pb0_3 U0_6 3.349737 1_455
Pb0_3 U0_3 3.349737 1_555
Pb0_3 U0_2 3.349737 1_555
Pb0_3 Pb0_7 3.482066 1_555
Pb0_3 Pb0_7 3.482066 1_455
Pb0_4 U0_6 3.349737 1_545
Pb0_4 U0_0 3.349737 1_555
Pb0_4 U0_1 3.349737 1_554
Pb0_4 U0_2 3.349737 1_545
Pb0_4 U0_3 3.349737 1_544
Pb0_4 U0_7 3.349737 1_544
Pb0_4 U0_5 3.349737 1_554
Pb0_4 U0_4 3.349737 1_555
Pb0_4 Pb0_6 3.482066 1_555
Pb0_4 Pb0_6 3.482066 1_545
Pb0_5 U0_6 3.349737 1_545
Pb0_5 U0_0 3.349737 1_555
Pb0_5 U0_1 3.349737 1_555
Pb0_5 U0_2 3.349737 1_545
Pb0_5 U0_3 3.349737 1_545
Pb0_5 U0_7 3.349737 1_545
Pb0_5 U0_5 3.349737 1_555
Pb0_5 U0_4 3.349737 1_555
Pb0_5 Pb0_7 3.482066 1_555
Pb0_5 Pb0_7 3.482066 1_545
Pb0_6 U0_0 3.349737 1_555
Pb0_6 U0_1 3.349737 1_554
Pb0_6 U0_5 3.349737 1_554
Pb0_6 U0_4 3.349737 1_555
Pb0_6 U0_3 3.349737 1_554
Pb0_6 U0_7 3.349737 1_554
Pb0_6 U0_2 3.349737 1_555
Pb0_6 U0_6 3.349737 1_555
Pb0_7 U0_0 3.349737 1_555
Pb0_7 U0_1 3.349737 1_555
Pb0_7 U0_5 3.349737 1_555
Pb0_7 U0_4 3.349737 1_555
Pb0_7 U0_3 3.349737 1_555
Pb0_7 U0_2 3.349737 1_555
Pb0_7 U0_6 3.349737 1_555
Pb0_7 U0_7 3.349737 1_555
