# generated using pymatgen
data_Na14Zr4Al4Si9(SO16)3
_symmetry_space_group_name_H-M   'P 1'
_cell_length_a   18.09507631
_cell_length_b   9.04208276
_cell_length_c   22.30016602
_cell_angle_alpha   90.13554063
_cell_angle_beta   90.44774633
_cell_angle_gamma   119.97631619
_symmetry_Int_Tables_number   1
_chemical_formula_structural   Na14Zr4Al4Si9(SO16)3
_chemical_formula_sum   'Na42 Zr12 Al12 Si27 S9 O144'
_cell_volume   3160.43295569
_cell_formula_units_Z   3
loop_
 _symmetry_equiv_pos_site_id
 _symmetry_equiv_pos_as_xyz
  1  'x, y, z'
loop_
 _atom_site_type_symbol
 _atom_site_label
 _atom_site_symmetry_multiplicity
 _atom_site_fract_x
 _atom_site_fract_y
 _atom_site_fract_z
 _atom_site_occupancy
  Na  Na0  1  0.81790153  0.00490259  0.25406076  1
  Na  Na1  1  0.17341907  0.35546336  0.25367590  1
  Na  Na2  1  0.69057057  0.36950051  0.25389411  1
  Na  Na3  1  0.99615797  0.62963857  0.24564623  1
  Na  Na4  1  0.50627694  0.64858698  0.25279283  1
  Na  Na5  1  0.31704091  0.62964969  0.75066607  1
  Na  Na6  1  0.00429364  0.36072621  0.74624009  1
  Na  Na7  1  0.49757297  0.36409604  0.74244693  1
  Na  Na8  1  0.18923005  0.01213997  0.74967639  1
  Na  Na9  1  0.67835455  0.99444673  0.74924846  1
  Na  Na10  1  0.14846046  0.32774859  0.58247839  1
  Na  Na11  1  0.64945516  0.33332029  0.58236855  1
  Na  Na12  1  0.33462351  0.98162813  0.58654518  1
  Na  Na13  1  0.83212990  0.96751268  0.58152852  1
  Na  Na14  1  0.14201819  0.95971152  0.08088278  1
  Na  Na15  1  0.65177850  0.97308684  0.07993805  1
  Na  Na16  1  0.33229894  0.68819348  0.08180941  1
  Na  Na17  1  0.83464695  0.68752433  0.08648846  1
  Na  Na18  1  0.48333868  0.67913915  0.91426568  1
  Na  Na19  1  0.98499306  0.67433693  0.92148444  1
  Na  Na20  1  0.34647629  0.02395577  0.90878360  1
  Na  Na21  1  0.84609427  0.02535210  0.91125269  1
  Na  Na22  1  0.16944091  0.29819445  0.90931092  1
  Na  Na23  1  0.66798145  0.29961261  0.91046790  1
  Na  Na24  1  0.48725476  0.29946735  0.42529600  1
  Na  Na25  1  0.98064300  0.28671746  0.41960438  1
  Na  Na26  1  0.16706447  0.03598635  0.41420861  1
  Na  Na27  1  0.67359708  0.04640370  0.41580942  1
  Na  Na28  1  0.34646317  0.66647693  0.41527739  1
  Na  Na29  1  0.84547973  0.66627860  0.41836129  1
  Na  Na30  1  0.99834776  0.99542096  0.49809338  1
  Na  Na31  1  0.50511015  0.01290629  0.49893361  1
  Na  Na32  1  0.00258563  0.99583101  0.99778723  1
  Na  Na33  1  0.50380897  0.00121340  0.99473106  1
  Na  Na34  1  0.33014026  0.33558899  0.82854924  1
  Na  Na35  1  0.82644538  0.33116779  0.83421396  1
  Na  Na36  1  0.32623414  0.31832535  0.33822756  1
  Na  Na37  1  0.82959653  0.32491341  0.33326026  1
  Na  Na38  1  0.15710705  0.65145604  0.16880058  1
  Na  Na39  1  0.66426204  0.65818438  0.17066909  1
  Na  Na40  1  0.16220046  0.66784797  0.66935663  1
  Na  Na41  1  0.66361920  0.66353237  0.66465944  1
  Zr  Zr0  1  0.99935854  0.00631719  0.64303906  1
  Zr  Zr1  1  0.50174973  0.00304127  0.64819188  1
  Zr  Zr2  1  0.00076971  0.00020749  0.14879105  1
  Zr  Zr3  1  0.50507852  0.99025235  0.14693465  1
  Zr  Zr4  1  0.82918583  0.32799769  0.68558199  1
  Zr  Zr5  1  0.33106213  0.34215858  0.18910807  1
  Zr  Zr6  1  0.16249937  0.66402833  0.01775230  1
  Zr  Zr7  1  0.66837386  0.66699288  0.01922114  1
  Zr  Zr8  1  0.16736278  0.66954621  0.51954929  1
  Zr  Zr9  1  0.66689940  0.65892389  0.52027373  1
  Zr  Zr10  1  0.17490873  0.67373576  0.31277928  1
  Zr  Zr11  1  0.67576090  0.67785834  0.81131086  1
  Al  Al0  1  0.99639242  0.01481028  0.34725996  1
  Al  Al1  1  0.50456246  0.00527100  0.35161940  1
  Al  Al2  1  0.00445257  0.00026707  0.84956489  1
  Al  Al3  1  0.49649568  0.97946416  0.84614644  1
  Al  Al4  1  0.33614565  0.31782833  0.69139539  1
  Al  Al5  1  0.83590624  0.35364041  0.19169415  1
  Al  Al6  1  0.32386175  0.34620582  0.97822546  1
  Al  Al7  1  0.82285664  0.34510160  0.98269141  1
  Al  Al8  1  0.32347681  0.30188993  0.48308498  1
  Al  Al9  1  0.82569457  0.31955110  0.48398131  1
  Al  Al10  1  0.68715118  0.69087290  0.31633365  1
  Al  Al11  1  0.18534855  0.68329690  0.81462916  1
  Si  Si0  1  0.14321655  0.99983637  0.25449362  1
  Si  Si1  1  0.64948127  0.99499294  0.25504336  1
  Si  Si2  1  0.35982957  0.72100836  0.25270691  1
  Si  Si3  1  0.85393650  0.70978782  0.25314287  1
  Si  Si4  1  0.99414116  0.29124096  0.25063598  1
  Si  Si5  1  0.14733141  0.29996520  0.75376206  1
  Si  Si6  1  0.64320680  0.28445468  0.75577474  1
  Si  Si7  1  0.49418714  0.69778770  0.75093792  1
  Si  Si8  1  0.35374193  0.99786198  0.75322099  1
  Si  Si9  1  0.86098002  0.00598570  0.75381631  1
  Si  Si10  1  0.47086705  0.33627485  0.58378365  1
  Si  Si11  1  0.97710067  0.34181692  0.58083241  1
  Si  Si12  1  0.19418144  0.05205579  0.58617746  1
  Si  Si13  1  0.68472757  0.03983958  0.57908217  1
  Si  Si14  1  0.83668510  0.61730003  0.57737724  1
  Si  Si15  1  0.47654529  0.61235839  0.07963668  1
  Si  Si16  1  0.97120634  0.60561004  0.08377609  1
  Si  Si17  1  0.18501053  0.33061930  0.07920532  1
  Si  Si18  1  0.69268515  0.33576392  0.08622000  1
  Si  Si19  1  0.31749227  0.67214620  0.91581508  1
  Si  Si20  1  0.82164527  0.67125866  0.91760568  1
  Si  Si21  1  0.16813274  0.96484417  0.91283219  1
  Si  Si22  1  0.66827615  0.97594886  0.91829106  1
  Si  Si23  1  0.32204893  0.97230562  0.41754191  1
  Si  Si24  1  0.81823068  0.96910136  0.41582367  1
  Si  Si25  1  0.16786169  0.36015144  0.41749872  1
  Si  Si26  1  0.66611520  0.37041187  0.41082324  1
  S  S0  1  0.50108846  0.28954769  0.25330622  1
  S  S1  1  0.00244398  0.71245396  0.75461106  1
  S  S2  1  0.33457595  0.61368984  0.58196711  1
  S  S3  1  0.33522577  0.05031422  0.07997585  1
  S  S4  1  0.83500887  0.05534956  0.08213911  1
  S  S5  1  0.01855523  0.36895746  0.91280984  1
  S  S6  1  0.51533724  0.36760810  0.91706343  1
  S  S7  1  0.01718820  0.66581965  0.41529347  1
  S  S8  1  0.52003101  0.66979907  0.41271310  1
  O  O0  1  0.09457304  0.03076935  0.30990814  1
  O  O1  1  0.59890677  0.02885787  0.30883078  1
  O  O2  1  0.42161202  0.81918464  0.30924618  1
  O  O3  1  0.91880320  0.80923399  0.30907587  1
  O  O4  1  0.49026238  0.18611825  0.30710166  1
  O  O5  1  0.97968184  0.17392383  0.30964917  1
  O  O6  1  0.10016370  0.16943155  0.81041510  1
  O  O7  1  0.59279365  0.15893883  0.81166958  1
  O  O8  1  0.47871252  0.78352626  0.81101494  1
  O  O9  1  0.99183876  0.79580736  0.80912792  1
  O  O10  1  0.41660031  0.02602579  0.81066088  1
  O  O11  1  0.92058791  0.02313983  0.81155673  1
  O  O12  1  0.39115956  0.95797978  0.69190144  1
  O  O13  1  0.89900462  0.97842778  0.69168754  1
  O  O14  1  0.08665950  0.21827113  0.69338677  1
  O  O15  1  0.58995864  0.20888684  0.69230359  1
  O  O16  1  0.01498421  0.81667286  0.70064397  1
  O  O17  1  0.51691478  0.82870685  0.69484208  1
  O  O18  1  0.39689758  0.82046007  0.18942105  1
  O  O19  1  0.89113761  0.82333262  0.19108783  1
  O  O20  1  0.01772345  0.20745282  0.19375011  1
  O  O21  1  0.51240861  0.20754218  0.19868114  1
  O  O22  1  0.09097061  0.97136247  0.19049690  1
  O  O23  1  0.58828641  0.95295129  0.19308163  1
  O  O24  1  0.42751567  0.35139193  0.64549072  1
  O  O25  1  0.93835948  0.36174655  0.64449361  1
  O  O26  1  0.25169584  0.14334235  0.64581351  1
  O  O27  1  0.74097442  0.11982404  0.64182797  1
  O  O28  1  0.32328274  0.51540402  0.63678368  1
  O  O29  1  0.81975480  0.50368812  0.63807929  1
  O  O30  1  0.43629829  0.51171971  0.14256463  1
  O  O31  1  0.92802520  0.50374929  0.14518691  1
  O  O32  1  0.32454380  0.13011031  0.13502667  1
  O  O33  1  0.82368859  0.13182612  0.13688047  1
  O  O34  1  0.24271158  0.35852351  0.14084327  1
  O  O35  1  0.74978061  0.35601597  0.14559719  1
  O  O36  1  0.23298679  0.30476726  0.02196375  1
  O  O37  1  0.73090788  0.30221753  0.02473706  1
  O  O38  1  0.41459205  0.51267400  0.02256083  1
  O  O39  1  0.91521773  0.51018662  0.02310329  1
  O  O40  1  0.34283079  0.14739290  0.02561408  1
  O  O41  1  0.84175050  0.15006033  0.02654635  1
  O  O42  1  0.23189732  0.15941845  0.52419233  1
  O  O43  1  0.73134658  0.16011812  0.52163706  1
  O  O44  1  0.34150895  0.53182111  0.52631883  1
  O  O45  1  0.84368005  0.52234395  0.51787159  1
  O  O46  1  0.41424370  0.31668126  0.52306190  1
  O  O47  1  0.91675883  0.31449715  0.52289646  1
  O  O48  1  0.27305397  0.70424699  0.97568874  1
  O  O49  1  0.77862212  0.71008158  0.97685392  1
  O  O50  1  0.07354913  0.45122629  0.96753404  1
  O  O51  1  0.57344710  0.45510007  0.96992544  1
  O  O52  1  0.14680273  0.84507213  0.97396624  1
  O  O53  1  0.65016679  0.84754539  0.97612580  1
  O  O54  1  0.27829491  0.84634009  0.47585665  1
  O  O55  1  0.77248168  0.84205369  0.47320889  1
  O  O56  1  0.15043402  0.45497744  0.47459440  1
  O  O57  1  0.64211931  0.44508602  0.47078181  1
  O  O58  1  0.07450776  0.69413607  0.46842143  1
  O  O59  1  0.57377502  0.69750863  0.46647779  1
  O  O60  1  0.05785203  0.63991784  0.36176243  1
  O  O61  1  0.55904017  0.63962696  0.35898265  1
  O  O62  1  0.25211057  0.87977803  0.36317468  1
  O  O63  1  0.75397174  0.88033652  0.35784591  1
  O  O64  1  0.18700922  0.48716977  0.35957707  1
  O  O65  1  0.67895848  0.50366063  0.35557116  1
  O  O66  1  0.05881118  0.47951198  0.86056182  1
  O  O67  1  0.55328678  0.47508586  0.86359671  1
  O  O68  1  0.18260834  0.85873809  0.85846330  1
  O  O69  1  0.68672024  0.88448207  0.86130564  1
  O  O70  1  0.25170450  0.63213077  0.85970809  1
  O  O71  1  0.75065725  0.62317873  0.86442552  1
  O  O72  1  0.01033660  0.82194120  0.41218674  1
  O  O73  1  0.51252785  0.82789845  0.40872898  1
  O  O74  1  0.41468578  0.98453888  0.40689079  1
  O  O75  1  0.91215192  0.98076249  0.40846214  1
  O  O76  1  0.08154195  0.17257195  0.40942313  1
  O  O77  1  0.58079168  0.17649236  0.40408250  1
  O  O78  1  0.01287179  0.19856810  0.91002319  1
  O  O79  1  0.50895413  0.19835827  0.91368311  1
  O  O80  1  0.08286324  0.98665438  0.90575014  1
  O  O81  1  0.58180176  0.99081104  0.91054899  1
  O  O82  1  0.41164940  0.84565222  0.90971082  1
  O  O83  1  0.91513470  0.84314380  0.90767888  1
  O  O84  1  0.47941472  0.15891642  0.58480334  1
  O  O85  1  0.98683900  0.16770931  0.58287668  1
  O  O86  1  0.09916805  0.03010340  0.59052038  1
  O  O87  1  0.59192765  0.02928711  0.58316265  1
  O  O88  1  0.40836763  0.79095065  0.58391669  1
  O  O89  1  0.91734136  0.81178425  0.58333255  1
  O  O90  1  0.48299863  0.80476522  0.08227492  1
  O  O91  1  0.98096917  0.80062703  0.08395564  1
  O  O92  1  0.40976227  0.02460543  0.08465836  1
  O  O93  1  0.90859511  0.02501001  0.08393284  1
  O  O94  1  0.09210139  0.15799205  0.08258321  1
  O  O95  1  0.59581444  0.16673829  0.08977467  1
  O  O96  1  0.34446053  0.16992233  0.74832038  1
  O  O97  1  0.85357007  0.18063739  0.75289342  1
  O  O98  1  0.24218089  0.31980623  0.74442169  1
  O  O99  1  0.73731475  0.30001589  0.75183413  1
  O  O100  1  0.40912451  0.51046405  0.74139700  1
  O  O101  1  0.92550986  0.53965076  0.75083052  1
  O  O102  1  0.35369281  0.53009860  0.25063419  1
  O  O103  1  0.84413200  0.51881275  0.24733854  1
  O  O104  1  0.42358287  0.30758592  0.24834529  1
  O  O105  1  0.90906312  0.30783285  0.24091157  1
  O  O106  1  0.23865509  0.17207742  0.24899526  1
  O  O107  1  0.74249926  0.16478900  0.24381626  1
  O  O108  1  0.32647435  0.49855713  0.92197553  1
  O  O109  1  0.82979228  0.49845272  0.92426720  1
  O  O110  1  0.42963912  0.34852048  0.92483237  1
  O  O111  1  0.93248508  0.34679251  0.92051629  1
  O  O112  1  0.25663665  0.15390841  0.92261040  1
  O  O113  1  0.75746056  0.16199525  0.92738987  1
  O  O114  1  0.33011843  0.16149102  0.42365801  1
  O  O115  1  0.82755511  0.16020154  0.42375567  1
  O  O116  1  0.25709457  0.35236664  0.42655479  1
  O  O117  1  0.75337234  0.35666460  0.41805771  1
  O  O118  1  0.43282272  0.51876891  0.41913174  1
  O  O119  1  0.93290330  0.51078843  0.42048046  1
  O  O120  1  0.18201071  0.50868157  0.07753552  1
  O  O121  1  0.68603316  0.51167570  0.08089240  1
  O  O122  1  0.07228017  0.64813999  0.07930201  1
  O  O123  1  0.57586884  0.65426235  0.07825367  1
  O  O124  1  0.25556762  0.87587519  0.07858084  1
  O  O125  1  0.75526378  0.87774735  0.07952559  1
  O  O126  1  0.18750693  0.86254102  0.58044175  1
  O  O127  1  0.67835309  0.85434347  0.57599389  1
  O  O128  1  0.25498052  0.63177112  0.57911112  1
  O  O129  1  0.74969228  0.63629535  0.57678021  1
  O  O130  1  0.07659034  0.50228245  0.57864757  1
  O  O131  1  0.56994278  0.49435543  0.57896498  1
  O  O132  1  0.14838404  0.82547831  0.25709486  1
  O  O133  1  0.65417505  0.81647346  0.26192753  1
  O  O134  1  0.26069865  0.67829875  0.25334932  1
  O  O135  1  0.75730607  0.68734040  0.25798925  1
  O  O136  1  0.07920522  0.48166067  0.25724101  1
  O  O137  1  0.57707234  0.46385615  0.25676043  1
  O  O138  1  0.15356931  0.49039379  0.76285886  1
  O  O139  1  0.64769238  0.46879390  0.75913240  1
  O  O140  1  0.07944496  0.69203408  0.75972773  1
  O  O141  1  0.57904917  0.67719538  0.75826388  1
  O  O142  1  0.25690178  0.82757859  0.75820889  1
  O  O143  1  0.76186203  0.84498033  0.75442456  1
loop_
_geom_bond_atom_site_label_1
_geom_bond_atom_site_label_2
_geom_bond_distance
_geom_bond_site_symmetry_2
Na0 O105 2.409579 1_555
Na0 O107 2.443703 1_555
Na0 O135 2.512271 1_545
Na0 O133 2.583866 1_545
Na0 O63 2.591442 1_545
Na0 O5 2.811717 1_555
Na0 O33 2.838124 1_555
Na0 O19 2.935301 1_545
Na1 O106 2.472059 1_555
Na1 O136 2.482014 1_555
Na1 O134 2.531572 1_555
Na1 O64 2.596325 1_555
Na1 O20 2.771132 1_555
Na1 O34 2.814085 1_555
Na1 O102 2.827679 1_555
Na1 O0 2.843808 1_555
Na2 O103 2.413252 1_555
Na2 O107 2.469641 1_555
Na2 O135 2.501020 1_555
Na2 O137 2.588950 1_555
Na2 O65 2.627936 1_555
Na2 O35 2.676713 1_555
Na3 O103 2.412525 1_555
Na3 O132 2.429205 1_655
Na3 O136 2.473917 1_655
Na3 O105 2.524919 1_555
Na3 O31 2.525243 1_555
Na3 O60 2.794627 1_655
Na3 O22 2.959220 1_655
Na3 O3 2.981388 1_555
Na4 O133 2.332047 1_555
Na4 O102 2.411453 1_555
Na4 O61 2.562938 1_555
Na4 O137 2.564407 1_555
Na4 O104 2.672407 1_555
Na4 O23 2.741598 1_555
Na4 O30 2.747415 1_555
Na4 O2 2.948548 1_555
Na5 O100 2.404018 1_555
Na5 O98 2.430288 1_555
Na5 O142 2.522525 1_555
Na5 O138 2.588742 1_555
Na5 O70 2.717054 1_555
Na5 O28 2.763711 1_555
Na5 O8 2.857884 1_555
Na5 O12 2.897727 1_555
Na6 O138 2.371880 1_555
Na6 O97 2.383605 1_455
Na6 O25 2.557444 1_455
Na6 O140 2.613904 1_555
Na6 O101 2.639413 1_455
Na6 O14 2.684845 1_555
Na6 O66 2.741376 1_555
Na7 O139 2.413792 1_555
Na7 O96 2.433458 1_555
Na7 O24 2.470942 1_555
Na7 O141 2.475727 1_555
Na7 O100 2.535725 1_555
Na7 O67 2.873338 1_555
Na7 O15 2.894971 1_555
Na8 O96 2.433779 1_555
Na8 O98 2.451669 1_555
Na8 O142 2.522010 1_545
Na8 O140 2.576541 1_545
Na8 O26 2.600685 1_555
Na8 O68 2.770924 1_545
Na8 O16 2.937521 1_545
Na8 O6 2.961485 1_555
Na9 O99 2.414176 1_565
Na9 O143 2.482325 1_555
Na9 O141 2.521050 1_555
Na9 O27 2.660670 1_565
Na9 O69 2.722552 1_555
Na9 O97 2.748572 1_565
Na9 O17 2.795166 1_555
Na9 O7 2.978574 1_565
Na10 O86 2.382640 1_555
Na10 O128 2.446673 1_555
Na10 O130 2.497789 1_555
Na10 O85 2.533488 1_455
Na10 O56 2.661979 1_555
Na10 O14 2.701144 1_555
Na11 O87 2.404640 1_555
Na11 O129 2.418709 1_555
Na11 O131 2.507664 1_555
Na11 O84 2.666718 1_555
Na11 O15 2.697969 1_555
Na11 O57 2.715117 1_555
Na11 O29 2.932591 1_555
Na11 O43 2.970368 1_555
Na12 O84 2.289238 1_565
Na12 O126 2.322475 1_555
Na12 O12 2.606853 1_555
Na12 O88 2.656397 1_555
Na12 O54 2.707144 1_555
Na12 O128 2.747688 1_555
Na12 O26 2.889850 1_565
Na12 O46 2.991439 1_565
Na13 O127 2.440062 1_555
Na13 O85 2.459517 1_565
Na13 O89 2.555541 1_555
Na13 O129 2.595673 1_555
Na13 O55 2.647541 1_555
Na13 O13 2.709584 1_555
Na14 O94 2.377001 1_565
Na14 O122 2.444759 1_555
Na14 O124 2.521295 1_555
Na14 O91 2.526070 1_455
Na14 O52 2.616846 1_554
Na14 O22 2.640229 1_555
Na15 O125 2.421392 1_555
Na15 O95 2.431720 1_565
Na15 O123 2.498118 1_555
Na15 O53 2.569480 1_554
Na15 O90 2.646603 1_555
Na15 O23 2.749127 1_555
Na15 O37 2.865131 1_565
Na15 O33 2.969371 1_565
Na16 O120 2.371396 1_555
Na16 O90 2.382118 1_555
Na16 O48 2.624535 1_554
Na16 O92 2.637936 1_565
Na16 O18 2.664795 1_555
Na16 O124 2.677035 1_555
Na16 O34 2.910303 1_555
Na16 O38 2.977301 1_555
Na17 O91 2.314352 1_555
Na17 O121 2.344452 1_555
Na17 O19 2.586238 1_555
Na17 O93 2.650941 1_565
Na17 O49 2.686441 1_554
Na17 O125 2.740919 1_555
Na17 O35 2.920846 1_555
Na17 O39 3.008718 1_555
Na18 O82 2.431133 1_555
Na18 O81 2.471690 1_555
Na18 O108 2.475915 1_555
Na18 O8 2.507126 1_555
Na18 O110 2.653458 1_555
Na18 O38 2.799709 1_556
Na18 O67 2.937548 1_555
Na18 O53 2.943834 1_555
Na19 O83 2.438592 1_555
Na19 O109 2.441333 1_555
Na19 O80 2.500237 1_655
Na19 O111 2.619577 1_555
Na19 O39 2.668410 1_556
Na19 O9 2.716891 1_555
Na19 O52 2.783331 1_655
Na20 O82 2.426984 1_545
Na20 O112 2.456322 1_555
Na20 O10 2.533441 1_555
Na20 O79 2.550250 1_555
Na20 O110 2.564916 1_555
Na20 O68 2.792295 1_545
Na20 O40 2.846118 1_556
Na20 O48 2.926009 1_545
Na21 O113 2.493078 1_555
Na21 O83 2.517777 1_545
Na21 O111 2.527035 1_555
Na21 O11 2.614148 1_555
Na21 O78 2.615242 1_655
Na21 O69 2.729873 1_545
Na21 O41 2.822430 1_556
Na21 O49 2.885644 1_545
Na22 O80 2.446010 1_545
Na22 O6 2.505382 1_555
Na22 O108 2.505402 1_555
Na22 O78 2.507749 1_555
Na22 O112 2.516166 1_555
Na22 O36 2.742739 1_556
Na22 O70 2.847230 1_555
Na23 O81 2.424291 1_545
Na23 O113 2.513639 1_555
Na23 O79 2.548499 1_555
Na23 O7 2.556113 1_555
Na23 O109 2.573534 1_555
Na23 O71 2.741627 1_555
Na23 O37 2.778146 1_556
Na24 O114 2.469011 1_555
Na24 O77 2.493129 1_555
Na24 O74 2.500218 1_545
Na24 O46 2.602267 1_555
Na24 O118 2.621444 1_555
Na24 O57 2.622503 1_555
Na24 O4 2.836512 1_555
Na25 O75 2.411815 1_545
Na25 O115 2.414275 1_555
Na25 O76 2.517674 1_655
Na25 O119 2.569168 1_555
Na25 O5 2.650029 1_555
Na25 O47 2.652214 1_555
Na25 O56 2.918780 1_655
Na26 O76 2.416493 1_555
Na26 O116 2.499152 1_555
Na26 O72 2.510668 1_545
Na26 O114 2.584726 1_555
Na26 O0 2.650045 1_555
Na26 O42 2.696503 1_555
Na26 O62 2.801841 1_545
Na26 O58 2.949104 1_545
Na27 O117 2.430639 1_555
Na27 O115 2.445037 1_555
Na27 O77 2.498127 1_555
Na27 O43 2.568067 1_555
Na27 O73 2.580733 1_545
Na27 O1 2.697523 1_555
Na27 O63 2.871124 1_545
Na27 O59 2.974261 1_545
Na28 O116 2.482980 1_555
Na28 O74 2.507660 1_555
Na28 O118 2.513406 1_555
Na28 O73 2.608923 1_555
Na28 O44 2.744257 1_555
Na28 O2 2.745186 1_555
Na28 O64 2.785041 1_555
Na28 O54 2.830520 1_555
Na29 O117 2.439774 1_555
Na29 O75 2.483787 1_555
Na29 O45 2.567433 1_555
Na29 O119 2.589044 1_555
Na29 O72 2.590467 1_655
Na29 O3 2.778893 1_555
Na29 O55 2.807287 1_555
Na29 O65 2.949414 1_555
Na30 O89 2.478963 1_555
Na30 O75 2.487750 1_555
Na30 O85 2.522170 1_565
Na30 O76 2.528610 1_665
Na30 O72 2.551467 1_655
Na30 O86 2.653555 1_665
Na31 O87 2.395417 1_555
Na31 O84 2.498292 1_555
Na31 O74 2.545924 1_545
Na31 O77 2.563838 1_555
Na31 O73 2.659997 1_545
Na31 O88 2.691266 1_545
Na32 O94 2.432095 1_566
Na32 O83 2.490383 1_455
Na32 O91 2.509725 1_456
Na32 O80 2.548681 1_555
Na32 O78 2.628173 1_565
Na32 O93 2.673904 1_466
Na33 O81 2.387039 1_545
Na33 O82 2.438885 1_545
Na33 O79 2.510974 1_555
Na33 O90 2.543183 1_546
Na33 O95 2.635126 1_556
Na33 O92 2.715405 1_556
Na34 O98 2.407974 1_555
Na34 O96 2.427850 1_555
Na34 O100 2.473833 1_555
Na34 O108 2.569392 1_555
Na34 O112 2.596936 1_555
Na34 O110 2.755620 1_555
Na35 O99 2.356416 1_555
Na35 O97 2.460078 1_555
Na35 O109 2.493331 1_555
Na35 O113 2.522499 1_555
Na35 O101 2.629924 1_555
Na35 O111 2.660030 1_555
Na36 O114 2.399109 1_555
Na36 O116 2.441349 1_555
Na36 O106 2.462505 1_555
Na36 O118 2.587838 1_555
Na36 O102 2.609843 1_555
Na36 O104 2.712047 1_555
Na37 O117 2.448390 1_555
Na37 O107 2.493117 1_555
Na37 O115 2.500496 1_555
Na37 O103 2.525343 1_555
Na37 O105 2.568922 1_555
Na37 O119 2.624970 1_555
Na38 O136 2.475694 1_555
Na38 O122 2.499232 1_555
Na38 O120 2.568090 1_555
Na38 O134 2.572068 1_555
Na38 O132 2.572189 1_555
Na38 O124 2.793273 1_555
Na39 O135 2.489725 1_555
Na39 O121 2.537632 1_555
Na39 O133 2.544887 1_555
Na39 O137 2.560379 1_555
Na39 O123 2.588103 1_555
Na39 O125 2.754759 1_555
Na40 O130 2.520322 1_555
Na40 O142 2.531545 1_555
Na40 O126 2.542737 1_555
Na40 O138 2.591755 1_555
Na40 O140 2.593060 1_555
Na40 O128 2.751741 1_555
Na41 O131 2.491918 1_555
Na41 O127 2.553841 1_555
Na41 O129 2.599171 1_555
Na41 O143 2.621728 1_555
Na41 O141 2.636651 1_555
Na41 O139 2.672453 1_555
Al0 O5 1.816942 1_555
Al0 O3 1.875483 1_545
Al0 O0 1.907460 1_655
Al0 O75 1.961293 1_545
Al0 O76 2.022748 1_655
Al0 O72 2.376403 1_645
Al1 O2 1.850292 1_545
Al1 O77 1.870971 1_555
Al1 O1 1.879622 1_555
Al1 O74 1.981679 1_545
Al1 O4 2.037894 1_555
Al1 O73 2.110151 1_545
Al2 O11 1.832609 1_455
Al2 O6 1.866573 1_555
Al2 O80 1.935355 1_545
Al2 O9 1.962224 1_445
Al2 O83 2.014197 1_445
Al2 O78 2.183658 1_555
Al3 O8 1.809970 1_555
Al3 O7 1.860675 1_565
Al3 O10 1.866942 1_565
Al3 O82 2.004054 1_555
Al3 O81 2.064538 1_555
Al3 O79 2.402347 1_565
Al4 O24 1.843936 1_555
Al4 O26 1.848380 1_555
Al4 O96 1.904944 1_555
Al4 O100 1.921047 1_555
Al4 O98 2.085988 1_555
Al4 O28 2.269424 1_555
Al5 O31 1.862591 1_555
Al5 O35 1.869349 1_555
Al5 O103 1.886448 1_555
Al5 O105 1.912050 1_555
Al5 O107 2.068742 1_555
Al5 O33 2.259822 1_555
Al6 O36 1.790770 1_556
Al6 O108 1.848633 1_555
Al6 O38 1.853843 1_556
Al6 O112 1.973279 1_555
Al6 O110 2.253317 1_555
Al6 O40 2.255256 1_556
Al7 O37 1.783030 1_556
Al7 O39 1.819521 1_556
Al7 O109 1.863632 1_555
Al7 O113 1.916274 1_555
Al7 O41 2.188372 1_556
Al7 O111 2.422941 1_555
Al8 O42 1.772590 1_555
Al8 O46 1.807561 1_555
Al8 O114 1.878642 1_555
Al8 O116 1.940947 1_555
Al8 O44 2.160134 1_555
Al8 O118 2.444285 1_555
Al9 O43 1.807418 1_555
Al9 O45 1.852753 1_555
Al9 O47 1.877117 1_555
Al9 O115 1.980145 1_555
Al9 O117 2.097042 1_555
Al9 O119 2.336912 1_555
Al10 O63 1.777331 1_555
Al10 O135 1.836169 1_555
Al10 O65 1.846999 1_555
Al10 O133 1.946858 1_555
Al10 O61 2.335884 1_555
Al10 O137 2.409566 1_555
Al11 O70 1.790188 1_555
Al11 O142 1.818436 1_555
Al11 O68 1.883221 1_555
Al11 O138 1.919297 1_555
Al11 O140 2.300563 1_555
Al11 O66 2.348781 1_555
O0 Si0 1.625258 1_545
O1 Si1 1.632615 1_545
O2 Si2 1.615095 1_555
O3 Si3 1.630706 1_555
O4 S0 1.475827 1_555
O5 Si4 1.631024 1_555
O6 Si5 1.653759 1_555
O7 Si6 1.632110 1_555
O8 Si7 1.640785 1_555
O9 S1 1.492222 1_655
O10 Si8 1.638775 1_545
O11 Si9 1.629598 1_555
O12 Si8 1.647570 1_555
O12 Zr1 2.082847 1_565
O13 Si9 1.624706 1_565
O13 Zr0 2.027942 1_565
O14 Si5 1.650907 1_555
O14 Zr0 2.089456 1_455
O15 Si6 1.647693 1_555
O15 Zr1 1.994428 1_555
O16 S1 1.477778 1_555
O16 Zr0 2.271532 1_465
O17 Si7 1.632144 1_555
O17 Zr1 2.019397 1_565
O18 Si2 1.633506 1_555
O18 Zr3 2.029622 1_555
O19 Si3 1.659181 1_555
O19 Zr2 2.061282 1_665
O20 Si4 1.640826 1_455
O20 Zr2 2.005680 1_555
O21 S0 1.492338 1_555
O21 Zr3 2.221694 1_545
O22 Si0 1.652490 1_555
O22 Zr2 1.999973 1_565
O23 Si1 1.683119 1_555
O23 Zr3 1.981074 1_555
O24 Si10 1.628116 1_555
O25 Si11 1.637044 1_555
O25 Zr4 2.064585 1_555
O26 Si12 1.627207 1_555
O27 Si13 1.659584 1_555
O27 Zr4 2.001893 1_555
O28 S2 1.467459 1_555
O29 Si14 1.637118 1_555
O29 Zr4 1.987712 1_555
O30 Si15 1.639355 1_555
O30 Zr5 2.043300 1_555
O31 Si16 1.624140 1_555
O32 S3 1.484569 1_555
O32 Zr5 2.214840 1_555
O33 S4 1.466906 1_555
O34 Si17 1.660074 1_555
O34 Zr5 1.986574 1_555
O35 Si18 1.625620 1_555
O36 Si17 1.629858 1_555
O37 Si18 1.634851 1_555
O38 Si15 1.628418 1_555
O39 Si16 1.643489 1_555
O40 S3 1.464925 1_555
O41 S4 1.479253 1_555
O42 Si12 1.636434 1_555
O43 Si13 1.625475 1_555
O44 S2 1.481423 1_555
O45 Si14 1.618623 1_555
O46 Si10 1.646386 1_555
O47 Si11 1.621533 1_555
O48 Si19 1.661857 1_555
O48 Zr6 2.077998 1_556
O49 Si20 1.661916 1_555
O49 Zr7 2.068518 1_556
O50 S5 1.506619 1_555
O50 Zr6 2.100959 1_556
O51 S6 1.505361 1_555
O51 Zr7 2.121719 1_556
O52 Si21 1.666713 1_555
O52 Zr6 2.044938 1_556
O53 Si22 1.658998 1_555
O53 Zr7 2.058487 1_556
O54 Si23 1.654456 1_555
O54 Zr8 2.089389 1_555
O55 Si24 1.647975 1_555
O55 Zr9 2.090889 1_555
O56 Si25 1.651388 1_555
O56 Zr8 2.062796 1_555
O57 Si26 1.652276 1_555
O57 Zr9 2.067253 1_555
O58 S7 1.502994 1_555
O58 Zr8 2.125350 1_555
O59 S8 1.477468 1_555
O59 Zr9 2.226726 1_555
O60 S7 1.485238 1_555
O60 Zr10 2.272391 1_555
O61 S8 1.487439 1_555
O62 Si23 1.638489 1_555
O62 Zr10 2.012527 1_555
O63 Si24 1.645253 1_555
O64 Si25 1.650418 1_555
O64 Zr10 2.087269 1_555
O65 Si26 1.659971 1_555
O66 S5 1.476000 1_555
O67 S6 1.479534 1_555
O67 Zr11 2.371226 1_555
O68 Si21 1.646112 1_555
O69 Si22 1.639444 1_555
O69 Zr11 2.095075 1_555
O70 Si19 1.630246 1_555
O71 Si20 1.631306 1_555
O71 Zr11 2.032582 1_555
O72 S7 1.479252 1_555
O73 S8 1.504758 1_555
O74 Si23 1.643045 1_555
O75 Si24 1.658849 1_555
O76 Si25 1.641871 1_555
O77 Si26 1.664555 1_555
O78 S5 1.493061 1_555
O79 S6 1.477749 1_555
O80 Si21 1.656792 1_555
O81 Si22 1.643886 1_555
O82 Si19 1.648111 1_555
O83 Si20 1.645148 1_555
O84 Si10 1.686489 1_555
O84 Zr1 2.172041 1_555
O85 Si11 1.670020 1_555
O85 Zr0 2.077447 1_555
O86 Si12 1.632898 1_555
O86 Zr0 2.079868 1_455
O87 Si13 1.636914 1_555
O87 Zr1 2.115095 1_555
O88 S2 1.487931 1_555
O88 Zr1 2.301834 1_565
O89 Si14 1.634423 1_555
O89 Zr0 2.102089 1_565
O90 Si15 1.685305 1_555
O90 Zr3 2.088461 1_555
O91 Si16 1.682060 1_555
O91 Zr2 2.192928 1_665
O92 S3 1.481645 1_555
O92 Zr3 2.345191 1_545
O93 S4 1.487994 1_555
O93 Zr2 2.293851 1_655
O94 Si17 1.627500 1_555
O94 Zr2 2.153736 1_555
O95 Si18 1.655407 1_555
O95 Zr3 2.071530 1_545
O96 Si8 1.649919 1_545
O97 Si9 1.650463 1_555
O97 Zr4 2.193143 1_555
O98 Si5 1.649048 1_555
O99 Si6 1.640219 1_555
O99 Zr4 2.151811 1_555
O100 Si7 1.634418 1_555
O101 S1 1.486754 1_655
O101 Zr4 2.330587 1_555
O102 Si2 1.674007 1_555
O102 Zr5 2.054954 1_555
O103 Si3 1.650016 1_555
O104 S0 1.493990 1_555
O104 Zr5 2.266271 1_555
O105 Si4 1.632577 1_555
O106 Si0 1.655153 1_545
O106 Zr5 2.102271 1_555
O107 Si1 1.636760 1_545
O108 Si19 1.662695 1_555
O109 Si20 1.648098 1_555
O110 S6 1.483714 1_555
O111 S5 1.479111 1_655
O112 Si21 1.670855 1_545
O113 Si22 1.660083 1_545
O114 Si23 1.647774 1_545
O115 Si24 1.659004 1_545
O116 Si25 1.661766 1_555
O117 Si26 1.651279 1_555
O118 S8 1.492187 1_555
O119 S7 1.473634 1_655
O120 Si17 1.638351 1_555
O120 Zr6 2.090968 1_555
O121 Si18 1.658503 1_555
O121 Zr7 2.101555 1_555
O122 Si16 1.674234 1_455
O122 Zr6 2.090766 1_555
O123 Si15 1.641679 1_555
O123 Zr7 2.095413 1_555
O124 S3 1.514485 1_565
O124 Zr6 2.252522 1_555
O125 S4 1.532035 1_565
O125 Zr7 2.207449 1_555
O126 Si12 1.661116 1_565
O126 Zr8 2.089854 1_555
O127 Si13 1.623972 1_565
O127 Zr9 2.080589 1_555
O128 S2 1.529422 1_555
O128 Zr8 2.214705 1_555
O129 Si14 1.666571 1_555
O129 Zr9 2.037692 1_555
O130 Si11 1.655317 1_455
O130 Zr8 2.069548 1_555
O131 Si10 1.646738 1_555
O131 Zr9 2.107519 1_555
O132 Si0 1.626441 1_555
O132 Zr10 2.076477 1_555
O133 Si1 1.665639 1_555
O134 Si2 1.635601 1_555
O134 Zr10 2.033813 1_555
O135 Si3 1.660922 1_555
O136 Si4 1.643905 1_455
O136 Zr10 2.121331 1_555
O137 S0 1.487541 1_555
O138 Si5 1.680031 1_555
O139 Si6 1.629286 1_555
O139 Zr11 2.050938 1_555
O140 S1 1.497731 1_555
O141 Si7 1.643569 1_555
O141 Zr11 2.102159 1_555
O142 Si8 1.661763 1_555
O143 Si9 1.651567 1_565
O143 Zr11 2.001868 1_555
