# generated using pymatgen
data_Li(MoO2)2
_symmetry_space_group_name_H-M   'P 1'
_cell_length_a   5.95317321
_cell_length_b   5.95317373
_cell_length_c   5.95317300
_cell_angle_alpha   59.99999853
_cell_angle_beta   59.99999559
_cell_angle_gamma   60.00000000
_symmetry_Int_Tables_number   1
_chemical_formula_structural   Li(MoO2)2
_chemical_formula_sum   'Li2 Mo4 O8'
_cell_volume   149.18685600
_cell_formula_units_Z   2
loop_
 _symmetry_equiv_pos_site_id
 _symmetry_equiv_pos_as_xyz
  1  'x, y, z'
loop_
 _atom_site_type_symbol
 _atom_site_label
 _atom_site_symmetry_multiplicity
 _atom_site_fract_x
 _atom_site_fract_y
 _atom_site_fract_z
 _atom_site_occupancy
  Li  Li0  1  0.12500100  0.12500000  0.12500000  1
  Li  Li1  1  0.87500000  0.87499900  0.87500100  1
  Mo  Mo0  1  0.49999900  0.50000100  0.50000000  1
  Mo  Mo1  1  0.50000100  0.00000000  0.50000000  1
  Mo  Mo2  1  0.00000100  0.50000100  0.50000000  1
  Mo  Mo3  1  0.49999900  0.50000100  0.00000000  1
  O  O0  1  0.74909400  0.74909400  0.25271800  1
  O  O1  1  0.74909400  0.74909400  0.74909400  1
  O  O2  1  0.25090700  0.25090600  0.74728100  1
  O  O3  1  0.25090700  0.74728200  0.25090600  1
  O  O4  1  0.25090700  0.25090600  0.25090600  1
  O  O5  1  0.74728200  0.25090600  0.25090600  1
  O  O6  1  0.74909500  0.25271700  0.74909500  1
  O  O7  1  0.25271900  0.74909400  0.74909500  1
loop_
_geom_bond_atom_site_label_1
_geom_bond_atom_site_label_2
_geom_bond_distance
_geom_bond_site_symmetry_2
Li0 O4 1.835991 1_555
Li0 O3 1.835991 1_545
Li0 O2 1.835996 1_554
Li0 O5 1.835996 1_455
Li1 O0 1.835986 1_556
Li1 O1 1.835991 1_555
Li1 O6 1.835991 1_565
Li1 O7 1.835996 1_655
Mo0 O3 2.097156 1_555
Mo0 O2 2.097160 1_555
Mo0 O0 2.097165 1_555
Mo0 O7 2.097165 1_555
Mo0 O5 2.097169 1_555
Mo0 O6 2.097177 1_555
Mo1 O5 2.097160 1_555
Mo1 O1 2.097160 1_545
Mo1 O2 2.097160 1_555
Mo1 O7 2.097165 1_545
Mo1 O4 2.097165 1_555
Mo1 O0 2.097165 1_545
Mo2 O3 2.097160 1_555
Mo2 O2 2.097160 1_555
Mo2 O1 2.097160 1_455
Mo2 O4 2.097169 1_555
Mo2 O0 2.097169 1_455
Mo2 O6 2.097173 1_455
Mo3 O7 2.097152 1_554
Mo3 O4 2.097160 1_555
Mo3 O3 2.097160 1_555
Mo3 O1 2.097165 1_554
Mo3 O6 2.097169 1_554
Mo3 O5 2.097169 1_555
