# generated using pymatgen
data_Na9Mg5Nb7(PO4)18
_symmetry_space_group_name_H-M   'P 1'
_cell_length_a   8.83189815
_cell_length_b   8.78706600
_cell_length_c   22.64200930
_cell_angle_alpha   89.99478854
_cell_angle_beta   90.16368237
_cell_angle_gamma   119.90203615
_symmetry_Int_Tables_number   1
_chemical_formula_structural   Na9Mg5Nb7(PO4)18
_chemical_formula_sum   'Na9 Mg5 Nb7 P18 O72'
_cell_volume   1523.24274402
_cell_formula_units_Z   1
loop_
 _symmetry_equiv_pos_site_id
 _symmetry_equiv_pos_as_xyz
  1  'x, y, z'
loop_
 _atom_site_type_symbol
 _atom_site_label
 _atom_site_symmetry_multiplicity
 _atom_site_fract_x
 _atom_site_fract_y
 _atom_site_fract_z
 _atom_site_occupancy
  Na  Na0  1  0.98854917  0.63174518  0.24600993  1
  Na  Na1  1  0.65636132  0.69094548  0.07937078  1
  Na  Na2  1  0.32336644  0.29898917  0.91313422  1
  Na  Na3  1  0.00018971  0.99983717  0.49564311  1
  Na  Na4  1  0.99782877  0.99702690  0.99116348  1
  Na  Na5  1  0.67578991  0.33470202  0.82376167  1
  Na  Na6  1  0.65571479  0.32315035  0.32626133  1
  Na  Na7  1  0.33122325  0.66718782  0.15703688  1
  Na  Na8  1  0.33350968  0.66664764  0.67046272  1
  Mg  Mg0  1  0.00038528  0.00052114  0.35412370  1
  Mg  Mg1  1  0.99370712  0.99440693  0.85194769  1
  Mg  Mg2  1  0.66619453  0.33311143  0.68728930  1
  Mg  Mg3  1  0.66080188  0.32747472  0.18515016  1
  Mg  Mg4  1  0.32769566  0.66692515  0.01834616  1
  Nb  Nb0  1  0.99931828  0.99967469  0.65066380  1
  Nb  Nb1  1  0.00587304  0.00734261  0.14529744  1
  Nb  Nb2  1  0.67150589  0.33123427  0.97852459  1
  Nb  Nb3  1  0.66738670  0.33400961  0.47945761  1
  Nb  Nb4  1  0.33280444  0.66667506  0.52151372  1
  Nb  Nb5  1  0.33939628  0.66749975  0.31004869  1
  Nb  Nb6  1  0.33270392  0.66883671  0.81247433  1
  P  P0  1  0.29315542  0.00933614  0.25296710  1
  P  P1  1  0.71525490  0.71122588  0.25109987  1
  P  P2  1  0.99373310  0.28463530  0.25314958  1
  P  P3  1  0.29502353  0.28995913  0.75376685  1
  P  P4  1  0.99480944  0.70540833  0.75292465  1
  P  P5  1  0.71093518  0.00496296  0.75302279  1
  P  P6  1  0.95323804  0.33133634  0.58495681  1
  P  P7  1  0.37786852  0.04797190  0.58487265  1
  P  P8  1  0.66883128  0.62238578  0.58500337  1
  P  P9  1  0.96132412  0.62050466  0.08669845  1
  P  P10  1  0.66202964  0.04171788  0.08588673  1
  P  P11  1  0.38035248  0.33663865  0.08398125  1
  P  P12  1  0.62745598  0.67401293  0.91976936  1
  P  P13  1  0.04659071  0.37684158  0.91798638  1
  P  P14  1  0.32837655  0.95296719  0.91887212  1
  P  P15  1  0.62515189  0.95498599  0.41695432  1
  P  P16  1  0.33033910  0.37436855  0.41686341  1
  P  P17  1  0.04480825  0.66923973  0.41591710  1
  O  O0  1  0.20380342  0.02384166  0.30687080  1
  O  O1  1  0.82684990  0.79625679  0.30442669  1
  O  O2  1  0.97355082  0.17843180  0.30675924  1
  O  O3  1  0.21009391  0.18745897  0.80869615  1
  O  O4  1  0.97784090  0.79595320  0.80574989  1
  O  O5  1  0.81976037  0.02442493  0.80576404  1
  O  O6  1  0.80135616  0.97180389  0.69520095  1
  O  O7  1  0.16940195  0.19647312  0.69689113  1
  O  O8  1  0.02710183  0.82807422  0.69502826  1
  O  O9  1  0.79489717  0.82575568  0.19347597  1
  O  O10  1  0.02821462  0.20045419  0.19606100  1
  O  O11  1  0.16902502  0.96785274  0.19636797  1
  O  O12  1  0.87900932  0.36819509  0.63814681  1
  O  O13  1  0.48882048  0.12161300  0.63827669  1
  O  O14  1  0.63248670  0.51113828  0.63826313  1
  O  O15  1  0.87708345  0.52153771  0.14268102  1
  O  O16  1  0.64236982  0.12791278  0.13941192  1
  O  O17  1  0.49320758  0.36473686  0.13701771  1
  O  O18  1  0.46119479  0.30253239  0.02643736  1
  O  O19  1  0.83447950  0.53179343  0.03127270  1
  O  O20  1  0.69419486  0.16017463  0.02890432  1
  O  O21  1  0.46922539  0.16140715  0.52784948  1
  O  O22  1  0.69192253  0.53150003  0.52789670  1
  O  O23  1  0.83917701  0.30784518  0.52783706  1
  O  O24  1  0.54339031  0.68873373  0.97577764  1
  O  O25  1  0.15865840  0.46012678  0.97128949  1
  O  O26  1  0.30827609  0.84713617  0.97248290  1
  O  O27  1  0.52531577  0.84098496  0.47144389  1
  O  O28  1  0.31635603  0.47434514  0.47151837  1
  O  O29  1  0.16002093  0.68345704  0.47050764  1
  O  O30  1  0.12932129  0.63707080  0.36023961  1
  O  O31  1  0.50434911  0.86569348  0.36193617  1
  O  O32  1  0.36195790  0.49591591  0.36209042  1
  O  O33  1  0.13282575  0.49652011  0.86148862  1
  O  O34  1  0.36077413  0.86741915  0.86193286  1
  O  O35  1  0.50045074  0.63481276  0.86447158  1
  O  O36  1  0.02527960  0.82849203  0.41325056  1
  O  O37  1  0.80185515  0.97302871  0.41306917  1
  O  O38  1  0.17169437  0.19705246  0.41309756  1
  O  O39  1  0.02275461  0.19514986  0.90902935  1
  O  O40  1  0.18085269  0.99259578  0.91034058  1
  O  O41  1  0.80858326  0.82551157  0.91080678  1
  O  O42  1  0.97612215  0.16768721  0.58800654  1
  O  O43  1  0.19236209  0.02506764  0.58800177  1
  O  O44  1  0.83211217  0.80820919  0.58802830  1
  O  O45  1  0.96638140  0.80602447  0.09036024  1
  O  O46  1  0.83593640  0.02669657  0.09031614  1
  O  O47  1  0.19419154  0.16452616  0.09082371  1
  O  O48  1  0.68380178  0.15815720  0.74209119  1
  O  O49  1  0.47339086  0.31459734  0.74270507  1
  O  O50  1  0.84191769  0.52529959  0.74227954  1
  O  O51  1  0.68874415  0.52804874  0.24298701  1
  O  O52  1  0.84757641  0.32547052  0.24409391  1
  O  O53  1  0.47490822  0.15846061  0.24383440  1
  O  O54  1  0.63337559  0.49377871  0.92386994  1
  O  O55  1  0.86154108  0.36401497  0.92395246  1
  O  O56  1  0.50282364  0.14236787  0.92362528  1
  O  O57  1  0.63343556  0.13655455  0.42414046  1
  O  O58  1  0.50270744  0.36598685  0.42416521  1
  O  O59  1  0.86330209  0.49701718  0.42457315  1
  O  O60  1  0.35544683  0.49443409  0.07600227  1
  O  O61  1  0.14186280  0.64942612  0.07747206  1
  O  O62  1  0.51395760  0.85476826  0.07721479  1
  O  O63  1  0.35226755  0.85927519  0.57243174  1
  O  O64  1  0.50679429  0.64790446  0.57251806  1
  O  O65  1  0.14066787  0.49346652  0.57245042  1
  O  O66  1  0.29891429  0.82789536  0.25746450  1
  O  O67  1  0.52813984  0.69661200  0.25753922  1
  O  O68  1  0.16870534  0.47462154  0.25776969  1
  O  O69  1  0.30351085  0.47468707  0.75627324  1
  O  O70  1  0.17075346  0.69708872  0.75596891  1
  O  O71  1  0.52698123  0.82889839  0.75660650  1
loop_
_geom_bond_atom_site_label_1
_geom_bond_atom_site_label_2
_geom_bond_distance
_geom_bond_site_symmetry_2
Na0 O51 2.332270 1_555
Na0 O52 2.335333 1_555
Na0 O66 2.416027 1_655
Na0 O15 2.533237 1_555
Na0 O68 2.587773 1_655
Na0 O11 2.800467 1_655
Na0 O1 2.819240 1_555
Na0 O30 2.856746 1_655
Na1 O62 2.336911 1_555
Na1 O60 2.339646 1_555
Na1 O45 2.411859 1_555
Na1 O24 2.542601 1_554
Na1 O46 2.571675 1_565
Na1 O19 2.796423 1_555
Na1 O17 2.808608 1_555
Na1 O9 2.848250 1_555
Na2 O40 2.336156 1_545
Na2 O39 2.339518 1_555
Na2 O54 2.410188 1_555
Na2 O3 2.561718 1_555
Na2 O56 2.575873 1_555
Na2 O35 2.788485 1_555
Na2 O25 2.814196 1_555
Na2 O18 2.829924 1_556
Na3 O36 2.476232 1_555
Na3 O38 2.487780 1_565
Na3 O37 2.487840 1_455
Na3 O43 2.628211 1_565
Na3 O42 2.628637 1_465
Na3 O44 2.634277 1_455
Na4 O41 2.418040 1_555
Na4 O40 2.458244 1_655
Na4 O39 2.481394 1_665
Na4 O45 2.734355 1_556
Na4 O46 2.746370 1_566
Na4 O47 2.774712 1_666
Na5 O50 2.434398 1_555
Na5 O48 2.437574 1_555
Na5 O49 2.502265 1_555
Na5 O55 2.731560 1_555
Na5 O56 2.783427 1_555
Na5 O54 2.785575 1_555
Na6 O53 2.409716 1_555
Na6 O52 2.513272 1_555
Na6 O51 2.522044 1_555
Na6 O57 2.705313 1_555
Na6 O58 2.721428 1_555
Na6 O59 2.799105 1_555
Na7 O61 2.406105 1_555
Na7 O62 2.439628 1_555
Na7 O60 2.458267 1_555
Na7 O66 2.766258 1_555
Na7 O68 2.778825 1_555
Na7 O67 2.792649 1_555
Na8 O69 2.499421 1_555
Na8 O70 2.507065 1_555
Na8 O71 2.511820 1_555
Na8 O65 2.745218 1_555
Na8 O63 2.746085 1_555
Na8 O64 2.749209 1_555
Mg0 O2 2.004461 1_455
Mg0 O0 2.014502 1_555
Mg0 O1 2.021020 1_445
Mg0 O38 2.106705 1_555
Mg0 O36 2.110673 1_545
Mg0 O37 2.122504 1_445
Mg1 O4 1.977514 1_555
Mg1 O5 1.979393 1_565
Mg1 O41 2.060242 1_555
Mg1 O3 2.065689 1_665
Mg1 O39 2.096437 1_665
Mg1 O40 2.119891 1_655
Mg2 O48 2.040620 1_555
Mg2 O50 2.046213 1_555
Mg2 O13 2.056006 1_555
Mg2 O14 2.056722 1_555
Mg2 O49 2.058245 1_555
Mg2 O12 2.073648 1_555
Mg3 O16 1.971983 1_555
Mg3 O17 1.989913 1_555
Mg3 O15 2.060051 1_555
Mg3 O53 2.060991 1_555
Mg3 O51 2.108785 1_555
Mg3 O52 2.125783 1_555
Mg4 O26 1.970988 1_554
Mg4 O25 1.988087 1_554
Mg4 O24 2.059413 1_554
Mg4 O61 2.066509 1_555
Mg4 O60 2.104706 1_555
Mg4 O62 2.118461 1_555
Nb0 O8 1.926165 1_655
Nb0 O6 1.927906 1_555
Nb0 O7 1.934896 1_665
Nb0 O42 2.129255 1_565
Nb0 O44 2.129299 1_555
Nb0 O43 2.145708 1_665
Nb1 O10 1.976024 1_555
Nb1 O47 1.978943 1_555
Nb1 O11 2.005686 1_545
Nb1 O46 2.018670 1_455
Nb1 O45 2.044751 1_445
Nb1 O9 2.062737 1_445
Nb2 O20 1.974687 1_556
Nb2 O55 1.989078 1_555
Nb2 O56 2.010844 1_555
Nb2 O19 2.016289 1_556
Nb2 O54 2.040017 1_555
Nb2 O18 2.057909 1_556
Nb3 O22 1.971134 1_555
Nb3 O23 1.973076 1_555
Nb3 O21 1.981905 1_555
Nb3 O59 2.032433 1_555
Nb3 O57 2.036806 1_555
Nb3 O58 2.039277 1_555
Nb4 O29 1.974450 1_555
Nb4 O28 1.978205 1_555
Nb4 O63 1.982939 1_555
Nb4 O27 1.984005 1_555
Nb4 O65 1.990467 1_555
Nb4 O64 1.991160 1_555
Nb5 O67 1.960572 1_555
Nb5 O68 1.997242 1_555
Nb5 O31 1.999140 1_555
Nb5 O32 1.999814 1_555
Nb5 O66 2.007858 1_555
Nb5 O30 2.079107 1_555
Nb6 O34 1.981876 1_555
Nb6 O33 1.996609 1_555
Nb6 O70 2.021842 1_555
Nb6 O35 2.025332 1_555
Nb6 O71 2.031831 1_555
Nb6 O69 2.038668 1_555
O0 P0 1.494794 1_555
O1 P1 1.498893 1_555
O2 P2 1.487020 1_555
O3 P3 1.500735 1_555
O4 P4 1.485308 1_555
O5 P5 1.486156 1_555
O6 P5 1.635449 1_565
O7 P3 1.627101 1_555
O8 P4 1.630019 1_455
O9 P1 1.584008 1_555
O10 P2 1.593030 1_455
O11 P0 1.603331 1_565
O12 P6 1.483703 1_555
O13 P7 1.483989 1_555
O14 P8 1.483906 1_555
O15 P9 1.508840 1_555
O16 P10 1.484937 1_555
O17 P11 1.498105 1_555
O18 P11 1.586160 1_555
O19 P9 1.599695 1_555
O20 P10 1.592415 1_555
O21 P7 1.586000 1_555
O22 P8 1.585982 1_555
O23 P6 1.585980 1_555
O24 P12 1.509080 1_555
O25 P13 1.497646 1_555
O26 P14 1.485323 1_555
O27 P15 1.558340 1_555
O28 P16 1.558095 1_555
O29 P17 1.563618 1_555
O30 P17 1.562714 1_555
O31 P15 1.569619 1_555
O32 P16 1.568786 1_555
O33 P13 1.590328 1_555
O34 P14 1.589268 1_555
O35 P12 1.597284 1_555
O36 P17 1.494044 1_555
O37 P15 1.490810 1_555
O38 P16 1.490237 1_555
O39 P13 1.516275 1_555
O40 P14 1.518903 1_555
O41 P12 1.500312 1_555
O42 P6 1.550201 1_555
O43 P7 1.549739 1_555
O44 P8 1.549904 1_555
O45 P9 1.610511 1_555
O46 P10 1.608664 1_555
O47 P11 1.592706 1_555
O48 P5 1.500660 1_555
O49 P3 1.501147 1_555
O50 P4 1.501220 1_555
O51 P1 1.517695 1_555
O52 P2 1.515701 1_555
O53 P0 1.497066 1_555
O54 P12 1.613088 1_555
O55 P13 1.587330 1_655
O56 P14 1.611733 1_545
O57 P15 1.568727 1_545
O58 P16 1.568638 1_555
O59 P17 1.575222 1_655
O60 P11 1.519008 1_555
O61 P9 1.499510 1_455
O62 P10 1.517902 1_565
O63 P7 1.582929 1_565
O64 P8 1.579827 1_555
O65 P6 1.581554 1_455
O66 P0 1.623466 1_565
O67 P1 1.599550 1_555
O68 P2 1.616450 1_455
O69 P3 1.588191 1_555
O70 P4 1.592925 1_455
O71 P5 1.591942 1_565
