# generated using pymatgen
data_MgFe4As2O11
_symmetry_space_group_name_H-M   'P 1'
_cell_length_a   5.42202143
_cell_length_b   6.59555778
_cell_length_c   6.95310802
_cell_angle_alpha   109.39662790
_cell_angle_beta   105.15294049
_cell_angle_gamma   96.28267159
_symmetry_Int_Tables_number   1
_chemical_formula_structural   MgFe4As2O11
_chemical_formula_sum   'Mg1 Fe4 As2 O11'
_cell_volume   221.06282268
_cell_formula_units_Z   1
loop_
 _symmetry_equiv_pos_site_id
 _symmetry_equiv_pos_as_xyz
  1  'x, y, z'
loop_
 _atom_site_type_symbol
 _atom_site_label
 _atom_site_symmetry_multiplicity
 _atom_site_fract_x
 _atom_site_fract_y
 _atom_site_fract_z
 _atom_site_occupancy
  Mg  Mg0  1  0.36391200  0.16861200  0.06647800  1
  Fe  Fe0  1  0.08718000  0.74133900  0.04755400  1
  Fe  Fe1  1  0.86991700  0.24090100  0.93937500  1
  Fe  Fe2  1  0.66826700  0.64811700  0.25584600  1
  Fe  Fe3  1  0.35513000  0.39370300  0.75596300  1
  As  As0  1  0.33150300  0.80792900  0.59410500  1
  As  As1  1  0.69461100  0.18868900  0.41901700  1
  O  O0  1  0.71930700  0.50588500  0.95279100  1
  O  O1  1  0.24037900  0.44029800  0.02623400  1
  O  O2  1  0.00948100  0.01507400  0.99777600  1
  O  O3  1  0.94563900  0.20932600  0.63738000  1
  O  O4  1  0.08299900  0.79513300  0.37699500  1
  O  O5  1  0.43097200  0.28543000  0.48143100  1
  O  O6  1  0.22930700  0.65846500  0.73393600  1
  O  O7  1  0.75365300  0.32758400  0.25442300  1
  O  O8  1  0.44939700  0.08476600  0.78859400  1
  O  O9  1  0.54015900  0.93469700  0.21307200  1
  O  O10  1  0.60318600  0.74155400  0.53903000  1
loop_
_geom_bond_atom_site_label_1
_geom_bond_atom_site_label_2
_geom_bond_distance
_geom_bond_site_symmetry_2
Mg0 O2 1.928621 1_554
Mg0 O8 2.017044 1_554
Mg0 O1 2.058073 1_555
Mg0 O7 2.105685 1_555
Mg0 O9 2.278231 1_545
Fe0 O2 2.015482 1_564
Fe0 O0 2.186234 1_454
Fe0 O4 2.205111 1_555
Fe0 O1 2.210009 1_555
Fe0 O6 2.413863 1_554
Fe0 O9 2.417643 1_555
Fe1 O2 1.855738 1_655
Fe1 O0 1.993483 1_555
Fe1 O1 2.095012 1_656
Fe1 O3 2.190907 1_555
Fe1 O8 2.208535 1_555
Fe1 O7 2.343453 1_556
Fe2 O10 1.996536 1_555
Fe2 O0 2.108437 1_554
Fe2 O4 2.167107 1_655
Fe2 O9 2.167108 1_555
Fe2 O7 2.210553 1_555
Fe2 O1 2.392533 1_555
Fe3 O5 1.972815 1_555
Fe3 O0 1.978451 1_555
Fe3 O6 1.980412 1_555
Fe3 O1 2.069432 1_556
Fe3 O3 2.207775 1_455
Fe3 O8 2.222378 1_555
As0 O10 1.683132 1_555
As0 O4 1.711308 1_555
As0 O6 1.738630 1_555
As0 O8 1.795497 1_565
As1 O3 1.708251 1_555
As1 O5 1.725924 1_555
As1 O9 1.740937 1_545
As1 O7 1.753613 1_555
