# generated using pymatgen
data_Ba2YbMgNbO6
_symmetry_space_group_name_H-M   'P 1'
_cell_length_a   5.89757480
_cell_length_b   5.89757439
_cell_length_c   6.63486255
_cell_angle_alpha   63.60329137
_cell_angle_beta   63.60329436
_cell_angle_gamma   59.99005603
_symmetry_Int_Tables_number   1
_chemical_formula_structural   Ba2YbMgNbO6
_chemical_formula_sum   'Ba2 Yb1 Mg1 Nb1 O6'
_cell_volume   171.49379805
_cell_formula_units_Z   1
loop_
 _symmetry_equiv_pos_site_id
 _symmetry_equiv_pos_as_xyz
  1  'x, y, z'
loop_
 _atom_site_type_symbol
 _atom_site_label
 _atom_site_symmetry_multiplicity
 _atom_site_fract_x
 _atom_site_fract_y
 _atom_site_fract_z
 _atom_site_occupancy
  Ba  Ba0  1  0.69904753  0.69904753  0.90435411  1
  Ba  Ba1  1  0.25587645  0.25587645  0.23411921  1
  Yb  Yb0  1  0.49528532  0.49528532  0.51524726  1
  Mg  Mg0  1  0.86629451  0.86629451  0.40145457  1
  Nb  Nb0  1  0.02210096  0.02210096  0.93476465  1
  O  O0  1  0.24816699  0.75989741  0.74445897  1
  O  O1  1  0.24645245  0.76694658  0.22110159  1
  O  O2  1  0.75989741  0.24816699  0.74445897  1
  O  O3  1  0.24832999  0.24832999  0.74307291  1
  O  O4  1  0.76694658  0.24645245  0.22110159  1
  O  O5  1  0.76660180  0.76660180  0.22128316  1
loop_
_geom_bond_atom_site_label_1
_geom_bond_atom_site_label_2
_geom_bond_distance
_geom_bond_site_symmetry_2
Ba0 O5 2.527397 1_556
Ba0 O4 2.528427 1_556
Ba0 O1 2.528427 1_556
Ba0 Mg0 2.863493 1_555
Ba0 O2 3.084010 1_565
Ba0 O0 3.084010 1_655
Ba0 O3 3.088392 1_565
Ba0 O3 3.088392 1_655
Ba0 O2 3.088745 1_555
Ba0 O0 3.088745 1_555
Ba1 O1 2.949647 1_555
Ba1 O4 2.949647 1_555
Ba1 O5 2.949985 1_455
Ba1 O5 2.949985 1_545
Ba1 O1 2.951465 1_545
Ba1 O4 2.951465 1_455
Ba1 O0 3.286647 1_554
Ba1 O2 3.286647 1_554
Ba1 O3 3.298261 1_554
Ba1 O3 3.337920 1_555
Ba1 O0 3.348556 1_545
Ba1 O2 3.348556 1_455
Mg0 O5 1.927702 1_555
Mg0 O4 1.930208 1_565
Mg0 O1 1.930208 1_655
Nb0 O2 1.984955 1_455
Nb0 O0 1.984955 1_545
Nb0 O3 1.985135 1_555
Nb0 O1 2.307776 1_546
Nb0 O4 2.307776 1_456
Nb0 O5 2.309127 1_446
O0 Yb0 2.176382 1_555
O1 Yb0 2.437982 1_555
O2 Yb0 2.176382 1_555
O3 Yb0 2.175800 1_555
O4 Yb0 2.437982 1_555
O5 Yb0 2.436384 1_555
