# generated using pymatgen
data_LiCoPO4
_symmetry_space_group_name_H-M   'P 1'
_cell_length_a   8.58993771
_cell_length_b   8.58993771
_cell_length_c   8.58993846
_cell_angle_alpha   107.85234099
_cell_angle_beta   107.85234099
_cell_angle_gamma   107.85234577
_symmetry_Int_Tables_number   1
_chemical_formula_structural   LiCoPO4
_chemical_formula_sum   'Li6 Co6 P6 O24'
_cell_volume   515.09060867
_cell_formula_units_Z   6
loop_
 _symmetry_equiv_pos_site_id
 _symmetry_equiv_pos_as_xyz
  1  'x, y, z'
loop_
 _atom_site_type_symbol
 _atom_site_label
 _atom_site_symmetry_multiplicity
 _atom_site_fract_x
 _atom_site_fract_y
 _atom_site_fract_z
 _atom_site_occupancy
  Li  Li0  1  0.78810800  0.57045100  0.39101600  1
  Li  Li1  1  0.39101600  0.78810800  0.57045100  1
  Li  Li2  1  0.10789200  0.27800300  0.87425000  1
  Li  Li3  1  0.57045100  0.39101600  0.78810800  1
  Li  Li4  1  0.27800300  0.87425000  0.10789200  1
  Li  Li5  1  0.87425000  0.10789200  0.27800300  1
  Co  Co0  1  0.46508400  0.23066300  0.05462500  1
  Co  Co1  1  0.94864700  0.54375100  0.76499900  1
  Co  Co2  1  0.23066300  0.05462500  0.46508400  1
  Co  Co3  1  0.54375100  0.76499900  0.94864700  1
  Co  Co4  1  0.05462500  0.46508400  0.23066300  1
  Co  Co5  1  0.76499900  0.94864700  0.54375100  1
  P  P0  1  0.12521700  0.90400800  0.71873900  1
  P  P1  1  0.90400800  0.71873900  0.12521700  1
  P  P2  1  0.71873900  0.12521700  0.90400800  1
  P  P3  1  0.43127500  0.61380100  0.20845000  1
  P  P4  1  0.61380100  0.20845000  0.43127500  1
  P  P5  1  0.20845000  0.43127500  0.61380100  1
  O  O0  1  0.09948000  0.41697200  0.72811300  1
  O  O1  1  0.63112500  0.69128200  0.35289300  1
  O  O2  1  0.72811300  0.09948000  0.41697200  1
  O  O3  1  0.64580200  0.97965500  0.70640400  1
  O  O4  1  0.69128200  0.35289300  0.63112500  1
  O  O5  1  0.69819700  0.02639500  0.02653700  1
  O  O6  1  0.97965500  0.70640400  0.64580200  1
  O  O7  1  0.90948300  0.60420500  0.23482400  1
  O  O8  1  0.41697200  0.72811300  0.09948000  1
  O  O9  1  0.02653700  0.69819700  0.02639500  1
  O  O10  1  0.62970400  0.31001000  0.31075900  1
  O  O11  1  0.31075900  0.62970400  0.31001000  1
  O  O12  1  0.70640400  0.64580200  0.97965500  1
  O  O13  1  0.25808800  0.97823500  0.92339700  1
  O  O14  1  0.07520300  0.36115600  0.41068700  1
  O  O15  1  0.02639500  0.02653700  0.69819700  1
  O  O16  1  0.60420500  0.23482400  0.90948300  1
  O  O17  1  0.35289300  0.63112500  0.69128200  1
  O  O18  1  0.31001000  0.31075900  0.62970400  1
  O  O19  1  0.41068700  0.07520300  0.36115600  1
  O  O20  1  0.97823500  0.92339700  0.25808800  1
  O  O21  1  0.23482400  0.90948300  0.60420500  1
  O  O22  1  0.92339700  0.25808800  0.97823500  1
  O  O23  1  0.36115600  0.41068700  0.07520300  1
loop_
_geom_bond_atom_site_label_1
_geom_bond_atom_site_label_2
_geom_bond_distance
_geom_bond_site_symmetry_2
Li0 O1 1.949031 1_555
Li0 O7 1.970288 1_555
Li0 O6 1.976835 1_555
Li0 O10 1.986067 1_555
Li1 O17 1.949031 1_555
Li1 O21 1.970288 1_555
Li1 O3 1.976835 1_555
Li1 O11 1.986067 1_555
Li2 O15 1.965672 1_555
Li2 O0 1.980422 1_555
Li2 O23 1.995629 1_556
Li2 O22 2.033250 1_455
Li3 O4 1.949031 1_555
Li3 O16 1.970288 1_555
Li3 O12 1.976835 1_555
Li3 O18 1.986067 1_555
Li4 O9 1.965672 1_555
Li4 O8 1.980422 1_555
Li4 O19 1.995629 1_565
Li4 O13 2.033250 1_554
Li5 O5 1.965672 1_555
Li5 O2 1.980422 1_555
Li5 O14 1.995629 1_655
Li5 O20 2.033250 1_545
Co0 O10 1.971538 1_555
Co0 O16 1.974453 1_554
Co0 O23 1.998788 1_555
Co0 O13 2.010593 1_544
Co1 O0 1.967314 1_655
Co1 O6 1.971694 1_555
Co1 O9 1.989383 1_656
Co1 O4 1.990153 1_555
Co2 O18 1.971538 1_555
Co2 O21 1.974453 1_545
Co2 O19 1.998788 1_555
Co2 O20 2.010593 1_445
Co3 O8 1.967314 1_556
Co3 O12 1.971694 1_555
Co3 O5 1.989383 1_566
Co3 O17 1.990154 1_555
Co4 O11 1.971538 1_555
Co4 O7 1.974453 1_455
Co4 O14 1.998788 1_555
Co4 O22 2.010593 1_454
Co5 O2 1.967314 1_565
Co5 O3 1.971694 1_555
Co5 O15 1.989383 1_665
Co5 O1 1.990154 1_555
O0 P5 1.556430 1_555
O1 P3 1.554564 1_555
O2 P4 1.556430 1_555
O3 P2 1.550318 1_565
O4 P4 1.554565 1_555
O5 P2 1.558638 1_554
O6 P0 1.550317 1_655
O7 P1 1.557489 1_555
O8 P3 1.556430 1_555
O9 P1 1.558638 1_455
O10 P4 1.555247 1_555
O11 P3 1.555247 1_555
O12 P1 1.550317 1_556
O13 P0 1.560797 1_555
O14 P5 1.557409 1_555
O15 P0 1.558638 1_545
O16 P2 1.557489 1_555
O17 P5 1.554564 1_555
O18 P5 1.555247 1_555
O19 P4 1.557409 1_555
O20 P1 1.560797 1_555
O21 P0 1.557489 1_555
O22 P2 1.560797 1_555
O23 P3 1.557409 1_555
