# generated using pymatgen
data_Na6CaHf3Si2(PO6)4
_symmetry_space_group_name_H-M   'P 1'
_cell_length_a   15.93738283
_cell_length_b   9.13668585
_cell_length_c   9.19180931
_cell_angle_alpha   90.37076825
_cell_angle_beta   125.06433452
_cell_angle_gamma   89.88591127
_symmetry_Int_Tables_number   1
_chemical_formula_structural   Na6CaHf3Si2(PO6)4
_chemical_formula_sum   'Na12 Ca2 Hf6 Si4 P8 O48'
_cell_volume   1095.51745425
_cell_formula_units_Z   2
loop_
 _symmetry_equiv_pos_site_id
 _symmetry_equiv_pos_as_xyz
  1  'x, y, z'
loop_
 _atom_site_type_symbol
 _atom_site_label
 _atom_site_symmetry_multiplicity
 _atom_site_fract_x
 _atom_site_fract_y
 _atom_site_fract_z
 _atom_site_occupancy
  Na  Na0  1  0.25161287  0.74568555  0.00143080  1
  Na  Na1  1  0.74828804  0.74582414  0.48804609  1
  Na  Na2  1  0.75161287  0.24568555  0.00143080  1
  Na  Na3  1  0.24828804  0.24582414  0.48804609  1
  Na  Na4  1  0.51153743  0.09332863  0.76681718  1
  Na  Na5  1  0.49825512  0.88998667  0.23631774  1
  Na  Na6  1  0.01153743  0.59332863  0.76681718  1
  Na  Na7  1  0.99825512  0.38998667  0.23631774  1
  Na  Na8  1  0.79919883  0.92435991  0.21406939  1
  Na  Na9  1  0.18234734  0.07842697  0.80093940  1
  Na  Na10  1  0.29919883  0.42435991  0.21406939  1
  Na  Na11  1  0.68234734  0.57842697  0.80093940  1
  Ca  Ca0  1  0.10098847  0.24149488  0.05989155  1
  Ca  Ca1  1  0.60098847  0.74149488  0.05989155  1
  Hf  Hf0  1  0.10505123  0.74691596  0.55508470  1
  Hf  Hf1  1  0.89538063  0.75564280  0.93773247  1
  Hf  Hf2  1  0.89677006  0.25323536  0.44514954  1
  Hf  Hf3  1  0.60505123  0.24691596  0.55508470  1
  Hf  Hf4  1  0.39538063  0.25564280  0.93773247  1
  Hf  Hf5  1  0.39677006  0.75323536  0.44514954  1
  Si  Si0  1  0.65238482  0.89988976  0.74970276  1
  Si  Si1  1  0.35675122  0.09610274  0.25266533  1
  Si  Si2  1  0.15238482  0.39988976  0.74970276  1
  Si  Si3  1  0.85675122  0.59610274  0.25266533  1
  P  P0  1  0.99492313  0.94772176  0.73759041  1
  P  P1  1  0.99673018  0.04377809  0.26026205  1
  P  P2  1  0.49492313  0.44772176  0.73759041  1
  P  P3  1  0.49673018  0.54377809  0.26026205  1
  P  P4  1  0.35278926  0.90351663  0.76028633  1
  P  P5  1  0.64697196  0.11560275  0.24294061  1
  P  P6  1  0.85278926  0.40351663  0.76028633  1
  P  P7  1  0.14697196  0.61560275  0.24294061  1
  O  O0  1  0.16066983  0.57746952  0.72851541  1
  O  O1  1  0.85455100  0.57477670  0.75333475  1
  O  O2  1  0.85269298  0.41439027  0.25819338  1
  O  O3  1  0.15393990  0.44843688  0.25990765  1
  O  O4  1  0.66066983  0.07746952  0.72851541  1
  O  O5  1  0.35455100  0.07477670  0.75333475  1
  O  O6  1  0.35269298  0.91439027  0.25819338  1
  O  O7  1  0.65393990  0.94843688  0.25990765  1
  O  O8  1  0.42908956  0.54447631  0.56888163  1
  O  O9  1  0.56765467  0.54047992  0.90136387  1
  O  O10  1  0.55392293  0.44733410  0.42619451  1
  O  O11  1  0.44135117  0.43951345  0.09336612  1
  O  O12  1  0.92908956  0.04447631  0.56888163  1
  O  O13  1  0.06765467  0.04047992  0.90136387  1
  O  O14  1  0.05392293  0.94733410  0.42619451  1
  O  O15  1  0.94135117  0.93951345  0.09336612  1
  O  O16  1  0.24941669  0.85813092  0.72814343  1
  O  O17  1  0.74545087  0.81221344  0.75681463  1
  O  O18  1  0.74066538  0.17587702  0.24972233  1
  O  O19  1  0.27232203  0.18202027  0.26300180  1
  O  O20  1  0.74941669  0.35813092  0.72814343  1
  O  O21  1  0.24545087  0.31221344  0.75681463  1
  O  O22  1  0.24066538  0.67587702  0.24972233  1
  O  O23  1  0.77232203  0.68202027  0.26300180  1
  O  O24  1  0.36235175  0.84855726  0.60783921  1
  O  O25  1  0.65555164  0.87976783  0.92701574  1
  O  O26  1  0.64842638  0.18110430  0.39906913  1
  O  O27  1  0.35429464  0.13631499  0.07234037  1
  O  O28  1  0.86235175  0.34855726  0.60783921  1
  O  O29  1  0.15555164  0.37976783  0.92701574  1
  O  O30  1  0.14842638  0.68110430  0.39906913  1
  O  O31  1  0.85429464  0.63631499  0.07234037  1
  O  O32  1  0.44158130  0.84806694  0.94025378  1
  O  O33  1  0.54177722  0.82703933  0.57937829  1
  O  O34  1  0.54631010  0.16609238  0.06672783  1
  O  O35  1  0.47217526  0.14445452  0.41868588  1
  O  O36  1  0.94158130  0.34806694  0.94025378  1
  O  O37  1  0.04177722  0.32703933  0.57937829  1
  O  O38  1  0.04631010  0.66609238  0.06672783  1
  O  O39  1  0.97217526  0.64445452  0.41868588  1
  O  O40  1  0.06700209  0.84272578  0.71971419  1
  O  O41  1  0.92289908  0.84735264  0.75505193  1
  O  O42  1  0.90806411  0.12664765  0.25488448  1
  O  O43  1  0.06785883  0.15524499  0.26267332  1
  O  O44  1  0.56700209  0.34272578  0.71971419  1
  O  O45  1  0.42289908  0.34735264  0.75505193  1
  O  O46  1  0.40806411  0.62664765  0.25488448  1
  O  O47  1  0.56785883  0.65524499  0.26267332  1
loop_
_geom_bond_atom_site_label_1
_geom_bond_atom_site_label_2
_geom_bond_distance
_geom_bond_site_symmetry_2
Na0 O22 2.474412 1_555
Na0 O6 2.476999 1_555
Na0 O46 2.484983 1_555
Na0 O0 2.556803 1_554
Na0 O16 2.701691 1_554
Na0 O40 2.722779 1_554
Na1 O23 2.378952 1_555
Na1 O47 2.527456 1_555
Na1 O7 2.549819 1_555
Na1 O1 2.559390 1_555
Na1 O17 2.565550 1_555
Na1 O41 2.600295 1_555
Na2 O18 2.474412 1_555
Na2 O2 2.476999 1_555
Na2 O42 2.484983 1_555
Na2 O4 2.556803 1_554
Na2 O20 2.701691 1_554
Na2 O44 2.722779 1_554
Na3 O19 2.378952 1_555
Na3 O43 2.527456 1_555
Na3 O3 2.549819 1_555
Na3 O5 2.559390 1_555
Na3 O21 2.565550 1_555
Na3 O45 2.600295 1_555
Na4 O5 2.439060 1_555
Na4 O34 2.563399 1_556
Na4 O44 2.573263 1_555
Na4 O4 2.598739 1_555
Na4 O45 2.684906 1_555
Na4 O25 2.716558 1_545
Na4 O35 2.926282 1_555
Na4 O24 2.962564 1_545
Na5 O32 2.352017 1_554
Na5 O47 2.361718 1_555
Na5 O7 2.423679 1_555
Na5 O6 2.450576 1_555
Na5 O46 2.860992 1_555
Na6 O1 2.439060 1_455
Na6 O38 2.563399 1_556
Na6 O40 2.573263 1_555
Na6 O0 2.598739 1_555
Na6 O41 2.684906 1_455
Na6 O29 2.716558 1_555
Na6 O39 2.926282 1_455
Na6 O28 2.962564 1_455
Na7 O36 2.352017 1_554
Na7 O43 2.361718 1_655
Na7 O3 2.423679 1_655
Na7 O2 2.450576 1_555
Na7 O42 2.860992 1_555
Na8 O25 2.327725 1_554
Na8 O23 2.350832 1_555
Na8 O42 2.413080 1_565
Na8 O18 2.567407 1_565
Na8 O7 2.588991 1_555
Na8 O12 2.886475 1_565
Na9 O27 2.479236 1_556
Na9 O21 2.495401 1_555
Na9 O13 2.501774 1_555
Na9 O16 2.537197 1_545
Na9 O40 2.644321 1_545
Na10 O29 2.327725 1_554
Na10 O19 2.350832 1_555
Na10 O46 2.413080 1_555
Na10 O22 2.567407 1_555
Na10 O3 2.588991 1_555
Na10 O8 2.886475 1_555
Na11 O31 2.479236 1_556
Na11 O17 2.495401 1_555
Na11 O9 2.501774 1_555
Na11 O20 2.537197 1_555
Na11 O44 2.644321 1_555
Ca0 O13 2.204193 1_554
Ca0 O29 2.255813 1_554
Ca0 O19 2.320943 1_555
Ca0 O36 2.325017 1_454
Ca0 O43 2.350634 1_555
Ca0 O3 2.417841 1_555
Ca1 O9 2.204193 1_554
Ca1 O25 2.255813 1_554
Ca1 O23 2.320943 1_555
Ca1 O32 2.325017 1_554
Ca1 O47 2.350634 1_555
Ca1 O7 2.417841 1_555
Hf0 O39 1.968496 1_455
Hf0 O30 2.005547 1_555
Hf0 O0 2.031440 1_555
Hf0 O14 2.081738 1_555
Hf0 O40 2.111640 1_555
Hf0 O16 2.154017 1_555
Hf1 O31 2.024726 1_556
Hf1 O15 2.043306 1_556
Hf1 O17 2.045187 1_555
Hf1 O41 2.140067 1_555
Hf1 O38 2.142206 1_656
Hf1 O1 2.174366 1_555
Hf2 O37 2.009256 1_655
Hf2 O28 2.054121 1_555
Hf2 O2 2.063059 1_555
Hf2 O12 2.132585 1_555
Hf2 O42 2.182516 1_555
Hf2 O18 2.184408 1_555
Hf3 O35 1.968496 1_555
Hf3 O26 2.005547 1_555
Hf3 O4 2.031440 1_555
Hf3 O10 2.081738 1_555
Hf3 O44 2.111640 1_555
Hf3 O20 2.154017 1_555
Hf4 O27 2.024726 1_556
Hf4 O11 2.043306 1_556
Hf4 O21 2.045187 1_555
Hf4 O45 2.140067 1_555
Hf4 O34 2.142206 1_556
Hf4 O5 2.174366 1_555
Hf5 O33 2.009256 1_555
Hf5 O24 2.054121 1_555
Hf5 O6 2.063059 1_555
Hf5 O8 2.132585 1_555
Hf5 O46 2.182516 1_555
Hf5 O22 2.184408 1_555
O0 Si2 1.649948 1_555
O1 P6 1.567432 1_555
O2 Si3 1.663878 1_555
O3 P7 1.533602 1_555
O4 Si0 1.649948 1_545
O5 P4 1.567432 1_545
O6 Si1 1.663878 1_565
O7 P5 1.533602 1_565
O8 P2 1.559391 1_555
O9 P2 1.520034 1_555
O10 P3 1.533110 1_555
O11 P3 1.571181 1_555
O12 P0 1.559391 1_545
O13 P0 1.520034 1_445
O14 P1 1.533110 1_465
O15 P1 1.571181 1_565
O16 P4 1.554131 1_555
O17 Si0 1.652421 1_555
O18 P5 1.559735 1_555
O19 Si1 1.605479 1_555
O20 P6 1.554131 1_555
O21 Si2 1.652421 1_555
O22 P7 1.559735 1_555
O23 Si3 1.605479 1_555
O24 P4 1.573175 1_555
O25 Si0 1.613075 1_555
O26 P5 1.539136 1_555
O27 Si1 1.678431 1_555
O28 P6 1.573175 1_555
O29 Si2 1.613075 1_555
O30 P7 1.539136 1_555
O31 Si3 1.678431 1_555
O32 P4 1.521176 1_555
O33 Si0 1.679804 1_555
O34 P5 1.559198 1_555
O35 Si1 1.636136 1_555
O36 P6 1.521176 1_555
O37 Si2 1.679804 1_555
O38 P7 1.559198 1_555
O39 Si3 1.636136 1_555
O40 P0 1.573964 1_455
O41 P0 1.549880 1_555
O42 P1 1.577516 1_555
O43 P1 1.515983 1_455
O44 P2 1.573964 1_555
O45 P2 1.549880 1_555
O46 P3 1.577516 1_555
O47 P3 1.515983 1_555
