# generated using pymatgen
data_MgTi8(NiO3)8
_symmetry_space_group_name_H-M   'P 1'
_cell_length_a   5.60620171
_cell_length_b   11.20497858
_cell_length_c   11.15406998
_cell_angle_alpha   53.92381534
_cell_angle_beta   53.79577510
_cell_angle_gamma   53.82007990
_symmetry_Int_Tables_number   1
_chemical_formula_structural   MgTi8(NiO3)8
_chemical_formula_sum   'Mg1 Ti8 Ni8 O24'
_cell_volume   424.19635159
_cell_formula_units_Z   1
loop_
 _symmetry_equiv_pos_site_id
 _symmetry_equiv_pos_as_xyz
  1  'x, y, z'
loop_
 _atom_site_type_symbol
 _atom_site_label
 _atom_site_symmetry_multiplicity
 _atom_site_fract_x
 _atom_site_fract_y
 _atom_site_fract_z
 _atom_site_occupancy
  Mg  Mg0  1  0.00603200  0.99770500  0.00209900  1
  Ti  Ti0  1  0.34889400  0.17770900  0.18486000  1
  Ti  Ti1  1  0.12993900  0.07320200  0.58578800  1
  Ti  Ti2  1  0.14442200  0.58152500  0.06537900  1
  Ti  Ti3  1  0.13745400  0.56933000  0.57260800  1
  Ti  Ti4  1  0.85596600  0.42755600  0.42801700  1
  Ti  Ti5  1  0.85620100  0.42238800  0.93090200  1
  Ti  Ti6  1  0.87047200  0.92573400  0.41759000  1
  Ti  Ti7  1  0.81540400  0.91910500  0.90628300  1
  Ni  Ni0  1  0.17363100  0.08352700  0.08450600  1
  Ni  Ni1  1  0.34478900  0.67026800  0.17928800  1
  Ni  Ni2  1  0.35349500  0.17762100  0.66649000  1
  Ni  Ni3  1  0.64568000  0.32630500  0.32722600  1
  Ni  Ni4  1  0.35098700  0.66979900  0.67221000  1
  Ni  Ni5  1  0.64787300  0.33015400  0.82219600  1
  Ni  Ni6  1  0.65049300  0.82158900  0.32731700  1
  Ni  Ni7  1  0.64383000  0.81393000  0.81552000  1
  O  O0  1  0.07074100  0.37831800  0.21622200  1
  O  O1  1  0.43540400  0.03716400  0.37499700  1
  O  O2  1  0.75036900  0.21456500  0.03271500  1
  O  O3  1  0.22961300  0.28286200  0.47223600  1
  O  O4  1  0.56087100  0.47105600  0.11492100  1
  O  O5  1  0.05480300  0.38092200  0.71958800  1
  O  O6  1  0.05193100  0.88351300  0.21774700  1
  O  O7  1  0.95869000  0.11550400  0.29108000  1
  O  O8  1  0.42138100  0.02678800  0.87770300  1
  O  O9  1  0.44102800  0.52327400  0.38503700  1
  O  O10  1  0.77107700  0.21962400  0.52653800  1
  O  O11  1  0.75333300  0.71312200  0.02754400  1
  O  O12  1  0.23024700  0.28982300  0.97746800  1
  O  O13  1  0.22825200  0.77938100  0.47081900  1
  O  O14  1  0.56305200  0.47239700  0.61384900  1
  O  O15  1  0.58371700  0.97743700  0.11415600  1
  O  O16  1  0.05895900  0.87331000  0.71298400  1
  O  O17  1  0.94040400  0.11103400  0.78784200  1
  O  O18  1  0.94180000  0.61453600  0.28085100  1
  O  O19  1  0.44105200  0.52855800  0.88269300  1
  O  O20  1  0.77023100  0.71696800  0.52517000  1
  O  O21  1  0.20920900  0.78807800  0.97154100  1
  O  O22  1  0.56043200  0.96989700  0.60965700  1
  O  O23  1  0.95025000  0.60871300  0.77861300  1
loop_
_geom_bond_atom_site_label_1
_geom_bond_atom_site_label_2
_geom_bond_distance
_geom_bond_site_symmetry_2
Mg0 O8 2.000022 1_564
Mg0 O15 2.005978 1_455
Mg0 O6 2.051071 1_555
Mg0 O21 2.063065 1_554
Mg0 O2 2.088671 1_465
Mg0 O17 2.090993 1_464
Ni0 O15 2.004134 1_545
Ni0 O12 2.009405 1_554
Ni0 O7 2.017937 1_455
Ni0 O6 2.093263 1_545
Ni0 O8 2.134000 1_554
Ni0 O2 2.151075 1_455
Ni1 O11 2.025565 1_555
Ni1 O9 2.057310 1_555
Ni1 O6 2.081431 1_555
Ni1 O18 2.141624 1_455
Ni1 O4 2.152432 1_555
Ni1 O21 2.232349 1_554
Ni2 O8 2.040082 1_555
Ni2 O10 2.063321 1_555
Ni2 O5 2.063428 1_555
Ni2 O3 2.090265 1_555
Ni2 O22 2.201382 1_545
Ni2 O17 2.213506 1_455
Ni3 O7 2.052598 1_555
Ni3 O3 2.061621 1_555
Ni3 O4 2.088211 1_555
Ni3 O9 2.101344 1_555
Ni3 O10 2.142390 1_555
Ni3 O0 2.203546 1_655
Ni4 O16 2.005294 1_555
Ni4 O19 2.086273 1_555
Ni4 O20 2.094135 1_555
Ni4 O14 2.099147 1_555
Ni4 O13 2.146429 1_555
Ni4 O23 2.152509 1_455
Ni5 O14 2.053158 1_555
Ni5 O12 2.054904 1_555
Ni5 O17 2.115722 1_555
Ni5 O5 2.125779 1_655
Ni5 O19 2.130991 1_555
Ni5 O2 2.157536 1_556
Ni6 O15 2.057294 1_555
Ni6 O18 2.064248 1_555
Ni6 O13 2.084080 1_555
Ni6 O20 2.114057 1_555
Ni6 O6 2.153072 1_655
Ni6 O1 2.210897 1_565
Ni7 O23 2.005915 1_555
Ni7 O22 2.030476 1_555
Ni7 O21 2.068757 1_555
Ni7 O16 2.225909 1_655
Ni7 O11 2.235169 1_556
Ni7 O8 2.267068 1_565
O0 Ti0 1.936487 1_555
O0 Ti2 1.990853 1_555
O0 Ti4 2.173802 1_455
O1 Ti0 1.895511 1_555
O1 Ti1 2.041804 1_555
O1 Ti6 2.192838 1_545
O2 Ti0 1.968797 1_555
O2 Ti5 2.187482 1_554
O3 Ti4 1.878522 1_455
O3 Ti1 2.155197 1_555
O4 Ti5 1.867966 1_554
O4 Ti2 2.143573 1_555
O5 Ti3 1.881652 1_555
O5 Ti5 2.142397 1_455
O6 Ti6 2.054839 1_455
O7 Ti6 1.908047 1_545
O7 Ti0 2.107325 1_655
O8 Ti7 1.915493 1_545
O9 Ti3 1.888991 1_555
O9 Ti4 2.134878 1_555
O10 Ti1 1.890172 1_655
O10 Ti4 2.130339 1_555
O11 Ti2 1.924247 1_655
O11 Ti7 1.998302 1_554
O12 Ti5 1.890505 1_455
O12 Ti0 2.186425 1_556
O13 Ti6 1.855157 1_455
O13 Ti3 2.161555 1_555
O14 Ti4 1.864646 1_555
O14 Ti3 2.175489 1_555
O15 Ti7 2.171429 1_554
O15 Ti0 2.181897 1_565
O16 Ti7 1.942759 1_455
O16 Ti1 1.957229 1_565
O17 Ti1 2.037745 1_655
O17 Ti7 2.049611 1_545
O18 Ti4 1.876805 1_555
O18 Ti2 2.128193 1_655
O19 Ti2 1.877724 1_556
O19 Ti5 2.139473 1_555
O20 Ti3 1.868155 1_655
O20 Ti6 2.162698 1_555
O21 Ti2 2.067464 1_556
O21 Ti7 2.091038 1_455
O22 Ti6 1.920869 1_555
O22 Ti1 2.081644 1_565
O23 Ti5 1.893976 1_555
O23 Ti3 2.091558 1_655
