# generated using pymatgen
data_Na2Hf2Zn2SiS5O24
_symmetry_space_group_name_H-M   'P 1'
_cell_length_a   8.80256142
_cell_length_b   8.80810238
_cell_length_c   23.02980644
_cell_angle_alpha   89.92767845
_cell_angle_beta   89.94757906
_cell_angle_gamma   119.83029548
_symmetry_Int_Tables_number   1
_chemical_formula_structural   Na2Hf2Zn2SiS5O24
_chemical_formula_sum   'Na6 Hf6 Zn6 Si3 S15 O72'
_cell_volume   1549.00006125
_cell_formula_units_Z   3
loop_
 _symmetry_equiv_pos_site_id
 _symmetry_equiv_pos_as_xyz
  1  'x, y, z'
loop_
 _atom_site_type_symbol
 _atom_site_label
 _atom_site_symmetry_multiplicity
 _atom_site_fract_x
 _atom_site_fract_y
 _atom_site_fract_z
 _atom_site_occupancy
  Na  Na0  1  0.00232052  0.00113829  0.49706955  1
  Na  Na1  1  0.99857751  0.99409437  0.99626900  1
  Na  Na2  1  0.66820995  0.32367740  0.82438508  1
  Na  Na3  1  0.65697907  0.32616344  0.33874403  1
  Na  Na4  1  0.32310230  0.67095781  0.16334448  1
  Na  Na5  1  0.33891883  0.67201902  0.66201386  1
  Hf  Hf0  1  0.98871105  0.99668548  0.64699055  1
  Hf  Hf1  1  0.00736505  0.98853152  0.14723663  1
  Hf  Hf2  1  0.67048480  0.33390345  0.18698025  1
  Hf  Hf3  1  0.67561066  0.34409189  0.97938009  1
  Hf  Hf4  1  0.33148777  0.67454621  0.31683479  1
  Hf  Hf5  1  0.34089206  0.67406333  0.80999691  1
  Zn  Zn0  1  0.01497717  0.00517974  0.35291942  1
  Zn  Zn1  1  0.99329974  0.00283417  0.84531467  1
  Zn  Zn2  1  0.66657401  0.31846331  0.68372319  1
  Zn  Zn3  1  0.66402579  0.33267978  0.48511228  1
  Zn  Zn4  1  0.31887947  0.66579466  0.01804258  1
  Zn  Zn5  1  0.33389827  0.66645113  0.51788874  1
  Si  Si0  1  0.29192756  0.00100403  0.25339068  1
  Si  Si1  1  0.71395005  0.01283813  0.75197847  1
  Si  Si2  1  0.96765725  0.62610418  0.08303868  1
  S  S0  1  0.70954808  0.71072893  0.25167064  1
  S  S1  1  0.00131528  0.28822413  0.25135710  1
  S  S2  1  0.29189792  0.28796248  0.75105879  1
  S  S3  1  0.99551763  0.70809229  0.75115618  1
  S  S4  1  0.96016038  0.33888232  0.58240206  1
  S  S5  1  0.37678850  0.04038073  0.58246925  1
  S  S6  1  0.66282171  0.61868413  0.58343426  1
  S  S7  1  0.66514757  0.04086963  0.08279425  1
  S  S8  1  0.37723540  0.33724833  0.08283465  1
  S  S9  1  0.62279725  0.67044886  0.91864769  1
  S  S10  1  0.04628353  0.37275215  0.91759693  1
  S  S11  1  0.32859252  0.95697548  0.91712158  1
  S  S12  1  0.63010021  0.96110790  0.41820417  1
  S  S13  1  0.33359405  0.37470574  0.41834341  1
  S  S14  1  0.03713966  0.66508831  0.41926527  1
  O  O0  1  0.20722340  0.03600022  0.30814436  1
  O  O1  1  0.81320437  0.78528317  0.30290543  1
  O  O2  1  0.96652355  0.18304988  0.30285132  1
  O  O3  1  0.21750331  0.18494405  0.80382613  1
  O  O4  1  0.97627172  0.78784568  0.80413387  1
  O  O5  1  0.82140649  0.03323094  0.80965293  1
  O  O6  1  0.79965891  0.96977129  0.69431639  1
  O  O7  1  0.18067665  0.20835014  0.69851067  1
  O  O8  1  0.03347849  0.82144053  0.69841019  1
  O  O9  1  0.78665333  0.81864367  0.19773656  1
  O  O10  1  0.02522826  0.20945128  0.19725400  1
  O  O11  1  0.17424658  0.96880910  0.19356633  1
  O  O12  1  0.88260288  0.36422308  0.63526849  1
  O  O13  1  0.47962260  0.11879211  0.63522757  1
  O  O14  1  0.64055393  0.51675254  0.63644318  1
  O  O15  1  0.86439841  0.50585281  0.13927605  1
  O  O16  1  0.63924607  0.12491222  0.13534099  1
  O  O17  1  0.48322369  0.35495835  0.13534548  1
  O  O18  1  0.45558778  0.30100934  0.03075117  1
  O  O19  1  0.83627391  0.53121627  0.02695578  1
  O  O20  1  0.69111359  0.15256987  0.03066148  1
  O  O21  1  0.45020856  0.14774953  0.52973892  1
  O  O22  1  0.69770714  0.54792699  0.53040350  1
  O  O23  1  0.85215422  0.30190261  0.52995743  1
  O  O24  1  0.53958367  0.69077618  0.97062978  1
  O  O25  1  0.14844410  0.45458957  0.96978425  1
  O  O26  1  0.30634573  0.85380258  0.96931749  1
  O  O27  1  0.54718777  0.85152464  0.46914555  1
  O  O28  1  0.30912273  0.45920027  0.46948861  1
  O  O29  1  0.14888039  0.69241275  0.46952237  1
  O  O30  1  0.12574071  0.64144056  0.36492879  1
  O  O31  1  0.51583149  0.87268453  0.36435935  1
  O  O32  1  0.35714224  0.48481903  0.36419081  1
  O  O33  1  0.12220875  0.48359196  0.86508299  1
  O  O34  1  0.35938130  0.87444031  0.86465170  1
  O  O35  1  0.51251158  0.63923107  0.86563687  1
  O  O36  1  0.01902515  0.82129248  0.41131404  1
  O  O37  1  0.80268192  0.97570444  0.40839378  1
  O  O38  1  0.17394044  0.20207140  0.41205874  1
  O  O39  1  0.02350207  0.19697080  0.91214431  1
  O  O40  1  0.17508525  0.97920005  0.90896596  1
  O  O41  1  0.80076926  0.81826632  0.91208287  1
  O  O42  1  0.98100754  0.17646363  0.59013848  1
  O  O43  1  0.19649080  0.02172696  0.59041520  1
  O  O44  1  0.82789130  0.80042054  0.58989440  1
  O  O45  1  0.97152187  0.81562976  0.08807318  1
  O  O46  1  0.82928652  0.03371210  0.08999637  1
  O  O47  1  0.19961289  0.17869680  0.08969785  1
  O  O48  1  0.68279137  0.17583897  0.74393518  1
  O  O49  1  0.46955473  0.31896796  0.74253103  1
  O  O50  1  0.84276843  0.53548368  0.74269591  1
  O  O51  1  0.68893507  0.53324937  0.24194668  1
  O  O52  1  0.84590664  0.31363377  0.24275116  1
  O  O53  1  0.48682041  0.16979582  0.24106427  1
  O  O54  1  0.63377506  0.50268049  0.92299424  1
  O  O55  1  0.86450141  0.35525052  0.92366212  1
  O  O56  1  0.49160918  0.13395749  0.92311217  1
  O  O57  1  0.64143373  0.13422240  0.42121131  1
  O  O58  1  0.49430674  0.36011325  0.42153971  1
  O  O59  1  0.86475417  0.50319593  0.42185146  1
  O  O60  1  0.36414164  0.49351962  0.07670811  1
  O  O61  1  0.15732185  0.64606652  0.07834399  1
  O  O62  1  0.51374929  0.86805893  0.07691192  1
  O  O63  1  0.35408798  0.86239567  0.57622299  1
  O  O64  1  0.51099138  0.64677845  0.57730200  1
  O  O65  1  0.13851715  0.49132031  0.57614838  1
  O  O66  1  0.31358866  0.82500751  0.25746769  1
  O  O67  1  0.52959171  0.68635374  0.25638173  1
  O  O68  1  0.15971110  0.46598098  0.25676191  1
  O  O69  1  0.30103527  0.46435913  0.75786899  1
  O  O70  1  0.15763343  0.68941383  0.75739266  1
  O  O71  1  0.51772176  0.82762855  0.75759229  1
loop_
_geom_bond_atom_site_label_1
_geom_bond_atom_site_label_2
_geom_bond_distance
_geom_bond_site_symmetry_2
Na0 O38 2.563850 1_555
Na0 O36 2.582723 1_545
Na0 O37 2.631536 1_445
Na0 O43 2.697207 1_555
Na0 O42 2.703674 1_455
Na0 O44 2.708675 1_445
Na1 O41 2.553471 1_555
Na1 O39 2.568114 1_665
Na1 O45 2.572143 1_556
Na1 O40 2.582904 1_655
Na1 O46 2.741356 1_566
Na1 O47 2.749218 1_666
Na2 O48 2.305806 1_555
Na2 O50 2.552392 1_555
Na2 O49 2.558747 1_555
Na2 O56 2.788936 1_555
Na2 O55 2.796598 1_555
Na2 O54 2.866748 1_555
Na3 O58 2.489590 1_555
Na3 O57 2.499044 1_555
Na3 O59 2.572237 1_555
Na3 O53 2.676291 1_555
Na3 O52 2.800280 1_555
Na3 O51 2.802463 1_555
Na4 O61 2.386964 1_555
Na4 O66 2.582044 1_555
Na4 O62 2.622811 1_555
Na4 O60 2.668762 1_555
Na4 O68 2.712540 1_555
Na4 O67 2.770504 1_555
Na5 O64 2.545660 1_555
Na5 O63 2.549834 1_555
Na5 O65 2.603177 1_555
Na5 O71 2.658702 1_555
Na5 O70 2.762699 1_555
Na5 O69 2.776973 1_555
Hf0 O6 1.901844 1_555
Hf0 O44 2.072670 1_555
Hf0 O42 2.080405 1_565
Hf0 O8 2.131102 1_655
Hf0 O7 2.148038 1_665
Hf0 O43 2.164494 1_665
Hf1 O11 1.892824 1_555
Hf1 O45 1.950215 1_455
Hf1 O9 2.113176 1_455
Hf1 O47 2.143736 1_565
Hf1 O10 2.199915 1_565
Hf1 O46 2.230779 1_465
Hf2 O15 1.958278 1_555
Hf2 O53 1.980253 1_555
Hf2 O52 2.084059 1_555
Hf2 O16 2.093096 1_555
Hf2 O51 2.105735 1_555
Hf2 O17 2.114888 1_555
Hf3 O19 1.898828 1_556
Hf3 O55 2.062531 1_555
Hf3 O54 2.069096 1_555
Hf3 O20 2.117419 1_556
Hf3 O18 2.134994 1_556
Hf3 O56 2.180778 1_555
Hf4 O66 1.963164 1_555
Hf4 O30 2.015440 1_555
Hf4 O31 2.016800 1_555
Hf4 O32 2.098666 1_555
Hf4 O67 2.191980 1_555
Hf4 O68 2.195879 1_555
Hf5 O71 1.899157 1_555
Hf5 O70 2.075650 1_555
Hf5 O69 2.082715 1_555
Hf5 O34 2.108557 1_555
Hf5 O35 2.117051 1_555
Hf5 O33 2.215130 1_555
O0 Si0 1.571277 1_555
O0 Zn0 1.881433 1_555
O1 S0 1.436603 1_555
O1 Zn0 2.195373 1_665
O2 S1 1.439671 1_655
O2 Zn0 2.151077 1_655
O3 S2 1.460674 1_555
O3 Zn1 2.055260 1_455
O4 S3 1.459766 1_555
O4 Zn1 2.056743 1_565
O5 Si1 1.589039 1_555
O5 Zn1 1.854836 1_555
O6 Si1 1.661538 1_565
O7 S2 1.495345 1_555
O8 S3 1.499430 1_455
O9 S0 1.503529 1_555
O10 S1 1.491710 1_555
O11 Si0 1.662233 1_565
O12 S4 1.465942 1_555
O12 Zn2 2.063072 1_555
O13 S5 1.467929 1_555
O13 Zn2 2.043907 1_555
O14 S6 1.468516 1_555
O14 Zn2 2.163824 1_555
O15 Si2 1.631568 1_555
O16 S7 1.494681 1_555
O17 S8 1.488273 1_555
O18 S8 1.494919 1_555
O19 Si2 1.657725 1_555
O20 S7 1.494820 1_555
O21 S5 1.474570 1_555
O21 Zn3 2.047964 1_555
O22 S6 1.471701 1_555
O22 Zn3 2.053460 1_555
O23 S4 1.470969 1_555
O23 Zn3 2.081233 1_555
O24 S9 1.459847 1_555
O24 Zn4 2.141314 1_556
O25 S10 1.460150 1_555
O25 Zn4 2.044107 1_556
O26 S11 1.459077 1_555
O26 Zn4 2.047184 1_556
O27 S12 1.461294 1_555
O27 Zn5 2.095023 1_555
O28 S13 1.465911 1_555
O28 Zn5 2.057160 1_555
O29 S14 1.460231 1_555
O29 Zn5 2.078129 1_555
O30 S14 1.542090 1_555
O31 S12 1.543169 1_555
O32 S13 1.528212 1_555
O33 S10 1.486213 1_555
O34 S11 1.503244 1_555
O35 S9 1.498641 1_555
O36 S14 1.472967 1_555
O36 Zn0 2.117836 1_565
O37 S12 1.476622 1_555
O37 Zn0 2.168845 1_665
O38 S13 1.477528 1_555
O38 Zn0 2.101371 1_555
O39 S10 1.464534 1_555
O39 Zn1 2.217783 1_455
O40 S11 1.470722 1_555
O40 Zn1 2.255576 1_465
O41 S9 1.463603 1_555
O41 Zn1 2.264375 1_565
O42 S4 1.540335 1_555
O43 S5 1.522918 1_555
O44 S6 1.543647 1_555
O45 Si2 1.656914 1_555
O46 S7 1.486637 1_555
O47 S8 1.498868 1_555
O48 Si1 1.600638 1_555
O48 Zn2 1.922440 1_555
O49 S2 1.460529 1_555
O49 Zn2 2.201212 1_555
O50 S3 1.457678 1_555
O50 Zn2 2.228202 1_555
O51 S0 1.498537 1_555
O52 S1 1.505245 1_655
O53 Si0 1.641542 1_555
O54 S9 1.531249 1_555
O55 S10 1.535539 1_655
O56 S11 1.511195 1_545
O57 S12 1.479437 1_545
O57 Zn3 2.218567 1_555
O58 S13 1.484700 1_555
O58 Zn3 2.189988 1_555
O59 S14 1.478665 1_655
O59 Zn3 2.202252 1_555
O60 S8 1.444018 1_555
O60 Zn4 2.209960 1_555
O61 Si2 1.592961 1_455
O61 Zn4 1.931611 1_555
O62 S7 1.447081 1_565
O62 Zn4 2.219121 1_555
O63 S5 1.485700 1_565
O63 Zn5 2.125146 1_555
O64 S6 1.482122 1_555
O64 Zn5 2.145770 1_555
O65 S4 1.479983 1_455
O65 Zn5 2.118674 1_555
O66 Si0 1.655900 1_565
O67 S0 1.492796 1_555
O68 S1 1.496640 1_555
O69 S2 1.523622 1_555
O70 S3 1.522501 1_455
O71 Si1 1.690353 1_565
