# generated using pymatgen
data_Pu5Rh3
_symmetry_space_group_name_H-M   'P 1'
_cell_length_a   10.88900264
_cell_length_b   10.88900264
_cell_length_c   5.98436473
_cell_angle_alpha   90.00000000
_cell_angle_beta   90.00000000
_cell_angle_gamma   90.00000000
_symmetry_Int_Tables_number   1
_chemical_formula_structural   Pu5Rh3
_chemical_formula_sum   'Pu20 Rh12'
_cell_volume   709.56839108
_cell_formula_units_Z   4
loop_
 _symmetry_equiv_pos_site_id
 _symmetry_equiv_pos_as_xyz
  1  'x, y, z'
loop_
 _atom_site_type_symbol
 _atom_site_label
 _atom_site_symmetry_multiplicity
 _atom_site_fract_x
 _atom_site_fract_y
 _atom_site_fract_z
 _atom_site_occupancy
  Pu  Pu0  1  0.50000000  0.50000000  0.50000000  1
  Pu  Pu1  1  0.50000000  0.50000000  -0.00000000  1
  Pu  Pu2  1  0.00000000  -0.00000000  0.50000000  1
  Pu  Pu3  1  0.00000000  -0.00000000  -0.00000000  1
  Pu  Pu4  1  0.78294850  0.58410133  0.25563736  1
  Pu  Pu5  1  0.21705150  0.58410133  0.75563736  1
  Pu  Pu6  1  0.71705150  0.91589867  0.74436264  1
  Pu  Pu7  1  0.71705150  0.08410133  0.24436264  1
  Pu  Pu8  1  0.21705150  0.41589867  0.25563736  1
  Pu  Pu9  1  0.78294850  0.41589867  0.75563736  1
  Pu  Pu10  1  0.28294850  0.08410133  0.74436264  1
  Pu  Pu11  1  0.28294850  0.91589867  0.24436264  1
  Pu  Pu12  1  0.41589867  0.78294850  0.74436264  1
  Pu  Pu13  1  0.41589867  0.21705150  0.24436264  1
  Pu  Pu14  1  0.91589867  0.28294850  0.25563736  1
  Pu  Pu15  1  0.91589867  0.71705150  0.75563736  1
  Pu  Pu16  1  0.58410133  0.21705150  0.74436264  1
  Pu  Pu17  1  0.58410133  0.78294850  0.24436264  1
  Pu  Pu18  1  0.08410133  0.71705150  0.25563736  1
  Pu  Pu19  1  0.08410133  0.28294850  0.75563736  1
  Rh  Rh0  1  0.50000000  -0.00000000  0.49327560  1
  Rh  Rh1  1  0.50000000  -0.00000000  0.99327560  1
  Rh  Rh2  1  0.00000000  0.50000000  0.50672440  1
  Rh  Rh3  1  0.00000000  0.50000000  0.00672440  1
  Rh  Rh4  1  0.66060234  0.66060234  0.75000000  1
  Rh  Rh5  1  0.33939766  0.66060234  0.25000000  1
  Rh  Rh6  1  0.83939766  0.83939766  0.25000000  1
  Rh  Rh7  1  0.83939766  0.16060234  0.75000000  1
  Rh  Rh8  1  0.33939766  0.33939766  0.75000000  1
  Rh  Rh9  1  0.66060234  0.33939766  0.25000000  1
  Rh  Rh10  1  0.16060234  0.16060234  0.25000000  1
  Rh  Rh11  1  0.16060234  0.83939766  0.75000000  1
loop_
_geom_bond_atom_site_label_1
_geom_bond_atom_site_label_2
_geom_bond_distance
_geom_bond_site_symmetry_2
Pu0 Rh8 2.890482 1_555
Pu0 Rh5 2.890482 1_555
Pu0 Rh9 2.890482 1_555
Pu0 Rh4 2.890482 1_555
Pu0 Pu1 2.992182 1_555
Pu0 Pu1 2.992182 1_556
Pu0 Pu4 3.531269 1_555
Pu0 Pu12 3.531269 1_555
Pu0 Pu8 3.531269 1_555
Pu0 Pu16 3.531269 1_555
Pu0 Pu17 3.559740 1_555
Pu0 Pu9 3.559740 1_555
Pu0 Pu13 3.559740 1_555
Pu0 Pu5 3.559740 1_555
Pu1 Rh8 2.890482 1_554
Pu1 Rh5 2.890482 1_555
Pu1 Rh9 2.890482 1_555
Pu1 Rh4 2.890482 1_554
Pu1 Pu17 3.531269 1_555
Pu1 Pu9 3.531269 1_554
Pu1 Pu5 3.531269 1_554
Pu1 Pu13 3.531269 1_555
Pu1 Pu4 3.559740 1_555
Pu1 Pu12 3.559740 1_554
Pu1 Pu16 3.559740 1_554
Pu1 Pu8 3.559740 1_555
Pu2 Rh6 2.890482 1_445
Pu2 Rh11 2.890482 1_545
Pu2 Rh7 2.890482 1_455
Pu2 Rh10 2.890482 1_555
Pu2 Pu3 2.992182 1_555
Pu2 Pu3 2.992182 1_556
Pu2 Pu6 3.531269 1_445
Pu2 Pu7 3.559740 1_455
Pu3 Rh6 2.890482 1_445
Pu3 Rh11 2.890482 1_544
Pu3 Rh7 2.890482 1_454
Pu3 Rh10 2.890482 1_555
Pu3 Pu7 3.531269 1_455
Pu3 Pu6 3.559740 1_444
Pu4 Rh6 2.847267 1_555
Pu4 Rh3 2.939988 1_655
Pu4 Rh2 2.946601 1_655
Pu4 Rh9 2.979253 1_555
Pu4 Rh4 3.349800 1_555
Pu4 Rh4 3.409536 1_554
Pu4 Pu9 3.508242 1_554
Pu4 Pu9 3.508242 1_555
Pu5 Rh11 2.847267 1_555
Pu5 Rh2 2.939988 1_555
Pu5 Rh3 2.946601 1_556
Pu5 Rh8 2.979253 1_555
Pu5 Rh5 3.349800 1_556
Pu5 Rh5 3.409536 1_555
Pu5 Pu8 3.508242 1_556
Pu5 Pu8 3.508242 1_555
Pu6 Rh4 2.847267 1_555
Pu6 Rh1 2.939988 1_565
Pu6 Rh0 2.946601 1_565
Pu6 Rh7 2.979253 1_565
Pu6 Rh6 3.349800 1_555
Pu6 Rh6 3.409536 1_556
Pu6 Pu7 3.508242 1_565
Pu6 Pu7 3.508242 1_566
Pu7 Rh9 2.847267 1_555
Pu7 Rh0 2.939988 1_555
Pu7 Rh1 2.946601 1_554
Pu7 Rh6 2.979253 1_545
Pu7 Rh7 3.349800 1_554
Pu7 Rh7 3.409536 1_555
Pu8 Rh10 2.847267 1_555
Pu8 Rh3 2.939988 1_555
Pu8 Rh2 2.946601 1_555
Pu8 Rh5 2.979253 1_555
Pu8 Rh8 3.349800 1_555
Pu8 Rh8 3.409536 1_554
Pu9 Rh7 2.847267 1_555
Pu9 Rh2 2.939988 1_655
Pu9 Rh3 2.946601 1_656
Pu9 Rh4 2.979253 1_555
Pu9 Rh9 3.349800 1_556
Pu9 Rh9 3.409536 1_555
Pu10 Rh8 2.847267 1_555
Pu10 Rh1 2.939988 1_555
Pu10 Rh0 2.946601 1_555
Pu10 Rh11 2.979253 1_545
Pu10 Pu19 3.062865 1_555
Pu10 Rh10 3.349800 1_555
Pu10 Rh10 3.409536 1_556
Pu10 Pu11 3.508242 1_545
Pu10 Pu11 3.508242 1_546
Pu10 Pu2 3.531269 1_555
Pu10 Pu3 3.559740 1_556
Pu10 Pu16 3.584596 1_555
Pu10 Pu12 3.584596 1_545
Pu10 Pu13 3.625575 1_555
Pu10 Pu13 3.625575 1_556
Pu11 Rh5 2.847267 1_555
Pu11 Rh0 2.939988 1_565
Pu11 Rh1 2.946601 1_564
Pu11 Rh10 2.979253 1_565
Pu11 Pu18 3.062865 1_555
Pu11 Rh11 3.349800 1_554
Pu11 Rh11 3.409536 1_555
Pu11 Pu3 3.531269 1_565
Pu11 Pu2 3.559740 1_565
Pu11 Pu13 3.584596 1_565
Pu11 Pu17 3.584596 1_555
Pu11 Pu12 3.625575 1_555
Pu11 Pu12 3.625575 1_554
Pu12 Rh11 2.847267 1_555
Pu12 Rh1 2.939988 1_565
Pu12 Rh0 2.946601 1_565
Pu12 Rh4 2.979253 1_555
Pu12 Pu5 3.062865 1_555
Pu12 Rh5 3.349800 1_555
Pu12 Rh5 3.409536 1_556
Pu12 Pu17 3.508242 1_555
Pu12 Pu17 3.508242 1_556
Pu12 Pu6 3.584596 1_555
Pu13 Rh10 2.847267 1_555
Pu13 Rh0 2.939988 1_555
Pu13 Rh1 2.946601 1_554
Pu13 Rh9 2.979253 1_555
Pu13 Pu8 3.062865 1_555
Pu13 Rh8 3.349800 1_554
Pu13 Rh8 3.409536 1_555
Pu13 Pu16 3.508242 1_554
Pu13 Pu16 3.508242 1_555
Pu13 Pu7 3.584596 1_555
Pu14 Rh9 2.847267 1_555
Pu14 Rh3 2.939988 1_655
Pu14 Rh2 2.946601 1_655
Pu14 Rh10 2.979253 1_655
Pu14 Pu7 3.062865 1_555
Pu14 Rh7 3.349800 1_555
Pu14 Rh7 3.409536 1_554
Pu14 Pu19 3.508242 1_654
Pu14 Pu19 3.508242 1_655
Pu14 Pu2 3.531269 1_655
Pu14 Pu3 3.559740 1_655
Pu14 Pu8 3.584596 1_655
Pu14 Pu4 3.584596 1_555
Pu14 Pu9 3.625575 1_554
Pu14 Pu9 3.625575 1_555
Pu15 Rh4 2.847267 1_555
Pu15 Rh2 2.939988 1_655
Pu15 Rh3 2.946601 1_656
Pu15 Rh11 2.979253 1_655
Pu15 Pu6 3.062865 1_555
Pu15 Rh6 3.349800 1_556
Pu15 Rh6 3.409536 1_555
Pu15 Pu18 3.508242 1_656
Pu15 Pu18 3.508242 1_655
Pu15 Pu3 3.531269 1_666
Pu15 Pu2 3.559740 1_665
Pu15 Pu5 3.584596 1_655
Pu15 Pu9 3.584596 1_555
Pu15 Pu4 3.625575 1_556
Pu15 Pu4 3.625575 1_555
Pu16 Rh7 2.847267 1_555
Pu16 Rh1 2.939988 1_555
Pu16 Rh0 2.946601 1_555
Pu16 Rh8 2.979253 1_555
Pu16 Pu9 3.062865 1_555
Pu16 Rh9 3.349800 1_555
Pu16 Rh9 3.409536 1_556
Pu16 Pu6 3.584596 1_545
Pu16 Pu7 3.625575 1_555
Pu16 Pu7 3.625575 1_556
Pu17 Rh6 2.847267 1_555
Pu17 Rh0 2.939988 1_565
Pu17 Rh1 2.946601 1_564
Pu17 Rh5 2.979253 1_555
Pu17 Pu4 3.062865 1_555
Pu17 Rh4 3.349800 1_554
Pu17 Rh4 3.409536 1_555
Pu17 Pu7 3.584596 1_565
Pu17 Pu6 3.625575 1_554
Pu17 Pu6 3.625575 1_555
Pu18 Rh5 2.847267 1_555
Pu18 Rh3 2.939988 1_555
Pu18 Rh2 2.946601 1_555
Pu18 Rh6 2.979253 1_455
Pu18 Rh11 3.349800 1_555
Pu18 Rh11 3.409536 1_554
Pu18 Pu2 3.531269 1_565
Pu18 Pu3 3.559740 1_565
Pu18 Pu8 3.584596 1_555
Pu18 Pu4 3.584596 1_455
Pu18 Pu5 3.625575 1_554
Pu18 Pu5 3.625575 1_555
Pu19 Rh8 2.847267 1_555
Pu19 Rh2 2.939988 1_555
Pu19 Rh3 2.946601 1_556
Pu19 Rh7 2.979253 1_455
Pu19 Rh10 3.349800 1_556
Pu19 Rh10 3.409536 1_555
Pu19 Pu3 3.531269 1_556
Pu19 Pu2 3.559740 1_555
Pu19 Pu5 3.584596 1_555
Pu19 Pu9 3.584596 1_455
Pu19 Pu8 3.625575 1_556
Pu19 Pu8 3.625575 1_555
Rh0 Rh1 2.992182 1_555
Rh0 Rh1 2.992182 1_554
Rh2 Rh3 2.992182 1_556
Rh2 Rh3 2.992182 1_555
