# generated using pymatgen
data_Cr2CoO4
_symmetry_space_group_name_H-M   'P 1'
_cell_length_a   5.90217901
_cell_length_b   5.90218582
_cell_length_c   5.90217759
_cell_angle_alpha   60.00007558
_cell_angle_beta   60.00004818
_cell_angle_gamma   60.00007812
_symmetry_Int_Tables_number   1
_chemical_formula_structural   Cr2CoO4
_chemical_formula_sum   'Cr4 Co2 O8'
_cell_volume   145.38620266
_cell_formula_units_Z   2
loop_
 _symmetry_equiv_pos_site_id
 _symmetry_equiv_pos_as_xyz
  1  'x, y, z'
loop_
 _atom_site_type_symbol
 _atom_site_label
 _atom_site_symmetry_multiplicity
 _atom_site_fract_x
 _atom_site_fract_y
 _atom_site_fract_z
 _atom_site_occupancy
  Cr  Cr0  1  0.50000129  -0.00000292  0.50000054  1
  Cr  Cr1  1  -0.00000256  0.50000318  0.49999946  1
  Cr  Cr2  1  0.49999954  0.49999964  0.00000279  1
  Cr  Cr3  1  0.49999954  0.49999957  0.49999760  1
  Co  Co0  1  0.12501617  0.12502881  0.12497766  1
  Co  Co1  1  0.87498890  0.87500161  0.87500417  1
  O  O0  1  0.73867542  0.73867881  0.73867694  1
  O  O1  1  0.26131493  0.26131783  0.71604251  1
  O  O2  1  0.26132238  0.71602403  0.26132650  1
  O  O3  1  0.71603271  0.26131229  0.26132724  1
  O  O4  1  0.73868205  0.28396909  0.73867429  1
  O  O5  1  0.28397670  0.73866971  0.73867646  1
  O  O6  1  0.26131525  0.26131825  0.26132416  1
  O  O7  1  0.73867569  0.73867909  0.28396769  1
loop_
_geom_bond_atom_site_label_1
_geom_bond_atom_site_label_2
_geom_bond_distance
_geom_bond_site_symmetry_2
Cr0 O3 1.996671 1_555
Cr0 O0 1.996688 1_545
Cr0 O7 1.996689 1_545
Cr0 O5 1.996697 1_545
Cr0 O6 1.996736 1_555
Cr0 O1 1.996737 1_555
Cr1 O2 1.996672 1_555
Cr1 O4 1.996682 1_455
Cr1 O0 1.996700 1_455
Cr1 O7 1.996701 1_455
Cr1 O6 1.996726 1_555
Cr1 O1 1.996727 1_555
Cr2 O2 1.996680 1_555
Cr2 O5 1.996685 1_554
Cr2 O0 1.996709 1_554
Cr2 O3 1.996718 1_555
Cr2 O4 1.996725 1_554
Cr2 O6 1.996749 1_555
Cr3 O2 1.996680 1_555
Cr3 O5 1.996685 1_555
Cr3 O7 1.996711 1_555
Cr3 O3 1.996718 1_555
Cr3 O4 1.996726 1_555
Cr3 O1 1.996752 1_555
Co0 O6 1.970702 1_555
Co0 O1 1.970704 1_554
Co0 O3 1.970937 1_455
Co0 O2 1.971043 1_545
Co1 O0 1.970839 1_555
Co1 O7 1.970841 1_556
Co1 O4 1.970863 1_565
Co1 O5 1.970958 1_655
