# generated using pymatgen
data_Rb3BiO3
_symmetry_space_group_name_H-M   'P 1'
_cell_length_a   8.78894048
_cell_length_b   8.78894048
_cell_length_c   8.78894048
_cell_angle_alpha   90.00000000
_cell_angle_beta   90.00000000
_cell_angle_gamma   90.00000000
_symmetry_Int_Tables_number   1
_chemical_formula_structural   Rb3BiO3
_chemical_formula_sum   'Rb12 Bi4 O12'
_cell_volume   678.90588002
_cell_formula_units_Z   4
loop_
 _symmetry_equiv_pos_site_id
 _symmetry_equiv_pos_as_xyz
  1  'x, y, z'
loop_
 _atom_site_type_symbol
 _atom_site_label
 _atom_site_symmetry_multiplicity
 _atom_site_fract_x
 _atom_site_fract_y
 _atom_site_fract_z
 _atom_site_occupancy
  Rb  Rb0  1  0.28654037  0.28654037  0.28654037  1
  Rb  Rb1  1  0.21345963  0.71345963  0.78654037  1
  Rb  Rb2  1  0.78654037  0.21345963  0.71345963  1
  Rb  Rb3  1  0.71345963  0.78654037  0.21345963  1
  Rb  Rb4  1  0.70856525  0.20856525  0.29143475  1
  Rb  Rb5  1  0.79143475  0.79143475  0.79143475  1
  Rb  Rb6  1  0.97517106  0.52482894  0.47517106  1
  Rb  Rb7  1  0.52482894  0.47517106  0.97517106  1
  Rb  Rb8  1  0.47517106  0.97517106  0.52482894  1
  Rb  Rb9  1  0.02482894  0.02482894  0.02482894  1
  Rb  Rb10  1  0.20856525  0.29143475  0.70856525  1
  Rb  Rb11  1  0.29143475  0.70856525  0.20856525  1
  Bi  Bi0  1  0.48332624  0.01667376  0.98332624  1
  Bi  Bi1  1  0.01667376  0.98332624  0.48332624  1
  Bi  Bi2  1  0.98332624  0.48332624  0.01667376  1
  Bi  Bi3  1  0.51667376  0.51667376  0.51667376  1
  O  O0  1  0.43933120  0.00459799  0.21501111  1
  O  O1  1  0.93933120  0.49540201  0.78498889  1
  O  O2  1  0.56066880  0.50459799  0.28498889  1
  O  O3  1  0.49540201  0.78498889  0.93933120  1
  O  O4  1  0.00459799  0.21501111  0.43933120  1
  O  O5  1  0.21501111  0.43933120  0.00459799  1
  O  O6  1  0.50459799  0.28498889  0.56066880  1
  O  O7  1  0.99540201  0.71501111  0.06066880  1
  O  O8  1  0.71501111  0.06066880  0.99540201  1
  O  O9  1  0.06066880  0.99540201  0.71501111  1
  O  O10  1  0.28498889  0.56066880  0.50459799  1
  O  O11  1  0.78498889  0.93933120  0.49540201  1
loop_
_geom_bond_atom_site_label_1
_geom_bond_atom_site_label_2
_geom_bond_distance
_geom_bond_site_symmetry_2
Bi0 O8 2.075368 1_555
Bi0 O3 2.075368 1_545
Bi0 O0 2.075368 1_556
Bi1 O9 2.075368 1_555
Bi1 O11 2.075368 1_455
Bi1 O4 2.075368 1_565
Bi2 O7 2.075368 1_555
Bi2 O1 2.075368 1_554
Bi2 O5 2.075368 1_655
Bi3 O10 2.075368 1_555
Bi3 O2 2.075368 1_555
Bi3 O6 2.075368 1_555
O0 Rb8 2.753303 1_545
O0 Rb0 2.887712 1_555
O0 Rb11 2.908997 1_545
O0 Rb4 3.043693 1_555
O0 Rb3 3.078613 1_545
O1 Rb6 2.753303 1_555
O1 Rb2 2.887712 1_555
O1 Rb5 2.908997 1_555
O1 Rb10 3.043693 1_655
O1 Rb1 3.078613 1_655
O2 Rb7 2.753303 1_554
O2 Rb3 2.887712 1_555
O2 Rb4 2.908997 1_555
O2 Rb11 3.043693 1_555
O2 Rb0 3.078613 1_555
O3 Rb7 2.753303 1_555
O3 Rb1 2.887712 1_555
O3 Rb5 2.908997 1_555
O3 Rb11 3.043693 1_556
O3 Rb3 3.078613 1_556
O4 Rb6 2.753303 1_455
O4 Rb0 2.887712 1_555
O4 Rb4 2.908997 1_455
O4 Rb10 3.043693 1_555
O4 Rb2 3.078613 1_455
O5 Rb7 2.753303 1_554
O5 Rb0 2.887712 1_555
O5 Rb10 2.908997 1_554
O5 Rb11 3.043693 1_555
O5 Rb1 3.078613 1_554
O6 Rb8 2.753303 1_545
O6 Rb2 2.887712 1_555
O6 Rb10 2.908997 1_555
O6 Rb4 3.043693 1_555
O6 Rb0 3.078613 1_555
O7 Rb9 2.753303 1_665
O7 Rb3 2.887712 1_555
O7 Rb11 2.908997 1_655
O7 Rb5 3.043693 1_554
O7 Rb1 3.078613 1_654
O8 Rb9 2.753303 1_656
O8 Rb2 2.887712 1_555
O8 Rb4 2.908997 1_556
O8 Rb5 3.043693 1_545
O8 Rb3 3.078613 1_546
O9 Rb9 2.753303 1_566
O9 Rb1 2.887712 1_555
O9 Rb10 2.908997 1_565
O9 Rb5 3.043693 1_455
O9 Rb2 3.078613 1_465
O10 Rb6 2.753303 1_455
O10 Rb1 2.887712 1_555
O10 Rb11 2.908997 1_555
O10 Rb10 3.043693 1_555
O10 Rb0 3.078613 1_555
O11 Rb8 2.753303 1_555
O11 Rb3 2.887712 1_555
O11 Rb5 2.908997 1_555
O11 Rb4 3.043693 1_565
O11 Rb2 3.078613 1_565
