# generated using pymatgen
data_K2La2MgTi2O8
_symmetry_space_group_name_H-M   'P 1'
_cell_length_a   3.95060500
_cell_length_b   3.95060500
_cell_length_c   13.13812700
_cell_angle_alpha   90.00000000
_cell_angle_beta   90.00000000
_cell_angle_gamma   90.00000000
_symmetry_Int_Tables_number   1
_chemical_formula_structural   K2La2MgTi2O8
_chemical_formula_sum   'K2 La2 Mg1 Ti2 O8'
_cell_volume   205.05042500
_cell_formula_units_Z   1
loop_
 _symmetry_equiv_pos_site_id
 _symmetry_equiv_pos_as_xyz
  1  'x, y, z'
loop_
 _atom_site_type_symbol
 _atom_site_label
 _atom_site_symmetry_multiplicity
 _atom_site_fract_x
 _atom_site_fract_y
 _atom_site_fract_z
 _atom_site_occupancy
  K  K0  1  0.75000000  0.75000000  0.36454700  1
  K  K1  1  0.25000000  0.25000000  0.63545300  1
  La  La0  1  0.75000000  0.75000000  0.10523700  1
  La  La1  1  0.25000000  0.25000000  0.89476300  1
  Mg  Mg0  1  0.75000000  0.25000000  0.50000000  1
  Ti  Ti0  1  0.25000000  0.25000000  0.24184100  1
  Ti  Ti1  1  0.75000000  0.75000000  0.75815900  1
  O  O0  1  0.75000000  0.25000000  0.23128700  1
  O  O1  1  0.25000000  0.75000000  0.22805500  1
  O  O2  1  0.25000000  0.75000000  0.77194500  1
  O  O3  1  0.75000000  0.25000000  0.76871300  1
  O  O4  1  0.75000000  0.75000000  0.58223400  1
  O  O5  1  0.25000000  0.25000000  0.41776600  1
  O  O6  1  0.75000000  0.75000000  0.92662700  1
  O  O7  1  0.25000000  0.25000000  0.07337300  1
loop_
_geom_bond_atom_site_label_1
_geom_bond_atom_site_label_2
_geom_bond_distance
_geom_bond_site_symmetry_2
K0 O0 2.639522 1_555
K0 O0 2.639522 1_565
K0 Mg0 2.658720 1_555
K0 Mg0 2.658720 1_565
K0 O1 2.667876 1_555
K0 O1 2.667876 1_655
K0 O4 2.859999 1_555
K0 O5 2.879673 1_665
K0 O5 2.879673 1_555
K0 O5 2.879673 1_655
K0 O5 2.879673 1_565
K1 O3 2.639522 1_555
K1 O3 2.639522 1_455
K1 Mg0 2.658720 1_455
K1 Mg0 2.658720 1_555
K1 O2 2.667876 1_545
K1 O2 2.667876 1_555
K1 O5 2.859999 1_555
K1 O4 2.879673 1_555
K1 O4 2.879673 1_445
K1 O4 2.879673 1_545
K1 O4 2.879673 1_455
La0 O6 2.346601 1_554
La0 O1 2.550592 1_555
La0 O1 2.550592 1_655
La0 O0 2.577665 1_555
La0 O0 2.577665 1_565
La0 O7 2.824694 1_555
La0 O7 2.824694 1_565
La0 O7 2.824694 1_665
La0 O7 2.824694 1_655
La1 O7 2.346601 1_556
La1 O2 2.550592 1_545
La1 O2 2.550592 1_555
La1 O3 2.577665 1_455
La1 O3 2.577665 1_555
La1 O6 2.824694 1_555
La1 O6 2.824694 1_445
La1 O6 2.824694 1_545
La1 O6 2.824694 1_455
Mg0 O4 2.251463 1_545
Mg0 O4 2.251463 1_555
Mg0 O5 2.251463 1_555
Mg0 O5 2.251463 1_655
O0 Ti0 1.980163 1_555
O0 Ti0 1.980163 1_655
O1 Ti0 1.983589 1_555
O1 Ti0 1.983589 1_565
O2 Ti1 1.983589 1_455
O2 Ti1 1.983589 1_555
O3 Ti1 1.980163 1_555
O3 Ti1 1.980163 1_545
O4 Ti1 2.311325 1_555
O5 Ti0 2.311325 1_555
O6 Ti1 2.213354 1_555
O7 Ti0 2.213354 1_555
