# generated using pymatgen
data_Na5Nb2Si5Ge2PO24
_symmetry_space_group_name_H-M   'P 1'
_cell_length_a   8.84922168
_cell_length_b   8.85080030
_cell_length_c   22.09799909
_cell_angle_alpha   89.97880365
_cell_angle_beta   90.12345818
_cell_angle_gamma   119.97095764
_symmetry_Int_Tables_number   1
_chemical_formula_structural   Na5Nb2Si5Ge2PO24
_chemical_formula_sum   'Na15 Nb6 Si15 Ge6 P3 O72'
_cell_volume   1499.32944055
_cell_formula_units_Z   3
loop_
 _symmetry_equiv_pos_site_id
 _symmetry_equiv_pos_as_xyz
  1  'x, y, z'
loop_
 _atom_site_type_symbol
 _atom_site_label
 _atom_site_symmetry_multiplicity
 _atom_site_fract_x
 _atom_site_fract_y
 _atom_site_fract_z
 _atom_site_occupancy
  Na  Na0  1  0.63602183  0.00164090  0.24769763  1
  Na  Na1  1  0.36711020  0.36484644  0.24686648  1
  Na  Na2  1  0.99638698  0.63137042  0.24718133  1
  Na  Na3  1  0.99987784  0.36649333  0.75004950  1
  Na  Na4  1  0.03125182  0.69793581  0.57851033  1
  Na  Na5  1  0.66376183  0.96652440  0.57861115  1
  Na  Na6  1  0.96501278  0.66573259  0.92000219  1
  Na  Na7  1  0.70052304  0.03320401  0.91847423  1
  Na  Na8  1  0.33153780  0.29971574  0.92106837  1
  Na  Na9  1  0.00861074  0.00936353  0.49221186  1
  Na  Na10  1  0.00181281  0.00049288  0.00234890  1
  Na  Na11  1  0.65893040  0.33154112  0.83365206  1
  Na  Na12  1  0.66861617  0.33385619  0.33282834  1
  Na  Na13  1  0.33262153  0.66416533  0.15953211  1
  Na  Na14  1  0.34170886  0.66409121  0.66342537  1
  Nb  Nb0  1  0.00287117  0.00332117  0.64410809  1
  Nb  Nb1  1  0.00451387  0.99982210  0.14060633  1
  Nb  Nb2  1  0.66237837  0.33454764  0.68814300  1
  Nb  Nb3  1  0.66908631  0.33221326  0.47394287  1
  Nb  Nb4  1  0.33126114  0.66788795  0.31329656  1
  Nb  Nb5  1  0.33386106  0.67490602  0.81215025  1
  Si  Si0  1  0.28834919  0.00808936  0.25111203  1
  Si  Si1  1  0.71789358  0.71154355  0.24974292  1
  Si  Si2  1  0.99204395  0.27882478  0.25047602  1
  Si  Si3  1  0.28928238  0.28485810  0.75417893  1
  Si  Si4  1  0.99620697  0.71775555  0.75360714  1
  Si  Si5  1  0.71588294  0.99770525  0.75273158  1
  Si  Si6  1  0.96651167  0.34182547  0.58144518  1
  Si  Si7  1  0.37754888  0.04089034  0.58023514  1
  Si  Si8  1  0.65355834  0.61817286  0.58003709  1
  Si  Si9  1  0.95145716  0.61034114  0.08181985  1
  Si  Si10  1  0.38985266  0.34563596  0.08112830  1
  Si  Si11  1  0.03995668  0.37293055  0.91957847  1
  Si  Si12  1  0.33287588  0.95758353  0.92216900  1
  Si  Si13  1  0.63156933  0.95148397  0.41801771  1
  Si  Si14  1  0.04926817  0.68128891  0.41808934  1
  Ge  Ge0  1  0.99452104  0.99377611  0.35347597  1
  Ge  Ge1  1  0.00768545  0.00581277  0.85397733  1
  Ge  Ge2  1  0.66777179  0.33885665  0.18488571  1
  Ge  Ge3  1  0.66551402  0.32868894  0.98386898  1
  Ge  Ge4  1  0.31898543  0.65635448  0.02360917  1
  Ge  Ge5  1  0.33433119  0.66817076  0.51836555  1
  P  P0  1  0.65810759  0.04344466  0.08223062  1
  P  P1  1  0.62246773  0.66791448  0.91943940  1
  P  P2  1  0.32331321  0.37410885  0.41802099  1
  O  O0  1  0.20207872  0.04989413  0.30877660  1
  O  O1  1  0.84473395  0.79476290  0.30833485  1
  O  O2  1  0.95251348  0.15286826  0.30901632  1
  O  O3  1  0.20534118  0.17130573  0.81539525  1
  O  O4  1  0.96915955  0.80485478  0.81440027  1
  O  O5  1  0.84019248  0.03597635  0.81248706  1
  O  O6  1  0.80011560  0.97100584  0.69085433  1
  O  O7  1  0.16273123  0.19632215  0.69515788  1
  O  O8  1  0.02752144  0.82914828  0.69167858  1
  O  O9  1  0.80014760  0.84034355  0.19157452  1
  O  O10  1  0.03737659  0.19756278  0.19161358  1
  O  O11  1  0.16079173  0.96064864  0.19187467  1
  O  O12  1  0.87983721  0.37476239  0.64299706  1
  O  O13  1  0.50448556  0.13237125  0.63995345  1
  O  O14  1  0.63204909  0.50004970  0.64102246  1
  O  O15  1  0.86638221  0.49734252  0.14393396  1
  O  O16  1  0.63232824  0.12748653  0.14036495  1
  O  O17  1  0.50057872  0.36697436  0.14356077  1
  O  O18  1  0.46960827  0.30391175  0.02035298  1
  O  O19  1  0.83287686  0.52662895  0.02063267  1
  O  O20  1  0.69304235  0.15660606  0.02405202  1
  O  O21  1  0.46931212  0.16815076  0.52363095  1
  O  O22  1  0.70400692  0.53271988  0.52489723  1
  O  O23  1  0.82930276  0.29812816  0.52591703  1
  O  O24  1  0.53948781  0.70784313  0.97399067  1
  O  O25  1  0.17895374  0.46322628  0.97470298  1
  O  O26  1  0.29164300  0.81918223  0.97661064  1
  O  O27  1  0.53720080  0.83488360  0.47830591  1
  O  O28  1  0.30044335  0.46627904  0.47350797  1
  O  O29  1  0.16629111  0.70137938  0.47817843  1
  O  O30  1  0.13492303  0.64203262  0.35771100  1
  O  O31  1  0.50767722  0.86060672  0.35783036  1
  O  O32  1  0.35432899  0.48667888  0.35947788  1
  O  O33  1  0.12399486  0.49600758  0.85883320  1
  O  O34  1  0.37262745  0.87121065  0.86182814  1
  O  O35  1  0.50450719  0.63433698  0.86261567  1
  O  O36  1  0.03760085  0.85643639  0.41009370  1
  O  O37  1  0.82274048  0.97295167  0.41056670  1
  O  O38  1  0.16154794  0.19528256  0.41156879  1
  O  O39  1  0.01816913  0.17622888  0.91236326  1
  O  O40  1  0.15604644  0.97392820  0.91351942  1
  O  O41  1  0.80686643  0.83206953  0.91260681  1
  O  O42  1  0.97396716  0.16196326  0.58705798  1
  O  O43  1  0.18239231  0.01402262  0.58734718  1
  O  O44  1  0.82982358  0.81125244  0.58844205  1
  O  O45  1  0.96868607  0.80498179  0.08662275  1
  O  O46  1  0.82498216  0.02833306  0.08679045  1
  O  O47  1  0.19313481  0.17005604  0.08685349  1
  O  O48  1  0.70238447  0.17442681  0.74669059  1
  O  O49  1  0.48008158  0.30418781  0.74700714  1
  O  O50  1  0.83141914  0.51960205  0.74836422  1
  O  O51  1  0.69318769  0.51473057  0.24321299  1
  O  O52  1  0.82016614  0.30326236  0.24224201  1
  O  O53  1  0.48528196  0.17557329  0.24189874  1
  O  O54  1  0.64041066  0.50212796  0.92213166  1
  O  O55  1  0.84460496  0.35354585  0.92499003  1
  O  O56  1  0.50915496  0.15264183  0.92524761  1
  O  O57  1  0.64143008  0.14225818  0.42050966  1
  O  O58  1  0.49205882  0.36179742  0.42199507  1
  O  O59  1  0.85648772  0.50356060  0.42154709  1
  O  O60  1  0.37313220  0.52182683  0.07503656  1
  O  O61  1  0.14771722  0.63515874  0.07706980  1
  O  O62  1  0.49432536  0.86117257  0.07570498  1
  O  O63  1  0.36032036  0.84889549  0.57685261  1
  O  O64  1  0.48578045  0.64362242  0.57550692  1
  O  O65  1  0.15378197  0.51662458  0.57456994  1
  O  O66  1  0.30975287  0.83310304  0.25572852  1
  O  O67  1  0.52021341  0.68526156  0.25557461  1
  O  O68  1  0.16582410  0.47540180  0.25581773  1
  O  O69  1  0.30186551  0.47504654  0.75803556  1
  O  O70  1  0.16877873  0.69212580  0.75704107  1
  O  O71  1  0.52321111  0.82528460  0.75703765  1
loop_
_geom_bond_atom_site_label_1
_geom_bond_atom_site_label_2
_geom_bond_distance
_geom_bond_site_symmetry_2
Na0 O52 2.334710 1_555
Na0 O67 2.460682 1_545
Na0 O53 2.493289 1_555
Na0 O66 2.508318 1_545
Na0 O16 2.627050 1_555
Na0 O31 2.713714 1_545
Na0 O2 2.776895 1_555
Na0 O9 2.786809 1_545
Na1 O53 2.379679 1_555
Na1 O68 2.431548 1_555
Na1 O67 2.464862 1_555
Na1 O51 2.503801 1_555
Na1 O17 2.568287 1_555
Na1 O32 2.737366 1_555
Na1 O0 2.777305 1_555
Na1 O10 2.804742 1_555
Na2 O51 2.346050 1_555
Na2 O66 2.442238 1_655
Na2 O68 2.501359 1_655
Na2 O52 2.520302 1_555
Na2 O15 2.561914 1_555
Na2 O30 2.710947 1_655
Na2 O1 2.768912 1_555
Na2 O11 2.805822 1_655
Na3 O48 2.313818 1_555
Na3 O69 2.351282 1_655
Na3 O50 2.465387 1_555
Na3 O70 2.501953 1_655
Na3 O12 2.607060 1_555
Na3 O33 2.651762 1_655
Na3 O7 2.827406 1_655
Na3 O5 2.886765 1_555
Na4 O65 2.344677 1_555
Na4 O43 2.431969 1_565
Na4 O44 2.453429 1_455
Na4 O29 2.513881 1_555
Na4 O63 2.525740 1_555
Na4 O8 2.764879 1_555
Na4 O22 2.771922 1_455
Na4 O12 2.860700 1_455
Na5 O63 2.345689 1_555
Na5 O42 2.411691 1_565
Na5 O44 2.472142 1_555
Na5 O64 2.481034 1_555
Na5 O27 2.492463 1_555
Na5 O6 2.747546 1_555
Na5 O23 2.797320 1_565
Na5 O13 2.838237 1_565
Na6 O40 2.390100 1_655
Na6 O55 2.416805 1_555
Na6 O54 2.488951 1_555
Na6 O41 2.491987 1_555
Na6 O19 2.529600 1_556
Na6 O4 2.629885 1_555
Na6 O26 2.797757 1_655
Na6 O33 2.860814 1_655
Na7 O41 2.397083 1_545
Na7 O56 2.407807 1_555
Na7 O39 2.443012 1_655
Na7 O55 2.464321 1_555
Na7 O20 2.591379 1_556
Na7 O5 2.644957 1_555
Na7 O24 2.780883 1_545
Na7 O34 2.805546 1_545
Na8 O54 2.405879 1_555
Na8 O39 2.427168 1_555
Na8 O56 2.493388 1_555
Na8 O18 2.500197 1_556
Na8 O40 2.505836 1_545
Na8 O3 2.591223 1_555
Na8 O25 2.698672 1_555
Na8 O35 2.873884 1_555
Na9 O38 2.344837 1_555
Na9 O37 2.349978 1_445
Na9 O36 2.354049 1_545
Na9 O43 2.590186 1_555
Na9 O42 2.594144 1_455
Na9 O44 2.709183 1_445
Na10 O45 2.457960 1_445
Na10 O47 2.460823 1_555
Na10 O40 2.470584 1_544
Na10 O39 2.483625 1_554
Na10 O46 2.527735 1_455
Na10 O41 2.559110 1_444
Na11 O49 2.415351 1_555
Na11 O50 2.474692 1_555
Na11 O56 2.504621 1_555
Na11 O48 2.512738 1_555
Na11 O54 2.525891 1_555
Na11 O55 2.545150 1_555
Na12 O51 2.486663 1_555
Na12 O52 2.500754 1_555
Na12 O57 2.505951 1_555
Na12 O53 2.519806 1_555
Na12 O59 2.521271 1_555
Na12 O58 2.604690 1_555
Na13 O61 2.373109 1_555
Na13 O60 2.378626 1_555
Na13 O62 2.456738 1_555
Na13 O67 2.640148 1_555
Na13 O68 2.654086 1_555
Na13 O66 2.664960 1_555
Na14 O64 2.382122 1_555
Na14 O63 2.468261 1_555
Na14 O65 2.478659 1_555
Na14 O71 2.567656 1_555
Na14 O69 2.589609 1_555
Na14 O70 2.660146 1_555
Nb0 O7 1.942155 1_555
Nb0 O8 1.965415 1_545
Nb0 O6 1.965500 1_445
Nb0 O43 1.991012 1_555
Nb0 O42 1.995600 1_455
Nb0 O44 2.034829 1_445
Nb1 O11 1.946350 1_555
Nb1 O10 1.977285 1_565
Nb1 O45 1.987737 1_455
Nb1 O47 1.990395 1_565
Nb1 O9 1.997164 1_455
Nb1 O46 2.096219 1_465
Nb2 O14 1.921577 1_555
Nb2 O13 1.945569 1_555
Nb2 O49 1.985519 1_555
Nb2 O12 2.036843 1_555
Nb2 O50 2.058243 1_555
Nb2 O48 2.074996 1_555
Nb3 O23 1.959674 1_555
Nb3 O57 1.967192 1_555
Nb3 O21 1.970235 1_555
Nb3 O59 1.971012 1_555
Nb3 O22 1.991172 1_555
Nb3 O58 2.059682 1_555
Nb4 O30 1.909001 1_555
Nb4 O31 1.910287 1_555
Nb4 O32 1.995104 1_555
Nb4 O66 2.017052 1_555
Nb4 O68 2.039774 1_555
Nb4 O67 2.049062 1_555
Nb5 O34 1.935414 1_555
Nb5 O71 1.960032 1_555
Nb5 O70 1.963416 1_555
Nb5 O33 2.022221 1_555
Nb5 O69 2.034437 1_555
Nb5 O35 2.046245 1_555
Ge0 O1 1.875504 1_555
Ge0 O2 1.899088 1_565
Ge0 O36 1.909998 1_655
Ge0 O37 1.914294 1_555
Ge0 O0 1.921435 1_665
Ge0 O38 2.091221 1_665
Ge1 O3 1.837797 1_555
Ge1 O4 1.854369 1_445
Ge1 O5 1.870313 1_455
Ge1 O39 1.951768 1_555
Ge1 O40 1.974075 1_545
Ge1 O41 2.116469 1_445
Ge2 O15 1.848858 1_555
Ge2 O17 1.856544 1_555
Ge2 O51 1.945613 1_555
Ge2 O52 1.985236 1_555
Ge2 O53 1.989818 1_555
Ge2 O16 1.994975 1_555
Ge3 O19 1.823785 1_556
Ge3 O18 1.824706 1_556
Ge3 O20 1.880515 1_556
Ge3 O56 1.964731 1_555
Ge3 O55 1.978190 1_555
Ge3 O54 2.145901 1_555
Ge4 O61 1.857775 1_555
Ge4 O25 1.872072 1_554
Ge4 O60 1.872292 1_555
Ge4 O26 1.886879 1_554
Ge4 O62 2.050027 1_555
Ge4 O24 2.082738 1_554
Ge5 O29 1.875387 1_555
Ge5 O27 1.882288 1_555
Ge5 O64 1.929052 1_555
Ge5 O28 1.931371 1_555
Ge5 O65 1.939215 1_555
Ge5 O63 1.978534 1_555
O0 Si0 1.621807 1_555
O1 Si1 1.627031 1_555
O2 Si2 1.627849 1_555
O3 Si3 1.627649 1_555
O4 Si4 1.625674 1_555
O5 Si5 1.640205 1_545
O6 Si5 1.631490 1_555
O7 Si3 1.639183 1_555
O8 Si4 1.627659 1_455
O9 Si1 1.629584 1_555
O10 Si2 1.631371 1_455
O11 Si0 1.638446 1_565
O12 Si6 1.658775 1_555
O13 Si7 1.656668 1_555
O14 Si8 1.657311 1_555
O15 Si9 1.643841 1_555
O16 P0 1.557941 1_555
O17 Si10 1.645787 1_555
O18 Si10 1.644092 1_555
O19 Si9 1.641989 1_555
O20 P0 1.562997 1_555
O21 Si7 1.606915 1_555
O22 Si8 1.611336 1_555
O23 Si6 1.629192 1_555
O24 P1 1.542943 1_555
O25 Si11 1.627151 1_555
O26 Si12 1.623340 1_555
O27 Si13 1.637075 1_555
O28 P2 1.541643 1_555
O29 Si14 1.636294 1_555
O30 Si14 1.656285 1_555
O31 Si13 1.652676 1_555
O32 P2 1.571303 1_555
O33 Si11 1.653909 1_555
O34 Si12 1.660603 1_555
O35 P1 1.561858 1_555
O36 Si14 1.613882 1_555
O37 Si13 1.614044 1_555
O38 P2 1.519933 1_555
O39 Si11 1.660803 1_555
O40 Si12 1.652553 1_555
O41 P1 1.558398 1_555
O42 Si6 1.630556 1_555
O43 Si7 1.629278 1_555
O44 Si8 1.650342 1_555
O45 Si9 1.655276 1_555
O46 P0 1.550935 1_555
O47 Si10 1.661118 1_555
O48 Si5 1.632493 1_545
O49 Si3 1.617927 1_555
O50 Si4 1.630935 1_555
O51 Si1 1.650019 1_555
O52 Si2 1.649470 1_555
O53 Si0 1.641987 1_555
O54 P1 1.553874 1_555
O55 Si11 1.654303 1_655
O56 Si12 1.651497 1_545
O57 Si13 1.647584 1_545
O58 P2 1.552879 1_555
O59 Si14 1.646168 1_655
O60 Si10 1.643816 1_555
O61 Si9 1.641700 1_455
O62 P0 1.545040 1_565
O63 Si7 1.630238 1_565
O64 Si8 1.612011 1_555
O65 Si6 1.613143 1_455
O66 Si0 1.654647 1_565
O67 Si1 1.650821 1_555
O68 Si2 1.652898 1_455
O69 Si3 1.632795 1_555
O70 Si4 1.653763 1_455
O71 Si5 1.626615 1_555
