# generated using pymatgen
data_MgFe2S2(O4F)2
_symmetry_space_group_name_H-M   'P 1'
_cell_length_a   5.66714186
_cell_length_b   5.20485279
_cell_length_c   7.63920974
_cell_angle_alpha   68.06233849
_cell_angle_beta   68.53006980
_cell_angle_gamma   85.46328410
_symmetry_Int_Tables_number   1
_chemical_formula_structural   MgFe2S2(O4F)2
_chemical_formula_sum   'Mg1 Fe2 S2 O8 F2'
_cell_volume   194.07723341
_cell_formula_units_Z   1
loop_
 _symmetry_equiv_pos_site_id
 _symmetry_equiv_pos_as_xyz
  1  'x, y, z'
loop_
 _atom_site_type_symbol
 _atom_site_label
 _atom_site_symmetry_multiplicity
 _atom_site_fract_x
 _atom_site_fract_y
 _atom_site_fract_z
 _atom_site_occupancy
  Mg  Mg0  1  0.58612500  0.43132700  0.35162000  1
  Fe  Fe0  1  0.98918100  0.49599300  0.51889600  1
  Fe  Fe1  1  0.01471600  0.01298300  0.98600100  1
  S  S0  1  0.62074300  0.92119400  0.74117900  1
  S  S1  1  0.37534500  0.07246800  0.25615900  1
  O  O0  1  0.74120900  0.77499300  0.60189500  1
  O  O1  1  0.25793200  0.19761600  0.41581100  1
  O  O2  1  0.66145000  0.23268800  0.60600600  1
  O  O3  1  0.35670000  0.75932500  0.35406900  1
  O  O4  1  0.34659400  0.84513300  0.83757300  1
  O  O5  1  0.65014500  0.17726600  0.17237800  1
  O  O6  1  0.74014500  0.87300800  0.89205500  1
  O  O7  1  0.25226800  0.15898100  0.10863400  1
  F  F0  1  0.90966100  0.64200300  0.24274500  1
  F  F1  1  0.08111900  0.37169000  0.76021500  1
loop_
_geom_bond_atom_site_label_1
_geom_bond_atom_site_label_2
_geom_bond_distance
_geom_bond_site_symmetry_2
Mg0 O2 2.015885 1_555
Mg0 O3 2.064029 1_555
Mg0 O1 2.103337 1_555
Mg0 O5 2.160668 1_555
Fe0 O0 2.049024 1_555
Fe0 O2 2.141740 1_555
Fe0 O1 2.239038 1_655
Fe0 O3 2.245957 1_655
Fe1 O4 2.122600 1_545
Fe1 O6 2.203307 1_445
Fe1 O7 2.210071 1_556
Fe1 O5 2.346013 1_456
O0 S0 1.472521 1_555
O1 S1 1.511778 1_555
O2 S0 1.543349 1_545
O3 S1 1.511809 1_565
O4 S0 1.467913 1_555
O5 S1 1.508752 1_555
O6 S0 1.475562 1_555
O7 S1 1.451167 1_555
F0 Mg0 1.943257 1_555
F0 Fe1 2.104035 1_664
F0 Fe0 2.162124 1_555
F1 Fe1 1.957605 1_555
F1 Fe0 1.961403 1_455
