# generated using pymatgen
data_Na4NbIn3Si3(SO8)3
_symmetry_space_group_name_H-M   'P 1'
_cell_length_a   9.10421273
_cell_length_b   9.11012320
_cell_length_c   22.98357231
_cell_angle_alpha   89.98570757
_cell_angle_beta   90.10367103
_cell_angle_gamma   119.86989073
_symmetry_Int_Tables_number   1
_chemical_formula_structural   Na4NbIn3Si3(SO8)3
_chemical_formula_sum   'Na12 Nb3 In9 Si9 S9 O72'
_cell_volume   1653.03433408
_cell_formula_units_Z   3
loop_
 _symmetry_equiv_pos_site_id
 _symmetry_equiv_pos_as_xyz
  1  'x, y, z'
loop_
 _atom_site_type_symbol
 _atom_site_label
 _atom_site_symmetry_multiplicity
 _atom_site_fract_x
 _atom_site_fract_y
 _atom_site_fract_z
 _atom_site_occupancy
  Na  Na0  1  0.64025695  0.00159212  0.25191582  1
  Na  Na1  1  0.36094183  0.35899309  0.25165827  1
  Na  Na2  1  0.99784876  0.63611852  0.25283930  1
  Na  Na3  1  0.30507447  0.34382024  0.58634995  1
  Na  Na4  1  0.66257051  0.96148850  0.58632441  1
  Na  Na5  1  0.29016341  0.95765564  0.08501544  1
  Na  Na6  1  0.00076404  0.98747502  0.50334530  1
  Na  Na7  1  0.98525063  0.00082879  0.98820606  1
  Na  Na8  1  0.66668757  0.33305115  0.82593173  1
  Na  Na9  1  0.66747490  0.33352205  0.32586370  1
  Na  Na10  1  0.33389693  0.65224375  0.17638039  1
  Na  Na11  1  0.31479918  0.66745741  0.65833554  1
  Nb  Nb0  1  0.66880400  0.33480358  0.97068554  1
  Nb  Nb1  1  0.67008412  0.33569069  0.48739084  1
  Nb  Nb2  1  0.33399942  0.66722370  0.82258093  1
  In  In0  1  0.99996991  0.00035703  0.34369978  1
  In  In1  1  0.00142109  0.99979953  0.85383001  1
  In  In2  1  0.00241808  0.99314204  0.64367298  1
  In  In3  1  0.99413378  0.00049211  0.15765855  1
  In  In4  1  0.66974807  0.33722411  0.67959417  1
  In  In5  1  0.66984259  0.33690650  0.18447613  1
  In  In6  1  0.33358906  0.66241188  0.01131039  1
  In  In7  1  0.32511662  0.66598908  0.51820588  1
  In  In8  1  0.33300326  0.66844622  0.31680013  1
  Si  Si0  1  0.29615702  0.99990526  0.24658007  1
  Si  Si1  1  0.70331563  0.70398189  0.25051229  1
  Si  Si2  1  0.00124174  0.29631673  0.25026288  1
  Si  Si3  1  0.96265532  0.33474340  0.58692202  1
  Si  Si4  1  0.37623587  0.04062557  0.58551843  1
  Si  Si5  1  0.66472076  0.62693957  0.58460626  1
  Si  Si6  1  0.62984607  0.67153359  0.91959617  1
  Si  Si7  1  0.04172991  0.37062382  0.91902850  1
  Si  Si8  1  0.32971390  0.95844460  0.92216135  1
  S  S0  1  0.29789957  0.30295544  0.75034926  1
  S  S1  1  0.00553161  0.70360735  0.75128332  1
  S  S2  1  0.69661946  0.99473415  0.75055455  1
  S  S3  1  0.95922975  0.62562915  0.08070217  1
  S  S4  1  0.66707986  0.04316014  0.08074405  1
  S  S5  1  0.37731640  0.33461802  0.08066098  1
  S  S6  1  0.63540706  0.97146562  0.41825618  1
  S  S7  1  0.33624059  0.36403553  0.41795471  1
  S  S8  1  0.02795798  0.66422714  0.41686431  1
  O  O0  1  0.21719999  0.05095703  0.30103210  1
  O  O1  1  0.82981665  0.77560542  0.30624380  1
  O  O2  1  0.94585972  0.17075964  0.30621085  1
  O  O3  1  0.20807793  0.19496289  0.80034779  1
  O  O4  1  0.98698883  0.78891392  0.80264249  1
  O  O5  1  0.80491482  0.01137708  0.80040846  1
  O  O6  1  0.76769954  0.97256113  0.69498743  1
  O  O7  1  0.20420488  0.23018575  0.69476855  1
  O  O8  1  0.02806269  0.80141529  0.69707468  1
  O  O9  1  0.77014456  0.82541412  0.19269020  1
  O  O10  1  0.05758947  0.22957543  0.19271096  1
  O  O11  1  0.18601428  0.95528571  0.18506178  1
  O  O12  1  0.89063537  0.37220429  0.64479737  1
  O  O13  1  0.49297892  0.11229075  0.64266956  1
  O  O14  1  0.61401878  0.50676346  0.64093751  1
  O  O15  1  0.88318636  0.53755078  0.13601627  1
  O  O16  1  0.64902184  0.12063750  0.13536716  1
  O  O17  1  0.46643295  0.34774773  0.13632389  1
  O  O18  1  0.48051088  0.32648138  0.03113462  1
  O  O19  1  0.85322324  0.52394594  0.03029949  1
  O  O20  1  0.67528088  0.15137346  0.03018594  1
  O  O21  1  0.48298655  0.17050080  0.52825550  1
  O  O22  1  0.68839864  0.52190003  0.52743996  1
  O  O23  1  0.83516849  0.31462128  0.52916038  1
  O  O24  1  0.55708008  0.70368259  0.97785633  1
  O  O25  1  0.14369414  0.44435003  0.97772106  1
  O  O26  1  0.30450559  0.86347680  0.98317210  1
  O  O27  1  0.54797009  0.86860123  0.47017767  1
  O  O28  1  0.32088764  0.45066385  0.47023777  1
  O  O29  1  0.13459356  0.68097069  0.46759025  1
  O  O30  1  0.10208479  0.64183639  0.36229375  1
  O  O31  1  0.53569897  0.89428984  0.36440204  1
  O  O32  1  0.35661764  0.46363841  0.36444145  1
  O  O33  1  0.14123405  0.50350094  0.86260992  1
  O  O34  1  0.36201383  0.85405220  0.86680234  1
  O  O35  1  0.49571434  0.63548538  0.86299327  1
  O  O36  1  0.00881128  0.81620693  0.41533470  1
  O  O37  1  0.80611845  0.99001668  0.41601936  1
  O  O38  1  0.18501669  0.19270046  0.41547019  1
  O  O39  1  -0.00015057  0.18302759  0.90639152  1
  O  O40  1  0.18209353  0.99695545  0.90823629  1
  O  O41  1  0.81668589  0.81682452  0.90647486  1
  O  O42  1  0.95899609  0.15308718  0.58602935  1
  O  O43  1  0.20196832  0.04879923  0.58501588  1
  O  O44  1  0.83383236  0.81157180  0.58520877  1
  O  O45  1  0.97242798  0.79517947  0.07882684  1
  O  O46  1  0.82191818  0.02987720  0.08059875  1
  O  O47  1  0.21258476  0.17205858  0.07908613  1
  O  O48  1  0.67529851  0.14655842  0.74961575  1
  O  O49  1  0.47113867  0.32412593  0.74918276  1
  O  O50  1  0.85336889  0.53103448  0.74873704  1
  O  O51  1  0.67831280  0.51465266  0.24274389  1
  O  O52  1  0.83685349  0.32128577  0.24211194  1
  O  O53  1  0.48663198  0.16336768  0.24119637  1
  O  O54  1  0.63263828  0.48804397  0.92595610  1
  O  O55  1  0.85517818  0.36773667  0.92487094  1
  O  O56  1  0.51292824  0.14524931  0.92648825  1
  O  O57  1  0.65013826  0.14368828  0.42324676  1
  O  O58  1  0.49421679  0.34982367  0.42275598  1
  O  O59  1  0.85720157  0.50679749  0.42292710  1
  O  O60  1  0.35514734  0.48415796  0.07775480  1
  O  O61  1  0.13303540  0.64722299  0.07894154  1
  O  O62  1  0.50866022  0.87480586  0.07828353  1
  O  O63  1  0.36220349  0.85977247  0.57415700  1
  O  O64  1  0.50103209  0.64801835  0.57236903  1
  O  O65  1  0.15400889  0.48627765  0.57588113  1
  O  O66  1  0.31389841  0.83173533  0.25679914  1
  O  O67  1  0.51511313  0.68160631  0.25949623  1
  O  O68  1  0.16625688  0.48437197  0.25947167  1
  O  O69  1  0.31221027  0.47483943  0.75721595  1
  O  O70  1  0.16285218  0.68796101  0.75749696  1
  O  O71  1  0.52350542  0.83810140  0.75791305  1
loop_
_geom_bond_atom_site_label_1
_geom_bond_atom_site_label_2
_geom_bond_distance
_geom_bond_site_symmetry_2
Na0 O53 2.498141 1_555
Na0 O67 2.553146 1_545
Na0 O52 2.558417 1_555
Na0 O66 2.580082 1_545
Na0 O2 2.718601 1_555
Na0 O31 2.761604 1_545
Na0 O9 2.779336 1_545
Na0 O16 2.875957 1_555
Na1 O51 2.514426 1_555
Na1 O68 2.548786 1_555
Na1 O67 2.555558 1_555
Na1 O53 2.564359 1_555
Na1 O0 2.687223 1_555
Na1 O10 2.756257 1_555
Na1 O32 2.769237 1_555
Na1 O17 2.840240 1_555
Na2 O52 2.499432 1_555
Na2 O66 2.520917 1_655
Na2 O68 2.528913 1_655
Na2 O51 2.555883 1_555
Na2 O30 2.678431 1_655
Na2 O1 2.721315 1_555
Na2 O15 2.857048 1_555
Na2 O11 2.976861 1_655
Na3 O65 2.325998 1_555
Na3 O43 2.364879 1_555
Na3 O64 2.458265 1_555
Na3 O7 2.680370 1_555
Na3 O42 2.737400 1_455
Na3 O14 2.741932 1_555
Na3 O28 2.819660 1_555
Na4 O42 2.374423 1_565
Na4 O63 2.426575 1_555
Na4 O64 2.497294 1_555
Na4 O44 2.533447 1_555
Na4 O6 2.656856 1_555
Na4 O27 2.835901 1_555
Na4 O13 2.840660 1_565
Na5 O47 2.388766 1_565
Na5 O61 2.456356 1_555
Na5 O62 2.459144 1_555
Na5 O11 2.484826 1_555
Na5 O45 2.512521 1_455
Na5 O26 2.519100 1_554
Na6 O44 2.449657 1_455
Na6 O43 2.481893 1_565
Na6 O42 2.570575 1_465
Na6 O36 2.578276 1_555
Na6 O37 2.682747 1_455
Na6 O38 2.697225 1_565
Na7 O39 2.467438 1_655
Na7 O41 2.474375 1_545
Na7 O40 2.581863 1_645
Na7 O46 2.682205 1_556
Na7 O45 2.764541 1_546
Na7 O47 2.801785 1_656
Na8 O48 2.470601 1_555
Na8 O49 2.476336 1_555
Na8 O50 2.499099 1_555
Na8 O55 2.767994 1_555
Na8 O54 2.795542 1_555
Na8 O56 2.802200 1_555
Na9 O51 2.493825 1_555
Na9 O52 2.505542 1_555
Na9 O53 2.519556 1_555
Na9 O58 2.777699 1_555
Na9 O59 2.779225 1_555
Na9 O57 2.784387 1_555
Na10 O67 2.447856 1_555
Na10 O68 2.449385 1_555
Na10 O66 2.534270 1_555
Na10 O60 2.796230 1_555
Na10 O61 2.874618 1_555
Na10 O62 2.919459 1_555
Na11 O65 2.458353 1_555
Na11 O63 2.499428 1_555
Na11 O64 2.668581 1_555
Na11 O70 2.722461 1_555
Na11 O69 2.863847 1_555
Na11 O71 2.882505 1_555
Nb0 O54 1.889476 1_555
Nb0 O55 1.891327 1_555
Nb0 O56 1.892753 1_555
Nb0 O18 2.180321 1_556
Nb0 O20 2.182388 1_556
Nb0 O19 2.185535 1_556
Nb1 O22 1.863140 1_555
Nb1 O23 1.870669 1_555
Nb1 O21 1.870856 1_555
Nb1 O59 2.211347 1_555
Nb1 O57 2.224845 1_555
Nb1 O58 2.232414 1_555
Nb2 O35 1.879595 1_555
Nb2 O33 1.883849 1_555
Nb2 O34 1.887456 1_555
Nb2 O71 2.223063 1_555
Nb2 O70 2.232889 1_555
Nb2 O69 2.240984 1_555
In0 O2 2.038269 1_555
In0 O1 2.042027 1_545
In0 O0 2.045538 1_655
In0 O36 2.379977 1_645
In0 O38 2.383404 1_655
In0 O37 2.394023 1_545
In1 O39 2.066587 1_565
In1 O41 2.070068 1_455
In1 O40 2.074830 1_555
In1 O4 2.200333 1_455
In1 O3 2.210715 1_565
In1 O5 2.213424 1_465
In2 O44 2.088603 1_455
In2 O43 2.113327 1_565
In2 O42 2.146073 1_465
In2 O8 2.239602 1_555
In2 O7 2.336527 1_565
In2 O6 2.366959 1_455
In3 O9 2.028867 1_545
In3 O10 2.033836 1_655
In3 O11 2.080991 1_645
In3 O46 2.464661 1_555
In3 O45 2.540178 1_545
In3 O47 2.564148 1_655
In4 O12 2.037808 1_555
In4 O14 2.051976 1_555
In4 O13 2.054360 1_555
In4 O50 2.342920 1_555
In4 O49 2.374296 1_555
In4 O48 2.386507 1_555
In5 O52 2.072460 1_555
In5 O51 2.073122 1_555
In5 O53 2.088367 1_555
In5 O16 2.195464 1_555
In5 O15 2.196533 1_555
In5 O17 2.199716 1_555
In6 O25 2.026409 1_554
In6 O24 2.028822 1_554
In6 O26 2.079775 1_554
In6 O60 2.307141 1_555
In6 O61 2.351101 1_555
In6 O62 2.361041 1_555
In7 O63 2.071261 1_555
In7 O65 2.080943 1_555
In7 O64 2.096514 1_555
In7 O29 2.146880 1_555
In7 O28 2.233980 1_555
In7 O27 2.240279 1_555
In8 O67 2.075494 1_555
In8 O68 2.076288 1_555
In8 O66 2.097793 1_555
In8 O31 2.246669 1_555
In8 O30 2.252120 1_555
In8 O32 2.263661 1_555
O0 Si0 1.623531 1_545
O1 Si1 1.624634 1_555
O2 Si2 1.625806 1_655
O3 S0 1.469233 1_555
O4 S1 1.468915 1_655
O5 S2 1.468019 1_545
O6 S2 1.491297 1_555
O7 S0 1.494053 1_555
O8 S1 1.485474 1_555
O9 Si1 1.640698 1_555
O10 Si2 1.641971 1_555
O11 Si0 1.661041 1_555
O12 Si3 1.594379 1_555
O13 Si4 1.607943 1_555
O14 Si5 1.608108 1_555
O15 S3 1.479440 1_555
O16 S4 1.489332 1_555
O17 S5 1.486244 1_555
O18 S5 1.502382 1_555
O19 S3 1.495828 1_555
O20 S4 1.501377 1_555
O21 Si4 1.713205 1_555
O22 Si5 1.701643 1_555
O23 Si3 1.710499 1_555
O24 Si6 1.585660 1_555
O25 Si7 1.583493 1_555
O26 Si8 1.603204 1_555
O27 S6 1.481809 1_555
O28 S7 1.482326 1_555
O29 S8 1.474283 1_555
O30 S8 1.486757 1_555
O31 S6 1.486962 1_555
O32 S7 1.484282 1_555
O33 Si7 1.696654 1_555
O34 Si8 1.700094 1_555
O35 Si6 1.698980 1_555
O36 S8 1.479516 1_555
O37 S6 1.478302 1_555
O38 S7 1.481337 1_555
O39 Si7 1.581545 1_555
O40 Si8 1.581080 1_555
O41 Si6 1.579689 1_555
O42 Si3 1.638706 1_555
O43 Si4 1.624958 1_555
O44 Si5 1.618729 1_555
O45 S3 1.489052 1_555
O46 S4 1.473698 1_555
O47 S5 1.493745 1_555
O48 S2 1.489500 1_545
O49 S0 1.490856 1_555
O50 S1 1.491511 1_655
O51 Si1 1.633280 1_555
O52 Si2 1.632418 1_655
O53 Si0 1.633572 1_545
O54 Si6 1.690708 1_555
O55 Si7 1.691046 1_655
O56 Si8 1.691257 1_545
O57 S6 1.511042 1_545
O58 S7 1.510761 1_555
O59 S8 1.507644 1_655
O60 S5 1.474760 1_555
O61 S3 1.494784 1_455
O62 S4 1.494018 1_565
O63 Si4 1.609195 1_565
O64 Si5 1.618749 1_555
O65 Si3 1.615875 1_455
O66 Si0 1.635419 1_555
O67 Si1 1.635056 1_555
O68 Si2 1.634696 1_555
O69 S0 1.513510 1_555
O70 S1 1.514841 1_555
O71 S2 1.519702 1_555
