# generated using pymatgen
data_NdSb2Pd
_symmetry_space_group_name_H-M   'P 1'
_cell_length_a   4.49572335
_cell_length_b   4.49572335
_cell_length_c   9.88342305
_cell_angle_alpha   90.00000000
_cell_angle_beta   90.00000000
_cell_angle_gamma   90.00000000
_symmetry_Int_Tables_number   1
_chemical_formula_structural   NdSb2Pd
_chemical_formula_sum   'Nd2 Sb4 Pd2'
_cell_volume   199.75908606
_cell_formula_units_Z   2
loop_
 _symmetry_equiv_pos_site_id
 _symmetry_equiv_pos_as_xyz
  1  'x, y, z'
loop_
 _atom_site_type_symbol
 _atom_site_label
 _atom_site_symmetry_multiplicity
 _atom_site_fract_x
 _atom_site_fract_y
 _atom_site_fract_z
 _atom_site_occupancy
  Nd  Nd0  1  0.25000000  0.25000000  0.24919868  1
  Nd  Nd1  1  0.74999900  0.74999900  0.75080032  1
  Sb  Sb0  1  0.25000000  0.25000000  0.85130376  1
  Sb  Sb1  1  0.74999900  0.74999900  0.14869624  1
  Sb  Sb2  1  0.74999900  0.25000000  0.49999900  1
  Sb  Sb3  1  0.25000000  0.74999900  0.49999900  1
  Pd  Pd0  1  0.74999900  0.25000000  0.00000000  1
  Pd  Pd1  1  0.25000000  0.74999900  0.00000000  1
loop_
_geom_bond_atom_site_label_1
_geom_bond_atom_site_label_2
_geom_bond_distance
_geom_bond_site_symmetry_2
Nd0 Sb1 3.330523 1_555
Nd0 Sb1 3.330529 1_545
Nd0 Sb1 3.330529 1_455
Nd0 Sb1 3.330535 1_445
Nd0 Pd1 3.334504 1_555
Nd0 Pd0 3.334504 1_555
Nd0 Pd1 3.334510 1_545
Nd0 Pd0 3.334510 1_455
Nd0 Sb3 3.346213 1_555
Nd0 Sb2 3.346213 1_555
Nd0 Sb3 3.346219 1_545
Nd0 Sb2 3.346219 1_455
Nd1 Sb0 3.330526 1_555
Nd1 Sb0 3.330532 1_655
Nd1 Sb0 3.330532 1_565
Nd1 Sb0 3.330538 1_665
Nd1 Pd0 3.334511 1_556
Nd1 Pd1 3.334511 1_556
Nd1 Pd1 3.334517 1_656
Nd1 Pd0 3.334517 1_566
Nd1 Sb2 3.346220 1_555
Nd1 Sb3 3.346220 1_555
Nd1 Sb3 3.346226 1_655
Nd1 Sb2 3.346226 1_565
Sb2 Sb3 3.178950 1_555
Sb2 Sb3 3.178956 1_655
Sb2 Sb3 3.178956 1_545
Sb2 Sb3 3.178963 1_645
Pd0 Sb1 2.685641 1_555
Pd0 Sb0 2.685641 1_554
Pd0 Sb1 2.685649 1_545
Pd0 Sb0 2.685649 1_654
Pd1 Sb1 2.685641 1_555
Pd1 Sb0 2.685641 1_554
Pd1 Sb1 2.685649 1_455
Pd1 Sb0 2.685649 1_564
