# generated using pymatgen
data_Na2Y4Si3Ge4(S3O16)3
_symmetry_space_group_name_H-M   'P 1'
_cell_length_a   17.70387230
_cell_length_b   8.88638133
_cell_length_c   23.13625077
_cell_angle_alpha   89.55914526
_cell_angle_beta   88.82254830
_cell_angle_gamma   120.27093677
_symmetry_Int_Tables_number   1
_chemical_formula_structural   Na2Y4Si3Ge4(S3O16)3
_chemical_formula_sum   'Na6 Y12 Si9 Ge12 S27 O144'
_cell_volume   3142.23026599
_cell_formula_units_Z   3
loop_
 _symmetry_equiv_pos_site_id
 _symmetry_equiv_pos_as_xyz
  1  'x, y, z'
loop_
 _atom_site_type_symbol
 _atom_site_label
 _atom_site_symmetry_multiplicity
 _atom_site_fract_x
 _atom_site_fract_y
 _atom_site_fract_z
 _atom_site_occupancy
  Na  Na0  1  0.99427328  0.01900565  0.50221144  1
  Na  Na1  1  0.49454849  0.97161976  0.00413288  1
  Na  Na2  1  0.31971907  0.30827717  0.83517391  1
  Na  Na3  1  0.82726594  0.32840394  0.82551230  1
  Na  Na4  1  0.32826359  0.32444602  0.32540309  1
  Na  Na5  1  0.81586333  0.32826388  0.33217688  1
  Y  Y0  1  0.00848851  0.00650012  0.34967714  1
  Y  Y1  1  0.50813205  0.01069155  0.85104378  1
  Y  Y2  1  0.00008358  0.00487232  0.64517382  1
  Y  Y3  1  0.50273070  0.99528765  0.14542734  1
  Y  Y4  1  0.32272937  0.32893055  0.98246704  1
  Y  Y5  1  0.84341572  0.34550660  0.98258944  1
  Y  Y6  1  0.34415225  0.33872543  0.48075809  1
  Y  Y7  1  0.82368203  0.31932261  0.48160456  1
  Y  Y8  1  0.16419083  0.67443752  0.30181291  1
  Y  Y9  1  0.67014852  0.66734336  0.30374297  1
  Y  Y10  1  0.17042660  0.67744335  0.80728980  1
  Y  Y11  1  0.66295696  0.65158393  0.80239968  1
  Si  Si0  1  0.15504632  0.02894125  0.24212697  1
  Si  Si1  1  0.65641660  0.02961971  0.24667185  1
  Si  Si2  1  0.65585312  0.28215775  0.74223402  1
  Si  Si3  1  0.48592623  0.33586453  0.58359657  1
  Si  Si4  1  0.98344434  0.35170951  0.58118243  1
  Si  Si5  1  0.48116343  0.61772276  0.08104350  1
  Si  Si6  1  0.97885755  0.62828913  0.08664320  1
  Si  Si7  1  0.16175151  0.95671982  0.91339010  1
  Si  Si8  1  0.66237100  0.36836342  0.41229553  1
  Ge  Ge0  1  0.52528806  0.03589419  0.35276776  1
  Ge  Ge1  1  0.00363256  0.99320803  0.86001880  1
  Ge  Ge2  1  0.51137190  0.03377084  0.64473492  1
  Ge  Ge3  1  0.00906831  0.98752914  0.14570290  1
  Ge  Ge4  1  0.34615270  0.35078969  0.67760604  1
  Ge  Ge5  1  0.83051864  0.32847056  0.67551110  1
  Ge  Ge6  1  0.33566599  0.35058565  0.18258613  1
  Ge  Ge7  1  0.83866423  0.33198527  0.18417810  1
  Ge  Ge8  1  0.15922963  0.70713790  0.02544466  1
  Ge  Ge9  1  0.66503310  0.67372873  0.02922664  1
  Ge  Ge10  1  0.16508539  0.66445881  0.52195260  1
  Ge  Ge11  1  0.65901056  0.62325929  0.51594559  1
  S  S0  1  0.36230723  0.69691131  0.25392359  1
  S  S1  1  0.86436031  0.70786351  0.24204225  1
  S  S2  1  0.99049814  0.27600353  0.24228797  1
  S  S3  1  0.48851018  0.27526305  0.25237913  1
  S  S4  1  0.15259691  0.27611352  0.75210806  1
  S  S5  1  0.98938536  0.70096107  0.75351340  1
  S  S6  1  0.48729321  0.70074838  0.74214300  1
  S  S7  1  0.36249386  0.02301075  0.74049459  1
  S  S8  1  0.86301730  0.02880568  0.75480968  1
  S  S9  1  0.19240963  0.02903711  0.58214134  1
  S  S10  1  0.67927685  0.02334537  0.58863169  1
  S  S11  1  0.33484766  0.63536180  0.58730049  1
  S  S12  1  0.82375673  0.62202140  0.58151574  1
  S  S13  1  0.32444434  0.02682307  0.08216524  1
  S  S14  1  0.83431708  0.03143855  0.08758117  1
  S  S15  1  0.17851652  0.33643208  0.08866433  1
  S  S16  1  0.68973718  0.35532332  0.07985240  1
  S  S17  1  0.30808359  0.67842286  0.92198634  1
  S  S18  1  0.81395262  0.68140818  0.91526365  1
  S  S19  1  0.02290752  0.35747267  0.91356476  1
  S  S20  1  0.52671511  0.37922554  0.92317688  1
  S  S21  1  0.66490540  0.94285791  0.92219061  1
  S  S22  1  0.31345844  0.94297621  0.41599626  1
  S  S23  1  0.80751460  0.93593032  0.42282985  1
  S  S24  1  0.16407562  0.38440193  0.42256316  1
  S  S25  1  0.02712920  0.67503667  0.42202239  1
  S  S26  1  0.52638050  0.69148665  0.41441233  1
  O  O0  1  0.12206252  0.07463745  0.30220358  1
  O  O1  1  0.61146187  0.06678309  0.30630951  1
  O  O2  1  0.41693995  0.77809810  0.30435795  1
  O  O3  1  0.91380898  0.78396944  0.29523920  1
  O  O4  1  0.47367041  0.16118425  0.30614478  1
  O  O5  1  0.97387315  0.17370634  0.29684527  1
  O  O6  1  0.11065067  0.16657204  0.80589355  1
  O  O7  1  0.62158195  0.16707930  0.80199147  1
  O  O8  1  0.46999598  0.76720315  0.79619882  1
  O  O9  1  0.97582850  0.78515500  0.80697165  1
  O  O10  1  0.41187707  0.05043439  0.79381462  1
  O  O11  1  0.91752015  0.05355786  0.80659039  1
  O  O12  1  0.40646751  0.99805534  0.68951699  1
  O  O13  1  0.89912726  0.99426076  0.70250794  1
  O  O14  1  0.10136481  0.19725179  0.70111410  1
  O  O15  1  0.58844095  0.18125111  0.69072763  1
  O  O16  1  0.00437762  0.80729018  0.70156454  1
  O  O17  1  0.49815320  0.80867034  0.69130199  1
  O  O18  1  0.39341796  0.79925186  0.20039731  1
  O  O19  1  0.90628343  0.82600194  0.19081890  1
  O  O20  1  0.00069423  0.19043810  0.19164526  1
  O  O21  1  0.50067542  0.19995048  0.20021761  1
  O  O22  1  0.08808006  0.99631952  0.19080848  1
  O  O23  1  0.59886388  0.99775401  0.19232936  1
  O  O24  1  0.44034938  0.38152048  0.64035265  1
  O  O25  1  0.92958384  0.37546473  0.64131396  1
  O  O26  1  0.24496491  0.11240837  0.63458515  1
  O  O27  1  0.73813200  0.11300515  0.63912806  1
  O  O28  1  0.31042006  0.50564090  0.64036995  1
  O  O29  1  0.80857071  0.51011783  0.63447202  1
  O  O30  1  0.42965023  0.48559287  0.14125849  1
  O  O31  1  0.92797497  0.48288501  0.14084231  1
  O  O32  1  0.30877746  0.10432361  0.13376227  1
  O  O33  1  0.81118684  0.10773861  0.13821630  1
  O  O34  1  0.23661394  0.36368091  0.13875732  1
  O  O35  1  0.74031631  0.37523643  0.13175502  1
  O  O36  1  0.20997175  0.28570437  0.03749040  1
  O  O37  1  0.72523904  0.31616172  0.02787097  1
  O  O38  1  0.42458209  0.52946593  0.02637237  1
  O  O39  1  0.92445274  0.55624118  0.02958103  1
  O  O40  1  0.33639434  0.12507819  0.02877993  1
  O  O41  1  0.85178293  0.13983791  0.03513723  1
  O  O42  1  0.22628740  0.14157123  0.53036554  1
  O  O43  1  0.71064354  0.14025466  0.53801577  1
  O  O44  1  0.35295805  0.55917197  0.53676339  1
  O  O45  1  0.84054909  0.54967190  0.52991955  1
  O  O46  1  0.42457461  0.29279780  0.52995495  1
  O  O47  1  0.92416589  0.31513829  0.52707709  1
  O  O48  1  0.26127917  0.68558314  0.97553872  1
  O  O49  1  0.77643641  0.70581748  0.96982592  1
  O  O50  1  0.06958040  0.43056471  0.96667171  1
  O  O51  1  0.58145074  0.46727358  0.97397099  1
  O  O52  1  0.14758034  0.84002270  0.97490760  1
  O  O53  1  0.65715839  0.84175883  0.97768172  1
  O  O54  1  0.27207159  0.83805844  0.47338044  1
  O  O55  1  0.75995055  0.83275316  0.47871154  1
  O  O56  1  0.15534546  0.46775227  0.47788771  1
  O  O57  1  0.64817350  0.45466009  0.47330540  1
  O  O58  1  0.08106116  0.69469951  0.47413697  1
  O  O59  1  0.57308419  0.70838454  0.46903141  1
  O  O60  1  0.06833975  0.66166938  0.36848307  1
  O  O61  1  0.56781557  0.66323344  0.36424917  1
  O  O62  1  0.25624880  0.86111876  0.36746992  1
  O  O63  1  0.76180787  0.85575472  0.37061747  1
  O  O64  1  0.16978984  0.48247159  0.37070719  1
  O  O65  1  0.68017724  0.48732899  0.35693744  1
  O  O66  1  0.06540739  0.46307134  0.86149069  1
  O  O67  1  0.56734110  0.47474484  0.86841487  1
  O  O68  1  0.17571547  0.86753647  0.85811206  1
  O  O69  1  0.67078231  0.85734896  0.87029480  1
  O  O70  1  0.26320484  0.66706532  0.86820399  1
  O  O71  1  0.76078919  0.65690040  0.86498544  1
  O  O72  1  0.01960097  0.83404105  0.42070769  1
  O  O73  1  0.51982659  0.85325357  0.40736282  1
  O  O74  1  0.39796781  0.95264689  0.40868631  1
  O  O75  1  0.89514204  0.95248061  0.42272643  1
  O  O76  1  0.08354298  0.20908973  0.42273478  1
  O  O77  1  0.56670670  0.18300813  0.40883953  1
  O  O78  1  0.01561421  0.17998998  0.90713245  1
  O  O79  1  0.51877707  0.20381454  0.92053726  1
  O  O80  1  0.06866086  0.95739955  0.90744351  1
  O  O81  1  0.58395707  0.95498569  0.92203843  1
  O  O82  1  0.39644592  0.83816177  0.91965483  1
  O  O83  1  0.90127911  0.84800679  0.90721746  1
  O  O84  1  0.49737629  0.16642191  0.59519595  1
  O  O85  1  0.00008039  0.19056294  0.58984461  1
  O  O86  1  0.10112241  0.98721840  0.59054234  1
  O  O87  1  0.58683034  0.98707891  0.59995486  1
  O  O88  1  0.41027980  0.80498419  0.60008364  1
  O  O89  1  0.90061502  0.79716227  0.58885772  1
  O  O90  1  0.49617384  0.81059967  0.08548064  1
  O  O91  1  0.99426959  0.82281174  0.09779583  1
  O  O92  1  0.39871733  0.99932609  0.08715700  1
  O  O93  1  0.90896924  0.00824458  0.09856306  1
  O  O94  1  0.08587610  0.18505873  0.09908167  1
  O  O95  1  0.59744505  0.21922133  0.08541749  1
  O  O96  1  0.35277557  0.18294661  0.73463754  1
  O  O97  1  0.85835684  0.18996378  0.74652954  1
  O  O98  1  0.24115666  0.28864582  0.74513603  1
  O  O99  1  0.75375046  0.30172271  0.72951132  1
  O  O100  1  0.40459812  0.51884017  0.73739948  1
  O  O101  1  0.90890207  0.52981850  0.74879187  1
  O  O102  1  0.35833495  0.52335658  0.24539654  1
  O  O103  1  0.86110005  0.53834086  0.23623658  1
  O  O104  1  0.40775662  0.28755521  0.24879925  1
  O  O105  1  0.91027012  0.29444878  0.23831958  1
  O  O106  1  0.25322503  0.20389137  0.22989125  1
  O  O107  1  0.75301522  0.21837716  0.23613846  1
  O  O108  1  0.31903762  0.52450591  0.92278443  1
  O  O109  1  0.82776150  0.53023501  0.91894379  1
  O  O110  1  0.43905509  0.35759438  0.92622477  1
  O  O111  1  0.93243482  0.32887933  0.91611552  1
  O  O112  1  0.24423020  0.15009163  0.91653907  1
  O  O113  1  0.74219117  0.11890929  0.92450394  1
  O  O114  1  0.32369179  0.11983260  0.42103513  1
  O  O115  1  0.81762814  0.11015172  0.42532483  1
  O  O116  1  0.24183453  0.36504217  0.42554919  1
  O  O117  1  0.74257288  0.33273662  0.41755126  1
  O  O118  1  0.43533269  0.53997061  0.41853441  1
  O  O119  1  0.93973977  0.52023307  0.42590898  1
  O  O120  1  0.17422881  0.49462003  0.07927813  1
  O  O121  1  0.69525409  0.53064027  0.07162706  1
  O  O122  1  0.07448380  0.63692283  0.07769214  1
  O  O123  1  0.57838422  0.62965387  0.07688247  1
  O  O124  1  0.24290669  0.84558232  0.07759864  1
  O  O125  1  0.75368141  0.85491683  0.07809599  1
  O  O126  1  0.19317504  0.86290370  0.57374289  1
  O  O127  1  0.67556300  0.85834722  0.58016602  1
  O  O128  1  0.25562486  0.65015885  0.57901301  1
  O  O129  1  0.74484526  0.63939795  0.57528198  1
  O  O130  1  0.08200405  0.53227237  0.57398923  1
  O  O131  1  0.58019516  0.51824719  0.57235465  1
  O  O132  1  0.16570647  0.86173140  0.24865840  1
  O  O133  1  0.67755338  0.88113065  0.26022870  1
  O  O134  1  0.27196489  0.65572449  0.26442345  1
  O  O135  1  0.77675911  0.68241679  0.24547397  1
  O  O136  1  0.06762660  0.44960684  0.24804460  1
  O  O137  1  0.56385725  0.44951280  0.25831269  1
  O  O138  1  0.16486226  0.44990041  0.75866546  1
  O  O139  1  0.66623948  0.47039085  0.74877504  1
  O  O140  1  0.06469711  0.67626149  0.75895182  1
  O  O141  1  0.56292189  0.67714020  0.74774214  1
  O  O142  1  0.27553169  0.86769739  0.74453568  1
  O  O143  1  0.77377285  0.88178792  0.76325314  1
loop_
_geom_bond_atom_site_label_1
_geom_bond_atom_site_label_2
_geom_bond_distance
_geom_bond_site_symmetry_2
Na0 O76 2.423530 1_655
Na0 O75 2.432031 1_545
Na0 O85 2.518656 1_655
Na0 O89 2.676091 1_545
Na0 O72 2.685986 1_645
Na0 O86 2.919469 1_645
Na1 O90 2.364908 1_555
Na1 O81 2.500313 1_554
Na1 O82 2.518256 1_554
Na1 O92 2.631200 1_555
Na1 O79 2.682235 1_564
Na1 O95 2.803561 1_565
Na2 O112 2.295147 1_555
Na2 O98 2.486852 1_555
Na2 O96 2.763037 1_555
Na2 O100 2.799449 1_555
Na2 O108 2.807707 1_555
Na2 O110 2.890832 1_555
Na3 O101 2.383438 1_555
Na3 O97 2.414882 1_555
Na3 O99 2.549360 1_555
Na3 O109 2.816774 1_555
Na3 O113 2.818766 1_555
Na3 O111 2.830798 1_555
Na4 O104 2.366593 1_555
Na4 O102 2.407205 1_555
Na4 O106 2.553021 1_555
Na4 O114 2.826743 1_555
Na4 O116 2.874652 1_555
Na4 O118 2.911224 1_555
Na5 O117 2.352574 1_555
Na5 O107 2.483605 1_555
Na5 O103 2.722012 1_555
Na5 O105 2.822485 1_555
Na5 O115 2.898565 1_555
Na5 O119 2.983827 1_555
Ge0 O77 1.740244 1_555
Ge0 O1 1.750443 1_555
Ge0 O73 2.011027 1_545
Ge0 O4 2.070275 1_555
Ge0 O74 2.342249 1_545
Ge0 O2 2.424768 1_545
Ge1 O80 1.745402 1_555
Ge1 O78 1.915865 1_565
Ge1 O83 1.918505 1_455
Ge1 O9 2.075820 1_455
Ge1 O6 2.112171 1_565
Ge1 O11 2.243062 1_465
Ge2 O15 1.729125 1_555
Ge2 O84 1.746405 1_555
Ge2 O87 1.881158 1_545
Ge2 O12 1.986214 1_545
Ge2 O17 2.168264 1_545
Ge2 O88 2.200829 1_545
Ge3 O22 1.732892 1_555
Ge3 O91 1.757834 1_455
Ge3 O94 1.896800 1_565
Ge3 O19 1.930472 1_455
Ge3 O20 2.166933 1_565
Ge3 O93 2.183827 1_465
Ge4 O24 1.754043 1_555
Ge4 O100 1.935800 1_555
Ge4 O28 1.979324 1_555
Ge4 O96 2.032689 1_555
Ge4 O26 2.228703 1_555
Ge4 O98 2.243603 1_555
Ge5 O99 1.750571 1_555
Ge5 O25 1.753799 1_555
Ge5 O27 1.993475 1_555
Ge5 O29 2.069308 1_555
Ge5 O97 2.251961 1_555
Ge5 O101 2.375242 1_555
Ge6 O106 1.738278 1_555
Ge6 O30 1.739695 1_555
Ge6 O102 2.016710 1_555
Ge6 O34 2.096172 1_555
Ge6 O104 2.253280 1_555
Ge6 O32 2.302496 1_555
Ge7 O31 1.754997 1_555
Ge7 O107 1.768252 1_555
Ge7 O105 1.942309 1_555
Ge7 O103 2.071332 1_555
Ge7 O33 2.101190 1_555
Ge7 O35 2.324788 1_555
Ge8 O52 1.743068 1_554
Ge8 O122 1.752596 1_555
Ge8 O124 1.850136 1_555
Ge8 O48 2.213706 1_554
Ge8 O120 2.381442 1_555
Ge8 O50 2.572147 1_554
Ge9 O123 1.743675 1_555
Ge9 O121 1.885113 1_555
Ge9 O53 1.964819 1_554
Ge9 O125 1.971608 1_555
Ge9 O51 2.136983 1_554
Ge9 O49 2.274965 1_554
Ge10 O130 1.776592 1_555
Ge10 O56 1.963520 1_555
Ge10 O126 1.991411 1_555
Ge10 O58 1.993729 1_555
Ge10 O54 2.042115 1_555
Ge10 O128 2.148955 1_555
Ge11 O57 1.730750 1_555
Ge11 O131 1.764859 1_555
Ge11 O55 1.989805 1_555
Ge11 O129 2.020758 1_555
Ge11 O59 2.297798 1_555
Ge11 O127 2.471084 1_555
O0 Si0 1.628566 1_555
O0 Y0 2.070630 1_555
O1 Si1 1.695042 1_555
O2 S0 1.474243 1_555
O3 S1 1.482827 1_555
O3 Y0 2.256044 1_665
O4 S3 1.530599 1_555
O5 S2 1.484456 1_555
O5 Y0 2.235684 1_655
O6 S4 1.504041 1_555
O7 Si2 1.625918 1_555
O7 Y1 2.078782 1_555
O8 S6 1.478034 1_555
O8 Y1 2.313514 1_565
O9 S5 1.526495 1_555
O10 S7 1.476390 1_555
O10 Y1 2.339676 1_555
O11 S8 1.500751 1_555
O12 S7 1.478732 1_565
O13 S8 1.462518 1_565
O13 Y2 2.166497 1_665
O14 S4 1.456572 1_555
O14 Y2 2.202671 1_555
O15 Si2 1.626173 1_555
O16 S5 1.457528 1_455
O16 Y2 2.212269 1_565
O17 S6 1.458690 1_555
O18 S0 1.453858 1_555
O18 Y3 2.205288 1_555
O19 S1 1.488840 1_555
O20 S2 1.458416 1_455
O21 S3 1.448369 1_555
O21 Y3 2.239699 1_545
O22 Si0 1.617396 1_565
O23 Si1 1.570463 1_565
O23 Y3 2.028109 1_555
O24 Si3 1.683645 1_555
O25 Si4 1.744197 1_555
O26 S9 1.500693 1_555
O27 S10 1.520788 1_555
O28 S11 1.573917 1_555
O29 S12 1.503484 1_555
O30 Si5 1.730394 1_555
O31 Si6 1.675895 1_555
O32 S13 1.472390 1_555
O33 S14 1.507405 1_555
O34 S15 1.503982 1_555
O35 S16 1.470662 1_555
O36 S15 1.466055 1_555
O36 Y4 2.206382 1_554
O37 S16 1.469155 1_555
O37 Y5 2.213249 1_554
O38 Si5 1.579160 1_555
O38 Y4 2.079062 1_554
O39 Si6 1.588747 1_555
O39 Y5 2.033220 1_554
O40 S13 1.455717 1_555
O40 Y4 2.216040 1_554
O41 S14 1.470391 1_555
O41 Y5 2.255321 1_554
O42 S9 1.463583 1_555
O42 Y6 2.219421 1_555
O43 S10 1.460134 1_555
O43 Y7 2.211467 1_555
O44 S11 1.464223 1_555
O44 Y6 2.297894 1_555
O45 S12 1.454881 1_555
O45 Y7 2.227438 1_555
O46 Si3 1.584324 1_555
O46 Y6 2.033374 1_555
O47 Si4 1.578091 1_555
O47 Y7 2.101404 1_555
O48 S17 1.495981 1_555
O49 S18 1.482147 1_555
O50 S19 1.458510 1_555
O51 S20 1.492927 1_555
O52 Si7 1.692452 1_555
O53 S21 1.524801 1_555
O54 S22 1.555968 1_555
O55 S23 1.542704 1_555
O56 S24 1.527344 1_555
O57 Si8 1.685262 1_555
O58 S25 1.509417 1_555
O59 S26 1.491235 1_555
O60 S25 1.460575 1_555
O60 Y8 2.228762 1_555
O61 S26 1.450271 1_555
O61 Y9 2.252001 1_555
O62 S22 1.460131 1_555
O62 Y8 2.265055 1_555
O63 S23 1.447010 1_555
O63 Y9 2.287862 1_555
O64 S24 1.448849 1_555
O64 Y8 2.365519 1_555
O65 Si8 1.576061 1_555
O65 Y9 2.090499 1_555
O66 S19 1.460053 1_555
O66 Y10 2.225965 1_555
O67 S20 1.474300 1_555
O67 Y11 2.200606 1_555
O68 Si7 1.589019 1_555
O68 Y10 2.029906 1_555
O69 S21 1.455490 1_555
O69 Y11 2.372323 1_555
O70 S17 1.466805 1_555
O70 Y10 2.222269 1_555
O71 S18 1.458997 1_555
O71 Y11 2.262834 1_555
O72 S25 1.484772 1_555
O72 Y0 2.316586 1_565
O73 S26 1.507271 1_555
O74 S22 1.460884 1_555
O75 S23 1.482607 1_555
O75 Y0 2.447557 1_665
O76 S24 1.490011 1_555
O76 Y0 2.364550 1_555
O77 Si8 1.668223 1_555
O78 S19 1.524927 1_555
O79 S20 1.494726 1_555
O79 Y1 2.301013 1_555
O80 Si7 1.659646 1_555
O81 S21 1.490407 1_555
O81 Y1 2.343738 1_565
O82 S17 1.490533 1_555
O82 Y1 2.357399 1_565
O83 S18 1.514258 1_555
O84 Si3 1.638317 1_555
O85 Si4 1.612693 1_455
O85 Y2 2.080664 1_555
O86 S9 1.472501 1_565
O86 Y2 2.239420 1_565
O87 S10 1.516727 1_565
O88 S11 1.461709 1_555
O89 S12 1.476863 1_555
O89 Y2 2.249438 1_665
O90 Si5 1.601095 1_555
O90 Y3 2.116653 1_555
O91 Si6 1.631974 1_555
O92 S13 1.460066 1_565
O92 Y3 2.318970 1_555
O93 S14 1.463344 1_555
O94 S15 1.520522 1_555
O95 S16 1.464825 1_555
O95 Y3 2.279698 1_545
O96 S7 1.520672 1_555
O97 S8 1.486610 1_555
O98 S4 1.519827 1_555
O99 Si2 1.671877 1_555
O100 S6 1.546568 1_555
O101 S5 1.476267 1_555
O102 S0 1.522623 1_555
O103 S1 1.485434 1_555
O104 S3 1.491597 1_555
O105 S2 1.514108 1_555
O106 Si0 1.663415 1_555
O107 Si1 1.697697 1_555
O108 S17 1.475095 1_555
O108 Y4 2.238920 1_555
O109 S18 1.483877 1_555
O109 Y5 2.319075 1_555
O110 S20 1.464555 1_555
O110 Y4 2.314129 1_555
O111 S19 1.489670 1_655
O111 Y5 2.238195 1_555
O112 Si7 1.602155 1_545
O112 Y4 2.163652 1_555
O113 S21 1.472662 1_545
O113 Y5 2.361095 1_555
O114 S22 1.494326 1_545
O114 Y6 2.275022 1_555
O115 S23 1.467868 1_545
O115 Y7 2.236990 1_555
O116 S24 1.473766 1_555
O116 Y6 2.342024 1_555
O117 Si8 1.609594 1_555
O117 Y7 2.128295 1_555
O118 S26 1.491252 1_555
O118 Y6 2.197933 1_555
O119 S25 1.463136 1_655
O119 Y7 2.286286 1_555
O120 S15 1.460317 1_555
O121 S16 1.521242 1_555
O122 Si6 1.664112 1_455
O123 Si5 1.670939 1_555
O124 S13 1.534227 1_565
O125 S14 1.518964 1_565
O126 S9 1.497314 1_565
O127 S10 1.449238 1_565
O128 S11 1.489228 1_555
O129 S12 1.490566 1_555
O130 Si4 1.675771 1_455
O131 Si3 1.651783 1_555
O132 Si0 1.595857 1_565
O132 Y8 2.050695 1_555
O133 Si1 1.573478 1_565
O133 Y9 2.086629 1_555
O134 S0 1.464094 1_555
O134 Y8 2.161195 1_555
O135 S1 1.450436 1_555
O135 Y9 2.243993 1_555
O136 S2 1.465973 1_455
O136 Y8 2.268035 1_555
O137 S3 1.457497 1_555
O137 Y9 2.198427 1_555
O138 S4 1.456714 1_555
O138 Y10 2.280933 1_555
O139 Si2 1.596754 1_555
O139 Y11 2.063334 1_555
O140 S5 1.463979 1_455
O140 Y10 2.195666 1_555
O141 S6 1.464037 1_555
O141 Y11 2.297890 1_555
O142 S7 1.460732 1_565
O142 Y10 2.260163 1_555
O143 S8 1.464118 1_565
O143 Y11 2.169406 1_555
