# generated using pymatgen
data_RbClO3
_symmetry_space_group_name_H-M   'P 1'
_cell_length_a   4.59708647
_cell_length_b   4.59708647
_cell_length_c   4.59708645
_cell_angle_alpha   83.96766270
_cell_angle_beta   83.96766270
_cell_angle_gamma   83.96766039
_symmetry_Int_Tables_number   1
_chemical_formula_structural   RbClO3
_chemical_formula_sum   'Rb1 Cl1 O3'
_cell_volume   95.64282469
_cell_formula_units_Z   1
loop_
 _symmetry_equiv_pos_site_id
 _symmetry_equiv_pos_as_xyz
  1  'x, y, z'
loop_
 _atom_site_type_symbol
 _atom_site_label
 _atom_site_symmetry_multiplicity
 _atom_site_fract_x
 _atom_site_fract_y
 _atom_site_fract_z
 _atom_site_occupancy
  Rb  Rb0  1  0.97479700  0.97479700  0.97479700  1
  Cl  Cl0  1  0.48870900  0.48870900  0.48870900  1
  O  O0  1  0.81599000  0.42225200  0.42225200  1
  O  O1  1  0.42225200  0.42225200  0.81599000  1
  O  O2  1  0.42225200  0.81599000  0.42225200  1
loop_
_geom_bond_atom_site_label_1
_geom_bond_atom_site_label_2
_geom_bond_distance
_geom_bond_site_symmetry_2
Cl0 O2 1.508876 1_555
Cl0 O0 1.508876 1_555
Cl0 O1 1.508876 1_555
O0 Rb0 3.041947 1_544
O0 Rb0 3.192526 1_545
O0 Rb0 3.192526 1_554
O1 Rb0 3.041947 1_445
O1 Rb0 3.192526 1_545
O1 Rb0 3.192526 1_455
O2 Rb0 3.041947 1_454
O2 Rb0 3.192526 1_455
O2 Rb0 3.192526 1_554
