# generated using pymatgen
data_Na5Ca3ZrP3(SO8)3
_symmetry_space_group_name_H-M   'P 1'
_cell_length_a   9.28429774
_cell_length_b   9.28921012
_cell_length_c   23.43808843
_cell_angle_alpha   90.24077311
_cell_angle_beta   89.88114695
_cell_angle_gamma   119.76692887
_symmetry_Int_Tables_number   1
_chemical_formula_structural   Na5Ca3ZrP3(SO8)3
_chemical_formula_sum   'Na15 Ca9 Zr3 P9 S9 O72'
_cell_volume   1754.65615024
_cell_formula_units_Z   3
loop_
 _symmetry_equiv_pos_site_id
 _symmetry_equiv_pos_as_xyz
  1  'x, y, z'
loop_
 _atom_site_type_symbol
 _atom_site_label
 _atom_site_symmetry_multiplicity
 _atom_site_fract_x
 _atom_site_fract_y
 _atom_site_fract_z
 _atom_site_occupancy
  Na  Na0  1  0.99873386  0.63505980  0.25820777  1
  Na  Na1  1  0.30281103  0.34493236  0.58859821  1
  Na  Na2  1  0.02359752  0.68798789  0.57879196  1
  Na  Na3  1  0.67118519  0.95725700  0.57672636  1
  Na  Na4  1  0.66764134  0.69778052  0.07933357  1
  Na  Na5  1  0.03772416  0.34543206  0.08369935  1
  Na  Na6  1  0.98744365  0.68306898  0.91029940  1
  Na  Na7  1  0.32100763  0.29399889  0.90390167  1
  Na  Na8  1  0.69824217  0.68182569  0.41872020  1
  Na  Na9  1  0.99412060  0.00219455  0.49332541  1
  Na  Na10  1  0.00068293  0.99125389  0.99292878  1
  Na  Na11  1  0.65169020  0.31652490  0.82030656  1
  Na  Na12  1  0.65491877  0.29509561  0.33539230  1
  Na  Na13  1  0.33589100  0.68095812  0.17487384  1
  Na  Na14  1  0.33218013  0.64713022  0.66835147  1
  Ca  Ca0  1  0.00287465  0.00930737  0.35090082  1
  Ca  Ca1  1  0.99455641  0.00397131  0.84643653  1
  Ca  Ca2  1  0.00137535  0.00750777  0.65597555  1
  Ca  Ca3  1  0.00650490  0.99716755  0.14969680  1
  Ca  Ca4  1  0.66659296  0.34015921  0.68608079  1
  Ca  Ca5  1  0.65927873  0.32670130  0.18583554  1
  Ca  Ca6  1  0.33242113  0.67720344  0.01493860  1
  Ca  Ca7  1  0.32871990  0.66746572  0.51059284  1
  Ca  Ca8  1  0.33596818  0.67273100  0.32338286  1
  Zr  Zr0  1  0.67070796  0.33245072  0.97690119  1
  Zr  Zr1  1  0.68297201  0.33657188  0.48143984  1
  Zr  Zr2  1  0.33718815  0.66494391  0.81860205  1
  P  P0  1  0.30779076  0.31175054  0.75365356  1
  P  P1  1  0.96363626  0.33303260  0.58439259  1
  P  P2  1  0.66588357  0.62828703  0.58113641  1
  P  P3  1  0.95452732  0.62277519  0.08276971  1
  P  P4  1  0.63052345  0.66238841  0.92121676  1
  P  P5  1  0.03910068  0.37418313  0.92023781  1
  P  P6  1  0.33527140  0.96602212  0.91677490  1
  P  P7  1  0.63865249  0.97289237  0.42085051  1
  P  P8  1  0.02097949  0.66531871  0.41734779  1
  S  S0  1  0.29879291  0.99445069  0.25027579  1
  S  S1  1  0.69720281  0.69937689  0.24853418  1
  S  S2  1  0.00480218  0.30888170  0.24671322  1
  S  S3  1  0.00958051  0.69609764  0.75312524  1
  S  S4  1  0.68496358  0.99110036  0.75052836  1
  S  S5  1  0.37416479  0.04184334  0.58233580  1
  S  S6  1  0.67063819  0.04166115  0.08138829  1
  S  S7  1  0.37274473  0.33374461  0.07993910  1
  S  S8  1  0.34251403  0.36372208  0.42026519  1
  O  O0  1  0.21375036  0.00767541  0.30117360  1
  O  O1  1  0.80009404  0.78798715  0.29887452  1
  O  O2  1  0.99671893  0.20786118  0.29566242  1
  O  O3  1  0.21853231  0.21036648  0.80681562  1
  O  O4  1  0.99259211  0.77945589  0.80450828  1
  O  O5  1  0.78980459  0.00729010  0.79945587  1
  O  O6  1  0.75259669  0.96600760  0.69649031  1
  O  O7  1  0.21022935  0.24064600  0.69759033  1
  O  O8  1  0.02891181  0.79161337  0.70056965  1
  O  O9  1  0.77649337  0.79283442  0.19497873  1
  O  O10  1  0.01257480  0.23063970  0.19183709  1
  O  O11  1  0.20342876  0.98291133  0.19782402  1
  O  O12  1  0.87914956  0.35328023  0.63670695  1
  O  O13  1  0.47180516  0.11709869  0.63410158  1
  O  O14  1  0.64049877  0.51919603  0.63264908  1
  O  O15  1  0.87012911  0.52430069  0.13656247  1
  O  O16  1  0.65296914  0.11837948  0.13323198  1
  O  O17  1  0.46847624  0.34439278  0.13073883  1
  O  O18  1  0.45880555  0.31838115  0.02744239  1
  O  O19  1  0.83981295  0.51688299  0.02924658  1
  O  O20  1  0.67568431  0.14247902  0.03012255  1
  O  O21  1  0.46335850  0.14630996  0.53148930  1
  O  O22  1  0.67917395  0.53380657  0.52624275  1
  O  O23  1  0.85185174  0.32074813  0.53079319  1
  O  O24  1  0.56339622  0.68497922  0.97762086  1
  O  O25  1  0.13145077  0.44339919  0.97621348  1
  O  O26  1  0.30393295  0.86316214  0.97004858  1
  O  O27  1  0.56445193  0.87381229  0.47619839  1
  O  O28  1  0.32269815  0.43699354  0.47360503  1
  O  O29  1  0.11754847  0.68050938  0.47192114  1
  O  O30  1  0.09577738  0.63936035  0.36242763  1
  O  O31  1  0.53045368  0.89046745  0.36856096  1
  O  O32  1  0.36967212  0.47316585  0.37102735  1
  O  O33  1  0.13316951  0.49959534  0.87029835  1
  O  O34  1  0.35985698  0.87585186  0.86446159  1
  O  O35  1  0.50869171  0.63867140  0.87095626  1
  O  O36  1  0.98591676  0.81116437  0.41406064  1
  O  O37  1  0.81288205  0.99147261  0.41495359  1
  O  O38  1  0.19908149  0.19628972  0.41340651  1
  O  O39  1  0.01848967  0.20272937  0.91042557  1
  O  O40  1  0.18548727  0.99431743  0.90925022  1
  O  O41  1  0.81035839  0.79852648  0.91131290  1
  O  O42  1  0.97459140  0.17145333  0.58334424  1
  O  O43  1  0.20775695  0.03040036  0.58472821  1
  O  O44  1  0.83030421  0.79861251  0.58315697  1
  O  O45  1  0.95656142  0.79065905  0.07972467  1
  O  O46  1  0.83182760  0.04026479  0.08068184  1
  O  O47  1  0.20104178  0.18984922  0.08072631  1
  O  O48  1  0.66153781  0.13662694  0.74824846  1
  O  O49  1  0.48405861  0.33764092  0.75182957  1
  O  O50  1  0.86567445  0.52696408  0.75038944  1
  O  O51  1  0.69223573  0.53554673  0.24696532  1
  O  O52  1  0.85442320  0.32992101  0.24815910  1
  O  O53  1  0.46846661  0.13946763  0.24822309  1
  O  O54  1  0.63160349  0.48950005  0.92313971  1
  O  O55  1  0.86348705  0.36642369  0.92300898  1
  O  O56  1  0.49562897  0.14384476  0.92301668  1
  O  O57  1  0.65528665  0.15068754  0.42676499  1
  O  O58  1  0.49940844  0.35197936  0.42422758  1
  O  O59  1  0.83967783  0.50302867  0.42304964  1
  O  O60  1  0.36299265  0.48944183  0.07760092  1
  O  O61  1  0.12550610  0.63519086  0.07836993  1
  O  O62  1  0.53289754  0.86879143  0.07780383  1
  O  O63  1  0.35080338  0.87173570  0.57686129  1
  O  O64  1  0.51315161  0.65393280  0.57691904  1
  O  O65  1  0.13869031  0.48767317  0.57859512  1
  O  O66  1  0.30522637  0.83607499  0.25177603  1
  O  O67  1  0.52799030  0.67591956  0.25202821  1
  O  O68  1  0.15335928  0.47937136  0.24945687  1
  O  O69  1  0.32211870  0.49085065  0.76233999  1
  O  O70  1  0.16616669  0.68388074  0.75919715  1
  O  O71  1  0.51660160  0.83640969  0.75875021  1
loop_
_geom_bond_atom_site_label_1
_geom_bond_atom_site_label_2
_geom_bond_distance
_geom_bond_site_symmetry_2
Na0 O52 2.471788 1_555
Na0 O68 2.500472 1_655
Na0 O66 2.516208 1_655
Na0 O51 2.531922 1_555
Na0 O30 2.598613 1_655
Na1 O65 2.478944 1_555
Na1 O64 2.562444 1_555
Na1 O43 2.600291 1_555
Na1 O42 2.649884 1_455
Na1 O7 2.718084 1_555
Na1 O28 2.808941 1_555
Na1 O14 2.911335 1_555
Na2 O44 2.473160 1_455
Na2 O65 2.564858 1_555
Na2 O63 2.644909 1_555
Na2 O29 2.662627 1_555
Na2 O43 2.767144 1_565
Na3 O64 2.446836 1_555
Na3 O42 2.520303 1_565
Na3 O27 2.523102 1_555
Na3 O44 2.557618 1_555
Na3 O63 2.670676 1_555
Na3 O6 2.898837 1_555
Na4 O45 2.375265 1_555
Na4 O62 2.462465 1_555
Na4 O60 2.512308 1_555
Na4 O24 2.554799 1_554
Na4 O46 2.762243 1_565
Na4 O9 2.872804 1_555
Na5 O61 2.397688 1_555
Na5 O46 2.512622 1_455
Na5 O47 2.562689 1_555
Na5 O60 2.630247 1_555
Na5 O25 2.675058 1_554
Na5 O10 2.718183 1_555
Na6 O41 2.367373 1_555
Na6 O40 2.542149 1_655
Na6 O55 2.590302 1_555
Na6 O4 2.632062 1_555
Na6 O33 2.808052 1_655
Na6 O54 2.887947 1_555
Na6 O26 2.917236 1_655
Na7 O40 2.423375 1_545
Na7 O3 2.438623 1_555
Na7 O39 2.503128 1_555
Na7 O54 2.572051 1_555
Na7 O56 2.651088 1_555
Na7 O35 2.891229 1_555
Na8 O36 2.324330 1_555
Na8 O37 2.525082 1_555
Na8 O59 2.580830 1_555
Na8 O58 2.683027 1_555
Na8 O22 2.838750 1_555
Na8 O32 2.904673 1_555
Na8 O27 2.951414 1_555
Na8 O1 2.973758 1_555
Na9 O37 2.461774 1_545
Na9 O36 2.538675 1_545
Na9 O38 2.643370 1_655
Na9 O42 2.685161 1_555
Na9 O44 2.736201 1_545
Na9 O43 2.844142 1_655
Na10 O40 2.594088 1_555
Na10 O41 2.613589 1_455
Na10 O45 2.654980 1_456
Na10 O39 2.708089 1_565
Na10 O46 2.753669 1_466
Na10 O47 2.770317 1_566
Na11 O49 2.313598 1_555
Na11 O48 2.404311 1_555
Na11 O50 2.571159 1_555
Na11 O56 2.859691 1_555
Na11 O54 2.947685 1_555
Na11 O55 2.996851 1_555
Na12 O57 2.532715 1_555
Na12 O53 2.601094 1_555
Na12 O52 2.666587 1_555
Na12 O58 2.726694 1_555
Na12 O59 2.754215 1_555
Na12 O51 2.944833 1_555
Na13 O66 2.406128 1_555
Na13 O68 2.509677 1_555
Na13 O67 2.559336 1_555
Na13 O61 2.880584 1_555
Na13 O62 2.900577 1_555
Na13 O60 2.972238 1_555
Na14 O69 2.619234 1_555
Na14 O65 2.682189 1_555
Na14 O64 2.701902 1_555
Na14 O71 2.739859 1_555
Na14 O70 2.743839 1_555
Na14 O63 2.942637 1_555
Ca0 O37 2.256926 1_445
Ca0 O2 2.281744 1_455
Ca0 O0 2.282895 1_555
Ca0 O38 2.308570 1_555
Ca0 O36 2.310450 1_445
Ca0 O1 2.324492 1_445
Ca1 O5 2.212313 1_555
Ca1 O3 2.215986 1_655
Ca1 O4 2.293634 1_545
Ca1 O39 2.297457 1_655
Ca1 O40 2.342566 1_645
Ca1 O41 2.377346 1_545
Ca2 O7 2.285123 1_555
Ca2 O6 2.344153 1_445
Ca2 O42 2.382997 1_455
Ca2 O8 2.389061 1_545
Ca2 O43 2.467869 1_555
Ca2 O44 2.474696 1_445
Ca3 O11 2.209717 1_555
Ca3 O9 2.296139 1_455
Ca3 O10 2.354388 1_565
Ca3 O45 2.382860 1_455
Ca3 O47 2.425118 1_565
Ca3 O46 2.463316 1_465
Ca4 O14 2.193585 1_555
Ca4 O12 2.236375 1_555
Ca4 O49 2.279787 1_555
Ca4 O13 2.305498 1_555
Ca4 O50 2.346104 1_555
Ca4 O48 2.373742 1_555
Ca5 O15 2.230617 1_555
Ca5 O17 2.265626 1_555
Ca5 O16 2.266277 1_555
Ca5 O53 2.291888 1_555
Ca5 O51 2.301980 1_555
Ca5 O52 2.318194 1_555
Ca6 O26 2.151972 1_554
Ca6 O25 2.233582 1_554
Ca6 O24 2.282064 1_554
Ca6 O61 2.302538 1_555
Ca6 O62 2.345829 1_555
Ca6 O60 2.407177 1_555
Ca7 O29 2.219069 1_555
Ca7 O27 2.225784 1_555
Ca7 O28 2.281208 1_555
Ca7 O65 2.351019 1_555
Ca7 O64 2.364512 1_555
Ca7 O63 2.375977 1_555
Ca8 O31 2.199120 1_555
Ca8 O30 2.283418 1_555
Ca8 O32 2.318697 1_555
Ca8 O66 2.377806 1_555
Ca8 O67 2.431422 1_555
Ca8 O68 2.462734 1_555
O0 S0 1.467240 1_545
O1 S1 1.482548 1_555
O2 S2 1.463295 1_655
O3 P0 1.535214 1_555
O4 S3 1.479020 1_655
O5 S4 1.463892 1_545
O6 S4 1.480648 1_555
O7 P0 1.544973 1_555
O8 S3 1.478830 1_555
O9 S1 1.497320 1_555
O10 S2 1.493848 1_555
O11 S0 1.488598 1_555
O12 P1 1.514815 1_555
O13 S5 1.466538 1_555
O14 P2 1.520570 1_555
O15 P3 1.527825 1_555
O16 S6 1.455772 1_555
O17 S7 1.460650 1_555
O18 S7 1.510100 1_555
O18 Zr0 2.242137 1_554
O19 P3 1.621894 1_555
O19 Zr0 2.055442 1_554
O20 S6 1.512842 1_555
O20 Zr0 2.184485 1_554
O21 S5 1.501799 1_555
O21 Zr1 2.255298 1_555
O22 P2 1.593179 1_555
O22 Zr1 2.123337 1_555
O23 P1 1.598422 1_555
O23 Zr1 2.013920 1_555
O24 P4 1.517979 1_555
O25 P5 1.523147 1_555
O26 P6 1.513002 1_555
O27 P7 1.543140 1_555
O28 S8 1.475229 1_555
O29 P8 1.528876 1_555
O30 P8 1.535350 1_555
O31 P7 1.526720 1_555
O32 S8 1.477524 1_555
O33 P5 1.576998 1_555
O33 Zr2 2.128955 1_555
O34 P6 1.561130 1_555
O34 Zr2 2.147504 1_555
O35 P4 1.572128 1_555
O35 Zr2 2.120651 1_555
O36 P8 1.544754 1_655
O37 P7 1.545177 1_555
O38 S8 1.469837 1_555
O39 P5 1.523348 1_555
O40 P6 1.548682 1_555
O41 P4 1.531384 1_555
O42 P1 1.554042 1_555
O43 S5 1.496005 1_555
O44 P2 1.561188 1_555
O45 P3 1.552161 1_555
O46 S6 1.503069 1_555
O47 S7 1.487479 1_555
O48 S4 1.473155 1_545
O49 P0 1.531948 1_555
O50 S3 1.474040 1_655
O51 S1 1.499788 1_555
O52 S2 1.503098 1_655
O53 S0 1.480429 1_545
O54 P4 1.611818 1_555
O54 Zr0 2.095501 1_555
O55 P5 1.597087 1_655
O55 Zr0 2.081264 1_555
O56 P6 1.588540 1_545
O56 Zr0 2.113979 1_555
O57 P7 1.586087 1_545
O57 Zr1 2.057150 1_555
O58 S8 1.516834 1_555
O58 Zr1 2.230787 1_555
O59 P8 1.613997 1_655
O59 Zr1 2.038707 1_555
O60 S7 1.494560 1_555
O61 P3 1.536705 1_455
O62 S6 1.476940 1_565
O63 S5 1.489473 1_565
O64 P2 1.553538 1_555
O65 P1 1.551112 1_455
O66 S0 1.502294 1_555
O67 S1 1.477158 1_555
O68 S2 1.498398 1_555
O69 P0 1.613863 1_555
O69 Zr2 2.032722 1_555
O70 S3 1.520349 1_555
O70 Zr2 2.186154 1_555
O71 S4 1.521877 1_555
O71 Zr2 2.157347 1_555
