# generated using pymatgen
data_MgV5O12
_symmetry_space_group_name_H-M   'P 1'
_cell_length_a   5.32231855
_cell_length_b   10.86459405
_cell_length_c   9.64790088
_cell_angle_alpha   27.68209005
_cell_angle_beta   51.21489255
_cell_angle_gamma   57.04705092
_symmetry_Int_Tables_number   1
_chemical_formula_structural   MgV5O12
_chemical_formula_sum   'Mg1 V5 O12'
_cell_volume   201.93842750
_cell_formula_units_Z   1
loop_
 _symmetry_equiv_pos_site_id
 _symmetry_equiv_pos_as_xyz
  1  'x, y, z'
loop_
 _atom_site_type_symbol
 _atom_site_label
 _atom_site_symmetry_multiplicity
 _atom_site_fract_x
 _atom_site_fract_y
 _atom_site_fract_z
 _atom_site_occupancy
  Mg  Mg0  1  0.70042100  0.49572800  0.70226700  1
  V  V0  1  0.04173200  0.01175800  0.96195200  1
  V  V1  1  0.94792900  0.47290500  0.04230500  1
  V  V2  1  0.46629400  0.97425200  0.54767500  1
  V  V3  1  0.51501100  0.51591900  0.45984900  1
  V  V4  1  0.29715800  0.99076000  0.29580200  1
  O  O0  1  0.35221600  0.28273300  0.12709500  1
  O  O1  1  0.22841600  0.10271700  0.63329600  1
  O  O2  1  0.12032300  0.31801600  0.71942000  1
  O  O3  1  0.86843100  0.17153800  0.23867000  1
  O  O4  1  0.33823400  0.82226500  0.10816600  1
  O  O5  1  0.73929200  0.39488300  0.33943900  1
  O  O6  1  0.23241500  0.65544500  0.58336900  1
  O  O7  1  0.58374900  0.20542400  0.86670300  1
  O  O8  1  0.15232300  0.81533400  0.69904000  1
  O  O9  1  0.83128300  0.69816200  0.24156200  1
  O  O10  1  0.72398200  0.88712600  0.32981000  1
  O  O11  1  0.60759300  0.69128600  0.85037800  1
loop_
_geom_bond_atom_site_label_1
_geom_bond_atom_site_label_2
_geom_bond_distance
_geom_bond_site_symmetry_2
Mg0 O0 1.984946 1_556
Mg0 O2 1.988213 1_655
Mg0 O10 1.990881 1_555
Mg0 O7 2.210175 1_555
Mg0 O9 2.356528 1_555
Mg0 O6 2.425587 1_555
O0 V1 1.985772 1_455
O0 V4 2.016694 1_545
O0 V2 2.203023 1_545
O1 V2 1.744323 1_545
O1 V0 1.894615 1_555
O2 V0 1.794517 1_555
O2 V3 2.023350 1_555
O3 V2 1.934595 1_545
O3 V1 2.001394 1_555
O3 V4 2.037364 1_645
O4 V0 1.682154 1_564
O4 V3 2.016744 1_555
O5 V1 1.703487 1_555
O5 V3 1.940183 1_555
O6 V4 1.831683 1_555
O6 V3 2.110409 1_555
O6 V1 2.268561 1_456
O7 V4 1.940006 1_546
O7 V3 1.981456 1_555
O7 V0 2.239505 1_655
O8 V2 1.876718 1_555
O8 V1 2.015025 1_456
O8 V4 2.017676 1_555
O9 V3 1.728759 1_555
O9 V0 2.056248 1_664
O10 V0 1.936490 1_664
O10 V4 2.008199 1_555
O10 V2 2.386442 1_555
O11 V2 1.697314 1_555
O11 V1 2.021077 1_556
