# generated using pymatgen
data_MgTi2(FeO2)4
_symmetry_space_group_name_H-M   'P 1'
_cell_length_a   6.66831053
_cell_length_b   6.25943499
_cell_length_c   6.45913937
_cell_angle_alpha   56.76197277
_cell_angle_beta   54.31010108
_cell_angle_gamma   54.67230523
_symmetry_Int_Tables_number   1
_chemical_formula_structural   MgTi2(FeO2)4
_chemical_formula_sum   'Mg1 Ti2 Fe4 O8'
_cell_volume   169.36901662
_cell_formula_units_Z   1
loop_
 _symmetry_equiv_pos_site_id
 _symmetry_equiv_pos_as_xyz
  1  'x, y, z'
loop_
 _atom_site_type_symbol
 _atom_site_label
 _atom_site_symmetry_multiplicity
 _atom_site_fract_x
 _atom_site_fract_y
 _atom_site_fract_z
 _atom_site_occupancy
  Mg  Mg0  1  -0.00000000  0.00000000  -0.00000000  1
  Ti  Ti0  1  -0.00000000  0.50000000  0.50000000  1
  Ti  Ti1  1  0.50000000  0.00000000  0.50000000  1
  Fe  Fe0  1  0.13887822  0.18047964  0.14335572  1
  Fe  Fe1  1  0.50000000  0.50000000  -0.00000000  1
  Fe  Fe2  1  0.50000000  0.50000000  0.50000000  1
  Fe  Fe3  1  0.86112178  0.81952036  0.85664428  1
  O  O0  1  0.28563107  0.23862835  0.27831965  1
  O  O1  1  0.21675017  0.25250303  0.75378182  1
  O  O2  1  0.21123462  0.74675181  0.25772769  1
  O  O3  1  0.72895487  0.24730559  0.25925362  1
  O  O4  1  0.27104513  0.75269441  0.74074638  1
  O  O5  1  0.78876538  0.25324819  0.74227231  1
  O  O6  1  0.78324983  0.74749697  0.24621818  1
  O  O7  1  0.71436893  0.76137165  0.72168035  1
loop_
_geom_bond_atom_site_label_1
_geom_bond_atom_site_label_2
_geom_bond_distance
_geom_bond_site_symmetry_2
Mg0 O6 2.078645 1_445
Mg0 O1 2.078645 1_554
Mg0 O5 2.128139 1_454
Mg0 O2 2.128139 1_545
Mg0 O4 2.131114 1_544
Mg0 O3 2.131114 1_455
Fe0 O0 1.898742 1_555
Fe0 O1 2.075395 1_554
Fe0 O3 2.200155 1_455
Fe0 O2 2.202616 1_545
Fe1 O0 2.105683 1_555
Fe1 O7 2.105683 1_554
Fe1 O5 2.122148 1_554
Fe1 O2 2.122148 1_555
Fe1 O4 2.218911 1_554
Fe1 O3 2.218911 1_555
Fe2 O3 2.093860 1_555
Fe2 O4 2.093860 1_555
Fe2 O1 2.375335 1_555
Fe2 O6 2.375335 1_555
Fe2 O2 2.443145 1_555
Fe2 O5 2.443145 1_555
Fe3 O7 1.898742 1_555
Fe3 O6 2.075395 1_556
Fe3 O4 2.200155 1_655
Fe3 O5 2.202616 1_565
O0 Ti1 1.974594 1_555
O0 Ti0 2.033897 1_555
O1 Ti1 2.127843 1_555
O1 Ti0 2.137074 1_555
O2 Ti0 2.028068 1_555
O3 Ti1 2.114156 1_555
O4 Ti1 2.114156 1_565
O5 Ti0 2.028068 1_655
O6 Ti1 2.127843 1_565
O6 Ti0 2.137074 1_655
O7 Ti1 1.974594 1_565
O7 Ti0 2.033897 1_655
