# generated using pymatgen
data_ErScS3
_symmetry_space_group_name_H-M   'P 1'
_cell_length_a   6.33775340
_cell_length_b   6.95169131
_cell_length_c   9.52790257
_cell_angle_alpha   90.00000000
_cell_angle_beta   90.00000000
_cell_angle_gamma   90.00000000
_symmetry_Int_Tables_number   1
_chemical_formula_structural   ErScS3
_chemical_formula_sum   'Er4 Sc4 S12'
_cell_volume   419.78133410
_cell_formula_units_Z   4
loop_
 _symmetry_equiv_pos_site_id
 _symmetry_equiv_pos_as_xyz
  1  'x, y, z'
loop_
 _atom_site_type_symbol
 _atom_site_label
 _atom_site_symmetry_multiplicity
 _atom_site_fract_x
 _atom_site_fract_y
 _atom_site_fract_z
 _atom_site_occupancy
  Er  Er0  1  0.45824115  0.60112684  0.50896739  1
  Er  Er1  1  0.54175885  0.39887316  0.00896739  1
  Er  Er2  1  0.95824115  0.89887316  0.00896739  1
  Er  Er3  1  0.04175885  0.10112684  0.50896739  1
  Sc  Sc0  1  0.99988993  0.50013362  0.25907127  1
  Sc  Sc1  1  0.00011007  0.49986638  0.75907127  1
  Sc  Sc2  1  0.49988993  0.99986638  0.75907127  1
  Sc  Sc3  1  0.50011007  0.00013362  0.25907127  1
  S  S0  1  0.17561804  0.81606470  0.68523421  1
  S  S1  1  0.82438196  0.18393530  0.18523421  1
  S  S2  1  0.67561804  0.68393530  0.18523421  1
  S  S3  1  0.32438196  0.31606470  0.68523421  1
  S  S4  1  0.17569548  0.81638731  0.33260956  1
  S  S5  1  0.82430452  0.18361269  0.83260956  1
  S  S6  1  0.67569548  0.68361269  0.83260956  1
  S  S7  1  0.32430452  0.31638731  0.33260956  1
  S  S8  1  0.14857695  0.55067932  0.00911657  1
  S  S9  1  0.85142305  0.44932068  0.50911657  1
  S  S10  1  0.64857695  0.94932068  0.50911657  1
  S  S11  1  0.35142305  0.05067932  0.00911657  1
loop_
_geom_bond_atom_site_label_1
_geom_bond_atom_site_label_2
_geom_bond_distance
_geom_bond_site_symmetry_2
Er0 S10 2.704470 1_555
Er0 S9 2.706140 1_555
Er0 S7 2.731692 1_555
Er0 S3 2.732633 1_555
Er0 S0 2.874287 1_555
Er0 S4 2.875654 1_555
Er1 S11 2.704470 1_555
Er1 S8 2.706140 1_555
Er1 S6 2.731692 1_554
Er1 S2 2.732633 1_555
Er1 S1 2.874287 1_555
Er1 S5 2.875654 1_554
Er2 S8 2.704470 1_655
Er2 S11 2.706140 1_665
Er2 S5 2.731692 1_564
Er2 S1 2.732633 1_565
Er2 S2 2.874287 1_555
Er2 S6 2.875654 1_554
Er3 S9 2.704470 1_455
Er3 S10 2.706140 1_445
Er3 S4 2.731692 1_545
Er3 S0 2.732633 1_545
Er3 S3 2.874287 1_555
Er3 S7 2.875654 1_555
S0 Sc2 2.520157 1_555
S0 Sc1 2.562011 1_555
S1 Sc3 2.520157 1_555
S1 Sc0 2.562011 1_555
S2 Sc0 2.520157 1_555
S2 Sc3 2.562011 1_565
S3 Sc1 2.520157 1_555
S3 Sc2 2.562011 1_545
S4 Sc3 2.519907 1_565
S4 Sc0 2.562381 1_455
S5 Sc2 2.519907 1_545
S5 Sc1 2.562381 1_655
S6 Sc1 2.519907 1_655
S6 Sc2 2.562381 1_555
S7 Sc0 2.519907 1_455
S7 Sc3 2.562381 1_555
S8 Sc0 2.585194 1_455
S8 Sc1 2.585734 1_554
S9 Sc1 2.585194 1_655
S9 Sc0 2.585734 1_555
S10 Sc2 2.585194 1_555
S10 Sc3 2.585734 1_565
S11 Sc3 2.585194 1_555
S11 Sc2 2.585734 1_544
