# generated using pymatgen
data_Tl2PS3
_symmetry_space_group_name_H-M   'P 1'
_cell_length_a   11.72750700
_cell_length_b   13.89630800
_cell_length_c   16.75785800
_cell_angle_alpha   90.00000000
_cell_angle_beta   90.00000000
_cell_angle_gamma   90.00000000
_symmetry_Int_Tables_number   1
_chemical_formula_structural   Tl2PS3
_chemical_formula_sum   'Tl32 P16 S48'
_cell_volume   2731.01218730
_cell_formula_units_Z   16
loop_
 _symmetry_equiv_pos_site_id
 _symmetry_equiv_pos_as_xyz
  1  'x, y, z'
loop_
 _atom_site_type_symbol
 _atom_site_label
 _atom_site_symmetry_multiplicity
 _atom_site_fract_x
 _atom_site_fract_y
 _atom_site_fract_z
 _atom_site_occupancy
  Tl  Tl0  1  0.61090500  0.93917700  0.43569900  1
  Tl  Tl1  1  0.11090500  0.06082300  0.06430100  1
  Tl  Tl2  1  0.88909500  0.43917700  0.56430100  1
  Tl  Tl3  1  0.38909500  0.56082300  0.93569900  1
  Tl  Tl4  1  0.38909500  0.06082300  0.56430100  1
  Tl  Tl5  1  0.88909500  0.93917700  0.93569900  1
  Tl  Tl6  1  0.11090500  0.56082300  0.43569900  1
  Tl  Tl7  1  0.61090500  0.43917700  0.06430100  1
  Tl  Tl8  1  0.66407700  0.75055700  0.19685800  1
  Tl  Tl9  1  0.16407700  0.24944300  0.30314200  1
  Tl  Tl10  1  0.83592300  0.25055700  0.80314200  1
  Tl  Tl11  1  0.33592300  0.74944300  0.69685800  1
  Tl  Tl12  1  0.33592300  0.24944300  0.80314200  1
  Tl  Tl13  1  0.83592300  0.75055700  0.69685800  1
  Tl  Tl14  1  0.16407700  0.74944300  0.19685800  1
  Tl  Tl15  1  0.66407700  0.25055700  0.30314200  1
  Tl  Tl16  1  0.39980800  0.83815500  0.04490400  1
  Tl  Tl17  1  0.89980800  0.16184500  0.45509600  1
  Tl  Tl18  1  0.10019200  0.33815500  0.95509600  1
  Tl  Tl19  1  0.60019200  0.66184500  0.54490400  1
  Tl  Tl20  1  0.60019200  0.16184500  0.95509600  1
  Tl  Tl21  1  0.10019200  0.83815500  0.54490400  1
  Tl  Tl22  1  0.89980800  0.66184500  0.04490400  1
  Tl  Tl23  1  0.39980800  0.33815500  0.45509600  1
  Tl  Tl24  1  0.57003700  0.93799500  0.80886500  1
  Tl  Tl25  1  0.07003700  0.06200500  0.69113500  1
  Tl  Tl26  1  0.92996300  0.43799500  0.19113500  1
  Tl  Tl27  1  0.42996300  0.56200500  0.30886500  1
  Tl  Tl28  1  0.42996300  0.06200500  0.19113500  1
  Tl  Tl29  1  0.92996300  0.93799500  0.30886500  1
  Tl  Tl30  1  0.07003700  0.56200500  0.80886500  1
  Tl  Tl31  1  0.57003700  0.43799500  0.69113500  1
  P  P0  1  0.29198000  0.85134300  0.37693300  1
  P  P1  1  0.79198000  0.14865700  0.12306700  1
  P  P2  1  0.20802000  0.35134300  0.62306700  1
  P  P3  1  0.70802000  0.64865700  0.87693300  1
  P  P4  1  0.70802000  0.14865700  0.62306700  1
  P  P5  1  0.20802000  0.85134300  0.87693300  1
  P  P6  1  0.79198000  0.64865700  0.37693300  1
  P  P7  1  0.29198000  0.35134300  0.12306700  1
  P  P8  1  0.75575700  0.98973500  0.63017100  1
  P  P9  1  0.25575700  0.01026500  0.86982900  1
  P  P10  1  0.74424300  0.48973500  0.36982900  1
  P  P11  1  0.24424300  0.51026500  0.13017100  1
  P  P12  1  0.24424300  0.01026500  0.36982900  1
  P  P13  1  0.74424300  0.98973500  0.13017100  1
  P  P14  1  0.25575700  0.51026500  0.63017100  1
  P  P15  1  0.75575700  0.48973500  0.86982900  1
  S  S0  1  0.60805600  0.91136700  0.62540700  1
  S  S1  1  0.10805600  0.08863300  0.87459300  1
  S  S2  1  0.89194400  0.41136700  0.37459300  1
  S  S3  1  0.39194400  0.58863300  0.12540700  1
  S  S4  1  0.39194400  0.08863300  0.37459300  1
  S  S5  1  0.89194400  0.91136700  0.12540700  1
  S  S6  1  0.10805600  0.58863300  0.62540700  1
  S  S7  1  0.60805600  0.41136700  0.87459300  1
  S  S8  1  0.36447700  0.78420900  0.87471500  1
  S  S9  1  0.86447700  0.21579100  0.62528500  1
  S  S10  1  0.13552300  0.28420900  0.12528500  1
  S  S11  1  0.63552300  0.71579100  0.37471500  1
  S  S12  1  0.63552300  0.21579100  0.12528500  1
  S  S13  1  0.13552300  0.78420900  0.37471500  1
  S  S14  1  0.86447700  0.71579100  0.87471500  1
  S  S15  1  0.36447700  0.28420900  0.62528500  1
  S  S16  1  0.38453500  0.81909400  0.27870600  1
  S  S17  1  0.88453500  0.18090600  0.22129400  1
  S  S18  1  0.11546500  0.31909400  0.72129400  1
  S  S19  1  0.61546500  0.68090600  0.77870600  1
  S  S20  1  0.61546500  0.18090600  0.72129400  1
  S  S21  1  0.11546500  0.81909400  0.77870600  1
  S  S22  1  0.88453500  0.68090600  0.27870600  1
  S  S23  1  0.38453500  0.31909400  0.22129400  1
  S  S24  1  0.66412300  0.97107100  0.23717800  1
  S  S25  1  0.16412300  0.02892900  0.26282200  1
  S  S26  1  0.83587700  0.47107100  0.76282200  1
  S  S27  1  0.33587700  0.52892900  0.73717800  1
  S  S28  1  0.33587700  0.02892900  0.76282200  1
  S  S29  1  0.83587700  0.97107100  0.73717800  1
  S  S30  1  0.16412300  0.52892900  0.23717800  1
  S  S31  1  0.66412300  0.47107100  0.26282200  1
  S  S32  1  0.37132100  0.83624400  0.48364300  1
  S  S33  1  0.87132100  0.16375600  0.01635700  1
  S  S34  1  0.12867900  0.33624400  0.51635700  1
  S  S35  1  0.62867900  0.66375600  0.98364300  1
  S  S36  1  0.62867900  0.16375600  0.51635700  1
  S  S37  1  0.12867900  0.83624400  0.98364300  1
  S  S38  1  0.87132100  0.66375600  0.48364300  1
  S  S39  1  0.37132100  0.33624400  0.01635700  1
  S  S40  1  0.64213800  0.96377300  0.03462400  1
  S  S41  1  0.14213800  0.03622700  0.46537600  1
  S  S42  1  0.85786200  0.46377300  0.96537600  1
  S  S43  1  0.35786200  0.53622700  0.53462400  1
  S  S44  1  0.35786200  0.03622700  0.96537600  1
  S  S45  1  0.85786200  0.96377300  0.53462400  1
  S  S46  1  0.14213800  0.53622700  0.03462400  1
  S  S47  1  0.64213800  0.46377300  0.46537600  1
loop_
_geom_bond_atom_site_label_1
_geom_bond_atom_site_label_2
_geom_bond_distance
_geom_bond_site_symmetry_2
P0 S16 2.022021 1_555
P0 S32 2.026715 1_555
P0 S13 2.058735 1_555
P0 P12 2.281392 1_565
P1 S17 2.022021 1_555
P1 S33 2.026715 1_555
P1 S12 2.058735 1_555
P1 P13 2.281392 1_545
P2 S18 2.022021 1_555
P2 S34 2.026715 1_555
P2 S15 2.058735 1_555
P3 S19 2.022021 1_555
P3 S35 2.026715 1_555
P3 S14 2.058735 1_555
P4 S20 2.022021 1_555
P4 S36 2.026715 1_555
P4 S9 2.058735 1_555
P4 P8 2.281392 1_545
P5 S21 2.022021 1_555
P5 S37 2.026715 1_555
P5 S8 2.058735 1_555
P5 P9 2.281392 1_565
P6 S22 2.022021 1_555
P6 S38 2.026715 1_555
P6 S11 2.058735 1_555
P7 S23 2.022021 1_555
P7 S39 2.026715 1_555
P7 S10 2.058735 1_555
P8 S45 2.031684 1_555
P8 S29 2.041011 1_555
P8 S0 2.047619 1_555
P9 S44 2.031684 1_555
P9 S28 2.041011 1_555
P9 S1 2.047619 1_555
P10 S47 2.031684 1_555
P10 S31 2.041011 1_555
P10 S2 2.047619 1_555
P10 P6 2.281392 1_555
P11 S46 2.031684 1_555
P11 S30 2.041011 1_555
P11 S3 2.047619 1_555
P11 P7 2.281392 1_555
P12 S41 2.031684 1_555
P12 S25 2.041011 1_555
P12 S4 2.047619 1_555
P13 S40 2.031684 1_555
P13 S24 2.041011 1_555
P13 S5 2.047619 1_555
P14 S43 2.031684 1_555
P14 S27 2.041011 1_555
P14 S6 2.047619 1_555
P14 P2 2.281392 1_555
P15 S42 2.031684 1_555
P15 S26 2.041011 1_555
P15 S7 2.047619 1_555
P15 P3 2.281392 1_555
S0 Tl24 3.128487 1_555
S0 Tl0 3.202677 1_555
S1 Tl25 3.128487 1_555
S1 Tl1 3.202677 1_556
S2 Tl26 3.128487 1_555
S2 Tl2 3.202677 1_555
S3 Tl27 3.128487 1_555
S3 Tl3 3.202677 1_554
S4 Tl28 3.128487 1_555
S4 Tl4 3.202677 1_555
S5 Tl29 3.128487 1_555
S5 Tl5 3.202677 1_554
S6 Tl30 3.128487 1_555
S6 Tl6 3.202677 1_555
S7 Tl31 3.128487 1_555
S7 Tl7 3.202677 1_556
S8 Tl16 2.977848 1_556
S8 Tl11 3.037916 1_555
S8 Tl3 3.280864 1_555
S9 Tl17 2.977848 1_555
S9 Tl10 3.037916 1_555
S9 Tl2 3.280864 1_555
S10 Tl18 2.977848 1_554
S10 Tl9 3.037916 1_555
S10 Tl1 3.280864 1_555
S11 Tl19 2.977848 1_555
S11 Tl8 3.037916 1_555
S11 Tl0 3.280864 1_555
S12 Tl20 2.977848 1_554
S12 Tl15 3.037916 1_555
S12 Tl7 3.280864 1_555
S13 Tl21 2.977848 1_555
S13 Tl14 3.037916 1_555
S13 Tl6 3.280864 1_555
S14 Tl22 2.977848 1_556
S14 Tl13 3.037916 1_555
S14 Tl5 3.280864 1_555
S15 Tl23 2.977848 1_555
S15 Tl12 3.037916 1_555
S15 Tl4 3.280864 1_555
S16 Tl14 3.082613 1_555
S17 Tl15 3.082613 1_555
S18 Tl12 3.082613 1_555
S19 Tl13 3.082613 1_555
S20 Tl10 3.082613 1_555
S21 Tl11 3.082613 1_555
S22 Tl8 3.082613 1_555
S23 Tl9 3.082613 1_555
S24 Tl28 3.119820 1_565
S24 Tl8 3.137939 1_555
S25 Tl29 3.119820 1_445
S25 Tl9 3.137939 1_555
S26 Tl30 3.119820 1_655
S26 Tl10 3.137939 1_555
S27 Tl31 3.119820 1_555
S27 Tl11 3.137939 1_555
S28 Tl24 3.119820 1_545
S28 Tl12 3.137939 1_555
S29 Tl25 3.119820 1_665
S29 Tl13 3.137939 1_555
S30 Tl26 3.119820 1_455
S30 Tl14 3.137939 1_555
S31 Tl27 3.119820 1_555
S31 Tl15 3.137939 1_555
S32 Tl0 3.253624 1_555
S33 Tl1 3.253624 1_655
S34 Tl2 3.253624 1_455
S35 Tl3 3.253624 1_555
S36 Tl4 3.253624 1_555
S37 Tl5 3.253624 1_455
S38 Tl6 3.253624 1_655
S39 Tl7 3.253624 1_555
S40 Tl20 3.097453 1_564
S41 Tl21 3.097453 1_545
S42 Tl22 3.097453 1_556
S43 Tl23 3.097453 1_555
S44 Tl16 3.097453 1_546
S45 Tl17 3.097453 1_565
S46 Tl18 3.097453 1_554
S47 Tl19 3.097453 1_555
