# generated using pymatgen
data_NbInS2
_symmetry_space_group_name_H-M   'P 1'
_cell_length_a   6.75411220
_cell_length_b   6.75411377
_cell_length_c   16.40149790
_cell_angle_alpha   90.00000000
_cell_angle_beta   90.00000000
_cell_angle_gamma   119.99999230
_symmetry_Int_Tables_number   1
_chemical_formula_structural   NbInS2
_chemical_formula_sum   'Nb8 In8 S16'
_cell_volume   647.96391526
_cell_formula_units_Z   8
loop_
 _symmetry_equiv_pos_site_id
 _symmetry_equiv_pos_as_xyz
  1  'x, y, z'
loop_
 _atom_site_type_symbol
 _atom_site_label
 _atom_site_symmetry_multiplicity
 _atom_site_fract_x
 _atom_site_fract_y
 _atom_site_fract_z
 _atom_site_occupancy
  Nb  Nb0_0  1  0.00000000  0.00000000  0.25000000  1
  Nb  Nb0_1  1  0.00000000  0.00000000  0.75000000  1
  Nb  Nb0_2  1  0.00000000  0.50000000  0.25000000  1
  Nb  Nb0_3  1  0.00000000  0.50000000  0.75000000  1
  Nb  Nb0_4  1  0.50000000  0.00000000  0.25000000  1
  Nb  Nb0_5  1  0.50000000  0.00000000  0.75000000  1
  Nb  Nb0_6  1  0.50000000  0.50000000  0.25000000  1
  Nb  Nb0_7  1  0.50000000  0.50000000  0.75000000  1
  In  In0_0  1  0.00000000  0.00000000  0.00000000  1
  In  In0_1  1  0.00000000  0.00000000  0.50000000  1
  In  In0_2  1  0.00000000  0.50000000  0.00000000  1
  In  In0_3  1  0.00000000  0.50000000  0.50000000  1
  In  In0_4  1  0.50000000  0.00000000  0.00000000  1
  In  In0_5  1  0.50000000  0.00000000  0.50000000  1
  In  In0_6  1  0.50000000  0.50000000  0.00000000  1
  In  In0_7  1  0.50000000  0.50000000  0.50000000  1
  S  S0_0  1  0.16666650  0.33333350  0.34556017  1
  S  S0_1  1  0.16666650  0.33333350  0.84556017  1
  S  S0_2  1  0.16666650  0.83333350  0.34556017  1
  S  S0_3  1  0.16666650  0.83333350  0.84556017  1
  S  S0_4  1  0.66666650  0.33333350  0.34556017  1
  S  S0_5  1  0.66666650  0.33333350  0.84556017  1
  S  S0_6  1  0.66666650  0.83333350  0.34556017  1
  S  S0_7  1  0.66666650  0.83333350  0.84556017  1
  S  S1_0  1  0.16666650  0.33333350  0.15443983  1
  S  S1_1  1  0.16666650  0.33333350  0.65443983  1
  S  S1_2  1  0.16666650  0.83333350  0.15443983  1
  S  S1_3  1  0.16666650  0.83333350  0.65443983  1
  S  S1_4  1  0.66666650  0.33333350  0.15443983  1
  S  S1_5  1  0.66666650  0.33333350  0.65443983  1
  S  S1_6  1  0.66666650  0.83333350  0.15443983  1
  S  S1_7  1  0.66666650  0.83333350  0.65443983  1
loop_
_geom_bond_atom_site_label_1
_geom_bond_atom_site_label_2
_geom_bond_distance
_geom_bond_site_symmetry_2
Nb0_0 S1_2 2.501603 1_545
Nb0_0 S0_2 2.501603 1_545
Nb0_0 S1_6 2.501606 1_445
Nb0_0 S0_6 2.501606 1_445
Nb0_0 S1_0 2.501606 1_555
Nb0_0 S0_0 2.501606 1_555
Nb0_1 S0_3 2.501603 1_545
Nb0_1 S1_3 2.501603 1_545
Nb0_1 S0_7 2.501606 1_445
Nb0_1 S1_7 2.501606 1_445
Nb0_1 S0_1 2.501606 1_555
Nb0_1 S1_1 2.501606 1_555
Nb0_2 S1_0 2.501603 1_555
Nb0_2 S0_0 2.501603 1_555
Nb0_2 S1_4 2.501606 1_455
Nb0_2 S0_4 2.501606 1_455
Nb0_2 S1_2 2.501606 1_555
Nb0_2 S0_2 2.501606 1_555
Nb0_3 S0_1 2.501603 1_555
Nb0_3 S1_1 2.501603 1_555
Nb0_3 S0_5 2.501606 1_455
Nb0_3 S1_5 2.501606 1_455
Nb0_3 S0_3 2.501606 1_555
Nb0_3 S1_3 2.501606 1_555
Nb0_4 S1_6 2.501603 1_545
Nb0_4 S0_6 2.501603 1_545
Nb0_4 S1_2 2.501606 1_545
Nb0_4 S0_2 2.501606 1_545
Nb0_4 S1_4 2.501606 1_555
Nb0_4 S0_4 2.501606 1_555
Nb0_5 S0_7 2.501603 1_545
Nb0_5 S1_7 2.501603 1_545
Nb0_5 S0_3 2.501606 1_545
Nb0_5 S1_3 2.501606 1_545
Nb0_5 S0_5 2.501606 1_555
Nb0_5 S1_5 2.501606 1_555
Nb0_6 S1_4 2.501603 1_555
Nb0_6 S0_4 2.501603 1_555
Nb0_6 S1_0 2.501606 1_555
Nb0_6 S0_0 2.501606 1_555
Nb0_6 S1_6 2.501606 1_555
Nb0_6 S0_6 2.501606 1_555
Nb0_7 S0_5 2.501603 1_555
Nb0_7 S1_5 2.501603 1_555
Nb0_7 S0_1 2.501606 1_555
Nb0_7 S1_1 2.501606 1_555
Nb0_7 S0_7 2.501606 1_555
Nb0_7 S1_7 2.501606 1_555
In0_0 S0_3 3.196531 1_544
In0_0 S1_2 3.196531 1_545
In0_0 S0_7 3.196533 1_444
In0_0 S1_6 3.196533 1_445
In0_0 S0_1 3.196533 1_554
In0_0 S1_0 3.196533 1_555
In0_0 In0_4 3.377056 1_555
In0_0 In0_4 3.377056 1_455
In0_0 In0_2 3.377057 1_545
In0_0 In0_2 3.377057 1_555
In0_0 In0_6 3.377057 1_445
In0_0 In0_6 3.377057 1_555
In0_1 S0_2 3.196531 1_545
In0_1 S1_3 3.196531 1_545
In0_1 S0_6 3.196533 1_445
In0_1 S1_7 3.196533 1_445
In0_1 S0_0 3.196533 1_555
In0_1 S1_1 3.196533 1_555
In0_1 In0_5 3.377056 1_555
In0_1 In0_5 3.377056 1_455
In0_1 In0_3 3.377057 1_545
In0_1 In0_3 3.377057 1_555
In0_1 In0_7 3.377057 1_555
In0_1 In0_7 3.377057 1_445
In0_2 S0_1 3.196531 1_554
In0_2 S1_0 3.196531 1_555
In0_2 S0_5 3.196533 1_454
In0_2 S1_4 3.196533 1_455
In0_2 S0_3 3.196533 1_554
In0_2 S1_2 3.196533 1_555
In0_2 In0_6 3.377056 1_555
In0_2 In0_6 3.377056 1_455
In0_2 In0_4 3.377057 1_455
In0_2 In0_4 3.377057 1_565
In0_3 S0_0 3.196531 1_555
In0_3 S1_1 3.196531 1_555
In0_3 S0_4 3.196533 1_455
In0_3 S1_5 3.196533 1_455
In0_3 S0_2 3.196533 1_555
In0_3 S1_3 3.196533 1_555
In0_3 In0_7 3.377056 1_555
In0_3 In0_7 3.377056 1_455
In0_3 In0_5 3.377057 1_565
In0_3 In0_5 3.377057 1_455
In0_4 S0_7 3.196531 1_544
In0_4 S1_6 3.196531 1_545
In0_4 S0_3 3.196533 1_544
In0_4 S1_2 3.196533 1_545
In0_4 S0_5 3.196533 1_554
In0_4 S1_4 3.196533 1_555
In0_4 In0_6 3.377057 1_545
In0_4 In0_6 3.377057 1_555
In0_5 S0_6 3.196531 1_545
In0_5 S1_7 3.196531 1_545
In0_5 S0_2 3.196533 1_545
In0_5 S1_3 3.196533 1_545
In0_5 S0_4 3.196533 1_555
In0_5 S1_5 3.196533 1_555
In0_5 In0_7 3.377057 1_555
In0_5 In0_7 3.377057 1_545
In0_6 S0_5 3.196531 1_554
In0_6 S1_4 3.196531 1_555
In0_6 S0_1 3.196533 1_554
In0_6 S1_0 3.196533 1_555
In0_6 S0_7 3.196533 1_554
In0_6 S1_6 3.196533 1_555
In0_7 S0_4 3.196531 1_555
In0_7 S1_5 3.196531 1_555
In0_7 S0_0 3.196533 1_555
In0_7 S1_1 3.196533 1_555
In0_7 S0_6 3.196533 1_555
In0_7 S1_7 3.196533 1_555
