# generated using pymatgen
data_Na4CaHfSi2SO12
_symmetry_space_group_name_H-M   'P 1'
_cell_length_a   9.42079597
_cell_length_b   9.42227964
_cell_length_c   22.78626564
_cell_angle_alpha   90.96875738
_cell_angle_beta   90.00000000
_cell_angle_gamma   119.99479129
_symmetry_Int_Tables_number   1
_chemical_formula_structural   Na4CaHfSi2SO12
_chemical_formula_sum   'Na24 Ca6 Hf6 Si12 S6 O72'
_cell_volume   1751.40827616
_cell_formula_units_Z   6
loop_
 _symmetry_equiv_pos_site_id
 _symmetry_equiv_pos_as_xyz
  1  'x, y, z'
loop_
 _atom_site_type_symbol
 _atom_site_label
 _atom_site_symmetry_multiplicity
 _atom_site_fract_x
 _atom_site_fract_y
 _atom_site_fract_z
 _atom_site_occupancy
  Na  Na0  1  0.65068793  0.02766290  0.25547626  1
  Na  Na1  1  0.35943032  0.34535248  0.24153600  1
  Na  Na2  1  0.99340131  0.62220017  0.23874669  1
  Na  Na3  1  0.62879886  0.62220017  0.73874669  1
  Na  Na4  1  0.98592215  0.34535248  0.74153600  1
  Na  Na5  1  0.37697498  0.02766290  0.75547626  1
  Na  Na6  1  0.31735493  0.36099590  0.58880926  1
  Na  Na7  1  0.02609732  0.67868548  0.57486900  1
  Na  Na8  1  0.66006831  0.95553317  0.57207969  1
  Na  Na9  1  0.29546586  0.95553317  0.07207969  1
  Na  Na10  1  0.65258915  0.67868548  0.07486900  1
  Na  Na11  1  0.04364198  0.36099590  0.08880926  1
  Na  Na12  1  0.98402093  0.69432990  0.92214326  1
  Na  Na13  1  0.69276332  0.01201948  0.90820300  1
  Na  Na14  1  0.32673431  0.28886717  0.90541369  1
  Na  Na15  1  0.96213186  0.28886717  0.40541369  1
  Na  Na16  1  0.31925515  0.01201948  0.40820300  1
  Na  Na17  1  0.71030798  0.69432990  0.42214326  1
  Na  Na18  1  0.97605685  0.98145776  0.49482607  1
  Na  Na19  1  0.00540090  0.98145776  0.99482607  1
  Na  Na20  1  0.64272385  0.31479076  0.82815907  1
  Na  Na21  1  0.67206790  0.31479076  0.32815907  1
  Na  Na22  1  0.30938985  0.64812476  0.16149307  1
  Na  Na23  1  0.33873390  0.64812476  0.66149307  1
  Ca  Ca0  1  0.00072122  0.00145460  0.34860058  1
  Ca  Ca1  1  0.00073338  0.00145460  0.84860058  1
  Ca  Ca2  1  0.66738822  0.33478760  0.68193358  1
  Ca  Ca3  1  0.66740038  0.33478760  0.18193358  1
  Ca  Ca4  1  0.33405422  0.66812160  0.01526758  1
  Ca  Ca5  1  0.33406638  0.66812160  0.51526758  1
  Hf  Hf0  1  0.98549440  0.00807619  0.64880494  1
  Hf  Hf1  1  0.02258179  0.00807619  0.14880494  1
  Hf  Hf2  1  0.65216140  0.34140919  0.98213794  1
  Hf  Hf3  1  0.68924879  0.34140919  0.48213794  1
  Hf  Hf4  1  0.31882740  0.67474319  0.31547194  1
  Hf  Hf5  1  0.35591479  0.67474319  0.81547194  1
  Si  Si0  1  0.30238418  0.99706934  0.25355658  1
  Si  Si1  1  0.00690945  0.30250598  0.25261277  1
  Si  Si2  1  0.29559652  0.30250598  0.75261277  1
  Si  Si3  1  0.69468516  0.99706934  0.75355658  1
  Si  Si4  1  0.96905118  0.33040234  0.58688958  1
  Si  Si5  1  0.67357645  0.63583898  0.58594577  1
  Si  Si6  1  0.96226352  0.63583898  0.08594577  1
  Si  Si7  1  0.36135216  0.33040234  0.08688958  1
  Si  Si8  1  0.63571718  0.66373634  0.92022358  1
  Si  Si9  1  0.34024245  0.96917298  0.91927977  1
  Si  Si10  1  0.62892952  0.96917298  0.41927977  1
  Si  Si11  1  0.02801816  0.66373634  0.42022358  1
  S  S0  1  0.69673176  0.70828789  0.24959193  1
  S  S1  1  0.01155613  0.70828789  0.74959193  1
  S  S2  1  0.36339876  0.04162089  0.58292493  1
  S  S3  1  0.67822313  0.04162089  0.08292493  1
  S  S4  1  0.03006476  0.37495489  0.91625893  1
  S  S5  1  0.34488913  0.37495489  0.41625893  1
  O  O0  1  0.22448040  0.02090163  0.31240337  1
  O  O1  1  0.79081043  0.78181340  0.30372897  1
  O  O2  1  0.97544327  0.19890040  0.31099279  1
  O  O3  1  0.22345713  0.19890040  0.81099279  1
  O  O4  1  0.99100296  0.78181340  0.80372897  1
  O  O5  1  0.79642123  0.02090163  0.81240337  1
  O  O6  1  0.79575677  0.97345330  0.69573771  1
  O  O7  1  0.17139203  0.19625171  0.69475005  1
  O  O8  1  0.02846140  0.81199083  0.69780346  1
  O  O9  1  0.78352943  0.81199083  0.19780346  1
  O  O10  1  0.02485968  0.19625171  0.19475005  1
  O  O11  1  0.17769653  0.97345330  0.19573771  1
  O  O12  1  0.89114740  0.35423463  0.64573637  1
  O  O13  1  0.45747743  0.11514640  0.63706197  1
  O  O14  1  0.64211027  0.53223340  0.64432579  1
  O  O15  1  0.89012413  0.53223340  0.14432579  1
  O  O16  1  0.65766996  0.11514640  0.13706197  1
  O  O17  1  0.46308823  0.35423463  0.14573637  1
  O  O18  1  0.46242377  0.30678630  0.02907071  1
  O  O19  1  0.83805903  0.52958471  0.02808305  1
  O  O20  1  0.69512840  0.14532383  0.03113646  1
  O  O21  1  0.45019643  0.14532383  0.53113646  1
  O  O22  1  0.69152668  0.52958471  0.52808305  1
  O  O23  1  0.84436353  0.30678630  0.52907071  1
  O  O24  1  0.55781340  0.68756863  0.97907037  1
  O  O25  1  0.12414343  0.44848040  0.97039597  1
  O  O26  1  0.30877627  0.86556740  0.97765979  1
  O  O27  1  0.55679013  0.86556740  0.47765979  1
  O  O28  1  0.32433596  0.44848040  0.47039597  1
  O  O29  1  0.12975423  0.68756863  0.47907037  1
  O  O30  1  0.12908977  0.64012030  0.36240471  1
  O  O31  1  0.50472503  0.86291871  0.36141705  1
  O  O32  1  0.36179440  0.47865783  0.36447046  1
  O  O33  1  0.11686243  0.47865783  0.86447046  1
  O  O34  1  0.35819268  0.86291871  0.86141705  1
  O  O35  1  0.51102953  0.64012030  0.86240471  1
  O  O36  1  0.99512401  0.81579646  0.41404581  1
  O  O37  1  0.81528148  0.00344882  0.41339707  1
  O  O38  1  0.20087741  0.20773816  0.41098146  1
  O  O39  1  0.00686075  0.20773816  0.91098146  1
  O  O40  1  0.18816734  0.00344882  0.91339707  1
  O  O41  1  0.82067245  0.81579646  0.91404581  1
  O  O42  1  0.97142004  0.15208886  0.58741155  1
  O  O43  1  0.19860519  0.03023145  0.58590739  1
  O  O44  1  0.85452908  0.81331768  0.58908854  1
  O  O45  1  0.95878860  0.81331768  0.08908854  1
  O  O46  1  0.83162626  0.03023145  0.08590739  1
  O  O47  1  0.18066882  0.15208886  0.08741155  1
  O  O48  1  0.66179101  0.14912946  0.74737881  1
  O  O49  1  0.48194848  0.33678182  0.74673007  1
  O  O50  1  0.86754441  0.54107116  0.74431446  1
  O  O51  1  0.67352775  0.54107116  0.24431446  1
  O  O52  1  0.85483434  0.33678182  0.24673007  1
  O  O53  1  0.48733945  0.14912946  0.24737881  1
  O  O54  1  0.63808704  0.48542186  0.92074455  1
  O  O55  1  0.86527219  0.36356445  0.91924039  1
  O  O56  1  0.52119608  0.14665068  0.92242154  1
  O  O57  1  0.62545560  0.14665068  0.42242154  1
  O  O58  1  0.49829326  0.36356445  0.41924039  1
  O  O59  1  0.84733582  0.48542186  0.42074455  1
  O  O60  1  0.32845701  0.48246346  0.08071281  1
  O  O61  1  0.14861448  0.67011582  0.08006407  1
  O  O62  1  0.53421041  0.87440516  0.07764846  1
  O  O63  1  0.34019375  0.87440516  0.57764846  1
  O  O64  1  0.52150034  0.67011582  0.58006407  1
  O  O65  1  0.15400545  0.48246346  0.58071281  1
  O  O66  1  0.30475304  0.81875586  0.25407855  1
  O  O67  1  0.53193819  0.69689845  0.25257439  1
  O  O68  1  0.18786208  0.47998468  0.25575554  1
  O  O69  1  0.29212160  0.47998468  0.75575554  1
  O  O70  1  0.16495926  0.69689845  0.75257439  1
  O  O71  1  0.51400182  0.81875586  0.75407855  1
loop_
_geom_bond_atom_site_label_1
_geom_bond_atom_site_label_2
_geom_bond_distance
_geom_bond_site_symmetry_2
Na0 O53 2.340967 1_555
Na0 O52 2.576954 1_555
Na0 O67 2.734201 1_545
Na0 O16 2.825805 1_555
Na0 O66 2.842617 1_545
Na0 O31 2.849615 1_545
Na0 O2 2.925615 1_555
Na1 O17 2.377019 1_555
Na1 O68 2.522454 1_555
Na1 O51 2.588594 1_555
Na1 O53 2.669072 1_555
Na2 O15 2.325482 1_555
Na2 O52 2.340073 1_555
Na2 O66 2.588867 1_655
Na2 O51 2.716889 1_555
Na2 O68 2.788178 1_655
Na3 O14 2.325484 1_555
Na3 O49 2.340073 1_555
Na3 O71 2.588874 1_555
Na3 O50 2.716898 1_555
Na3 O69 2.788187 1_555
Na4 O12 2.377015 1_555
Na4 O69 2.522446 1_655
Na4 O50 2.588587 1_555
Na4 O48 2.669065 1_555
Na5 O48 2.340975 1_555
Na5 O49 2.576952 1_555
Na5 O70 2.734202 1_545
Na5 O13 2.825806 1_555
Na5 O71 2.842610 1_545
Na5 O34 2.849613 1_545
Na5 O3 2.925615 1_555
Na6 O65 2.340981 1_555
Na6 O64 2.576957 1_555
Na6 O43 2.734201 1_555
Na6 O28 2.825787 1_555
Na6 O42 2.842617 1_455
Na6 O7 2.849615 1_555
Na6 O14 2.925615 1_555
Na7 O29 2.376993 1_555
Na7 O44 2.522454 1_455
Na7 O63 2.588588 1_555
Na7 O65 2.669058 1_555
Na8 O27 2.325462 1_555
Na8 O64 2.340067 1_555
Na8 O42 2.588867 1_565
Na8 O63 2.716902 1_555
Na8 O44 2.788178 1_555
Na9 O26 2.325457 1_554
Na9 O61 2.340067 1_555
Na9 O47 2.588874 1_565
Na9 O62 2.716884 1_555
Na9 O45 2.788187 1_455
Na10 O24 2.377000 1_554
Na10 O45 2.522446 1_555
Na10 O62 2.588603 1_555
Na10 O60 2.669073 1_555
Na11 O60 2.340964 1_555
Na11 O61 2.576961 1_555
Na11 O46 2.734202 1_455
Na11 O25 2.825784 1_554
Na11 O47 2.842610 1_555
Na11 O10 2.849613 1_555
Na11 O15 2.925615 1_455
Na12 O41 2.340967 1_555
Na12 O40 2.576954 1_665
Na12 O55 2.734211 1_555
Na12 O4 2.825805 1_555
Na12 O54 2.842611 1_555
Na12 O19 2.849597 1_556
Na12 O26 2.925615 1_655
Na13 O5 2.377019 1_555
Na13 O56 2.522435 1_555
Na13 O39 2.588594 1_655
Na13 O41 2.669072 1_545
Na14 O3 2.325482 1_555
Na14 O40 2.340073 1_555
Na14 O54 2.588870 1_555
Na14 O39 2.716889 1_555
Na14 O56 2.788191 1_555
Na15 O2 2.325484 1_555
Na15 O37 2.340073 1_555
Na15 O59 2.588856 1_555
Na15 O38 2.716898 1_655
Na15 O57 2.788174 1_555
Na16 O0 2.377015 1_555
Na16 O57 2.522452 1_555
Na16 O38 2.588587 1_555
Na16 O36 2.669065 1_445
Na17 O36 2.340975 1_555
Na17 O37 2.576952 1_565
Na17 O58 2.734208 1_555
Na17 O1 2.825806 1_555
Na17 O59 2.842626 1_555
Na17 O22 2.849601 1_555
Na17 O27 2.925615 1_555
Na18 O36 2.457638 1_555
Na18 O37 2.471149 1_565
Na18 O44 2.595310 1_555
Na18 O42 2.644425 1_565
Na18 O43 2.813991 1_665
Na18 O38 2.881735 1_665
Na19 O41 2.457638 1_455
Na19 O40 2.471149 1_565
Na19 O45 2.595310 1_456
Na19 O47 2.644425 1_566
Na19 O46 2.813991 1_466
Na19 O39 2.881735 1_565
Na20 O48 2.457638 1_555
Na20 O49 2.471149 1_555
Na20 O56 2.595310 1_555
Na20 O54 2.644425 1_555
Na20 O55 2.813991 1_555
Na20 O50 2.881735 1_555
Na21 O53 2.457638 1_555
Na21 O52 2.471149 1_555
Na21 O57 2.595310 1_555
Na21 O59 2.644425 1_555
Na21 O58 2.813991 1_555
Na21 O51 2.881735 1_555
Na22 O60 2.457638 1_555
Na22 O61 2.471149 1_555
Na22 O68 2.595310 1_555
Na22 O66 2.644425 1_555
Na22 O67 2.813991 1_555
Na22 O62 2.881735 1_555
Na23 O65 2.457638 1_555
Na23 O64 2.471149 1_555
Na23 O69 2.595310 1_555
Na23 O71 2.644425 1_555
Na23 O70 2.813991 1_555
Na23 O63 2.881735 1_555
Ca0 O2 2.179215 1_455
Ca0 O0 2.185498 1_555
Ca0 O1 2.252888 1_445
Ca0 O37 2.294379 1_455
Ca0 O36 2.298419 1_445
Ca0 O38 2.365588 1_555
Ca1 O3 2.179215 1_555
Ca1 O5 2.185498 1_455
Ca1 O4 2.252888 1_445
Ca1 O40 2.294379 1_555
Ca1 O41 2.298419 1_445
Ca1 O39 2.365588 1_555
Ca2 O14 2.179215 1_555
Ca2 O12 2.185498 1_555
Ca2 O13 2.252888 1_555
Ca2 O49 2.294379 1_555
Ca2 O48 2.298419 1_555
Ca2 O50 2.365588 1_555
Ca3 O15 2.179215 1_555
Ca3 O17 2.185498 1_555
Ca3 O16 2.252888 1_555
Ca3 O52 2.294379 1_555
Ca3 O53 2.298419 1_555
Ca3 O51 2.365588 1_555
Ca4 O26 2.179215 1_554
Ca4 O24 2.185498 1_554
Ca4 O25 2.252888 1_554
Ca4 O61 2.294379 1_555
Ca4 O60 2.298419 1_555
Ca4 O62 2.365588 1_555
Ca5 O27 2.179215 1_555
Ca5 O29 2.185498 1_555
Ca5 O28 2.252888 1_555
Ca5 O64 2.294379 1_555
Ca5 O65 2.298419 1_555
Ca5 O63 2.365588 1_555
Hf0 O6 1.968232 1_545
Hf0 O42 2.014920 1_555
Hf0 O7 2.034543 1_655
Hf0 O44 2.095971 1_545
Hf0 O8 2.375169 1_645
Hf0 O43 2.391541 1_655
Hf1 O11 1.968232 1_545
Hf1 O47 2.014920 1_555
Hf1 O10 2.034543 1_555
Hf1 O45 2.095971 1_445
Hf1 O9 2.375169 1_445
Hf1 O46 2.391541 1_455
Hf2 O18 1.968232 1_556
Hf2 O54 2.014920 1_555
Hf2 O19 2.034543 1_556
Hf2 O56 2.095971 1_555
Hf2 O20 2.375169 1_556
Hf2 O55 2.391541 1_555
Hf3 O23 1.968232 1_555
Hf3 O59 2.014920 1_555
Hf3 O22 2.034543 1_555
Hf3 O57 2.095971 1_555
Hf3 O21 2.375169 1_555
Hf3 O58 2.391541 1_555
Hf4 O30 1.968232 1_555
Hf4 O66 2.014920 1_555
Hf4 O31 2.034543 1_555
Hf4 O68 2.095971 1_555
Hf4 O32 2.375169 1_555
Hf4 O67 2.391541 1_555
Hf5 O35 1.968232 1_555
Hf5 O71 2.014920 1_555
Hf5 O34 2.034543 1_555
Hf5 O69 2.095971 1_555
Hf5 O33 2.375169 1_555
Hf5 O70 2.391541 1_555
O0 Si0 1.594259 1_545
O1 S0 1.464369 1_555
O2 Si1 1.601567 1_655
O3 Si2 1.601567 1_555
O4 S1 1.464369 1_655
O5 Si3 1.594259 1_545
O6 Si3 1.701124 1_555
O7 Si2 1.701155 1_555
O8 S1 1.502024 1_555
O9 S0 1.502024 1_555
O10 Si1 1.701155 1_555
O11 Si0 1.701124 1_555
O12 Si4 1.594259 1_555
O13 S2 1.464369 1_555
O14 Si5 1.601567 1_555
O15 Si6 1.601567 1_555
O16 S3 1.464369 1_555
O17 Si7 1.594259 1_555
O18 Si7 1.701124 1_555
O19 Si6 1.701155 1_555
O20 S3 1.502024 1_555
O21 S2 1.502024 1_555
O22 Si5 1.701155 1_555
O23 Si4 1.701124 1_555
O24 Si8 1.594259 1_555
O25 S4 1.464369 1_555
O26 Si9 1.601567 1_555
O27 Si10 1.601567 1_555
O28 S5 1.464369 1_555
O29 Si11 1.594259 1_555
O30 Si11 1.701124 1_555
O31 Si10 1.701155 1_555
O32 S5 1.502024 1_555
O33 S4 1.502024 1_555
O34 Si9 1.701155 1_555
O35 Si8 1.701124 1_555
O36 Si11 1.618448 1_655
O37 Si10 1.624475 1_545
O38 S5 1.481170 1_555
O39 S4 1.481173 1_555
O40 Si9 1.624466 1_545
O41 Si8 1.618454 1_555
O42 Si4 1.691628 1_555
O43 S2 1.503336 1_555
O44 Si5 1.689172 1_555
O45 Si6 1.689177 1_555
O46 S3 1.503326 1_555
O47 Si7 1.691633 1_555
O48 Si3 1.618448 1_545
O49 Si2 1.624475 1_555
O50 S1 1.481170 1_655
O51 S0 1.481173 1_555
O52 Si1 1.624466 1_655
O53 Si0 1.618454 1_545
O54 Si8 1.691642 1_555
O55 S4 1.503321 1_655
O56 Si9 1.689172 1_545
O57 Si10 1.689162 1_545
O58 S5 1.503340 1_555
O59 Si11 1.691632 1_655
O60 Si7 1.618460 1_555
O61 Si6 1.624461 1_455
O62 S3 1.481166 1_565
O63 S2 1.481159 1_565
O64 Si5 1.624479 1_555
O65 Si4 1.618449 1_455
O66 Si0 1.691628 1_555
O67 S0 1.503336 1_555
O68 Si1 1.689172 1_555
O69 Si2 1.689177 1_555
O70 S1 1.503326 1_555
O71 Si3 1.691633 1_555
