# generated using pymatgen
data_Cu5Se2(ClO4)2
_symmetry_space_group_name_H-M   'P 1'
_cell_length_a   5.59734897
_cell_length_b   6.03631141
_cell_length_c   13.71256389
_cell_angle_alpha   89.99999447
_cell_angle_beta   90.00002561
_cell_angle_gamma   95.29871366
_symmetry_Int_Tables_number   1
_chemical_formula_structural   Cu5Se2(ClO4)2
_chemical_formula_sum   'Cu10 Se4 Cl4 O16'
_cell_volume   461.33124428
_cell_formula_units_Z   2
loop_
 _symmetry_equiv_pos_site_id
 _symmetry_equiv_pos_as_xyz
  1  'x, y, z'
loop_
 _atom_site_type_symbol
 _atom_site_label
 _atom_site_symmetry_multiplicity
 _atom_site_fract_x
 _atom_site_fract_y
 _atom_site_fract_z
 _atom_site_occupancy
  Cu  Cu0  1  0.51112363  0.74172146  0.00309174  1
  Cu  Cu1  1  0.05534535  0.43439756  0.31078781  1
  Cu  Cu2  1  0.94465465  0.56560144  0.68921219  1
  Cu  Cu3  1  0.50000000  0.50000000  0.50000000  1
  Cu  Cu4  1  0.55534535  0.43439756  0.18921319  1
  Cu  Cu5  1  0.44465465  0.56560144  0.81078681  1
  Cu  Cu6  1  0.01112363  0.74172046  0.49690826  1
  Cu  Cu7  1  0.48887637  0.25827854  0.99690826  1
  Cu  Cu8  1  -0.00000000  0.50000000  0.00000000  1
  Cu  Cu9  1  0.98887637  0.25827954  0.50309174  1
  Se  Se0  1  0.59870704  0.93814484  0.63534188  1
  Se  Se1  1  0.90129296  0.06185516  0.13534288  1
  Se  Se2  1  0.09870704  0.93814484  0.86465712  1
  Se  Se3  1  0.40129296  0.06185516  0.36465812  1
  Cl  Cl0  1  0.23245486  0.32796279  0.67508249  1
  Cl  Cl1  1  0.73245486  0.32796279  0.82491551  1
  Cl  Cl2  1  0.76754514  0.67203721  0.32491751  1
  Cl  Cl3  1  0.26754514  0.67203721  0.17508449  1
  O  O0  1  0.42511801  0.77603692  0.55709075  1
  O  O1  1  0.18106888  0.50493306  0.43943941  1
  O  O2  1  0.63073918  0.02609542  0.07382511  1
  O  O3  1  0.68106888  0.50493306  0.06056159  1
  O  O4  1  0.31798639  0.25186330  0.27787368  1
  O  O5  1  0.07488199  0.22396308  0.05709075  1
  O  O6  1  0.57488199  0.22396308  0.44290925  1
  O  O7  1  0.81893112  0.49506694  0.56056059  1
  O  O8  1  0.86926082  0.97390458  0.57382411  1
  O  O9  1  0.18201261  0.74813670  0.77787268  1
  O  O10  1  0.68201361  0.74813670  0.72212632  1
  O  O11  1  0.31893112  0.49506694  0.93943841  1
  O  O12  1  0.81798739  0.25186330  0.22212732  1
  O  O13  1  0.92511801  0.77603692  0.94290925  1
  O  O14  1  0.13073918  0.02609542  0.42617589  1
  O  O15  1  0.36926082  0.97390458  0.92617489  1
loop_
_geom_bond_atom_site_label_1
_geom_bond_atom_site_label_2
_geom_bond_distance
_geom_bond_site_symmetry_2
Cu0 O3 1.954482 1_555
Cu0 O11 1.959615 1_554
Cu0 O15 1.978081 1_554
Cu0 O2 2.030612 1_565
Cu0 O13 2.450520 1_554
Cu1 O1 1.932192 1_555
Cu1 O4 1.969287 1_555
Cu1 O12 2.046181 1_455
Cu2 O7 1.932190 1_555
Cu2 O10 1.969290 1_555
Cu2 O9 2.046184 1_655
Cu3 O0 1.921955 1_555
Cu3 O6 1.921955 1_555
Cu3 O7 1.971589 1_555
Cu3 O1 1.971589 1_555
Cu4 O3 1.932192 1_555
Cu4 O12 1.969291 1_555
Cu4 O4 2.046185 1_555
Cu5 O11 1.932191 1_555
Cu5 O9 1.969294 1_555
Cu5 O10 2.046188 1_555
Cu6 O1 1.954472 1_555
Cu6 O7 1.959605 1_455
Cu6 O8 1.978079 1_455
Cu6 O14 2.030611 1_565
Cu6 O0 2.450519 1_555
Cu7 O11 1.954482 1_555
Cu7 O3 1.959615 1_556
Cu7 O2 1.978081 1_556
Cu7 O15 2.030612 1_545
Cu7 O5 2.450520 1_556
Cu8 O13 1.921955 1_454
Cu8 O5 1.921955 1_555
Cu8 O3 1.971595 1_455
Cu8 O11 1.971595 1_554
Cu9 O7 1.954472 1_555
Cu9 O1 1.959605 1_655
Cu9 O14 1.978079 1_655
Cu9 O8 2.030611 1_545
Cu9 O6 2.450519 1_555
Cl0 Cu2 2.262095 1_455
Cl0 Cu5 2.572263 1_555
Cl0 Cu9 2.737163 1_455
Cl0 Cu3 2.966111 1_555
Cl1 Cu5 2.262094 1_555
Cl1 Cu2 2.572253 1_555
Cl1 Cu7 2.737188 1_555
Cl1 Cu8 2.966132 1_656
Cl2 Cu1 2.262099 1_655
Cl2 Cu4 2.572266 1_555
Cl2 Cu6 2.737163 1_655
Cl2 Cu3 2.966111 1_555
Cl3 Cu4 2.262098 1_555
Cl3 Cu1 2.572257 1_555
Cl3 Cu0 2.737188 1_555
Cl3 Cu8 2.966132 1_555
O0 Se0 1.696285 1_555
O2 Se1 1.729503 1_555
O4 Se3 1.745820 1_555
O5 Se1 1.696294 1_455
O6 Se3 1.696285 1_555
O8 Se0 1.729504 1_555
O9 Se2 1.745819 1_555
O10 Se0 1.745820 1_555
O12 Se1 1.745819 1_555
O13 Se2 1.696294 1_655
O14 Se3 1.729504 1_555
O15 Se2 1.729503 1_555
