# generated using pymatgen
data_MgNb2(PO5)2
_symmetry_space_group_name_H-M   'P 1'
_cell_length_a   5.31145600
_cell_length_b   6.57425300
_cell_length_c   6.57425300
_cell_angle_alpha   90.00000000
_cell_angle_beta   90.00000000
_cell_angle_gamma   90.00000000
_symmetry_Int_Tables_number   1
_chemical_formula_structural   MgNb2(PO5)2
_chemical_formula_sum   'Mg1 Nb2 P2 O10'
_cell_volume   229.56539081
_cell_formula_units_Z   1
loop_
 _symmetry_equiv_pos_site_id
 _symmetry_equiv_pos_as_xyz
  1  'x, y, z'
loop_
 _atom_site_type_symbol
 _atom_site_label
 _atom_site_symmetry_multiplicity
 _atom_site_fract_x
 _atom_site_fract_y
 _atom_site_fract_z
 _atom_site_occupancy
  Mg  Mg0  1  0.00000000  0.25000000  0.75000000  1
  Nb  Nb0  1  0.24068700  0.75000000  0.75000000  1
  Nb  Nb1  1  0.75931300  0.25000000  0.25000000  1
  P  P0  1  0.50000000  0.25000000  0.75000000  1
  P  P1  1  0.50000000  0.75000000  0.25000000  1
  O  O0  1  0.90947500  0.75000000  0.75000000  1
  O  O1  1  0.09052500  0.25000000  0.25000000  1
  O  O2  1  0.66304700  0.55603100  0.27461900  1
  O  O3  1  0.66304700  0.94396900  0.22538100  1
  O  O4  1  0.68961600  0.27452500  0.92704800  1
  O  O5  1  0.68961600  0.22547500  0.57295200  1
  O  O6  1  0.31038400  0.42704800  0.72547500  1
  O  O7  1  0.31038400  0.07295200  0.77452500  1
  O  O8  1  0.33695300  0.72538100  0.05603100  1
  O  O9  1  0.33695300  0.77461900  0.44396900  1
loop_
_geom_bond_atom_site_label_1
_geom_bond_atom_site_label_2
_geom_bond_distance
_geom_bond_site_symmetry_2
Mg0 O6 2.024512 1_555
Mg0 O7 2.024512 1_555
Mg0 O5 2.024512 1_455
Mg0 O4 2.024512 1_455
Nb0 O0 1.759218 1_455
Nb0 O8 2.082181 1_556
Nb0 O9 2.082181 1_555
Nb0 O7 2.161222 1_565
Nb0 O6 2.161222 1_555
Nb1 O1 1.759218 1_655
Nb1 O3 2.082181 1_545
Nb1 O2 2.082181 1_555
Nb1 O5 2.161222 1_555
Nb1 O4 2.161222 1_554
O2 P1 1.549942 1_555
O3 P1 1.549942 1_555
O4 P0 1.547618 1_555
O5 P0 1.547618 1_555
O6 P0 1.547618 1_555
O7 P0 1.547618 1_555
O8 P1 1.549942 1_555
O9 P1 1.549942 1_555
