# generated using pymatgen
data_MgTi2(Fe2O5)2
_symmetry_space_group_name_H-M   'P 1'
_cell_length_a   5.18447071
_cell_length_b   5.68506986
_cell_length_c   7.86530770
_cell_angle_alpha   110.24893799
_cell_angle_beta   90.96551679
_cell_angle_gamma   116.65867793
_symmetry_Int_Tables_number   1
_chemical_formula_structural   MgTi2(Fe2O5)2
_chemical_formula_sum   'Mg1 Ti2 Fe4 O10'
_cell_volume   190.23433775
_cell_formula_units_Z   1
loop_
 _symmetry_equiv_pos_site_id
 _symmetry_equiv_pos_as_xyz
  1  'x, y, z'
loop_
 _atom_site_type_symbol
 _atom_site_label
 _atom_site_symmetry_multiplicity
 _atom_site_fract_x
 _atom_site_fract_y
 _atom_site_fract_z
 _atom_site_occupancy
  Mg  Mg0  1  0.19138600  0.37950100  0.90256700  1
  Ti  Ti0  1  0.96707800  0.96820300  0.50298900  1
  Ti  Ti1  1  0.99653800  0.92987500  0.04097100  1
  Fe  Fe0  1  0.39810800  0.80299000  0.76558700  1
  Fe  Fe1  1  0.64301800  0.30185300  0.64812200  1
  Fe  Fe2  1  0.63678500  0.21761800  0.19949600  1
  Fe  Fe3  1  0.36222800  0.70467900  0.30353100  1
  O  O0  1  0.18936700  0.96729400  0.25012100  1
  O  O1  1  0.81410600  0.00079500  0.72255000  1
  O  O2  1  0.57755100  0.79315600  0.01784700  1
  O  O3  1  0.75167000  0.11766200  0.40301400  1
  O  O4  1  0.37806200  0.14511300  0.96524500  1
  O  O5  1  0.25739200  0.86460100  0.56062600  1
  O  O6  1  0.02462100  0.32219100  0.12625200  1
  O  O7  1  0.68537600  0.59182600  0.34902200  1
  O  O8  1  0.99128200  0.60940300  0.85152500  1
  O  O9  1  0.31043100  0.39038500  0.65442300  1
loop_
_geom_bond_atom_site_label_1
_geom_bond_atom_site_label_2
_geom_bond_distance
_geom_bond_site_symmetry_2
Mg0 O6 2.035743 1_556
Mg0 O9 2.069762 1_555
Mg0 O1 2.117455 1_455
Mg0 O8 2.124059 1_455
Mg0 O4 2.133345 1_555
Mg0 O2 2.144450 1_556
Fe0 O5 1.958120 1_555
Fe0 O9 2.020767 1_555
Fe0 O1 2.035283 1_565
Fe0 O4 2.081473 1_565
Fe0 O8 2.143995 1_455
Fe0 O2 2.206020 1_556
Fe1 O9 1.998331 1_555
Fe1 O8 2.002529 1_555
Fe1 O3 2.073393 1_555
Fe1 O5 2.227051 1_545
Fe1 O1 2.469241 1_555
Fe2 O7 1.936405 1_555
Fe2 O6 1.982865 1_655
Fe2 O3 2.035006 1_555
Fe2 O4 2.063644 1_554
Fe2 O2 2.211869 1_545
Fe2 O0 2.241784 1_545
Fe3 O6 2.034660 1_555
Fe3 O5 2.102118 1_555
Fe3 O7 2.109425 1_555
Fe3 O3 2.149995 1_565
Fe3 O0 2.197894 1_555
Fe3 O2 2.628915 1_555
O0 Ti1 1.806187 1_455
O0 Ti0 2.315018 1_455
O1 Ti0 1.897913 1_545
O2 Ti1 1.931202 1_555
O3 Ti0 1.967706 1_545
O4 Ti1 2.033915 1_446
O5 Ti0 1.942971 1_455
O6 Ti1 2.028624 1_445
O7 Ti0 1.876292 1_555
O8 Ti1 1.901389 1_556
O9 Ti0 2.112791 1_445
