# generated using pymatgen
data_Mg(CrS2)2
_symmetry_space_group_name_H-M   'P 1'
_cell_length_a   6.07338386
_cell_length_b   5.80772911
_cell_length_c   6.43664978
_cell_angle_alpha   116.13606594
_cell_angle_beta   117.52182914
_cell_angle_gamma   91.34388111
_symmetry_Int_Tables_number   1
_chemical_formula_structural   Mg(CrS2)2
_chemical_formula_sum   'Mg1 Cr2 S4'
_cell_volume   173.25392718
_cell_formula_units_Z   1
loop_
 _symmetry_equiv_pos_site_id
 _symmetry_equiv_pos_as_xyz
  1  'x, y, z'
loop_
 _atom_site_type_symbol
 _atom_site_label
 _atom_site_symmetry_multiplicity
 _atom_site_fract_x
 _atom_site_fract_y
 _atom_site_fract_z
 _atom_site_occupancy
  Mg  Mg0  1  0.55779700  0.05821500  0.11409200  1
  Cr  Cr0  1  0.24468000  0.74485700  0.48865600  1
  Cr  Cr1  1  0.99320900  0.99293500  0.98558100  1
  S  S0  1  0.91939600  0.86801500  0.23849600  1
  S  S1  1  0.62251500  0.08260900  0.76338400  1
  S  S2  1  0.32042400  0.37130400  0.24011000  1
  S  S3  1  0.14197900  0.68206400  0.76343100  1
loop_
_geom_bond_atom_site_label_1
_geom_bond_atom_site_label_2
_geom_bond_distance
_geom_bond_site_symmetry_2
Mg0 S2 2.438630 1_555
Mg0 S0 2.439725 1_545
Mg0 S1 2.523786 1_554
Mg0 S3 2.524653 1_544
Cr0 S2 2.268673 1_555
Cr0 S0 2.268994 1_455
Cr0 S1 2.285458 1_565
Cr0 S3 2.286307 1_555
Cr1 S2 2.253166 1_666
Cr1 S0 2.253261 1_556
Cr1 S3 2.262024 1_655
Cr1 S1 2.262926 1_565
