# generated using pymatgen
data_Rb3MgNbO8
_symmetry_space_group_name_H-M   'P 1'
_cell_length_a   6.92142780
_cell_length_b   7.28067128
_cell_length_c   5.97021376
_cell_angle_alpha   98.52285667
_cell_angle_beta   110.69153627
_cell_angle_gamma   117.51840166
_symmetry_Int_Tables_number   1
_chemical_formula_structural   Rb3MgNbO8
_chemical_formula_sum   'Rb3 Mg1 Nb1 O8'
_cell_volume   231.35018774
_cell_formula_units_Z   1
loop_
 _symmetry_equiv_pos_site_id
 _symmetry_equiv_pos_as_xyz
  1  'x, y, z'
loop_
 _atom_site_type_symbol
 _atom_site_label
 _atom_site_symmetry_multiplicity
 _atom_site_fract_x
 _atom_site_fract_y
 _atom_site_fract_z
 _atom_site_occupancy
  Rb  Rb0  1  0.00000000  0.46461200  0.50811200  1
  Rb  Rb1  1  0.41298600  0.75502600  0.23790500  1
  Rb  Rb2  1  0.58701400  0.34203900  0.82491800  1
  Mg  Mg0  1  0.00000000  0.92641200  0.55441800  1
  Nb  Nb0  1  0.00000000  0.98058200  0.05406400  1
  O  O0  1  0.25019900  0.95279900  0.90879600  1
  O  O1  1  0.00000000  0.11300400  0.35887900  1
  O  O2  1  0.00000000  0.25696900  0.02151900  1
  O  O3  1  0.74980100  0.70260000  0.65859700  1
  O  O4  1  0.62209800  0.77770200  0.77126700  1
  O  O5  1  0.00000000  0.18299200  0.77892100  1
  O  O6  1  0.00000000  0.76965900  0.23343400  1
  O  O7  1  0.37790200  0.15560400  0.14916900  1
loop_
_geom_bond_atom_site_label_1
_geom_bond_atom_site_label_2
_geom_bond_distance
_geom_bond_site_symmetry_2
Mg0 O1 1.917940 1_565
Mg0 O6 2.080048 1_555
Mg0 O3 2.120140 1_455
Mg0 O0 2.120141 1_555
Mg0 O5 2.131674 1_565
Nb0 O1 1.929038 1_565
Nb0 O6 1.998118 1_555
Nb0 O2 2.050104 1_565
Nb0 O7 2.108018 1_565
Nb0 O4 2.108018 1_454
Nb0 O0 2.263856 1_554
Nb0 O3 2.263856 1_454
Nb0 O5 2.363812 1_564
O0 O7 1.513426 1_566
O0 Rb1 2.824331 1_556
O0 Rb2 2.976125 1_565
O0 Rb0 3.196743 1_555
O1 Rb0 2.582839 1_555
O2 O5 1.468543 1_554
O2 Rb2 3.067991 1_454
O2 Rb1 3.067996 1_555
O2 Rb0 3.069708 1_555
O3 O4 1.513426 1_555
O3 Rb2 2.824333 1_555
O3 Rb1 2.976126 1_555
O3 Rb0 3.196743 1_655
O4 Rb1 2.937383 1_555
O4 Rb0 3.360444 1_555
O5 Rb0 2.792969 1_555
O6 Rb1 2.900198 1_555
O6 Rb2 2.900204 1_454
O6 Rb0 2.949810 1_555
O7 Rb2 2.937386 1_554
O7 Rb0 3.360444 1_655
