# generated using pymatgen
data_NaIn2Sn2P3(SO8)3
_symmetry_space_group_name_H-M   'P 1'
_cell_length_a   8.82304079
_cell_length_b   8.82898640
_cell_length_c   23.12892739
_cell_angle_alpha   89.99649103
_cell_angle_beta   90.08890895
_cell_angle_gamma   120.01861511
_symmetry_Int_Tables_number   1
_chemical_formula_structural   NaIn2Sn2P3(SO8)3
_chemical_formula_sum   'Na3 In6 Sn6 P9 S9 O72'
_cell_volume   1560.03051569
_cell_formula_units_Z   3
loop_
 _symmetry_equiv_pos_site_id
 _symmetry_equiv_pos_as_xyz
  1  'x, y, z'
loop_
 _atom_site_type_symbol
 _atom_site_label
 _atom_site_symmetry_multiplicity
 _atom_site_fract_x
 _atom_site_fract_y
 _atom_site_fract_z
 _atom_site_occupancy
  Na  Na0  1  0.67831893  0.33505743  0.83385426  1
  Na  Na1  1  0.66274959  0.34007563  0.33116770  1
  Na  Na2  1  0.34374882  0.67329515  0.16841543  1
  In  In0  1  0.67383817  0.33469281  0.68697850  1
  In  In1  1  0.65288660  0.32805121  0.18502519  1
  In  In2  1  0.66765451  0.32650848  0.98558637  1
  In  In3  1  0.66596084  0.33882114  0.47992694  1
  In  In4  1  0.33502218  0.66744577  0.31269192  1
  In  In5  1  0.32743756  0.66775600  0.81089581  1
  Sn  Sn0  1  0.00829026  0.99474514  0.35359680  1
  Sn  Sn1  1  0.99440901  0.00208477  0.85419323  1
  Sn  Sn2  1  0.99473499  0.99429473  0.64960999  1
  Sn  Sn3  1  0.99958497  -0.00000357  0.14639672  1
  Sn  Sn4  1  0.33396983  0.66016695  0.01904731  1
  Sn  Sn5  1  0.32756440  0.66150190  0.51440885  1
  P  P0  1  0.28916246  0.99878101  0.24942164  1
  P  P1  1  0.71323495  0.71198223  0.24995815  1
  P  P2  1  0.99847351  0.71348874  0.75103117  1
  P  P3  1  0.70899315  0.99882566  0.75049420  1
  P  P4  1  0.66668386  0.03625958  0.08394994  1
  P  P5  1  0.36988783  0.33141293  0.08292670  1
  P  P6  1  0.04151577  0.37564563  0.91541602  1
  P  P7  1  0.32947723  0.37212243  0.41516957  1
  P  P8  1  0.04208534  0.66663164  0.41581299  1
  S  S0  1  0.99787810  0.28781103  0.25041407  1
  S  S1  1  0.28967376  0.28822655  0.74987915  1
  S  S2  1  0.96389030  0.33232355  0.58317743  1
  S  S3  1  0.37044407  0.03637333  0.58341360  1
  S  S4  1  0.66398727  0.62944618  0.58350212  1
  S  S5  1  0.96247426  0.62895430  0.08377067  1
  S  S6  1  0.62587303  0.66555931  0.91553396  1
  S  S7  1  0.33128059  0.95902520  0.91598285  1
  S  S8  1  0.62948737  0.95983850  0.41661495  1
  O  O0  1  0.21046293  0.03377740  0.30453020  1
  O  O1  1  0.82285705  0.79691436  0.30592675  1
  O  O2  1  0.97023200  0.18073805  0.30349546  1
  O  O3  1  0.21195052  0.17713927  0.80218165  1
  O  O4  1  0.96750024  0.79862075  0.80549842  1
  O  O5  1  0.82890639  0.03795131  0.80429395  1
  O  O6  1  0.79132821  0.97149053  0.69449002  1
  O  O7  1  0.18207650  0.21011003  0.69631857  1
  O  O8  1  0.03161528  0.82479869  0.69492464  1
  O  O9  1  0.79582701  0.82576927  0.19524816  1
  O  O10  1  0.02701549  0.20948199  0.19761321  1
  O  O11  1  0.17568600  0.97040166  0.19479082  1
  O  O12  1  0.88912557  0.36664988  0.63515073  1
  O  O13  1  0.47907528  0.11342224  0.63564766  1
  O  O14  1  0.63086586  0.52042376  0.63550567  1
  O  O15  1  0.88931763  0.51978208  0.13557979  1
  O  O16  1  0.63042323  0.11264604  0.13804679  1
  O  O17  1  0.48426594  0.37553284  0.13691286  1
  O  O18  1  0.44717278  0.30226296  0.02756825  1
  O  O19  1  0.85869294  0.55672097  0.03061819  1
  O  O20  1  0.70185513  0.14307756  0.02859393  1
  O  O21  1  0.44688695  0.14582369  0.53157912  1
  O  O22  1  0.69951435  0.55456920  0.53197208  1
  O  O23  1  0.85315651  0.29751177  0.53159380  1
  O  O24  1  0.55045134  0.70023621  0.96840275  1
  O  O25  1  0.15596303  0.45716236  0.97079050  1
  O  O26  1  0.30146111  0.85074837  0.96899495  1
  O  O27  1  0.55259541  0.85140460  0.47063351  1
  O  O28  1  0.29901217  0.45033357  0.47248851  1
  O  O29  1  0.15478256  0.70417321  0.47267348  1
  O  O30  1  0.12307479  0.63415516  0.36278907  1
  O  O31  1  0.51927020  0.88460968  0.36538522  1
  O  O32  1  0.36747063  0.48928436  0.36275683  1
  O  O33  1  0.12361261  0.48672962  0.86156565  1
  O  O34  1  0.36430154  0.88307398  0.86439549  1
  O  O35  1  0.51896503  0.63743888  0.86362138  1
  O  O36  1  0.02332613  0.83089635  0.41115996  1
  O  O37  1  0.80323064  0.97602988  0.41014011  1
  O  O38  1  0.16075533  0.19232930  0.40878612  1
  O  O39  1  0.02830104  0.19290921  0.90901190  1
  O  O40  1  0.17014511  0.97252094  0.90913468  1
  O  O41  1  0.80194935  0.82574407  0.91032724  1
  O  O42  1  0.98398746  0.17492585  0.59173604  1
  O  O43  1  0.19361695  0.01921400  0.59147682  1
  O  O44  1  0.82316809  0.80614113  0.59071005  1
  O  O45  1  0.98182456  0.80418215  0.09052716  1
  O  O46  1  0.82797005  0.01365193  0.09218789  1
  O  O47  1  0.18735709  0.16890264  0.09191000  1
  O  O48  1  0.69266565  0.16435776  0.74511577  1
  O  O49  1  0.46298485  0.30218702  0.74390017  1
  O  O50  1  0.82969962  0.53384208  0.74558577  1
  O  O51  1  0.70200000  0.53256873  0.24576314  1
  O  O52  1  0.84074544  0.30506363  0.24514952  1
  O  O53  1  0.47151853  0.16308786  0.24696813  1
  O  O54  1  0.64560326  0.51020067  0.92263010  1
  O  O55  1  0.85798271  0.35490559  0.92200097  1
  O  O56  1  0.48575165  0.13593109  0.92179483  1
  O  O57  1  0.64627200  0.13365017  0.42459496  1
  O  O58  1  0.49038721  0.34925057  0.42290500  1
  O  O59  1  0.86120711  0.50198338  0.42336745  1
  O  O60  1  0.34888331  0.49793824  0.07684306  1
  O  O61  1  0.14147731  0.64910969  0.07667338  1
  O  O62  1  0.49675839  0.85053349  0.07541130  1
  O  O63  1  0.35280561  0.85997333  0.57512668  1
  O  O64  1  0.50734301  0.65017246  0.57483778  1
  O  O65  1  0.14031775  0.49066573  0.57575203  1
  O  O66  1  0.30199474  0.83189943  0.25378950  1
  O  O67  1  0.53106345  0.69489154  0.25394253  1
  O  O68  1  0.15705833  0.46137387  0.25425758  1
  O  O69  1  0.30552658  0.45952495  0.75557328  1
  O  O70  1  0.16006345  0.69651648  0.75574528  1
  O  O71  1  0.53348157  0.83409014  0.75765460  1
loop_
_geom_bond_atom_site_label_1
_geom_bond_atom_site_label_2
_geom_bond_distance
_geom_bond_site_symmetry_2
Na0 O55 2.532200 1_555
Na0 O48 2.586872 1_555
Na0 O50 2.587413 1_555
Na0 O56 2.671361 1_555
Na0 O54 2.671949 1_555
Na0 O49 2.731048 1_555
Na1 O51 2.514556 1_555
Na1 O53 2.536392 1_555
Na1 O58 2.637146 1_555
Na1 O52 2.648691 1_555
Na1 O59 2.672311 1_555
Na1 O57 2.783432 1_555
Na2 O67 2.520992 1_555
Na2 O66 2.552341 1_555
Na2 O62 2.606391 1_555
Na2 O60 2.637371 1_555
Na2 O68 2.661201 1_555
Na2 O61 2.709247 1_555
In0 O48 2.084797 1_555
In0 O50 2.096500 1_555
In0 O12 2.143685 1_555
In0 O49 2.179437 1_555
In0 O13 2.194071 1_555
In0 O14 2.206922 1_555
In1 O17 2.060647 1_555
In1 O53 2.099862 1_555
In1 O16 2.111686 1_555
In1 O51 2.153430 1_555
In1 O15 2.235826 1_555
In1 O52 2.247588 1_555
In2 O20 2.047234 1_556
In2 O18 2.088565 1_556
In2 O19 2.150355 1_556
In2 O55 2.152214 1_555
In2 O56 2.207903 1_555
In2 O54 2.258970 1_555
In3 O59 2.068293 1_555
In3 O58 2.069763 1_555
In3 O22 2.144760 1_555
In3 O57 2.152692 1_555
In3 O21 2.185929 1_555
In3 O23 2.210314 1_555
In4 O32 2.084808 1_555
In4 O30 2.093483 1_555
In4 O66 2.114466 1_555
In4 O67 2.117726 1_555
In4 O31 2.163257 1_555
In4 O68 2.176611 1_555
In5 O70 2.059529 1_555
In5 O33 2.071821 1_555
In5 O71 2.076875 1_555
In5 O34 2.152034 1_555
In5 O69 2.167602 1_555
In5 O35 2.204664 1_555
O0 P0 1.555536 1_545
O0 Sn0 1.994918 1_545
O1 P1 1.563344 1_555
O1 Sn0 2.019541 1_655
O2 S0 1.493496 1_555
O2 Sn0 2.168505 1_645
O3 S1 1.491661 1_555
O3 Sn1 2.135101 1_455
O4 P2 1.559920 1_555
O4 Sn1 2.030886 1_565
O5 P3 1.554778 1_545
O5 Sn1 2.005478 1_555
O6 P3 1.562752 1_555
O6 Sn2 1.995766 1_555
O7 S1 1.500957 1_555
O7 Sn2 2.091247 1_445
O8 P2 1.564859 1_455
O8 Sn2 1.982365 1_455
O9 P1 1.552965 1_555
O9 Sn3 2.028281 1_565
O10 S0 1.488192 1_455
O10 Sn3 2.105736 1_455
O11 P0 1.551409 1_555
O11 Sn3 2.033720 1_465
O12 S2 1.474632 1_555
O13 S3 1.478203 1_555
O14 S4 1.475843 1_555
O15 S5 1.470151 1_555
O16 P4 1.529683 1_555
O17 P5 1.527114 1_555
O18 P5 1.532621 1_555
O19 S5 1.472686 1_555
O20 P4 1.527488 1_555
O21 S3 1.475212 1_555
O22 S4 1.471175 1_555
O23 S2 1.472552 1_555
O24 S6 1.496066 1_555
O24 Sn4 2.115708 1_556
O25 P6 1.564256 1_555
O25 Sn4 2.025611 1_556
O26 S7 1.495213 1_555
O26 Sn4 2.176085 1_556
O27 S8 1.513406 1_555
O27 Sn5 2.110342 1_555
O28 P7 1.579100 1_555
O28 Sn5 2.002262 1_555
O29 P8 1.579348 1_555
O29 Sn5 1.991923 1_555
O30 P8 1.518099 1_555
O31 S8 1.463228 1_555
O32 P7 1.518587 1_555
O33 P6 1.526329 1_555
O34 S7 1.467936 1_555
O35 S6 1.468063 1_555
O36 P8 1.543510 1_555
O36 Sn0 2.018439 1_555
O37 S8 1.474526 1_555
O37 Sn0 2.172369 1_655
O38 P7 1.546810 1_555
O38 Sn0 2.032013 1_545
O39 P6 1.565337 1_555
O39 Sn1 2.007607 1_455
O40 S7 1.493093 1_555
O40 Sn1 2.117977 1_465
O41 S6 1.493428 1_555
O41 Sn1 2.086726 1_565
O42 S2 1.499398 1_555
O42 Sn2 2.120083 1_545
O43 S3 1.502070 1_555
O43 Sn2 2.134566 1_445
O44 S4 1.497023 1_555
O44 Sn2 2.093964 1_555
O45 S5 1.477398 1_555
O45 Sn3 2.100433 1_565
O46 P4 1.544192 1_555
O46 Sn3 2.013945 1_555
O47 P5 1.544165 1_555
O47 Sn3 2.022623 1_455
O48 P3 1.543610 1_545
O49 S1 1.478049 1_555
O50 P2 1.544423 1_555
O51 P1 1.539903 1_555
O52 S0 1.473388 1_555
O53 P0 1.536637 1_545
O54 S6 1.475631 1_555
O55 P6 1.543696 1_655
O56 S7 1.478056 1_545
O57 S8 1.477667 1_545
O58 P7 1.540921 1_555
O59 P8 1.539546 1_655
O60 P5 1.577434 1_555
O60 Sn4 2.010856 1_555
O61 S5 1.507501 1_455
O61 Sn4 2.124038 1_555
O62 P4 1.585853 1_565
O62 Sn4 2.041168 1_555
O63 S3 1.497994 1_565
O63 Sn5 2.168223 1_555
O64 S4 1.495317 1_555
O64 Sn5 2.152049 1_555
O65 S2 1.493452 1_455
O65 Sn5 2.128647 1_555
O66 P0 1.536482 1_555
O67 P1 1.540287 1_555
O68 S0 1.474737 1_455
O69 S1 1.453460 1_555
O70 P2 1.510060 1_455
O71 P3 1.512633 1_555
