# generated using pymatgen
data_MgFe4(CuO4)2
_symmetry_space_group_name_H-M   'P 1'
_cell_length_a   6.63429325
_cell_length_b   6.63024521
_cell_length_c   6.00294561
_cell_angle_alpha   63.09871631
_cell_angle_beta   63.11499115
_cell_angle_gamma   51.58706312
_symmetry_Int_Tables_number   1
_chemical_formula_structural   MgFe4(CuO4)2
_chemical_formula_sum   'Mg1 Fe4 Cu2 O8'
_cell_volume   178.89390395
_cell_formula_units_Z   1
loop_
 _symmetry_equiv_pos_site_id
 _symmetry_equiv_pos_as_xyz
  1  'x, y, z'
loop_
 _atom_site_type_symbol
 _atom_site_label
 _atom_site_symmetry_multiplicity
 _atom_site_fract_x
 _atom_site_fract_y
 _atom_site_fract_z
 _atom_site_occupancy
  Mg  Mg0  1  0.04761000  0.03223000  0.46224800  1
  Fe  Fe0  1  0.98868700  0.00062100  0.00660500  1
  Fe  Fe1  1  0.29568700  0.29121700  0.20550300  1
  Fe  Fe2  1  0.07052400  0.54811000  0.69058000  1
  Fe  Fe3  1  0.55646900  0.08452000  0.67874200  1
  Cu  Cu0  1  0.61628300  0.61510900  0.14462500  1
  Cu  Cu1  1  0.61611900  0.61486300  0.62485800  1
  O  O0  1  0.38304800  0.36517300  0.41117800  1
  O  O1  1  0.42693400  0.87357800  0.35008100  1
  O  O2  1  0.38398400  0.36543500  0.83847300  1
  O  O3  1  0.88380200  0.41555900  0.35065500  1
  O  O4  1  0.38119600  0.86758200  0.87591700  1
  O  O5  1  0.83919700  0.38404500  0.88880400  1
  O  O6  1  0.89584900  0.90670400  0.37725100  1
  O  O7  1  0.89586000  0.90608700  0.82364600  1
loop_
_geom_bond_atom_site_label_1
_geom_bond_atom_site_label_2
_geom_bond_distance
_geom_bond_site_symmetry_2
Mg0 O1 1.926612 1_545
Mg0 O3 1.942888 1_455
Mg0 O7 1.961805 1_445
Mg0 O6 1.963889 1_445
Fe0 O7 1.921633 1_544
Fe0 O6 1.923813 1_545
Fe0 O5 1.954709 1_554
Fe0 O4 2.024535 1_644
Fe1 O0 1.910207 1_555
Fe1 O2 1.910367 1_554
Fe1 O3 2.145476 1_455
Fe1 O1 2.166019 1_545
Fe2 O2 2.036321 1_555
Fe2 O0 2.038117 1_555
Fe2 O5 2.050878 1_455
Fe2 O6 2.243727 1_455
Fe2 O7 2.252779 1_455
Fe3 O0 1.916353 1_555
Fe3 O2 1.916546 1_555
Fe3 O4 2.028544 1_545
Fe3 O6 2.163740 1_545
Fe3 O7 2.180827 1_545
Cu0 O1 1.967803 1_555
Cu0 O3 2.004135 1_555
Cu0 O5 2.037650 1_554
Cu0 O4 2.103351 1_554
Cu0 O0 2.499682 1_555
Cu1 O1 1.968527 1_555
Cu1 O3 2.004442 1_555
Cu1 O5 2.038355 1_555
Cu1 O4 2.103247 1_555
Cu1 O2 2.492166 1_555
