# generated using pymatgen
data_MgCo6O7F5
_symmetry_space_group_name_H-M   'P 1'
_cell_length_a   5.13380026
_cell_length_b   5.13895675
_cell_length_c   8.84307476
_cell_angle_alpha   91.22832657
_cell_angle_beta   88.83393350
_cell_angle_gamma   105.81812776
_symmetry_Int_Tables_number   1
_chemical_formula_structural   MgCo6O7F5
_chemical_formula_sum   'Mg1 Co6 O7 F5'
_cell_volume   224.38953074
_cell_formula_units_Z   1
loop_
 _symmetry_equiv_pos_site_id
 _symmetry_equiv_pos_as_xyz
  1  'x, y, z'
loop_
 _atom_site_type_symbol
 _atom_site_label
 _atom_site_symmetry_multiplicity
 _atom_site_fract_x
 _atom_site_fract_y
 _atom_site_fract_z
 _atom_site_occupancy
  Mg  Mg0  1  0.70266710  0.30430920  0.01472583  1
  Co  Co0  1  0.04664878  0.95536814  -0.00024073  1
  Co  Co1  1  0.01430195  0.98587344  0.33649027  1
  Co  Co2  1  0.00362608  0.99675371  0.66097324  1
  Co  Co3  1  0.40720802  0.59294519  0.17833656  1
  Co  Co4  1  0.45684584  0.54381215  0.82471659  1
  Co  Co5  1  0.50705649  0.49291175  0.49769055  1
  O  O0  1  0.18852444  0.80828028  0.17221692  1
  O  O1  1  0.30052866  0.30888032  0.33738241  1
  O  O2  1  0.31267839  0.30917351  -0.00401963  1
  O  O3  1  0.30239754  0.30391915  0.66307635  1
  O  O4  1  0.69636804  0.69812758  0.66310398  1
  O  O5  1  0.69166753  0.69086608  -0.00447066  1
  O  O6  1  0.69040828  0.69904784  0.33738440  1
  F  F0  1  0.20117712  0.79913670  0.82006724  1
  F  F1  1  0.17415756  0.82595132  0.49998384  1
  F  F2  1  0.84230160  0.15776768  0.17388785  1
  F  F3  1  0.83687698  0.16594538  0.83838392  1
  F  F4  1  0.83289159  0.16648259  0.50459809  1
loop_
_geom_bond_atom_site_label_1
_geom_bond_atom_site_label_2
_geom_bond_distance
_geom_bond_site_symmetry_2
Mg0 O5 2.013501 1_555
Mg0 O2 2.019301 1_555
Co0 O2 1.954272 1_565
Co0 O5 1.954557 1_455
Co0 O0 1.955105 1_555
Co0 F0 2.010023 1_554
Co0 F2 2.239187 1_465
Co0 F3 2.265258 1_464
Co1 O1 1.893353 1_565
Co1 O6 1.897735 1_455
Co1 F1 1.976392 1_555
Co1 O0 2.019527 1_555
Co1 F2 2.039359 1_465
Co1 F4 2.072319 1_465
Co2 O4 1.877220 1_455
Co2 O3 1.877402 1_565
Co2 F1 1.969335 1_555
Co2 F4 1.989760 1_465
Co2 F3 2.059794 1_465
Co2 F0 2.172567 1_555
Co3 O0 1.780513 1_555
Co3 O6 2.001860 1_555
Co3 O1 2.007457 1_555
Co3 O2 2.123153 1_555
Co3 O5 2.130107 1_555
Co4 O4 1.904958 1_555
Co4 O3 1.905085 1_555
Co4 O5 1.958198 1_556
Co4 O2 1.959995 1_556
Co4 F0 2.095112 1_555
Co5 O6 1.866615 1_555
Co5 O1 1.866884 1_555
Co5 O3 1.904785 1_555
Co5 O4 1.905090 1_555
F2 Mg0 1.855483 1_555
F3 Mg0 1.894169 1_556
