# generated using pymatgen
data_CeInIr
_symmetry_space_group_name_H-M   'P 1'
_cell_length_a   7.55214509
_cell_length_b   7.55213010
_cell_length_c   3.98325686
_cell_angle_alpha   90.00000000
_cell_angle_beta   90.00000000
_cell_angle_gamma   119.99999398
_symmetry_Int_Tables_number   1
_chemical_formula_structural   CeInIr
_chemical_formula_sum   'Ce3 In3 Ir3'
_cell_volume   196.74728969
_cell_formula_units_Z   3
loop_
 _symmetry_equiv_pos_site_id
 _symmetry_equiv_pos_as_xyz
  1  'x, y, z'
loop_
 _atom_site_type_symbol
 _atom_site_label
 _atom_site_symmetry_multiplicity
 _atom_site_fract_x
 _atom_site_fract_y
 _atom_site_fract_z
 _atom_site_occupancy
  Ce  Ce0  1  0.41223081  0.41223050  -0.00000000  1
  Ce  Ce1  1  0.58776902  0.00000288  0.00000000  1
  Ce  Ce2  1  0.99999845  0.58776818  0.00000000  1
  In  In0  1  0.00000651  0.25168890  0.50000000  1
  In  In1  1  0.74830431  0.74830937  0.50000000  1
  In  In2  1  0.25169118  0.00000458  0.50000000  1
  Ir  Ir0  1  0.00000215  -0.00000320  -0.00000000  1
  Ir  Ir1  1  0.33332866  0.66666131  0.50000000  1
  Ir  Ir2  1  0.66666892  0.33333747  0.50000000  1
loop_
_geom_bond_atom_site_label_1
_geom_bond_atom_site_label_2
_geom_bond_distance
_geom_bond_site_symmetry_2
Ce0 Ir1 3.026348 1_555
Ce0 Ir1 3.026348 1_554
Ce0 Ir2 3.026355 1_554
Ce0 Ir2 3.026355 1_555
Ce0 Ir0 3.113227 1_555
Ce0 In1 3.226221 1_555
Ce0 In1 3.226221 1_554
Ce0 In0 3.369560 1_555
Ce0 In0 3.369560 1_554
Ce0 In2 3.369566 1_554
Ce0 In2 3.369566 1_555
Ce1 Ir2 3.026360 1_554
Ce1 Ir2 3.026360 1_555
Ce1 Ir1 3.026397 1_544
Ce1 Ir1 3.026397 1_545
Ce1 Ir0 3.113267 1_655
Ce1 In2 3.226238 1_555
Ce1 In2 3.226238 1_554
Ce1 In1 3.369587 1_544
Ce1 In1 3.369587 1_545
Ce1 In0 3.369626 1_654
Ce1 In0 3.369626 1_655
Ce2 Ir2 3.026336 1_554
Ce2 Ir2 3.026336 1_555
Ce2 Ir1 3.026350 1_655
Ce2 Ir1 3.026350 1_654
Ce2 Ir0 3.113190 1_665
Ce2 In0 3.226261 1_654
Ce2 In0 3.226261 1_655
Ce2 In1 3.369621 1_555
Ce2 In1 3.369621 1_554
Ce2 In2 3.369622 1_665
Ce2 In2 3.369622 1_664
In0 Ir0 2.753108 1_555
In0 Ir0 2.753108 1_556
In0 Ir1 2.875631 1_555
In0 Ir2 2.875740 1_455
In0 In2 3.292206 1_555
In0 In1 3.292272 1_445
In1 Ir0 2.753124 1_666
In1 Ir0 2.753124 1_665
In1 Ir2 2.875662 1_555
In1 Ir1 2.875665 1_555
In1 In2 3.292326 1_665
In2 Ir0 2.753086 1_555
In2 Ir0 2.753086 1_556
In2 Ir2 2.875687 1_555
In2 Ir1 2.875724 1_545
