# generated using pymatgen
data_CsGeCl3
_symmetry_space_group_name_H-M   'P 1'
_cell_length_a   5.46189112
_cell_length_b   5.46189112
_cell_length_c   5.46189107
_cell_angle_alpha   89.54623145
_cell_angle_beta   89.54623145
_cell_angle_gamma   89.54621701
_symmetry_Int_Tables_number   1
_chemical_formula_structural   CsGeCl3
_chemical_formula_sum   'Cs1 Ge1 Cl3'
_cell_volume   162.92527552
_cell_formula_units_Z   1
loop_
 _symmetry_equiv_pos_site_id
 _symmetry_equiv_pos_as_xyz
  1  'x, y, z'
loop_
 _atom_site_type_symbol
 _atom_site_label
 _atom_site_symmetry_multiplicity
 _atom_site_fract_x
 _atom_site_fract_y
 _atom_site_fract_z
 _atom_site_occupancy
  Cs  Cs0  1  0.99840335  0.99840335  0.99840335  1
  Ge  Ge0  1  0.51553315  0.51553315  0.51553315  1
  Cl  Cl0  1  0.94863817  0.49671267  0.49671267  1
  Cl  Cl1  1  0.49671267  0.49671267  0.94863817  1
  Cl  Cl2  1  0.49671267  0.94863817  0.49671267  1
loop_
_geom_bond_atom_site_label_1
_geom_bond_atom_site_label_2
_geom_bond_distance
_geom_bond_site_symmetry_2
Cl0 Ge0 2.368445 1_555
Cl0 Cs0 3.856440 1_545
Cl0 Cs0 3.856440 1_554
Cl0 Cs0 3.870814 1_544
Cl0 Cs0 3.903022 1_555
Cl1 Ge0 2.368445 1_555
Cl1 Cs0 3.856440 1_545
Cl1 Cs0 3.856440 1_455
Cl1 Cs0 3.870815 1_445
Cl1 Cs0 3.903022 1_555
Cl2 Ge0 2.368445 1_555
Cl2 Cs0 3.856440 1_455
Cl2 Cs0 3.856440 1_554
Cl2 Cs0 3.870814 1_454
Cl2 Cs0 3.903022 1_555
