# generated using pymatgen
data_Na3TiAlSi(PO6)2
_symmetry_space_group_name_H-M   'P 1'
_cell_length_a   15.18658696
_cell_length_b   8.76060365
_cell_length_c   8.79412754
_cell_angle_alpha   90.00000000
_cell_angle_beta   124.83968176
_cell_angle_gamma   90.00000000
_symmetry_Int_Tables_number   1
_chemical_formula_structural   Na3TiAlSi(PO6)2
_chemical_formula_sum   'Na12 Ti4 Al4 Si4 P8 O48'
_cell_volume   960.28434395
_cell_formula_units_Z   4
loop_
 _symmetry_equiv_pos_site_id
 _symmetry_equiv_pos_as_xyz
  1  'x, y, z'
loop_
 _atom_site_type_symbol
 _atom_site_label
 _atom_site_symmetry_multiplicity
 _atom_site_fract_x
 _atom_site_fract_y
 _atom_site_fract_z
 _atom_site_occupancy
  Na  Na0  1  0.25182815  0.72387404  0.99712911  1
  Na  Na1  1  0.75182815  0.77612596  0.49712911  1
  Na  Na2  1  0.75182815  0.22387404  0.99712911  1
  Na  Na3  1  0.25182815  0.27612596  0.49712911  1
  Na  Na4  1  0.50120581  0.11264353  0.75534219  1
  Na  Na5  1  0.50120581  0.88735647  0.25534219  1
  Na  Na6  1  0.00120581  0.61264353  0.75534219  1
  Na  Na7  1  0.00120581  0.38735647  0.25534219  1
  Na  Na8  1  0.19132891  0.93413419  0.28089557  1
  Na  Na9  1  0.19132891  0.06586581  0.78089557  1
  Na  Na10  1  0.69132891  0.43413419  0.28089557  1
  Na  Na11  1  0.69132891  0.56586581  0.78089557  1
  Ti  Ti0  1  0.89587699  0.75753247  0.93885325  1
  Ti  Ti1  1  0.89587699  0.24246753  0.43885325  1
  Ti  Ti2  1  0.39587699  0.25753247  0.93885325  1
  Ti  Ti3  1  0.39587699  0.74246753  0.43885325  1
  Al  Al0  1  0.10557544  0.74135308  0.56344408  1
  Al  Al1  1  0.10557544  0.25864692  0.06344408  1
  Al  Al2  1  0.60557544  0.24135308  0.56344408  1
  Al  Al3  1  0.60557544  0.75864692  0.06344408  1
  Si  Si0  1  0.64359951  0.89909698  0.74822390  1
  Si  Si1  1  0.64359951  0.10090302  0.24822390  1
  Si  Si2  1  0.14359951  0.39909698  0.74822390  1
  Si  Si3  1  0.14359951  0.60090302  0.24822390  1
  P  P0  1  0.00288784  0.96182653  0.75826472  1
  P  P1  1  0.00288784  0.03817347  0.25826472  1
  P  P2  1  0.50288784  0.46182653  0.75826472  1
  P  P3  1  0.50288784  0.53817347  0.25826472  1
  P  P4  1  0.35359185  0.88554168  0.75788010  1
  P  P5  1  0.35359185  0.11445832  0.25788010  1
  P  P6  1  0.85359185  0.38554168  0.75788010  1
  P  P7  1  0.85359185  0.61445832  0.25788010  1
  O  O0  1  0.14416127  0.58339030  0.73278475  1
  O  O1  1  0.84720620  0.56434961  0.76106017  1
  O  O2  1  0.84720620  0.43565039  0.26106017  1
  O  O3  1  0.14416127  0.41660970  0.23278475  1
  O  O4  1  0.64416127  0.08339030  0.73278475  1
  O  O5  1  0.34720620  0.06434961  0.76106017  1
  O  O6  1  0.34720620  0.93565039  0.26106017  1
  O  O7  1  0.64416127  0.91660970  0.23278475  1
  O  O8  1  0.43672942  0.56584241  0.58406737  1
  O  O9  1  0.56957461  0.56032808  0.93414499  1
  O  O10  1  0.56957461  0.43967192  0.43414499  1
  O  O11  1  0.43672942  0.43415759  0.08406737  1
  O  O12  1  0.93672942  0.06584241  0.58406737  1
  O  O13  1  0.06957461  0.06032808  0.93414499  1
  O  O14  1  0.06957461  0.93967192  0.43414499  1
  O  O15  1  0.93672942  0.93415759  0.08406737  1
  O  O16  1  0.25238895  0.82419236  0.73868708  1
  O  O17  1  0.74513862  0.81420018  0.76269960  1
  O  O18  1  0.74513862  0.18579982  0.26269960  1
  O  O19  1  0.25238895  0.17580764  0.23868708  1
  O  O20  1  0.75238895  0.32419236  0.73868708  1
  O  O21  1  0.24513862  0.31420018  0.76269960  1
  O  O22  1  0.24513862  0.68579982  0.26269960  1
  O  O23  1  0.75238895  0.67580764  0.23868708  1
  O  O24  1  0.35376339  0.85404167  0.58306275  1
  O  O25  1  0.63513024  0.85293275  0.91685352  1
  O  O26  1  0.63513024  0.14706725  0.41685352  1
  O  O27  1  0.35376339  0.14595833  0.08306275  1
  O  O28  1  0.85376339  0.35404167  0.58306275  1
  O  O29  1  0.13513024  0.35293275  0.91685352  1
  O  O30  1  0.13513024  0.64706725  0.41685352  1
  O  O31  1  0.85376339  0.64595833  0.08306275  1
  O  O32  1  0.45490456  0.82216232  0.93364916  1
  O  O33  1  0.53381227  0.82700350  0.55656452  1
  O  O34  1  0.53381227  0.17299650  0.05656452  1
  O  O35  1  0.45490456  0.17783768  0.43364916  1
  O  O36  1  0.95490456  0.32216232  0.93364916  1
  O  O37  1  0.03381227  0.32700350  0.55656452  1
  O  O38  1  0.03381227  0.67299650  0.05656452  1
  O  O39  1  0.95490456  0.67783768  0.43364916  1
  O  O40  1  0.08095343  0.86165831  0.74090615  1
  O  O41  1  0.92034253  0.85523366  0.75548700  1
  O  O42  1  0.92034253  0.14476634  0.25548700  1
  O  O43  1  0.08095343  0.13834169  0.24090615  1
  O  O44  1  0.58095343  0.36165831  0.74090615  1
  O  O45  1  0.42034253  0.35523366  0.75548700  1
  O  O46  1  0.42034253  0.64476634  0.25548700  1
  O  O47  1  0.58095343  0.63834169  0.24090615  1
loop_
_geom_bond_atom_site_label_1
_geom_bond_atom_site_label_2
_geom_bond_distance
_geom_bond_site_symmetry_2
Na0 O0 2.291151 1_555
Na0 O46 2.355480 1_556
Na0 O22 2.418066 1_556
Na0 O16 2.441323 1_555
Na0 O40 2.566598 1_555
Na0 O6 2.661982 1_556
Na1 O7 2.291151 1_555
Na1 O41 2.355480 1_555
Na1 O17 2.418066 1_555
Na1 O23 2.441323 1_555
Na1 O47 2.566598 1_555
Na1 O1 2.661982 1_555
Na2 O4 2.291151 1_555
Na2 O42 2.355480 1_556
Na2 O18 2.418066 1_556
Na2 O20 2.441323 1_555
Na2 O44 2.566598 1_555
Na2 O2 2.661982 1_556
Na3 O3 2.291151 1_555
Na3 O45 2.355480 1_555
Na3 O21 2.418066 1_555
Na3 O19 2.441323 1_555
Na3 O43 2.566598 1_555
Na3 O5 2.661982 1_555
Na4 O4 2.304422 1_555
Na4 O5 2.405316 1_555
Na4 O45 2.454891 1_555
Na4 O34 2.458284 1_556
Na4 O44 2.533291 1_555
Na4 O35 2.559510 1_555
Na4 O25 2.833722 1_545
Na4 O24 2.926709 1_545
Na5 O7 2.304422 1_555
Na5 O6 2.405316 1_555
Na5 O46 2.454891 1_555
Na5 O33 2.458284 1_555
Na5 O47 2.533291 1_555
Na5 O32 2.559510 1_554
Na5 O26 2.833722 1_565
Na5 O27 2.926709 1_565
Na6 O0 2.304422 1_555
Na6 O1 2.405316 1_455
Na6 O41 2.454891 1_455
Na6 O38 2.458284 1_556
Na6 O40 2.533291 1_555
Na6 O39 2.559510 1_455
Na6 O29 2.833722 1_555
Na6 O28 2.926709 1_455
Na7 O3 2.304422 1_555
Na7 O2 2.405316 1_455
Na7 O42 2.454891 1_455
Na7 O37 2.458284 1_555
Na7 O43 2.533291 1_555
Na7 O36 2.559510 1_454
Na7 O30 2.833722 1_555
Na7 O31 2.926709 1_455
Na8 O43 2.336737 1_565
Na8 O22 2.361326 1_555
Na8 O19 2.423527 1_565
Na8 O6 2.471082 1_555
Na8 O24 2.479752 1_555
Na8 O13 2.738168 1_564
Na8 O14 2.843369 1_555
Na9 O40 2.336737 1_545
Na9 O21 2.361326 1_555
Na9 O16 2.423527 1_545
Na9 O5 2.471082 1_555
Na9 O27 2.479752 1_556
Na9 O14 2.738168 1_545
Na9 O13 2.843369 1_555
Na10 O47 2.336737 1_555
Na10 O18 2.361326 1_555
Na10 O23 2.423527 1_555
Na10 O2 2.471082 1_555
Na10 O28 2.479752 1_555
Na10 O9 2.738168 1_554
Na10 O10 2.843369 1_555
Na11 O44 2.336737 1_555
Na11 O17 2.361326 1_555
Na11 O20 2.423527 1_555
Na11 O1 2.471082 1_555
Na11 O31 2.479752 1_556
Na11 O10 2.738168 1_555
Na11 O9 2.843369 1_555
Al0 O30 1.790727 1_555
Al0 O0 1.865230 1_555
Al0 O39 1.965729 1_455
Al0 O14 1.974862 1_555
Al0 O16 1.986676 1_555
Al0 O40 2.086365 1_555
Al1 O29 1.790727 1_554
Al1 O3 1.865230 1_555
Al1 O36 1.965729 1_454
Al1 O13 1.974862 1_554
Al1 O19 1.986676 1_555
Al1 O43 2.086365 1_555
Al2 O26 1.790727 1_555
Al2 O4 1.865230 1_555
Al2 O35 1.965729 1_555
Al2 O10 1.974862 1_555
Al2 O20 1.986676 1_555
Al2 O44 2.086365 1_555
Al3 O25 1.790727 1_554
Al3 O7 1.865230 1_555
Al3 O32 1.965729 1_554
Al3 O9 1.974862 1_554
Al3 O23 1.986676 1_555
Al3 O47 2.086365 1_555
O0 Si2 1.620650 1_555
O1 P6 1.570700 1_555
O1 Ti0 2.129496 1_555
O2 P7 1.570700 1_555
O2 Ti1 2.129496 1_555
O3 Si3 1.620650 1_555
O4 Si0 1.620650 1_545
O5 P4 1.570700 1_545
O5 Ti2 2.129496 1_555
O6 P5 1.570700 1_565
O6 Ti3 2.129496 1_555
O7 Si1 1.620650 1_565
O8 P2 1.558208 1_555
O8 Ti3 1.872099 1_555
O9 P2 1.540417 1_555
O10 P3 1.540417 1_555
O11 P3 1.558208 1_555
O11 Ti2 1.872099 1_554
O12 P0 1.558208 1_645
O12 Ti1 1.872099 1_555
O13 P0 1.540417 1_545
O14 P1 1.540417 1_565
O15 P1 1.558208 1_665
O15 Ti0 1.872099 1_554
O16 P4 1.543729 1_555
O17 Si0 1.650134 1_555
O17 Ti0 1.958278 1_555
O18 Si1 1.650134 1_555
O18 Ti1 1.958278 1_555
O19 P5 1.543729 1_555
O20 P6 1.543729 1_555
O21 Si2 1.650134 1_555
O21 Ti2 1.958278 1_555
O22 Si3 1.650134 1_555
O22 Ti3 1.958278 1_555
O23 P7 1.543729 1_555
O24 P4 1.563404 1_555
O24 Ti3 1.974717 1_555
O25 Si0 1.611575 1_555
O26 Si1 1.611575 1_555
O27 P5 1.563404 1_555
O27 Ti2 1.974717 1_554
O28 P6 1.563404 1_555
O28 Ti1 1.974717 1_555
O29 Si2 1.611575 1_555
O30 Si3 1.611575 1_555
O31 P7 1.563404 1_555
O31 Ti0 1.974717 1_554
O32 P4 1.532171 1_555
O33 Si0 1.675941 1_555
O33 Ti3 1.878965 1_555
O34 Si1 1.675941 1_555
O34 Ti2 1.878965 1_554
O35 P5 1.532171 1_555
O36 P6 1.532171 1_555
O37 Si2 1.675941 1_555
O37 Ti1 1.878965 1_455
O38 Si3 1.675941 1_555
O38 Ti0 1.878965 1_454
O39 P7 1.532171 1_555
O40 P0 1.551024 1_555
O41 P0 1.552125 1_655
O41 Ti0 2.038506 1_555
O42 P1 1.552125 1_655
O42 Ti1 2.038506 1_555
O43 P1 1.551024 1_555
O44 P2 1.551024 1_555
O45 P2 1.552125 1_555
O45 Ti2 2.038506 1_555
O46 P3 1.552125 1_555
O46 Ti3 2.038506 1_555
O47 P3 1.551024 1_555
