# generated using pymatgen
data_Rb2CoBr4
_symmetry_space_group_name_H-M   'P 1'
_cell_length_a   7.59291564
_cell_length_b   9.77298551
_cell_length_c   13.33554150
_cell_angle_alpha   90.00000000
_cell_angle_beta   90.00000000
_cell_angle_gamma   90.00000000
_symmetry_Int_Tables_number   1
_chemical_formula_structural   Rb2CoBr4
_chemical_formula_sum   'Rb8 Co4 Br16'
_cell_volume   989.56991839
_cell_formula_units_Z   4
loop_
 _symmetry_equiv_pos_site_id
 _symmetry_equiv_pos_as_xyz
  1  'x, y, z'
loop_
 _atom_site_type_symbol
 _atom_site_label
 _atom_site_symmetry_multiplicity
 _atom_site_fract_x
 _atom_site_fract_y
 _atom_site_fract_z
 _atom_site_occupancy
  Rb  Rb0  1  0.25000000  0.62436594  0.58377601  1
  Rb  Rb1  1  0.75000000  0.37563406  0.41622399  1
  Rb  Rb2  1  0.25000000  0.12436594  0.91622399  1
  Rb  Rb3  1  0.75000000  0.87563406  0.08377601  1
  Rb  Rb4  1  0.25000000  0.98264880  0.32733929  1
  Rb  Rb5  1  0.75000000  0.01735120  0.67266071  1
  Rb  Rb6  1  0.25000000  0.48264880  0.17266071  1
  Rb  Rb7  1  0.75000000  0.51735120  0.82733929  1
  Co  Co0  1  0.25000000  0.72639177  0.92374790  1
  Co  Co1  1  0.25000000  0.22639177  0.57625210  1
  Co  Co2  1  0.75000000  0.77360823  0.42374790  1
  Co  Co3  1  0.75000000  0.27360823  0.07625210  1
  Br  Br0  1  0.99455197  0.32123386  0.65381775  1
  Br  Br1  1  0.49455197  0.67876614  0.34618225  1
  Br  Br2  1  0.50544803  0.82123386  0.84618225  1
  Br  Br3  1  0.00544803  0.17876614  0.15381775  1
  Br  Br4  1  0.99455197  0.82123386  0.84618225  1
  Br  Br5  1  0.00544803  0.67876614  0.34618225  1
  Br  Br6  1  0.49455197  0.17876614  0.15381775  1
  Br  Br7  1  0.50544803  0.32123386  0.65381775  1
  Br  Br8  1  0.75000000  0.51725450  0.09030634  1
  Br  Br9  1  0.25000000  0.48274550  0.90969366  1
  Br  Br10  1  0.75000000  0.01725450  0.40969366  1
  Br  Br11  1  0.25000000  0.98274550  0.59030634  1
  Br  Br12  1  0.75000000  0.18423554  0.90877219  1
  Br  Br13  1  0.25000000  0.81576446  0.09122781  1
  Br  Br14  1  0.75000000  0.68423554  0.59122781  1
  Br  Br15  1  0.25000000  0.31576446  0.40877219  1
loop_
_geom_bond_atom_site_label_1
_geom_bond_atom_site_label_2
_geom_bond_distance
_geom_bond_site_symmetry_2
Br0 Co1 2.385602 1_655
Br0 Rb5 3.511557 1_555
Br0 Rb7 3.532153 1_555
Br0 Rb0 3.662091 1_655
Br0 Rb1 3.710743 1_555
Br1 Co2 2.385602 1_555
Br1 Rb4 3.511557 1_555
Br1 Rb6 3.532153 1_555
Br1 Rb1 3.662091 1_555
Br1 Rb0 3.710743 1_555
Br2 Co0 2.385602 1_555
Br2 Rb7 3.511557 1_555
Br2 Rb5 3.532153 1_565
Br2 Rb2 3.662091 1_565
Br2 Rb3 3.710743 1_556
Br3 Co3 2.385602 1_455
Br3 Rb6 3.511557 1_555
Br3 Rb4 3.532153 1_545
Br3 Rb3 3.662091 1_445
Br3 Rb2 3.710743 1_554
Br4 Co0 2.385602 1_655
Br4 Rb7 3.511557 1_555
Br4 Rb5 3.532153 1_565
Br4 Rb2 3.662091 1_665
Br4 Rb3 3.710743 1_556
Br5 Co2 2.385602 1_455
Br5 Rb4 3.511557 1_555
Br5 Rb6 3.532153 1_555
Br5 Rb1 3.662091 1_455
Br5 Rb0 3.710743 1_555
Br6 Co3 2.385602 1_555
Br6 Rb6 3.511557 1_555
Br6 Rb4 3.532153 1_545
Br6 Rb3 3.662091 1_545
Br6 Rb2 3.710743 1_554
Br7 Co1 2.385602 1_555
Br7 Rb5 3.511557 1_555
Br7 Rb7 3.532153 1_555
Br7 Rb0 3.662091 1_555
Br7 Rb1 3.710743 1_555
Br8 Co3 2.388516 1_555
Br8 Rb3 3.503521 1_555
Br8 Rb7 3.506808 1_554
Br8 Rb6 3.966561 1_655
Br8 Rb6 3.966561 1_555
Br9 Co0 2.388516 1_555
Br9 Rb2 3.503521 1_555
Br9 Rb6 3.506808 1_556
Br9 Rb7 3.966561 1_555
Br9 Rb7 3.966561 1_455
Br10 Co2 2.388516 1_545
Br10 Rb1 3.503521 1_555
Br10 Rb5 3.506808 1_555
Br10 Rb4 3.966561 1_545
Br10 Rb4 3.966561 1_645
Br11 Co1 2.388516 1_565
Br11 Rb0 3.503521 1_555
Br11 Rb4 3.506808 1_555
Br11 Rb5 3.966561 1_465
Br11 Rb5 3.966561 1_565
Br12 Co3 2.398151 1_556
Br12 Rb7 3.431879 1_555
Br12 Rb5 3.546008 1_555
Br12 Rb3 3.813461 1_546
Br12 Rb2 3.842566 1_555
Br12 Rb2 3.842566 1_655
Br13 Co0 2.398151 1_554
Br13 Rb6 3.431879 1_555
Br13 Rb4 3.546008 1_555
Br13 Rb2 3.813461 1_564
Br13 Rb3 3.842566 1_555
Br13 Rb3 3.842566 1_455
Br14 Co2 2.398151 1_555
Br14 Rb5 3.431879 1_565
Br14 Rb7 3.546008 1_555
Br14 Rb1 3.813461 1_555
Br14 Rb0 3.842566 1_655
Br14 Rb0 3.842566 1_555
Br15 Co1 2.398151 1_555
Br15 Rb4 3.431879 1_545
Br15 Rb6 3.546008 1_555
Br15 Rb0 3.813461 1_555
Br15 Rb1 3.842566 1_555
Br15 Rb1 3.842566 1_455
