# generated using pymatgen
data_MgNi4(OF2)4
_symmetry_space_group_name_H-M   'P 1'
_cell_length_a   7.84282354
_cell_length_b   3.98812445
_cell_length_c   7.82381005
_cell_angle_alpha   89.26730496
_cell_angle_beta   116.06696013
_cell_angle_gamma   88.77722590
_symmetry_Int_Tables_number   1
_chemical_formula_structural   MgNi4(OF2)4
_chemical_formula_sum   'Mg1 Ni4 O4 F8'
_cell_volume   219.70528217
_cell_formula_units_Z   1
loop_
 _symmetry_equiv_pos_site_id
 _symmetry_equiv_pos_as_xyz
  1  'x, y, z'
loop_
 _atom_site_type_symbol
 _atom_site_label
 _atom_site_symmetry_multiplicity
 _atom_site_fract_x
 _atom_site_fract_y
 _atom_site_fract_z
 _atom_site_occupancy
  Mg  Mg0  1  0.02212205  0.57530536  0.69753868  1
  Ni  Ni0  1  0.34721949  0.20963904  0.67333402  1
  Ni  Ni1  1  0.32437945  0.31008800  0.17635952  1
  Ni  Ni2  1  0.68131481  0.70253451  0.82885070  1
  Ni  Ni3  1  0.66783822  0.79346349  0.30984690  1
  O  O0  1  0.96385352  0.61073707  0.93393782  1
  O  O1  1  0.96655158  0.86476735  0.44082956  1
  O  O2  1  0.04542522  0.06073201  0.60066496  1
  O  O3  1  0.04341006  0.41403988  0.08883146  1
  F  F0  1  0.26113379  0.33702114  0.88409621  1
  F  F1  1  0.31127092  0.23405535  0.41704300  1
  F  F2  1  0.38541164  0.71529146  0.69371435  1
  F  F3  1  0.37721653  0.80309173  0.18283009  1
  F  F4  1  0.63306100  0.20787300  0.79209980  1
  F  F5  1  0.61882704  0.28665230  0.29974493  1
  F  F6  1  0.74448557  0.70242717  0.59483320  1
  F  F7  1  0.68147909  0.75561412  0.07294480  1
loop_
_geom_bond_atom_site_label_1
_geom_bond_atom_site_label_2
_geom_bond_distance
_geom_bond_site_symmetry_2
Mg0 O0 2.096749 1_455
Mg0 O2 2.110694 1_565
Mg0 O1 2.169424 1_455
Mg0 O2 2.228185 1_555
Ni0 O2 2.272484 1_555
Ni1 O3 2.030813 1_555
Ni2 O0 2.019101 1_555
Ni3 O1 2.132018 1_555
O0 O3 1.327987 1_656
O1 O2 1.386738 1_665
F0 Mg0 2.007807 1_555
F0 Ni0 2.101952 1_555
F0 Ni1 2.116795 1_556
F1 Ni0 1.899126 1_555
F1 Ni1 1.950719 1_555
F2 Ni0 1.981620 1_565
F2 Ni0 2.043005 1_555
F2 Ni2 2.084075 1_555
F3 Ni1 2.014684 1_555
F3 Ni3 2.046672 1_555
F3 Ni1 2.050807 1_565
F4 Ni0 2.014350 1_555
F4 Ni2 2.017043 1_555
F4 Ni2 2.035814 1_545
F5 Ni3 1.989911 1_545
F5 Ni3 2.061528 1_555
F5 Ni1 2.074319 1_555
F6 Mg0 2.012160 1_655
F6 Ni3 2.063173 1_555
F6 Ni2 2.096400 1_555
F7 Ni3 1.910586 1_555
F7 Ni2 1.923573 1_554
