# generated using pymatgen
data_RbPdBr3
_symmetry_space_group_name_H-M   'P 1'
_cell_length_a   5.22554792
_cell_length_b   5.22746608
_cell_length_c   5.22666403
_cell_angle_alpha   89.97104247
_cell_angle_beta   90.00000000
_cell_angle_gamma   90.00000000
_symmetry_Int_Tables_number   1
_chemical_formula_structural   RbPdBr3
_chemical_formula_sum   'Rb1 Pd1 Br3'
_cell_volume   142.77349377
_cell_formula_units_Z   1
loop_
 _symmetry_equiv_pos_site_id
 _symmetry_equiv_pos_as_xyz
  1  'x, y, z'
loop_
 _atom_site_type_symbol
 _atom_site_label
 _atom_site_symmetry_multiplicity
 _atom_site_fract_x
 _atom_site_fract_y
 _atom_site_fract_z
 _atom_site_occupancy
  Rb  Rb0  1  0.00000000  0.99171833  0.99988503  1
  Pd  Pd0  1  0.50000000  0.48624159  0.50292267  1
  Br  Br0  1  0.00000000  0.48750662  0.50365054  1
  Br  Br1  1  0.50000000  0.98641108  0.50055009  1
  Br  Br2  1  0.50000000  0.48811938  0.00299367  1
loop_
_geom_bond_atom_site_label_1
_geom_bond_atom_site_label_2
_geom_bond_distance
_geom_bond_site_symmetry_2
Br0 Pd0 2.612785 1_555
Br0 Pd0 2.612785 1_455
Br0 Rb0 3.665682 1_545
Br0 Rb0 3.695490 1_544
Br0 Rb0 3.698799 1_555
Br0 Rb0 3.724637 1_554
Br1 Pd0 2.612883 1_565
Br1 Pd0 2.614642 1_555
Br1 Rb0 3.693072 1_555
Br1 Rb0 3.693072 1_655
Br1 Rb0 3.697968 1_654
Br1 Rb0 3.697968 1_554
Br2 Pd0 2.612974 1_555
Br2 Pd0 2.613727 1_554
Br2 Rb0 3.682459 1_644
Br2 Rb0 3.682459 1_544
Br2 Rb0 3.709058 1_654
Br2 Rb0 3.709058 1_554
