# generated using pymatgen
data_Na3Ca2Zr2P3(SO8)3
_symmetry_space_group_name_H-M   'P 1'
_cell_length_a   9.12657788
_cell_length_b   9.08652854
_cell_length_c   23.62741867
_cell_angle_alpha   90.03252148
_cell_angle_beta   89.92349126
_cell_angle_gamma   119.94909712
_symmetry_Int_Tables_number   1
_chemical_formula_structural   Na3Ca2Zr2P3(SO8)3
_chemical_formula_sum   'Na9 Ca6 Zr6 P9 S9 O72'
_cell_volume   1697.75497818
_cell_formula_units_Z   3
loop_
 _symmetry_equiv_pos_site_id
 _symmetry_equiv_pos_as_xyz
  1  'x, y, z'
loop_
 _atom_site_type_symbol
 _atom_site_label
 _atom_site_symmetry_multiplicity
 _atom_site_fract_x
 _atom_site_fract_y
 _atom_site_fract_z
 _atom_site_occupancy
  Na  Na0  1  0.66343147  0.68467911  0.08378646  1
  Na  Na1  1  0.33159421  0.29499910  0.91611387  1
  Na  Na2  1  0.33062233  0.03600899  0.41611914  1
  Na  Na3  1  0.99144374  0.00214298  0.50057333  1
  Na  Na4  1  0.00753142  0.99445273  0.00066574  1
  Na  Na5  1  0.68601075  0.33511587  0.83271658  1
  Na  Na6  1  0.68441591  0.34855159  0.33188504  1
  Na  Na7  1  0.30748086  0.65349813  0.16297978  1
  Na  Na8  1  0.33500510  0.67981956  0.66259172  1
  Ca  Ca0  1  0.99352188  0.00096506  0.34535984  1
  Ca  Ca1  1  0.99109389  0.99037560  0.84472817  1
  Ca  Ca2  1  0.67482762  0.33679460  0.98439927  1
  Ca  Ca3  1  0.66841228  0.33564921  0.48435229  1
  Ca  Ca4  1  0.31908098  0.66511139  0.02245803  1
  Ca  Ca5  1  0.33360871  0.66834636  0.52329048  1
  Zr  Zr0  1  0.00761017  0.00061484  0.65433536  1
  Zr  Zr1  1  0.01365313  0.00721247  0.15474020  1
  Zr  Zr2  1  0.65802739  0.32514170  0.68530866  1
  Zr  Zr3  1  0.66586640  0.33670367  0.18537353  1
  Zr  Zr4  1  0.33319260  0.66224475  0.30870873  1
  Zr  Zr5  1  0.33314197  0.67124737  0.80852311  1
  P  P0  1  0.30357467  0.00241611  0.25372361  1
  P  P1  1  0.70267912  0.70320743  0.24862865  1
  P  P2  1  0.99606148  0.29846483  0.25046831  1
  P  P3  1  0.29987525  0.29908252  0.75316376  1
  P  P4  1  0.99533864  0.69548402  0.74977108  1
  P  P5  1  0.70423079  0.00077179  0.74967145  1
  P  P6  1  0.36381196  0.03758369  0.58290397  1
  P  P7  1  0.96006387  0.63604919  0.08672448  1
  P  P8  1  0.36781914  0.32691575  0.08252028  1
  S  S0  1  0.95968424  0.32478225  0.58670159  1
  S  S1  1  0.67582640  0.63605264  0.58685681  1
  S  S2  1  0.67640849  0.03785780  0.08648440  1
  S  S3  1  0.62164232  0.66628561  0.91656445  1
  S  S4  1  0.04278914  0.37502567  0.91340509  1
  S  S5  1  0.33517945  0.96320589  0.91429595  1
  S  S6  1  0.62208739  0.95660875  0.41497833  1
  S  S7  1  0.33459464  0.37365584  0.41526402  1
  S  S8  1  0.04357549  0.66599873  0.41453220  1
  O  O0  1  0.24300178  0.03518468  0.30944729  1
  O  O1  1  0.80617854  0.77031460  0.30165911  1
  O  O2  1  0.96313098  0.20095274  0.30471115  1
  O  O3  1  0.24111835  0.20581788  0.80901767  1
  O  O4  1  0.95894811  0.75844307  0.80388114  1
  O  O5  1  0.80218499  0.03856886  0.80404595  1
  O  O6  1  0.79440023  0.97275743  0.69824842  1
  O  O7  1  0.17704485  0.20252557  0.70303250  1
  O  O8  1  0.02618687  0.81764081  0.69878751  1
  O  O9  1  0.78658466  0.81473751  0.19491763  1
  O  O10  1  0.02482719  0.20739327  0.19906575  1
  O  O11  1  0.17931924  0.97565405  0.20369775  1
  O  O12  1  0.86324107  0.33827184  0.63567180  1
  O  O13  1  0.48542369  0.15282269  0.63142582  1
  O  O14  1  0.66747207  0.52914442  0.63619981  1
  O  O15  1  0.85622278  0.51956325  0.13714726  1
  O  O16  1  0.66174094  0.12968087  0.13625308  1
  O  O17  1  0.48880562  0.33504764  0.13103658  1
  O  O18  1  0.42783338  0.29870135  0.02487016  1
  O  O19  1  0.85644016  0.56765095  0.03226418  1
  O  O20  1  0.69685703  0.13093374  0.03383681  1
  O  O21  1  0.42729577  0.12566889  0.52533714  1
  O  O22  1  0.69937458  0.56658118  0.53389007  1
  O  O23  1  0.86861929  0.30426325  0.53362970  1
  O  O24  1  0.54223655  0.67444221  0.96998625  1
  O  O25  1  0.13743137  0.45783367  0.96494001  1
  O  O26  1  0.32795123  0.87096233  0.96563626  1
  O  O27  1  0.53886373  0.86396121  0.46681161  1
  O  O28  1  0.32684084  0.45898147  0.46656990  1
  O  O29  1  0.13896427  0.67748861  0.46583184  1
  O  O30  1  0.13972167  0.65860795  0.36311062  1
  O  O31  1  0.51740724  0.85823335  0.36402283  1
  O  O32  1  0.33846186  0.47411756  0.36357714  1
  O  O33  1  0.13963699  0.48020967  0.86236003  1
  O  O34  1  0.33720342  0.86500542  0.86273848  1
  O  O35  1  0.51345225  0.66123573  0.86686676  1
  O  O36  1  0.03484699  0.82525405  0.41125370  1
  O  O37  1  0.79351089  0.98090943  0.41161913  1
  O  O38  1  0.18415307  0.19970103  0.41307414  1
  O  O39  1  0.03449888  0.20759411  0.91005738  1
  O  O40  1  0.18443183  0.98592256  0.91240877  1
  O  O41  1  0.79276110  0.81378125  0.91244651  1
  O  O42  1  0.97429064  0.16834981  0.59484155  1
  O  O43  1  0.18743223  0.02445774  0.59542699  1
  O  O44  1  0.82850110  0.80932773  0.59447559  1
  O  O45  1  0.96995009  0.81304744  0.09665586  1
  O  O46  1  0.82931429  0.01732619  0.09332226  1
  O  O47  1  0.18808931  0.17224584  0.09523655  1
  O  O48  1  0.67047080  0.14950613  0.73656929  1
  O  O49  1  0.47870111  0.32825187  0.73810596  1
  O  O50  1  0.84804319  0.51565671  0.73556588  1
  O  O51  1  0.66783292  0.51888620  0.23780164  1
  O  O52  1  0.84694107  0.32876165  0.23747268  1
  O  O53  1  0.48101274  0.15109939  0.23828297  1
  O  O54  1  0.62353756  0.50255783  0.91337174  1
  O  O55  1  0.87308750  0.35761242  0.91277557  1
  O  O56  1  0.49037162  0.13428013  0.91187924  1
  O  O57  1  0.62502256  0.12300898  0.41331007  1
  O  O58  1  0.48985110  0.35772915  0.41314063  1
  O  O59  1  0.87352618  0.51362412  0.41402568  1
  O  O60  1  0.36618664  0.49593338  0.08580607  1
  O  O61  1  0.13632693  0.65740780  0.08736580  1
  O  O62  1  0.52687874  0.86404490  0.08545246  1
  O  O63  1  0.34620762  0.86162147  0.58773472  1
  O  O64  1  0.52168347  0.64967637  0.58720158  1
  O  O65  1  0.13017722  0.47553516  0.58688557  1
  O  O66  1  0.31610517  0.83665608  0.25645183  1
  O  O67  1  0.52219372  0.68429536  0.25529991  1
  O  O68  1  0.16066484  0.47809704  0.25469113  1
  O  O69  1  0.31703012  0.47954173  0.75645861  1
  O  O70  1  0.16116488  0.68335380  0.75477782  1
  O  O71  1  0.52329597  0.83838888  0.75522793  1
loop_
_geom_bond_atom_site_label_1
_geom_bond_atom_site_label_2
_geom_bond_distance
_geom_bond_site_symmetry_2
Na0 O60 2.378524 1_555
Na0 O45 2.454115 1_555
Na0 O62 2.497767 1_555
Na0 O46 2.628701 1_565
Na0 O19 2.752940 1_555
Na0 O9 2.869242 1_555
Na0 O24 2.892525 1_554
Na1 O54 2.375439 1_555
Na1 O39 2.419511 1_555
Na1 O40 2.435716 1_545
Na1 O56 2.520913 1_555
Na1 O3 2.660190 1_555
Na1 O18 2.711463 1_556
Na2 O57 2.393199 1_555
Na2 O36 2.409663 1_545
Na2 O38 2.447459 1_555
Na2 O58 2.533944 1_555
Na2 O0 2.644095 1_555
Na2 O21 2.717970 1_555
Na3 O37 2.716533 1_545
Na3 O38 2.726161 1_655
Na3 O42 2.738172 1_555
Na3 O44 2.756397 1_545
Na3 O36 2.797093 1_645
Na3 O43 2.812718 1_655
Na4 O40 2.660223 1_554
Na4 O45 2.723265 1_455
Na4 O47 2.768734 1_565
Na4 O41 2.770552 1_454
Na4 O46 2.794458 1_465
Na4 O39 2.814607 1_564
Na5 O55 2.488918 1_555
Na5 O56 2.599681 1_555
Na5 O54 2.670487 1_555
Na5 O50 2.778489 1_555
Na5 O48 2.789788 1_555
Na5 O49 2.911015 1_555
Na6 O59 2.532997 1_555
Na6 O58 2.642826 1_555
Na6 O57 2.662259 1_555
Na6 O52 2.732334 1_555
Na6 O51 2.756560 1_555
Na6 O53 2.870043 1_555
Na7 O61 2.386630 1_555
Na7 O60 2.534178 1_555
Na7 O68 2.625819 1_555
Na7 O62 2.682200 1_555
Na7 O66 2.742075 1_555
Na7 O67 2.852985 1_555
Na8 O63 2.387845 1_555
Na8 O64 2.570591 1_555
Na8 O65 2.584623 1_555
Na8 O70 2.702590 1_555
Na8 O71 2.711828 1_555
Na8 O69 2.821879 1_555
Ca0 O1 2.192335 1_545
Ca0 O2 2.192597 1_555
Ca0 O0 2.299824 1_655
Ca0 O37 2.340257 1_545
Ca0 O38 2.390577 1_655
Ca0 O36 2.391854 1_645
Ca1 O4 2.200003 1_555
Ca1 O5 2.201575 1_565
Ca1 O3 2.299497 1_665
Ca1 O41 2.346580 1_555
Ca1 O39 2.377548 1_665
Ca1 O40 2.398170 1_655
Ca2 O19 2.226505 1_556
Ca2 O20 2.298357 1_556
Ca2 O18 2.308939 1_556
Ca2 O55 2.413316 1_555
Ca2 O54 2.452159 1_555
Ca2 O56 2.463170 1_555
Ca3 O21 2.285798 1_555
Ca3 O22 2.293253 1_555
Ca3 O23 2.302598 1_555
Ca3 O59 2.419235 1_555
Ca3 O58 2.420980 1_555
Ca3 O57 2.437562 1_555
Ca4 O61 2.239533 1_555
Ca4 O25 2.242349 1_554
Ca4 O26 2.271349 1_554
Ca4 O60 2.335036 1_555
Ca4 O24 2.348003 1_554
Ca4 O62 2.379305 1_555
Ca5 O27 2.262908 1_555
Ca5 O29 2.271480 1_555
Ca5 O63 2.282922 1_555
Ca5 O28 2.301950 1_555
Ca5 O65 2.349906 1_555
Ca5 O64 2.356544 1_555
O0 P0 1.513171 1_555
O1 P1 1.503734 1_555
O2 P2 1.500775 1_555
O3 P3 1.514245 1_555
O4 P4 1.503275 1_555
O5 P5 1.504560 1_555
O6 P5 1.557039 1_565
O6 Zr0 2.104789 1_665
O7 P3 1.565174 1_555
O7 Zr0 2.061735 1_555
O8 P4 1.565566 1_455
O8 Zr0 2.044503 1_565
O9 P1 1.564587 1_555
O9 Zr1 2.152295 1_665
O10 P2 1.563227 1_455
O10 Zr1 2.056385 1_555
O11 P0 1.571669 1_565
O11 Zr1 2.035746 1_565
O12 S0 1.494440 1_555
O12 Zr2 2.160696 1_555
O13 P6 1.576167 1_555
O13 Zr2 2.023448 1_555
O14 S1 1.495251 1_555
O14 Zr2 2.152328 1_555
O15 P7 1.560344 1_555
O15 Zr3 2.047449 1_555
O16 S2 1.485531 1_555
O16 Zr3 2.194063 1_555
O17 P8 1.568617 1_555
O17 Zr3 2.059378 1_555
O18 P8 1.535879 1_555
O19 P7 1.533586 1_555
O20 S2 1.463023 1_555
O21 P6 1.537025 1_555
O22 S1 1.464473 1_555
O23 S0 1.464821 1_555
O24 S3 1.474776 1_555
O25 S4 1.465513 1_555
O26 S5 1.457423 1_555
O27 S6 1.464828 1_555
O28 S7 1.459142 1_555
O29 S8 1.466238 1_555
O30 S8 1.518722 1_555
O30 Zr4 2.169517 1_555
O31 S6 1.520010 1_555
O31 Zr4 2.172529 1_555
O32 S7 1.514898 1_555
O32 Zr4 2.165607 1_555
O33 S4 1.517992 1_555
O33 Zr5 2.164671 1_555
O34 S5 1.515138 1_555
O34 Zr5 2.162021 1_555
O35 S3 1.521080 1_555
O35 Zr5 2.184557 1_555
O36 S8 1.490511 1_555
O37 S6 1.468846 1_555
O38 S7 1.489791 1_555
O39 S4 1.487111 1_555
O40 S5 1.490360 1_555
O41 S3 1.467842 1_555
O42 S0 1.504922 1_555
O42 Zr0 2.204026 1_655
O43 P6 1.581176 1_555
O43 Zr0 2.077698 1_555
O44 S1 1.504253 1_555
O44 Zr0 2.204552 1_665
O45 P7 1.582583 1_555
O45 Zr1 2.109816 1_665
O46 S2 1.506296 1_555
O46 Zr1 2.259586 1_655
O47 P8 1.566361 1_555
O47 Zr1 2.091071 1_555
O48 P5 1.560051 1_555
O48 Zr2 2.051895 1_555
O49 P3 1.557922 1_555
O49 Zr2 2.067904 1_555
O50 P4 1.548270 1_555
O50 Zr2 2.102362 1_555
O51 P1 1.561915 1_555
O51 Zr3 2.059912 1_555
O52 P2 1.548410 1_555
O52 Zr3 2.091928 1_555
O53 P0 1.547680 1_555
O53 Zr3 2.099806 1_555
O54 S3 1.498284 1_555
O55 S4 1.476279 1_655
O56 S5 1.492420 1_545
O57 S6 1.499347 1_545
O58 S7 1.495253 1_555
O59 S8 1.476582 1_655
O60 P8 1.545182 1_555
O61 P7 1.521210 1_455
O62 S2 1.485051 1_565
O63 P6 1.529360 1_565
O64 S1 1.472522 1_555
O65 S0 1.472904 1_455
O66 P0 1.567780 1_565
O66 Zr4 2.076022 1_555
O67 P1 1.576197 1_555
O67 Zr4 2.063336 1_555
O68 P2 1.575717 1_455
O68 Zr4 2.068905 1_555
O69 P3 1.569363 1_555
O69 Zr5 2.076425 1_555
O70 P4 1.575960 1_455
O70 Zr5 2.065443 1_555
O71 P5 1.577356 1_565
O71 Zr5 2.066086 1_555
