# generated using pymatgen
data_Tb2Mo4O15
_symmetry_space_group_name_H-M   'P 1'
_cell_length_a   9.62527710
_cell_length_b   6.81330901
_cell_length_c   10.58309556
_cell_angle_alpha   74.52486396
_cell_angle_beta   90.00000000
_cell_angle_gamma   90.00000000
_symmetry_Int_Tables_number   1
_chemical_formula_structural   Tb2Mo4O15
_chemical_formula_sum   'Tb4 Mo8 O30'
_cell_volume   668.87780202
_cell_formula_units_Z   2
loop_
 _symmetry_equiv_pos_site_id
 _symmetry_equiv_pos_as_xyz
  1  'x, y, z'
loop_
 _atom_site_type_symbol
 _atom_site_label
 _atom_site_symmetry_multiplicity
 _atom_site_fract_x
 _atom_site_fract_y
 _atom_site_fract_z
 _atom_site_occupancy
  Tb  Tb0  1  0.52353110  0.21285546  0.22331837  1
  Tb  Tb1  1  0.02353110  0.78714454  0.27668163  1
  Tb  Tb2  1  0.47646890  0.78714454  0.77668163  1
  Tb  Tb3  1  0.97646890  0.21285546  0.72331837  1
  Mo  Mo0  1  0.25605019  0.08170222  0.98877874  1
  Mo  Mo1  1  0.75605019  0.91829778  0.51122126  1
  Mo  Mo2  1  0.74394981  0.91829778  0.01122126  1
  Mo  Mo3  1  0.24394981  0.08170222  0.48877874  1
  Mo  Mo4  1  0.90487296  0.37916756  0.15569472  1
  Mo  Mo5  1  0.40487296  0.62083244  0.34430528  1
  Mo  Mo6  1  0.09512704  0.62083244  0.84430528  1
  Mo  Mo7  1  0.59512704  0.37916756  0.65569472  1
  O  O0  1  0.16754799  0.88097591  0.09866117  1
  O  O1  1  0.66754799  0.11902409  0.40133883  1
  O  O2  1  0.83245201  0.11902409  0.90133883  1
  O  O3  1  0.33245201  0.88097591  0.59866117  1
  O  O4  1  0.97198819  0.44424255  0.29254775  1
  O  O5  1  0.47198819  0.55575745  0.20745225  1
  O  O6  1  0.02801181  0.55575745  0.70745225  1
  O  O7  1  0.52801181  0.44424255  0.79254775  1
  O  O8  1  0.37304755  0.97952886  0.89666320  1
  O  O9  1  0.87304755  0.02047114  0.60333680  1
  O  O10  1  0.62695245  0.02047114  0.10333680  1
  O  O11  1  0.12695245  0.97952886  0.39666320  1
  O  O12  1  0.50000000  0.50000000  0.50000000  1
  O  O13  1  -0.00000000  0.50000000  -0.00000000  1
  O  O14  1  0.36495157  0.24597651  0.38331957  1
  O  O15  1  0.86495157  0.75402349  0.11668043  1
  O  O16  1  0.63504843  0.75402349  0.61668043  1
  O  O17  1  0.13504843  0.24597651  0.88331957  1
  O  O18  1  0.77556181  0.38861225  0.64640732  1
  O  O19  1  0.27556181  0.61138775  0.85359268  1
  O  O20  1  0.22443819  0.61138775  0.35359268  1
  O  O21  1  0.72443819  0.38861225  0.14640732  1
  O  O22  1  0.15406881  0.22002058  0.58139702  1
  O  O23  1  0.65406881  0.77997942  0.91860298  1
  O  O24  1  0.84593119  0.77997942  0.41860298  1
  O  O25  1  0.34593119  0.22002058  0.08139702  1
  O  O26  1  0.55646243  0.12200355  0.68148288  1
  O  O27  1  0.05646243  0.87799645  0.81851712  1
  O  O28  1  0.44353757  0.87799645  0.31851712  1
  O  O29  1  0.94353757  0.12200355  0.18148288  1
loop_
_geom_bond_atom_site_label_1
_geom_bond_atom_site_label_2
_geom_bond_distance
_geom_bond_site_symmetry_2
Mo0 O8 1.750800 1_545
Mo0 O25 1.757922 1_556
Mo0 O0 1.760583 1_546
Mo0 O17 1.785560 1_555
Mo1 O9 1.750800 1_565
Mo1 O24 1.757922 1_555
Mo1 O1 1.760583 1_565
Mo1 O16 1.785560 1_555
Mo2 O10 1.750800 1_565
Mo2 O23 1.757922 1_554
Mo2 O2 1.760583 1_564
Mo2 O15 1.785560 1_555
Mo3 O11 1.750800 1_545
Mo3 O22 1.757922 1_555
Mo3 O3 1.760583 1_545
Mo3 O14 1.785560 1_555
Mo4 O21 1.739734 1_555
Mo4 O29 1.740055 1_555
Mo4 O4 1.747638 1_555
Mo4 O13 1.872769 1_655
Mo4 O15 2.505665 1_555
Mo5 O20 1.739734 1_555
Mo5 O28 1.740055 1_555
Mo5 O5 1.747638 1_555
Mo5 O12 1.872769 1_555
Mo5 O14 2.505665 1_555
Mo6 O19 1.739734 1_555
Mo6 O27 1.740055 1_555
Mo6 O6 1.747638 1_555
Mo6 O13 1.872769 1_556
Mo6 O17 2.505665 1_555
Mo7 O18 1.739734 1_555
Mo7 O26 1.740055 1_555
Mo7 O7 1.747638 1_555
Mo7 O12 1.872769 1_555
Mo7 O16 2.505665 1_555
O0 Tb1 2.288451 1_555
O1 Tb0 2.288451 1_555
O2 Tb3 2.288451 1_555
O3 Tb2 2.288451 1_555
O4 Tb1 2.350163 1_655
O5 Tb0 2.350163 1_555
O6 Tb3 2.350163 1_455
O7 Tb2 2.350163 1_555
O8 Tb2 2.282451 1_555
O9 Tb3 2.282451 1_555
O10 Tb0 2.282451 1_555
O11 Tb1 2.282451 1_555
O14 Tb0 2.334939 1_555
O15 Tb1 2.334939 1_655
O16 Tb2 2.334939 1_555
O17 Tb3 2.334939 1_455
O18 Tb3 2.305621 1_555
O19 Tb2 2.305621 1_555
O20 Tb1 2.305621 1_555
O21 Tb0 2.305621 1_555
O22 Tb3 2.267460 1_455
O23 Tb2 2.267460 1_555
O24 Tb1 2.267460 1_655
O25 Tb0 2.267460 1_555
O26 Tb2 2.363577 1_545
O27 Tb3 2.363577 1_465
O28 Tb0 2.363577 1_565
O29 Tb1 2.363577 1_645
