# generated using pymatgen
data_LiCoAs
_symmetry_space_group_name_H-M   'P 1'
_cell_length_a   3.70797367
_cell_length_b   3.70797367
_cell_length_c   6.12163362
_cell_angle_alpha   90.00000000
_cell_angle_beta   90.00000000
_cell_angle_gamma   90.00000000
_symmetry_Int_Tables_number   1
_chemical_formula_structural   LiCoAs
_chemical_formula_sum   'Li2 Co2 As2'
_cell_volume   84.16676143
_cell_formula_units_Z   2
loop_
 _symmetry_equiv_pos_site_id
 _symmetry_equiv_pos_as_xyz
  1  'x, y, z'
loop_
 _atom_site_type_symbol
 _atom_site_label
 _atom_site_symmetry_multiplicity
 _atom_site_fract_x
 _atom_site_fract_y
 _atom_site_fract_z
 _atom_site_occupancy
  Li  Li0  1  0.75000000  0.75000000  0.67084142  1
  Li  Li1  1  0.25000000  0.25000000  0.32915858  1
  Co  Co0  1  0.25000000  0.75000000  -0.00000000  1
  Co  Co1  1  0.75000000  0.25000000  -0.00000000  1
  As  As0  1  0.25000000  0.25000000  0.77213794  1
  As  As1  1  0.75000000  0.75000000  0.22786206  1
loop_
_geom_bond_atom_site_label_1
_geom_bond_atom_site_label_2
_geom_bond_distance
_geom_bond_site_symmetry_2
Co0 Li1 2.738146 1_555
Co0 Li0 2.738146 1_554
Co0 Li1 2.738146 1_565
Co0 Li0 2.738146 1_454
Co1 Li1 2.738146 1_555
Co1 Li0 2.738146 1_554
Co1 Li0 2.738146 1_544
Co1 Li1 2.738146 1_655
As0 Co0 2.320125 1_556
As0 Co1 2.320125 1_456
As0 Co1 2.320125 1_556
As0 Co0 2.320125 1_546
As0 Li0 2.694264 1_555
As0 Li0 2.694264 1_445
As0 Li0 2.694264 1_545
As0 Li0 2.694264 1_455
As0 Li1 2.711757 1_555
As1 Co1 2.320125 1_555
As1 Co0 2.320125 1_655
As1 Co1 2.320125 1_565
As1 Co0 2.320125 1_555
As1 Li1 2.694264 1_555
As1 Li1 2.694264 1_565
As1 Li1 2.694264 1_655
As1 Li1 2.694264 1_665
As1 Li0 2.711757 1_555
