# generated using pymatgen
data_Na5Mg2Nb2SiP5O24
_symmetry_space_group_name_H-M   'P 1'
_cell_length_a   8.92807943
_cell_length_b   8.96314685
_cell_length_c   22.34253989
_cell_angle_alpha   89.77242449
_cell_angle_beta   90.20092975
_cell_angle_gamma   119.92528883
_symmetry_Int_Tables_number   1
_chemical_formula_structural   Na5Mg2Nb2SiP5O24
_chemical_formula_sum   'Na15 Mg6 Nb6 Si3 P15 O72'
_cell_volume   1549.54464824
_cell_formula_units_Z   3
loop_
 _symmetry_equiv_pos_site_id
 _symmetry_equiv_pos_as_xyz
  1  'x, y, z'
loop_
 _atom_site_type_symbol
 _atom_site_label
 _atom_site_symmetry_multiplicity
 _atom_site_fract_x
 _atom_site_fract_y
 _atom_site_fract_z
 _atom_site_occupancy
  Na  Na0  1  0.62232091  0.00231909  0.25119571  1
  Na  Na1  1  0.99778586  0.61675683  0.24859321  1
  Na  Na2  1  0.34602346  0.99959309  0.75211650  1
  Na  Na3  1  0.29823992  0.31460545  0.58609009  1
  Na  Na4  1  0.02430432  0.70654035  0.58873632  1
  Na  Na5  1  0.67916707  0.97571674  0.59198352  1
  Na  Na6  1  0.65439155  0.68922622  0.07691318  1
  Na  Na7  1  0.04041883  0.34903712  0.07854837  1
  Na  Na8  1  0.97988556  0.67846329  0.91083644  1
  Na  Na9  1  0.00649772  0.00053514  0.50597567  1
  Na  Na10  1  0.01315733  0.01439940  0.98721805  1
  Na  Na11  1  0.67049145  0.32826567  0.83248439  1
  Na  Na12  1  0.65368333  0.33584134  0.34035381  1
  Na  Na13  1  0.32669865  0.66630123  0.16364646  1
  Na  Na14  1  0.33826730  0.65669760  0.67023629  1
  Mg  Mg0  1  0.99834803  0.00897593  0.84977979  1
  Mg  Mg1  1  0.99529618  0.99850459  0.65262847  1
  Mg  Mg2  1  0.66373932  0.33431529  0.18780636  1
  Mg  Mg3  1  0.66270433  0.33131843  0.47865105  1
  Mg  Mg4  1  0.33135784  0.67267121  0.01863051  1
  Mg  Mg5  1  0.33336821  0.66080508  0.31341972  1
  Nb  Nb0  1  0.00339597  0.00301325  0.35849209  1
  Nb  Nb1  1  0.00403902  0.99789040  0.14415702  1
  Nb  Nb2  1  0.66654655  0.32810208  0.68673841  1
  Nb  Nb3  1  0.66421825  0.33184595  0.98024547  1
  Nb  Nb4  1  0.33494294  0.67052562  0.51537014  1
  Nb  Nb5  1  0.33900854  0.66688372  0.81473103  1
  Si  Si0  1  0.71431039  0.99943612  0.74902909  1
  Si  Si1  1  0.36928409  0.04119645  0.58006943  1
  Si  Si2  1  0.96309990  0.62260134  0.08769828  1
  P  P0  1  0.29366791  0.00317397  0.25168369  1
  P  P1  1  0.70837972  0.70983756  0.25106645  1
  P  P2  1  0.00233580  0.29139184  0.25002917  1
  P  P3  1  0.28980763  0.29149486  0.74855031  1
  P  P4  1  0.99725529  0.70563346  0.75173180  1
  P  P5  1  0.95728127  0.33327763  0.57970254  1
  P  P6  1  0.66839211  0.62268547  0.57972086  1
  P  P7  1  0.66154017  0.04102810  0.08781610  1
  P  P8  1  0.37959890  0.33430284  0.08541689  1
  P  P9  1  0.62866498  0.66928693  0.92162533  1
  P  P10  1  0.04419401  0.37087881  0.92121108  1
  P  P11  1  0.33121023  0.95852443  0.91784383  1
  P  P12  1  0.62375443  0.96336520  0.41106567  1
  P  P13  1  0.34001409  0.37978100  0.41341386  1
  P  P14  1  0.03646471  0.66022481  0.41148056  1
  O  O0  1  0.19389424  0.01772772  0.30658998  1
  O  O1  1  0.83109531  0.81374237  0.30467852  1
  O  O2  1  0.98728863  0.17208780  0.30451651  1
  O  O3  1  0.21669323  0.17103003  0.80153417  1
  O  O4  1  0.97334025  0.78096155  0.80907920  1
  O  O5  1  0.82467994  0.03222118  0.80682155  1
  O  O6  1  0.77242097  0.96647877  0.68514007  1
  O  O7  1  0.19500818  0.22705074  0.68933236  1
  O  O8  1  0.03809503  0.81636314  0.69525311  1
  O  O9  1  0.80709570  0.82578854  0.19351377  1
  O  O10  1  0.01722596  0.19607339  0.19290701  1
  O  O11  1  0.17418217  0.98530082  0.19544868  1
  O  O12  1  0.87243199  0.36696604  0.63708304  1
  O  O13  1  0.49571166  0.13052736  0.64150001  1
  O  O14  1  0.63505889  0.50563636  0.63665926  1
  O  O15  1  0.87339820  0.51229976  0.14621304  1
  O  O16  1  0.64093791  0.11885365  0.14469789  1
  O  O17  1  0.48984484  0.35854677  0.13948596  1
  O  O18  1  0.46270141  0.30161213  0.02782416  1
  O  O19  1  0.82852209  0.52695323  0.02765899  1
  O  O20  1  0.69157314  0.16390681  0.03217205  1
  O  O21  1  0.46287311  0.16588562  0.52621791  1
  O  O22  1  0.69879157  0.54104521  0.52603044  1
  O  O23  1  0.84649200  0.30923629  0.52620911  1
  O  O24  1  0.54384066  0.68225885  0.97827664  1
  O  O25  1  0.13920010  0.45582693  0.97835615  1
  O  O26  1  0.30741697  0.84484368  0.97093595  1
  O  O27  1  0.53083706  0.84008245  0.46853155  1
  O  O28  1  0.30786105  0.46333468  0.47256581  1
  O  O29  1  0.15997468  0.69018855  0.46905032  1
  O  O30  1  0.12592583  0.64966617  0.35583724  1
  O  O31  1  0.52122874  0.87491312  0.35557648  1
  O  O32  1  0.34979320  0.48501195  0.36004522  1
  O  O33  1  0.13510395  0.49740602  0.86649271  1
  O  O34  1  0.35839822  0.87316612  0.85924550  1
  O  O35  1  0.50949879  0.64836748  0.86572753  1
  O  O36  1  0.03036324  0.83568513  0.41122461  1
  O  O37  1  0.80567069  0.96874557  0.41057980  1
  O  O38  1  0.16512327  0.19503792  0.41119076  1
  O  O39  1  0.01983979  0.19369173  0.91184680  1
  O  O40  1  0.17433550  0.98079340  0.90912235  1
  O  O41  1  0.81300096  0.81477951  0.91330227  1
  O  O42  1  0.98756998  0.18116698  0.58884704  1
  O  O43  1  0.17554198  0.00489635  0.59022411  1
  O  O44  1  0.81895006  0.80587885  0.58869560  1
  O  O45  1  0.96651638  0.81329741  0.08924424  1
  O  O46  1  0.84089843  0.03930476  0.08870692  1
  O  O47  1  0.19302383  0.16911799  0.08895346  1
  O  O48  1  0.67364901  0.16704879  0.74268822  1
  O  O49  1  0.48158130  0.32327564  0.74127005  1
  O  O50  1  0.83893353  0.52083276  0.74217537  1
  O  O51  1  0.70316626  0.53821662  0.24884544  1
  O  O52  1  0.83204977  0.29447313  0.24958163  1
  O  O53  1  0.47094417  0.16235939  0.24786704  1
  O  O54  1  0.63657360  0.49386113  0.92167585  1
  O  O55  1  0.85931387  0.36335246  0.92317907  1
  O  O56  1  0.50156466  0.13968438  0.92285319  1
  O  O57  1  0.65274662  0.14079699  0.42117505  1
  O  O58  1  0.49057050  0.35071764  0.42102712  1
  O  O59  1  0.85937163  0.51074210  0.42186555  1
  O  O60  1  0.35263105  0.48811758  0.07661607  1
  O  O61  1  0.15007198  0.64623290  0.07851343  1
  O  O62  1  0.52004263  0.85642444  0.07781174  1
  O  O63  1  0.36126954  0.84778563  0.57544076  1
  O  O64  1  0.49465857  0.63296395  0.57549622  1
  O  O65  1  0.14137256  0.50467168  0.57659367  1
  O  O66  1  0.29733122  0.83408235  0.25167977  1
  O  O67  1  0.53762385  0.70860779  0.25217151  1
  O  O68  1  0.16110172  0.47034376  0.25183283  1
  O  O69  1  0.31673657  0.47684757  0.76059308  1
  O  O70  1  0.16033574  0.67791349  0.75926983  1
  O  O71  1  0.50620377  0.83295205  0.75923062  1
loop_
_geom_bond_atom_site_label_1
_geom_bond_atom_site_label_2
_geom_bond_distance
_geom_bond_site_symmetry_2
Na0 O52 2.339259 1_555
Na0 O67 2.348659 1_545
Na0 O53 2.412993 1_555
Na0 O66 2.515459 1_545
Na0 O31 2.553971 1_545
Na0 O16 2.567128 1_555
Na1 O51 2.359468 1_555
Na1 O66 2.398639 1_655
Na1 O68 2.400239 1_655
Na1 O52 2.503888 1_555
Na1 O15 2.510783 1_555
Na1 O30 2.605158 1_655
Na2 O70 2.513202 1_555
Na2 O71 2.535570 1_555
Na2 O49 2.536469 1_565
Na2 O48 2.544522 1_565
Na2 O3 2.589636 1_565
Na2 O34 2.669612 1_555
Na2 O8 2.712317 1_555
Na2 O13 2.776090 1_565
Na3 O42 2.412118 1_455
Na3 O43 2.424695 1_555
Na3 O7 2.462729 1_555
Na3 O64 2.505705 1_555
Na3 O65 2.698941 1_555
Na3 O21 2.776625 1_555
Na3 O28 2.842241 1_555
Na3 O14 2.847008 1_555
Na4 O43 2.318053 1_565
Na4 O44 2.404778 1_455
Na4 O65 2.516476 1_555
Na4 O8 2.558019 1_555
Na4 O63 2.635331 1_555
Na4 O12 2.852312 1_455
Na4 O22 2.880269 1_455
Na4 O29 2.973614 1_555
Na5 O6 2.255512 1_555
Na5 O44 2.403594 1_555
Na5 O42 2.432857 1_565
Na5 O63 2.501158 1_555
Na5 O64 2.691242 1_555
Na5 O13 2.850369 1_565
Na6 O62 2.340711 1_555
Na6 O60 2.379551 1_555
Na6 O24 2.399816 1_554
Na6 O45 2.446066 1_555
Na6 O46 2.734659 1_565
Na6 O19 2.832715 1_555
Na6 O9 2.911908 1_555
Na6 O17 2.921412 1_555
Na7 O61 2.335024 1_555
Na7 O60 2.420580 1_555
Na7 O25 2.420672 1_554
Na7 O46 2.448577 1_455
Na7 O47 2.588048 1_555
Na7 O10 2.853697 1_555
Na7 O20 2.891703 1_455
Na7 O15 2.976757 1_455
Na8 O41 2.352302 1_555
Na8 O40 2.379999 1_655
Na8 O4 2.460152 1_555
Na8 O55 2.484830 1_555
Na8 O54 2.670812 1_555
Na8 O33 2.793191 1_655
Na8 O26 2.866259 1_655
Na8 O19 2.940859 1_556
Na9 O43 2.396722 1_555
Na9 O44 2.518894 1_445
Na9 O42 2.525285 1_455
Na9 O36 2.655628 1_545
Na9 O38 2.656706 1_555
Na9 O37 2.703170 1_445
Na10 O39 2.303353 1_555
Na10 O40 2.379132 1_545
Na10 O41 2.436125 1_445
Na10 O47 2.728751 1_556
Na10 O45 2.800676 1_446
Na10 O46 2.815627 1_456
Na11 O48 2.485570 1_555
Na11 O55 2.549337 1_555
Na11 O56 2.580517 1_555
Na11 O50 2.591477 1_555
Na11 O54 2.596537 1_555
Na11 O49 2.627027 1_555
Na12 O58 2.366731 1_555
Na12 O59 2.504695 1_555
Na12 O57 2.505493 1_555
Na12 O53 2.611579 1_555
Na12 O51 2.615893 1_555
Na12 O52 2.721088 1_555
Na13 O61 2.415718 1_555
Na13 O68 2.560260 1_555
Na13 O66 2.572834 1_555
Na13 O62 2.573679 1_555
Na13 O60 2.604237 1_555
Na13 O67 2.620957 1_555
Na14 O71 2.517559 1_555
Na14 O69 2.525632 1_555
Na14 O64 2.606925 1_555
Na14 O70 2.615990 1_555
Na14 O65 2.632719 1_555
Na14 O63 2.661726 1_555
Mg0 O5 1.918081 1_555
Mg0 O3 2.061326 1_655
Mg0 O39 2.097709 1_655
Mg0 O4 2.147477 1_545
Mg0 O40 2.160837 1_645
Mg0 O41 2.214803 1_545
Mg1 O6 2.002029 1_555
Mg1 O8 2.079838 1_655
Mg1 O7 2.099251 1_665
Mg1 O43 2.111889 1_665
Mg1 O44 2.189017 1_555
Mg1 O42 2.193051 1_565
Mg2 O15 1.983284 1_555
Mg2 O17 1.986433 1_555
Mg2 O16 2.078423 1_555
Mg2 O53 2.119400 1_555
Mg2 O51 2.167589 1_555
Mg2 O52 2.192613 1_555
Mg3 O21 1.967864 1_555
Mg3 O22 2.041375 1_555
Mg3 O23 2.042258 1_555
Mg3 O58 2.073786 1_555
Mg3 O57 2.106717 1_555
Mg3 O59 2.112122 1_555
Mg4 O26 1.969052 1_554
Mg4 O61 2.023827 1_555
Mg4 O25 2.051033 1_554
Mg4 O24 2.065879 1_554
Mg4 O62 2.128911 1_555
Mg4 O60 2.178426 1_555
Mg5 O32 1.950857 1_555
Mg5 O30 2.040915 1_555
Mg5 O31 2.043268 1_555
Mg5 O68 2.134791 1_555
Mg5 O67 2.148261 1_555
Mg5 O66 2.212900 1_555
Nb0 O38 1.989511 1_555
Nb0 O2 1.993305 1_455
Nb0 O37 2.008880 1_445
Nb0 O36 2.009897 1_545
Nb0 O0 2.010871 1_555
Nb0 O1 2.022234 1_445
Nb1 O11 1.947132 1_555
Nb1 O45 1.953251 1_455
Nb1 O9 1.995289 1_455
Nb1 O47 2.034562 1_565
Nb1 O10 2.039955 1_565
Nb1 O46 2.077806 1_465
Nb2 O48 1.930527 1_555
Nb2 O13 1.947426 1_555
Nb2 O12 2.025680 1_555
Nb2 O49 2.038577 1_555
Nb2 O50 2.058637 1_555
Nb2 O14 2.071972 1_555
Nb3 O19 1.943338 1_556
Nb3 O18 1.991258 1_556
Nb3 O20 2.005591 1_556
Nb3 O54 2.054839 1_555
Nb3 O56 2.056357 1_555
Nb3 O55 2.064292 1_555
Nb4 O29 1.950446 1_555
Nb4 O27 1.952406 1_555
Nb4 O28 1.996576 1_555
Nb4 O63 2.005741 1_555
Nb4 O64 2.100785 1_555
Nb4 O65 2.122464 1_555
Nb5 O71 1.939828 1_555
Nb5 O35 1.970047 1_555
Nb5 O69 2.020068 1_555
Nb5 O34 2.032672 1_555
Nb5 O33 2.049580 1_555
Nb5 O70 2.057290 1_555
O0 P0 1.562145 1_555
O1 P1 1.576107 1_555
O2 P2 1.578301 1_655
O3 P3 1.511740 1_555
O4 P4 1.515181 1_555
O5 Si0 1.558781 1_545
O6 Si0 1.598588 1_555
O7 P3 1.520189 1_555
O8 P4 1.530532 1_455
O9 P1 1.610523 1_555
O10 P2 1.581009 1_555
O11 P0 1.601246 1_565
O12 P5 1.595854 1_555
O13 Si1 1.701503 1_555
O14 P6 1.577382 1_555
O15 Si2 1.592204 1_555
O16 P7 1.507406 1_555
O17 P8 1.501912 1_555
O18 P8 1.587044 1_555
O19 Si2 1.717018 1_555
O20 P7 1.589768 1_555
O21 Si1 1.568281 1_555
O22 P6 1.501843 1_555
O23 P5 1.494780 1_555
O24 P9 1.511581 1_555
O25 P10 1.511652 1_555
O26 P11 1.505544 1_555
O27 P12 1.624591 1_555
O28 P13 1.617073 1_555
O29 P14 1.624763 1_555
O30 P14 1.508576 1_555
O31 P12 1.509715 1_555
O32 P13 1.492876 1_555
O33 P10 1.586533 1_555
O34 P11 1.598075 1_555
O35 P9 1.587559 1_555
O36 P14 1.600536 1_555
O37 P12 1.600725 1_555
O38 P13 1.613348 1_555
O39 P10 1.507005 1_555
O40 P11 1.521896 1_555
O41 P9 1.517433 1_555
O42 P5 1.529365 1_555
O43 Si1 1.609347 1_555
O44 P6 1.530279 1_555
O45 Si2 1.694715 1_555
O46 P7 1.609139 1_555
O47 P8 1.585049 1_555
O48 Si0 1.717843 1_545
O49 P3 1.598153 1_555
O50 P4 1.565853 1_555
O51 P1 1.516587 1_555
O52 P2 1.534289 1_655
O53 P0 1.514900 1_555
O54 P9 1.608752 1_555
O55 P10 1.618775 1_655
O56 P11 1.580687 1_545
O57 P12 1.496310 1_545
O58 P13 1.500341 1_555
O59 P14 1.495109 1_655
O60 P8 1.525142 1_555
O61 Si2 1.588339 1_455
O62 P7 1.516271 1_565
O63 Si1 1.702553 1_565
O64 P6 1.601502 1_555
O65 P5 1.595909 1_455
O66 P0 1.532172 1_565
O67 P1 1.519340 1_555
O68 P2 1.521593 1_555
O69 P3 1.579505 1_555
O70 P4 1.602780 1_455
O71 Si0 1.721862 1_555
