# generated using pymatgen
data_Na2Mg(BiO3)2
_symmetry_space_group_name_H-M   'P 1'
_cell_length_a   6.45366450
_cell_length_b   6.45366485
_cell_length_c   6.45366474
_cell_angle_alpha   53.81058169
_cell_angle_beta   53.81058615
_cell_angle_gamma   53.81059211
_symmetry_Int_Tables_number   1
_chemical_formula_structural   Na2Mg(BiO3)2
_chemical_formula_sum   'Na2 Mg1 Bi2 O6'
_cell_volume   162.56923209
_cell_formula_units_Z   1
loop_
 _symmetry_equiv_pos_site_id
 _symmetry_equiv_pos_as_xyz
  1  'x, y, z'
loop_
 _atom_site_type_symbol
 _atom_site_label
 _atom_site_symmetry_multiplicity
 _atom_site_fract_x
 _atom_site_fract_y
 _atom_site_fract_z
 _atom_site_occupancy
  Na  Na0  1  0.12091900  0.12091900  0.12091900  1
  Na  Na1  1  0.87908100  0.87908100  0.87908100  1
  Mg  Mg0  1  0.50000000  0.50000000  0.50000000  1
  Bi  Bi0  1  0.31783800  0.31783800  0.31783800  1
  Bi  Bi1  1  0.68216200  0.68216200  0.68216200  1
  O  O0  1  0.11405500  0.67832700  0.45686500  1
  O  O1  1  0.67832700  0.45686500  0.11405500  1
  O  O2  1  0.45686500  0.11405500  0.67832700  1
  O  O3  1  0.88594500  0.32167300  0.54313500  1
  O  O4  1  0.54313500  0.88594500  0.32167300  1
  O  O5  1  0.32167300  0.54313500  0.88594500  1
loop_
_geom_bond_atom_site_label_1
_geom_bond_atom_site_label_2
_geom_bond_distance
_geom_bond_site_symmetry_2
Na0 O0 2.363068 1_545
Na0 O2 2.363068 1_554
Na0 O1 2.363068 1_455
Na0 O5 2.893468 1_554
Na0 O4 2.893468 1_545
Na0 O3 2.893468 1_455
Na1 O3 2.363068 1_565
Na1 O4 2.363068 1_556
Na1 O5 2.363068 1_655
Na1 O1 2.893468 1_556
Na1 O2 2.893468 1_565
Na1 O0 2.893468 1_655
Mg0 O4 2.158988 1_555
Mg0 O2 2.158988 1_555
Mg0 O3 2.158988 1_555
Mg0 O0 2.158988 1_555
Mg0 O5 2.158988 1_555
Mg0 O1 2.158988 1_555
Bi0 O5 2.249188 1_554
Bi0 O3 2.249188 1_455
Bi0 O4 2.249189 1_545
Bi0 O1 2.324972 1_555
Bi0 O2 2.324972 1_555
Bi0 O0 2.324972 1_555
Bi1 O1 2.249188 1_556
Bi1 O0 2.249188 1_655
Bi1 O2 2.249189 1_565
Bi1 O5 2.324972 1_555
Bi1 O4 2.324972 1_555
Bi1 O3 2.324972 1_555
