# generated using pymatgen
data_Ga12Ag2Te19
_symmetry_space_group_name_H-M   'P 1'
_cell_length_a   10.24909849
_cell_length_b   10.73166316
_cell_length_c   10.23960108
_cell_angle_alpha   89.47135528
_cell_angle_beta   89.96004405
_cell_angle_gamma   91.15789241
_symmetry_Int_Tables_number   1
_chemical_formula_structural   Ga12Ag2Te19
_chemical_formula_sum   'Ga12 Ag2 Te19'
_cell_volume   1125.97407452
_cell_formula_units_Z   1
loop_
 _symmetry_equiv_pos_site_id
 _symmetry_equiv_pos_as_xyz
  1  'x, y, z'
loop_
 _atom_site_type_symbol
 _atom_site_label
 _atom_site_symmetry_multiplicity
 _atom_site_fract_x
 _atom_site_fract_y
 _atom_site_fract_z
 _atom_site_occupancy
  Ga  Ga0  1  0.01276080  0.65679368  0.89956345  1
  Ga  Ga1  1  0.41759754  0.59885442  0.04175034  1
  Ga  Ga2  1  0.68498150  0.82943554  0.88191280  1
  Ga  Ga3  1  0.93716048  0.39062619  0.56891577  1
  Ga  Ga4  1  0.81765762  0.09549605  0.60557359  1
  Ga  Ga5  1  0.89751075  0.74041913  0.57235668  1
  Ga  Ga6  1  0.57709738  0.83633229  0.50535460  1
  Ga  Ga7  1  0.50792881  0.16934803  0.41355488  1
  Ga  Ga8  1  0.12321683  0.16589440  0.32517350  1
  Ga  Ga9  1  0.39996151  0.89948612  0.18925353  1
  Ga  Ga10  1  0.42268987  0.26066356  0.09132784  1
  Ga  Ga11  1  0.08767073  0.33171494  0.99171324  1
  Ag  Ag0  1  0.20093160  0.72982385  0.45151787  1
  Ag  Ag1  1  0.94412864  0.99545160  0.06561006  1
  Te  Te0  1  0.26325784  0.18355959  0.91338171  1
  Te  Te1  1  0.42691259  0.82227984  0.93933472  1
  Te  Te2  1  0.76818857  0.05690687  0.85052823  1
  Te  Te3  1  0.91299447  0.43379039  0.82579923  1
  Te  Te4  1  0.09648070  0.80784553  0.71622724  1
  Te  Te5  1  0.66690936  0.67452834  0.68198016  1
  Te  Te6  1  0.42541463  0.00832715  0.58605580  1
  Te  Te7  1  0.06690678  0.18045730  0.57940779  1
  Te  Te8  1  0.68298072  0.29823018  0.55506009  1
  Te  Te9  1  0.97464137  0.57239756  0.40695388  1
  Te  Te10  1  0.80820789  0.92501612  0.42106455  1
  Te  Te11  1  0.32524660  0.32388528  0.32717106  1
  Te  Te12  1  0.44939024  0.69858630  0.33252382  1
  Te  Te13  1  0.15644070  0.93387547  0.25321032  1
  Te  Te14  1  0.93354342  0.24410310  0.17788544  1
  Te  Te15  1  0.57909658  0.07907806  0.18415222  1
  Te  Te16  1  0.16934621  0.55818059  0.08413155  1
  Te  Te17  1  0.83672110  0.74193914  0.06293819  1
  Te  Te18  1  0.58782614  0.43657236  0.02301583  1
loop_
_geom_bond_atom_site_label_1
_geom_bond_atom_site_label_2
_geom_bond_distance
_geom_bond_site_symmetry_2
Ga0 Te4 2.602618 1_555
Ga0 Te17 2.641865 1_456
Ga0 Te3 2.697955 1_455
Ga0 Te16 2.702450 1_556
Ga1 Te18 2.498452 1_555
Ga1 Te1 2.608098 1_554
Ga1 Te16 2.608192 1_555
Ga1 Te12 3.187898 1_555
Ga2 Te2 2.586646 1_565
Ga2 Te17 2.601379 1_556
Ga2 Te5 2.653292 1_555
Ga2 Te1 2.708559 1_555
Ga3 Te9 2.571446 1_555
Ga3 Te7 2.642710 1_655
Ga3 Te3 2.687202 1_555
Ga3 Te8 2.772842 1_555
Ga4 Te2 2.586579 1_555
Ga4 Te10 2.642518 1_545
Ga4 Te8 2.647257 1_555
Ga4 Te7 2.707286 1_655
Ga5 Te4 2.610873 1_655
Ga5 Te9 2.618559 1_555
Ga5 Te10 2.679697 1_555
Ga5 Te5 2.694450 1_555
Ga6 Te6 2.578553 1_565
Ga6 Te12 2.646429 1_555
Ga6 Te5 2.672526 1_555
Ga6 Te10 2.674363 1_555
Ga7 Te6 2.589160 1_555
Ga7 Te15 2.656393 1_555
Ga7 Te11 2.671924 1_555
Ga7 Te8 2.678002 1_555
Ga8 Te14 2.608593 1_455
Ga8 Te13 2.631835 1_545
Ga8 Te11 2.649801 1_555
Ga8 Te7 2.672734 1_555
Ga9 Te13 2.614164 1_555
Ga9 Te15 2.634974 1_565
Ga9 Te12 2.654040 1_555
Ga9 Te1 2.712752 1_554
Ga10 Te0 2.579170 1_554
Ga10 Te18 2.600471 1_555
Ga10 Te11 2.709969 1_555
Ga10 Te15 2.713817 1_555
Ga11 Te0 2.558719 1_555
Ga11 Te14 2.629857 1_456
Ga11 Te3 2.709330 1_455
Ga11 Te16 2.732070 1_556
Ag0 Te12 2.849432 1_555
Ag0 Te9 2.880766 1_455
Ag0 Te13 3.014316 1_555
Ag0 Te4 3.044351 1_555
Ag1 Te17 2.914562 1_555
Ag1 Te14 2.919282 1_565
Ag1 Te2 2.926388 1_564
Ag1 Te13 2.983665 1_655
