# generated using pymatgen
data_MgMn6(O5F)2
_symmetry_space_group_name_H-M   'P 1'
_cell_length_a   8.35097642
_cell_length_b   5.71082852
_cell_length_c   5.89933967
_cell_angle_alpha   66.99204691
_cell_angle_beta   63.09039180
_cell_angle_gamma   64.19916399
_symmetry_Int_Tables_number   1
_chemical_formula_structural   MgMn6(O5F)2
_chemical_formula_sum   'Mg1 Mn6 O10 F2'
_cell_volume   219.18695386
_cell_formula_units_Z   1
loop_
 _symmetry_equiv_pos_site_id
 _symmetry_equiv_pos_as_xyz
  1  'x, y, z'
loop_
 _atom_site_type_symbol
 _atom_site_label
 _atom_site_symmetry_multiplicity
 _atom_site_fract_x
 _atom_site_fract_y
 _atom_site_fract_z
 _atom_site_occupancy
  Mg  Mg0  1  0.50359016  0.99632335  0.49600050  1
  Mn  Mn0  1  0.88149085  0.67785568  0.67561338  1
  Mn  Mn1  1  0.68136156  0.36569849  0.33059571  1
  Mn  Mn2  1  0.32515965  0.62761437  0.66153984  1
  Mn  Mn3  1  0.12538269  0.31648351  0.31730129  1
  Mn  Mn4  1  0.50298839  0.99663047  0.99606901  1
  Mn  Mn5  1  0.00365419  0.99717492  0.99640441  1
  O  O0  1  0.67408847  0.02687073  0.63204818  1
  O  O1  1  0.32678076  0.35225670  0.97029696  1
  O  O2  1  0.59623142  0.58208322  0.54849435  1
  O  O3  1  0.94582139  0.23221708  0.21286790  1
  O  O4  1  0.06070194  0.76248211  0.77997074  1
  O  O5  1  0.41019932  0.41112821  0.44374568  1
  O  O6  1  0.33250579  0.96668668  0.36030030  1
  O  O7  1  0.67951494  0.64116420  0.02190795  1
  O  O8  1  0.00326194  0.30053039  0.68807529  1
  O  O9  1  0.00471368  0.69395155  0.30482794  1
  F  F0  1  0.32043278  0.88681454  0.85098320  1
  F  F1  1  0.68693508  0.10650981  0.14152837  1
loop_
_geom_bond_atom_site_label_1
_geom_bond_atom_site_label_2
_geom_bond_distance
_geom_bond_site_symmetry_2
Mg0 O0 2.015421 1_565
Mg0 O6 2.015553 1_555
Mg0 O2 2.083694 1_555
Mg0 O5 2.086483 1_565
Mn0 O8 1.928522 1_655
Mn0 O9 1.933844 1_655
Mn0 O7 1.978978 1_556
Mn0 O0 2.008986 1_565
Mn0 O4 2.132728 1_655
Mn1 O2 1.826109 1_555
Mn1 O3 1.871069 1_555
Mn1 O7 1.885762 1_555
Mn1 O5 1.973944 1_555
Mn1 O0 2.055484 1_555
Mn2 O5 1.826243 1_555
Mn2 O4 1.871373 1_555
Mn2 O1 1.885592 1_555
Mn2 O2 1.973180 1_555
Mn2 O6 2.055767 1_555
Mn3 O9 1.928710 1_555
Mn3 O8 1.933565 1_555
Mn3 O1 1.979079 1_554
Mn3 O6 2.009958 1_545
Mn3 O3 2.134438 1_455
Mn4 O1 1.916442 1_565
Mn4 O7 1.916728 1_556
Mn4 O6 1.956740 1_556
Mn4 O0 1.957183 1_565
Mn5 O8 1.961362 1_565
Mn5 O9 1.961510 1_556
Mn5 O3 1.970548 1_466
Mn5 O4 1.971023 1_555
F0 Mg0 2.006404 1_555
F0 Mn2 2.155020 1_555
F0 Mn5 2.246877 1_555
F0 Mn4 2.425494 1_555
F1 Mg0 2.006256 1_545
F1 Mn1 2.149600 1_555
F1 Mn5 2.247005 1_644
F1 Mn4 2.437831 1_544
