# generated using pymatgen
data_Nb8Cu2O21
_symmetry_space_group_name_H-M   'P 1'
_cell_length_a   10.72308499
_cell_length_b   6.52022500
_cell_length_c   10.34088801
_cell_angle_alpha   90.00000000
_cell_angle_beta   100.24649109
_cell_angle_gamma   90.00000000
_symmetry_Int_Tables_number   1
_chemical_formula_structural   Nb8Cu2O21
_chemical_formula_sum   'Nb16 Cu4 O42'
_cell_volume   711.47236303
_cell_formula_units_Z   2
loop_
 _symmetry_equiv_pos_site_id
 _symmetry_equiv_pos_as_xyz
  1  'x, y, z'
loop_
 _atom_site_type_symbol
 _atom_site_label
 _atom_site_symmetry_multiplicity
 _atom_site_fract_x
 _atom_site_fract_y
 _atom_site_fract_z
 _atom_site_occupancy
  Nb  Nb0  1  0.24500700  0.00000000  0.43541100  1
  Nb  Nb1  1  0.75499300  0.00000000  0.56458900  1
  Nb  Nb2  1  0.74500700  0.50000000  0.43541100  1
  Nb  Nb3  1  0.25499300  0.50000000  0.56458900  1
  Nb  Nb4  1  0.69914000  0.00000000  0.22783500  1
  Nb  Nb5  1  0.30086000  0.00000000  0.77216500  1
  Nb  Nb6  1  0.19914000  0.50000000  0.22783500  1
  Nb  Nb7  1  0.80086000  0.50000000  0.77216500  1
  Nb  Nb8  1  0.00153000  0.00000000  0.18582400  1
  Nb  Nb9  1  0.99847000  0.00000000  0.81417600  1
  Nb  Nb10  1  0.50153000  0.50000000  0.18582400  1
  Nb  Nb11  1  0.49847000  0.50000000  0.81417600  1
  Nb  Nb12  1  0.37952300  0.00000000  0.16599300  1
  Nb  Nb13  1  0.62047700  0.00000000  0.83400700  1
  Nb  Nb14  1  0.87952300  0.50000000  0.16599300  1
  Nb  Nb15  1  0.12047700  0.50000000  0.83400700  1
  Cu  Cu0  1  0.50000000  0.25046700  0.50000000  1
  Cu  Cu1  1  0.00000000  0.75046700  0.50000000  1
  Cu  Cu2  1  0.50000000  0.74953300  0.50000000  1
  Cu  Cu3  1  0.00000000  0.24953300  0.50000000  1
  O  O0  1  0.05049200  0.00000000  0.39058900  1
  O  O1  1  0.94950800  0.00000000  0.60941100  1
  O  O2  1  0.55049200  0.50000000  0.39058900  1
  O  O3  1  0.44950800  0.50000000  0.60941100  1
  O  O4  1  0.41316000  0.00000000  0.39144900  1
  O  O5  1  0.58684000  0.00000000  0.60855100  1
  O  O6  1  0.91316000  0.50000000  0.39144900  1
  O  O7  1  0.08684000  0.50000000  0.60855100  1
  O  O8  1  0.00000000  0.00000000  0.00000000  1
  O  O9  1  0.50000000  0.50000000  0.00000000  1
  O  O10  1  0.84231000  0.81623500  0.18693100  1
  O  O11  1  0.15769000  0.81623500  0.81306900  1
  O  O12  1  0.34231000  0.31623500  0.18693100  1
  O  O13  1  0.65769000  0.31623500  0.81306900  1
  O  O14  1  0.15769000  0.18376500  0.81306900  1
  O  O15  1  0.84231000  0.18376500  0.18693100  1
  O  O16  1  0.65769000  0.68376500  0.81306900  1
  O  O17  1  0.34231000  0.68376500  0.18693100  1
  O  O18  1  0.27020100  0.18029600  0.60721000  1
  O  O19  1  0.72979900  0.18029600  0.39279000  1
  O  O20  1  0.77020100  0.68029600  0.60721000  1
  O  O21  1  0.22979900  0.68029600  0.39279000  1
  O  O22  1  0.72979900  0.81970400  0.39279000  1
  O  O23  1  0.27020100  0.81970400  0.60721000  1
  O  O24  1  0.22979900  0.31970400  0.39279000  1
  O  O25  1  0.77020100  0.31970400  0.60721000  1
  O  O26  1  0.66364900  0.00000000  0.01064000  1
  O  O27  1  0.33635100  0.00000000  0.98936000  1
  O  O28  1  0.16364900  0.50000000  0.01064000  1
  O  O29  1  0.83635100  0.50000000  0.98936000  1
  O  O30  1  0.20315200  0.00000000  0.22543400  1
  O  O31  1  0.79684800  0.00000000  0.77456600  1
  O  O32  1  0.70315200  0.50000000  0.22543400  1
  O  O33  1  0.29684800  0.50000000  0.77456600  1
  O  O34  1  0.04580700  0.31435000  0.18800600  1
  O  O35  1  0.95419300  0.31435000  0.81199400  1
  O  O36  1  0.54580700  0.81435000  0.18800600  1
  O  O37  1  0.45419300  0.81435000  0.81199400  1
  O  O38  1  0.95419300  0.68565000  0.81199400  1
  O  O39  1  0.04580700  0.68565000  0.18800600  1
  O  O40  1  0.45419300  0.18565000  0.81199400  1
  O  O41  1  0.54580700  0.18565000  0.18800600  1
loop_
_geom_bond_atom_site_label_1
_geom_bond_atom_site_label_2
_geom_bond_distance
_geom_bond_site_symmetry_2
Nb0 O4 1.936370 1_555
Nb0 O0 2.054618 1_555
Nb0 O23 2.107213 1_545
Nb0 O18 2.107213 1_555
Nb0 O21 2.130866 1_545
Nb0 O24 2.130866 1_555
Nb0 O30 2.137635 1_555
Nb1 O5 1.936370 1_555
Nb1 O1 2.054618 1_555
Nb1 O19 2.107213 1_555
Nb1 O22 2.107213 1_545
Nb1 O20 2.130866 1_545
Nb1 O25 2.130866 1_555
Nb1 O31 2.137635 1_555
Nb2 O6 1.936370 1_555
Nb2 O2 2.054618 1_555
Nb2 O25 2.107213 1_555
Nb2 O20 2.107213 1_555
Nb2 O22 2.130866 1_555
Nb2 O19 2.130866 1_555
Nb2 O32 2.137635 1_555
Nb3 O7 1.936370 1_555
Nb3 O3 2.054618 1_555
Nb3 O21 2.107213 1_555
Nb3 O24 2.107213 1_555
Nb3 O23 2.130866 1_555
Nb3 O18 2.130866 1_555
Nb3 O33 2.137635 1_555
Nb4 O41 2.024198 1_555
Nb4 O36 2.024198 1_545
Nb4 O19 2.049446 1_555
Nb4 O22 2.049446 1_545
Nb4 O10 2.050003 1_545
Nb4 O15 2.050003 1_555
Nb4 O26 2.210250 1_555
Nb5 O40 2.024198 1_555
Nb5 O37 2.024198 1_545
Nb5 O23 2.049446 1_545
Nb5 O18 2.049446 1_555
Nb5 O11 2.050003 1_545
Nb5 O14 2.050003 1_555
Nb5 O27 2.210250 1_555
Nb6 O34 2.024198 1_555
Nb6 O39 2.024198 1_555
Nb6 O24 2.049446 1_555
Nb6 O21 2.049446 1_555
Nb6 O17 2.050003 1_555
Nb6 O12 2.050003 1_555
Nb6 O28 2.210250 1_555
Nb7 O38 2.024198 1_555
Nb7 O35 2.024198 1_555
Nb7 O25 2.049446 1_555
Nb7 O20 2.049446 1_555
Nb7 O16 2.050003 1_555
Nb7 O13 2.050003 1_555
Nb7 O29 2.210250 1_555
Nb8 O8 1.918735 1_555
Nb8 O15 2.087514 1_455
Nb8 O10 2.087514 1_445
Nb8 O0 2.088957 1_555
Nb8 O39 2.103120 1_545
Nb8 O34 2.103120 1_555
Nb8 O30 2.127676 1_555
Nb9 O8 1.918735 1_656
Nb9 O11 2.087514 1_645
Nb9 O14 2.087514 1_655
Nb9 O1 2.088957 1_555
Nb9 O38 2.103120 1_545
Nb9 O35 2.103120 1_555
Nb9 O31 2.127676 1_555
Nb10 O9 1.918735 1_555
Nb10 O17 2.087514 1_555
Nb10 O12 2.087514 1_555
Nb10 O2 2.088957 1_555
Nb10 O36 2.103120 1_555
Nb10 O41 2.103120 1_555
Nb10 O32 2.127676 1_555
Nb11 O9 1.918735 1_556
Nb11 O16 2.087514 1_555
Nb11 O13 2.087514 1_555
Nb11 O3 2.088957 1_555
Nb11 O37 2.103120 1_555
Nb11 O40 2.103120 1_555
Nb11 O33 2.127676 1_555
Nb12 O27 1.802703 1_554
Nb12 O30 2.090022 1_555
Nb12 O12 2.118579 1_555
Nb12 O17 2.118579 1_545
Nb12 O41 2.133552 1_555
Nb12 O36 2.133552 1_545
Nb12 O4 2.294869 1_555
Nb13 O26 1.802703 1_556
Nb13 O31 2.090022 1_555
Nb13 O16 2.118579 1_545
Nb13 O13 2.118579 1_555
Nb13 O40 2.133552 1_555
Nb13 O37 2.133552 1_545
Nb13 O5 2.294869 1_555
Nb14 O29 1.802703 1_554
Nb14 O32 2.090022 1_555
Nb14 O10 2.118579 1_555
Nb14 O15 2.118579 1_555
Nb14 O34 2.133552 1_655
Nb14 O39 2.133552 1_655
Nb14 O6 2.294869 1_555
Nb15 O28 1.802703 1_556
Nb15 O33 2.090022 1_555
Nb15 O14 2.118579 1_555
Nb15 O11 2.118579 1_555
Nb15 O38 2.133552 1_455
Nb15 O35 2.133552 1_455
Nb15 O7 2.294869 1_555
Cu0 O5 2.102927 1_555
Cu0 O4 2.102927 1_555
Cu0 O2 2.106734 1_555
Cu0 O3 2.106734 1_555
Cu1 O7 2.102927 1_555
Cu1 O6 2.102927 1_455
Cu1 O0 2.106734 1_565
Cu1 O1 2.106734 1_465
Cu2 O4 2.102927 1_565
Cu2 O5 2.102927 1_565
Cu2 O2 2.106734 1_555
Cu2 O3 2.106734 1_555
Cu3 O7 2.102927 1_555
Cu3 O6 2.102927 1_455
Cu3 O0 2.106734 1_555
Cu3 O1 2.106734 1_455
