# generated using pymatgen
data_Na14Ca6Ti2Si5S7O48
_symmetry_space_group_name_H-M   'P 1'
_cell_length_a   18.80823818
_cell_length_b   9.41463441
_cell_length_c   22.81075469
_cell_angle_alpha   89.85675550
_cell_angle_beta   90.38961622
_cell_angle_gamma   120.14258211
_symmetry_Int_Tables_number   1
_chemical_formula_structural   Na14Ca6Ti2Si5S7O48
_chemical_formula_sum   'Na42 Ca18 Ti6 Si15 S21 O144'
_cell_volume   3492.89724278
_cell_formula_units_Z   3
loop_
 _symmetry_equiv_pos_site_id
 _symmetry_equiv_pos_as_xyz
  1  'x, y, z'
loop_
 _atom_site_type_symbol
 _atom_site_label
 _atom_site_symmetry_multiplicity
 _atom_site_fract_x
 _atom_site_fract_y
 _atom_site_fract_z
 _atom_site_occupancy
  Na  Na0  1  0.81081783  0.00538284  0.24548267  1
  Na  Na1  1  0.68591893  0.34414724  0.23897525  1
  Na  Na2  1  0.49912709  0.65121350  0.24203493  1
  Na  Na3  1  0.30534072  0.61209244  0.74379630  1
  Na  Na4  1  0.00325492  0.36269929  0.73859951  1
  Na  Na5  1  0.17565565  0.00978231  0.73477463  1
  Na  Na6  1  0.14998761  0.31420706  0.57536940  1
  Na  Na7  1  0.67985483  0.37117841  0.59004679  1
  Na  Na8  1  0.01168306  0.69177240  0.57118751  1
  Na  Na9  1  0.51180466  0.66266108  0.60161184  1
  Na  Na10  1  0.32424828  0.99591273  0.59048265  1
  Na  Na11  1  0.83143477  0.97974327  0.60362096  1
  Na  Na12  1  0.17708410  0.98721149  0.08318480  1
  Na  Na13  1  0.65862032  0.99598199  0.06655218  1
  Na  Na14  1  0.32215933  0.67371046  0.09822157  1
  Na  Na15  1  0.82960637  0.65999282  0.08265451  1
  Na  Na16  1  0.01340961  0.36307497  0.09576994  1
  Na  Na17  1  0.50943734  0.32293090  0.06511893  1
  Na  Na18  1  0.49022091  0.67054781  0.91681981  1
  Na  Na19  1  0.97659131  0.66226155  0.91142280  1
  Na  Na20  1  0.35909965  0.05238048  0.92336471  1
  Na  Na21  1  0.84536953  0.04021335  0.90526176  1
  Na  Na22  1  0.16700061  0.29479884  0.91175416  1
  Na  Na23  1  0.65999873  0.28750726  0.92352462  1
  Na  Na24  1  0.47977771  0.29346363  0.42516848  1
  Na  Na25  1  0.99152527  0.31151907  0.42548220  1
  Na  Na26  1  0.15244363  0.02224908  0.43123152  1
  Na  Na27  1  0.66759071  0.04003444  0.42026492  1
  Na  Na28  1  0.34312700  0.65474989  0.41524942  1
  Na  Na29  1  0.86035100  0.67308020  0.42352888  1
  Na  Na30  1  0.00163423  0.97961173  0.50463717  1
  Na  Na31  1  0.51316548  0.02321199  0.50993039  1
  Na  Na32  1  0.01103129  0.99997742  0.00081512  1
  Na  Na33  1  0.50433663  0.02508624  0.99162259  1
  Na  Na34  1  0.33866023  0.33347081  0.82991533  1
  Na  Na35  1  0.82657540  0.33386699  0.82406300  1
  Na  Na36  1  0.30908939  0.31381776  0.33023967  1
  Na  Na37  1  0.84247361  0.34364654  0.33200601  1
  Na  Na38  1  0.17018273  0.67844294  0.15974284  1
  Na  Na39  1  0.66442030  0.65842952  0.16336989  1
  Na  Na40  1  0.15768589  0.66987163  0.66552350  1
  Na  Na41  1  0.67425541  0.66736891  0.66147935  1
  Ca  Ca0  1  0.00435717  0.00252744  0.34980396  1
  Ca  Ca1  1  0.50243629  0.00044719  0.34297511  1
  Ca  Ca2  1  0.00113049  0.99405860  0.83861489  1
  Ca  Ca3  1  0.50477798  0.00738466  0.84809694  1
  Ca  Ca4  1  0.33750357  0.33082229  0.68172932  1
  Ca  Ca5  1  0.82947175  0.33740988  0.68224991  1
  Ca  Ca6  1  0.32550494  0.32138935  0.18176993  1
  Ca  Ca7  1  0.83825032  0.34416086  0.18136004  1
  Ca  Ca8  1  0.33150310  0.31922204  0.99094287  1
  Ca  Ca9  1  0.83017729  0.34116655  0.98729230  1
  Ca  Ca10  1  0.32764037  0.31883353  0.49001902  1
  Ca  Ca11  1  0.83127138  0.34717583  0.49435154  1
  Ca  Ca12  1  0.16685141  0.66653019  0.01703195  1
  Ca  Ca13  1  0.66432542  0.66321860  0.01471730  1
  Ca  Ca14  1  0.16539214  0.66700023  0.51567589  1
  Ca  Ca15  1  0.66781788  0.67043095  0.51964217  1
  Ca  Ca16  1  0.66466332  0.67352603  0.31300967  1
  Ca  Ca17  1  0.16157083  0.65804289  0.81038814  1
  Ti  Ti0  1  0.00685305  0.97624611  0.65514087  1
  Ti  Ti1  1  0.51158599  0.02904628  0.64837554  1
  Ti  Ti2  1  0.01185200  0.99661532  0.14710574  1
  Ti  Ti3  1  0.50696981  0.01553745  0.14773534  1
  Ti  Ti4  1  0.15703220  0.64022257  0.32192569  1
  Ti  Ti5  1  0.65938392  0.67842102  0.82239229  1
  Si  Si0  1  0.64921833  0.99705367  0.25127942  1
  Si  Si1  1  0.14980662  0.29790432  0.75161088  1
  Si  Si2  1  0.99946275  0.68770534  0.75582256  1
  Si  Si3  1  0.48636153  0.32716892  0.57840698  1
  Si  Si4  1  0.17645848  0.01732080  0.58648450  1
  Si  Si5  1  0.67839208  0.02836923  0.57996320  1
  Si  Si6  1  0.84112292  0.65920209  0.58150439  1
  Si  Si7  1  0.98642947  0.64570278  0.07802874  1
  Si  Si8  1  0.33994497  0.02572258  0.08221915  1
  Si  Si9  1  0.17938817  0.33076964  0.07997563  1
  Si  Si10  1  0.67783816  0.33611586  0.08747342  1
  Si  Si11  1  0.51472941  0.37201581  0.91528944  1
  Si  Si12  1  0.66971803  0.97524540  0.92062438  1
  Si  Si13  1  0.16924111  0.36585924  0.42125565  1
  Si  Si14  1  0.01399757  0.65671688  0.41626918  1
  S  S0  1  0.14732860  0.98202041  0.25068541  1
  S  S1  1  0.34419194  0.69423385  0.25258722  1
  S  S2  1  0.85093999  0.71199330  0.24858122  1
  S  S3  1  0.00657785  0.30716247  0.25191207  1
  S  S4  1  0.50259841  0.30087297  0.24830350  1
  S  S5  1  0.64718640  0.31377998  0.75034154  1
  S  S6  1  0.50663035  0.70500971  0.75268796  1
  S  S7  1  0.35335608  0.99147024  0.74878283  1
  S  S8  1  0.83915361  0.98442895  0.75378846  1
  S  S9  1  0.98758775  0.32262683  0.58584684  1
  S  S10  1  0.34335475  0.65884217  0.58682724  1
  S  S11  1  0.48831525  0.65480192  0.08980113  1
  S  S12  1  0.84203020  0.02623939  0.08858499  1
  S  S13  1  0.31808398  0.66191568  0.91578096  1
  S  S14  1  0.81130243  0.66933413  0.91355569  1
  S  S15  1  0.01118376  0.35599274  0.91763878  1
  S  S16  1  0.16810373  0.97320811  0.91576260  1
  S  S17  1  0.31090650  0.95663236  0.41067356  1
  S  S18  1  0.81710618  0.97656579  0.41389451  1
  S  S19  1  0.66607274  0.36473344  0.41320015  1
  S  S20  1  0.51042496  0.66107298  0.41458344  1
  O  O0  1  0.10765173  0.98809223  0.30517908  1
  O  O1  1  0.61235764  0.00637387  0.31464786  1
  O  O2  1  0.38859988  0.77600859  0.30805423  1
  O  O3  1  0.88764425  0.79135906  0.30515296  1
  O  O4  1  0.49393187  0.21955427  0.30559363  1
  O  O5  1  0.99971369  0.21650781  0.30637075  1
  O  O6  1  0.11283095  0.21805163  0.81544038  1
  O  O7  1  0.60894144  0.22935916  0.80561397  1
  O  O8  1  0.49891903  0.77957404  0.80756142  1
  O  O9  1  0.99355685  0.76272620  0.81820330  1
  O  O10  1  0.39085683  -0.00713122  0.80596799  1
  O  O11  1  0.88530214  -0.00030831  0.80920019  1
  O  O12  1  0.40718262  0.99245519  0.69959537  1
  O  O13  1  0.88430908  0.97215340  0.70219331  1
  O  O14  1  0.08270256  0.16543086  0.70003296  1
  O  O15  1  0.59186779  0.20693756  0.69928378  1
  O  O16  1  -0.00213630  0.81674053  0.70239060  1
  O  O17  1  0.51458509  0.80932143  0.70051378  1
  O  O18  1  0.39108661  0.79451878  0.20066202  1
  O  O19  1  0.90314553  0.81652652  0.19865649  1
  O  O20  1  0.01386778  0.21997347  0.19931223  1
  O  O21  1  0.49851205  0.19040683  0.19949450  1
  O  O22  1  0.09464935  0.98142055  0.19859391  1
  O  O23  1  0.58125802  0.99692361  0.19968281  1
  O  O24  1  0.44076774  0.38515961  0.62408381  1
  O  O25  1  0.94540131  0.33711127  0.63796367  1
  O  O26  1  0.23885505  0.11318523  0.64033063  1
  O  O27  1  0.75280820  0.12197514  0.62574758  1
  O  O28  1  0.33070438  0.55576966  0.63918459  1
  O  O29  1  0.81810703  0.50647163  0.62564809  1
  O  O30  1  0.44893197  0.56008294  0.14341515  1
  O  O31  1  0.94079251  0.49907153  0.12503284  1
  O  O32  1  0.32104242  0.13267146  0.12826839  1
  O  O33  1  0.82993774  0.10109964  0.14188554  1
  O  O34  1  0.25183506  0.38585946  0.12803929  1
  O  O35  1  0.73586144  0.36207158  0.14352381  1
  O  O36  1  0.19983038  0.26426270  0.01973791  1
  O  O37  1  0.71022055  0.28956304  0.02787200  1
  O  O38  1  0.43956996  0.57077725  0.03658315  1
  O  O39  1  0.93211530  0.60492975  0.01736896  1
  O  O40  1  0.36940395  0.12950916  0.02012623  1
  O  O41  1  0.85129047  0.12640615  0.03579221  1
  O  O42  1  0.20866428  0.12309353  0.52519688  1
  O  O43  1  0.69604808  0.13085380  0.51818324  1
  O  O44  1  0.35342043  0.58121040  0.53303499  1
  O  O45  1  0.86745611  0.60985456  0.51878346  1
  O  O46  1  0.43208260  0.26218966  0.51758539  1
  O  O47  1  0.94151181  0.31475932  0.53097202  1
  O  O48  1  0.27667509  0.67565278  0.96852421  1
  O  O49  1  0.77561933  0.67232047  0.97094276  1
  O  O50  1  0.05925573  0.43896170  0.97098586  1
  O  O51  1  0.56179522  0.45092290  0.97634146  1
  O  O52  1  0.16974018  0.88886060  0.97020788  1
  O  O53  1  0.66750348  0.88379207  0.98105831  1
  O  O54  1  0.27701274  0.87567982  0.46741829  1
  O  O55  1  0.77269176  0.87239139  0.46441021  1
  O  O56  1  0.16795189  0.45230903  0.48173931  1
  O  O57  1  0.66661508  0.45872192  0.46487518  1
  O  O58  1  0.06394650  0.67800835  0.47625048  1
  O  O59  1  0.56298049  0.67611317  0.46512720  1
  O  O60  1  0.07936874  0.65396626  0.36094134  1
  O  O61  1  0.55001214  0.65522569  0.35873706  1
  O  O62  1  0.25767850  0.85048463  0.36084570  1
  O  O63  1  0.77277071  0.89589944  0.35788156  1
  O  O64  1  0.16910935  0.49606006  0.36494793  1
  O  O65  1  0.66559217  0.44985156  0.35801208  1
  O  O66  1  0.05480724  0.44836380  0.86429851  1
  O  O67  1  0.58106368  0.50587061  0.86151377  1
  O  O68  1  0.16861850  0.88087093  0.86350756  1
  O  O69  1  0.66904792  0.84415987  0.86560645  1
  O  O70  1  0.27152219  0.65394126  0.86160106  1
  O  O71  1  0.75721752  0.66874298  0.86434179  1
  O  O72  1  0.00420871  0.81827836  0.40918844  1
  O  O73  1  0.49660581  0.80595939  0.41547384  1
  O  O74  1  0.39595934  0.98129918  0.40618067  1
  O  O75  1  0.90211252  0.00013571  0.41351241  1
  O  O76  1  0.08593919  0.18799895  0.41565418  1
  O  O77  1  0.58847739  0.19731320  0.41616030  1
  O  O78  1  -0.00306235  0.18348056  0.91701498  1
  O  O79  1  0.50539972  0.19051325  0.90967325  1
  O  O80  1  0.09235471  0.98959199  0.91761863  1
  O  O81  1  0.58602023  0.98583586  0.91576732  1
  O  O82  1  0.40339743  0.80947792  0.91454210  1
  O  O83  1  0.89455898  0.81870960  0.91043979  1
  O  O84  1  0.48641626  0.14962554  0.60076345  1
  O  O85  1  0.99249618  0.16822913  0.58848647  1
  O  O86  1  0.08349804  0.00007022  0.59674801  1
  O  O87  1  0.58817996  0.02492065  0.60355540  1
  O  O88  1  0.42288197  0.82247759  0.59389037  1
  O  O89  1  0.92186832  0.84190024  0.60044396  1
  O  O90  1  0.49260387  0.82107618  0.09214607  1
  O  O91  1  0.98860322  0.82553429  0.10090038  1
  O  O92  1  0.42056609  0.00264608  0.10346923  1
  O  O93  1  0.92110779  0.01964099  0.09456143  1
  O  O94  1  0.08817131  0.15510761  0.10276464  1
  O  O95  1  0.58255766  0.16350391  0.09679709  1
  O  O96  1  0.34059125  0.13418337  0.74546986  1
  O  O97  1  0.83134617  0.13315480  0.74917942  1
  O  O98  1  0.24252400  0.32099264  0.74661757  1
  O  O99  1  0.72816794  0.32709100  0.74494886  1
  O  O100  1  0.43192181  0.54068981  0.74669866  1
  O  O101  1  0.92671716  0.49757991  0.74875684  1
  O  O102  1  0.34186387  0.53224322  0.25097789  1
  O  O103  1  0.83949311  0.54423573  0.24745178  1
  O  O104  1  0.43818344  0.34686427  0.24250669  1
  O  O105  1  0.93128830  0.32081019  0.24684249  1
  O  O106  1  0.22953539  0.13193257  0.24727349  1
  O  O107  1  0.74186713  0.15704802  0.24564591  1
  O  O108  1  0.32449527  0.50967828  0.91862130  1
  O  O109  1  0.81654861  0.51618727  0.90829928  1
  O  O110  1  0.42804909  0.37152588  0.90852408  1
  O  O111  1  0.92901238  0.34695287  0.91897688  1
  O  O112  1  0.24376402  0.14155112  0.91311076  1
  O  O113  1  0.75426135  0.15061286  0.91085323  1
  O  O114  1  0.31527479  0.11955959  0.40717528  1
  O  O115  1  0.82208349  0.13967678  0.41781276  1
  O  O116  1  0.25462504  0.36337058  0.41158057  1
  O  O117  1  0.74048544  0.34581201  0.41260641  1
  O  O118  1  0.42867318  0.50637982  0.41809008  1
  O  O119  1  0.92791181  0.48289633  0.41008480  1
  O  O120  1  0.15269872  0.46973958  0.07839331  1
  O  O121  1  0.66089630  0.48948240  0.08526705  1
  O  O122  1  0.08271412  0.70124528  0.07653944  1
  O  O123  1  0.57393603  0.68571310  0.08673174  1
  O  O124  1  0.26173308  0.83964421  0.08021637  1
  O  O125  1  0.77208049  0.85454434  0.08330990  1
  O  O126  1  0.16309256  0.83208542  0.58548816  1
  O  O127  1  0.64814399  0.83370736  0.57861521  1
  O  O128  1  0.27406002  0.69143187  0.58169314  1
  O  O129  1  0.76324951  0.69083781  0.58068170  1
  O  O130  1  0.07294687  0.46736840  0.58482707  1
  O  O131  1  0.58351666  0.46031000  0.57664723  1
  O  O132  1  0.15326722  0.83032553  0.24709985  1
  O  O133  1  0.64929767  0.82306932  0.24135757  1
  O  O134  1  0.25972716  0.67261265  0.25271518  1
  O  O135  1  0.76781673  0.69972164  0.24176609  1
  O  O136  1  0.08268160  0.47729594  0.25503985  1
  O  O137  1  0.58571896  0.45484864  0.24437506  1
  O  O138  1  0.15385486  0.47538137  0.74130538  1
  O  O139  1  0.65211730  0.47621510  0.74652008  1
  O  O140  1  0.09059403  0.70920429  0.74425467  1
  O  O141  1  0.58296164  0.68881848  0.75622906  1
  O  O142  1  0.27263808  0.83496379  0.74218136  1
  O  O143  1  0.75513880  0.83044323  0.75673836  1
loop_
_geom_bond_atom_site_label_1
_geom_bond_atom_site_label_2
_geom_bond_distance
_geom_bond_site_symmetry_2
Na0 O107 2.362292 1_555
Na0 O33 2.490221 1_555
Na0 O135 2.570069 1_545
Na0 O133 2.635143 1_545
Na0 O105 2.682447 1_555
Na0 O63 2.723799 1_545
Na1 O35 2.349111 1_555
Na1 O107 2.468052 1_555
Na1 O103 2.541410 1_555
Na1 O137 2.574770 1_555
Na2 O30 2.419782 1_555
Na2 O133 2.450809 1_555
Na2 O104 2.495123 1_555
Na2 O102 2.593226 1_555
Na2 O61 2.816650 1_555
Na3 O98 2.378899 1_555
Na3 O142 2.465319 1_555
Na3 O138 2.468377 1_555
Na3 O28 2.545368 1_555
Na3 O100 2.780158 1_555
Na3 O70 2.839218 1_555
Na4 O101 2.362280 1_455
Na4 O138 2.476389 1_555
Na4 O25 2.493445 1_455
Na4 O140 2.823910 1_555
Na4 O97 2.858886 1_455
Na5 O26 2.421570 1_555
Na5 O140 2.463549 1_545
Na5 O98 2.556910 1_555
Na5 O96 2.719708 1_555
Na6 O56 2.433288 1_555
Na6 O130 2.515868 1_555
Na6 O85 2.583423 1_455
Na6 O86 2.614397 1_555
Na6 O42 2.790487 1_555
Na7 O131 2.366214 1_555
Na7 O29 2.386100 1_555
Na7 O129 2.612168 1_555
Na7 O87 2.837605 1_555
Na7 O43 2.935398 1_555
Na7 O15 2.967396 1_555
Na7 O57 3.013053 1_555
Na8 O58 2.414765 1_555
Na8 O126 2.484463 1_555
Na8 O86 2.578634 1_565
Na8 O45 2.691029 1_455
Na8 O89 2.777514 1_455
Na8 O130 2.885243 1_555
Na9 O127 2.304539 1_555
Na9 O24 2.317411 1_555
Na9 O17 2.634451 1_555
Na9 O88 2.759351 1_555
Na9 O131 2.892954 1_555
Na10 O128 2.535988 1_555
Na10 O126 2.623017 1_555
Na10 O26 2.627445 1_565
Na10 O84 2.647891 1_565
Na10 O46 2.842846 1_565
Na10 O12 2.937144 1_555
Na10 O54 2.987124 1_555
Na11 O129 2.410670 1_555
Na11 O13 2.467799 1_555
Na11 O27 2.497411 1_565
Na11 O89 2.607951 1_555
Na11 O85 2.656528 1_565
Na12 O122 2.370838 1_555
Na12 O32 2.551346 1_565
Na12 O124 2.587054 1_555
Na12 O52 2.719645 1_554
Na12 O36 2.819554 1_565
Na12 O94 2.857101 1_565
Na13 O53 2.266869 1_554
Na13 O123 2.571392 1_555
Na13 O37 2.581724 1_565
Na13 O95 2.700908 1_565
Na13 O90 2.767377 1_555
Na14 O124 2.382097 1_555
Na14 O34 2.441183 1_555
Na14 O18 2.631708 1_555
Na14 O92 2.696781 1_565
Na14 O90 2.785542 1_555
Na14 O120 2.808668 1_555
Na15 O125 2.552720 1_555
Na15 O91 2.617359 1_555
Na15 O39 2.692660 1_555
Na15 O121 2.745117 1_555
Na15 O49 2.760375 1_554
Na15 O35 2.819716 1_555
Na16 O120 2.323532 1_555
Na16 O31 2.392323 1_455
Na16 O20 2.718288 1_555
Na16 O122 2.803695 1_555
Na17 O51 2.312120 1_554
Na17 O121 2.506920 1_555
Na17 O40 2.542042 1_555
Na17 O95 2.592393 1_555
Na17 O92 2.756160 1_555
Na18 O110 2.453973 1_555
Na18 O82 2.554174 1_555
Na18 O81 2.585900 1_555
Na18 O8 2.667555 1_555
Na18 O108 2.696576 1_555
Na18 O38 2.894297 1_556
Na19 O9 2.283440 1_555
Na19 O39 2.529645 1_556
Na19 O109 2.607163 1_555
Na19 O83 2.613828 1_555
Na19 O111 2.640876 1_555
Na19 O80 2.741676 1_655
Na20 O40 2.301618 1_556
Na20 O79 2.403358 1_555
Na20 O110 2.629033 1_555
Na20 O112 2.699305 1_555
Na20 O82 2.807560 1_545
Na20 O10 2.864824 1_555
Na21 O113 2.413563 1_555
Na21 O11 2.413603 1_555
Na21 O78 2.479432 1_655
Na21 O111 2.519436 1_555
Na21 O83 2.674621 1_545
Na22 O6 2.371715 1_555
Na22 O80 2.488894 1_545
Na22 O112 2.501650 1_555
Na22 O36 2.585591 1_556
Na22 O108 2.620807 1_555
Na22 O78 2.825184 1_555
Na23 O81 2.462522 1_545
Na23 O37 2.551364 1_556
Na23 O79 2.590540 1_555
Na23 O109 2.658780 1_555
Na23 O113 2.681684 1_555
Na23 O7 2.810737 1_555
Na24 O46 2.256733 1_555
Na24 O74 2.579552 1_545
Na24 O118 2.626666 1_555
Na24 O77 2.628063 1_555
Na24 O114 2.705651 1_555
Na24 O4 2.863602 1_555
Na25 O119 2.467448 1_555
Na25 O75 2.557974 1_555
Na25 O76 2.576150 1_655
Na25 O47 2.595389 1_555
Na25 O115 2.760449 1_555
Na25 O5 2.891755 1_555
Na26 O42 2.363232 1_555
Na26 O76 2.465238 1_555
Na26 O72 2.514434 1_545
Na26 O114 2.778896 1_555
Na26 O116 2.830943 1_555
Na26 O0 2.963172 1_545
Na26 O58 2.986209 1_545
Na27 O43 2.353754 1_555
Na27 O117 2.496895 1_555
Na27 O115 2.567257 1_555
Na27 O1 2.573525 1_555
Na27 O77 2.574021 1_555
Na27 O73 2.844189 1_545
Na28 O116 2.390898 1_555
Na28 O73 2.496434 1_555
Na28 O118 2.607582 1_555
Na28 O2 2.654744 1_555
Na28 O74 2.722740 1_555
Na28 O44 2.802471 1_555
Na29 O45 2.272187 1_555
Na29 O72 2.364683 1_655
Na29 O119 2.684717 1_555
Na29 O117 2.767300 1_555
Na29 O75 2.778497 1_565
Na29 O3 2.867849 1_555
Na30 O86 2.546114 1_565
Na30 O89 2.604752 1_455
Na30 O72 2.672390 1_555
Na30 O85 2.677524 1_465
Na30 O76 2.717135 1_565
Na30 O75 2.858334 1_465
Na31 O87 2.547214 1_555
Na31 O84 2.567188 1_555
Na31 O88 2.631754 1_545
Na31 O77 2.638213 1_555
Na31 O73 2.880280 1_545
Na32 O80 2.478151 1_554
Na32 O78 2.673096 1_564
Na32 O91 2.717704 1_455
Na32 O94 2.736642 1_565
Na32 O93 2.798795 1_465
Na32 O83 2.857057 1_454
Na33 O79 2.423852 1_555
Na33 O81 2.469888 1_545
Na33 O82 2.630265 1_545
Na33 O95 2.767767 1_556
Na33 O90 2.924863 1_546
Na33 O92 2.958701 1_556
Na34 O110 2.351068 1_555
Na34 O98 2.575772 1_555
Na34 O112 2.615703 1_555
Na34 O100 2.660092 1_555
Na34 O96 2.705452 1_555
Na34 O108 2.717602 1_555
Na35 O101 2.447280 1_555
Na35 O113 2.531548 1_555
Na35 O99 2.554043 1_555
Na35 O97 2.585546 1_555
Na35 O109 2.649626 1_555
Na35 O111 2.849717 1_555
Na36 O116 2.284690 1_555
Na36 O106 2.481368 1_555
Na36 O102 2.569275 1_555
Na36 O114 2.575468 1_555
Na36 O118 2.867557 1_555
Na36 O104 3.049830 1_555
Na37 O119 2.308687 1_555
Na37 O115 2.630118 1_555
Na37 O105 2.649036 1_555
Na37 O117 2.673516 1_555
Na37 O107 2.678711 1_555
Na37 O103 2.715911 1_555
Na38 O124 2.441973 1_555
Na38 O132 2.568349 1_555
Na38 O122 2.581642 1_555
Na38 O120 2.602550 1_555
Na38 O134 2.716762 1_555
Na38 O136 2.813915 1_555
Na39 O121 2.369610 1_555
Na39 O133 2.472166 1_555
Na39 O135 2.515523 1_555
Na39 O123 2.532727 1_555
Na39 O137 2.539512 1_555
Na39 O125 2.668893 1_555
Na40 O140 2.336283 1_555
Na40 O126 2.346978 1_555
Na40 O138 2.489883 1_555
Na40 O130 2.547400 1_555
Na40 O142 2.595226 1_555
Na40 O128 2.845599 1_555
Na41 O129 2.432251 1_555
Na41 O139 2.532992 1_555
Na41 O127 2.647905 1_555
Na41 O143 2.649354 1_555
Na41 O131 2.662703 1_555
Na41 O141 2.839241 1_555
Ca0 O72 2.197127 1_545
Ca0 O76 2.225007 1_555
Ca0 O0 2.263145 1_545
Ca0 O5 2.283231 1_455
Ca0 O3 2.324939 1_445
Ca0 O75 2.409326 1_455
Ca1 O1 2.144069 1_555
Ca1 O2 2.263875 1_545
Ca1 O4 2.308377 1_555
Ca1 O74 2.407730 1_545
Ca1 O77 2.409852 1_555
Ca1 O73 2.425956 1_545
Ca2 O9 2.161704 1_455
Ca2 O6 2.168026 1_565
Ca2 O11 2.301080 1_465
Ca2 O83 2.476931 1_455
Ca2 O80 2.494663 1_555
Ca2 O78 2.558099 1_565
Ca3 O79 2.221973 1_555
Ca3 O81 2.244202 1_545
Ca3 O7 2.246873 1_555
Ca3 O10 2.282922 1_555
Ca3 O8 2.288722 1_545
Ca3 O82 2.421113 1_545
Ca4 O26 2.168037 1_555
Ca4 O24 2.190088 1_555
Ca4 O98 2.293441 1_555
Ca4 O96 2.374451 1_555
Ca4 O28 2.388153 1_555
Ca4 O100 2.389311 1_555
Ca5 O29 2.138627 1_555
Ca5 O27 2.214651 1_555
Ca5 O101 2.263729 1_555
Ca5 O99 2.352818 1_555
Ca5 O25 2.410586 1_555
Ca5 O97 2.466302 1_555
Ca6 O32 2.124342 1_555
Ca6 O34 2.146693 1_555
Ca6 O106 2.337110 1_555
Ca6 O104 2.433027 1_555
Ca6 O102 2.433770 1_555
Ca6 O30 2.446031 1_555
Ca7 O31 2.167250 1_555
Ca7 O35 2.187385 1_555
Ca7 O107 2.314278 1_555
Ca7 O105 2.385523 1_555
Ca7 O33 2.391816 1_555
Ca7 O103 2.406446 1_555
Ca8 O40 2.325438 1_556
Ca8 O36 2.359208 1_556
Ca8 O112 2.424052 1_555
Ca8 O38 2.443992 1_556
Ca8 O108 2.484681 1_555
Ca8 O110 2.493619 1_555
Ca9 O37 2.260201 1_556
Ca9 O39 2.349929 1_556
Ca9 O113 2.388852 1_555
Ca9 O111 2.413334 1_555
Ca9 O41 2.501773 1_556
Ca9 O109 2.535878 1_555
Ca10 O42 2.218751 1_555
Ca10 O46 2.360542 1_555
Ca10 O116 2.409201 1_555
Ca10 O118 2.465538 1_555
Ca10 O44 2.470317 1_555
Ca10 O114 2.591992 1_555
Ca11 O45 2.280578 1_555
Ca11 O47 2.387619 1_555
Ca11 O43 2.392266 1_555
Ca11 O117 2.515470 1_555
Ca11 O119 2.516745 1_555
Ca11 O115 2.562857 1_555
Ca12 O120 2.226962 1_555
Ca12 O124 2.230239 1_555
Ca12 O122 2.237066 1_555
Ca12 O48 2.313183 1_554
Ca12 O52 2.323894 1_554
Ca12 O50 2.327381 1_554
Ca13 O51 2.143528 1_554
Ca13 O53 2.184812 1_554
Ca13 O121 2.269731 1_555
Ca13 O49 2.287777 1_554
Ca13 O123 2.456594 1_555
Ca13 O125 2.470783 1_555
Ca14 O58 2.152866 1_555
Ca14 O56 2.189303 1_555
Ca14 O126 2.243713 1_555
Ca14 O54 2.314583 1_555
Ca14 O130 2.405046 1_555
Ca14 O128 2.446571 1_555
Ca15 O129 2.195054 1_555
Ca15 O127 2.213109 1_555
Ca15 O131 2.232324 1_555
Ca15 O55 2.312681 1_555
Ca15 O57 2.345354 1_555
Ca15 O59 2.347233 1_555
Ca16 O133 2.264461 1_555
Ca16 O63 2.296138 1_555
Ca16 O61 2.329004 1_555
Ca16 O65 2.348283 1_555
Ca16 O137 2.410137 1_555
Ca16 O135 2.454851 1_555
Ca17 O140 2.214627 1_555
Ca17 O138 2.285046 1_555
Ca17 O66 2.341312 1_555
Ca17 O68 2.370227 1_555
Ca17 O70 2.385352 1_555
Ca17 O142 2.468933 1_555
O0 S0 1.470077 1_555
O1 Si0 1.628840 1_545
O2 S1 1.495284 1_555
O3 S2 1.474716 1_555
O4 S4 1.480900 1_555
O5 S3 1.474613 1_655
O6 Si1 1.628490 1_555
O7 S5 1.473736 1_555
O8 S6 1.479769 1_555
O9 Si2 1.619243 1_555
O10 S7 1.475620 1_545
O11 S8 1.494124 1_545
O12 S7 1.513229 1_555
O12 Ti1 2.165516 1_565
O13 S8 1.494208 1_555
O13 Ti0 2.531793 1_655
O14 Si1 1.714322 1_555
O14 Ti0 1.921854 1_545
O15 S5 1.545664 1_555
O15 Ti1 1.969649 1_555
O16 Si2 1.729454 1_455
O16 Ti0 1.784573 1_555
O17 S6 1.500750 1_555
O17 Ti1 2.408495 1_565
O18 S1 1.498186 1_555
O18 Ti3 2.450767 1_565
O19 S2 1.506215 1_555
O19 Ti2 2.231359 1_655
O20 S3 1.500804 1_555
O20 Ti2 2.402782 1_545
O21 S4 1.500482 1_555
O21 Ti3 2.098803 1_555
O22 S0 1.540148 1_555
O22 Ti2 2.005740 1_555
O23 Si0 1.731195 1_555
O23 Ti3 1.899855 1_565
O24 Si3 1.613767 1_555
O25 S9 1.477759 1_555
O26 Si4 1.619466 1_555
O27 Si5 1.603836 1_555
O28 S10 1.480147 1_555
O29 Si6 1.625565 1_555
O30 S11 1.477512 1_555
O31 Si7 1.614675 1_555
O32 Si8 1.616624 1_555
O33 S12 1.481792 1_555
O34 Si9 1.612596 1_555
O35 Si10 1.612494 1_555
O36 Si9 1.637437 1_555
O37 Si10 1.641264 1_555
O38 S11 1.483667 1_555
O39 Si7 1.641689 1_555
O40 Si8 1.651643 1_555
O41 S12 1.483937 1_555
O42 Si4 1.646744 1_555
O43 Si5 1.644682 1_555
O44 S10 1.490724 1_555
O45 Si6 1.658956 1_555
O46 Si3 1.642882 1_555
O47 S9 1.498193 1_555
O48 S13 1.478331 1_555
O49 S14 1.481853 1_555
O50 S15 1.479510 1_555
O51 Si11 1.613353 1_555
O52 S16 1.480895 1_555
O53 Si12 1.613154 1_555
O54 S17 1.476832 1_555
O55 S18 1.473818 1_555
O56 Si13 1.610097 1_555
O57 S19 1.472591 1_555
O58 Si14 1.609204 1_555
O59 S20 1.473485 1_555
O60 Ti4 1.774981 1_555
O60 Si14 1.777202 1_555
O61 S20 1.494871 1_555
O62 S17 1.509387 1_555
O62 Ti4 2.124310 1_555
O63 S18 1.502985 1_555
O64 Si13 1.774105 1_555
O64 Ti4 1.776713 1_555
O65 S19 1.493021 1_555
O66 S15 1.483775 1_555
O67 Si11 1.755970 1_555
O67 Ti5 1.792375 1_555
O68 S16 1.480004 1_555
O69 Si12 1.757883 1_555
O69 Ti5 1.777613 1_555
O70 S13 1.489862 1_555
O71 S14 1.507936 1_555
O71 Ti5 2.110413 1_555
O72 Si14 1.628855 1_555
O73 S20 1.511582 1_555
O74 S17 1.500823 1_555
O75 S18 1.499803 1_545
O76 Si13 1.624348 1_555
O77 S19 1.519688 1_555
O78 S15 1.507592 1_555
O79 Si11 1.633029 1_555
O80 S16 1.508950 1_555
O81 Si12 1.629587 1_555
O82 S13 1.505712 1_555
O83 S14 1.491379 1_555
O84 Si3 1.746843 1_555
O84 Ti1 1.794133 1_555
O85 S9 1.503115 1_555
O85 Ti0 2.474340 1_645
O86 Si4 1.690670 1_555
O86 Ti0 1.898018 1_545
O87 Si5 1.768210 1_555
O87 Ti1 1.788440 1_555
O88 S10 1.523264 1_555
O88 Ti1 2.198992 1_565
O89 Si6 1.680153 1_555
O89 Ti0 1.913569 1_655
O90 S11 1.527556 1_555
O90 Ti3 2.131389 1_565
O91 Si7 1.753534 1_555
O91 Ti2 1.786396 1_655
O92 Si8 1.703463 1_555
O92 Ti3 1.858892 1_555
O93 S12 1.524640 1_555
O93 Ti2 2.176922 1_645
O94 Si9 1.762656 1_555
O94 Ti2 1.780760 1_545
O95 Si10 1.725185 1_555
O95 Ti3 1.826809 1_555
O96 S7 1.480473 1_545
O97 S8 1.482810 1_545
O98 Si1 1.650189 1_555
O99 S5 1.470206 1_555
O100 S6 1.483792 1_555
O101 Si2 1.625052 1_555
O102 S1 1.504106 1_555
O103 S2 1.483265 1_555
O104 S4 1.482280 1_555
O105 S3 1.488472 1_655
O106 S0 1.482607 1_545
O107 Si0 1.639484 1_545
O108 S13 1.498658 1_555
O109 S14 1.498955 1_555
O110 Si11 1.634245 1_555
O111 S15 1.505082 1_655
O112 S16 1.508703 1_545
O113 Si12 1.634126 1_545
O114 S17 1.496288 1_545
O115 S18 1.493690 1_545
O116 Si13 1.634281 1_555
O117 S19 1.497124 1_555
O118 S20 1.497925 1_555
O119 Si14 1.629865 1_655
O120 Si9 1.619934 1_555
O121 Si10 1.627998 1_555
O122 Si7 1.613634 1_455
O123 S11 1.487841 1_555
O124 Si8 1.626768 1_565
O125 S12 1.490394 1_565
O126 Si4 1.632425 1_565
O127 Si5 1.623641 1_565
O128 S10 1.485202 1_555
O129 Si6 1.634627 1_555
O130 S9 1.496041 1_455
O131 Si3 1.616256 1_555
O132 S0 1.489864 1_555
O132 Ti4 2.496370 1_555
O133 Si0 1.654865 1_555
O134 S1 1.496827 1_555
O134 Ti4 2.400768 1_555
O135 S2 1.515626 1_555
O136 S3 1.521882 1_555
O136 Ti4 2.112965 1_555
O137 S4 1.509546 1_555
O138 Si1 1.650277 1_555
O139 S5 1.487234 1_555
O139 Ti5 2.527849 1_555
O140 Si2 1.644968 1_455
O141 S6 1.519546 1_555
O141 Ti5 2.112927 1_555
O142 S7 1.499993 1_555
O143 S8 1.517709 1_555
O143 Ti5 2.229810 1_555
