# generated using pymatgen
data_Na3CaScSi(SO6)2
_symmetry_space_group_name_H-M   'P 1'
_cell_length_a   9.26312116
_cell_length_b   9.29622146
_cell_length_c   22.97873783
_cell_angle_alpha   90.51561018
_cell_angle_beta   90.00000000
_cell_angle_gamma   119.88228540
_symmetry_Int_Tables_number   1
_chemical_formula_structural   Na3CaScSi(SO6)2
_chemical_formula_sum   'Na18 Ca6 Sc6 Si6 S12 O72'
_cell_volume   1715.58065933
_cell_formula_units_Z   6
loop_
 _symmetry_equiv_pos_site_id
 _symmetry_equiv_pos_as_xyz
  1  'x, y, z'
loop_
 _atom_site_type_symbol
 _atom_site_label
 _atom_site_symmetry_multiplicity
 _atom_site_fract_x
 _atom_site_fract_y
 _atom_site_fract_z
 _atom_site_occupancy
  Na  Na0  1  0.63241880  0.00471717  0.25301946  1
  Na  Na1  1  0.00623671  0.64063376  0.23968564  1
  Na  Na2  1  0.63439706  0.64063376  0.73968564  1
  Na  Na3  1  0.37229838  0.00471717  0.75301946  1
  Na  Na4  1  0.32369138  0.35230182  0.58643502  1
  Na  Na5  1  0.65562075  0.94628209  0.57740116  1
  Na  Na6  1  0.29066234  0.94628209  0.07740116  1
  Na  Na7  1  0.02861144  0.35230182  0.08643502  1
  Na  Na8  1  0.99088370  0.68514484  0.92400057  1
  Na  Na9  1  0.68965088  0.02869920  0.90591290  1
  Na  Na10  1  0.33904732  0.02869920  0.40591290  1
  Na  Na11  1  0.69426015  0.68514484  0.42400057  1
  Na  Na12  1  0.97397026  0.98956798  0.49806945  1
  Na  Na13  1  0.01559772  0.98956798  0.99806945  1
  Na  Na14  1  0.66003364  0.30533479  0.83222501  1
  Na  Na15  1  0.64530215  0.30533479  0.33222501  1
  Na  Na16  1  0.32255110  0.66289692  0.16534934  1
  Na  Na17  1  0.34034482  0.66289692  0.66534934  1
  Ca  Ca0  1  0.00592434  0.01295237  0.34940408  1
  Ca  Ca1  1  0.00702802  0.01295237  0.84940408  1
  Ca  Ca2  1  0.67565893  0.33448914  0.68304085  1
  Ca  Ca3  1  0.65883121  0.33448914  0.18304085  1
  Ca  Ca4  1  0.33528869  0.67005178  0.01570280  1
  Ca  Ca5  1  0.33476209  0.67005178  0.51570280  1
  Sc  Sc0  1  0.97081605  0.97795656  0.65015829  1
  Sc  Sc1  1  0.00714051  0.97795656  0.15015829  1
  Sc  Sc2  1  0.66191490  0.33877192  0.98348184  1
  Sc  Sc3  1  0.67685802  0.33877192  0.48348184  1
  Sc  Sc4  1  0.34017002  0.68654562  0.31733849  1
  Sc  Sc5  1  0.34637459  0.68654562  0.81733849  1
  Si  Si0  1  0.30265763  0.99447436  0.25356886  1
  Si  Si1  1  0.69181672  0.99447436  0.75356886  1
  Si  Si2  1  0.66779240  0.63133082  0.58471366  1
  Si  Si3  1  0.96353943  0.63133082  0.08471366  1
  Si  Si4  1  0.33981983  0.97546556  0.91967125  1
  Si  Si5  1  0.63564473  0.97546556  0.41967125  1
  S  S0  1  0.70084565  0.70763059  0.25150249  1
  S  S1  1  0.00593228  0.30173705  0.24716875  1
  S  S2  1  0.29580476  0.30173705  0.74716875  1
  S  S3  1  0.00678494  0.70763059  0.75150249  1
  S  S4  1  0.96397765  0.32572919  0.58313964  1
  S  S5  1  0.36455062  0.04181714  0.58305080  1
  S  S6  1  0.67726752  0.04181714  0.08305080  1
  S  S7  1  0.36175254  0.32572919  0.08313964  1
  S  S8  1  0.62974395  0.65934145  0.91490184  1
  S  S9  1  0.03182890  0.37314437  0.91785605  1
  S  S10  1  0.34131447  0.37314437  0.41785605  1
  S  S11  1  0.02959650  0.65934145  0.41490184  1
  O  O0  1  0.22083341  0.00849492  0.31322895  1
  O  O1  1  0.79567115  0.78211110  0.30537349  1
  O  O2  1  0.97864782  0.19635871  0.29788660  1
  O  O3  1  0.21771089  0.19635871  0.79788660  1
  O  O4  1  0.98643995  0.78211110  0.80537349  1
  O  O5  1  0.78766151  0.00849492  0.81322895  1
  O  O6  1  0.79037533  0.96859521  0.69609526  1
  O  O7  1  0.19844875  0.21899467  0.69313416  1
  O  O8  1  0.03150669  0.81912682  0.70090353  1
  O  O9  1  0.78762012  0.81912682  0.20090353  1
  O  O10  1  0.02054591  0.21899467  0.19313416  1
  O  O11  1  0.17821988  0.96859521  0.19609526  1
  O  O12  1  0.89069395  0.34731126  0.63631394  1
  O  O13  1  0.46592784  0.11424405  0.63611335  1
  O  O14  1  0.64385088  0.52874903  0.64358194  1
  O  O15  1  0.88489914  0.52874903  0.14358194  1
  O  O16  1  0.64831721  0.11424405  0.13611335  1
  O  O17  1  0.45661831  0.34731126  0.13631394  1
  O  O18  1  0.44792444  0.30267876  0.03168279  1
  O  O19  1  0.84650269  0.53068012  0.02645062  1
  O  O20  1  0.69348908  0.14730308  0.03143394  1
  O  O21  1  0.45381500  0.14730308  0.53143394  1
  O  O22  1  0.68417842  0.53068012  0.52645062  1
  O  O23  1  0.85475532  0.30267876  0.53168279  1
  O  O24  1  0.54868205  0.67907746  0.96661107  1
  O  O25  1  0.12285744  0.44256675  0.97273847  1
  O  O26  1  0.31659980  0.86755597  0.97725494  1
  O  O27  1  0.55095517  0.86755597  0.47725494  1
  O  O28  1  0.31970831  0.44256675  0.47273847  1
  O  O29  1  0.13039440  0.67907746  0.46661107  1
  O  O30  1  0.11145275  0.63976337  0.36160292  1
  O  O31  1  0.51011674  0.87568525  0.36121243  1
  O  O32  1  0.35396372  0.47913812  0.36777265  1
  O  O33  1  0.12517340  0.47913812  0.86777265  1
  O  O34  1  0.36556752  0.87568525  0.86121243  1
  O  O35  1  0.52830963  0.63976337  0.86160292  1
  O  O36  1  0.01055494  0.80881013  0.41141359  1
  O  O37  1  0.81346375  0.98109878  0.41387726  1
  O  O38  1  0.20313797  0.20037729  0.41290246  1
  O  O39  1  0.99723931  0.20037729  0.91290246  1
  O  O40  1  0.16763502  0.98109878  0.91387726  1
  O  O41  1  0.79825519  0.80881013  0.91141359  1
  O  O42  1  0.97653496  0.16978167  0.58622729  1
  O  O43  1  0.20261556  0.04026672  0.58766341  1
  O  O44  1  0.83583404  0.82322106  0.58646022  1
  O  O45  1  0.98738701  0.82322106  0.08646022  1
  O  O46  1  0.83765116  0.04026672  0.08766341  1
  O  O47  1  0.19324671  0.16978167  0.08622729  1
  O  O48  1  0.65080328  0.14485031  0.74817936  1
  O  O49  1  0.46699409  0.32442087  0.74435065  1
  O  O50  1  0.85712739  0.54403472  0.74438918  1
  O  O51  1  0.68690834  0.54403472  0.24438918  1
  O  O52  1  0.85742778  0.32442087  0.24435065  1
  O  O53  1  0.49404802  0.14485031  0.24817936  1
  O  O54  1  0.65007305  0.50951425  0.91864711  1
  O  O55  1  0.86557083  0.36808801  0.91948935  1
  O  O56  1  0.51924576  0.15523497  0.92298110  1
  O  O57  1  0.63599021  0.15523497  0.42298110  1
  O  O58  1  0.50251817  0.36808801  0.41948935  1
  O  O59  1  0.85944220  0.50951425  0.41864711  1
  O  O60  1  0.33493803  0.46829333  0.07670844  1
  O  O61  1  0.15167468  0.65331135  0.08205042  1
  O  O62  1  0.53366860  0.87266366  0.07694516  1
  O  O63  1  0.33899406  0.87266366  0.57694516  1
  O  O64  1  0.50163567  0.65331135  0.58205042  1
  O  O65  1  0.13335430  0.46829333  0.57670844  1
  O  O66  1  0.30667719  0.81272438  0.25328095  1
  O  O67  1  0.53261187  0.69385329  0.25451613  1
  O  O68  1  0.15779508  0.46870410  0.25372864  1
  O  O69  1  0.31090802  0.46870410  0.75372864  1
  O  O70  1  0.16124043  0.69385329  0.75451613  1
  O  O71  1  0.50604620  0.81272438  0.75328095  1
loop_
_geom_bond_atom_site_label_1
_geom_bond_atom_site_label_2
_geom_bond_distance
_geom_bond_site_symmetry_2
Na0 O53 2.240244 1_555
Na0 O67 2.558666 1_545
Na0 O66 2.631368 1_545
Na0 O52 2.656137 1_555
Na0 O31 2.757309 1_545
Na0 O16 2.859145 1_555
Na0 O2 2.965857 1_555
Na0 O9 2.985288 1_545
Na1 O66 2.440640 1_555
Na1 O15 2.452686 1_455
Na1 O52 2.553587 1_455
Na1 O68 2.621979 1_555
Na1 O51 2.631093 1_455
Na1 O11 2.837548 1_555
Na1 O30 2.967602 1_555
Na2 O71 2.440647 1_555
Na2 O14 2.452689 1_555
Na2 O49 2.553587 1_555
Na2 O69 2.621986 1_555
Na2 O50 2.631102 1_555
Na2 O6 2.837548 1_555
Na2 O35 2.967606 1_555
Na3 O48 2.240252 1_555
Na3 O70 2.558668 1_545
Na3 O71 2.631361 1_545
Na3 O49 2.656135 1_555
Na3 O34 2.757307 1_545
Na3 O13 2.859146 1_555
Na3 O3 2.965858 1_555
Na3 O8 2.985288 1_545
Na4 O64 2.442622 1_555
Na4 O65 2.493979 1_555
Na4 O43 2.536284 1_555
Na4 O7 2.741377 1_555
Na4 O28 2.757080 1_555
Na4 O42 2.789803 1_455
Na4 O14 2.885164 1_555
Na4 O21 2.987887 1_555
Na5 O64 2.365974 1_555
Na5 O27 2.456407 1_555
Na5 O44 2.458857 1_555
Na5 O42 2.651946 1_565
Na5 O63 2.659035 1_555
Na6 O61 2.365973 1_555
Na6 O26 2.456403 1_554
Na6 O45 2.458865 1_455
Na6 O47 2.651953 1_565
Na6 O62 2.659017 1_555
Na7 O61 2.442624 1_555
Na7 O60 2.493962 1_555
Na7 O46 2.536285 1_455
Na7 O10 2.741375 1_555
Na7 O25 2.757077 1_554
Na7 O47 2.789795 1_555
Na7 O15 2.885164 1_455
Na7 O20 2.987887 1_455
Na8 O40 2.413954 1_655
Na8 O55 2.575046 1_555
Na8 O41 2.576655 1_555
Na8 O54 2.740010 1_555
Na8 O19 2.745900 1_556
Na8 O4 2.885478 1_555
Na8 O26 2.888039 1_655
Na9 O5 2.357568 1_555
Na9 O56 2.423012 1_555
Na9 O39 2.480990 1_555
Na9 O41 2.694495 1_545
Na9 O55 2.750691 1_555
Na9 O34 2.794503 1_545
Na10 O0 2.357564 1_555
Na10 O57 2.423029 1_555
Na10 O38 2.480982 1_555
Na10 O36 2.694488 1_545
Na10 O58 2.750691 1_555
Na10 O31 2.794503 1_545
Na11 O37 2.413953 1_555
Na11 O58 2.575044 1_555
Na11 O36 2.576663 1_655
Na11 O59 2.740026 1_555
Na11 O22 2.745904 1_555
Na11 O1 2.885480 1_555
Na11 O27 2.888039 1_555
Na12 O37 2.416642 1_555
Na12 O44 2.497779 1_555
Na12 O42 2.609629 1_565
Na12 O36 2.722265 1_655
Na12 O43 2.816785 1_665
Na12 O38 2.846143 1_665
Na13 O40 2.416642 1_555
Na13 O45 2.497779 1_456
Na13 O47 2.609629 1_566
Na13 O41 2.722265 1_455
Na13 O46 2.816785 1_466
Na13 O39 2.846143 1_465
Na14 O48 2.404972 1_555
Na14 O56 2.497210 1_555
Na14 O55 2.618846 1_555
Na14 O49 2.762043 1_555
Na14 O54 2.767966 1_555
Na14 O50 2.893913 1_555
Na15 O53 2.404972 1_555
Na15 O57 2.497210 1_555
Na15 O58 2.618846 1_555
Na15 O52 2.762043 1_555
Na15 O59 2.767966 1_555
Na15 O51 2.893913 1_555
Na16 O61 2.456325 1_555
Na16 O66 2.489512 1_555
Na16 O68 2.652005 1_555
Na16 O67 2.738357 1_555
Na16 O60 2.752313 1_555
Na16 O62 2.832855 1_555
Na17 O64 2.456325 1_555
Na17 O71 2.489512 1_555
Na17 O69 2.652005 1_555
Na17 O70 2.738357 1_555
Na17 O65 2.752313 1_555
Na17 O63 2.832855 1_555
Ca0 O0 2.176531 1_555
Ca0 O2 2.199500 1_455
Ca0 O37 2.223230 1_445
Ca0 O1 2.284355 1_445
Ca0 O38 2.298839 1_555
Ca0 O36 2.400713 1_545
Ca1 O5 2.176531 1_455
Ca1 O3 2.199500 1_555
Ca1 O40 2.223230 1_545
Ca1 O4 2.284355 1_445
Ca1 O39 2.298839 1_455
Ca1 O41 2.400713 1_445
Ca2 O14 2.174816 1_555
Ca2 O12 2.213699 1_555
Ca2 O48 2.245967 1_555
Ca2 O13 2.264045 1_555
Ca2 O50 2.301151 1_555
Ca2 O49 2.356204 1_555
Ca3 O15 2.174816 1_555
Ca3 O17 2.213699 1_555
Ca3 O53 2.245967 1_555
Ca3 O16 2.264045 1_555
Ca3 O51 2.301151 1_555
Ca3 O52 2.356204 1_555
Ca4 O26 2.127787 1_554
Ca4 O61 2.232029 1_555
Ca4 O24 2.241274 1_554
Ca4 O25 2.266030 1_554
Ca4 O62 2.325583 1_555
Ca4 O60 2.350370 1_555
Ca5 O27 2.127787 1_555
Ca5 O64 2.232029 1_555
Ca5 O29 2.241275 1_555
Ca5 O28 2.266030 1_555
Ca5 O63 2.325583 1_555
Ca5 O65 2.350370 1_555
O0 Si0 1.601905 1_545
O1 S0 1.470333 1_555
O2 S1 1.468198 1_655
O3 S2 1.468198 1_555
O4 S3 1.470333 1_655
O5 Si1 1.601905 1_545
O6 Si1 1.687804 1_555
O6 Sc0 1.942228 1_555
O7 S2 1.496072 1_555
O7 Sc0 2.386313 1_445
O8 S3 1.504596 1_555
O8 Sc0 2.171165 1_455
O9 S0 1.504596 1_555
O9 Sc1 2.171165 1_655
O10 S1 1.496072 1_555
O10 Sc1 2.386313 1_545
O11 Si0 1.687804 1_555
O11 Sc1 1.942228 1_555
O12 S4 1.457860 1_555
O13 S5 1.475500 1_555
O14 Si2 1.612734 1_555
O15 Si3 1.612734 1_555
O16 S6 1.475500 1_555
O17 S7 1.457860 1_555
O18 S7 1.499016 1_555
O18 Sc2 2.147675 1_554
O19 Si3 1.676277 1_555
O19 Sc2 2.002493 1_554
O20 S6 1.505029 1_555
O20 Sc2 2.240957 1_554
O21 S5 1.505029 1_555
O21 Sc3 2.240957 1_555
O22 Si2 1.676277 1_555
O22 Sc3 2.002493 1_555
O23 S4 1.499016 1_555
O23 Sc3 2.147675 1_555
O24 S8 1.463794 1_555
O25 S9 1.470053 1_555
O26 Si4 1.616269 1_555
O27 Si5 1.616269 1_555
O28 S10 1.470053 1_555
O29 S11 1.463794 1_555
O30 S11 1.497181 1_555
O30 Sc4 2.191388 1_555
O31 Si5 1.708739 1_555
O31 Sc4 1.948380 1_555
O32 S10 1.488105 1_555
O32 Sc4 2.315750 1_555
O33 S9 1.488105 1_555
O33 Sc5 2.315750 1_555
O34 Si4 1.708739 1_555
O34 Sc5 1.948379 1_555
O35 S8 1.497181 1_555
O35 Sc5 2.191388 1_555
O36 S11 1.488102 1_555
O37 Si5 1.627199 1_555
O38 S10 1.476159 1_555
O39 S9 1.476162 1_655
O40 Si4 1.627190 1_555
O41 S8 1.488107 1_555
O42 S4 1.513322 1_555
O42 Sc0 2.300852 1_545
O43 S5 1.496663 1_555
O43 Sc0 2.404960 1_445
O44 Si2 1.684811 1_555
O44 Sc0 1.986175 1_555
O45 Si3 1.684815 1_555
O45 Sc1 1.986175 1_655
O46 S6 1.496653 1_555
O46 Sc1 2.404960 1_645
O47 S7 1.513327 1_555
O47 Sc1 2.300852 1_545
O48 Si1 1.626711 1_545
O49 S2 1.493419 1_555
O50 S3 1.468387 1_655
O51 S0 1.468391 1_555
O52 S1 1.493410 1_655
O53 Si0 1.626717 1_545
O54 S8 1.498780 1_555
O54 Sc2 2.228685 1_555
O55 S9 1.517672 1_655
O55 Sc2 2.300067 1_555
O56 Si4 1.670640 1_545
O56 Sc2 2.073855 1_555
O57 Si5 1.670631 1_545
O57 Sc3 2.073855 1_555
O58 S10 1.517690 1_555
O58 Sc3 2.300067 1_555
O59 S11 1.498769 1_655
O59 Sc3 2.228685 1_555
O60 S7 1.473607 1_555
O61 Si3 1.651655 1_455
O62 S6 1.474300 1_565
O63 S5 1.474293 1_565
O64 Si2 1.651673 1_555
O65 S4 1.473595 1_455
O66 Si0 1.708398 1_555
O66 Sc4 2.008112 1_555
O67 S0 1.500332 1_555
O67 Sc4 2.268774 1_555
O68 S1 1.493620 1_555
O68 Sc4 2.372604 1_555
O69 S2 1.493624 1_555
O69 Sc5 2.372604 1_555
O70 S3 1.500323 1_555
O70 Sc5 2.268774 1_555
O71 Si1 1.708402 1_555
O71 Sc5 2.008113 1_555
