# generated using pymatgen
data_K2MgMn2O4
_symmetry_space_group_name_H-M   'P 1'
_cell_length_a   3.12446076
_cell_length_b   6.72958100
_cell_length_c   8.72717094
_cell_angle_alpha   99.02043289
_cell_angle_beta   89.73661282
_cell_angle_gamma   89.40814147
_symmetry_Int_Tables_number   1
_chemical_formula_structural   K2MgMn2O4
_chemical_formula_sum   'K2 Mg1 Mn2 O4'
_cell_volume   181.21751694
_cell_formula_units_Z   1
loop_
 _symmetry_equiv_pos_site_id
 _symmetry_equiv_pos_as_xyz
  1  'x, y, z'
loop_
 _atom_site_type_symbol
 _atom_site_label
 _atom_site_symmetry_multiplicity
 _atom_site_fract_x
 _atom_site_fract_y
 _atom_site_fract_z
 _atom_site_occupancy
  K  K0  1  0.50596400  0.91640100  0.40919100  1
  K  K1  1  0.00471700  0.58010500  0.09649300  1
  Mg  Mg0  1  0.99746700  0.24526300  0.75560700  1
  Mn  Mn0  1  0.50558000  0.42845500  0.46370300  1
  Mn  Mn1  1  0.98894300  0.04159800  0.01844800  1
  O  O0  1  0.00540700  0.24808100  0.53912800  1
  O  O1  1  0.49631000  0.22626500  0.89015800  1
  O  O2  1  0.00493100  0.58445800  0.39488800  1
  O  O3  1  0.49068300  0.89937300  0.09243100  1
loop_
_geom_bond_atom_site_label_1
_geom_bond_atom_site_label_2
_geom_bond_distance
_geom_bond_site_symmetry_2
K0 O2 2.697207 1_655
K0 O2 2.728163 1_555
K0 O3 2.749439 1_555
K0 O0 2.798558 1_565
K0 O0 2.828021 1_665
K1 O2 2.599716 1_555
K1 O3 2.648348 1_555
K1 O3 2.673965 1_455
K1 O1 3.134696 1_554
K1 O1 3.193101 1_454
Mg0 O0 1.892367 1_655
Mg0 O1 1.970123 1_555
Mg0 O1 1.970856 1_655
Mn0 O2 2.020432 1_555
Mn0 O2 2.029775 1_655
Mn0 O0 2.136916 1_655
Mn0 O0 2.151565 1_555
Mn1 O3 1.990632 1_645
Mn1 O3 1.992957 1_545
Mn1 O1 2.362140 1_554
Mn1 O1 2.402415 1_654
