# generated using pymatgen
data_MgMoWS4
_symmetry_space_group_name_H-M   'P 1'
_cell_length_a   3.19308200
_cell_length_b   3.19310008
_cell_length_c   28.69465803
_cell_angle_alpha   90.00425636
_cell_angle_beta   90.00000000
_cell_angle_gamma   119.99981273
_symmetry_Int_Tables_number   1
_chemical_formula_structural   MgMoWS4
_chemical_formula_sum   'Mg1 Mo1 W1 S4'
_cell_volume   253.36994955
_cell_formula_units_Z   1
loop_
 _symmetry_equiv_pos_site_id
 _symmetry_equiv_pos_as_xyz
  1  'x, y, z'
loop_
 _atom_site_type_symbol
 _atom_site_label
 _atom_site_symmetry_multiplicity
 _atom_site_fract_x
 _atom_site_fract_y
 _atom_site_fract_z
 _atom_site_occupancy
  Mg  Mg0  1  0.99997700  0.99995300  0.29078000  1
  Mo  Mo0  1  0.33330600  0.66661200  0.14249900  1
  W  W0  1  0.66670400  0.33340800  0.46241500  1
  S  S0  1  0.33337800  0.66675700  0.51715500  1
  S  S1  1  0.66660400  0.33320700  0.08825900  1
  S  S2  1  0.66668600  0.33337000  0.19765100  1
  S  S3  1  0.33334500  0.66669100  0.40744100  1
loop_
_geom_bond_atom_site_label_1
_geom_bond_atom_site_label_2
_geom_bond_distance
_geom_bond_site_symmetry_2
Mo0 S1 2.412629 1_565
Mo0 S1 2.412694 1_455
Mo0 S1 2.412696 1_555
Mo0 S2 2.429588 1_455
Mo0 S2 2.429592 1_555
Mo0 S2 2.429731 1_565
S0 W0 2.421915 1_455
S0 W0 2.421917 1_555
S0 W0 2.422028 1_565
S3 W0 2.426308 1_455
S3 W0 2.426310 1_555
S3 W0 2.426322 1_565
