# generated using pymatgen
data_Na2Hf2Si3Ge2(SO8)3
_symmetry_space_group_name_H-M   'P 1'
_cell_length_a   8.78721593
_cell_length_b   8.68278010
_cell_length_c   22.68105802
_cell_angle_alpha   91.29810284
_cell_angle_beta   91.52774476
_cell_angle_gamma   119.73155199
_symmetry_Int_Tables_number   1
_chemical_formula_structural   Na2Hf2Si3Ge2(SO8)3
_chemical_formula_sum   'Na6 Hf6 Si9 Ge6 S9 O72'
_cell_volume   1500.88302505
_cell_formula_units_Z   3
loop_
 _symmetry_equiv_pos_site_id
 _symmetry_equiv_pos_as_xyz
  1  'x, y, z'
loop_
 _atom_site_type_symbol
 _atom_site_label
 _atom_site_symmetry_multiplicity
 _atom_site_fract_x
 _atom_site_fract_y
 _atom_site_fract_z
 _atom_site_occupancy
  Na  Na0  1  0.98499813  0.98276394  0.50020337  1
  Na  Na1  1  0.00689342  0.98683529  0.00348496  1
  Na  Na2  1  0.64701163  0.31037775  0.82614169  1
  Na  Na3  1  0.67033192  0.31933441  0.33763408  1
  Na  Na4  1  0.31543977  0.65920533  0.17574988  1
  Na  Na5  1  0.34464083  0.66173065  0.65985313  1
  Hf  Hf0  1  0.00497475  0.00232374  0.35997975  1
  Hf  Hf1  1  0.01127631  0.01166109  0.84702653  1
  Hf  Hf2  1  0.68076899  0.33525472  0.19287198  1
  Hf  Hf3  1  0.66775272  0.34030784  0.98196524  1
  Hf  Hf4  1  0.31848361  0.67684436  0.02375253  1
  Hf  Hf5  1  0.34855169  0.68145430  0.80385363  1
  Si  Si0  1  0.29330493  0.00053779  0.25374690  1
  Si  Si1  1  0.02281097  0.29222333  0.25279335  1
  Si  Si2  1  0.28428567  0.27800470  0.74205919  1
  Si  Si3  1  0.71499922  0.01840902  0.74350644  1
  Si  Si4  1  0.66491451  0.61454765  0.58254100  1
  Si  Si5  1  0.95664856  0.64326973  0.08890978  1
  Si  Si6  1  0.32848765  0.96283513  0.91570410  1
  Si  Si7  1  0.61376130  0.95635431  0.41821900  1
  Si  Si8  1  0.05352918  0.66255506  0.42281070  1
  Ge  Ge0  1  0.96879194  0.99915974  0.64488387  1
  Ge  Ge1  1  0.00963320  0.98672823  0.16034867  1
  Ge  Ge2  1  0.63961496  0.32551887  0.68450186  1
  Ge  Ge3  1  0.69296262  0.35117749  0.47599623  1
  Ge  Ge4  1  0.36778734  0.68994580  0.51510079  1
  Ge  Ge5  1  0.29896323  0.68121922  0.31608018  1
  S  S0  1  0.70894285  0.71923592  0.24913021  1
  S  S1  1  0.98986544  0.70353275  0.74469290  1
  S  S2  1  0.95251034  0.33262676  0.58447739  1
  S  S3  1  0.37311551  0.04030189  0.58153971  1
  S  S4  1  0.67949048  0.04539996  0.08369507  1
  S  S5  1  0.37071602  0.32933697  0.08351971  1
  S  S6  1  0.62343508  0.66960738  0.91722462  1
  S  S7  1  0.04008602  0.37674876  0.91525553  1
  S  S8  1  0.34592250  0.38988139  0.41949579  1
  O  O0  1  0.19901912  0.02455073  0.30951393  1
  O  O1  1  0.81861092  0.79403726  0.30294851  1
  O  O2  1  0.97801403  0.16860879  0.30776586  1
  O  O3  1  0.20907730  0.16692620  0.80220841  1
  O  O4  1  0.96776301  0.78437750  0.80059616  1
  O  O5  1  0.82794902  0.04553606  0.80492529  1
  O  O6  1  0.79158689  0.96082009  0.68806168  1
  O  O7  1  0.15425549  0.17408228  0.68437435  1
  O  O8  1  0.02304641  0.81569358  0.69416726  1
  O  O9  1  0.79205924  0.82473315  0.19523646  1
  O  O10  1  0.03860952  0.19243752  0.18982300  1
  O  O11  1  0.17293979  0.95260386  0.19143200  1
  O  O12  1  0.86947272  0.35695615  0.63690061  1
  O  O13  1  0.48470890  0.11599957  0.63886113  1
  O  O14  1  0.63351110  0.49466724  0.64106949  1
  O  O15  1  0.85948181  0.51123392  0.14063891  1
  O  O16  1  0.64151705  0.12243575  0.13591765  1
  O  O17  1  0.47988175  0.35557538  0.13680157  1
  O  O18  1  0.45737376  0.30585588  0.03006363  1
  O  O19  1  0.84653542  0.55659246  0.02603457  1
  O  O20  1  0.68782879  0.14792624  0.03047174  1
  O  O21  1  0.45732311  0.14879445  0.53151635  1
  O  O22  1  0.69821036  0.52006703  0.52487980  1
  O  O23  1  0.84260973  0.29543270  0.52857780  1
  O  O24  1  0.53889256  0.68735399  0.97009417  1
  O  O25  1  0.14898445  0.45882618  0.97072258  1
  O  O26  1  0.31243483  0.84868647  0.97430063  1
  O  O27  1  0.54788793  0.84104259  0.47756279  1
  O  O28  1  0.31696563  0.46812277  0.47468635  1
  O  O29  1  0.17918042  0.68529334  0.48131870  1
  O  O30  1  0.11819083  0.61774769  0.36057345  1
  O  O31  1  0.48473554  0.85557920  0.35907620  1
  O  O32  1  0.36657705  0.49023422  0.36665410  1
  O  O33  1  0.12143359  0.47740510  0.86363270  1
  O  O34  1  0.34912631  0.86016732  0.85880566  1
  O  O35  1  0.51340647  0.63737239  0.86248567  1
  O  O36  1  0.03459583  0.83787877  0.41792902  1
  O  O37  1  0.80886476  0.98566528  0.41066247  1
  O  O38  1  0.18688976  0.21105971  0.41602728  1
  O  O39  1  0.01746134  0.19626784  0.91257099  1
  O  O40  1  0.15259855  0.97984468  0.91307205  1
  O  O41  1  0.79697043  0.82780867  0.91253932  1
  O  O42  1  0.96601305  0.16301196  0.58713181  1
  O  O43  1  0.19799943  0.02038679  0.58765143  1
  O  O44  1  0.84755296  0.81529142  0.59135704  1
  O  O45  1  0.96784864  0.83917647  0.09608801  1
  O  O46  1  0.83872418  0.03697114  0.08860925  1
  O  O47  1  0.19652222  0.17376309  0.08473034  1
  O  O48  1  0.70238377  0.19781790  0.73371424  1
  O  O49  1  0.48296566  0.30805082  0.73813114  1
  O  O50  1  0.83145173  0.52758139  0.73932598  1
  O  O51  1  0.69040656  0.54039072  0.24207243  1
  O  O52  1  0.85416639  0.32212063  0.24285857  1
  O  O53  1  0.48340498  0.17344915  0.24362978  1
  O  O54  1  0.64273777  0.50846523  0.92080390  1
  O  O55  1  0.86563979  0.36192408  0.92213107  1
  O  O56  1  0.50532777  0.15691012  0.92193933  1
  O  O57  1  0.62106035  0.15066304  0.42972922  1
  O  O58  1  0.50268044  0.36681278  0.42569614  1
  O  O59  1  0.85559020  0.48689190  0.42637270  1
  O  O60  1  0.35953790  0.49373593  0.07638884  1
  O  O61  1  0.15251747  0.66261607  0.08205631  1
  O  O62  1  0.52502360  0.86276515  0.07669246  1
  O  O63  1  0.35953384  0.85924328  0.57834054  1
  O  O64  1  0.48861961  0.64022430  0.57390982  1
  O  O65  1  0.12867618  0.48541981  0.58097282  1
  O  O66  1  0.30944565  0.82050523  0.25729818  1
  O  O67  1  0.53666411  0.70349770  0.25130289  1
  O  O68  1  0.20241399  0.48802574  0.26175652  1
  O  O69  1  0.29797535  0.47045085  0.75148150  1
  O  O70  1  0.14533676  0.68030596  0.75316294  1
  O  O71  1  0.51949488  0.84398012  0.75041472  1
loop_
_geom_bond_atom_site_label_1
_geom_bond_atom_site_label_2
_geom_bond_distance
_geom_bond_site_symmetry_2
Na0 O36 2.394902 1_655
Na0 O44 2.524869 1_555
Na0 O37 2.528626 1_555
Na0 O42 2.549754 1_565
Na0 O43 2.590386 1_665
Na0 O38 2.754210 1_665
Na1 O47 2.413457 1_565
Na1 O45 2.428374 1_455
Na1 O40 2.461628 1_554
Na1 O41 2.589572 1_454
Na1 O46 2.617817 1_465
Na1 O39 2.753174 1_564
Na2 O49 2.424646 1_555
Na2 O48 2.453539 1_555
Na2 O56 2.583911 1_555
Na2 O50 2.714296 1_555
Na2 O54 2.733216 1_555
Na2 O55 2.740618 1_555
Na3 O59 2.482155 1_555
Na3 O57 2.500673 1_555
Na3 O53 2.544726 1_555
Na3 O58 2.655480 1_555
Na3 O52 2.716551 1_555
Na3 O51 2.878540 1_555
Na4 O66 2.312203 1_555
Na4 O68 2.402362 1_555
Na4 O67 2.431936 1_555
Na4 O61 2.539498 1_555
Na4 O60 2.783022 1_555
Na4 O62 2.955564 1_555
Na5 O64 2.405117 1_555
Na5 O65 2.441121 1_555
Na5 O63 2.512009 1_555
Na5 O71 2.521258 1_555
Na5 O69 2.602286 1_555
Na5 O70 2.834520 1_555
Hf0 O2 1.986204 1_455
Hf0 O0 2.010591 1_555
Hf0 O37 2.043996 1_445
Hf0 O36 2.066255 1_545
Hf0 O38 2.090388 1_555
Hf0 O1 2.114045 1_445
Hf1 O3 1.924570 1_555
Hf1 O5 1.998534 1_455
Hf1 O40 2.030330 1_545
Hf1 O4 2.070180 1_445
Hf1 O39 2.140932 1_555
Hf1 O41 2.361658 1_445
Hf2 O52 1.925120 1_555
Hf2 O15 2.001392 1_555
Hf2 O53 2.017400 1_555
Hf2 O51 2.044562 1_555
Hf2 O16 2.106698 1_555
Hf2 O17 2.227982 1_555
Hf3 O19 1.974527 1_556
Hf3 O56 1.992542 1_555
Hf3 O18 2.066615 1_556
Hf3 O20 2.096897 1_556
Hf3 O54 2.120922 1_555
Hf3 O55 2.171244 1_555
Hf4 O26 1.907468 1_554
Hf4 O61 1.955092 1_555
Hf4 O62 2.057089 1_555
Hf4 O25 2.062343 1_554
Hf4 O60 2.171427 1_555
Hf4 O24 2.279479 1_554
Hf5 O71 1.946507 1_555
Hf5 O34 1.966108 1_555
Hf5 O69 2.007667 1_555
Hf5 O70 2.093562 1_555
Hf5 O35 2.117486 1_555
Hf5 O33 2.388776 1_555
Ge0 O6 1.753995 1_555
Ge0 O7 1.780567 1_665
Ge0 O44 1.820404 1_555
Ge0 O42 1.964082 1_565
Ge0 O8 2.195437 1_655
Ge0 O43 2.357466 1_665
Ge1 O11 1.738195 1_555
Ge1 O10 1.785420 1_565
Ge1 O45 1.822298 1_455
Ge1 O9 1.929662 1_455
Ge1 O46 2.375921 1_465
Ge1 O47 2.430418 1_565
Ge2 O14 1.808637 1_555
Ge2 O49 1.813256 1_555
Ge2 O48 1.846452 1_555
Ge2 O13 1.901929 1_555
Ge2 O50 2.078913 1_555
Ge2 O12 2.214171 1_555
Ge3 O59 1.781322 1_555
Ge3 O22 1.799546 1_555
Ge3 O57 1.822734 1_555
Ge3 O23 1.989873 1_555
Ge3 O58 2.060630 1_555
Ge3 O21 2.364607 1_555
Ge4 O27 1.736005 1_555
Ge4 O29 1.788837 1_555
Ge4 O64 1.870336 1_555
Ge4 O28 1.947906 1_555
Ge4 O63 2.058928 1_555
Ge5 O30 1.757203 1_555
Ge5 O66 1.793807 1_555
Ge5 O31 1.817889 1_555
Ge5 O68 1.868364 1_555
Ge5 O32 2.333613 1_555
O0 Si0 1.595315 1_555
O1 S0 1.456384 1_555
O2 Si1 1.590377 1_655
O3 Si2 1.644265 1_555
O4 S1 1.498726 1_555
O5 Si3 1.631156 1_555
O6 Si3 1.623204 1_565
O7 Si2 1.635758 1_555
O8 S1 1.460626 1_455
O9 S0 1.517049 1_555
O10 Si1 1.698121 1_555
O11 Si0 1.657262 1_565
O12 S2 1.475997 1_555
O13 S3 1.529013 1_555
O14 Si4 1.648962 1_555
O15 Si5 1.601050 1_555
O16 S4 1.472502 1_555
O17 S5 1.463380 1_555
O18 S5 1.511109 1_555
O19 Si5 1.640681 1_555
O20 S4 1.497931 1_555
O21 S3 1.457398 1_555
O22 Si4 1.636713 1_555
O23 S2 1.500401 1_555
O24 S6 1.471814 1_555
O25 S7 1.491655 1_555
O26 Si6 1.643035 1_555
O27 Si7 1.636134 1_555
O28 S8 1.497708 1_555
O29 Si8 1.647072 1_555
O30 Si8 1.644381 1_555
O31 Si7 1.652943 1_555
O32 S8 1.459674 1_555
O33 S7 1.455008 1_555
O34 Si6 1.616695 1_555
O35 S6 1.485389 1_555
O36 Si8 1.617155 1_555
O37 Si7 1.618097 1_555
O38 S8 1.485362 1_555
O39 S7 1.478166 1_555
O40 Si6 1.623598 1_555
O41 S6 1.470062 1_555
O42 S2 1.537396 1_555
O43 S3 1.471566 1_555
O44 Si4 1.687076 1_555
O45 Si5 1.658371 1_555
O46 S4 1.438479 1_555
O47 S5 1.456534 1_555
O48 Si3 1.635207 1_555
O49 Si2 1.637545 1_555
O50 S1 1.469595 1_555
O51 S0 1.483253 1_555
O52 Si1 1.637269 1_655
O53 Si0 1.626533 1_555
O54 S6 1.494262 1_555
O55 S7 1.486138 1_655
O56 Si6 1.629269 1_545
O57 Si7 1.670488 1_545
O58 S8 1.490611 1_555
O59 Si8 1.655265 1_655
O60 S5 1.490663 1_555
O61 Si5 1.656319 1_455
O62 S4 1.491451 1_565
O63 S3 1.516329 1_565
O64 Si4 1.678166 1_555
O65 S2 1.461858 1_455
O66 Si0 1.641691 1_565
O67 S0 1.453251 1_555
O68 Si1 1.651773 1_555
O69 Si2 1.623376 1_555
O70 S1 1.484928 1_455
O71 Si3 1.647435 1_565
