# generated using pymatgen
data_Na2CaHf3Si2(SO6)4
_symmetry_space_group_name_H-M   'P 1'
_cell_length_a   8.98940845
_cell_length_b   8.97907228
_cell_length_c   23.56932082
_cell_angle_alpha   89.59327854
_cell_angle_beta   90.10893216
_cell_angle_gamma   120.12058014
_symmetry_Int_Tables_number   1
_chemical_formula_structural   Na2CaHf3Si2(SO6)4
_chemical_formula_sum   'Na6 Ca3 Hf9 Si6 S12 O72'
_cell_volume   1645.50636711
_cell_formula_units_Z   3
loop_
 _symmetry_equiv_pos_site_id
 _symmetry_equiv_pos_as_xyz
  1  'x, y, z'
loop_
 _atom_site_type_symbol
 _atom_site_label
 _atom_site_symmetry_multiplicity
 _atom_site_fract_x
 _atom_site_fract_y
 _atom_site_fract_z
 _atom_site_occupancy
  Na  Na0  1  0.97654176  0.98195218  0.50777639  1
  Na  Na1  1  0.03427391  0.02738622  0.99960608  1
  Na  Na2  1  0.67263084  0.31009458  0.83525076  1
  Na  Na3  1  0.66273657  0.30993617  0.33547967  1
  Na  Na4  1  0.33596203  0.65626869  0.16285501  1
  Na  Na5  1  0.36670091  0.68144784  0.67281553  1
  Ca  Ca0  1  0.98011158  0.98752473  0.64757012  1
  Ca  Ca1  1  0.01050865  0.01040134  0.14166992  1
  Ca  Ca2  1  0.34158963  0.67719786  0.31841440  1
  Hf  Hf0  1  0.98955637  0.99859479  0.35333558  1
  Hf  Hf1  1  0.99820575  0.01468559  0.85442732  1
  Hf  Hf2  1  0.66598954  0.33493660  0.68869565  1
  Hf  Hf3  1  0.65617591  0.33484845  0.18278363  1
  Hf  Hf4  1  0.65386996  0.32240276  0.97534754  1
  Hf  Hf5  1  0.66904200  0.33662143  0.48215015  1
  Hf  Hf6  1  0.32115273  0.65506926  0.01699212  1
  Hf  Hf7  1  0.35541982  0.67537878  0.52059753  1
  Hf  Hf8  1  0.33208338  0.67763780  0.81822742  1
  Si  Si0  1  0.69880375  0.99625034  0.74960868  1
  Si  Si1  1  0.66775991  0.62261268  0.58239959  1
  Si  Si2  1  0.37872897  0.34447940  0.07935284  1
  Si  Si3  1  0.03931771  0.37668638  0.91622803  1
  Si  Si4  1  0.32279744  0.95335779  0.91796641  1
  Si  Si5  1  0.63166840  0.96977790  0.41589400  1
  S  S0  1  0.29707782  0.00690978  0.24981949  1
  S  S1  1  0.71225411  0.70154282  0.24920366  1
  S  S2  1  0.99247844  0.29138689  0.25021279  1
  S  S3  1  0.29681370  0.29795510  0.75079150  1
  S  S4  1  0.00058606  0.70289120  0.75121946  1
  S  S5  1  0.95986102  0.34483017  0.58171943  1
  S  S6  1  0.38317797  0.04337482  0.58206566  1
  S  S7  1  0.95352143  0.61248544  0.08160098  1
  S  S8  1  0.65709915  0.04455680  0.08232306  1
  S  S9  1  0.62300895  0.66817931  0.91677806  1
  S  S10  1  0.33089849  0.36589240  0.41803903  1
  S  S11  1  0.03697876  0.66870492  0.41757993  1
  O  O0  1  0.21220675  0.02741826  0.30180066  1
  O  O1  1  0.81973501  0.79203444  0.30148950  1
  O  O2  1  0.97607814  0.18049473  0.30224714  1
  O  O3  1  0.21186335  0.18425230  0.80122857  1
  O  O4  1  0.97524103  0.78563540  0.80111107  1
  O  O5  1  0.82398519  0.02203000  0.80513030  1
  O  O6  1  0.76794164  0.96444764  0.69191265  1
  O  O7  1  0.20033876  0.22610662  0.69868102  1
  O  O8  1  0.03568631  0.80282219  0.69907051  1
  O  O9  1  0.79272403  0.80214511  0.19873482  1
  O  O10  1  0.01009020  0.20996322  0.19957181  1
  O  O11  1  0.19884828  0.99336879  0.19900160  1
  O  O12  1  0.87410664  0.35889738  0.63340156  1
  O  O13  1  0.48773485  0.12100694  0.63373665  1
  O  O14  1  0.64696470  0.50357794  0.63872314  1
  O  O15  1  0.87043595  0.50776781  0.13515189  1
  O  O16  1  0.64539416  0.13558901  0.13475868  1
  O  O17  1  0.49409556  0.35850519  0.13874446  1
  O  O18  1  0.49401721  0.33808631  0.02759956  1
  O  O19  1  0.85405773  0.52217099  0.03160669  1
  O  O20  1  0.67862950  0.15058786  0.03154408  1
  O  O21  1  0.47626340  0.14372704  0.53082128  1
  O  O22  1  0.66465183  0.51094702  0.52733322  1
  O  O23  1  0.85110689  0.32344954  0.53094078  1
  O  O24  1  0.54270177  0.69349690  0.96812870  1
  O  O25  1  0.16095623  0.46309871  0.97284757  1
  O  O26  1  0.30929675  0.84035356  0.97465946  1
  O  O27  1  0.53539304  0.84070617  0.47148507  1
  O  O28  1  0.30056658  0.44959496  0.46769201  1
  O  O29  1  0.14547350  0.69275161  0.46771407  1
  O  O30  1  0.10135892  0.63190799  0.36593878  1
  O  O31  1  0.52696414  0.90211099  0.35882448  1
  O  O32  1  0.36369934  0.46669607  0.36604358  1
  O  O33  1  0.13513213  0.48907787  0.86053064  1
  O  O34  1  0.36020941  0.86769240  0.86298240  1
  O  O35  1  0.51603495  0.63979758  0.86611497  1
  O  O36  1  0.02293689  0.82778358  0.40956124  1
  O  O37  1  0.82480910  0.98408285  0.40834882  1
  O  O38  1  0.17563152  0.19044544  0.41115655  1
  O  O39  1  0.01626823  0.18369365  0.91018246  1
  O  O40  1  0.15130772  0.96705255  0.90748178  1
  O  O41  1  0.79518465  0.82138165  0.90969858  1
  O  O42  1  0.98565106  0.19679026  0.58341785  1
  O  O43  1  0.21640302  0.03254364  0.58439458  1
  O  O44  1  0.83441003  0.80819240  0.57808285  1
  O  O45  1  0.96722649  0.78064374  0.08589766  1
  O  O46  1  0.80758609  0.02345115  0.08641649  1
  O  O47  1  0.19319669  0.17529646  0.07890794  1
  O  O48  1  0.67966818  0.17218063  0.74385070  1
  O  O49  1  0.47203629  0.31378989  0.74621169  1
  O  O50  1  0.84094871  0.52751384  0.74476021  1
  O  O51  1  0.70679344  0.52990332  0.24673427  1
  O  O52  1  0.83017769  0.29954686  0.24796900  1
  O  O53  1  0.47375033  0.16888241  0.24565177  1
  O  O54  1  0.64358665  0.51538787  0.92340596  1
  O  O55  1  0.85364544  0.36343729  0.92523671  1
  O  O56  1  0.49329910  0.14693178  0.92346527  1
  O  O57  1  0.66733893  0.16329162  0.42837625  1
  O  O58  1  0.47984433  0.34016750  0.42790567  1
  O  O59  1  0.85852105  0.52238015  0.42688615  1
  O  O60  1  0.37441104  0.52567414  0.07832259  1
  O  O61  1  0.12755094  0.62878930  0.07964995  1
  O  O62  1  0.49623229  0.87759888  0.07995795  1
  O  O63  1  0.36250752  0.86711450  0.57573959  1
  O  O64  1  0.48459373  0.63029549  0.57639003  1
  O  O65  1  0.12575686  0.50769488  0.57384325  1
  O  O66  1  0.31979908  0.85711940  0.25394536  1
  O  O67  1  0.53669677  0.66954353  0.25586427  1
  O  O68  1  0.14181791  0.46334711  0.25709704  1
  O  O69  1  0.32257645  0.47148529  0.76040561  1
  O  O70  1  0.14664356  0.67054294  0.75993729  1
  O  O71  1  0.50582495  0.82944829  0.76074581  1
loop_
_geom_bond_atom_site_label_1
_geom_bond_atom_site_label_2
_geom_bond_distance
_geom_bond_site_symmetry_2
Na0 O44 2.187062 1_555
Na0 O42 2.606932 1_565
Na0 O43 2.670288 1_665
Na0 O37 2.714026 1_555
Na0 O36 2.842078 1_655
Na0 O38 2.913063 1_665
Na1 O47 2.327903 1_556
Na1 O39 2.573501 1_555
Na1 O40 2.590812 1_545
Na1 O45 2.829976 1_446
Na1 O46 2.877980 1_456
Na1 O41 2.929087 1_445
Na2 O48 2.509032 1_555
Na2 O55 2.567988 1_555
Na2 O56 2.582091 1_555
Na2 O50 2.763684 1_555
Na2 O49 2.775154 1_555
Na2 O54 2.884897 1_555
Na3 O57 2.557899 1_555
Na3 O52 2.585336 1_555
Na3 O53 2.614883 1_555
Na3 O51 2.755426 1_555
Na3 O58 2.827041 1_555
Na3 O59 2.837627 1_555
Na4 O60 2.430350 1_555
Na4 O62 2.631463 1_555
Na4 O61 2.635463 1_555
Na4 O67 2.801565 1_555
Na4 O68 2.811814 1_555
Na4 O66 2.863920 1_555
Na5 O71 2.446708 1_555
Na5 O64 2.647963 1_555
Na5 O69 2.677838 1_555
Na5 O70 2.820895 1_555
Na5 O63 2.832718 1_555
Na5 O65 3.034445 1_555
Ca0 O6 2.093036 1_555
Ca0 O44 2.214319 1_555
Ca0 O8 2.296545 1_655
Ca0 O42 2.384412 1_565
Ca0 O7 2.393897 1_665
Ca0 O43 2.456450 1_665
Ca1 O47 2.148291 1_555
Ca1 O11 2.228007 1_545
Ca1 O10 2.261588 1_555
Ca1 O46 2.289223 1_455
Ca1 O45 2.316527 1_445
Ca1 O9 2.332070 1_445
Ca2 O31 2.099086 1_555
Ca2 O30 2.281436 1_555
Ca2 O32 2.284357 1_555
Ca2 O66 2.288839 1_555
Ca2 O67 2.320903 1_555
Ca2 O68 2.359953 1_555
Hf0 O37 1.924251 1_555
Hf0 O2 2.074215 1_565
Hf0 O1 2.108807 1_555
Hf0 O36 2.151755 1_655
Hf0 O38 2.180678 1_665
Hf0 O0 2.243482 1_665
Hf1 O39 1.958664 1_655
Hf1 O5 1.975550 1_555
Hf1 O40 2.053634 1_645
Hf1 O3 2.150894 1_655
Hf1 O41 2.199575 1_545
Hf1 O4 2.336912 1_545
Hf2 O14 1.985765 1_555
Hf2 O48 1.998372 1_555
Hf2 O50 2.122449 1_555
Hf2 O49 2.141656 1_555
Hf2 O12 2.201393 1_555
Hf2 O13 2.207627 1_555
Hf3 O17 1.883378 1_555
Hf3 O16 2.084714 1_555
Hf3 O15 2.088751 1_555
Hf3 O53 2.151932 1_555
Hf3 O51 2.186641 1_555
Hf3 O52 2.321447 1_555
Hf4 O56 1.949194 1_555
Hf4 O18 1.952880 1_556
Hf4 O55 2.023268 1_555
Hf4 O20 2.120946 1_556
Hf4 O54 2.154110 1_555
Hf4 O19 2.235882 1_556
Hf5 O22 1.916135 1_555
Hf5 O57 2.008180 1_555
Hf5 O23 2.049446 1_555
Hf5 O21 2.070236 1_555
Hf5 O59 2.122758 1_555
Hf5 O58 2.138628 1_555
Hf6 O25 1.912068 1_554
Hf6 O26 1.982092 1_554
Hf6 O60 2.049493 1_555
Hf6 O24 2.173765 1_554
Hf6 O61 2.204122 1_555
Hf6 O62 2.355618 1_555
Hf7 O64 1.923501 1_555
Hf7 O27 1.932190 1_555
Hf7 O63 2.139737 1_555
Hf7 O28 2.222234 1_555
Hf7 O65 2.228779 1_555
Hf7 O29 2.328854 1_555
Hf8 O34 1.918415 1_555
Hf8 O33 1.992365 1_555
Hf8 O71 1.994496 1_555
Hf8 O70 2.134565 1_555
Hf8 O35 2.162211 1_555
Hf8 O69 2.273236 1_555
O0 S0 1.504915 1_555
O1 S1 1.527797 1_555
O2 S2 1.534041 1_555
O3 S3 1.497464 1_555
O4 S4 1.473089 1_655
O5 Si0 1.664217 1_545
O6 Si0 1.582364 1_555
O7 S3 1.456876 1_555
O8 S4 1.455017 1_555
O9 S1 1.444438 1_555
O10 S2 1.453782 1_455
O11 S0 1.455815 1_565
O12 S5 1.482394 1_555
O13 S6 1.484122 1_555
O14 Si1 1.649203 1_555
O15 S7 1.522134 1_555
O16 S8 1.519120 1_555
O17 Si2 1.707860 1_555
O18 Si2 1.621962 1_555
O19 S7 1.458554 1_555
O20 S8 1.475140 1_555
O21 S6 1.484098 1_555
O22 Si1 1.637315 1_555
O23 S5 1.495140 1_555
O24 S9 1.486473 1_555
O25 Si3 1.654136 1_555
O26 Si4 1.639372 1_555
O27 Si5 1.668829 1_555
O28 S10 1.492700 1_555
O29 S11 1.477149 1_555
O30 S11 1.458030 1_555
O31 Si5 1.580243 1_555
O32 S10 1.458014 1_555
O33 Si3 1.611432 1_555
O34 Si4 1.630846 1_555
O35 S9 1.472936 1_555
O36 S11 1.506305 1_555
O37 Si5 1.685115 1_555
O38 S10 1.500711 1_555
O39 Si3 1.645962 1_555
O40 Si4 1.625135 1_555
O41 S9 1.475317 1_555
O42 S5 1.459723 1_555
O43 S6 1.453960 1_555
O44 Si1 1.588726 1_555
O45 S7 1.456253 1_555
O46 S8 1.460069 1_555
O47 Si2 1.595857 1_555
O48 Si0 1.677207 1_545
O49 S3 1.512816 1_555
O50 S4 1.515530 1_655
O51 S1 1.518656 1_555
O52 S2 1.497915 1_555
O53 S0 1.525615 1_555
O54 S9 1.480660 1_555
O55 Si3 1.626893 1_655
O56 Si4 1.647954 1_545
O57 Si5 1.629797 1_545
O58 S10 1.486148 1_555
O59 S11 1.493227 1_655
O60 Si2 1.646789 1_555
O61 S7 1.497092 1_455
O62 S8 1.472001 1_565
O63 S6 1.506534 1_565
O64 Si1 1.687881 1_555
O65 S5 1.485058 1_455
O66 S0 1.460795 1_565
O67 S1 1.463894 1_555
O68 S2 1.461154 1_455
O69 S3 1.474933 1_555
O70 S4 1.493772 1_555
O71 Si0 1.646202 1_555
