# generated using pymatgen
data_Na4YZrSi2PO12
_symmetry_space_group_name_H-M   'P 1'
_cell_length_a   9.38031565
_cell_length_b   9.38031530
_cell_length_c   22.91096633
_cell_angle_alpha   90.13764037
_cell_angle_beta   89.86235964
_cell_angle_gamma   119.91778750
_symmetry_Int_Tables_number   1
_chemical_formula_structural   Na4YZrSi2PO12
_chemical_formula_sum   'Na24 Y6 Zr6 Si12 P6 O72'
_cell_volume   1747.29583318
_cell_formula_units_Z   6
loop_
 _symmetry_equiv_pos_site_id
 _symmetry_equiv_pos_as_xyz
  1  'x, y, z'
loop_
 _atom_site_type_symbol
 _atom_site_label
 _atom_site_symmetry_multiplicity
 _atom_site_fract_x
 _atom_site_fract_y
 _atom_site_fract_z
 _atom_site_occupancy
  Na  Na0  1  0.64541068  0.00681781  0.25153032  1
  Na  Na1  1  0.36993368  0.36949659  0.24402468  1
  Na  Na2  1  0.98745120  0.62425296  0.24943679  1
  Na  Na3  1  0.63050341  0.63006632  0.74402468  1
  Na  Na4  1  0.99318219  0.35458932  0.75153032  1
  Na  Na5  1  0.37574704  0.01254880  0.74943679  1
  Na  Na6  1  0.31207768  0.34015081  0.58486332  1
  Na  Na7  1  0.03660068  0.70282959  0.57735768  1
  Na  Na8  1  0.65411820  0.95758596  0.58276979  1
  Na  Na9  1  0.29717041  0.96339932  0.07735768  1
  Na  Na10  1  0.65984919  0.68792232  0.08486332  1
  Na  Na11  1  0.04241404  0.34588180  0.08276979  1
  Na  Na12  1  0.97874368  0.67348481  0.91819732  1
  Na  Na13  1  0.70326668  0.03616359  0.91069168  1
  Na  Na14  1  0.32078420  0.29091996  0.91610379  1
  Na  Na15  1  0.96383641  0.29673332  0.41069168  1
  Na  Na16  1  0.32651519  0.02125632  0.41819732  1
  Na  Na17  1  0.70908004  0.67921580  0.41610379  1
  Na  Na18  1  0.99296338  0.98742704  0.49823545  1
  Na  Na19  1  0.01257296  0.00703662  0.99823545  1
  Na  Na20  1  0.65963038  0.32076004  0.83156845  1
  Na  Na21  1  0.67923996  0.34036962  0.33156845  1
  Na  Na22  1  0.32629638  0.65409404  0.16490245  1
  Na  Na23  1  0.34590596  0.67370362  0.66490245  1
  Y  Y0  1  0.99566091  0.99694762  0.34893833  1
  Y  Y1  1  0.00305238  0.00433909  0.84893833  1
  Y  Y2  1  0.66232791  0.33028062  0.68227133  1
  Y  Y3  1  0.66971938  0.33767209  0.18227133  1
  Y  Y4  1  0.32899391  0.66361462  0.01560533  1
  Y  Y5  1  0.33638538  0.67100609  0.51560533  1
  Zr  Zr0  1  0.99888838  0.00111223  0.64927040  1
  Zr  Zr1  1  0.99888777  0.00111162  0.14927040  1
  Zr  Zr2  1  0.66555538  0.33444523  0.98260340  1
  Zr  Zr3  1  0.66555477  0.33444462  0.48260340  1
  Zr  Zr4  1  0.33222138  0.66777923  0.31593740  1
  Zr  Zr5  1  0.33222077  0.66777862  0.81593740  1
  Si  Si0  1  0.69595120  0.70095824  0.25051645  1
  Si  Si1  1  0.00468764  0.30283469  0.25113317  1
  Si  Si2  1  0.29904176  0.30404880  0.75051645  1
  Si  Si3  1  0.69716531  0.99531236  0.75113317  1
  Si  Si4  1  0.36261820  0.03429124  0.58384945  1
  Si  Si5  1  0.67135464  0.63616769  0.58446617  1
  Si  Si6  1  0.96570876  0.63738180  0.08384945  1
  Si  Si7  1  0.36383231  0.32864536  0.08446617  1
  Si  Si8  1  0.02928420  0.36762524  0.91718345  1
  Si  Si9  1  0.33802064  0.96950169  0.91780017  1
  Si  Si10  1  0.63237476  0.97071580  0.41718345  1
  Si  Si11  1  0.03049831  0.66197936  0.41780017  1
  P  P0  1  0.29430356  0.99332937  0.24996449  1
  P  P1  1  0.00667063  0.70569644  0.74996449  1
  P  P2  1  0.96097056  0.32666237  0.58329749  1
  P  P3  1  0.67333763  0.03902944  0.08329749  1
  P  P4  1  0.62763656  0.65999637  0.91663149  1
  P  P5  1  0.34000363  0.37236344  0.41663149  1
  O  O0  1  0.22182913  0.02298812  0.30560825  1
  O  O1  1  0.80692776  0.77913719  0.30831742  1
  O  O2  1  0.98181696  0.19813948  0.30967134  1
  O  O3  1  0.22086281  0.19307224  0.80831742  1
  O  O4  1  0.97701188  0.77817087  0.80560825  1
  O  O5  1  0.80186052  0.01818304  0.80967134  1
  O  O6  1  0.79509189  0.97160882  0.69410638  1
  O  O7  1  0.17720221  0.20494170  0.69374695  1
  O  O8  1  0.02686970  0.81869056  0.69660127  1
  O  O9  1  0.79505830  0.82279779  0.19374695  1
  O  O10  1  0.02839118  0.20490811  0.19410638  1
  O  O11  1  0.18130944  0.97313030  0.19660127  1
  O  O12  1  0.88849613  0.35632112  0.63894125  1
  O  O13  1  0.47359476  0.11247019  0.64165042  1
  O  O14  1  0.64848396  0.53147248  0.64300434  1
  O  O15  1  0.88752981  0.52640524  0.14165042  1
  O  O16  1  0.64367888  0.11150387  0.13894125  1
  O  O17  1  0.46852752  0.35151604  0.14300434  1
  O  O18  1  0.46175889  0.30494182  0.02743938  1
  O  O19  1  0.84386921  0.53827470  0.02707995  1
  O  O20  1  0.69353670  0.15202356  0.02993427  1
  O  O21  1  0.46172530  0.15613079  0.52707995  1
  O  O22  1  0.69505818  0.53824111  0.52743938  1
  O  O23  1  0.84797644  0.30646330  0.52993427  1
  O  O24  1  0.55516213  0.68965512  0.97227525  1
  O  O25  1  0.14026076  0.44580419  0.97498442  1
  O  O26  1  0.31514996  0.86480648  0.97633834  1
  O  O27  1  0.55419581  0.85973924  0.47498442  1
  O  O28  1  0.31034488  0.44483787  0.47227525  1
  O  O29  1  0.13519352  0.68485004  0.47633834  1
  O  O30  1  0.12842489  0.63827582  0.36077338  1
  O  O31  1  0.51053521  0.87160870  0.36041395  1
  O  O32  1  0.36020270  0.48535756  0.36326827  1
  O  O33  1  0.12839130  0.48946479  0.86041395  1
  O  O34  1  0.36172418  0.87157511  0.86077338  1
  O  O35  1  0.51464244  0.63979730  0.86326827  1
  O  O36  1  0.01259956  0.82608611  0.41412110  1
  O  O37  1  0.81898780  0.00042913  0.41345627  1
  O  O38  1  0.19365234  0.19629390  0.41007211  1
  O  O39  1  0.99957087  0.18101220  0.91345627  1
  O  O40  1  0.17391389  0.98740044  0.91412110  1
  O  O41  1  0.80370610  0.80634766  0.91007211  1
  O  O42  1  0.96696710  0.16361651  0.58697596  1
  O  O43  1  0.18324580  0.02858451  0.58744668  1
  O  O44  1  0.84172155  0.81846987  0.58682618  1
  O  O45  1  0.97141549  0.81675420  0.08744668  1
  O  O46  1  0.83638349  0.03303290  0.08697596  1
  O  O47  1  0.18153013  0.15827845  0.08682618  1
  O  O48  1  0.67926656  0.15941911  0.74745410  1
  O  O49  1  0.48565480  0.33376213  0.74678927  1
  O  O50  1  0.86031934  0.52962690  0.74340511  1
  O  O51  1  0.66623787  0.51434520  0.24678927  1
  O  O52  1  0.84058089  0.32073344  0.24745410  1
  O  O53  1  0.47037310  0.13968066  0.24340511  1
  O  O54  1  0.63363410  0.49694951  0.92030896  1
  O  O55  1  0.84991280  0.36191751  0.92077968  1
  O  O56  1  0.50838855  0.15180287  0.92015918  1
  O  O57  1  0.63808249  0.15008720  0.42077968  1
  O  O58  1  0.50305049  0.36636590  0.42030896  1
  O  O59  1  0.84819713  0.49161145  0.42015918  1
  O  O60  1  0.34593256  0.49275311  0.08078810  1
  O  O61  1  0.15232080  0.66709613  0.08012327  1
  O  O62  1  0.52698534  0.86296090  0.07673911  1
  O  O63  1  0.33290387  0.84767920  0.58012327  1
  O  O64  1  0.50724689  0.65406744  0.58078810  1
  O  O65  1  0.13703910  0.47301466  0.57673911  1
  O  O66  1  0.30030010  0.83028351  0.25364296  1
  O  O67  1  0.51657880  0.69525151  0.25411368  1
  O  O68  1  0.17505455  0.48513687  0.25349318  1
  O  O69  1  0.30474849  0.48342120  0.75411368  1
  O  O70  1  0.16971649  0.69969990  0.75364296  1
  O  O71  1  0.51486313  0.82494545  0.75349318  1
loop_
_geom_bond_atom_site_label_1
_geom_bond_atom_site_label_2
_geom_bond_distance
_geom_bond_site_symmetry_2
Na0 O53 2.515465 1_555
Na0 O67 2.546141 1_545
Na0 O52 2.579580 1_555
Na0 O16 2.765284 1_555
Na0 O31 2.798542 1_545
Na0 O66 2.806514 1_545
Na1 O51 2.410125 1_555
Na1 O17 2.526659 1_555
Na1 O68 2.557417 1_555
Na1 O67 2.662349 1_555
Na1 O53 2.749705 1_555
Na1 O32 2.955797 1_555
Na1 O10 3.005148 1_555
Na2 O52 2.468425 1_555
Na2 O66 2.588316 1_655
Na2 O15 2.638450 1_555
Na2 O51 2.654647 1_555
Na2 O68 2.664666 1_655
Na2 O30 2.848473 1_655
Na3 O49 2.410125 1_555
Na3 O14 2.526659 1_555
Na3 O71 2.557417 1_555
Na3 O69 2.662349 1_555
Na3 O50 2.749705 1_555
Na3 O35 2.955797 1_555
Na3 O6 3.005148 1_555
Na4 O50 2.515465 1_555
Na4 O69 2.546141 1_655
Na4 O48 2.579580 1_555
Na4 O12 2.765284 1_555
Na4 O33 2.798542 1_655
Na4 O70 2.806514 1_655
Na5 O48 2.468425 1_555
Na5 O70 2.588315 1_545
Na5 O13 2.638450 1_555
Na5 O49 2.654646 1_555
Na5 O71 2.664666 1_545
Na5 O34 2.848473 1_545
Na6 O65 2.515480 1_555
Na6 O43 2.546141 1_555
Na6 O64 2.579585 1_555
Na6 O28 2.765268 1_555
Na6 O7 2.798542 1_555
Na6 O42 2.806514 1_455
Na7 O63 2.410118 1_555
Na7 O29 2.526632 1_555
Na7 O44 2.557417 1_455
Na7 O43 2.662349 1_565
Na7 O65 2.749689 1_555
Na7 O8 2.955797 1_555
Na7 O22 3.005148 1_455
Na8 O64 2.468416 1_555
Na8 O42 2.588316 1_565
Na8 O27 2.638428 1_555
Na8 O63 2.654656 1_555
Na8 O44 2.664666 1_555
Na8 O6 2.848473 1_555
Na9 O61 2.410118 1_555
Na9 O26 2.526632 1_554
Na9 O47 2.557417 1_565
Na9 O45 2.662349 1_455
Na9 O62 2.749689 1_555
Na9 O11 2.955797 1_555
Na9 O18 3.005148 1_565
Na10 O62 2.515480 1_555
Na10 O45 2.546141 1_555
Na10 O60 2.579585 1_555
Na10 O24 2.765268 1_554
Na10 O9 2.798542 1_555
Na10 O46 2.806514 1_565
Na11 O60 2.468416 1_555
Na11 O46 2.588315 1_455
Na11 O25 2.638428 1_554
Na11 O61 2.654656 1_555
Na11 O47 2.664666 1_555
Na11 O10 2.848473 1_555
Na12 O41 2.515465 1_555
Na12 O55 2.546150 1_555
Na12 O40 2.579580 1_655
Na12 O4 2.765284 1_555
Na12 O19 2.798522 1_556
Na12 O54 2.806505 1_555
Na13 O39 2.410125 1_555
Na13 O5 2.526659 1_555
Na13 O56 2.557400 1_555
Na13 O55 2.662338 1_555
Na13 O41 2.749705 1_545
Na13 O20 2.955770 1_556
Na13 O34 3.005148 1_545
Na14 O40 2.468425 1_545
Na14 O54 2.588320 1_555
Na14 O3 2.638450 1_555
Na14 O39 2.654647 1_455
Na14 O56 2.664682 1_555
Na14 O18 2.848458 1_556
Na15 O37 2.410125 1_555
Na15 O2 2.526659 1_555
Na15 O59 2.557400 1_555
Na15 O57 2.662338 1_555
Na15 O38 2.749705 1_655
Na15 O23 2.955770 1_555
Na15 O30 3.005148 1_655
Na16 O38 2.515465 1_555
Na16 O57 2.546150 1_555
Na16 O36 2.579580 1_545
Na16 O0 2.765284 1_555
Na16 O21 2.798522 1_555
Na16 O58 2.806505 1_555
Na17 O36 2.468425 1_655
Na17 O58 2.588320 1_555
Na17 O1 2.638450 1_555
Na17 O37 2.654646 1_565
Na17 O59 2.664682 1_555
Na17 O22 2.848458 1_555
Na18 O36 2.510103 1_655
Na18 O44 2.530406 1_555
Na18 O37 2.581830 1_565
Na18 O43 2.615127 1_665
Na18 O42 2.703338 1_565
Na18 O38 2.790007 1_665
Na19 O40 2.510103 1_545
Na19 O47 2.530406 1_556
Na19 O39 2.581830 1_455
Na19 O45 2.615127 1_446
Na19 O46 2.703338 1_456
Na19 O41 2.790007 1_445
Na20 O48 2.510103 1_555
Na20 O56 2.530406 1_555
Na20 O49 2.581830 1_555
Na20 O55 2.615127 1_555
Na20 O54 2.703338 1_555
Na20 O50 2.790007 1_555
Na21 O52 2.510103 1_555
Na21 O59 2.530406 1_555
Na21 O51 2.581830 1_555
Na21 O57 2.615127 1_555
Na21 O58 2.703338 1_555
Na21 O53 2.790007 1_555
Na22 O60 2.510103 1_555
Na22 O68 2.530406 1_555
Na22 O61 2.581830 1_555
Na22 O67 2.615127 1_555
Na22 O66 2.703338 1_555
Na22 O62 2.790007 1_555
Na23 O64 2.510103 1_555
Na23 O71 2.530406 1_555
Na23 O63 2.581830 1_555
Na23 O69 2.615127 1_555
Na23 O70 2.703338 1_555
Na23 O65 2.790007 1_555
O0 P0 1.532194 1_545
O0 Y0 2.240577 1_445
O1 Si0 1.617288 1_555
O1 Y0 2.136683 1_555
O2 Si1 1.613692 1_655
O2 Y0 2.154321 1_545
O3 Si2 1.617288 1_555
O3 Y1 2.136683 1_555
O4 P1 1.532194 1_655
O4 Y1 2.240577 1_665
O5 Si3 1.613692 1_545
O5 Y1 2.154321 1_655
O6 Si3 1.672378 1_555
O6 Zr0 2.061673 1_565
O7 Si2 1.674401 1_555
O7 Zr0 2.073762 1_455
O8 P1 1.568080 1_555
O8 Zr0 2.152028 1_465
O9 Si0 1.674401 1_555
O9 Zr1 2.073762 1_565
O10 Si1 1.672378 1_555
O10 Zr1 2.061673 1_455
O11 P0 1.568080 1_555
O11 Zr1 2.152028 1_465
O12 P2 1.532194 1_555
O12 Y2 2.240577 1_555
O13 Si4 1.617288 1_555
O13 Y2 2.136683 1_555
O14 Si5 1.613692 1_555
O14 Y2 2.154321 1_555
O15 Si6 1.617288 1_555
O15 Y3 2.136683 1_555
O16 P3 1.532194 1_555
O16 Y3 2.240577 1_555
O17 Si7 1.613692 1_555
O17 Y3 2.154321 1_555
O18 Si7 1.672378 1_555
O18 Zr2 2.061673 1_554
O19 Si6 1.674401 1_555
O19 Zr2 2.073762 1_554
O20 P3 1.568080 1_555
O20 Zr2 2.152028 1_554
O21 Si4 1.674401 1_555
O21 Zr3 2.073762 1_555
O22 Si5 1.672378 1_555
O22 Zr3 2.061673 1_555
O23 P2 1.568080 1_555
O23 Zr3 2.152028 1_555
O24 P4 1.532194 1_555
O24 Y4 2.240577 1_556
O25 Si8 1.617288 1_555
O25 Y4 2.136683 1_556
O26 Si9 1.613692 1_555
O26 Y4 2.154321 1_556
O27 Si10 1.617288 1_555
O27 Y5 2.136683 1_555
O28 P5 1.532194 1_555
O28 Y5 2.240577 1_555
O29 Si11 1.613692 1_555
O29 Y5 2.154321 1_555
O30 Si11 1.672378 1_555
O30 Zr4 2.061673 1_555
O31 Si10 1.674401 1_555
O31 Zr4 2.073762 1_555
O32 P5 1.568080 1_555
O32 Zr4 2.152028 1_555
O33 Si8 1.674401 1_555
O33 Zr5 2.073762 1_555
O34 Si9 1.672378 1_555
O34 Zr5 2.061673 1_555
O35 P4 1.568080 1_555
O35 Zr5 2.152028 1_555
O36 Si11 1.632013 1_555
O36 Y0 2.256305 1_455
O37 Si10 1.631534 1_545
O37 Y0 2.230361 1_545
O38 P5 1.540476 1_555
O38 Y0 2.333102 1_445
O39 Si8 1.631533 1_655
O39 Y1 2.230361 1_655
O40 Si9 1.632013 1_555
O40 Y1 2.256305 1_565
O41 P4 1.540476 1_555
O41 Y1 2.333102 1_665
O42 P2 1.560722 1_555
O42 Zr0 2.217669 1_555
O43 Si4 1.658375 1_555
O43 Zr0 2.146799 1_455
O44 Si5 1.659834 1_555
O44 Zr0 2.152746 1_565
O45 Si6 1.658375 1_555
O45 Zr1 2.146799 1_565
O46 P3 1.560722 1_555
O46 Zr1 2.217669 1_555
O47 Si7 1.659834 1_555
O47 Zr1 2.152746 1_455
O48 Si3 1.632013 1_545
O48 Y2 2.256305 1_555
O49 Si2 1.631534 1_555
O49 Y2 2.230361 1_555
O50 P1 1.540476 1_655
O50 Y2 2.333102 1_555
O51 Si0 1.631533 1_555
O51 Y3 2.230361 1_555
O52 Si1 1.632013 1_655
O52 Y3 2.256305 1_555
O53 P0 1.540476 1_545
O53 Y3 2.333102 1_555
O54 P4 1.560735 1_555
O54 Zr2 2.217669 1_555
O55 Si8 1.658360 1_655
O55 Zr2 2.146799 1_555
O56 Si9 1.659832 1_545
O56 Zr2 2.152746 1_555
O57 Si10 1.658360 1_545
O57 Zr3 2.146799 1_555
O58 P5 1.560735 1_555
O58 Zr3 2.217669 1_555
O59 Si11 1.659833 1_655
O59 Zr3 2.152746 1_555
O60 Si7 1.632027 1_555
O60 Y4 2.256305 1_555
O61 Si6 1.631520 1_455
O61 Y4 2.230361 1_555
O62 P3 1.540471 1_565
O62 Y4 2.333102 1_555
O63 Si4 1.631520 1_565
O63 Y5 2.230361 1_555
O64 Si5 1.632027 1_555
O64 Y5 2.256305 1_555
O65 P2 1.540471 1_455
O65 Y5 2.333102 1_555
O66 P0 1.560722 1_555
O66 Zr4 2.217669 1_555
O67 Si0 1.658375 1_555
O67 Zr4 2.146799 1_555
O68 Si1 1.659834 1_555
O68 Zr4 2.152746 1_555
O69 Si2 1.658375 1_555
O69 Zr5 2.146799 1_555
O70 P1 1.560722 1_555
O70 Zr5 2.217669 1_555
O71 Si3 1.659834 1_555
O71 Zr5 2.152746 1_555
