# generated using pymatgen
data_Th(GePt)2
_symmetry_space_group_name_H-M   'P 1'
_cell_length_a   5.89936193
_cell_length_b   5.89936193
_cell_length_c   5.89936193
_cell_angle_alpha   136.05886049
_cell_angle_beta   136.05886049
_cell_angle_gamma   63.88934912
_symmetry_Int_Tables_number   1
_chemical_formula_structural   Th(GePt)2
_chemical_formula_sum   'Th1 Ge2 Pt2'
_cell_volume   97.54457197
_cell_formula_units_Z   1
loop_
 _symmetry_equiv_pos_site_id
 _symmetry_equiv_pos_as_xyz
  1  'x, y, z'
loop_
 _atom_site_type_symbol
 _atom_site_label
 _atom_site_symmetry_multiplicity
 _atom_site_fract_x
 _atom_site_fract_y
 _atom_site_fract_z
 _atom_site_occupancy
  Th  Th0  1  0.00000000  0.00000000  0.00000000  1
  Ge  Ge0  1  0.62352900  0.62352900  0.00000000  1
  Ge  Ge1  1  0.37647100  0.37647100  0.00000000  1
  Pt  Pt0  1  0.75000000  0.25000000  0.50000000  1
  Pt  Pt1  1  0.25000000  0.75000000  0.50000000  1
loop_
_geom_bond_atom_site_label_1
_geom_bond_atom_site_label_2
_geom_bond_distance
_geom_bond_site_symmetry_2
Ge0 Ge1 2.473524 1_555
Ge0 Pt0 2.544549 1_565
Ge0 Pt1 2.544549 1_554
Ge0 Pt1 2.544549 1_655
Ge0 Pt0 2.544549 1_554
Ge0 Th0 3.357443 1_565
Ge0 Th0 3.357443 1_666
Ge0 Th0 3.357443 1_655
Ge0 Th0 3.357443 1_554
Ge1 Pt0 2.544549 1_555
Ge1 Pt1 2.544549 1_555
Ge1 Pt1 2.544549 1_544
Ge1 Pt0 2.544549 1_454
Ge1 Th0 3.357443 1_554
Ge1 Th0 3.357443 1_565
Ge1 Th0 3.357443 1_655
Ge1 Th0 3.357443 1_666
Pt0 Th0 3.337114 1_555
Pt0 Th0 3.337114 1_655
Pt0 Th0 3.337114 1_666
Pt0 Th0 3.337114 1_656
Pt1 Th0 3.337114 1_566
Pt1 Th0 3.337114 1_555
Pt1 Th0 3.337114 1_565
Pt1 Th0 3.337114 1_666
