# generated using pymatgen
data_TlInSe2
_symmetry_space_group_name_H-M   'P 1'
_cell_length_a   6.73533439
_cell_length_b   6.73533427
_cell_length_c   6.73533378
_cell_angle_alpha   105.33974467
_cell_angle_beta   105.33975641
_cell_angle_gamma   118.09374568
_symmetry_Int_Tables_number   1
_chemical_formula_structural   TlInSe2
_chemical_formula_sum   'Tl2 In2 Se4'
_cell_volume   231.16000428
_cell_formula_units_Z   2
loop_
 _symmetry_equiv_pos_site_id
 _symmetry_equiv_pos_as_xyz
  1  'x, y, z'
loop_
 _atom_site_type_symbol
 _atom_site_label
 _atom_site_symmetry_multiplicity
 _atom_site_fract_x
 _atom_site_fract_y
 _atom_site_fract_z
 _atom_site_occupancy
  Tl  Tl0  1  0.25000000  0.25000000  0.00000000  1
  Tl  Tl1  1  0.75000000  0.75000000  0.00000000  1
  In  In0  1  0.25000000  0.75000000  0.50000000  1
  In  In1  1  0.75000000  0.25000000  0.50000000  1
  Se  Se0  1  0.82931736  0.67068264  0.50000000  1
  Se  Se1  1  0.32931736  0.82931736  0.15863573  1
  Se  Se2  1  0.17068264  0.32931736  0.50000000  1
  Se  Se3  1  0.67068264  0.17068264  0.84136427  1
loop_
_geom_bond_atom_site_label_1
_geom_bond_atom_site_label_2
_geom_bond_distance
_geom_bond_site_symmetry_2
In0 Se1 2.624516 1_555
In0 Se3 2.624521 1_565
In0 Se2 2.624522 1_555
In0 Se0 2.624523 1_455
In1 Se3 2.624516 1_555
In1 Se1 2.624521 1_545
In1 Se0 2.624522 1_555
In1 Se2 2.624523 1_655
