# generated using pymatgen
data_Na14Ca5Ge3(PO4)12
_symmetry_space_group_name_H-M   'P 1'
_cell_length_a   18.31123956
_cell_length_b   9.16754495
_cell_length_c   22.26561279
_cell_angle_alpha   89.99461923
_cell_angle_beta   89.98388638
_cell_angle_gamma   119.64576350
_symmetry_Int_Tables_number   1
_chemical_formula_structural   Na14Ca5Ge3(PO4)12
_chemical_formula_sum   'Na42 Ca15 Ge9 P36 O144'
_cell_volume   3248.44281981
_cell_formula_units_Z   3
loop_
 _symmetry_equiv_pos_site_id
 _symmetry_equiv_pos_as_xyz
  1  'x, y, z'
loop_
 _atom_site_type_symbol
 _atom_site_label
 _atom_site_symmetry_multiplicity
 _atom_site_fract_x
 _atom_site_fract_y
 _atom_site_fract_z
 _atom_site_occupancy
  Na  Na0  1  0.18446485  0.36113898  0.24747921  1
  Na  Na1  1  0.68594356  0.36409276  0.24657675  1
  Na  Na2  1  0.99636969  0.63515809  0.24728086  1
  Na  Na3  1  0.49663552  0.63292910  0.24709291  1
  Na  Na4  1  0.31828351  0.63047590  0.74761215  1
  Na  Na5  1  0.81936595  0.62856262  0.74847298  1
  Na  Na6  1  0.18275109  0.00723062  0.74789148  1
  Na  Na7  1  0.68174394  0.00789535  0.74826078  1
  Na  Na8  1  0.15874872  0.33634914  0.58307911  1
  Na  Na9  1  0.65868055  0.33625959  0.58317316  1
  Na  Na10  1  0.01004211  0.68319143  0.58347764  1
  Na  Na11  1  0.50996328  0.68316197  0.58359689  1
  Na  Na12  1  0.33145336  0.97833541  0.58243926  1
  Na  Na13  1  0.83136357  0.97835353  0.58259356  1
  Na  Na14  1  0.15125943  0.96949772  0.08219764  1
  Na  Na15  1  0.65854352  0.97422774  0.08258273  1
  Na  Na16  1  0.33152306  0.68071451  0.08216364  1
  Na  Na17  1  0.01170342  0.34404093  0.08215553  1
  Na  Na18  1  0.51572943  0.33768645  0.08097738  1
  Na  Na19  1  0.48548358  0.67533009  0.91472872  1
  Na  Na20  1  0.98608915  0.67286370  0.91505706  1
  Na  Na21  1  0.35429958  0.03656642  0.91470143  1
  Na  Na22  1  0.16255189  0.28972949  0.91484875  1
  Na  Na23  1  0.66528520  0.29633240  0.91515920  1
  Na  Na24  1  0.48168543  0.29183529  0.41576247  1
  Na  Na25  1  0.98182114  0.29190167  0.41542778  1
  Na  Na26  1  0.16390789  0.03640748  0.41522033  1
  Na  Na27  1  0.66402662  0.03646073  0.41549251  1
  Na  Na28  1  0.35401366  0.67012246  0.41575009  1
  Na  Na29  1  0.85430101  0.67045517  0.41545319  1
  Na  Na30  1  0.99950470  0.00015365  0.49987070  1
  Na  Na31  1  0.49942999  0.00015701  0.50017880  1
  Na  Na32  1  0.98324600  0.98459894  0.99952205  1
  Na  Na33  1  0.50102100  0.00299051  0.00070049  1
  Na  Na34  1  0.34149365  0.33395935  0.83072603  1
  Na  Na35  1  0.84210248  0.31991463  0.83373562  1
  Na  Na36  1  0.33269279  0.31716154  0.33105163  1
  Na  Na37  1  0.83352497  0.31765382  0.33131949  1
  Na  Na38  1  0.17300021  0.67879213  0.16884128  1
  Na  Na39  1  0.68025603  0.68293527  0.16552080  1
  Na  Na40  1  0.16057399  0.65568168  0.66844402  1
  Na  Na41  1  0.65941028  0.65390172  0.66849234  1
  Ca  Ca0  1  0.99844032  0.00133797  0.34606614  1
  Ca  Ca1  1  0.49799513  0.00058180  0.34660164  1
  Ca  Ca2  1  0.99522332  0.00233495  0.85180764  1
  Ca  Ca3  1  0.50123280  0.00490882  0.84757814  1
  Ca  Ca4  1  0.33652327  0.33322905  0.68432320  1
  Ca  Ca5  1  0.83657827  0.33375000  0.68402180  1
  Ca  Ca6  1  0.33298814  0.32605729  0.18353262  1
  Ca  Ca7  1  0.83364887  0.33185449  0.18526177  1
  Ca  Ca8  1  0.33332244  0.33264702  0.98565594  1
  Ca  Ca9  1  0.33376805  0.33319456  0.48622278  1
  Ca  Ca10  1  0.83373072  0.33309477  0.48619682  1
  Ca  Ca11  1  0.16676785  0.66641545  0.01908611  1
  Ca  Ca12  1  0.67095094  0.66814658  0.01904330  1
  Ca  Ca13  1  0.16722123  0.66745123  0.51884849  1
  Ca  Ca14  1  0.66719697  0.66752344  0.51893497  1
  Ge  Ge0  1  -0.00001279  0.00267372  0.65527994  1
  Ge  Ge1  1  0.50029439  0.00383274  0.65603303  1
  Ge  Ge2  1  0.99287066  0.99440392  0.15151211  1
  Ge  Ge3  1  0.49696480  0.99287536  0.15603440  1
  Ge  Ge4  1  0.83351967  0.32848668  0.98385204  1
  Ge  Ge5  1  0.16947418  0.67261874  0.31444057  1
  Ge  Ge6  1  0.67032517  0.67357342  0.31441658  1
  Ge  Ge7  1  0.15777680  0.65445882  0.81670085  1
  Ge  Ge8  1  0.67034761  0.66595244  0.81620035  1
  P  P0  1  0.14432907  0.98277889  0.25055280  1
  P  P1  1  0.64538689  0.98426220  0.25214619  1
  P  P2  1  0.34486137  0.70712478  0.25161493  1
  P  P3  1  0.84669472  0.71330496  0.25076004  1
  P  P4  1  0.00867047  0.31135397  0.25116862  1
  P  P5  1  0.51000966  0.31157852  0.25049349  1
  P  P6  1  0.14350354  0.30607616  0.75302131  1
  P  P7  1  0.64631378  0.30998955  0.75121083  1
  P  P8  1  0.00738742  0.71126642  0.75272304  1
  P  P9  1  0.50843291  0.71014259  0.75287943  1
  P  P10  1  0.34400303  0.98096801  0.75205375  1
  P  P11  1  0.84417687  0.98091018  0.75092773  1
  P  P12  1  0.48688928  0.31469740  0.58618648  1
  P  P13  1  0.98704224  0.31498857  0.58622048  1
  P  P14  1  0.17055505  0.02697068  0.58941671  1
  P  P15  1  0.67046532  0.02692711  0.58928628  1
  P  P16  1  0.34277668  0.65896859  0.58948260  1
  P  P17  1  0.84273999  0.65885789  0.58931735  1
  P  P18  1  0.48670969  0.65680934  0.08944366  1
  P  P19  1  0.97567974  0.64139654  0.08405060  1
  P  P20  1  0.34341589  0.02666128  0.08645515  1
  P  P21  1  0.84117794  0.04863437  0.08334850  1
  P  P22  1  0.16909120  0.31131602  0.08993671  1
  P  P23  1  0.67998906  0.31525178  0.08486276  1
  P  P24  1  0.30845876  0.65904053  0.91209063  1
  P  P25  1  0.81186899  0.64575845  0.91581689  1
  P  P26  1  0.01449744  0.37911071  0.91979115  1
  P  P27  1  0.52266861  0.38585091  0.91376327  1
  P  P28  1  0.16951351  0.95836635  0.91196473  1
  P  P29  1  0.67653120  0.97050161  0.91752911  1
  P  P30  1  0.30909828  0.95751661  0.41338811  1
  P  P31  1  0.80941084  0.95787249  0.41348036  1
  P  P32  1  0.16985517  0.38154187  0.41177830  1
  P  P33  1  0.66990344  0.38168369  0.41172459  1
  P  P34  1  0.02134022  0.66143273  0.41176858  1
  P  P35  1  0.52148706  0.66126492  0.41158027  1
  O  O0  1  0.10857152  0.00540535  0.30882916  1
  O  O1  1  0.60863774  0.00561812  0.30985249  1
  O  O2  1  0.39476848  0.77577037  0.30870928  1
  O  O3  1  0.89434252  0.77663433  0.30885337  1
  O  O4  1  0.49909840  0.21884371  0.30857766  1
  O  O5  1  0.99869879  0.22035519  0.30946448  1
  O  O6  1  0.10899451  0.20491463  0.80955178  1
  O  O7  1  0.61188957  0.21069862  0.80823944  1
  O  O8  1  0.49634127  0.78155516  0.81081716  1
  O  O9  1  0.99818624  0.78878345  0.80943027  1
  O  O10  1  0.39071374  0.00212815  0.80996495  1
  O  O11  1  0.89460473  0.00447935  0.80561066  1
  O  O12  1  0.39607388  0.96279999  0.69664745  1
  O  O13  1  0.89011675  0.95749395  0.69302706  1
  O  O14  1  0.08685228  0.21259458  0.69577475  1
  O  O15  1  0.58833548  0.21438221  0.69489177  1
  O  O16  1  0.02229902  0.83325009  0.69656003  1
  O  O17  1  0.52240798  0.83477741  0.69757620  1
  O  O18  1  0.39328629  0.82389226  0.19518243  1
  O  O19  1  0.89586815  0.83529087  0.19541481  1
  O  O20  1  0.01730589  0.20861974  0.19550362  1
  O  O21  1  0.52028878  0.20796242  0.19458671  1
  O  O22  1  0.08153007  0.94938051  0.19538643  1
  O  O23  1  0.58180577  0.95399002  0.19678353  1
  O  O24  1  0.44161412  0.35016655  0.63543263  1
  O  O25  1  0.94187545  0.35041011  0.63563814  1
  O  O26  1  0.22704425  0.11141324  0.64281938  1
  O  O27  1  0.72725484  0.11175694  0.64250640  1
  O  O28  1  0.32789940  0.54486920  0.64280787  1
  O  O29  1  0.82818072  0.54548426  0.64281415  1
  O  O30  1  0.44376489  0.54633006  0.14301781  1
  O  O31  1  0.94104910  0.53860679  0.14050419  1
  O  O32  1  0.32601924  0.11603293  0.13601672  1
  O  O33  1  0.82711214  0.12575218  0.13819208  1
  O  O34  1  0.22542335  0.34052691  0.14352967  1
  O  O35  1  0.72766919  0.33752223  0.14218043  1
  O  O36  1  0.20443380  0.27709179  0.03191283  1
  O  O37  1  0.72836775  0.28899619  0.02767346  1
  O  O38  1  0.43420715  0.59031263  0.03149864  1
  O  O39  1  0.92034623  0.54689627  0.02595006  1
  O  O40  1  0.36237240  0.12357225  0.02642465  1
  O  O41  1  0.86006014  0.17446867  0.02649128  1
  O  O42  1  0.20516304  0.13154435  0.53132001  1
  O  O43  1  0.70495335  0.13137142  0.53114144  1
  O  O44  1  0.36072247  0.58968001  0.53125416  1
  O  O45  1  0.86054741  0.58932190  0.53113472  1
  O  O46  1  0.43771961  0.27590870  0.52623495  1
  O  O47  1  0.93774011  0.27582186  0.52639245  1
  O  O48  1  0.27131620  0.67579743  0.97071458  1
  O  O49  1  0.77072998  0.66838547  0.97026863  1
  O  O50  1  0.06160204  0.45088576  0.97769080  1
  O  O51  1  0.56590608  0.45742807  0.97318315  1
  O  O52  1  0.16180362  0.86589901  0.97016809  1
  O  O53  1  0.66071069  0.86941235  0.97433354  1
  O  O54  1  0.27341035  0.86925385  0.47288426  1
  O  O55  1  0.77333496  0.86904963  0.47280944  1
  O  O56  1  0.16190530  0.45798906  0.47006893  1
  O  O57  1  0.66195709  0.45836508  0.46992595  1
  O  O58  1  0.06734279  0.67723697  0.47018240  1
  O  O59  1  0.56750618  0.67718731  0.46999182  1
  O  O60  1  0.07169494  0.64652253  0.35471402  1
  O  O61  1  0.57198345  0.64645858  0.35441403  1
  O  O62  1  0.24917141  0.85439137  0.35873196  1
  O  O63  1  0.74933378  0.85509869  0.35864692  1
  O  O64  1  0.17748892  0.49744861  0.35475408  1
  O  O65  1  0.67774947  0.49764694  0.35446485  1
  O  O66  1  0.05977885  0.50469488  0.86419225  1
  O  O67  1  0.57655242  0.51169066  0.85951443  1
  O  O68  1  0.17628377  0.85484745  0.85499431  1
  O  O69  1  0.68710039  0.88040425  0.85915506  1
  O  O70  1  0.24713943  0.64031599  0.85619824  1
  O  O71  1  0.75611932  0.62156100  0.85644739  1
  O  O72  1  0.01025040  0.81717490  0.40838168  1
  O  O73  1  0.51028176  0.81685422  0.40829968  1
  O  O74  1  0.39758721  0.97756448  0.40888431  1
  O  O75  1  0.89776545  0.97773161  0.40895039  1
  O  O76  1  0.09211580  0.20527058  0.40812354  1
  O  O77  1  0.59201423  0.20562729  0.40803382  1
  O  O78  1  0.00664871  0.20835880  0.91080564  1
  O  O79  1  0.51294828  0.21012381  0.90848080  1
  O  O80  1  0.09259315  0.98203541  0.90830264  1
  O  O81  1  0.60112667  0.00095909  0.90989273  1
  O  O82  1  0.39656892  0.81435294  0.90763226  1
  O  O83  1  0.90167261  0.78744725  0.91012277  1
  O  O84  1  0.48943029  0.14679220  0.59780945  1
  O  O85  1  0.98959262  0.14697632  0.59786037  1
  O  O86  1  0.08260839  0.02022207  0.59762847  1
  O  O87  1  0.58236789  0.01962709  0.59764360  1
  O  O88  1  0.42663336  0.83413039  0.59809822  1
  O  O89  1  0.92705110  0.83373823  0.59756566  1
  O  O90  1  0.48974669  0.83386456  0.09773234  1
  O  O91  1  0.98262223  0.82159613  0.08900017  1
  O  O92  1  0.42952204  0.02438139  0.09751220  1
  O  O93  1  0.92610596  0.04277688  0.08881529  1
  O  O94  1  0.08118876  0.14018949  0.09750446  1
  O  O95  1  0.59399021  0.14525299  0.08634856  1
  O  O96  1  0.32616030  0.12552299  0.74462105  1
  O  O97  1  0.82353307  0.12163638  0.74347294  1
  O  O98  1  0.23337505  0.33793682  0.74315918  1
  O  O99  1  0.73511819  0.33628475  0.74229775  1
  O  O100  1  0.43211375  0.53872283  0.74331570  1
  O  O101  1  0.93080467  0.53877937  0.74437875  1
  O  O102  1  0.33130877  0.52959612  0.24243695  1
  O  O103  1  0.83322258  0.53658592  0.24108719  1
  O  O104  1  0.43798384  0.34720064  0.24281680  1
  O  O105  1  0.93755572  0.35077659  0.24481154  1
  O  O106  1  0.23019263  0.13607146  0.24213442  1
  O  O107  1  0.73057235  0.13794067  0.24323212  1
  O  O108  1  0.31375377  0.49629957  0.90916055  1
  O  O109  1  0.81333259  0.47282377  0.91996016  1
  O  O110  1  0.43621525  0.37616038  0.90962481  1
  O  O111  1  0.92589989  0.37440814  0.92247281  1
  O  O112  1  0.25179341  0.12908921  0.90851887  1
  O  O113  1  0.75927499  0.15191254  0.92260572  1
  O  O114  1  0.31401263  0.13108235  0.41068230  1
  O  O115  1  0.81406143  0.13118604  0.41075573  1
  O  O116  1  0.25157696  0.37110022  0.40921522  1
  O  O117  1  0.75153424  0.37092095  0.40917412  1
  O  O118  1  0.43532291  0.49803276  0.40879820  1
  O  O119  1  0.93509891  0.49820653  0.40906895  1
  O  O120  1  0.15399081  0.46117188  0.08588238  1
  O  O121  1  0.66021557  0.45713611  0.07753177  1
  O  O122  1  0.06638389  0.67469428  0.07620208  1
  O  O123  1  0.57635673  0.68615390  0.08555313  1
  O  O124  1  0.27014354  0.84505097  0.08444687  1
  O  O125  1  0.76598215  0.87640059  0.07467121  1
  O  O126  1  0.15464509  0.84658711  0.58535128  1
  O  O127  1  0.65462951  0.84657487  0.58530649  1
  O  O128  1  0.26810801  0.69040759  0.58535406  1
  O  O129  1  0.76818790  0.69055666  0.58528507  1
  O  O130  1  0.07758898  0.46164861  0.58371794  1
  O  O131  1  0.57752229  0.46161566  0.58363970  1
  O  O132  1  0.14823884  0.81162364  0.25304556  1
  O  O133  1  0.64822570  0.81312673  0.25277039  1
  O  O134  1  0.25554882  0.69485368  0.25401662  1
  O  O135  1  0.75645062  0.69824699  0.25329798  1
  O  O136  1  0.09503571  0.48372626  0.25022572  1
  O  O137  1  0.59563945  0.48362884  0.24958872  1
  O  O138  1  0.14906007  0.48599337  0.75724404  1
  O  O139  1  0.65378752  0.49036059  0.75442704  1
  O  O140  1  0.09292115  0.70238152  0.75419282  1
  O  O141  1  0.59543173  0.70877022  0.75500243  1
  O  O142  1  0.25819270  0.81033084  0.75043254  1
  O  O143  1  0.75725931  0.80719827  0.75401548  1
loop_
_geom_bond_atom_site_label_1
_geom_bond_atom_site_label_2
_geom_bond_distance
_geom_bond_site_symmetry_2
Na0 O102 2.349366 1_555
Na0 O136 2.401845 1_555
Na0 O34 2.468689 1_555
Na0 O106 2.584899 1_555
Na0 O134 2.671290 1_555
Na0 O64 2.727876 1_555
Na0 O20 2.903745 1_555
Na1 O103 2.359981 1_555
Na1 O137 2.394224 1_555
Na1 O35 2.495874 1_555
Na1 O107 2.578349 1_555
Na1 O135 2.676025 1_555
Na1 O65 2.733900 1_555
Na1 O21 2.880459 1_555
Na2 O105 2.276443 1_555
Na2 O132 2.432436 1_655
Na2 O31 2.564490 1_555
Na2 O103 2.662691 1_555
Na2 O60 2.737707 1_655
Na2 O22 2.760329 1_655
Na2 O136 2.770743 1_655
Na3 O104 2.289317 1_555
Na3 O133 2.431863 1_555
Na3 O30 2.485692 1_555
Na3 O102 2.689991 1_555
Na3 O61 2.731604 1_555
Na3 O137 2.760032 1_555
Na3 O23 2.794206 1_555
Na4 O98 2.344084 1_555
Na4 O142 2.393346 1_555
Na4 O28 2.495818 1_555
Na4 O100 2.606849 1_555
Na4 O138 2.709528 1_555
Na4 O70 2.768616 1_555
Na4 O12 2.881625 1_555
Na5 O99 2.342925 1_555
Na5 O143 2.415132 1_555
Na5 O29 2.502478 1_555
Na5 O101 2.551713 1_555
Na5 O139 2.648594 1_555
Na5 O71 2.655186 1_555
Na5 O13 2.903330 1_555
Na6 O96 2.293441 1_555
Na6 O140 2.447020 1_545
Na6 O26 2.505085 1_555
Na6 O98 2.698449 1_555
Na6 O68 2.736416 1_545
Na6 O142 2.763470 1_545
Na6 O16 2.801582 1_545
Na7 O97 2.271827 1_555
Na7 O141 2.398452 1_545
Na7 O27 2.521733 1_555
Na7 O99 2.669303 1_555
Na7 O69 2.754137 1_545
Na7 O17 2.779629 1_545
Na7 O143 2.798333 1_545
Na7 O7 3.037829 1_555
Na8 O130 2.284091 1_555
Na8 O86 2.539713 1_555
Na8 O42 2.674729 1_555
Na8 O85 2.719579 1_455
Na8 O56 2.741162 1_555
Na8 O14 2.799400 1_555
Na8 O128 2.849229 1_555
Na8 O28 3.026861 1_555
Na9 O131 2.284474 1_555
Na9 O87 2.543471 1_555
Na9 O43 2.676285 1_555
Na9 O84 2.720676 1_555
Na9 O57 2.747303 1_555
Na9 O15 2.769310 1_555
Na9 O129 2.851275 1_555
Na9 O29 3.031366 1_555
Na10 O126 2.309332 1_555
Na10 O89 2.527303 1_455
Na10 O45 2.695164 1_455
Na10 O86 2.711147 1_565
Na10 O58 2.742726 1_555
Na10 O16 2.824523 1_555
Na10 O130 2.853065 1_555
Na10 O25 2.906113 1_455
Na11 O127 2.310237 1_555
Na11 O88 2.537125 1_555
Na11 O44 2.691825 1_555
Na11 O87 2.706444 1_565
Na11 O59 2.750849 1_555
Na11 O17 2.848164 1_555
Na11 O131 2.853264 1_555
Na11 O24 2.904578 1_555
Na12 O128 2.299591 1_555
Na12 O84 2.539943 1_565
Na12 O54 2.651480 1_555
Na12 O88 2.680755 1_555
Na12 O46 2.746108 1_565
Na12 O12 2.838168 1_555
Na12 O126 2.841894 1_555
Na13 O129 2.298577 1_555
Na13 O85 2.543572 1_565
Na13 O55 2.656483 1_555
Na13 O89 2.690190 1_555
Na13 O13 2.728548 1_555
Na13 O47 2.745897 1_565
Na13 O127 2.840497 1_555
Na14 O122 2.362700 1_555
Na14 O94 2.489425 1_565
Na14 O91 2.693425 1_455
Na14 O52 2.709786 1_554
Na14 O36 2.726889 1_565
Na14 O22 2.789437 1_555
Na14 O124 2.915483 1_555
Na14 O32 3.038214 1_565
Na15 O123 2.304742 1_555
Na15 O95 2.386615 1_565
Na15 O125 2.539888 1_555
Na15 O53 2.602352 1_554
Na15 O90 2.718057 1_555
Na15 O37 2.793741 1_565
Na15 O23 2.866092 1_555
Na15 O33 2.958231 1_565
Na16 O124 2.282682 1_555
Na16 O90 2.542063 1_555
Na16 O38 2.652437 1_555
Na16 O48 2.706954 1_554
Na16 O92 2.769595 1_565
Na16 O18 2.805005 1_555
Na16 O120 2.855306 1_555
Na17 O120 2.276127 1_555
Na17 O93 2.413267 1_455
Na17 O50 2.513449 1_554
Na17 O122 2.684409 1_555
Na17 O41 2.719410 1_455
Na17 O94 2.753291 1_555
Na17 O20 2.836677 1_555
Na17 O31 2.970799 1_455
Na18 O121 2.310542 1_555
Na18 O92 2.528094 1_555
Na18 O51 2.609637 1_554
Na18 O95 2.771495 1_555
Na18 O40 2.786300 1_555
Na18 O21 2.813867 1_555
Na18 O123 2.817784 1_555
Na19 O110 2.429257 1_555
Na19 O8 2.479645 1_555
Na19 O82 2.520526 1_555
Na19 O81 2.674592 1_565
Na19 O108 2.737164 1_555
Na19 O38 2.742830 1_556
Na20 O83 2.260826 1_555
Na20 O111 2.396839 1_555
Na20 O80 2.528032 1_655
Na20 O9 2.544786 1_555
Na20 O39 2.738936 1_556
Na20 O66 2.745477 1_655
Na20 O109 2.764557 1_555
Na21 O112 2.415933 1_555
Na21 O10 2.487997 1_555
Na21 O82 2.516682 1_545
Na21 O79 2.533221 1_555
Na21 O40 2.594241 1_556
Na21 O110 2.708345 1_555
Na22 O80 2.458579 1_545
Na22 O108 2.465923 1_555
Na22 O6 2.512034 1_555
Na22 O78 2.570558 1_555
Na22 O112 2.690655 1_555
Na22 O36 2.735763 1_556
Na23 O81 2.362080 1_555
Na23 O109 2.374754 1_555
Na23 O79 2.499445 1_555
Na23 O7 2.545981 1_555
Na23 O113 2.645149 1_555
Na23 O37 2.773679 1_556
Na23 O71 2.908116 1_555
Na24 O118 2.430165 1_555
Na24 O74 2.511307 1_545
Na24 O77 2.512965 1_555
Na24 O4 2.540852 1_555
Na24 O46 2.569493 1_555
Na24 O114 2.671213 1_555
Na25 O119 2.435118 1_555
Na25 O5 2.508508 1_555
Na25 O75 2.509961 1_545
Na25 O76 2.514502 1_655
Na25 O47 2.580447 1_555
Na25 O115 2.672241 1_555
Na26 O114 2.440933 1_555
Na26 O76 2.482531 1_555
Na26 O72 2.526907 1_545
Na26 O0 2.536850 1_555
Na26 O116 2.671420 1_555
Na26 O42 2.713571 1_555
Na27 O115 2.439809 1_555
Na27 O77 2.488900 1_555
Na27 O1 2.521697 1_555
Na27 O73 2.529389 1_545
Na27 O117 2.669865 1_555
Na27 O43 2.702911 1_555
Na28 O116 2.442892 1_555
Na28 O73 2.493351 1_555
Na28 O74 2.525671 1_555
Na28 O2 2.541410 1_555
Na28 O118 2.655800 1_555
Na28 O44 2.694880 1_555
Na29 O117 2.447331 1_555
Na29 O72 2.487670 1_655
Na29 O75 2.524211 1_555
Na29 O3 2.532034 1_555
Na29 O119 2.648368 1_555
Na29 O45 2.699002 1_555
Na30 O86 2.610027 1_655
Na30 O89 2.610509 1_545
Na30 O85 2.616664 1_555
Na30 O75 2.689695 1_545
Na30 O72 2.707243 1_645
Na30 O76 2.725350 1_655
Na31 O87 2.604121 1_555
Na31 O84 2.609578 1_555
Na31 O88 2.614876 1_545
Na31 O74 2.696798 1_545
Na31 O73 2.716464 1_545
Na31 O77 2.733093 1_555
Na32 O93 2.425514 1_566
Na32 O91 2.486948 1_556
Na32 O83 2.606078 1_555
Na32 O78 2.724451 1_665
Na32 O94 2.735446 1_666
Na32 O80 2.859921 1_655
Na33 O95 2.457962 1_555
Na33 O92 2.579055 1_555
Na33 O90 2.607046 1_545
Na33 O79 2.731012 1_554
Na33 O81 2.734993 1_554
Na33 O82 2.770146 1_544
Na34 O110 2.362662 1_555
Na34 O112 2.484252 1_555
Na34 O108 2.504130 1_555
Na34 O96 2.622211 1_555
Na34 O100 2.642187 1_555
Na34 O98 2.792114 1_555
Na35 O111 2.398198 1_555
Na35 O113 2.504939 1_555
Na35 O109 2.580479 1_555
Na35 O97 2.616959 1_555
Na35 O101 2.719540 1_555
Na35 O99 2.880670 1_555
Na36 O114 2.364851 1_555
Na36 O118 2.489467 1_555
Na36 O116 2.490960 1_555
Na36 O106 2.668081 1_555
Na36 O104 2.669315 1_555
Na36 O102 2.781099 1_555
Na37 O115 2.360910 1_555
Na37 O119 2.480475 1_555
Na37 O117 2.494286 1_555
Na37 O105 2.618516 1_555
Na37 O107 2.654273 1_555
Na37 O103 2.841654 1_555
Na38 O134 2.384248 1_555
Na38 O132 2.397860 1_555
Na38 O136 2.447855 1_555
Na38 O124 2.516692 1_555
Na38 O120 2.612912 1_555
Na38 O122 2.827918 1_555
Na39 O135 2.365143 1_555
Na39 O133 2.496956 1_555
Na39 O137 2.537715 1_555
Na39 O123 2.616904 1_555
Na39 O125 2.635315 1_555
Na39 O121 2.739989 1_555
Na40 O140 2.426244 1_555
Na40 O142 2.456224 1_555
Na40 O138 2.459353 1_555
Na40 O130 2.521954 1_555
Na40 O126 2.585563 1_555
Na40 O128 2.603654 1_555
Na41 O139 2.401273 1_555
Na41 O141 2.432616 1_555
Na41 O131 2.512490 1_555
Na41 O143 2.514522 1_555
Na41 O127 2.590493 1_555
Na41 O129 2.616946 1_555
Ca0 O3 2.163369 1_545
Ca0 O0 2.163400 1_655
Ca0 O5 2.164701 1_555
Ca0 O75 2.238195 1_545
Ca0 O76 2.275109 1_655
Ca0 O72 2.276679 1_645
Ca1 O2 2.163252 1_545
Ca1 O4 2.163463 1_555
Ca1 O1 2.163993 1_555
Ca1 O74 2.227727 1_545
Ca1 O73 2.269225 1_545
Ca1 O77 2.273477 1_555
Ca2 O11 2.118946 1_555
Ca2 O9 2.198044 1_545
Ca2 O6 2.201231 1_655
Ca2 O78 2.224052 1_655
Ca2 O80 2.263924 1_645
Ca2 O83 2.271796 1_545
Ca3 O7 2.156185 1_555
Ca3 O8 2.165544 1_545
Ca3 O10 2.178870 1_555
Ca3 O79 2.241783 1_555
Ca3 O82 2.280084 1_545
Ca3 O81 2.310678 1_555
Ca4 O24 2.148349 1_555
Ca4 O28 2.224115 1_555
Ca4 O26 2.230806 1_555
Ca4 O100 2.253384 1_555
Ca4 O96 2.259696 1_555
Ca4 O98 2.316189 1_555
Ca5 O25 2.146861 1_555
Ca5 O29 2.219978 1_555
Ca5 O27 2.230399 1_555
Ca5 O101 2.260414 1_555
Ca5 O97 2.265043 1_555
Ca5 O99 2.275341 1_555
Ca6 O32 2.144802 1_555
Ca6 O34 2.224829 1_555
Ca6 O30 2.225445 1_555
Ca6 O106 2.243676 1_555
Ca6 O104 2.260348 1_555
Ca6 O102 2.293482 1_555
Ca7 O33 2.111740 1_555
Ca7 O31 2.182728 1_555
Ca7 O35 2.188520 1_555
Ca7 O107 2.251138 1_555
Ca7 O103 2.254484 1_555
Ca7 O105 2.254598 1_555
Ca8 O36 2.387404 1_556
Ca8 O38 2.391426 1_556
Ca8 O40 2.406092 1_556
Ca8 O108 2.410791 1_555
Ca8 O110 2.414403 1_555
Ca8 O112 2.430429 1_555
Ca9 O44 2.372836 1_555
Ca9 O42 2.379702 1_555
Ca9 O46 2.383807 1_555
Ca9 O114 2.393913 1_555
Ca9 O116 2.417539 1_555
Ca9 O118 2.435418 1_555
Ca10 O45 2.370565 1_555
Ca10 O43 2.380376 1_555
Ca10 O47 2.386225 1_555
Ca10 O115 2.391419 1_555
Ca10 O117 2.417518 1_555
Ca10 O119 2.429800 1_555
Ca11 O48 2.160618 1_554
Ca11 O50 2.167757 1_554
Ca11 O52 2.168675 1_554
Ca11 O122 2.266841 1_555
Ca11 O124 2.306140 1_555
Ca11 O120 2.317499 1_555
Ca12 O49 2.124273 1_554
Ca12 O53 2.184635 1_554
Ca12 O51 2.190850 1_554
Ca12 O125 2.218605 1_555
Ca12 O121 2.258287 1_555
Ca12 O123 2.345644 1_555
Ca13 O58 2.165750 1_555
Ca13 O54 2.165809 1_555
Ca13 O56 2.166106 1_555
Ca13 O128 2.294941 1_555
Ca13 O130 2.296603 1_555
Ca13 O126 2.305842 1_555
Ca14 O59 2.165365 1_555
Ca14 O55 2.166025 1_555
Ca14 O57 2.166816 1_555
Ca14 O129 2.293942 1_555
Ca14 O131 2.294990 1_555
Ca14 O127 2.303304 1_555
Ge0 O85 1.915653 1_455
Ge0 O86 1.928879 1_555
Ge0 O89 1.946460 1_445
Ge0 O14 2.004855 1_555
Ge0 O16 2.012919 1_545
Ge0 O13 2.024885 1_445
Ge1 O84 1.922388 1_555
Ge1 O87 1.937361 1_555
Ge1 O88 1.956811 1_545
Ge1 O12 1.972326 1_545
Ge1 O15 1.999010 1_555
Ge1 O17 2.010544 1_545
Ge2 O19 1.916741 1_555
Ge2 O94 1.925625 1_665
Ge2 O20 2.036565 1_665
Ge2 O93 2.043825 1_565
Ge2 O91 2.046638 1_555
Ge2 O22 2.103338 1_655
Ge3 O90 1.907213 1_555
Ge3 O92 1.913152 1_565
Ge3 O18 1.962964 1_555
Ge3 O23 1.977974 1_555
Ge3 O21 1.993672 1_565
Ge3 O95 2.249039 1_565
Ge4 O41 1.951928 1_556
Ge4 O37 2.024786 1_556
Ge4 O113 2.037799 1_555
Ge4 O111 2.049522 1_555
Ge4 O39 2.065775 1_556
Ge4 O109 2.096458 1_555
Ge5 O62 1.864001 1_555
Ge5 O64 1.907626 1_555
Ge5 O60 1.908502 1_555
Ge5 O134 2.004173 1_555
Ge5 O132 2.033220 1_555
Ge5 O136 2.137154 1_555
Ge6 O63 1.857861 1_555
Ge6 O65 1.905645 1_555
Ge6 O61 1.911509 1_555
Ge6 O135 2.008986 1_555
Ge6 O133 2.048578 1_555
Ge6 O137 2.152143 1_555
Ge7 O68 1.897690 1_555
Ge7 O70 1.917941 1_555
Ge7 O66 1.945415 1_555
Ge7 O138 1.979871 1_555
Ge7 O140 2.014297 1_555
Ge7 O142 2.235797 1_555
Ge8 O67 1.864365 1_555
Ge8 O71 2.017035 1_555
Ge8 O143 2.021463 1_555
Ge8 O139 2.023060 1_555
Ge8 O69 2.068300 1_555
Ge8 O141 2.103873 1_555
O0 P0 1.513055 1_545
O1 P1 1.507292 1_545
O2 P2 1.509668 1_555
O3 P3 1.507007 1_555
O4 P5 1.505609 1_555
O5 P4 1.504342 1_655
O6 P6 1.504413 1_555
O7 P7 1.506634 1_555
O8 P9 1.511679 1_555
O9 P8 1.498702 1_655
O10 P10 1.506112 1_545
O11 P11 1.478200 1_545
O12 P10 1.617175 1_555
O13 P11 1.610539 1_555
O14 P6 1.598970 1_555
O15 P7 1.596312 1_555
O16 P8 1.608217 1_555
O17 P9 1.611695 1_555
O18 P2 1.603458 1_555
O19 P3 1.607141 1_555
O20 P4 1.611092 1_555
O21 P5 1.632250 1_555
O22 P0 1.605425 1_555
O23 P1 1.622725 1_555
O24 P12 1.503858 1_555
O25 P13 1.505129 1_555
O26 P14 1.513857 1_555
O27 P15 1.513660 1_555
O28 P16 1.515179 1_555
O29 P17 1.515131 1_555
O30 P18 1.509452 1_555
O31 P19 1.509394 1_555
O32 P20 1.499561 1_555
O33 P21 1.495805 1_555
O34 P22 1.512326 1_555
O35 P23 1.502335 1_555
O36 P22 1.544942 1_555
O37 P23 1.635392 1_555
O38 P18 1.543217 1_555
O39 P19 1.607249 1_555
O40 P20 1.546216 1_555
O41 P21 1.630299 1_555
O42 P14 1.546691 1_555
O43 P15 1.546869 1_555
O44 P16 1.548797 1_555
O45 P17 1.548063 1_555
O46 P12 1.550153 1_555
O47 P13 1.548723 1_555
O48 P24 1.514223 1_555
O49 P25 1.494836 1_555
O50 P26 1.509380 1_555
O51 P27 1.514795 1_555
O52 P28 1.516333 1_555
O53 P29 1.508786 1_555
O54 P30 1.520811 1_555
O55 P31 1.520411 1_555
O56 P32 1.515861 1_555
O57 P33 1.515235 1_555
O58 P34 1.517265 1_555
O59 P35 1.517182 1_555
O60 P34 1.614538 1_555
O61 P35 1.617734 1_555
O62 P30 1.597992 1_555
O63 P31 1.601282 1_555
O64 P32 1.616605 1_555
O65 P33 1.620121 1_555
O66 P26 1.612539 1_555
O67 P27 1.623703 1_555
O68 P28 1.625290 1_555
O69 P29 1.602246 1_555
O70 P24 1.627605 1_555
O71 P25 1.617262 1_555
O72 P34 1.540219 1_555
O73 P35 1.539964 1_555
O74 P30 1.540987 1_555
O75 P31 1.539278 1_555
O76 P32 1.539085 1_555
O77 P33 1.539078 1_555
O78 P26 1.512811 1_555
O79 P27 1.535309 1_555
O80 P28 1.529717 1_555
O81 P29 1.547536 1_545
O82 P24 1.538682 1_555
O83 P25 1.514658 1_555
O84 P12 1.584077 1_555
O85 P13 1.585194 1_555
O86 P14 1.591211 1_555
O87 P15 1.591999 1_555
O88 P16 1.591904 1_555
O89 P17 1.593469 1_555
O90 P18 1.607038 1_555
O91 P19 1.596764 1_555
O92 P20 1.606201 1_555
O93 P21 1.587095 1_555
O94 P22 1.606893 1_555
O95 P23 1.575387 1_555
O96 P10 1.522712 1_545
O97 P11 1.522262 1_545
O98 P6 1.538179 1_555
O99 P7 1.534202 1_555
O100 P9 1.515116 1_555
O101 P8 1.519212 1_655
O102 P2 1.533833 1_555
O103 P3 1.528602 1_555
O104 P5 1.517073 1_555
O105 P4 1.520541 1_655
O106 P0 1.515265 1_545
O107 P1 1.511008 1_545
O108 P24 1.543582 1_555
O109 P25 1.601464 1_555
O110 P27 1.543840 1_555
O111 P26 1.602541 1_655
O112 P28 1.546797 1_545
O113 P29 1.606751 1_545
O114 P30 1.549801 1_545
O115 P31 1.549688 1_545
O116 P32 1.547054 1_555
O117 P33 1.546974 1_555
O118 P35 1.548190 1_555
O119 P34 1.548856 1_655
O120 P22 1.532235 1_555
O121 P23 1.521693 1_555
O122 P19 1.542915 1_455
O123 P18 1.528922 1_555
O124 P20 1.537633 1_565
O125 P21 1.508573 1_565
O126 P14 1.533346 1_565
O127 P15 1.533419 1_565
O128 P16 1.533257 1_555
O129 P17 1.532527 1_555
O130 P13 1.534430 1_455
O131 P12 1.536297 1_555
O132 P0 1.606646 1_555
O133 P1 1.595304 1_555
O134 P2 1.583689 1_555
O135 P3 1.589724 1_555
O136 P4 1.589431 1_555
O137 P5 1.581187 1_555
O138 P6 1.604283 1_555
O139 P7 1.591941 1_555
O140 P8 1.608419 1_555
O141 P9 1.600028 1_555
O142 P10 1.576634 1_555
O143 P11 1.602007 1_555
