# generated using pymatgen
data_Rb2CrF5
_symmetry_space_group_name_H-M   'P 1'
_cell_length_a   5.73897356
_cell_length_b   7.46915393
_cell_length_c   11.97387611
_cell_angle_alpha   90.00000000
_cell_angle_beta   90.00000000
_cell_angle_gamma   90.00000000
_symmetry_Int_Tables_number   1
_chemical_formula_structural   Rb2CrF5
_chemical_formula_sum   'Rb8 Cr4 F20'
_cell_volume   513.26351526
_cell_formula_units_Z   4
loop_
 _symmetry_equiv_pos_site_id
 _symmetry_equiv_pos_as_xyz
  1  'x, y, z'
loop_
 _atom_site_type_symbol
 _atom_site_label
 _atom_site_symmetry_multiplicity
 _atom_site_fract_x
 _atom_site_fract_y
 _atom_site_fract_z
 _atom_site_occupancy
  Rb  Rb0  1  0.25000000  0.48944807  0.27478344  1
  Rb  Rb1  1  0.75000000  0.51055193  0.72521656  1
  Rb  Rb2  1  0.25000000  0.98944807  0.22521656  1
  Rb  Rb3  1  0.75000000  0.01055193  0.77478344  1
  Rb  Rb4  1  0.25000000  0.14869600  0.58453616  1
  Rb  Rb5  1  0.75000000  0.85130400  0.41546384  1
  Rb  Rb6  1  0.25000000  0.64869600  0.91546384  1
  Rb  Rb7  1  0.75000000  0.35130400  0.08453616  1
  Cr  Cr0  1  0.25000000  0.65777643  0.56186996  1
  Cr  Cr1  1  0.75000000  0.34222357  0.43813004  1
  Cr  Cr2  1  0.25000000  0.15777643  0.93813004  1
  Cr  Cr3  1  0.75000000  0.84222357  0.06186996  1
  F  F0  1  0.51340693  0.19454645  0.38163375  1
  F  F1  1  0.01340693  0.80545355  0.61836625  1
  F  F2  1  0.98659307  0.69454645  0.11836625  1
  F  F3  1  0.48659307  0.30545355  0.88163375  1
  F  F4  1  0.48659307  0.80545355  0.61836625  1
  F  F5  1  0.98659307  0.19454645  0.38163375  1
  F  F6  1  0.01340693  0.30545355  0.88163375  1
  F  F7  1  0.51340693  0.69454645  0.11836625  1
  F  F8  1  0.25000000  0.78730360  0.42298130  1
  F  F9  1  0.75000000  0.21269640  0.57701870  1
  F  F10  1  0.25000000  0.28730360  0.07701870  1
  F  F11  1  0.75000000  0.71269640  0.92298130  1
  F  F12  1  0.50000000  0.50000000  0.50000000  1
  F  F13  1  -0.00000000  0.50000000  0.50000000  1
  F  F14  1  -0.00000000  -0.00000000  0.00000000  1
  F  F15  1  0.50000000  -0.00000000  0.00000000  1
  F  F16  1  0.75000000  0.98619303  0.19132474  1
  F  F17  1  0.25000000  0.01380697  0.80867526  1
  F  F18  1  0.75000000  0.48619303  0.30867526  1
  F  F19  1  0.25000000  0.51380697  0.69132474  1
loop_
_geom_bond_atom_site_label_1
_geom_bond_atom_site_label_2
_geom_bond_distance
_geom_bond_site_symmetry_2
Cr0 F1 1.875609 1_555
Cr0 F4 1.875609 1_555
Cr0 F19 1.886549 1_555
Cr0 F8 1.923971 1_555
Cr0 F12 1.999017 1_555
Cr0 F13 1.999017 1_555
Cr1 F5 1.875609 1_555
Cr1 F0 1.875609 1_555
Cr1 F18 1.886549 1_555
Cr1 F9 1.923971 1_555
Cr1 F13 1.999017 1_655
Cr1 F12 1.999017 1_555
Cr2 F6 1.875609 1_555
Cr2 F3 1.875609 1_555
Cr2 F17 1.886549 1_555
Cr2 F10 1.923971 1_556
Cr2 F15 1.999017 1_556
Cr2 F14 1.999017 1_556
Cr3 F7 1.875609 1_555
Cr3 F2 1.875609 1_555
Cr3 F16 1.886549 1_555
Cr3 F11 1.923971 1_554
Cr3 F14 1.999017 1_665
Cr3 F15 1.999017 1_565
F0 Rb2 2.853029 1_545
F0 Rb4 2.881854 1_555
F0 Rb5 2.929237 1_545
F0 Rb0 2.962064 1_555
F1 Rb3 2.853029 1_465
F1 Rb5 2.881854 1_455
F1 Rb4 2.929237 1_565
F1 Rb1 2.962064 1_455
F2 Rb0 2.853029 1_655
F2 Rb6 2.881854 1_654
F2 Rb7 2.929237 1_555
F2 Rb2 2.962064 1_655
F3 Rb1 2.853029 1_555
F3 Rb7 2.881854 1_556
F3 Rb6 2.929237 1_555
F3 Rb3 2.962064 1_555
F4 Rb3 2.853029 1_565
F4 Rb5 2.881854 1_555
F4 Rb4 2.929237 1_565
F4 Rb1 2.962064 1_555
F5 Rb2 2.853029 1_645
F5 Rb4 2.881854 1_655
F5 Rb5 2.929237 1_545
F5 Rb0 2.962064 1_655
F6 Rb1 2.853029 1_455
F6 Rb7 2.881854 1_456
F6 Rb6 2.929237 1_555
F6 Rb3 2.962064 1_455
F7 Rb0 2.853029 1_555
F7 Rb6 2.881854 1_554
F7 Rb7 2.929237 1_555
F7 Rb2 2.962064 1_555
F8 Rb2 2.808401 1_555
F8 Rb0 2.845747 1_555
F8 Rb5 2.910424 1_555
F8 Rb5 2.910424 1_455
F8 Rb4 3.320880 1_565
F9 Rb3 2.808401 1_555
F9 Rb1 2.845747 1_555
F9 Rb4 2.910424 1_655
F9 Rb4 2.910424 1_555
F9 Rb5 3.320880 1_545
F10 Rb0 2.808401 1_555
F10 Rb2 2.845747 1_545
F10 Rb7 2.910424 1_555
F10 Rb7 2.910424 1_455
F10 Rb6 3.320880 1_554
F11 Rb1 2.808401 1_555
F11 Rb3 2.845747 1_565
F11 Rb6 2.910424 1_655
F11 Rb6 2.910424 1_555
F11 Rb7 3.320880 1_556
F12 Rb0 3.055646 1_555
F12 Rb1 3.055646 1_555
F12 Rb5 3.157241 1_555
F12 Rb4 3.157241 1_555
F13 Rb0 3.055646 1_555
F13 Rb1 3.055646 1_455
F13 Rb5 3.157241 1_455
F13 Rb4 3.157241 1_555
F14 Rb2 3.055646 1_545
F14 Rb3 3.055646 1_454
F14 Rb6 3.157241 1_544
F14 Rb7 3.157241 1_455
F15 Rb3 3.055646 1_554
F15 Rb2 3.055646 1_545
F15 Rb6 3.157241 1_544
F15 Rb7 3.157241 1_555
F16 Rb5 2.866693 1_555
F16 Rb2 2.898143 1_655
F16 Rb2 2.898143 1_555
F16 Rb7 3.011962 1_565
F17 Rb4 2.866693 1_555
F17 Rb3 2.898143 1_455
F17 Rb3 2.898143 1_555
F17 Rb6 3.011962 1_545
F18 Rb7 2.866693 1_555
F18 Rb0 2.898143 1_655
F18 Rb0 2.898143 1_555
F18 Rb5 3.011962 1_555
F19 Rb6 2.866693 1_555
F19 Rb1 2.898143 1_455
F19 Rb1 2.898143 1_555
F19 Rb4 3.011962 1_555
