# generated using pymatgen
data_Y2Zr2SiS5O24
_symmetry_space_group_name_H-M   'P 1'
_cell_length_a   9.16849008
_cell_length_b   9.18429759
_cell_length_c   23.60142692
_cell_angle_alpha   90.12632186
_cell_angle_beta   90.06525750
_cell_angle_gamma   119.96403453
_symmetry_Int_Tables_number   1
_chemical_formula_structural   Y2Zr2SiS5O24
_chemical_formula_sum   'Y6 Zr6 Si3 S15 O72'
_cell_volume   1721.73945291
_cell_formula_units_Z   3
loop_
 _symmetry_equiv_pos_site_id
 _symmetry_equiv_pos_as_xyz
  1  'x, y, z'
loop_
 _atom_site_type_symbol
 _atom_site_label
 _atom_site_symmetry_multiplicity
 _atom_site_fract_x
 _atom_site_fract_y
 _atom_site_fract_z
 _atom_site_occupancy
  Y  Y0  1  0.99433837  0.00132683  0.35949827  1
  Y  Y1  1  0.00132069  0.00050742  0.85717592  1
  Y  Y2  1  0.67724480  0.33662576  0.68614244  1
  Y  Y3  1  0.65916157  0.33579155  0.18611011  1
  Y  Y4  1  0.65564505  0.33016079  0.98082545  1
  Y  Y5  1  0.33192768  0.66611271  0.80902550  1
  Zr  Zr0  1  0.99932365  0.00754490  0.64174033  1
  Zr  Zr1  1  0.00773190  0.00871460  0.14467361  1
  Zr  Zr2  1  0.67697468  0.32300806  0.47744222  1
  Zr  Zr3  1  0.33303184  0.65971011  0.02299283  1
  Zr  Zr4  1  0.33840229  0.66801360  0.52265463  1
  Zr  Zr5  1  0.34217186  0.67643291  0.31335623  1
  Si  Si0  1  0.96118350  0.33765981  0.58266145  1
  Si  Si1  1  0.37383044  0.33347323  0.08340748  1
  Si  Si2  1  0.61598250  0.95211470  0.41846521  1
  S  S0  1  0.28569354  0.99414789  0.25043346  1
  S  S1  1  0.71004471  0.71346787  0.25031375  1
  S  S2  1  0.00460606  0.29211933  0.25008735  1
  S  S3  1  0.28590228  0.28463858  0.74863452  1
  S  S4  1  0.99937416  0.71584393  0.74884625  1
  S  S5  1  0.71449541  0.99954714  0.74903839  1
  S  S6  1  0.37435057  0.04240362  0.58247089  1
  S  S7  1  0.66780034  0.62431848  0.58256152  1
  S  S8  1  0.96336128  0.63060955  0.08349158  1
  S  S9  1  0.66723764  0.03672862  0.08340010  1
  S  S10  1  0.61932811  0.66725054  0.91732302  1
  S  S11  1  0.04649532  0.38135797  0.91765746  1
  S  S12  1  0.33404599  0.95151222  0.91745346  1
  S  S13  1  0.34048694  0.38669550  0.41750924  1
  S  S14  1  0.04835600  0.66260372  0.41717674  1
  O  O0  1  0.20876617  0.02041243  0.30072415  1
  O  O1  1  0.81332395  0.79251333  0.30074121  1
  O  O2  1  0.97896047  0.18710134  0.30007076  1
  O  O3  1  0.20644744  0.18324044  0.79998490  1
  O  O4  1  0.97842108  0.79571404  0.80062451  1
  O  O5  1  0.81727672  0.02373508  0.80027741  1
  O  O6  1  0.80101399  0.97764195  0.69846367  1
  O  O7  1  0.17648682  0.19739101  0.69813781  1
  O  O8  1  0.02108468  0.82161142  0.69848264  1
  O  O9  1  0.78767119  0.81889551  0.19944089  1
  O  O10  1  0.02853092  0.20624091  0.19904238  1
  O  O11  1  0.17748440  0.96927198  0.19936208  1
  O  O12  1  0.87832839  0.36693308  0.63784320  1
  O  O13  1  0.47681848  0.11489934  0.63347430  1
  O  O14  1  0.63490161  0.52161288  0.63354260  1
  O  O15  1  0.89222800  0.52351164  0.13360305  1
  O  O16  1  0.63618767  0.11095885  0.13377976  1
  O  O17  1  0.48723693  0.36862317  0.13893561  1
  O  O18  1  0.45083868  0.29695441  0.02792478  1
  O  O19  1  0.85840035  0.55633238  0.03302138  1
  O  O20  1  0.70298379  0.14324204  0.03321056  1
  O  O21  1  0.45235404  0.15201612  0.53247772  1
  O  O22  1  0.69492508  0.54586837  0.53229617  1
  O  O23  1  0.83483796  0.30435528  0.52770581  1
  O  O24  1  0.53296788  0.68911911  0.96792567  1
  O  O25  1  0.15562501  0.46848081  0.96814173  1
  O  O26  1  0.31234016  0.84596790  0.96792100  1
  O  O27  1  0.51587055  0.83341784  0.47167090  1
  O  O28  1  0.31141553  0.46630631  0.46793410  1
  O  O29  1  0.15288524  0.68467101  0.46775699  1
  O  O30  1  0.12566180  0.63348824  0.36574926  1
  O  O31  1  0.49487282  0.85697749  0.36162592  1
  O  O32  1  0.36092475  0.49123891  0.36605024  1
  O  O33  1  0.12627219  0.48313548  0.86652760  1
  O  O34  1  0.35493945  0.87112972  0.86595112  1
  O  O35  1  0.51618269  0.64288907  0.86628933  1
  O  O36  1  0.03202759  0.81143856  0.40946871  1
  O  O37  1  0.79837040  0.97506174  0.40952334  1
  O  O38  1  0.19358716  0.21967768  0.40942825  1
  O  O39  1  0.03326430  0.21513032  0.91170616  1
  O  O40  1  0.18297434  0.96902335  0.91126666  1
  O  O41  1  0.78553238  0.82016565  0.91174405  1
  O  O42  1  0.97985609  0.16852632  0.59478320  1
  O  O43  1  0.20318965  0.02118180  0.59215574  1
  O  O44  1  0.81882050  0.79481950  0.59278897  1
  O  O45  1  0.98246686  0.79964396  0.09504794  1
  O  O46  1  0.81389122  0.01144471  0.09476971  1
  O  O47  1  0.18340984  0.17058269  0.09746937  1
  O  O48  1  0.69276655  0.14559947  0.74179292  1
  O  O49  1  0.45224970  0.30378751  0.74038745  1
  O  O50  1  0.84949802  0.54904369  0.74286999  1
  O  O51  1  0.68949651  0.54593785  0.24283386  1
  O  O52  1  0.85844566  0.31235864  0.23995699  1
  O  O53  1  0.45505217  0.13626059  0.24145905  1
  O  O54  1  0.64087971  0.52094899  0.92484548  1
  O  O55  1  0.88016866  0.36239250  0.92629420  1
  O  O56  1  0.48448676  0.11806754  0.92375006  1
  O  O57  1  0.62759627  0.13583809  0.42711865  1
  O  O58  1  0.49280666  0.37362552  0.42663122  1
  O  O59  1  0.87729876  0.51315859  0.42542286  1
  O  O60  1  0.34543088  0.49522134  0.06972062  1
  O  O61  1  0.13529636  0.65604797  0.07235075  1
  O  O62  1  0.51749203  0.86762416  0.07219311  1
  O  O63  1  0.35104293  0.87263934  0.57221385  1
  O  O64  1  0.52086767  0.64889476  0.57316951  1
  O  O65  1  0.14547751  0.49339929  0.56736271  1
  O  O66  1  0.29761377  0.83728352  0.25779682  1
  O  O67  1  0.53725670  0.69339890  0.25904941  1
  O  O68  1  0.15790423  0.45951652  0.25835525  1
  O  O69  1  0.29933730  0.45098790  0.75484485  1
  O  O70  1  0.15061282  0.69837327  0.75531454  1
  O  O71  1  0.54821597  0.84655698  0.75483314  1
loop_
_geom_bond_atom_site_label_1
_geom_bond_atom_site_label_2
_geom_bond_distance
_geom_bond_site_symmetry_2
O0 S0 1.461181 1_545
O0 Y0 2.341589 1_455
O1 S1 1.465300 1_555
O1 Y0 2.271358 1_565
O2 S2 1.468445 1_655
O2 Y0 2.269062 1_555
O3 S3 1.481913 1_555
O3 Y1 2.244649 1_555
O4 S4 1.485172 1_555
O4 Y1 2.226439 1_665
O5 S5 1.478823 1_545
O5 Y1 2.247637 1_655
O6 S5 1.501663 1_555
O6 Zr0 2.163769 1_565
O7 S3 1.502969 1_555
O7 Zr0 2.146169 1_455
O8 S4 1.486142 1_455
O8 Zr0 2.258142 1_465
O9 S1 1.484722 1_555
O9 Zr1 2.298508 1_665
O10 S2 1.513551 1_555
O10 Zr1 2.148867 1_555
O11 S0 1.503003 1_555
O11 Zr1 2.186361 1_565
O12 Si0 1.596949 1_555
O12 Y2 2.066270 1_555
O13 S6 1.464241 1_555
O13 Y2 2.305317 1_555
O14 S7 1.466331 1_555
O14 Y2 2.290297 1_555
O15 S8 1.468918 1_555
O15 Y3 2.325876 1_555
O16 S9 1.466525 1_555
O16 Y3 2.321076 1_555
O17 Si1 1.600808 1_555
O17 Y3 2.070631 1_555
O18 Si1 1.600760 1_555
O18 Y4 2.070963 1_554
O19 S8 1.465733 1_555
O19 Y4 2.326885 1_554
O20 S9 1.467401 1_555
O20 Y4 2.327341 1_554
O21 S6 1.484959 1_555
O21 Zr2 2.275767 1_555
O22 S7 1.471144 1_555
O22 Zr2 2.354558 1_555
O23 Si0 1.660910 1_555
O23 Zr2 1.943239 1_555
O24 S10 1.501189 1_555
O24 Zr3 2.152851 1_556
O25 S11 1.501462 1_555
O25 Zr3 2.130198 1_556
O26 S12 1.486913 1_555
O26 Zr3 2.232741 1_556
O27 Si2 1.617685 1_555
O27 Zr4 1.986596 1_555
O28 S13 1.487800 1_555
O28 Zr4 2.166080 1_555
O29 S14 1.478830 1_555
O29 Zr4 2.202506 1_555
O30 S14 1.495641 1_555
O30 Zr5 2.202447 1_555
O31 Si2 1.678780 1_555
O31 Zr5 1.917435 1_555
O32 S13 1.502657 1_555
O32 Zr5 2.184075 1_555
O33 S11 1.479525 1_555
O33 Y5 2.252083 1_555
O34 S12 1.482252 1_555
O34 Y5 2.233023 1_555
O35 S10 1.476477 1_555
O35 Y5 2.254316 1_555
O36 S14 1.459279 1_555
O36 Y0 2.271995 1_465
O37 Si2 1.591929 1_555
O37 Y0 2.062410 1_565
O38 S13 1.462100 1_555
O38 Y0 2.252267 1_455
O39 S11 1.476220 1_555
O39 Y1 2.244744 1_555
O40 S12 1.479138 1_555
O40 Y1 2.228245 1_565
O41 S10 1.474893 1_555
O41 Y1 2.249030 1_665
O42 Si0 1.670814 1_555
O42 Zr0 1.927806 1_555
O43 S6 1.499459 1_555
O43 Zr0 2.156546 1_455
O44 S7 1.503096 1_555
O44 Zr0 2.155590 1_565
O45 S8 1.497194 1_555
O45 Zr1 2.158159 1_665
O46 S9 1.498401 1_555
O46 Zr1 2.141555 1_655
O47 Si1 1.670567 1_555
O47 Zr1 1.914449 1_555
O48 S5 1.461550 1_545
O48 Y2 2.254453 1_555
O49 S3 1.458699 1_555
O49 Y2 2.317689 1_555
O50 S4 1.466558 1_555
O50 Y2 2.235779 1_555
O51 S1 1.463986 1_555
O51 Y3 2.246388 1_555
O52 S2 1.461437 1_655
O52 Y3 2.321324 1_555
O53 S0 1.461846 1_545
O53 Y3 2.270949 1_555
O54 S10 1.463633 1_555
O54 Y4 2.254123 1_555
O55 S11 1.460457 1_655
O55 Y4 2.319619 1_555
O56 S12 1.468146 1_545
O56 Y4 2.236450 1_555
O57 Si2 1.649006 1_545
O57 Zr2 1.945001 1_555
O58 S13 1.475796 1_555
O58 Zr2 2.299430 1_555
O59 S14 1.494337 1_655
O59 Zr2 2.177409 1_555
O60 Si1 1.663519 1_555
O60 Zr3 1.920951 1_555
O61 S8 1.497341 1_455
O61 Zr3 2.142189 1_555
O62 S9 1.494799 1_565
O62 Zr3 2.148201 1_555
O63 S6 1.483462 1_565
O63 Zr4 2.164698 1_555
O64 S7 1.489356 1_555
O64 Zr4 2.130903 1_555
O65 Si0 1.618888 1_455
O65 Zr4 1.998035 1_555
O66 S0 1.508666 1_555
O66 Zr5 2.163090 1_555
O67 S1 1.515063 1_555
O67 Zr5 2.143360 1_555
O68 S2 1.488876 1_555
O68 Zr5 2.264900 1_555
O69 S3 1.477098 1_555
O69 Y5 2.241962 1_555
O70 S4 1.481105 1_455
O70 Y5 2.224214 1_555
O71 S5 1.476058 1_555
O71 Y5 2.246578 1_555
