# generated using pymatgen
data_Na2UI6
_symmetry_space_group_name_H-M   'P 1'
_cell_length_a   8.56043193
_cell_length_b   8.56043114
_cell_length_c   8.56043224
_cell_angle_alpha   54.29692882
_cell_angle_beta   54.29692872
_cell_angle_gamma   54.29692826
_symmetry_Int_Tables_number   1
_chemical_formula_structural   Na2UI6
_chemical_formula_sum   'Na2 U1 I6'
_cell_volume   384.55643389
_cell_formula_units_Z   1
loop_
 _symmetry_equiv_pos_site_id
 _symmetry_equiv_pos_as_xyz
  1  'x, y, z'
loop_
 _atom_site_type_symbol
 _atom_site_label
 _atom_site_symmetry_multiplicity
 _atom_site_fract_x
 _atom_site_fract_y
 _atom_site_fract_z
 _atom_site_occupancy
  Na  Na0  1  0.32944029  0.32944029  0.32944029  1
  Na  Na1  1  0.67055971  0.67055971  0.67055971  1
  U  U0  1  0.00000000  -0.00000000  0.00000000  1
  I  I0  1  0.23718968  0.60877939  0.90999815  1
  I  I1  1  0.60877939  0.90999815  0.23718968  1
  I  I2  1  0.90999815  0.23718968  0.60877939  1
  I  I3  1  0.76281032  0.39122061  0.09000185  1
  I  I4  1  0.39122061  0.09000185  0.76281032  1
  I  I5  1  0.09000185  0.76281032  0.39122061  1
loop_
_geom_bond_atom_site_label_1
_geom_bond_atom_site_label_2
_geom_bond_distance
_geom_bond_site_symmetry_2
I0 U0 3.030050 1_566
I0 Na0 3.212206 1_556
I0 Na1 3.223879 1_555
I1 U0 3.030050 1_665
I1 Na0 3.212206 1_565
I1 Na1 3.223879 1_555
I2 U0 3.030050 1_656
I2 Na0 3.212206 1_655
I2 Na1 3.223879 1_555
I3 U0 3.030050 1_655
I3 Na1 3.212206 1_554
I3 Na0 3.223879 1_555
I4 U0 3.030050 1_556
I4 Na1 3.212206 1_545
I4 Na0 3.223879 1_555
I5 U0 3.030050 1_565
I5 Na1 3.212206 1_455
I5 Na0 3.223879 1_555
