# generated using pymatgen
data_Sc2O3
_symmetry_space_group_name_H-M   'P 1'
_cell_length_a   8.54160167
_cell_length_b   8.54160207
_cell_length_c   8.54160167
_cell_angle_alpha   109.47122206
_cell_angle_beta   109.47122300
_cell_angle_gamma   109.47121730
_symmetry_Int_Tables_number   1
_chemical_formula_structural   Sc2O3
_chemical_formula_sum   'Sc16 O24'
_cell_volume   479.72910892
_cell_formula_units_Z   8
loop_
 _symmetry_equiv_pos_site_id
 _symmetry_equiv_pos_as_xyz
  1  'x, y, z'
loop_
 _atom_site_type_symbol
 _atom_site_label
 _atom_site_symmetry_multiplicity
 _atom_site_fract_x
 _atom_site_fract_y
 _atom_site_fract_z
 _atom_site_occupancy
  Sc  Sc0  1  0.50000000  0.50000000  0.50000000  1
  Sc  Sc1  1  0.00000000  -0.00000000  0.50000000  1
  Sc  Sc2  1  0.50000000  -0.00000000  -0.00000000  1
  Sc  Sc3  1  0.00000000  0.50000000  -0.00000000  1
  Sc  Sc4  1  0.25000000  0.21415440  0.96415440  1
  Sc  Sc5  1  0.28584560  0.53584560  0.75000000  1
  Sc  Sc6  1  0.53584560  0.75000000  0.28584560  1
  Sc  Sc7  1  0.21415440  0.96415440  0.25000000  1
  Sc  Sc8  1  0.96415440  0.25000000  0.21415440  1
  Sc  Sc9  1  0.75000000  0.28584560  0.53584560  1
  Sc  Sc10  1  0.75000000  0.78584560  0.03584560  1
  Sc  Sc11  1  0.71415440  0.46415440  0.25000000  1
  Sc  Sc12  1  0.46415440  0.25000000  0.71415440  1
  Sc  Sc13  1  0.78584560  0.03584560  0.75000000  1
  Sc  Sc14  1  0.03584560  0.75000000  0.78584560  1
  Sc  Sc15  1  0.25000000  0.71415440  0.46415440  1
  O  O0  1  0.53570214  0.77272420  0.54615538  1
  O  O1  1  0.98954676  0.95384462  0.72656882  1
  O  O2  1  0.26297694  0.77343118  0.72727580  1
  O  O3  1  0.51045324  0.23702306  0.96429786  1
  O  O4  1  0.95384462  0.72656882  0.98954676  1
  O  O5  1  0.72727580  0.26297694  0.77343118  1
  O  O6  1  0.23702306  0.96429786  0.51045324  1
  O  O7  1  0.54615538  0.53570214  0.77272420  1
  O  O8  1  0.77272420  0.54615538  0.53570214  1
  O  O9  1  0.72656882  0.98954676  0.95384462  1
  O  O10  1  0.77343118  0.72727580  0.26297694  1
  O  O11  1  0.96429786  0.51045324  0.23702306  1
  O  O12  1  0.46429786  0.22727580  0.45384462  1
  O  O13  1  0.01045324  0.04615538  0.27343118  1
  O  O14  1  0.73702306  0.22656882  0.27272420  1
  O  O15  1  0.48954676  0.76297694  0.03570214  1
  O  O16  1  0.04615538  0.27343118  0.01045324  1
  O  O17  1  0.27272420  0.73702306  0.22656882  1
  O  O18  1  0.76297694  0.03570214  0.48954676  1
  O  O19  1  0.45384462  0.46429786  0.22727580  1
  O  O20  1  0.22727580  0.45384462  0.46429786  1
  O  O21  1  0.27343118  0.01045324  0.04615538  1
  O  O22  1  0.22656882  0.27272420  0.73702306  1
  O  O23  1  0.03570214  0.48954676  0.76297694  1
loop_
_geom_bond_atom_site_label_1
_geom_bond_atom_site_label_2
_geom_bond_distance
_geom_bond_site_symmetry_2
O0 Sc13 2.087503 1_565
O0 Sc0 2.123441 1_555
O0 Sc15 2.123481 1_555
O0 Sc6 2.166961 1_555
O1 Sc14 2.087503 1_655
O1 Sc1 2.123441 1_665
O1 Sc13 2.123481 1_565
O1 Sc4 2.166961 1_665
O2 Sc15 2.087506 1_555
O2 Sc2 2.123443 1_566
O2 Sc14 2.123472 1_555
O2 Sc5 2.166964 1_555
O3 Sc12 2.087499 1_555
O3 Sc2 2.123449 1_556
O3 Sc11 2.123478 1_556
O3 Sc4 2.166959 1_555
O4 Sc10 2.087503 1_556
O4 Sc3 2.123441 1_656
O4 Sc14 2.123481 1_655
O4 Sc7 2.166961 1_656
O5 Sc12 2.087506 1_555
O5 Sc3 2.123443 1_656
O5 Sc13 2.123472 1_555
O5 Sc9 2.166964 1_555
O6 Sc15 2.087499 1_555
O6 Sc1 2.123449 1_565
O6 Sc12 2.123478 1_565
O6 Sc7 2.166959 1_555
O7 Sc10 2.087503 1_556
O7 Sc0 2.123441 1_555
O7 Sc12 2.123481 1_555
O7 Sc5 2.166961 1_555
O8 Sc14 2.087503 1_655
O8 Sc0 2.123441 1_555
O8 Sc11 2.123480 1_555
O8 Sc9 2.166961 1_555
O9 Sc13 2.087503 1_565
O9 Sc2 2.123441 1_566
O9 Sc10 2.123481 1_556
O9 Sc8 2.166961 1_566
O10 Sc11 2.087506 1_555
O10 Sc1 2.123443 1_665
O10 Sc10 2.123472 1_555
O10 Sc6 2.166964 1_555
O11 Sc11 2.087499 1_555
O11 Sc3 2.123449 1_655
O11 Sc15 2.123478 1_655
O11 Sc8 2.166959 1_555
O12 Sc7 2.087503 1_545
O12 Sc0 2.123441 1_555
O12 Sc9 2.123481 1_555
O12 Sc12 2.166961 1_555
O13 Sc8 2.087503 1_455
O13 Sc1 2.123441 1_555
O13 Sc7 2.123481 1_545
O13 Sc10 2.166961 1_445
O14 Sc9 2.087506 1_555
O14 Sc2 2.123443 1_555
O14 Sc8 2.123472 1_555
O14 Sc11 2.166964 1_555
O15 Sc6 2.087499 1_555
O15 Sc2 2.123449 1_565
O15 Sc5 2.123478 1_554
O15 Sc10 2.166959 1_555
O16 Sc4 2.087503 1_554
O16 Sc3 2.123441 1_555
O16 Sc8 2.123481 1_455
O16 Sc13 2.166961 1_454
O17 Sc6 2.087506 1_555
O17 Sc3 2.123443 1_555
O17 Sc7 2.123472 1_555
O17 Sc15 2.166964 1_555
O18 Sc9 2.087499 1_555
O18 Sc1 2.123449 1_655
O18 Sc6 2.123478 1_545
O18 Sc13 2.166959 1_555
O19 Sc4 2.087503 1_554
O19 Sc0 2.123441 1_555
O19 Sc6 2.123481 1_555
O19 Sc11 2.166961 1_555
O20 Sc8 2.087503 1_455
O20 Sc0 2.123441 1_555
O20 Sc5 2.123480 1_555
O20 Sc15 2.166961 1_555
O21 Sc7 2.087503 1_545
O21 Sc2 2.123441 1_555
O21 Sc4 2.123481 1_554
O21 Sc14 2.166961 1_544
O22 Sc5 2.087506 1_555
O22 Sc1 2.123443 1_555
O22 Sc4 2.123472 1_555
O22 Sc12 2.166964 1_555
O23 Sc5 2.087499 1_555
O23 Sc3 2.123449 1_556
O23 Sc9 2.123478 1_455
O23 Sc14 2.166959 1_555
