# generated using pymatgen
data_YMgCo(WO4)2
_symmetry_space_group_name_H-M   'P 1'
_cell_length_a   5.41627608
_cell_length_b   6.12558564
_cell_length_c   5.85449808
_cell_angle_alpha   107.17704596
_cell_angle_beta   118.35144287
_cell_angle_gamma   89.32516577
_symmetry_Int_Tables_number   1
_chemical_formula_structural   YMgCo(WO4)2
_chemical_formula_sum   'Y1 Mg1 Co1 W2 O8'
_cell_volume   161.39885877
_cell_formula_units_Z   1
loop_
 _symmetry_equiv_pos_site_id
 _symmetry_equiv_pos_as_xyz
  1  'x, y, z'
loop_
 _atom_site_type_symbol
 _atom_site_label
 _atom_site_symmetry_multiplicity
 _atom_site_fract_x
 _atom_site_fract_y
 _atom_site_fract_z
 _atom_site_occupancy
  Y  Y0  1  0.61905150  0.68474304  0.10475706  1
  Mg  Mg0  1  0.07116516  0.94979127  0.02097350  1
  Co  Co0  1  0.15543980  0.45280905  0.14642274  1
  W  W0  1  0.86523752  0.33497830  0.58891057  1
  W  W1  1  0.38402679  0.05600610  0.62031158  1
  O  O0  1  0.14345302  0.62692416  0.85255451  1
  O  O1  1  0.60366460  0.47447698  0.35227865  1
  O  O2  1  0.13264611  0.13420452  0.80836443  1
  O  O3  1  0.54859986  0.02489917  0.36351463  1
  O  O4  1  0.64042354  0.91051216  0.85666670  1
  O  O5  1  0.08834209  0.79431780  0.32416874  1
  O  O6  1  0.11192887  0.24776721  0.39592801  1
  O  O7  1  0.68202015  0.36206925  0.83416088  1
loop_
_geom_bond_atom_site_label_1
_geom_bond_atom_site_label_2
_geom_bond_distance
_geom_bond_site_symmetry_2
Mg0 O2 2.041893 1_564
Mg0 O4 2.042361 1_454
Mg0 O0 2.057573 1_554
Mg0 O5 2.214959 1_555
Mg0 O6 2.319853 1_565
Mg0 O3 2.340534 1_565
Co0 O1 2.120880 1_555
Co0 O5 2.155609 1_555
Co0 O0 2.253400 1_554
Co0 O6 2.276923 1_555
Co0 O7 2.281943 1_454
Co0 O2 2.287657 1_554
O0 W0 2.018750 1_455
O0 Y0 2.245311 1_556
O1 W0 1.860967 1_555
O1 Y0 2.232821 1_555
O2 W0 2.094032 1_455
O2 W1 2.095757 1_555
O3 W1 2.047117 1_555
O3 W0 2.176516 1_555
O3 Y0 2.334101 1_545
O4 W1 1.873968 1_565
O4 Y0 2.320664 1_556
O5 W1 1.980444 1_565
O5 Y0 2.234116 1_455
O6 W1 2.075898 1_555
O6 W0 2.099431 1_455
O7 W0 2.069425 1_555
O7 W1 2.110244 1_555
O7 Y0 2.276097 1_556
