# generated using pymatgen
data_Na3LaMgP2SO12
_symmetry_space_group_name_H-M   'P 1'
_cell_length_a   9.40902142
_cell_length_b   9.36070863
_cell_length_c   23.37457079
_cell_angle_alpha   88.58258842
_cell_angle_beta   90.00000000
_cell_angle_gamma   120.17087957
_symmetry_Int_Tables_number   1
_chemical_formula_structural   Na3LaMgP2SO12
_chemical_formula_sum   'Na18 La6 Mg6 P12 S6 O72'
_cell_volume   1779.09538338
_cell_formula_units_Z   6
loop_
 _symmetry_equiv_pos_site_id
 _symmetry_equiv_pos_as_xyz
  1  'x, y, z'
loop_
 _atom_site_type_symbol
 _atom_site_label
 _atom_site_symmetry_multiplicity
 _atom_site_fract_x
 _atom_site_fract_y
 _atom_site_fract_z
 _atom_site_occupancy
  Na  Na0  1  0.35327822  0.34896244  0.24492581  1
  Na  Na1  1  0.99934799  0.62626142  0.24353367  1
  Na  Na2  1  0.62691343  0.62626142  0.74353367  1
  Na  Na3  1  0.99568423  0.34896244  0.74492581  1
  Na  Na4  1  0.01994522  0.68229544  0.57825881  1
  Na  Na5  1  0.66601499  0.95959442  0.57686667  1
  Na  Na6  1  0.29358043  0.95959442  0.07686667  1
  Na  Na7  1  0.66235123  0.68229544  0.07825881  1
  Na  Na8  1  0.68661122  0.01562944  0.91159281  1
  Na  Na9  1  0.33268099  0.29292842  0.91020067  1
  Na  Na10  1  0.96024643  0.29292842  0.41020067  1
  Na  Na11  1  0.32901723  0.01562944  0.41159281  1
  Na  Na12  1  0.97264185  0.97846066  0.48979631  1
  Na  Na13  1  0.00581881  0.97846066  0.98979631  1
  Na  Na14  1  0.63930885  0.31179366  0.82312931  1
  Na  Na15  1  0.67248581  0.31179366  0.32312931  1
  Na  Na16  1  0.30597485  0.64512766  0.15646331  1
  Na  Na17  1  0.33915181  0.64512766  0.65646331  1
  La  La0  1  0.01540979  0.01921585  0.65172863  1
  La  La1  1  0.00380606  0.01921585  0.15172863  1
  La  La2  1  0.68207679  0.35254885  0.98506163  1
  La  La3  1  0.67047306  0.35254885  0.48506163  1
  La  La4  1  0.34874279  0.68588285  0.31839563  1
  La  La5  1  0.33713906  0.68588285  0.81839563  1
  Mg  Mg0  1  0.98635868  0.99237678  0.34806438  1
  Mg  Mg1  1  0.00601810  0.99237678  0.84806438  1
  Mg  Mg2  1  0.65302568  0.32570978  0.68139738  1
  Mg  Mg3  1  0.67268510  0.32570978  0.18139738  1
  Mg  Mg4  1  0.31969168  0.65904378  0.01473138  1
  Mg  Mg5  1  0.33935110  0.65904378  0.51473138  1
  P  P0  1  0.30715803  0.01854199  0.25093190  1
  P  P1  1  0.98961947  0.30176563  0.25631741  1
  P  P2  1  0.31214615  0.30176563  0.75631741  1
  P  P3  1  0.71138395  0.01854199  0.75093190  1
  P  P4  1  0.97382503  0.35187499  0.58426490  1
  P  P5  1  0.65628647  0.63509863  0.58965041  1
  P  P6  1  0.97881315  0.63509863  0.08965041  1
  P  P7  1  0.37805095  0.35187499  0.08426490  1
  P  P8  1  0.64049103  0.68520899  0.91759890  1
  P  P9  1  0.32295247  0.96843263  0.92298441  1
  P  P10  1  0.64547915  0.96843263  0.42298441  1
  P  P11  1  0.04471695  0.68520899  0.41759890  1
  S  S0  1  0.70591370  0.68650714  0.25003038  1
  S  S1  1  0.98059344  0.68650714  0.75003038  1
  S  S2  1  0.37258070  0.01984014  0.58336338  1
  S  S3  1  0.64726044  0.01984014  0.08336338  1
  S  S4  1  0.03924670  0.35317414  0.91669738  1
  S  S5  1  0.31392644  0.35317414  0.41669738  1
  O  O0  1  0.21205083  0.03081817  0.30325782  1
  O  O1  1  0.80915353  0.78788367  0.29711493  1
  O  O2  1  0.97656720  0.19824169  0.31068071  1
  O  O3  1  0.22167449  0.19824169  0.81068071  1
  O  O4  1  0.97873013  0.78788367  0.79711493  1
  O  O5  1  0.81876734  0.03081817  0.80325782  1
  O  O6  1  0.78905298  0.99477622  0.69600475  1
  O  O7  1  0.20826888  0.22247548  0.70298796  1
  O  O8  1  0.00648591  0.77421330  0.69420916  1
  O  O9  1  0.76772740  0.77421330  0.19420916  1
  O  O10  1  0.01420660  0.22247548  0.20298796  1
  O  O11  1  0.20572325  0.99477622  0.19600475  1
  O  O12  1  0.87871783  0.36415117  0.63659082  1
  O  O13  1  0.47582053  0.12121667  0.63044793  1
  O  O14  1  0.64323420  0.53157469  0.64401371  1
  O  O15  1  0.88834149  0.53157469  0.14401371  1
  O  O16  1  0.64539713  0.12121667  0.13044793  1
  O  O17  1  0.48543434  0.36415117  0.13659082  1
  O  O18  1  0.45571998  0.32810922  0.02933775  1
  O  O19  1  0.87493588  0.55580848  0.03632096  1
  O  O20  1  0.67315291  0.10754630  0.02754216  1
  O  O21  1  0.43439440  0.10754630  0.52754216  1
  O  O22  1  0.68087360  0.55580848  0.53632096  1
  O  O23  1  0.87239025  0.32810922  0.52933775  1
  O  O24  1  0.54538383  0.69748517  0.96992482  1
  O  O25  1  0.14248653  0.45455067  0.96378193  1
  O  O26  1  0.30990020  0.86490869  0.97734771  1
  O  O27  1  0.55500749  0.86490869  0.47734771  1
  O  O28  1  0.31206313  0.45455067  0.46378193  1
  O  O29  1  0.15210034  0.69748517  0.46992482  1
  O  O30  1  0.12238598  0.66144322  0.36267175  1
  O  O31  1  0.54160188  0.88914248  0.36965496  1
  O  O32  1  0.33981891  0.44088030  0.36087616  1
  O  O33  1  0.10106040  0.44088030  0.86087616  1
  O  O34  1  0.34753960  0.88914248  0.86965496  1
  O  O35  1  0.53905625  0.66144322  0.86267175  1
  O  O36  1  0.03608689  0.84677596  0.41161703  1
  O  O37  1  0.82012398  0.99242840  0.41614542  1
  O  O38  1  0.15517693  0.19303932  0.41709539  1
  O  O39  1  0.03786240  0.19303932  0.91709539  1
  O  O40  1  0.17230443  0.99242840  0.91614542  1
  O  O41  1  0.81068907  0.84677596  0.91161703  1
  O  O42  1  0.99193479  0.19575488  0.58726357  1
  O  O43  1  0.19799643  0.97997150  0.58853606  1
  O  O44  1  0.81596547  0.81152949  0.58975873  1
  O  O45  1  0.99556401  0.81152949  0.08975873  1
  O  O46  1  0.78197507  0.97997150  0.08853606  1
  O  O47  1  0.20382009  0.19575488  0.08726357  1
  O  O48  1  0.70275389  0.18010896  0.74495003  1
  O  O49  1  0.48679098  0.32576140  0.74947842  1
  O  O50  1  0.82184393  0.52637232  0.75042839  1
  O  O51  1  0.70452940  0.52637232  0.25042839  1
  O  O52  1  0.83897143  0.32576140  0.24947842  1
  O  O53  1  0.47735607  0.18010896  0.24495003  1
  O  O54  1  0.65860179  0.52908788  0.92059657  1
  O  O55  1  0.86466343  0.31330450  0.92186906  1
  O  O56  1  0.48263247  0.14486249  0.92309173  1
  O  O57  1  0.66223101  0.14486249  0.42309173  1
  O  O58  1  0.44864207  0.31330450  0.42186906  1
  O  O59  1  0.87048709  0.52908788  0.42059657  1
  O  O60  1  0.36941989  0.51344296  0.07828403  1
  O  O61  1  0.15345698  0.65909540  0.08281242  1
  O  O62  1  0.48850993  0.85970632  0.08376239  1
  O  O63  1  0.37119540  0.85970632  0.58376239  1
  O  O64  1  0.50563743  0.65909540  0.58281242  1
  O  O65  1  0.14402207  0.51344296  0.57828403  1
  O  O66  1  0.32526779  0.86242188  0.25393057  1
  O  O67  1  0.53132943  0.64663850  0.25520306  1
  O  O68  1  0.14929847  0.47819649  0.25642573  1
  O  O69  1  0.32889701  0.47819649  0.75642573  1
  O  O70  1  0.11530807  0.64663850  0.75520306  1
  O  O71  1  0.53715309  0.86242188  0.75393057  1
loop_
_geom_bond_atom_site_label_1
_geom_bond_atom_site_label_2
_geom_bond_distance
_geom_bond_site_symmetry_2
Na0 O53 2.390803 1_555
Na0 O67 2.443267 1_555
Na0 O68 2.751188 1_555
Na0 O17 2.789866 1_555
Na0 O51 2.861952 1_555
Na0 O0 2.883586 1_555
Na0 O32 2.885640 1_555
Na0 O10 2.966747 1_555
Na1 O52 2.433692 1_555
Na1 O68 2.438708 1_655
Na1 O51 2.445507 1_555
Na1 O15 2.541525 1_555
Na1 O66 2.749981 1_655
Na1 O30 2.977570 1_655
Na2 O49 2.433692 1_555
Na2 O69 2.438716 1_555
Na2 O50 2.445515 1_555
Na2 O14 2.541527 1_555
Na2 O71 2.749988 1_555
Na2 O35 2.977573 1_555
Na3 O48 2.390796 1_555
Na3 O70 2.443268 1_655
Na3 O69 2.751179 1_655
Na3 O12 2.789862 1_555
Na3 O50 2.861944 1_555
Na3 O5 2.883586 1_555
Na3 O33 2.885638 1_655
Na3 O7 2.966747 1_655
Na4 O65 2.390787 1_555
Na4 O43 2.443267 1_555
Na4 O44 2.751188 1_455
Na4 O29 2.789839 1_555
Na4 O63 2.861946 1_555
Na4 O12 2.883586 1_455
Na4 O8 2.885640 1_555
Na4 O22 2.966747 1_455
Na5 O64 2.433685 1_555
Na5 O44 2.438708 1_555
Na5 O63 2.445518 1_555
Na5 O27 2.541504 1_555
Na5 O42 2.749981 1_565
Na5 O6 2.977570 1_555
Na6 O61 2.433684 1_555
Na6 O45 2.438716 1_455
Na6 O62 2.445501 1_555
Na6 O26 2.541499 1_554
Na6 O47 2.749988 1_565
Na6 O11 2.977573 1_555
Na7 O60 2.390802 1_555
Na7 O46 2.443268 1_555
Na7 O45 2.751179 1_555
Na7 O24 2.789847 1_554
Na7 O62 2.861962 1_555
Na7 O17 2.883586 1_555
Na7 O9 2.885638 1_555
Na7 O19 2.966747 1_555
Na8 O41 2.390803 1_545
Na8 O55 2.443257 1_555
Na8 O56 2.751169 1_555
Na8 O5 2.789866 1_555
Na8 O39 2.861952 1_655
Na8 O24 2.883586 1_545
Na8 O20 2.885612 1_556
Na8 O34 2.966747 1_545
Na9 O40 2.433692 1_545
Na9 O56 2.438722 1_555
Na9 O39 2.445507 1_555
Na9 O3 2.541525 1_555
Na9 O54 2.749983 1_555
Na9 O18 2.977551 1_556
Na10 O37 2.433692 1_545
Na10 O57 2.438706 1_555
Na10 O38 2.445515 1_655
Na10 O2 2.541527 1_555
Na10 O59 2.749970 1_555
Na10 O23 2.977545 1_555
Na11 O36 2.390796 1_545
Na11 O58 2.443255 1_555
Na11 O57 2.751186 1_555
Na11 O0 2.789862 1_555
Na11 O38 2.861944 1_555
Na11 O29 2.883586 1_545
Na11 O21 2.885616 1_555
Na11 O31 2.966747 1_545
Na12 O37 2.284222 1_555
Na12 O36 2.462988 1_655
Na12 O38 2.497124 1_665
Na12 O44 2.752895 1_555
Na13 O40 2.284222 1_555
Na13 O41 2.462988 1_455
Na13 O39 2.497124 1_565
Na13 O45 2.752895 1_456
Na14 O49 2.284222 1_555
Na14 O48 2.462988 1_555
Na14 O50 2.497124 1_555
Na14 O56 2.752895 1_555
Na15 O52 2.284222 1_555
Na15 O53 2.462988 1_555
Na15 O51 2.497124 1_555
Na15 O57 2.752895 1_555
Na16 O61 2.284222 1_555
Na16 O60 2.462988 1_555
Na16 O62 2.497124 1_555
Na16 O68 2.752895 1_555
Na17 O64 2.284222 1_555
Na17 O65 2.462988 1_555
Na17 O63 2.497124 1_555
Na17 O69 2.752895 1_555
La0 O7 2.234031 1_555
La0 O6 2.271122 1_445
La0 O42 2.300852 1_455
La0 O44 2.423116 1_445
La0 O43 2.435029 1_545
La0 O8 2.438541 1_545
La1 O10 2.234031 1_555
La1 O11 2.271122 1_545
La1 O47 2.300852 1_555
La1 O45 2.423116 1_445
La1 O46 2.435029 1_445
La1 O9 2.438541 1_445
La2 O19 2.234031 1_556
La2 O18 2.271122 1_556
La2 O54 2.300852 1_555
La2 O56 2.423116 1_555
La2 O55 2.435029 1_555
La2 O20 2.438541 1_556
La3 O22 2.234031 1_555
La3 O23 2.271122 1_555
La3 O59 2.300852 1_555
La3 O57 2.423116 1_555
La3 O58 2.435029 1_555
La3 O21 2.438541 1_555
La4 O31 2.234031 1_555
La4 O30 2.271122 1_555
La4 O66 2.300852 1_555
La4 O68 2.423116 1_555
La4 O67 2.435029 1_555
La4 O32 2.438541 1_555
La5 O34 2.234031 1_555
La5 O35 2.271122 1_555
La5 O71 2.300852 1_555
La5 O69 2.423116 1_555
La5 O70 2.435029 1_555
La5 O33 2.438541 1_555
Mg0 O2 2.140256 1_565
Mg0 O1 2.183379 1_555
Mg0 O36 2.196380 1_655
Mg0 O0 2.224658 1_665
Mg0 O37 2.231517 1_555
Mg0 O38 2.409522 1_665
Mg1 O3 2.140256 1_565
Mg1 O4 2.183379 1_455
Mg1 O41 2.196380 1_455
Mg1 O5 2.224658 1_465
Mg1 O40 2.231517 1_555
Mg1 O39 2.409522 1_565
Mg2 O14 2.140256 1_555
Mg2 O13 2.183379 1_555
Mg2 O48 2.196380 1_555
Mg2 O12 2.224658 1_555
Mg2 O49 2.231517 1_555
Mg2 O50 2.409522 1_555
Mg3 O15 2.140256 1_555
Mg3 O16 2.183379 1_555
Mg3 O53 2.196380 1_555
Mg3 O17 2.224658 1_555
Mg3 O52 2.231517 1_555
Mg3 O51 2.409522 1_555
Mg4 O26 2.140256 1_554
Mg4 O25 2.183379 1_554
Mg4 O60 2.196380 1_555
Mg4 O24 2.224658 1_554
Mg4 O61 2.231517 1_555
Mg4 O62 2.409522 1_555
Mg5 O27 2.140256 1_555
Mg5 O28 2.183379 1_555
Mg5 O65 2.196380 1_555
Mg5 O29 2.224658 1_555
Mg5 O64 2.231517 1_555
Mg5 O63 2.409522 1_555
O0 P0 1.555722 1_555
O1 S0 1.476650 1_555
O2 P1 1.545425 1_555
O3 P2 1.545425 1_555
O4 S1 1.476650 1_555
O5 P3 1.555722 1_555
O6 P3 1.552251 1_565
O7 P2 1.541640 1_555
O8 S1 1.477103 1_455
O9 S0 1.477103 1_555
O10 P1 1.541640 1_455
O11 P0 1.552251 1_565
O12 P4 1.555722 1_555
O13 S2 1.476650 1_555
O14 P5 1.545425 1_555
O15 P6 1.545425 1_555
O16 S3 1.476650 1_555
O17 P7 1.555722 1_555
O18 P7 1.552251 1_555
O19 P6 1.541640 1_555
O20 S3 1.477103 1_555
O21 S2 1.477103 1_555
O22 P5 1.541640 1_555
O23 P4 1.552251 1_555
O24 P8 1.555722 1_555
O25 S4 1.476650 1_555
O26 P9 1.545425 1_555
O27 P10 1.545425 1_555
O28 S5 1.476650 1_555
O29 P11 1.555722 1_555
O30 P11 1.552251 1_555
O31 P10 1.541640 1_555
O32 S5 1.477103 1_555
O33 S4 1.477103 1_555
O34 P9 1.541640 1_555
O35 P8 1.552251 1_555
O36 P11 1.557697 1_555
O37 P10 1.550308 1_555
O38 S5 1.492265 1_555
O39 S4 1.492270 1_555
O40 P9 1.550298 1_555
O41 P8 1.557702 1_555
O42 P4 1.553980 1_555
O43 S2 1.494595 1_565
O44 P5 1.578263 1_555
O45 P6 1.578267 1_555
O46 S3 1.494586 1_565
O47 P7 1.553986 1_555
O48 P3 1.557697 1_555
O49 P2 1.550308 1_555
O50 S1 1.492265 1_555
O51 S0 1.492270 1_555
O52 P1 1.550298 1_555
O53 P0 1.557702 1_555
O54 P8 1.553995 1_555
O55 S4 1.494581 1_655
O56 P9 1.578261 1_545
O57 P10 1.578253 1_545
O58 S5 1.494599 1_555
O59 P11 1.553984 1_655
O60 P7 1.557710 1_555
O61 P6 1.550293 1_455
O62 S3 1.492264 1_565
O63 S2 1.492255 1_565
O64 P5 1.550311 1_555
O65 P4 1.557700 1_455
O66 P0 1.553980 1_565
O67 S0 1.494595 1_555
O68 P1 1.578263 1_455
O69 P2 1.578267 1_555
O70 S1 1.494586 1_455
O71 P3 1.553986 1_565
