# generated using pymatgen
data_MgAg2(BiO3)2
_symmetry_space_group_name_H-M   'P 1'
_cell_length_a   6.34715090
_cell_length_b   6.34715070
_cell_length_c   6.34715044
_cell_angle_alpha   55.91097455
_cell_angle_beta   55.91097802
_cell_angle_gamma   55.91097719
_symmetry_Int_Tables_number   1
_chemical_formula_structural   MgAg2(BiO3)2
_chemical_formula_sum   'Mg1 Ag2 Bi2 O6'
_cell_volume   163.67450448
_cell_formula_units_Z   1
loop_
 _symmetry_equiv_pos_site_id
 _symmetry_equiv_pos_as_xyz
  1  'x, y, z'
loop_
 _atom_site_type_symbol
 _atom_site_label
 _atom_site_symmetry_multiplicity
 _atom_site_fract_x
 _atom_site_fract_y
 _atom_site_fract_z
 _atom_site_occupancy
  Mg  Mg0  1  0.50000000  0.50000000  0.50000000  1
  Ag  Ag0  1  0.09208100  0.09208100  0.09208100  1
  Ag  Ag1  1  0.90791900  0.90791900  0.90791900  1
  Bi  Bi0  1  0.30801100  0.30801100  0.30801100  1
  Bi  Bi1  1  0.69198900  0.69198900  0.69198900  1
  O  O0  1  0.67244900  0.43181600  0.13011100  1
  O  O1  1  0.32755100  0.56818400  0.86988900  1
  O  O2  1  0.86988900  0.32755100  0.56818400  1
  O  O3  1  0.56818400  0.86988900  0.32755100  1
  O  O4  1  0.43181600  0.13011100  0.67244900  1
  O  O5  1  0.13011100  0.67244900  0.43181600  1
loop_
_geom_bond_atom_site_label_1
_geom_bond_atom_site_label_2
_geom_bond_distance
_geom_bond_site_symmetry_2
Mg0 O0 2.150490 1_555
Mg0 O1 2.150490 1_555
Mg0 O3 2.150490 1_555
Mg0 O4 2.150490 1_555
Mg0 O2 2.150491 1_555
Mg0 O5 2.150491 1_555
Ag0 O5 2.286233 1_545
Ag0 O4 2.286233 1_554
Ag0 O0 2.286233 1_455
Ag1 O2 2.286233 1_565
Ag1 O3 2.286233 1_556
Ag1 O1 2.286233 1_655
Bi0 O1 2.273923 1_554
Bi0 O3 2.273923 1_545
Bi0 O2 2.273923 1_455
Bi0 O4 2.314780 1_555
Bi0 O5 2.314780 1_555
Bi0 O0 2.314780 1_555
Bi1 O0 2.273923 1_556
Bi1 O4 2.273923 1_565
Bi1 O5 2.273923 1_655
Bi1 O3 2.314780 1_555
Bi1 O2 2.314780 1_555
Bi1 O1 2.314780 1_555
