# generated using pymatgen
data_DyGe3
_symmetry_space_group_name_H-M   'P 1'
_cell_length_a   10.68606378
_cell_length_b   10.68606378
_cell_length_c   3.89233913
_cell_angle_alpha   90.00000000
_cell_angle_beta   90.00000000
_cell_angle_gamma   158.38028039
_symmetry_Int_Tables_number   1
_chemical_formula_structural   DyGe3
_chemical_formula_sum   'Dy2 Ge6'
_cell_volume   163.76395357
_cell_formula_units_Z   2
loop_
 _symmetry_equiv_pos_site_id
 _symmetry_equiv_pos_as_xyz
  1  'x, y, z'
loop_
 _atom_site_type_symbol
 _atom_site_label
 _atom_site_symmetry_multiplicity
 _atom_site_fract_x
 _atom_site_fract_y
 _atom_site_fract_z
 _atom_site_occupancy
  Dy  Dy0  1  0.41621168  0.58378832  0.75000000  1
  Dy  Dy1  1  0.58378832  0.41621168  0.25000000  1
  Ge  Ge0  1  0.80982875  0.19017125  0.75000000  1
  Ge  Ge1  1  0.19017125  0.80982875  0.25000000  1
  Ge  Ge2  1  0.96194074  0.03805926  0.25000000  1
  Ge  Ge3  1  0.03805926  0.96194074  0.75000000  1
  Ge  Ge4  1  0.30787983  0.69212017  0.25000000  1
  Ge  Ge5  1  0.69212017  0.30787983  0.75000000  1
loop_
_geom_bond_atom_site_label_1
_geom_bond_atom_site_label_2
_geom_bond_distance
_geom_bond_site_symmetry_2
Dy0 Ge2 2.953957 1_566
Dy0 Ge2 2.953957 1_565
Dy0 Ge2 2.953957 1_455
Dy0 Ge2 2.953957 1_456
Dy0 Ge4 2.993251 1_555
Dy0 Ge4 2.993251 1_556
Dy0 Ge0 3.000712 1_565
Dy0 Ge0 3.000712 1_455
Dy0 Ge3 3.249574 1_545
Dy0 Ge3 3.249574 1_655
Dy1 Ge3 2.953957 1_655
Dy1 Ge3 2.953957 1_544
Dy1 Ge3 2.953957 1_545
Dy1 Ge3 2.953957 1_654
Dy1 Ge5 2.993251 1_555
Dy1 Ge5 2.993251 1_554
Dy1 Ge1 3.000712 1_655
Dy1 Ge1 3.000712 1_545
Dy1 Ge2 3.249574 1_455
Dy1 Ge2 3.249574 1_565
Ge0 Ge5 2.471042 1_555
Ge0 Ge4 2.793916 1_545
Ge0 Ge4 2.793916 1_546
Ge0 Ge4 2.793916 1_656
Ge0 Ge4 2.793916 1_655
Ge1 Ge4 2.471042 1_555
Ge1 Ge5 2.793916 1_454
Ge1 Ge5 2.793916 1_455
Ge1 Ge5 2.793916 1_565
Ge1 Ge5 2.793916 1_564
Ge2 Ge3 2.518136 1_645
Ge2 Ge3 2.518136 1_644
