# generated using pymatgen
data_Na3Bi
_symmetry_space_group_name_H-M   'P 1'
_cell_length_a   5.42003886
_cell_length_b   5.42004005
_cell_length_c   9.65336417
_cell_angle_alpha   90.00000000
_cell_angle_beta   90.00000000
_cell_angle_gamma   120.00001105
_symmetry_Int_Tables_number   1
_chemical_formula_structural   Na3Bi
_chemical_formula_sum   'Na6 Bi2'
_cell_volume   245.59197374
_cell_formula_units_Z   2
loop_
 _symmetry_equiv_pos_site_id
 _symmetry_equiv_pos_as_xyz
  1  'x, y, z'
loop_
 _atom_site_type_symbol
 _atom_site_label
 _atom_site_symmetry_multiplicity
 _atom_site_fract_x
 _atom_site_fract_y
 _atom_site_fract_z
 _atom_site_occupancy
  Na  Na0  1  0.33333300  0.66666700  0.91729282  1
  Na  Na1  1  0.66666700  0.33333300  0.41729282  1
  Na  Na2  1  -0.00000000  0.00000000  0.25000000  1
  Na  Na3  1  0.00000000  0.00000000  0.75000000  1
  Na  Na4  1  0.33333300  0.66666700  0.58270718  1
  Na  Na5  1  0.66666700  0.33333300  0.08270718  1
  Bi  Bi0  1  0.66666700  0.33333300  0.75000000  1
  Bi  Bi1  1  0.33333300  0.66666700  0.25000000  1
loop_
_geom_bond_atom_site_label_1
_geom_bond_atom_site_label_2
_geom_bond_distance
_geom_bond_site_symmetry_2
Na0 Na4 3.229877 1_555
Na0 Na5 3.513124 1_456
Na0 Na5 3.513124 1_566
Na0 Na5 3.513133 1_556
Na0 Na3 3.521404 1_565
Na0 Na3 3.521407 1_665
Na0 Na3 3.521408 1_555
Na1 Na5 3.229877 1_555
Na1 Na4 3.513124 1_655
Na1 Na4 3.513124 1_545
Na1 Na4 3.513133 1_555
Na1 Na2 3.521404 1_655
Na1 Na2 3.521407 1_555
Na1 Na2 3.521408 1_665
Na2 Na5 3.521404 1_455
Na2 Na5 3.521407 1_555
Na2 Na5 3.521408 1_445
Na3 Na4 3.521404 1_545
Na3 Na4 3.521407 1_445
Na3 Na4 3.521408 1_555
Bi0 Na3 3.129258 1_655
Bi0 Na3 3.129262 1_555
Bi0 Na3 3.129263 1_665
Bi0 Na1 3.211744 1_555
Bi0 Na5 3.211744 1_556
Bi0 Na0 3.521403 1_655
Bi0 Na4 3.521403 1_655
Bi0 Na0 3.521404 1_545
Bi0 Na4 3.521404 1_545
Bi0 Na0 3.521412 1_555
Bi0 Na4 3.521412 1_555
Bi1 Na2 3.129258 1_565
Bi1 Na2 3.129262 1_665
Bi1 Na2 3.129263 1_555
Bi1 Na0 3.211744 1_554
Bi1 Na4 3.211744 1_555
Bi1 Na1 3.521403 1_455
Bi1 Na5 3.521403 1_455
Bi1 Na1 3.521404 1_565
Bi1 Na5 3.521404 1_565
Bi1 Na1 3.521412 1_555
Bi1 Na5 3.521412 1_555
