# generated using pymatgen
data_La5B4N9
_symmetry_space_group_name_H-M   'P 1'
_cell_length_a   7.71945600
_cell_length_b   9.81428400
_cell_length_c   12.65820500
_cell_angle_alpha   90.00000000
_cell_angle_beta   90.00000000
_cell_angle_gamma   90.00000000
_symmetry_Int_Tables_number   1
_chemical_formula_structural   La5B4N9
_chemical_formula_sum   'La20 B16 N36'
_cell_volume   958.99742735
_cell_formula_units_Z   4
loop_
 _symmetry_equiv_pos_site_id
 _symmetry_equiv_pos_as_xyz
  1  'x, y, z'
loop_
 _atom_site_type_symbol
 _atom_site_label
 _atom_site_symmetry_multiplicity
 _atom_site_fract_x
 _atom_site_fract_y
 _atom_site_fract_z
 _atom_site_occupancy
  La  La0  1  0.99641300  0.34586600  0.08526600  1
  La  La1  1  0.49641300  0.65413400  0.91473400  1
  La  La2  1  0.00358700  0.34586600  0.41473400  1
  La  La3  1  0.50358700  0.65413400  0.58526600  1
  La  La4  1  0.00358700  0.65413400  0.91473400  1
  La  La5  1  0.50358700  0.34586600  0.08526600  1
  La  La6  1  0.99641300  0.65413400  0.58526600  1
  La  La7  1  0.49641300  0.34586600  0.41473400  1
  La  La8  1  0.50000000  0.01041900  0.25000000  1
  La  La9  1  0.00000000  0.98958100  0.75000000  1
  La  La10  1  0.50000000  0.98958100  0.75000000  1
  La  La11  1  0.00000000  0.01041900  0.25000000  1
  La  La12  1  0.25000000  0.99499100  0.99528200  1
  La  La13  1  0.75000000  0.00500900  0.00471800  1
  La  La14  1  0.75000000  0.99499100  0.50471800  1
  La  La15  1  0.25000000  0.00500900  0.49528200  1
  La  La16  1  0.25000000  0.36024700  0.67816800  1
  La  La17  1  0.75000000  0.63975300  0.32183200  1
  La  La18  1  0.75000000  0.36024700  0.82183200  1
  La  La19  1  0.25000000  0.63975300  0.17816800  1
  B  B0  1  0.75000000  0.43393600  0.58544300  1
  B  B1  1  0.09354600  0.22570700  0.87084700  1
  B  B2  1  0.59354600  0.77429300  0.12915300  1
  B  B3  1  0.90645400  0.22570700  0.62915300  1
  B  B4  1  0.40645400  0.77429300  0.37084700  1
  B  B5  1  0.90645400  0.77429300  0.12915300  1
  B  B6  1  0.40645400  0.22570700  0.87084700  1
  B  B7  1  0.09354600  0.77429300  0.37084700  1
  B  B8  1  0.59354600  0.22570700  0.62915300  1
  B  B9  1  0.25000000  0.43393600  0.91455700  1
  B  B10  1  0.75000000  0.56606400  0.08544300  1
  B  B11  1  0.25000000  0.56606400  0.41455700  1
  B  B12  1  0.25000000  0.75523600  0.74132100  1
  B  B13  1  0.75000000  0.24476400  0.25867900  1
  B  B14  1  0.75000000  0.75523600  0.75867900  1
  B  B15  1  0.25000000  0.24476400  0.24132100  1
  N  N0  1  0.25000000  0.60707400  0.72636800  1
  N  N1  1  0.25000000  0.53377300  0.99831600  1
  N  N2  1  0.96009700  0.85859700  0.41321500  1
  N  N3  1  0.46009700  0.14140300  0.58678500  1
  N  N4  1  0.53990300  0.85859700  0.41321500  1
  N  N5  1  0.03990300  0.14140300  0.58678500  1
  N  N6  1  0.46009700  0.85859700  0.08678500  1
  N  N7  1  0.96009700  0.14140300  0.91321500  1
  N  N8  1  0.58265500  0.37576800  0.62011200  1
  N  N9  1  0.03990300  0.85859700  0.08678500  1
  N  N10  1  0.08265500  0.62423200  0.37988800  1
  N  N11  1  0.41734500  0.37576800  0.87988800  1
  N  N12  1  0.91734500  0.62423200  0.12011200  1
  N  N13  1  0.41734500  0.62423200  0.37988800  1
  N  N14  1  0.91734500  0.37576800  0.62011200  1
  N  N15  1  0.58265500  0.62423200  0.12011200  1
  N  N16  1  0.08265500  0.37576800  0.87988800  1
  N  N17  1  0.25000000  0.39292600  0.22636800  1
  N  N18  1  0.75000000  0.60707400  0.77363200  1
  N  N19  1  0.75000000  0.39292600  0.27363200  1
  N  N20  1  0.25000000  0.15923400  0.82390500  1
  N  N21  1  0.75000000  0.84076600  0.17609500  1
  N  N22  1  0.75000000  0.15923400  0.67609500  1
  N  N23  1  0.25000000  0.84076600  0.32390500  1
  N  N24  1  0.25000000  0.17901400  0.34716600  1
  N  N25  1  0.75000000  0.82098600  0.65283400  1
  N  N26  1  0.75000000  0.17901400  0.15283400  1
  N  N27  1  0.25000000  0.82098600  0.84716600  1
  N  N28  1  0.25000000  0.15463300  0.14646500  1
  N  N29  1  0.75000000  0.84536700  0.85353500  1
  N  N30  1  0.75000000  0.15463300  0.35353500  1
  N  N31  1  0.25000000  0.84536700  0.64646500  1
  N  N32  1  0.25000000  0.46622700  0.49831600  1
  N  N33  1  0.75000000  0.53377300  0.50168400  1
  N  N34  1  0.75000000  0.46622700  0.00168400  1
  N  N35  1  0.53990300  0.14140300  0.91321500  1
loop_
_geom_bond_atom_site_label_1
_geom_bond_atom_site_label_2
_geom_bond_distance
_geom_bond_site_symmetry_2
La0 N34 2.476488 1_555
La0 N26 2.651660 1_555
La0 N17 2.689884 1_655
La0 N16 2.699604 1_654
La0 N28 2.820384 1_655
La0 N12 2.833853 1_555
La0 N1 2.905921 1_654
La0 N7 2.974614 1_554
La0 N19 3.084936 1_555
La1 N1 2.476488 1_555
La1 N27 2.651660 1_555
La1 N18 2.689884 1_555
La1 N15 2.699604 1_556
La1 N29 2.820384 1_555
La1 N11 2.833853 1_555
La1 N34 2.905921 1_556
La1 N6 2.974614 1_556
La1 N0 3.084936 1_555
La2 N32 2.476488 1_555
La2 N24 2.651660 1_555
La2 N19 2.689884 1_455
La2 N14 2.699604 1_455
La2 N30 2.820384 1_455
La2 N10 2.833853 1_555
La2 N33 2.905921 1_455
La2 N5 2.974614 1_555
La2 N17 3.084936 1_555
La3 N33 2.476488 1_555
La3 N25 2.651660 1_555
La3 N0 2.689884 1_555
La3 N13 2.699604 1_555
La3 N31 2.820384 1_555
La3 N8 2.833853 1_555
La3 N32 2.905921 1_555
La3 N4 2.974614 1_555
La3 N18 3.084936 1_555
La4 N1 2.476488 1_555
La4 N27 2.651660 1_555
La4 N18 2.689884 1_455
La4 N12 2.699604 1_456
La4 N29 2.820384 1_455
La4 N16 2.833853 1_555
La4 N34 2.905921 1_456
La4 N9 2.974614 1_556
La4 N0 3.084936 1_555
La5 N34 2.476488 1_555
La5 N26 2.651660 1_555
La5 N17 2.689884 1_555
La5 N11 2.699604 1_554
La5 N28 2.820384 1_555
La5 N15 2.833853 1_555
La5 N1 2.905921 1_554
La5 N35 2.974614 1_554
La5 N19 3.084936 1_555
La6 N33 2.476488 1_555
La6 N25 2.651660 1_555
La6 N0 2.689884 1_655
La6 N10 2.699604 1_655
La6 N31 2.820384 1_655
La6 N14 2.833853 1_555
La6 N32 2.905921 1_655
La6 N2 2.974614 1_555
La6 N18 3.084936 1_555
La7 N32 2.476488 1_555
La7 N24 2.651660 1_555
La7 N19 2.689884 1_555
La7 N8 2.699604 1_555
La7 N30 2.820384 1_555
La7 N13 2.833853 1_555
La7 N33 2.905921 1_555
La7 N3 2.974614 1_555
La7 N17 3.084936 1_555
La8 N4 2.565823 1_545
La8 N6 2.565823 1_545
La8 N23 2.715114 1_545
La8 N21 2.715114 1_545
La8 N30 2.728589 1_555
La8 N28 2.728589 1_555
La8 N24 2.824000 1_555
La8 N26 2.824000 1_555
La9 N7 2.565823 1_465
La9 N5 2.565823 1_565
La9 N20 2.715114 1_565
La9 N22 2.715114 1_465
La9 N31 2.728589 1_555
La9 N29 2.728589 1_455
La9 N25 2.824000 1_455
La9 N27 2.824000 1_555
La10 N3 2.565823 1_565
La10 N35 2.565823 1_565
La10 N22 2.715114 1_565
La10 N20 2.715114 1_565
La10 N29 2.728589 1_555
La10 N31 2.728589 1_555
La10 N25 2.824000 1_555
La10 N27 2.824000 1_555
La11 N9 2.565823 1_545
La11 N2 2.565823 1_445
La11 N21 2.715114 1_445
La11 N23 2.715114 1_545
La11 N28 2.728589 1_555
La11 N30 2.728589 1_455
La11 N26 2.824000 1_455
La11 N24 2.824000 1_555
La12 N6 2.400791 1_556
La12 N9 2.400791 1_556
La12 N28 2.473266 1_566
La12 N27 2.536049 1_555
La12 N20 2.702644 1_565
La12 N35 2.855185 1_565
La12 N7 2.855185 1_465
La13 N35 2.400791 1_554
La13 N7 2.400791 1_554
La13 N29 2.473266 1_544
La13 N26 2.536049 1_555
La13 N21 2.702644 1_545
La13 N9 2.855185 1_645
La13 N6 2.855185 1_545
La14 N2 2.400791 1_555
La14 N4 2.400791 1_555
La14 N30 2.473266 1_565
La14 N25 2.536049 1_555
La14 N22 2.702644 1_565
La14 N5 2.855185 1_665
La14 N3 2.855185 1_565
La15 N5 2.400791 1_555
La15 N3 2.400791 1_555
La15 N31 2.473266 1_545
La15 N24 2.536049 1_555
La15 N23 2.702644 1_545
La15 N4 2.855185 1_545
La15 N2 2.855185 1_445
La16 N0 2.498084 1_555
La16 N32 2.502952 1_555
La16 N14 2.675341 1_455
La16 N8 2.675341 1_555
La16 N20 2.700946 1_555
La16 N11 2.865642 1_555
La16 N16 2.865642 1_555
La16 N3 2.929409 1_555
La16 N5 2.929409 1_555
La17 N19 2.498084 1_555
La17 N33 2.502952 1_555
La17 N10 2.675341 1_655
La17 N13 2.675341 1_555
La17 N21 2.700946 1_555
La17 N15 2.865642 1_555
La17 N12 2.865642 1_555
La17 N2 2.929409 1_555
La17 N4 2.929409 1_555
La18 N18 2.498084 1_555
La18 N34 2.502952 1_556
La18 N16 2.675341 1_655
La18 N11 2.675341 1_555
La18 N22 2.700946 1_555
La18 N14 2.865642 1_555
La18 N8 2.865642 1_555
La18 N7 2.929409 1_555
La18 N35 2.929409 1_555
La19 N17 2.498084 1_555
La19 N1 2.502952 1_554
La19 N15 2.675341 1_555
La19 N12 2.675341 1_455
La19 N23 2.700946 1_555
La19 N13 2.865642 1_555
La19 N10 2.865642 1_555
La19 N9 2.929409 1_555
La19 N6 2.929409 1_555
B0 N33 1.443666 1_555
B0 N14 1.478941 1_555
B0 N8 1.478941 1_555
B1 N7 1.425974 1_455
B1 N16 1.479572 1_555
B1 N20 1.495766 1_555
B2 N6 1.425974 1_555
B2 N15 1.479572 1_555
B2 N21 1.495766 1_555
B3 N5 1.425974 1_655
B3 N14 1.479572 1_555
B3 N22 1.495766 1_555
B4 N4 1.425974 1_555
B4 N13 1.479572 1_555
B4 N23 1.495766 1_555
B5 N9 1.425974 1_655
B5 N12 1.479572 1_555
B5 N21 1.495766 1_555
B6 N35 1.425974 1_555
B6 N11 1.479572 1_555
B6 N20 1.495766 1_555
B7 N2 1.425974 1_455
B7 N10 1.479572 1_555
B7 N23 1.495766 1_555
B8 N3 1.425974 1_555
B8 N8 1.479572 1_555
B8 N22 1.495766 1_555
B9 N1 1.443666 1_555
B9 N16 1.478941 1_555
B9 N11 1.478941 1_555
B10 N34 1.443666 1_555
B10 N15 1.478941 1_555
B10 N12 1.478941 1_555
B11 N32 1.443666 1_555
B11 N10 1.478941 1_555
B11 N13 1.478941 1_555
B12 N0 1.466371 1_555
B12 N27 1.487106 1_555
B12 N31 1.491363 1_555
B13 N19 1.466371 1_555
B13 N26 1.487106 1_555
B13 N30 1.491363 1_555
B14 N18 1.466371 1_555
B14 N25 1.487106 1_555
B14 N29 1.491363 1_555
B15 N17 1.466371 1_555
B15 N24 1.487106 1_555
B15 N28 1.491363 1_555
