# generated using pymatgen
data_NaMgCu2O3
_symmetry_space_group_name_H-M   'P 1'
_cell_length_a   5.76049275
_cell_length_b   6.03245968
_cell_length_c   2.99830247
_cell_angle_alpha   90.00000000
_cell_angle_beta   90.00000000
_cell_angle_gamma   126.26493669
_symmetry_Int_Tables_number   1
_chemical_formula_structural   NaMgCu2O3
_chemical_formula_sum   'Na1 Mg1 Cu2 O3'
_cell_volume   84.00807003
_cell_formula_units_Z   1
loop_
 _symmetry_equiv_pos_site_id
 _symmetry_equiv_pos_as_xyz
  1  'x, y, z'
loop_
 _atom_site_type_symbol
 _atom_site_label
 _atom_site_symmetry_multiplicity
 _atom_site_fract_x
 _atom_site_fract_y
 _atom_site_fract_z
 _atom_site_occupancy
  Na  Na0  1  0.15407227  0.91855719  0.50000000  1
  Mg  Mg0  1  0.83726630  0.10462279  0.50000000  1
  Cu  Cu0  1  0.36395981  0.66748348  0.00000000  1
  Cu  Cu1  1  0.60438950  0.40625102  0.00000000  1
  O  O0  1  0.15003425  0.29459715  0.00000000  1
  O  O1  1  0.54834359  0.06105233  0.00000000  1
  O  O2  1  0.77050528  0.77660306  0.00000000  1
loop_
_geom_bond_atom_site_label_1
_geom_bond_atom_site_label_2
_geom_bond_distance
_geom_bond_site_symmetry_2
Na0 O2 2.371577 1_455
Na0 O2 2.371577 1_456
Na0 O1 2.415581 1_566
Na0 O1 2.415581 1_565
Na0 O0 2.730617 1_565
Na0 O0 2.730617 1_566
Mg0 O0 2.089069 1_656
Mg0 O0 2.089069 1_655
Mg0 O1 2.137530 1_555
Mg0 O1 2.137530 1_556
Mg0 O2 2.326068 1_545
Mg0 O2 2.326068 1_546
Cu0 O0 1.816347 1_555
Cu0 O1 1.944637 1_565
Cu0 O2 2.023379 1_555
Cu1 O2 1.837893 1_555
Cu1 O1 1.909253 1_555
Cu1 O0 2.284386 1_555
