# generated using pymatgen
data_BaCuO2
_symmetry_space_group_name_H-M   'P 1'
_cell_length_a   5.75707587
_cell_length_b   11.75964304
_cell_length_c   3.77291066
_cell_angle_alpha   89.99999906
_cell_angle_beta   90.00058493
_cell_angle_gamma   89.99999906
_symmetry_Int_Tables_number   1
_chemical_formula_structural   BaCuO2
_chemical_formula_sum   'Ba4 Cu4 O8'
_cell_volume   255.43041762
_cell_formula_units_Z   4
loop_
 _symmetry_equiv_pos_site_id
 _symmetry_equiv_pos_as_xyz
  1  'x, y, z'
loop_
 _atom_site_type_symbol
 _atom_site_label
 _atom_site_symmetry_multiplicity
 _atom_site_fract_x
 _atom_site_fract_y
 _atom_site_fract_z
 _atom_site_occupancy
  Ba  Ba0  1  0.24924474  0.11264700  0.50026784  1
  Ba  Ba1  1  0.25076271  0.38784514  0.49970985  1
  Ba  Ba2  1  0.74923730  0.88784531  0.50029014  1
  Ba  Ba3  1  0.75075525  0.61264695  0.49973215  1
  Cu  Cu0  1  0.24962122  0.87370208  0.00016865  1
  Cu  Cu1  1  0.25039112  0.62680691  0.99985987  1
  Cu  Cu2  1  0.74960888  0.12680725  0.00014075  1
  Cu  Cu3  1  0.75037877  0.37370227  0.99983081  1
  O  O0  1  0.02095784  0.75012367  0.00000214  1
  O  O1  1  0.97904224  0.25012350  -0.00000215  1
  O  O2  1  0.00052897  0.50011029  0.99976972  1
  O  O3  1  0.49946858  0.00038370  0.00022621  1
  O  O4  1  0.47906159  0.75038105  0.00002295  1
  O  O5  1  0.52093836  0.25038089  0.99997701  1
  O  O6  1  0.50053138  0.50038378  0.99977376  1
  O  O7  1  0.99947104  0.00011020  0.00023029  1
loop_
_geom_bond_atom_site_label_1
_geom_bond_atom_site_label_2
_geom_bond_distance
_geom_bond_site_symmetry_2
Ba0 O3 2.715905 1_556
Ba0 O7 2.716128 1_456
Ba0 O3 2.716143 1_555
Ba0 O7 2.716304 1_455
Ba0 O1 2.930595 1_456
Ba0 O1 2.931885 1_455
Ba0 O5 2.936758 1_555
Ba0 O5 2.938188 1_554
Ba1 O2 2.715898 1_554
Ba1 O6 2.716054 1_554
Ba1 O2 2.716232 1_555
Ba1 O6 2.716368 1_555
Ba1 O5 2.930440 1_554
Ba1 O5 2.931717 1_555
Ba1 O1 2.936768 1_455
Ba1 O1 2.938184 1_456
Ba2 O7 2.715896 1_566
Ba2 O3 2.716052 1_566
Ba2 O7 2.716230 1_565
Ba2 O3 2.716367 1_565
Ba2 O4 2.930440 1_556
Ba2 O4 2.931717 1_555
Ba2 O0 2.936768 1_656
Ba2 O0 2.938184 1_655
Ba3 O6 2.715904 1_554
Ba3 O2 2.716127 1_654
Ba3 O6 2.716142 1_555
Ba3 O2 2.716303 1_655
Ba3 O0 2.930596 1_655
Ba3 O0 2.931887 1_656
Ba3 O4 2.936759 1_555
Ba3 O4 2.938189 1_556
Cu0 O0 1.960840 1_555
Cu0 O4 1.961608 1_555
Cu0 O7 2.069712 1_465
Cu0 O3 2.070812 1_565
Cu1 O4 1.960831 1_556
Cu1 O0 1.961543 1_556
Cu1 O6 2.069800 1_555
Cu1 O2 2.070998 1_555
Cu2 O5 1.960826 1_554
Cu2 O1 1.961539 1_555
Cu2 O3 2.069803 1_555
Cu2 O7 2.071002 1_555
Cu3 O1 1.960844 1_556
Cu3 O5 1.961611 1_555
Cu3 O2 2.069712 1_655
Cu3 O6 2.070812 1_555
