# generated using pymatgen
data_Na2MgGe2(SbO5)2
_symmetry_space_group_name_H-M   'P 1'
_cell_length_a   5.55722905
_cell_length_b   6.01474298
_cell_length_c   8.35635131
_cell_angle_alpha   110.05805945
_cell_angle_beta   103.13641457
_cell_angle_gamma   104.65774820
_symmetry_Int_Tables_number   1
_chemical_formula_structural   Na2MgGe2(SbO5)2
_chemical_formula_sum   'Na2 Mg1 Ge2 Sb2 O10'
_cell_volume   238.19380802
_cell_formula_units_Z   1
loop_
 _symmetry_equiv_pos_site_id
 _symmetry_equiv_pos_as_xyz
  1  'x, y, z'
loop_
 _atom_site_type_symbol
 _atom_site_label
 _atom_site_symmetry_multiplicity
 _atom_site_fract_x
 _atom_site_fract_y
 _atom_site_fract_z
 _atom_site_occupancy
  Na  Na0  1  0.34722300  0.69669500  0.67743900  1
  Na  Na1  1  0.67474200  0.33823800  0.34230200  1
  Mg  Mg0  1  0.41036600  0.30415800  0.92631700  1
  Ge  Ge0  1  0.33001800  0.69164000  0.26770700  1
  Ge  Ge1  1  0.68800300  0.28794600  0.71103100  1
  Sb  Sb0  1  0.01581000  0.00701100  0.49409700  1
  Sb  Sb1  1  0.96921400  0.94717500  0.02940000  1
  O  O0  1  0.12388700  0.99955700  0.72763200  1
  O  O1  1  0.88309400  0.03317100  0.26094400  1
  O  O2  1  0.07483300  0.67672900  0.36840300  1
  O  O3  1  0.27964800  0.83672900  0.11642000  1
  O  O4  1  0.95016600  0.34390400  0.62368500  1
  O  O5  1  0.66569100  0.13226400  0.85346200  1
  O  O6  1  0.39214600  0.21706100  0.52465900  1
  O  O7  1  0.65966800  0.57694000  0.87221500  1
  O  O8  1  0.63229200  0.82108000  0.45882200  1
  O  O9  1  0.33177200  0.38732100  0.14725100  1
loop_
_geom_bond_atom_site_label_1
_geom_bond_atom_site_label_2
_geom_bond_distance
_geom_bond_site_symmetry_2
Na0 O0 2.427225 1_555
Na0 O5 2.446671 1_565
Na0 O4 2.469680 1_455
Na0 O7 2.517014 1_555
Na0 O2 2.625472 1_555
Na0 O6 2.828025 1_555
Na0 O8 2.838995 1_555
Na1 O9 2.362044 1_555
Na1 O1 2.397296 1_555
Na1 O4 2.481014 1_555
Na1 O2 2.513995 1_655
Na1 O6 2.567090 1_555
Na1 O8 2.819463 1_555
Na1 O3 2.888152 1_545
Mg0 O9 1.921734 1_556
Mg0 O0 1.970681 1_545
Mg0 O5 2.038671 1_555
Mg0 O7 2.111602 1_555
Ge0 O9 1.764464 1_555
Ge0 O3 1.776983 1_555
Ge0 O8 1.801176 1_555
Ge0 O2 1.804701 1_555
Ge1 O5 1.755443 1_555
Ge1 O4 1.781090 1_555
Ge1 O6 1.826565 1_555
Ge1 O7 1.867982 1_555
O0 Sb0 1.926649 1_565
O1 Sb0 1.995115 1_655
O1 Sb1 2.024841 1_545
O2 Sb0 2.052395 1_565
O3 Sb1 2.070595 1_455
O4 Sb0 2.111923 1_655
O5 Sb1 2.681751 1_546
O6 Sb0 2.057662 1_555
O7 Sb1 2.161314 1_556
O8 Sb0 2.040106 1_665
O9 Sb1 2.578403 1_445
