# generated using pymatgen
data_Cs4ZrO4
_symmetry_space_group_name_H-M   'P 1'
_cell_length_a   19.98219180
_cell_length_b   7.20267415
_cell_length_c   7.19600294
_cell_angle_alpha   66.91222507
_cell_angle_beta   90.00000000
_cell_angle_gamma   90.00000000
_symmetry_Int_Tables_number   1
_chemical_formula_structural   Cs4ZrO4
_chemical_formula_sum   'Cs16 Zr4 O16'
_cell_volume   952.73318339
_cell_formula_units_Z   4
loop_
 _symmetry_equiv_pos_site_id
 _symmetry_equiv_pos_as_xyz
  1  'x, y, z'
loop_
 _atom_site_type_symbol
 _atom_site_label
 _atom_site_symmetry_multiplicity
 _atom_site_fract_x
 _atom_site_fract_y
 _atom_site_fract_z
 _atom_site_occupancy
  Cs  Cs0  1  0.08269702  0.34180654  0.72441097  1
  Cs  Cs1  1  0.58269702  0.65819346  0.77558903  1
  Cs  Cs2  1  0.91730298  0.65819346  0.27558903  1
  Cs  Cs3  1  0.41730298  0.34180654  0.22441097  1
  Cs  Cs4  1  0.81075154  0.18348330  0.31847191  1
  Cs  Cs5  1  0.31075154  0.81651670  0.18152809  1
  Cs  Cs6  1  0.18924846  0.81651670  0.68152809  1
  Cs  Cs7  1  0.68924846  0.18348330  0.81847191  1
  Cs  Cs8  1  0.71621595  0.70043619  0.32104170  1
  Cs  Cs9  1  0.21621595  0.29956381  0.17895830  1
  Cs  Cs10  1  0.28378405  0.29956381  0.67895830  1
  Cs  Cs11  1  0.78378405  0.70043619  0.82104170  1
  Cs  Cs12  1  0.01428093  0.22011159  0.25093018  1
  Cs  Cs13  1  0.51428093  0.77988841  0.24906982  1
  Cs  Cs14  1  0.98571907  0.77988841  0.74906982  1
  Cs  Cs15  1  0.48571907  0.22011159  0.75093018  1
  Zr  Zr0  1  0.62256943  0.25479042  0.29900214  1
  Zr  Zr1  1  0.12256943  0.74520958  0.20099786  1
  Zr  Zr2  1  0.37743057  0.74520958  0.70099786  1
  Zr  Zr3  1  0.87743057  0.25479042  0.79900214  1
  O  O0  1  0.09490446  0.59257493  0.03581226  1
  O  O1  1  0.59490446  0.40742507  0.46418774  1
  O  O2  1  0.90509554  0.40742507  0.96418774  1
  O  O3  1  0.40509554  0.59257493  0.53581226  1
  O  O4  1  0.83316793  0.00142588  0.97964924  1
  O  O5  1  0.33316793  -0.00142588  0.52035076  1
  O  O6  1  0.16683207  -0.00142588  0.02035076  1
  O  O7  1  0.66683207  0.00142588  0.47964924  1
  O  O8  1  0.95153240  0.21033428  0.63799896  1
  O  O9  1  0.45153240  0.78966572  0.86200104  1
  O  O10  1  0.04846760  0.78966572  0.36200104  1
  O  O11  1  0.54846760  0.21033428  0.13799896  1
  O  O12  1  0.81033724  0.42598435  0.60370013  1
  O  O13  1  0.31033724  0.57401565  0.89629987  1
  O  O14  1  0.18966276  0.57401565  0.39629987  1
  O  O15  1  0.68966276  0.42598435  0.10370013  1
loop_
_geom_bond_atom_site_label_1
_geom_bond_atom_site_label_2
_geom_bond_distance
_geom_bond_site_symmetry_2
Cs0 O8 2.935065 1_455
Cs0 O6 3.056838 1_556
Cs0 O14 3.137434 1_555
Cs0 O10 3.328193 1_555
Cs0 O0 3.393755 1_556
Cs1 O9 2.935065 1_555
Cs1 O7 3.056838 1_565
Cs1 O15 3.137434 1_556
Cs1 O11 3.328193 1_556
Cs1 O1 3.393755 1_555
Cs2 O10 2.935065 1_655
Cs2 O4 3.056838 1_564
Cs2 O12 3.137434 1_555
Cs2 O8 3.328193 1_555
Cs2 O2 3.393755 1_554
Cs3 O11 2.935065 1_555
Cs3 O5 3.056838 1_555
Cs3 O13 3.137434 1_554
Cs3 O9 3.328193 1_554
Cs3 O3 3.393755 1_555
Cs4 O15 3.029323 1_555
Cs4 O2 3.070858 1_554
Cs4 O12 3.174163 1_555
Cs4 O7 3.184697 1_555
Cs4 O4 3.220605 1_554
Cs5 O14 3.029323 1_555
Cs5 O3 3.070858 1_555
Cs5 O13 3.174163 1_554
Cs5 O6 3.184697 1_565
Cs5 O5 3.220605 1_565
Cs6 O13 3.029323 1_555
Cs6 O0 3.070858 1_556
Cs6 O14 3.174163 1_555
Cs6 O5 3.184697 1_565
Cs6 O6 3.220605 1_566
Cs7 O12 3.029323 1_555
Cs7 O1 3.070858 1_555
Cs7 O15 3.174163 1_556
Cs7 O4 3.184697 1_555
Cs7 O7 3.220605 1_555
Cs8 O12 2.903216 1_555
Cs8 O7 2.986124 1_565
Cs8 O15 3.009988 1_555
Cs8 O1 3.112274 1_555
Cs8 O4 3.466914 1_564
Cs9 O13 2.903216 1_554
Cs9 O6 2.986124 1_555
Cs9 O14 3.009988 1_555
Cs9 O0 3.112274 1_555
Cs9 O5 3.466914 1_555
Cs10 O14 2.903216 1_555
Cs10 O5 2.986124 1_555
Cs10 O13 3.009988 1_555
Cs10 O3 3.112274 1_555
Cs10 O6 3.466914 1_556
Cs11 O15 2.903216 1_556
Cs11 O4 2.986124 1_565
Cs11 O12 3.009988 1_555
Cs11 O2 3.112274 1_555
Cs11 O7 3.466914 1_565
Cs12 O2 2.941872 1_454
Cs12 O10 2.962139 1_545
Cs12 O0 2.988605 1_555
Cs12 O8 3.030088 1_455
Cs13 O3 2.941872 1_555
Cs13 O11 2.962139 1_565
Cs13 O1 2.988605 1_555
Cs13 O9 3.030088 1_554
Cs14 O0 2.941872 1_656
Cs14 O8 2.962139 1_565
Cs14 O2 2.988605 1_555
Cs14 O10 3.030088 1_655
Cs15 O1 2.941872 1_555
Cs15 O9 2.962139 1_545
Cs15 O3 2.988605 1_555
Cs15 O11 3.030088 1_556
O0 Zr1 1.987984 1_555
O1 Zr0 1.987984 1_555
O2 Zr3 1.987984 1_555
O3 Zr2 1.987984 1_555
O4 Zr3 1.985413 1_555
O5 Zr2 1.985413 1_545
O6 Zr1 1.985413 1_545
O7 Zr0 1.985413 1_555
O8 Zr3 1.981997 1_555
O9 Zr2 1.981997 1_555
O10 Zr1 1.981997 1_555
O11 Zr0 1.981997 1_555
O12 Zr3 1.983394 1_555
O13 Zr2 1.983394 1_555
O14 Zr1 1.983394 1_555
O15 Zr0 1.983394 1_555
