# generated using pymatgen
data_InAg3F6
_symmetry_space_group_name_H-M   'P 1'
_cell_length_a   5.81436986
_cell_length_b   6.21756436
_cell_length_c   8.21698440
_cell_angle_alpha   90.00000000
_cell_angle_beta   95.64742535
_cell_angle_gamma   90.00000000
_symmetry_Int_Tables_number   1
_chemical_formula_structural   InAg3F6
_chemical_formula_sum   'In2 Ag6 F12'
_cell_volume   295.61218611
_cell_formula_units_Z   2
loop_
 _symmetry_equiv_pos_site_id
 _symmetry_equiv_pos_as_xyz
  1  'x, y, z'
loop_
 _atom_site_type_symbol
 _atom_site_label
 _atom_site_symmetry_multiplicity
 _atom_site_fract_x
 _atom_site_fract_y
 _atom_site_fract_z
 _atom_site_occupancy
  In  In0  1  0.00000000  0.00000000  0.00000000  1
  In  In1  1  0.50000000  0.50000000  0.50000000  1
  Ag  Ag0  1  0.00000000  0.00000000  0.50000000  1
  Ag  Ag1  1  0.50000000  0.50000000  0.00000000  1
  Ag  Ag2  1  0.95948303  0.57595850  0.25729589  1
  Ag  Ag3  1  0.04051697  0.42404150  0.74270411  1
  Ag  Ag4  1  0.54051697  0.07595850  0.24270411  1
  Ag  Ag5  1  0.45948303  0.92404150  0.75729589  1
  F  F0  1  0.84297988  0.27547701  0.08305857  1
  F  F1  1  0.15702012  0.72452299  0.91694143  1
  F  F2  1  0.65702012  0.77547701  0.41694143  1
  F  F3  1  0.34297988  0.22452299  0.58305857  1
  F  F4  1  0.14939775  0.92927650  0.23570718  1
  F  F5  1  0.85060225  0.07072350  0.76429282  1
  F  F6  1  0.35060225  0.42927650  0.26429282  1
  F  F7  1  0.64939775  0.57072350  0.73570718  1
  F  F8  1  0.70698820  0.82959438  0.05414420  1
  F  F9  1  0.29301180  0.17040562  0.94585580  1
  F  F10  1  0.79301180  0.32959438  0.44585580  1
  F  F11  1  0.20698820  0.67040562  0.55414420  1
loop_
_geom_bond_atom_site_label_1
_geom_bond_atom_site_label_2
_geom_bond_distance
_geom_bond_site_symmetry_2
Ag0 F11 2.395936 1_545
Ag0 F10 2.395936 1_455
Ag0 F5 2.456712 1_455
Ag0 F4 2.456712 1_545
Ag0 F3 2.474587 1_555
Ag0 F2 2.474587 1_445
Ag1 F8 2.395936 1_555
Ag1 F9 2.395936 1_554
Ag1 F7 2.456712 1_554
Ag1 F6 2.456712 1_555
Ag1 F1 2.474587 1_554
Ag1 F0 2.474587 1_555
Ag2 F0 2.410015 1_555
Ag2 F10 2.445205 1_555
Ag2 F6 2.445590 1_655
Ag2 F4 2.472890 1_655
Ag2 F2 2.608936 1_555
Ag2 F8 2.635612 1_555
Ag3 F1 2.410015 1_555
Ag3 F11 2.445205 1_555
Ag3 F7 2.445590 1_455
Ag3 F5 2.472890 1_455
Ag3 F3 2.608936 1_555
Ag3 F9 2.635612 1_555
Ag4 F2 2.410015 1_545
Ag4 F8 2.445205 1_545
Ag4 F4 2.445590 1_545
Ag4 F6 2.472890 1_555
Ag4 F0 2.608936 1_555
Ag4 F10 2.635612 1_555
Ag5 F3 2.410015 1_565
Ag5 F9 2.445205 1_565
Ag5 F5 2.445590 1_565
Ag5 F7 2.472890 1_555
Ag5 F1 2.608936 1_555
Ag5 F11 2.635612 1_555
F0 In0 2.087012 1_655
F1 In0 2.087012 1_566
F2 In1 2.087012 1_555
F3 In1 2.087012 1_555
F4 In0 2.089977 1_565
F5 In0 2.089977 1_656
F6 In1 2.089977 1_555
F7 In1 2.089977 1_555
F8 In0 2.090980 1_665
F9 In0 2.090980 1_556
F10 In1 2.090980 1_555
F11 In1 2.090980 1_555
