# generated using pymatgen
data_Sr2MgFeO4
_symmetry_space_group_name_H-M   'P 1'
_cell_length_a   3.94335671
_cell_length_b   3.94335675
_cell_length_c   9.43593062
_cell_angle_alpha   102.06109188
_cell_angle_beta   102.06110231
_cell_angle_gamma   89.99998850
_symmetry_Int_Tables_number   1
_chemical_formula_structural   Sr2MgFeO4
_chemical_formula_sum   'Sr2 Mg1 Fe1 O4'
_cell_volume   140.17648872
_cell_formula_units_Z   1
loop_
 _symmetry_equiv_pos_site_id
 _symmetry_equiv_pos_as_xyz
  1  'x, y, z'
loop_
 _atom_site_type_symbol
 _atom_site_label
 _atom_site_symmetry_multiplicity
 _atom_site_fract_x
 _atom_site_fract_y
 _atom_site_fract_z
 _atom_site_occupancy
  Sr  Sr0  1  0.68341948  0.68341848  0.36683796  1
  Sr  Sr1  1  0.31658052  0.31658152  0.63316104  1
  Mg  Mg0  1  0.50000000  0.50000000  -0.00000000  1
  Fe  Fe0  1  0.00000000  -0.00000000  -0.00000000  1
  O  O0  1  0.81276262  0.81276162  0.62552524  1
  O  O1  1  0.18723738  0.18723538  0.37447276  1
  O  O2  1  0.00000000  0.50000000  -0.00000000  1
  O  O3  1  0.50000000  -0.00000000  0.00000100  1
loop_
_geom_bond_atom_site_label_1
_geom_bond_atom_site_label_2
_geom_bond_distance
_geom_bond_site_symmetry_2
Mg0 O3 1.971676 1_565
Mg0 O2 1.971678 1_655
Mg0 O2 1.971678 1_555
Mg0 O3 1.971680 1_555
Fe0 O3 1.971676 1_555
Fe0 O2 1.971678 1_545
Fe0 O2 1.971678 1_555
Fe0 O3 1.971680 1_455
O0 Sr0 2.331944 1_555
O0 Sr1 2.789218 1_655
O0 Sr1 2.789218 1_555
O0 Sr1 2.789229 1_565
O0 Sr1 2.789230 1_665
O1 Sr1 2.331953 1_555
O1 Sr0 2.789220 1_545
O1 Sr0 2.789224 1_445
O1 Sr0 2.789224 1_555
O1 Sr0 2.789226 1_455
