# generated using pymatgen
data_As2O3
_symmetry_space_group_name_H-M   'P 1'
_cell_length_a   7.88227789
_cell_length_b   7.88227902
_cell_length_c   7.88227890
_cell_angle_alpha   60.00000477
_cell_angle_beta   60.00000006
_cell_angle_gamma   60.00000230
_symmetry_Int_Tables_number   1
_chemical_formula_structural   As2O3
_chemical_formula_sum   'As8 O12'
_cell_volume   346.29033389
_cell_formula_units_Z   4
loop_
 _symmetry_equiv_pos_site_id
 _symmetry_equiv_pos_as_xyz
  1  'x, y, z'
loop_
 _atom_site_type_symbol
 _atom_site_label
 _atom_site_symmetry_multiplicity
 _atom_site_fract_x
 _atom_site_fract_y
 _atom_site_fract_z
 _atom_site_occupancy
  As  As0  1  0.22791142  0.22791142  0.22791142  1
  As  As1  1  0.77208858  0.77208858  0.18373527  1
  As  As2  1  0.77208858  0.18373527  0.77208858  1
  As  As3  1  0.18373527  0.77208858  0.77208858  1
  As  As4  1  0.22791142  0.81626473  0.22791142  1
  As  As5  1  0.81626473  0.22791142  0.22791142  1
  As  As6  1  0.22791142  0.22791142  0.81626473  1
  As  As7  1  0.77208858  0.77208858  0.77208858  1
  O  O0  1  0.95125149  0.29874851  0.29874851  1
  O  O1  1  0.70125149  0.04874851  0.04874851  1
  O  O2  1  0.29874851  0.95125149  0.29874851  1
  O  O3  1  0.29874851  0.29874851  0.95125149  1
  O  O4  1  0.95125149  0.95125149  0.29874851  1
  O  O5  1  0.95125149  0.29874851  0.95125149  1
  O  O6  1  0.70125149  0.04874851  0.70125149  1
  O  O7  1  0.04874851  0.70125149  0.04874851  1
  O  O8  1  0.29874851  0.95125149  0.95125149  1
  O  O9  1  0.04874851  0.04874851  0.70125149  1
  O  O10  1  0.70125149  0.70125149  0.04874851  1
  O  O11  1  0.04874851  0.70125149  0.70125149  1
loop_
_geom_bond_atom_site_label_1
_geom_bond_atom_site_label_2
_geom_bond_distance
_geom_bond_site_symmetry_2
As0 O0 1.804316 1_455
As0 O3 1.804316 1_554
As0 O2 1.804316 1_545
As1 O7 1.804317 1_655
As1 O1 1.804317 1_565
As1 O10 1.804323 1_555
As2 O9 1.804317 1_655
As2 O1 1.804317 1_556
As2 O6 1.804323 1_555
As3 O7 1.804317 1_556
As3 O9 1.804317 1_565
As3 O11 1.804323 1_555
As4 O4 1.804317 1_455
As4 O8 1.804317 1_554
As4 O2 1.804323 1_555
As5 O5 1.804317 1_554
As5 O4 1.804317 1_545
As5 O0 1.804323 1_555
As6 O5 1.804317 1_455
As6 O8 1.804317 1_545
As6 O3 1.804323 1_555
As7 O11 1.804316 1_655
As7 O10 1.804316 1_556
As7 O6 1.804316 1_565
