# generated using pymatgen
data_MgMn6(OF)6
_symmetry_space_group_name_H-M   'P 1'
_cell_length_a   5.32074730
_cell_length_b   14.67543243
_cell_length_c   3.05843045
_cell_angle_alpha   90.82974207
_cell_angle_beta   89.69827971
_cell_angle_gamma   94.31418235
_symmetry_Int_Tables_number   1
_chemical_formula_structural   MgMn6(OF)6
_chemical_formula_sum   'Mg1 Mn6 O6 F6'
_cell_volume   238.11156853
_cell_formula_units_Z   1
loop_
 _symmetry_equiv_pos_site_id
 _symmetry_equiv_pos_as_xyz
  1  'x, y, z'
loop_
 _atom_site_type_symbol
 _atom_site_label
 _atom_site_symmetry_multiplicity
 _atom_site_fract_x
 _atom_site_fract_y
 _atom_site_fract_z
 _atom_site_occupancy
  Mg  Mg0  1  0.83878491  0.83568033  0.93549446  1
  Mn  Mn0  1  0.95939015  0.02635490  0.98767328  1
  Mn  Mn1  1  0.13603786  0.32456609  0.01115367  1
  Mn  Mn2  1  0.05845976  0.62953456  0.00578419  1
  Mn  Mn3  1  0.54763027  0.17450321  0.51108417  1
  Mn  Mn4  1  0.58090794  0.48452479  0.50863255  1
  Mn  Mn5  1  0.31821911  0.83905535  0.44662375  1
  O  O0  1  0.27718288  0.26158879  0.51607122  1
  O  O1  1  0.01940764  0.93145414  0.46964735  1
  O  O2  1  0.14752557  0.76748625  0.94214222  1
  O  O3  1  0.41090280  0.42361935  0.00665172  1
  O  O4  1  0.74583067  0.55009681  0.01116961  1
  O  O5  1  0.82794721  0.08914134  0.49432409  1
  F  F0  1  0.27635759  0.58845362  0.50010439  1
  F  F1  1  0.34671878  0.09860957  0.00676727  1
  F  F2  1  0.75302988  0.24306122  0.01206601  1
  F  F3  1  0.54057579  0.90941963  0.94906238  1
  F  F4  1  0.95544397  0.38638679  0.50454006  1
  F  F5  1  0.67631622  0.76979625  0.43100561  1
loop_
_geom_bond_atom_site_label_1
_geom_bond_atom_site_label_2
_geom_bond_distance
_geom_bond_site_symmetry_2
Mg0 O2 1.987163 1_655
Mg0 O1 2.183896 1_655
Mg0 O1 2.305383 1_656
Mn0 O5 1.939890 1_555
Mn0 O5 1.945109 1_556
Mn0 O1 2.084675 1_646
Mn0 O1 2.132943 1_645
Mn1 O0 1.939800 1_554
Mn1 O3 1.983096 1_555
Mn1 O0 1.990195 1_555
Mn2 O4 1.958266 1_455
Mn2 O2 2.056007 1_554
Mn3 O0 1.995025 1_555
Mn3 O5 2.018649 1_555
Mn4 O3 1.956381 1_555
Mn4 O3 1.959696 1_556
Mn4 O4 1.975515 1_556
Mn4 O4 1.977921 1_555
Mn5 O2 2.028019 1_555
Mn5 O2 2.032958 1_554
Mn5 O1 2.166072 1_555
F0 Mn2 2.035514 1_555
F0 Mn2 2.039320 1_556
F0 Mn4 2.307848 1_555
F1 Mn3 2.129377 1_554
F1 Mn3 2.133256 1_555
F1 Mn0 2.246264 1_454
F2 Mn3 2.088518 1_554
F2 Mn3 2.097012 1_555
F2 Mn1 2.284076 1_655
F3 Mg0 1.986636 1_555
F3 Mn5 2.148674 1_555
F3 Mn5 2.150474 1_556
F4 Mn1 2.024770 1_655
F4 Mn1 2.082003 1_656
F4 Mn4 2.544937 1_555
F5 Mg0 1.970209 1_554
F5 Mg0 1.976841 1_555
F5 Mn5 2.225916 1_555
