# generated using pymatgen
data_HfTiSi(SO6)2
_symmetry_space_group_name_H-M   'P 1'
_cell_length_a   8.83874124
_cell_length_b   8.84150008
_cell_length_c   22.78840905
_cell_angle_alpha   90.17001473
_cell_angle_beta   90.00117645
_cell_angle_gamma   120.04689094
_symmetry_Int_Tables_number   1
_chemical_formula_structural   HfTiSi(SO6)2
_chemical_formula_sum   'Hf6 Ti6 Si6 S12 O72'
_cell_volume   1541.53377143
_cell_formula_units_Z   6
loop_
 _symmetry_equiv_pos_site_id
 _symmetry_equiv_pos_as_xyz
  1  'x, y, z'
loop_
 _atom_site_type_symbol
 _atom_site_label
 _atom_site_symmetry_multiplicity
 _atom_site_fract_x
 _atom_site_fract_y
 _atom_site_fract_z
 _atom_site_occupancy
  Hf  Hf0  1  0.01710891  0.00726621  0.85490543  1
  Hf  Hf1  1  0.66500260  0.33807293  0.19225218  1
  Hf  Hf2  1  0.65005513  0.32433547  0.97771175  1
  Hf  Hf3  1  0.32914628  0.66886793  0.02420558  1
  Hf  Hf4  1  0.33801264  0.66619160  0.52374797  1
  Hf  Hf5  1  0.33646202  0.67190315  0.80757018  1
  Ti  Ti0  1  0.98979777  0.01279099  0.35650047  1
  Ti  Ti1  1  0.01096930  0.02413611  0.64243598  1
  Ti  Ti2  1  0.01582174  0.02489283  0.14603642  1
  Ti  Ti3  1  0.67116107  0.34015325  0.68818630  1
  Ti  Ti4  1  0.67994358  0.32165193  0.47629990  1
  Ti  Ti5  1  0.33549885  0.67322288  0.31061648  1
  Si  Si0  1  0.00737890  0.29345787  0.25172333  1
  Si  Si1  1  0.29508155  0.28942273  0.74735682  1
  Si  Si2  1  0.94970567  0.33382521  0.58489371  1
  Si  Si3  1  0.37634222  0.33379422  0.08527232  1
  Si  Si4  1  0.33321094  0.95227799  0.91627396  1
  Si  Si5  1  0.61652450  0.95029379  0.41574697  1
  S  S0  1  0.27967554  0.99428241  0.25134315  1
  S  S1  1  0.71527407  0.72142345  0.25145271  1
  S  S2  1  0.99431320  0.71177714  0.74711813  1
  S  S3  1  0.71677106  0.00591581  0.74725688  1
  S  S4  1  0.38132162  0.05251156  0.58352934  1
  S  S5  1  0.67395939  0.61907297  0.58387507  1
  S  S6  1  0.95228212  0.62702037  0.08513498  1
  S  S7  1  0.67381031  0.04690216  0.08493189  1
  S  S8  1  0.62153963  0.66890277  0.91621996  1
  S  S9  1  0.04504295  0.38037824  0.91633055  1
  S  S10  1  0.33626218  0.37871281  0.41539817  1
  S  S11  1  0.04547633  0.66875495  0.41545364  1
  O  O0  1  0.20169681  0.02346812  0.30342388  1
  O  O1  1  0.82618209  0.79951558  0.30397763  1
  O  O2  1  0.97938390  0.16255169  0.30717476  1
  O  O3  1  0.20387153  0.16569579  0.80401817  1
  O  O4  1  0.96227864  0.78640344  0.80135020  1
  O  O5  1  0.81975835  0.03188504  0.80132508  1
  O  O6  1  0.79807344  0.97298164  0.69591725  1
  O  O7  1  0.16287059  0.18543525  0.69108867  1
  O  O8  1  0.02299537  0.82047541  0.69591263  1
  O  O9  1  0.79226962  0.82410201  0.19820754  1
  O  O10  1  0.03506621  0.19309121  0.19457181  1
  O  O11  1  0.17280473  0.96449942  0.19763481  1
  O  O12  1  0.84718798  0.35483464  0.64056955  1
  O  O13  1  0.49020743  0.13098855  0.63601261  1
  O  O14  1  0.63891853  0.50726087  0.63690842  1
  O  O15  1  0.87168165  0.51142996  0.13673497  1
  O  O16  1  0.64239027  0.12814469  0.13647631  1
  O  O17  1  0.49631879  0.35891655  0.14189833  1
  O  O18  1  0.46311006  0.29777410  0.02768099  1
  O  O19  1  0.84822813  0.54524009  0.03154113  1
  O  O20  1  0.70630611  0.15620341  0.03181969  1
  O  O21  1  0.45808941  0.16074075  0.53053174  1
  O  O22  1  0.69626959  0.53672844  0.53109655  1
  O  O23  1  0.82399172  0.30233728  0.52643401  1
  O  O24  1  0.53947294  0.69303461  0.96910754  1
  O  O25  1  0.15597058  0.45641909  0.96905660  1
  O  O26  1  0.30591219  0.83425480  0.97380371  1
  O  O27  1  0.53152534  0.83367642  0.47326680  1
  O  O28  1  0.29756301  0.45398636  0.46844754  1
  O  O29  1  0.15544206  0.69682535  0.46839543  1
  O  O30  1  0.12430234  0.63233902  0.36338456  1
  O  O31  1  0.49235968  0.85306900  0.35861078  1
  O  O32  1  0.36262005  0.49005072  0.36383831  1
  O  O33  1  0.12764730  0.48665223  0.86378733  1
  O  O34  1  0.35973784  0.85925782  0.85890583  1
  O  O35  1  0.50987527  0.63343889  0.86372952  1
  O  O36  1  0.02757024  0.82284604  0.40525819  1
  O  O37  1  0.81186556  0.97659710  0.40299817  1
  O  O38  1  0.18111782  0.20100000  0.40592148  1
  O  O39  1  0.01935193  0.20271041  0.90812254  1
  O  O40  1  0.16007043  0.97094185  0.90921411  1
  O  O41  1  0.79269663  0.82602471  0.90719274  1
  O  O42  1  0.96330883  0.15601122  0.59510114  1
  O  O43  1  0.20280907  0.02641130  0.59226489  1
  O  O44  1  0.82668746  0.79249775  0.59448394  1
  O  O45  1  0.97037541  0.79845118  0.09522049  1
  O  O46  1  0.82510702  0.02196761  0.09390968  1
  O  O47  1  0.18343528  0.15479275  0.09623980  1
  O  O48  1  0.69326650  0.15843329  0.73906358  1
  O  O49  1  0.48391481  0.30747337  0.73227112  1
  O  O50  1  0.83868673  0.53481344  0.73997330  1
  O  O51  1  0.69571303  0.54390826  0.24460013  1
  O  O52  1  0.83706054  0.30940228  0.24026514  1
  O  O53  1  0.45762853  0.14827035  0.24273295  1
  O  O54  1  0.64705874  0.51680148  0.92448756  1
  O  O55  1  0.87400109  0.36631375  0.92566363  1
  O  O56  1  0.50745412  0.14358989  0.92351973  1
  O  O57  1  0.63952484  0.14637356  0.42699126  1
  O  O58  1  0.49120810  0.36200784  0.42598565  1
  O  O59  1  0.86861744  0.51265733  0.42558571  1
  O  O60  1  0.34749339  0.49676810  0.07416617  1
  O  O61  1  0.12749668  0.64348245  0.07785411  1
  O  O62  1  0.51697252  0.87256287  0.07621616  1
  O  O63  1  0.36116736  0.87579471  0.57524128  1
  O  O64  1  0.51434670  0.63638265  0.57648979  1
  O  O65  1  0.13973509  0.49900928  0.57332077  1
  O  O66  1  0.29939357  0.83710934  0.25881331  1
  O  O67  1  0.53723226  0.69632426  0.26025103  1
  O  O68  1  0.17961705  0.48216754  0.26620352  1
  O  O69  1  0.31294140  0.47758131  0.75734760  1
  O  O70  1  0.14879345  0.68957004  0.75622162  1
  O  O71  1  0.54094876  0.84703073  0.75438681  1
loop_
_geom_bond_atom_site_label_1
_geom_bond_atom_site_label_2
_geom_bond_distance
_geom_bond_site_symmetry_2
Hf0 O40 1.907929 1_545
Hf0 O3 1.930283 1_555
Hf0 O39 2.100101 1_555
Hf0 O4 2.139095 1_445
Hf0 O41 2.179543 1_445
Hf0 O5 2.227700 1_455
Hf1 O17 1.962132 1_555
Hf1 O52 1.990423 1_555
Hf1 O51 2.073927 1_555
Hf1 O53 2.104855 1_555
Hf1 O15 2.120065 1_555
Hf1 O16 2.171412 1_555
Hf2 O56 1.907537 1_555
Hf2 O18 1.922289 1_556
Hf2 O54 2.103553 1_555
Hf2 O20 2.174479 1_556
Hf2 O55 2.174766 1_555
Hf2 O19 2.224256 1_556
Hf3 O26 1.952001 1_554
Hf3 O60 1.973636 1_555
Hf3 O61 2.079147 1_555
Hf3 O62 2.097024 1_555
Hf3 O25 2.134786 1_554
Hf3 O24 2.163805 1_554
Hf4 O27 1.978763 1_555
Hf4 O65 1.987026 1_555
Hf4 O64 2.087182 1_555
Hf4 O63 2.111993 1_555
Hf4 O28 2.133151 1_555
Hf4 O29 2.169820 1_555
Hf5 O34 1.949895 1_555
Hf5 O69 1.983828 1_555
Hf5 O71 2.083693 1_555
Hf5 O70 2.098950 1_555
Hf5 O35 2.151125 1_555
Hf5 O33 2.171554 1_555
O0 S0 1.458264 1_545
O0 Ti0 2.191671 1_455
O1 S1 1.479069 1_555
O1 Ti0 2.082168 1_565
O2 Si0 1.649099 1_655
O2 Ti0 1.776546 1_555
O3 Si1 1.624542 1_555
O4 S2 1.491689 1_555
O5 S3 1.479337 1_555
O6 S3 1.475646 1_565
O6 Ti1 2.093303 1_665
O7 Si1 1.664962 1_555
O7 Ti1 1.771669 1_555
O8 S2 1.453346 1_455
O8 Ti1 2.223396 1_565
O9 S1 1.465418 1_555
O9 Ti2 2.229173 1_665
O10 Si0 1.659579 1_555
O10 Ti2 1.789058 1_555
O11 S0 1.486124 1_555
O11 Ti2 2.082927 1_565
O12 Si2 1.622510 1_555
O12 Ti3 1.847610 1_555
O13 S4 1.471197 1_555
O13 Ti3 2.101567 1_555
O14 S5 1.494758 1_555
O14 Ti3 2.015327 1_555
O15 S6 1.487532 1_555
O16 S7 1.472271 1_555
O17 Si3 1.612890 1_555
O18 Si3 1.629162 1_555
O19 S6 1.479548 1_555
O20 S7 1.486716 1_555
O21 S4 1.480328 1_555
O21 Ti4 2.147878 1_555
O22 S5 1.467687 1_555
O22 Ti4 2.215250 1_555
O23 Si2 1.665800 1_555
O23 Ti4 1.781656 1_555
O24 S8 1.475716 1_555
O25 S9 1.480561 1_555
O26 Si4 1.619215 1_555
O27 Si5 1.605625 1_555
O28 S10 1.498201 1_555
O29 S11 1.489446 1_555
O30 S11 1.489782 1_555
O30 Ti5 2.094810 1_555
O31 Si5 1.639281 1_555
O31 Ti5 1.851699 1_555
O32 S10 1.476845 1_555
O32 Ti5 2.133472 1_555
O33 S9 1.472881 1_555
O34 Si4 1.620871 1_555
O35 S8 1.480230 1_555
O36 S11 1.467296 1_555
O36 Ti0 2.176913 1_465
O37 Si5 1.648590 1_555
O37 Ti0 1.787916 1_565
O38 S10 1.495382 1_555
O38 Ti0 2.016899 1_455
O39 S9 1.481610 1_555
O40 Si4 1.627300 1_555
O41 S8 1.468986 1_555
O42 Si2 1.652773 1_555
O42 Ti1 1.788808 1_655
O43 S4 1.489322 1_555
O43 Ti1 2.036855 1_555
O44 S5 1.468614 1_555
O44 Ti1 2.165094 1_665
O45 S6 1.459779 1_555
O45 Ti2 2.166001 1_665
O46 S7 1.474532 1_555
O46 Ti2 2.051665 1_655
O47 Si3 1.665677 1_555
O47 Ti2 1.762248 1_555
O48 S3 1.475963 1_555
O48 Ti3 2.071046 1_555
O49 Si1 1.631863 1_555
O49 Ti3 1.831601 1_555
O50 S2 1.486573 1_555
O50 Ti3 1.995801 1_555
O51 S1 1.498136 1_555
O52 Si0 1.602188 1_655
O53 S0 1.491041 1_545
O54 S8 1.483284 1_555
O55 S9 1.469058 1_655
O56 Si4 1.627840 1_545
O57 Si5 1.660396 1_545
O57 Ti4 1.796419 1_555
O58 S10 1.469146 1_555
O58 Ti4 2.196181 1_555
O59 S11 1.497705 1_655
O59 Ti4 2.039612 1_555
O60 Si3 1.604826 1_555
O61 S6 1.490482 1_455
O62 S7 1.481710 1_565
O63 S4 1.492700 1_565
O64 S5 1.502795 1_555
O65 Si2 1.602950 1_455
O66 S0 1.494793 1_555
O66 Ti5 2.016993 1_555
O67 S1 1.488769 1_555
O67 Ti5 2.043318 1_555
O68 Si0 1.631987 1_555
O68 Ti5 1.853436 1_555
O69 Si1 1.605957 1_555
O70 S2 1.488165 1_455
O71 S3 1.493335 1_565
