# generated using pymatgen
data_Li2InPd
_symmetry_space_group_name_H-M   'P 1'
_cell_length_a   4.48810067
_cell_length_b   4.48810078
_cell_length_c   4.48810138
_cell_angle_alpha   59.99999554
_cell_angle_beta   59.99999477
_cell_angle_gamma   59.99999303
_symmetry_Int_Tables_number   1
_chemical_formula_structural   Li2InPd
_chemical_formula_sum   'Li2 In1 Pd1'
_cell_volume   63.92530307
_cell_formula_units_Z   1
loop_
 _symmetry_equiv_pos_site_id
 _symmetry_equiv_pos_as_xyz
  1  'x, y, z'
loop_
 _atom_site_type_symbol
 _atom_site_label
 _atom_site_symmetry_multiplicity
 _atom_site_fract_x
 _atom_site_fract_y
 _atom_site_fract_z
 _atom_site_occupancy
  Li  Li0  1  0.50000000  0.50000000  0.50000000  1
  Li  Li1  1  0.25000000  0.25000000  0.25000000  1
  In  In0  1  0.75000000  0.75000000  0.75000000  1
  Pd  Pd0  1  -0.00000000  -0.00000000  -0.00000000  1
loop_
_geom_bond_atom_site_label_1
_geom_bond_atom_site_label_2
_geom_bond_distance
_geom_bond_site_symmetry_2
Li0 Pd0 3.173566 1_665
Li0 Pd0 3.173566 1_556
Li0 Pd0 3.173567 1_566
Li0 Pd0 3.173567 1_565
Li0 Pd0 3.173567 1_656
Li0 Pd0 3.173567 1_655
Li1 Pd0 2.748389 1_655
Li1 Pd0 2.748389 1_565
Li1 Pd0 2.748389 1_556
Li1 Pd0 2.748389 1_555
In0 Pd0 2.748389 1_566
In0 Li0 2.748389 1_655
In0 Li0 2.748389 1_565
In0 Pd0 2.748389 1_656
In0 Pd0 2.748389 1_666
In0 Pd0 2.748389 1_665
In0 Li0 2.748389 1_556
In0 Li0 2.748389 1_555
