# generated using pymatgen
data_Na4MgTiSi(PO6)2
_symmetry_space_group_name_H-M   'P 1'
_cell_length_a   8.97175457
_cell_length_b   8.98000831
_cell_length_c   21.92786831
_cell_angle_alpha   90.00210931
_cell_angle_beta   90.00000000
_cell_angle_gamma   119.96960023
_symmetry_Int_Tables_number   1
_chemical_formula_structural   Na4MgTiSi(PO6)2
_chemical_formula_sum   'Na24 Mg6 Ti6 Si6 P12 O72'
_cell_volume   1530.43230389
_cell_formula_units_Z   6
loop_
 _symmetry_equiv_pos_site_id
 _symmetry_equiv_pos_as_xyz
  1  'x, y, z'
loop_
 _atom_site_type_symbol
 _atom_site_label
 _atom_site_symmetry_multiplicity
 _atom_site_fract_x
 _atom_site_fract_y
 _atom_site_fract_z
 _atom_site_occupancy
  Na  Na0  1  0.64143097  0.01141607  0.24598140  1
  Na  Na1  1  0.36926953  0.35716254  0.25008027  1
  Na  Na2  1  0.99086084  0.62559070  0.24362622  1
  Na  Na3  1  0.63472985  0.62559070  0.74362622  1
  Na  Na4  1  0.98789301  0.35716254  0.75008027  1
  Na  Na5  1  0.36998509  0.01141607  0.74598140  1
  Na  Na6  1  0.30744312  0.34545513  0.58316638  1
  Na  Na7  1  0.03439298  0.69420472  0.57985471  1
  Na  Na8  1  0.65364216  0.95881627  0.57669953  1
  Na  Na9  1  0.30517511  0.95881627  0.07669953  1
  Na  Na10  1  0.65981274  0.69420472  0.07985471  1
  Na  Na11  1  0.03801301  0.34545513  0.08316638  1
  Na  Na12  1  0.97938960  0.68203979  0.91597767  1
  Na  Na13  1  0.70461650  0.03129526  0.91070199  1
  Na  Na14  1  0.32379333  0.29491026  0.91260819  1
  Na  Na15  1  0.97111594  0.29491026  0.41260819  1
  Na  Na16  1  0.32667777  0.03129526  0.41070199  1
  Na  Na17  1  0.70264919  0.68203979  0.41597767  1
  Na  Na18  1  0.99794458  0.00189081  0.49617128  1
  Na  Na19  1  0.00394623  0.00189081  0.99617128  1
  Na  Na20  1  0.66545450  0.32885020  0.82989434  1
  Na  Na21  1  0.66339670  0.32885020  0.32989434  1
  Na  Na22  1  0.32761844  0.66410162  0.16335340  1
  Na  Na23  1  0.33648218  0.66410162  0.66335340  1
  Mg  Mg0  1  0.00112552  0.00128343  0.35163061  1
  Mg  Mg1  1  0.00015791  0.00128343  0.85163061  1
  Mg  Mg2  1  0.66534771  0.33064538  0.68491207  1
  Mg  Mg3  1  0.66529867  0.33064538  0.18491207  1
  Mg  Mg4  1  0.33025712  0.66903655  0.01832593  1
  Mg  Mg5  1  0.33877843  0.66903655  0.51832593  1
  Ti  Ti0  1  0.98728001  0.99282279  0.64782469  1
  Ti  Ti1  1  0.00554278  0.99282279  0.14782469  1
  Ti  Ti2  1  0.66853194  0.33544549  0.98123674  1
  Ti  Ti3  1  0.66691455  0.33544549  0.48123674  1
  Ti  Ti4  1  0.33905459  0.67931660  0.31472477  1
  Ti  Ti5  1  0.34026101  0.67931660  0.81472477  1
  Si  Si0  1  0.29543778  -0.00094386  0.25354444  1
  Si  Si1  1  0.70361836  -0.00094386  0.75354444  1
  Si  Si2  1  0.66636221  0.62644328  0.58657922  1
  Si  Si3  1  0.96008207  0.62644328  0.08657922  1
  Si  Si4  1  0.33551050  0.96610930  0.91990595  1
  Si  Si5  1  0.63059780  0.96610930  0.41990595  1
  P  P0  1  0.70591763  0.70910612  0.25187230  1
  P  P1  1  0.00463384  0.29296130  0.25103224  1
  P  P2  1  0.28832746  0.29296130  0.75103224  1
  P  P3  1  0.00318849  0.70910612  0.75187230  1
  P  P4  1  0.95674204  0.32977979  0.58500843  1
  P  P5  1  0.37071612  0.04235665  0.58462452  1
  P  P6  1  0.67164153  0.04235665  0.08462452  1
  P  P7  1  0.37303875  0.32977979  0.08500843  1
  P  P8  1  0.62321874  0.66296829  0.91860038  1
  P  P9  1  0.04159939  0.37850883  0.91830498  1
  P  P10  1  0.33690844  0.37850883  0.41830498  1
  P  P11  1  0.03974855  0.66296829  0.41860038  1
  O  O0  1  0.20792273  0.02340315  0.31276117  1
  O  O1  1  0.80945742  0.79292969  0.30894402  1
  O  O2  1  0.98192980  0.18830987  0.30829062  1
  O  O3  1  0.20638008  0.18830987  0.80829062  1
  O  O4  1  0.98347227  0.79292969  0.80894402  1
  O  O5  1  0.81548042  0.02340315  0.81276117  1
  O  O6  1  0.80594154  0.97076767  0.69226980  1
  O  O7  1  0.17412342  0.19775118  0.69321282  1
  O  O8  1  0.02737402  0.82391548  0.69368449  1
  O  O9  1  0.79654146  0.82391548  0.19368449  1
  O  O10  1  0.02362776  0.19775118  0.19321282  1
  O  O11  1  0.16482613  0.97076767  0.19226980  1
  O  O12  1  0.87435198  0.34999068  0.64238986  1
  O  O13  1  0.47672251  0.12126188  0.64178302  1
  O  O14  1  0.64715966  0.51632504  0.64587253  1
  O  O15  1  0.86916638  0.51632504  0.14587253  1
  O  O16  1  0.64454037  0.12126188  0.14178302  1
  O  O17  1  0.47563970  0.34999068  0.14238986  1
  O  O18  1  0.46415876  0.30424297  0.02717100  1
  O  O19  1  0.83143423  0.52624325  0.02516750  1
  O  O20  1  0.68958858  0.15862494  0.02695750  1
  O  O21  1  0.46903736  0.15862494  0.52695750  1
  O  O22  1  0.69481002  0.52624325  0.52516750  1
  O  O23  1  0.84008521  0.30424297  0.52717100  1
  O  O24  1  0.53857633  0.68120202  0.97575793  1
  O  O25  1  0.14562722  0.45928060  0.97566907  1
  O  O26  1  0.30915373  0.85156431  0.97851313  1
  O  O27  1  0.54240958  0.85156431  0.47851313  1
  O  O28  1  0.31365238  0.45928060  0.47566907  1
  O  O29  1  0.14262469  0.68120202  0.47575793  1
  O  O30  1  0.13221602  0.64001713  0.36062030  1
  O  O31  1  0.49880561  0.86095517  0.35855145  1
  O  O32  1  0.35923758  0.49199234  0.36041613  1
  O  O33  1  0.13275376  0.49199234  0.86041613  1
  O  O34  1  0.36214855  0.86095517  0.85855145  1
  O  O35  1  0.50780011  0.64001713  0.86062030  1
  O  O36  1  0.01239091  0.81825507  0.41290821  1
  O  O37  1  0.82128293  0.99248320  0.41182052  1
  O  O38  1  0.18223713  0.19566666  0.41267328  1
  O  O39  1  0.01342953  0.19566666  0.91267328  1
  O  O40  1  0.17120026  0.99248320  0.91182052  1
  O  O41  1  0.80586416  0.81825507  0.91290821  1
  O  O42  1  0.97109140  0.16201820  0.58701809  1
  O  O43  1  0.19383214  0.03692701  0.58597402  1
  O  O44  1  0.84996949  0.81985880  0.58829809  1
  O  O45  1  0.96988932  0.81985880  0.08829809  1
  O  O46  1  0.84309487  0.03692701  0.08597402  1
  O  O47  1  0.19092680  0.16201820  0.08701809  1
  O  O48  1  0.67371669  0.16075678  0.74544841  1
  O  O49  1  0.47101749  0.31887272  0.74555900  1
  O  O50  1  0.84830515  0.52647418  0.74616588  1
  O  O51  1  0.67817004  0.52647418  0.24616588  1
  O  O52  1  0.84785623  0.31887272  0.24555900  1
  O  O53  1  0.48704109  0.16075678  0.24544841  1
  O  O54  1  0.63466940  0.49337981  0.91982799  1
  O  O55  1  0.86010189  0.36748975  0.92074058  1
  O  O56  1  0.51680753  0.15480193  0.92128781  1
  O  O57  1  0.63799539  0.15480193  0.42128781  1
  O  O58  1  0.50738886  0.36748975  0.42074058  1
  O  O59  1  0.85871141  0.49337981  0.41982799  1
  O  O60  1  0.34899154  0.48667962  0.07797819  1
  O  O61  1  0.15161272  0.65375126  0.08064991  1
  O  O62  1  0.51927618  0.85834757  0.07786162  1
  O  O63  1  0.33907039  0.85834757  0.57786162  1
  O  O64  1  0.50213755  0.65375126  0.58064991  1
  O  O65  1  0.13768708  0.48667962  0.57797819  1
  O  O66  1  0.30203525  0.81539329  0.25486361  1
  O  O67  1  0.52398485  0.69632839  0.25373064  1
  O  O68  1  0.17424972  0.47216513  0.25291915  1
  O  O69  1  0.29791441  0.47216513  0.75291915  1
  O  O70  1  0.17234253  0.69632839  0.75373064  1
  O  O71  1  0.51335704  0.81539329  0.75486361  1
loop_
_geom_bond_atom_site_label_1
_geom_bond_atom_site_label_2
_geom_bond_distance
_geom_bond_site_symmetry_2
Na0 O53 2.360754 1_555
Na0 O52 2.438094 1_555
Na0 O67 2.483247 1_545
Na0 O16 2.483345 1_555
Na0 O66 2.655812 1_545
Na0 O31 2.798030 1_545
Na0 O9 2.903020 1_545
Na0 O2 2.978928 1_555
Na1 O51 2.406203 1_555
Na1 O68 2.436596 1_555
Na1 O53 2.469684 1_555
Na1 O17 2.559803 1_555
Na1 O67 2.643050 1_555
Na1 O32 2.726971 1_555
Na1 O0 2.938242 1_555
Na1 O10 2.963998 1_555
Na2 O15 2.383082 1_555
Na2 O52 2.388236 1_555
Na2 O66 2.450671 1_655
Na2 O51 2.484114 1_555
Na2 O68 2.628998 1_655
Na2 O30 2.835911 1_655
Na2 O11 2.911885 1_655
Na3 O14 2.383084 1_555
Na3 O49 2.388235 1_555
Na3 O71 2.450678 1_555
Na3 O50 2.484123 1_555
Na3 O69 2.629006 1_555
Na3 O35 2.835915 1_555
Na3 O6 2.911885 1_555
Na4 O50 2.406195 1_555
Na4 O69 2.436588 1_655
Na4 O48 2.469677 1_555
Na4 O12 2.559800 1_555
Na4 O70 2.643050 1_655
Na4 O33 2.726969 1_655
Na4 O5 2.938242 1_555
Na4 O7 2.963998 1_655
Na5 O48 2.360762 1_555
Na5 O49 2.438092 1_555
Na5 O70 2.483248 1_545
Na5 O13 2.483346 1_555
Na5 O71 2.655805 1_545
Na5 O34 2.798029 1_545
Na5 O8 2.903020 1_545
Na5 O3 2.978928 1_555
Na6 O65 2.422919 1_555
Na6 O64 2.426388 1_555
Na6 O43 2.428469 1_555
Na6 O28 2.558812 1_555
Na6 O42 2.619275 1_455
Na6 O7 2.725461 1_555
Na7 O63 2.370886 1_555
Na7 O44 2.431151 1_455
Na7 O65 2.461479 1_555
Na7 O29 2.506022 1_555
Na7 O43 2.671649 1_565
Na7 O8 2.768400 1_555
Na7 O22 2.898951 1_455
Na8 O27 2.366132 1_555
Na8 O64 2.374793 1_555
Na8 O63 2.497170 1_555
Na8 O42 2.510014 1_565
Na8 O44 2.630640 1_555
Na8 O6 2.855562 1_555
Na8 O23 2.901009 1_565
Na8 O13 2.999561 1_565
Na9 O26 2.366128 1_554
Na9 O61 2.374793 1_555
Na9 O62 2.497153 1_555
Na9 O47 2.510021 1_565
Na9 O45 2.630648 1_455
Na9 O11 2.855566 1_555
Na9 O18 2.901009 1_565
Na9 O16 2.999561 1_565
Na10 O62 2.370901 1_555
Na10 O45 2.431143 1_555
Na10 O60 2.461492 1_555
Na10 O24 2.506029 1_554
Na10 O46 2.671649 1_565
Na10 O9 2.768398 1_555
Na10 O19 2.898951 1_555
Na11 O60 2.422903 1_555
Na11 O61 2.426391 1_555
Na11 O46 2.428471 1_455
Na11 O25 2.558809 1_554
Na11 O47 2.619268 1_555
Na11 O10 2.725460 1_555
Na12 O41 2.413936 1_555
Na12 O40 2.438947 1_655
Na12 O55 2.472809 1_555
Na12 O4 2.542671 1_555
Na12 O54 2.684698 1_555
Na12 O19 2.756246 1_556
Na12 O26 2.907067 1_655
Na12 O33 2.938722 1_655
Na13 O5 2.382663 1_555
Na13 O39 2.402292 1_655
Na13 O56 2.447481 1_555
Na13 O41 2.494724 1_545
Na13 O55 2.627032 1_555
Na13 O20 2.824535 1_556
Na13 O34 2.896949 1_545
Na14 O40 2.352765 1_545
Na14 O54 2.452397 1_555
Na14 O39 2.463421 1_555
Na14 O3 2.500176 1_555
Na14 O56 2.606663 1_555
Na14 O18 2.792526 1_556
Na14 O35 2.918550 1_555
Na14 O25 3.000499 1_555
Na15 O37 2.352765 1_545
Na15 O59 2.452384 1_555
Na15 O38 2.463429 1_655
Na15 O2 2.500179 1_555
Na15 O57 2.606647 1_555
Na15 O23 2.792518 1_555
Na15 O30 2.918550 1_655
Na15 O28 3.000499 1_655
Na16 O0 2.382659 1_555
Na16 O38 2.402284 1_555
Na16 O57 2.447497 1_555
Na16 O36 2.494718 1_545
Na16 O58 2.627033 1_555
Na16 O21 2.824540 1_555
Na16 O31 2.896948 1_545
Na17 O36 2.413944 1_655
Na17 O37 2.438946 1_555
Na17 O58 2.472807 1_555
Na17 O1 2.542673 1_555
Na17 O59 2.684713 1_555
Na17 O22 2.756250 1_555
Na17 O27 2.907067 1_555
Na17 O32 2.938722 1_555
Na18 O37 2.409690 1_545
Na18 O38 2.497970 1_655
Na18 O36 2.506583 1_645
Na18 O44 2.519456 1_545
Na18 O42 2.537716 1_555
Na18 O43 2.552027 1_655
Na19 O40 2.409690 1_545
Na19 O39 2.497970 1_555
Na19 O41 2.506583 1_445
Na19 O45 2.519456 1_446
Na19 O47 2.537716 1_556
Na19 O46 2.552027 1_456
Na20 O48 2.413395 1_555
Na20 O56 2.481009 1_555
Na20 O50 2.510595 1_555
Na20 O49 2.512932 1_555
Na20 O55 2.555962 1_555
Na20 O54 2.560410 1_555
Na21 O53 2.413395 1_555
Na21 O57 2.481009 1_555
Na21 O51 2.510595 1_555
Na21 O52 2.512932 1_555
Na21 O58 2.555962 1_555
Na21 O59 2.560410 1_555
Na22 O61 2.375775 1_555
Na22 O66 2.497271 1_555
Na22 O68 2.520345 1_555
Na22 O60 2.526851 1_555
Na22 O62 2.552905 1_555
Na22 O67 2.570127 1_555
Na23 O64 2.375775 1_555
Na23 O71 2.497271 1_555
Na23 O69 2.520345 1_555
Na23 O65 2.526851 1_555
Na23 O63 2.552905 1_555
Na23 O70 2.570127 1_555
Mg0 O0 1.959590 1_555
Mg0 O2 2.010632 1_455
Mg0 O1 2.029606 1_445
Mg0 O37 2.055291 1_445
Mg0 O38 2.155231 1_555
Mg0 O36 2.164081 1_545
Mg1 O5 1.959590 1_455
Mg1 O3 2.010632 1_555
Mg1 O4 2.029606 1_445
Mg1 O40 2.055291 1_545
Mg1 O39 2.155231 1_555
Mg1 O41 2.164081 1_445
Mg2 O14 1.952341 1_555
Mg2 O12 2.022444 1_555
Mg2 O13 2.028423 1_555
Mg2 O48 2.051772 1_555
Mg2 O49 2.152973 1_555
Mg2 O50 2.169526 1_555
Mg3 O15 1.952341 1_555
Mg3 O17 2.022444 1_555
Mg3 O16 2.028423 1_555
Mg3 O53 2.051772 1_555
Mg3 O52 2.152973 1_555
Mg3 O51 2.169526 1_555
Mg4 O26 1.948026 1_554
Mg4 O25 2.012306 1_554
Mg4 O24 2.042634 1_554
Mg4 O61 2.058048 1_555
Mg4 O62 2.142370 1_555
Mg4 O60 2.167028 1_555
Mg5 O27 1.948026 1_555
Mg5 O28 2.012306 1_555
Mg5 O29 2.042634 1_555
Mg5 O64 2.058048 1_555
Mg5 O63 2.142370 1_555
Mg5 O65 2.167028 1_555
O0 Si0 1.588038 1_555
O1 P0 1.515591 1_555
O2 P1 1.519840 1_655
O3 P2 1.519840 1_555
O4 P3 1.515591 1_655
O5 Si1 1.588038 1_555
O6 Si1 1.716268 1_565
O6 Ti0 1.820444 1_555
O7 P2 1.585240 1_555
O7 Ti0 2.026075 1_445
O8 P3 1.585756 1_555
O8 Ti0 1.996625 1_455
O9 P0 1.585756 1_555
O9 Ti1 1.996625 1_655
O10 P1 1.585240 1_555
O10 Ti1 2.026075 1_545
O11 Si0 1.716268 1_565
O11 Ti1 1.820444 1_555
O12 P4 1.515437 1_555
O13 P5 1.517950 1_555
O14 Si2 1.589930 1_555
O15 Si3 1.589930 1_555
O16 P6 1.517950 1_555
O17 P7 1.515437 1_555
O18 P7 1.586393 1_555
O18 Ti2 1.985398 1_554
O19 Si3 1.708079 1_555
O19 Ti2 1.870210 1_554
O20 P6 1.595990 1_555
O20 Ti2 1.965169 1_554
O21 P5 1.595990 1_555
O21 Ti3 1.965169 1_555
O22 Si2 1.708079 1_555
O22 Ti3 1.870210 1_555
O23 P4 1.586393 1_555
O23 Ti3 1.985398 1_555
O24 P8 1.516103 1_555
O25 P9 1.517568 1_555
O26 Si4 1.588274 1_555
O27 Si5 1.588274 1_555
O28 P10 1.517568 1_555
O29 P11 1.516103 1_555
O30 P11 1.586795 1_555
O30 Ti4 1.981601 1_555
O31 Si5 1.727482 1_555
O31 Ti4 1.817291 1_555
O32 P10 1.576742 1_555
O32 Ti4 2.042248 1_555
O33 P9 1.576742 1_555
O33 Ti5 2.042248 1_555
O34 Si4 1.727482 1_555
O34 Ti5 1.817291 1_555
O35 P8 1.586795 1_555
O35 Ti5 1.981601 1_555
O36 P11 1.536995 1_555
O37 Si5 1.615393 1_555
O38 P10 1.536368 1_555
O39 P9 1.536371 1_555
O40 Si4 1.615384 1_555
O41 P8 1.537001 1_555
O42 P4 1.575383 1_555
O42 Ti0 2.080400 1_545
O43 P5 1.563454 1_555
O43 Ti0 2.167294 1_445
O44 Si2 1.695048 1_555
O44 Ti0 1.929265 1_555
O45 Si3 1.695052 1_555
O45 Ti1 1.929265 1_655
O46 P6 1.563445 1_555
O46 Ti1 2.167294 1_645
O47 P7 1.575388 1_555
O47 Ti1 2.080400 1_545
O48 Si1 1.612827 1_555
O49 P2 1.540780 1_555
O50 P3 1.536041 1_655
O51 P0 1.536044 1_555
O52 P1 1.540771 1_655
O53 Si0 1.612833 1_555
O54 P8 1.576969 1_555
O54 Ti2 2.085087 1_555
O55 P9 1.582148 1_655
O55 Ti2 2.074234 1_555
O56 Si4 1.662585 1_545
O56 Ti2 2.001545 1_555
O57 Si5 1.662577 1_545
O57 Ti3 2.001545 1_555
O58 P10 1.582166 1_555
O58 Ti3 2.074234 1_555
O59 P11 1.576960 1_655
O59 Ti3 2.085087 1_555
O60 P7 1.535968 1_555
O61 Si3 1.615185 1_455
O62 P6 1.537636 1_565
O63 P5 1.537629 1_565
O64 Si2 1.615203 1_555
O65 P4 1.535957 1_455
O66 Si0 1.679895 1_565
O66 Ti4 1.931866 1_555
O67 P0 1.578597 1_555
O67 Ti4 2.076470 1_555
O68 P1 1.568597 1_555
O68 Ti4 2.176059 1_555
O69 P2 1.568601 1_555
O69 Ti5 2.176059 1_555
O70 P3 1.578588 1_555
O70 Ti5 2.076470 1_555
O71 Si1 1.679900 1_565
O71 Ti5 1.931866 1_555
