# generated using pymatgen
data_MnSn(BO3)2
_symmetry_space_group_name_H-M   'P 1'
_cell_length_a   5.89133803
_cell_length_b   5.89133802
_cell_length_c   5.89133854
_cell_angle_alpha   48.43624421
_cell_angle_beta   48.43623976
_cell_angle_gamma   48.43624595
_symmetry_Int_Tables_number   1
_chemical_formula_structural   MnSn(BO3)2
_chemical_formula_sum   'Mn1 Sn1 B2 O6'
_cell_volume   104.97284143
_cell_formula_units_Z   1
loop_
 _symmetry_equiv_pos_site_id
 _symmetry_equiv_pos_as_xyz
  1  'x, y, z'
loop_
 _atom_site_type_symbol
 _atom_site_label
 _atom_site_symmetry_multiplicity
 _atom_site_fract_x
 _atom_site_fract_y
 _atom_site_fract_z
 _atom_site_occupancy
  Mn  Mn0  1  0.00000000  0.00000000  0.00000000  1
  Sn  Sn0  1  0.50000000  0.50000000  0.49999900  1
  B  B0  1  0.75542900  0.75542900  0.75542900  1
  B  B1  1  0.24457200  0.24457100  0.24457100  1
  O  O0  1  0.04676600  0.74209500  0.47348600  1
  O  O1  1  0.74209400  0.47348600  0.04676700  1
  O  O2  1  0.52651300  0.95323300  0.25790600  1
  O  O3  1  0.47348500  0.04676700  0.74209400  1
  O  O4  1  0.95323500  0.25790500  0.52651200  1
  O  O5  1  0.25790500  0.52651400  0.95323400  1
loop_
_geom_bond_atom_site_label_1
_geom_bond_atom_site_label_2
_geom_bond_distance
_geom_bond_site_symmetry_2
Mn0 O3 2.237420 1_554
Mn0 O5 2.237424 1_544
Mn0 O0 2.237424 1_545
Mn0 O1 2.237426 1_455
Mn0 O2 2.237431 1_445
Mn0 O4 2.237432 1_454
B0 O0 1.386507 1_655
B0 O1 1.386509 1_556
B0 O3 1.386512 1_565
B1 O4 1.386502 1_455
B1 O2 1.386505 1_545
B1 O5 1.386507 1_554
O0 Sn0 2.095911 1_555
O1 Sn0 2.095905 1_555
O2 Sn0 2.095909 1_555
O3 Sn0 2.095912 1_555
O4 Sn0 2.095916 1_555
O5 Sn0 2.095919 1_555
