# generated using pymatgen
data_Fe2P4PbO14
_symmetry_space_group_name_H-M   'P 1'
_cell_length_a   4.80049190
_cell_length_b   7.13971547
_cell_length_c   7.85583097
_cell_angle_alpha   89.61187884
_cell_angle_beta   92.19934671
_cell_angle_gamma   107.11873339
_symmetry_Int_Tables_number   1
_chemical_formula_structural   Fe2P4PbO14
_chemical_formula_sum   'Fe2 P4 Pb1 O14'
_cell_volume   257.13074647
_cell_formula_units_Z   1
loop_
 _symmetry_equiv_pos_site_id
 _symmetry_equiv_pos_as_xyz
  1  'x, y, z'
loop_
 _atom_site_type_symbol
 _atom_site_label
 _atom_site_symmetry_multiplicity
 _atom_site_fract_x
 _atom_site_fract_y
 _atom_site_fract_z
 _atom_site_occupancy
  Fe  Fe0  1  0.00000000  0.00000000  0.50000000  1
  Fe  Fe1  1  0.50000000  0.50000000  -0.00000000  1
  P  P0  1  0.38262083  0.76975067  0.29819694  1
  P  P1  1  0.61737917  0.23024933  0.70180306  1
  P  P2  1  0.96192979  0.38043139  0.24725362  1
  P  P3  1  0.03807021  0.61956861  0.75274638  1
  Pb  Pb0  1  0.00000000  0.00000000  -0.00000000  1
  O  O0  1  0.48827431  0.75738184  0.11685964  1
  O  O1  1  0.51172569  0.24261816  0.88314036  1
  O  O2  1  0.18529346  0.90337417  0.29340352  1
  O  O3  1  0.81470654  0.09662583  0.70659648  1
  O  O4  1  0.62176590  0.81929163  0.43251020  1
  O  O5  1  0.31470054  0.56653392  0.79129220  1
  O  O6  1  0.68529946  0.43346608  0.20870780  1
  O  O7  1  0.88750338  0.64546234  0.91686767  1
  O  O8  1  0.11249662  0.35453766  0.08313233  1
  O  O9  1  0.08967402  0.80322093  0.64955215  1
  O  O10  1  0.91032598  0.19677907  0.35044785  1
  O  O11  1  0.81391777  0.44480072  0.65078415  1
  O  O12  1  0.18608223  0.55519928  0.34921585  1
  O  O13  1  0.37823410  0.18070837  0.56748980  1
loop_
_geom_bond_atom_site_label_1
_geom_bond_atom_site_label_2
_geom_bond_distance
_geom_bond_site_symmetry_2
Fe0 O4 1.949048 1_445
Fe0 O13 1.949048 1_555
Fe0 O9 1.958148 1_545
Fe0 O10 1.958148 1_455
Fe0 O3 2.094866 1_455
Fe0 O2 2.094866 1_545
Fe1 O6 1.957393 1_555
Fe1 O5 1.957393 1_554
Fe1 O7 1.977927 1_554
Fe1 O8 1.977927 1_555
Fe1 O0 2.076188 1_555
Fe1 O1 2.076188 1_554
O0 P0 1.542052 1_555
O0 Pb0 2.743062 1_665
O1 P1 1.542052 1_555
O1 Pb0 2.743062 1_556
O2 P0 1.528960 1_555
O2 Pb0 2.600422 1_565
O3 P1 1.528960 1_555
O3 Pb0 2.600422 1_656
O4 P0 1.493119 1_555
O5 P3 1.504047 1_555
O6 P2 1.504047 1_555
O7 P3 1.540244 1_655
O7 Pb0 2.513202 1_666
O8 P2 1.540244 1_455
O8 Pb0 2.513202 1_555
O9 P3 1.499221 1_555
O10 P2 1.499221 1_555
O11 P3 1.585370 1_655
O11 P1 1.602245 1_555
O12 P2 1.585370 1_455
O12 P0 1.602245 1_555
O13 P1 1.493119 1_555
