# generated using pymatgen
data_K8CaTe6
_symmetry_space_group_name_H-M   'P 1'
_cell_length_a   10.01143060
_cell_length_b   10.01181327
_cell_length_c   10.01164753
_cell_angle_alpha   95.69886077
_cell_angle_beta   95.68383711
_cell_angle_gamma   143.29072369
_symmetry_Int_Tables_number   1
_chemical_formula_structural   K8CaTe6
_chemical_formula_sum   'K8 Ca1 Te6'
_cell_volume   569.32072406
_cell_formula_units_Z   1
loop_
 _symmetry_equiv_pos_site_id
 _symmetry_equiv_pos_as_xyz
  1  'x, y, z'
loop_
 _atom_site_type_symbol
 _atom_site_label
 _atom_site_symmetry_multiplicity
 _atom_site_fract_x
 _atom_site_fract_y
 _atom_site_fract_z
 _atom_site_occupancy
  K  K0  1  0.67467545  0.49355990  0.63855400  1
  K  K1  1  0.85495642  0.03610966  0.36139537  1
  K  K2  1  0.14771369  0.51273451  0.18848079  1
  K  K3  1  0.32422257  0.95922388  0.81158474  1
  K  K4  1  0.96387701  0.32533672  0.81879750  1
  K  K5  1  0.50655157  0.14507380  0.18118437  1
  K  K6  1  0.04087288  0.85239958  0.36496258  1
  K  K7  1  0.48736560  0.67587943  0.63499453  1
  Ca  Ca0  1  0.50007285  0.50006349  0.99998589  1
  Te  Te0  1  0.57608970  0.87165901  0.99971433  1
  Te  Te1  1  0.87195777  0.57638433  0.00032369  1
  Te  Te2  1  0.12816165  0.12783095  0.70450689  1
  Te  Te3  1  0.42339181  0.42374366  0.29550300  1
  Te  Te4  1  0.52838913  0.02839452  0.49999865  1
  Te  Te5  1  -0.02829711  0.47160654  0.50001268  1
loop_
_geom_bond_atom_site_label_1
_geom_bond_atom_site_label_2
_geom_bond_distance
_geom_bond_site_symmetry_2
K0 Te5 3.552358 1_655
K0 Te2 3.585165 1_555
K0 Te1 3.614886 1_556
K0 Te4 3.624490 1_555
K0 Te3 3.688573 1_555
K0 Te2 3.704243 1_665
K1 Te5 3.550882 1_655
K1 Te3 3.584869 1_545
K1 Te0 3.613935 1_544
K1 Te4 3.624302 1_555
K1 Te2 3.689139 1_655
K1 Te3 3.704493 1_655
K2 Te3 3.620160 1_555
K2 Te0 3.622394 1_554
K2 Te5 3.630809 1_555
K2 Te1 3.688523 1_455
K2 Te4 3.715613 1_565
K2 Te0 3.751409 1_444
K3 Te2 3.620326 1_565
K3 Te1 3.622437 1_566
K3 Te5 3.631680 1_555
K3 Te0 3.688617 1_555
K3 Te4 3.716341 1_565
K3 Te1 3.751019 1_456
K4 Te4 3.551174 1_555
K4 Te0 3.584165 1_655
K4 Te2 3.614199 1_655
K4 Te5 3.623608 1_655
K4 Te1 3.687779 1_556
K4 Te0 3.706378 1_545
K5 Te4 3.551357 1_555
K5 Te1 3.583982 1_555
K5 Te3 3.614687 1_555
K5 Te5 3.624378 1_655
K5 Te0 3.687419 1_544
K5 Te1 3.706102 1_445
K6 Te1 3.619979 1_455
K6 Te3 3.624281 1_455
K6 Te4 3.631126 1_565
K6 Te2 3.689156 1_565
K6 Te5 3.717319 1_555
K6 Te3 3.750245 1_565
K7 Te0 3.620585 1_555
K7 Te2 3.624927 1_555
K7 Te4 3.631057 1_565
K7 Te3 3.688819 1_555
K7 Te5 3.715010 1_555
K7 Te2 3.749952 1_665
Ca0 Te1 3.143409 1_556
Ca0 Te0 3.143716 1_555
Ca0 Te2 3.143838 1_555
Ca0 Te3 3.144031 1_556
Te4 Te5 2.794850 1_655
