# generated using pymatgen
data_LaAgSb2
_symmetry_space_group_name_H-M   'P 1'
_cell_length_a   4.40346175
_cell_length_b   4.40346175
_cell_length_c   11.06681976
_cell_angle_alpha   90.00000000
_cell_angle_beta   90.00000000
_cell_angle_gamma   90.00000000
_symmetry_Int_Tables_number   1
_chemical_formula_structural   LaAgSb2
_chemical_formula_sum   'La2 Ag2 Sb4'
_cell_volume   214.59089613
_cell_formula_units_Z   2
loop_
 _symmetry_equiv_pos_site_id
 _symmetry_equiv_pos_as_xyz
  1  'x, y, z'
loop_
 _atom_site_type_symbol
 _atom_site_label
 _atom_site_symmetry_multiplicity
 _atom_site_fract_x
 _atom_site_fract_y
 _atom_site_fract_z
 _atom_site_occupancy
  La  La0  1  0.75000000  0.75000000  0.26299300  1
  La  La1  1  0.25000000  0.25000000  0.73700700  1
  Ag  Ag0  1  0.75000000  0.25000000  0.00000000  1
  Ag  Ag1  1  0.25000000  0.75000000  0.00000000  1
  Sb  Sb0  1  0.75000000  0.75000000  0.83331236  1
  Sb  Sb1  1  0.25000000  0.25000000  0.16668764  1
  Sb  Sb2  1  0.75000000  0.25000000  0.50000000  1
  Sb  Sb3  1  0.25000000  0.75000000  0.50000000  1
loop_
_geom_bond_atom_site_label_1
_geom_bond_atom_site_label_2
_geom_bond_distance
_geom_bond_site_symmetry_2
La0 Sb1 3.291072 1_565
La0 Sb1 3.291072 1_555
La0 Sb1 3.291072 1_665
La0 Sb1 3.291072 1_655
La0 Sb3 3.424514 1_655
La0 Sb2 3.424514 1_555
La0 Sb2 3.424514 1_565
La0 Sb3 3.424514 1_555
La1 Sb0 3.291072 1_445
La1 Sb0 3.291072 1_455
La1 Sb0 3.291072 1_555
La1 Sb0 3.291072 1_545
La1 Sb2 3.424514 1_455
La1 Sb2 3.424514 1_555
La1 Sb3 3.424514 1_545
La1 Sb3 3.424514 1_555
Ag0 Sb0 2.872376 1_554
Ag0 Sb0 2.872376 1_544
Ag0 Sb1 2.872376 1_655
Ag0 Sb1 2.872376 1_555
Ag0 Ag1 3.113718 1_645
Ag0 Ag1 3.113718 1_655
Ag0 Ag1 3.113718 1_545
Ag0 Ag1 3.113718 1_555
Ag0 La0 3.649467 1_555
Ag0 La1 3.649467 1_654
Ag0 La0 3.649467 1_545
Ag0 La1 3.649467 1_554
Ag1 Sb0 2.872376 1_554
Ag1 Sb0 2.872376 1_454
Ag1 Sb1 2.872376 1_565
Ag1 Sb1 2.872376 1_555
Ag1 La0 3.649467 1_555
Ag1 La1 3.649467 1_564
Ag1 La0 3.649467 1_455
Ag1 La1 3.649467 1_554
Sb2 Sb3 3.113718 1_645
Sb2 Sb3 3.113718 1_545
Sb2 Sb3 3.113718 1_555
Sb2 Sb3 3.113718 1_655
