# generated using pymatgen
data_SrTbO3
_symmetry_space_group_name_H-M   'P 1'
_cell_length_a   6.04834500
_cell_length_b   6.22670800
_cell_length_c   8.59764500
_cell_angle_alpha   90.00000000
_cell_angle_beta   90.00000000
_cell_angle_gamma   90.00000000
_symmetry_Int_Tables_number   1
_chemical_formula_structural   SrTbO3
_chemical_formula_sum   'Sr4 Tb4 O12'
_cell_volume   323.79830019
_cell_formula_units_Z   4
loop_
 _symmetry_equiv_pos_site_id
 _symmetry_equiv_pos_as_xyz
  1  'x, y, z'
loop_
 _atom_site_type_symbol
 _atom_site_label
 _atom_site_symmetry_multiplicity
 _atom_site_fract_x
 _atom_site_fract_y
 _atom_site_fract_z
 _atom_site_occupancy
  Sr  Sr0  1  0.98332700  0.05068900  0.25000000  1
  Sr  Sr1  1  0.48332700  0.44931100  0.75000000  1
  Sr  Sr2  1  0.51667300  0.55068900  0.25000000  1
  Sr  Sr3  1  0.01667300  0.94931100  0.75000000  1
  Tb  Tb0  1  0.50000000  0.00000000  0.00000000  1
  Tb  Tb1  1  0.00000000  0.50000000  0.00000000  1
  Tb  Tb2  1  0.00000000  0.50000000  0.50000000  1
  Tb  Tb3  1  0.50000000  0.00000000  0.50000000  1
  O  O0  1  0.20279900  0.20540000  0.56038700  1
  O  O1  1  0.70279900  0.29460000  0.43961300  1
  O  O2  1  0.29720100  0.70540000  0.93961300  1
  O  O3  1  0.79720100  0.79460000  0.06038700  1
  O  O4  1  0.79720100  0.79460000  0.43961300  1
  O  O5  1  0.29720100  0.70540000  0.56038700  1
  O  O6  1  0.70279900  0.29460000  0.06038700  1
  O  O7  1  0.20279900  0.20540000  0.93961300  1
  O  O8  1  0.11305100  0.44969400  0.25000000  1
  O  O9  1  0.61305100  0.05030600  0.75000000  1
  O  O10  1  0.38694900  0.94969400  0.25000000  1
  O  O11  1  0.88694900  0.55030600  0.75000000  1
loop_
_geom_bond_atom_site_label_1
_geom_bond_atom_site_label_2
_geom_bond_distance
_geom_bond_site_symmetry_2
O0 Tb3 2.266403 1_555
O0 Tb2 2.266953 1_555
O0 Sr3 2.543163 1_545
O0 Sr1 2.800566 1_555
O0 Sr0 3.132338 1_455
O1 Tb2 2.266403 1_655
O1 Tb3 2.266953 1_555
O1 Sr2 2.543163 1_555
O1 Sr0 2.800566 1_555
O1 Sr1 3.132338 1_555
O2 Tb1 2.266403 1_556
O2 Tb0 2.266953 1_566
O2 Sr1 2.543163 1_555
O2 Sr3 2.800566 1_555
O2 Sr2 3.132338 1_556
O3 Tb0 2.266403 1_565
O3 Tb1 2.266953 1_655
O3 Sr0 2.543163 1_565
O3 Sr2 2.800566 1_555
O3 Sr3 3.132338 1_654
O4 Tb3 2.266403 1_565
O4 Tb2 2.266953 1_655
O4 Sr0 2.543163 1_565
O4 Sr2 2.800566 1_555
O4 Sr3 3.132338 1_655
O5 Tb2 2.266403 1_555
O5 Tb3 2.266953 1_565
O5 Sr1 2.543163 1_555
O5 Sr3 2.800566 1_555
O5 Sr2 3.132338 1_555
O6 Tb1 2.266403 1_655
O6 Tb0 2.266953 1_555
O6 Sr2 2.543163 1_555
O6 Sr0 2.800566 1_555
O6 Sr1 3.132338 1_554
O7 Tb0 2.266403 1_556
O7 Tb1 2.266953 1_556
O7 Sr3 2.543163 1_545
O7 Sr1 2.800566 1_555
O7 Sr0 3.132338 1_456
O8 Tb1 2.277198 1_555
O8 Tb2 2.277198 1_555
O8 Sr2 2.520942 1_555
O8 Sr0 2.605437 1_455
O9 Tb0 2.277198 1_556
O9 Tb3 2.277198 1_555
O9 Sr3 2.520942 1_645
O9 Sr1 2.605437 1_555
O10 Tb0 2.277198 1_565
O10 Tb3 2.277198 1_565
O10 Sr0 2.520942 1_465
O10 Sr2 2.605437 1_555
O11 Tb1 2.277198 1_656
O11 Tb2 2.277198 1_655
O11 Sr1 2.520942 1_555
O11 Sr3 2.605437 1_655
