# generated using pymatgen
data_Hf3MgP2(SO6)4
_symmetry_space_group_name_H-M   'P 1'
_cell_length_a   8.83896677
_cell_length_b   8.85218832
_cell_length_c   22.78228993
_cell_angle_alpha   90.00915331
_cell_angle_beta   89.97100749
_cell_angle_gamma   119.99945201
_symmetry_Int_Tables_number   1
_chemical_formula_structural   Hf3MgP2(SO6)4
_chemical_formula_sum   'Hf9 Mg3 P6 S12 O72'
_cell_volume   1543.76962625
_cell_formula_units_Z   3
loop_
 _symmetry_equiv_pos_site_id
 _symmetry_equiv_pos_as_xyz
  1  'x, y, z'
loop_
 _atom_site_type_symbol
 _atom_site_label
 _atom_site_symmetry_multiplicity
 _atom_site_fract_x
 _atom_site_fract_y
 _atom_site_fract_z
 _atom_site_occupancy
  Hf  Hf0  1  0.00073067  0.00018744  0.85903588  1
  Hf  Hf1  1  0.99895844  0.00504443  0.64371854  1
  Hf  Hf2  1  0.00569434  0.00607484  0.14457504  1
  Hf  Hf3  1  0.65861953  0.33132414  0.97707031  1
  Hf  Hf4  1  0.67291193  0.32613110  0.47634115  1
  Hf  Hf5  1  0.33324724  0.66108678  0.02199793  1
  Hf  Hf6  1  0.33522074  0.66640999  0.52085546  1
  Hf  Hf7  1  0.34042548  0.67434701  0.30886081  1
  Hf  Hf8  1  0.33205746  0.66644677  0.81409744  1
  Mg  Mg0  1  0.99332565  0.99979423  0.35380318  1
  Mg  Mg1  1  0.67428232  0.33580564  0.68754846  1
  Mg  Mg2  1  0.66177042  0.33518782  0.18748396  1
  P  P0  1  0.95401543  0.33674030  0.58521495  1
  P  P1  1  0.38281425  0.33470204  0.08563628  1
  P  P2  1  0.62026571  0.66590277  0.91670883  1
  P  P3  1  0.04324996  0.37938108  0.91702187  1
  P  P4  1  0.33430502  0.95320641  0.91729079  1
  P  P5  1  0.62722503  0.95258429  0.41571471  1
  S  S0  1  0.29110134  0.00647702  0.25127659  1
  S  S1  1  0.71608192  0.70838289  0.25060063  1
  S  S2  1  0.99435777  0.28762550  0.25108583  1
  S  S3  1  0.29426621  0.28960850  0.74952659  1
  S  S4  1  0.99614210  0.70778878  0.74942793  1
  S  S5  1  0.71017468  0.00355022  0.74983899  1
  S  S6  1  0.38041521  0.04645813  0.58468949  1
  S  S7  1  0.66617950  0.61854496  0.58447633  1
  S  S8  1  0.95319521  0.61969194  0.08496535  1
  S  S9  1  0.66597226  0.04642563  0.08495824  1
  S  S10  1  0.33007278  0.37360106  0.41589869  1
  S  S11  1  0.04586150  0.67229701  0.41573469  1
  O  O0  1  0.20674976  0.02747312  0.30315231  1
  O  O1  1  0.82048635  0.79167411  0.30270104  1
  O  O2  1  0.97206279  0.18066264  0.30254696  1
  O  O3  1  0.20692326  0.17898049  0.80156555  1
  O  O4  1  0.97329668  0.79502223  0.80178542  1
  O  O5  1  0.82154848  0.02758542  0.80169467  1
  O  O6  1  0.79428788  0.97096391  0.69743061  1
  O  O7  1  0.17739825  0.20496730  0.69720235  1
  O  O8  1  0.02829271  0.82319839  0.69718768  1
  O  O9  1  0.79257736  0.82272725  0.19760721  1
  O  O10  1  0.02986868  0.20740785  0.19771045  1
  O  O11  1  0.17635176  0.96949086  0.19794686  1
  O  O12  1  0.87145678  0.36486225  0.63843832  1
  O  O13  1  0.48602027  0.12344172  0.63643197  1
  O  O14  1  0.63521616  0.51272637  0.63641101  1
  O  O15  1  0.87715352  0.51300956  0.13648155  1
  O  O16  1  0.63847290  0.12425696  0.13658987  1
  O  O17  1  0.49344743  0.36393330  0.13874576  1
  O  O18  1  0.46265676  0.30291551  0.02922664  1
  O  O19  1  0.84690977  0.54286079  0.03106366  1
  O  O20  1  0.69838034  0.15392612  0.03111441  1
  O  O21  1  0.45649540  0.15507215  0.53104384  1
  O  O22  1  0.69525909  0.54178507  0.53075917  1
  O  O23  1  0.83962679  0.30404719  0.52911543  1
  O  O24  1  0.53793604  0.69909739  0.97075507  1
  O  O25  1  0.16045804  0.46311716  0.97070985  1
  O  O26  1  0.30238928  0.83897770  0.97123366  1
  O  O27  1  0.53141430  0.83958475  0.47063154  1
  O  O28  1  0.30529881  0.45987731  0.46912719  1
  O  O29  1  0.15369063  0.69331177  0.46910075  1
  O  O30  1  0.12492413  0.63434503  0.36428000  1
  O  O31  1  0.50148323  0.86511589  0.36281791  1
  O  O32  1  0.36293389  0.48955852  0.36441342  1
  O  O33  1  0.12952928  0.49297525  0.86184500  1
  O  O34  1  0.36314994  0.86942965  0.86174874  1
  O  O35  1  0.50634814  0.63632731  0.86166851  1
  O  O36  1  0.02696589  0.82333420  0.40800585  1
  O  O37  1  0.80522113  0.97574187  0.40728196  1
  O  O38  1  0.17926992  0.20304301  0.40811303  1
  O  O39  1  0.02551149  0.19942226  0.90607020  1
  O  O40  1  0.17428625  0.97493240  0.90623744  1
  O  O41  1  0.80123310  0.82680388  0.90621358  1
  O  O42  1  0.97647971  0.17333708  0.59324515  1
  O  O43  1  0.20197758  0.02333266  0.59224059  1
  O  O44  1  0.82207757  0.79647309  0.59237800  1
  O  O45  1  0.97396314  0.79721462  0.09264040  1
  O  O46  1  0.82162457  0.02310087  0.09246024  1
  O  O47  1  0.19586767  0.17215699  0.09337565  1
  O  O48  1  0.69076600  0.15453260  0.74105072  1
  O  O49  1  0.46439101  0.30782020  0.74006256  1
  O  O50  1  0.84358064  0.53756950  0.74143324  1
  O  O51  1  0.69115728  0.53579475  0.24121719  1
  O  O52  1  0.84551651  0.31031048  0.24000657  1
  O  O53  1  0.46422875  0.15250426  0.24117203  1
  O  O54  1  0.64328627  0.50736388  0.92555895  1
  O  O55  1  0.86314199  0.35800024  0.92685321  1
  O  O56  1  0.49492212  0.13435395  0.92523790  1
  O  O57  1  0.63608757  0.13158126  0.42619360  1
  O  O58  1  0.49060821  0.36258877  0.42662899  1
  O  O59  1  0.87103358  0.51305259  0.42559702  1
  O  O60  1  0.35521662  0.49147887  0.07362215  1
  O  O61  1  0.13064934  0.64493960  0.07489026  1
  O  O62  1  0.51247481  0.87057069  0.07486369  1
  O  O63  1  0.35656979  0.86981323  0.57429689  1
  O  O64  1  0.51303663  0.64344309  0.57460144  1
  O  O65  1  0.13763253  0.49261662  0.57183233  1
  O  O66  1  0.30404404  0.84252103  0.25843899  1
  O  O67  1  0.53719496  0.69201243  0.25867767  1
  O  O68  1  0.15651155  0.46363677  0.25944085  1
  O  O69  1  0.30623011  0.46177597  0.75735478  1
  O  O70  1  0.15602423  0.69414443  0.75752912  1
  O  O71  1  0.53778247  0.84316485  0.75743837  1
loop_
_geom_bond_atom_site_label_1
_geom_bond_atom_site_label_2
_geom_bond_distance
_geom_bond_site_symmetry_2
Hf0 O40 1.975953 1_545
Hf0 O41 1.978015 1_445
Hf0 O39 1.979909 1_555
Hf0 O4 2.148861 1_445
Hf0 O3 2.157458 1_555
Hf0 O5 2.158725 1_455
Hf1 O42 1.969238 1_555
Hf1 O6 2.076845 1_545
Hf1 O7 2.077107 1_655
Hf1 O43 2.080677 1_655
Hf1 O44 2.082288 1_545
Hf1 O8 2.135576 1_645
Hf2 O47 1.968475 1_555
Hf2 O10 2.075141 1_555
Hf2 O46 2.080070 1_455
Hf2 O11 2.085479 1_545
Hf2 O45 2.092370 1_445
Hf2 O9 2.140894 1_445
Hf3 O56 2.001611 1_555
Hf3 O54 2.008964 1_555
Hf3 O18 2.009425 1_556
Hf3 O55 2.050310 1_555
Hf3 O20 2.158346 1_556
Hf3 O19 2.162031 1_556
Hf4 O57 1.953546 1_555
Hf4 O23 1.986248 1_555
Hf4 O59 2.059624 1_555
Hf4 O58 2.122585 1_555
Hf4 O21 2.146371 1_555
Hf4 O22 2.200631 1_555
Hf5 O60 1.991861 1_555
Hf5 O25 2.023290 1_554
Hf5 O24 2.034375 1_554
Hf5 O26 2.078968 1_554
Hf5 O61 2.102663 1_555
Hf5 O62 2.112478 1_555
Hf6 O27 2.001675 1_555
Hf6 O65 2.019278 1_555
Hf6 O28 2.077845 1_555
Hf6 O64 2.081456 1_555
Hf6 O29 2.098955 1_555
Hf6 O63 2.102321 1_555
Hf7 O31 1.996642 1_555
Hf7 O67 2.020540 1_555
Hf7 O66 2.029501 1_555
Hf7 O68 2.087695 1_555
Hf7 O32 2.154878 1_555
Hf7 O30 2.161251 1_555
Hf8 O34 1.997143 1_555
Hf8 O33 1.998912 1_555
Hf8 O35 2.007854 1_555
Hf8 O70 2.127349 1_555
Hf8 O71 2.138616 1_555
Hf8 O69 2.142842 1_555
Mg0 O37 1.984488 1_555
Mg0 O2 2.064972 1_565
Mg0 O1 2.066422 1_555
Mg0 O0 2.118015 1_665
Mg0 O38 2.124527 1_665
Mg0 O36 2.125740 1_655
Mg1 O12 1.976165 1_555
Mg1 O50 2.065145 1_555
Mg1 O48 2.077618 1_555
Mg1 O14 2.114493 1_555
Mg1 O49 2.114907 1_555
Mg1 O13 2.128917 1_555
Mg2 O17 1.972704 1_555
Mg2 O51 2.063474 1_555
Mg2 O53 2.082030 1_555
Mg2 O15 2.110435 1_555
Mg2 O52 2.116082 1_555
Mg2 O16 2.118560 1_555
O0 S0 1.457673 1_555
O1 S1 1.457586 1_555
O2 S2 1.457199 1_555
O3 S3 1.484598 1_555
O4 S4 1.488388 1_555
O5 S5 1.483814 1_555
O6 S5 1.508313 1_565
O7 S3 1.508800 1_555
O8 S4 1.500223 1_455
O9 S1 1.501499 1_555
O10 S2 1.517786 1_455
O11 S0 1.510345 1_565
O12 P0 1.498474 1_555
O13 S6 1.445706 1_555
O14 S7 1.447744 1_555
O15 S8 1.444262 1_555
O16 S9 1.443724 1_555
O17 P1 1.495081 1_555
O18 P1 1.557675 1_555
O19 S8 1.488322 1_555
O20 S9 1.489903 1_555
O21 S6 1.491086 1_555
O22 S7 1.483081 1_555
O23 P0 1.564638 1_555
O24 P2 1.531276 1_555
O25 P3 1.533582 1_555
O26 P4 1.525500 1_555
O27 P5 1.560553 1_555
O28 S10 1.506145 1_555
O29 S11 1.498324 1_555
O30 S11 1.486350 1_555
O31 P5 1.558072 1_555
O32 S10 1.488534 1_555
O33 P3 1.550971 1_555
O34 P4 1.550681 1_555
O35 P2 1.546724 1_555
O36 S11 1.438715 1_555
O37 P5 1.493788 1_555
O38 S10 1.440633 1_555
O39 P3 1.541014 1_555
O40 P4 1.540559 1_555
O41 P2 1.538162 1_555
O42 P0 1.566052 1_555
O43 S6 1.495308 1_555
O44 S7 1.497274 1_555
O45 S8 1.498416 1_555
O46 S9 1.499666 1_555
O47 P1 1.566569 1_555
O48 S5 1.444028 1_555
O49 S3 1.446009 1_555
O50 S4 1.445805 1_555
O51 S1 1.446279 1_555
O52 S2 1.448925 1_555
O53 S0 1.444763 1_555
O54 P2 1.528831 1_555
O55 P3 1.522729 1_655
O56 P4 1.530796 1_545
O57 P5 1.565118 1_545
O58 S10 1.490441 1_555
O59 S11 1.499005 1_655
O60 P1 1.548929 1_555
O61 S8 1.487267 1_455
O62 S9 1.484982 1_565
O63 S6 1.488617 1_565
O64 S7 1.493369 1_555
O65 P0 1.546355 1_455
O66 S0 1.520630 1_565
O67 S1 1.524979 1_555
O68 S2 1.511684 1_455
O69 S3 1.484760 1_555
O70 S4 1.488866 1_455
O71 S5 1.484597 1_565
