# generated using pymatgen
data_Na3TiInSi(PO6)2
_symmetry_space_group_name_H-M   'P 1'
_cell_length_a   15.63704884
_cell_length_b   9.06369340
_cell_length_c   8.99998758
_cell_angle_alpha   90.00003791
_cell_angle_beta   125.35870805
_cell_angle_gamma   90.00000221
_symmetry_Int_Tables_number   1
_chemical_formula_structural   Na3TiInSi(PO6)2
_chemical_formula_sum   'Na12 Ti4 In4 Si4 P8 O48'
_cell_volume   1040.27909346
_cell_formula_units_Z   4
loop_
 _symmetry_equiv_pos_site_id
 _symmetry_equiv_pos_as_xyz
  1  'x, y, z'
loop_
 _atom_site_type_symbol
 _atom_site_label
 _atom_site_symmetry_multiplicity
 _atom_site_fract_x
 _atom_site_fract_y
 _atom_site_fract_z
 _atom_site_occupancy
  Na  Na0  1  0.25367700  0.72580676  0.99858274  1
  Na  Na1  1  0.75367701  0.77419328  0.49858259  1
  Na  Na2  1  0.75367696  0.22580682  0.99858281  1
  Na  Na3  1  0.25367705  0.27419323  0.49858275  1
  Na  Na4  1  0.50408895  0.10105208  0.75314686  1
  Na  Na5  1  0.50408910  0.89894791  0.25314690  1
  Na  Na6  1  0.00408895  0.60105194  0.75314688  1
  Na  Na7  1  0.00408891  0.39894801  0.25314688  1
  Na  Na8  1  0.19009722  0.93156117  0.29611041  1
  Na  Na9  1  0.19009725  0.06843902  0.79611032  1
  Na  Na10  1  0.69009719  0.43156099  0.29611036  1
  Na  Na11  1  0.69009726  0.56843885  0.79611046  1
  Ti  Ti0  1  0.89702350  0.75841989  0.93662546  1
  Ti  Ti1  1  0.89702338  0.24158028  0.43662509  1
  Ti  Ti2  1  0.39702305  0.25842001  0.93662478  1
  Ti  Ti3  1  0.39702305  0.74157973  0.43662495  1
  In  In0  1  0.10155992  0.74660453  0.55784663  1
  In  In1  1  0.10156009  0.25339585  0.05784698  1
  In  In2  1  0.60155964  0.24660428  0.55784637  1
  In  In3  1  0.60155992  0.75339577  0.05784677  1
  Si  Si0  1  0.64855379  0.89209953  0.74419889  1
  Si  Si1  1  0.64855406  0.10790096  0.24419899  1
  Si  Si2  1  0.14855383  0.39209936  0.74419892  1
  Si  Si3  1  0.14855416  0.60790032  0.24419928  1
  P  P0  1  0.99471992  0.95800173  0.75148545  1
  P  P1  1  0.99472006  0.04199884  0.25148639  1
  P  P2  1  0.49471975  0.45800120  0.75148538  1
  P  P3  1  0.49471982  0.54199859  0.25148562  1
  P  P4  1  0.35195239  0.90547410  0.75318898  1
  P  P5  1  0.35195250  0.09452617  0.25318937  1
  P  P6  1  0.85195259  0.40547398  0.75318934  1
  P  P7  1  0.85195255  0.59452566  0.25318925  1
  O  O0  1  0.15440486  0.57080211  0.74659893  1
  O  O1  1  0.85114321  0.57930554  0.75191862  1
  O  O2  1  0.85114325  0.42069459  0.25191843  1
  O  O3  1  0.15440481  0.42919722  0.24659887  1
  O  O4  1  0.65440480  0.07080244  0.74659863  1
  O  O5  1  0.35114324  0.07930552  0.75191850  1
  O  O6  1  0.35114331  0.92069411  0.25191882  1
  O  O7  1  0.65440471  0.92919711  0.24659856  1
  O  O8  1  0.43476288  0.56845110  0.58745333  1
  O  O9  1  0.56467802  0.54086387  0.93197173  1
  O  O10  1  0.56467777  0.45913596  0.43197144  1
  O  O11  1  0.43476300  0.43154940  0.08745338  1
  O  O12  1  0.93476323  0.06845010  0.58745416  1
  O  O13  1  0.06467811  0.04086367  0.93197178  1
  O  O14  1  0.06467850  0.95913551  0.43197260  1
  O  O15  1  0.93476272  0.93154884  0.08745266  1
  O  O16  1  0.25496373  0.85715228  0.74540802  1
  O  O17  1  0.74745317  0.80722699  0.75925377  1
  O  O18  1  0.74745237  0.19277270  0.25925308  1
  O  O19  1  0.25496356  0.14284779  0.24540832  1
  O  O20  1  0.75496422  0.35715247  0.74540831  1
  O  O21  1  0.24745307  0.30722739  0.75925386  1
  O  O22  1  0.24745292  0.69277263  0.25925338  1
  O  O23  1  0.75496364  0.64284766  0.24540818  1
  O  O24  1  0.35354838  0.85853969  0.58682481  1
  O  O25  1  0.65045099  0.84581804  0.91692306  1
  O  O26  1  0.65045072  0.15418244  0.41692344  1
  O  O27  1  0.35354834  0.14146038  0.08682432  1
  O  O28  1  0.85354823  0.35853994  0.58682496  1
  O  O29  1  0.15045085  0.34581767  0.91692316  1
  O  O30  1  0.15045076  0.65418238  0.41692338  1
  O  O31  1  0.85354836  0.64146045  0.08682440  1
  O  O32  1  0.44880949  0.84924774  0.93392552  1
  O  O33  1  0.53508350  0.82339775  0.55910361  1
  O  O34  1  0.53508317  0.17660253  0.05910303  1
  O  O35  1  0.44880938  0.15075262  0.43392574  1
  O  O36  1  0.94880916  0.34924786  0.93392552  1
  O  O37  1  0.03508337  0.32339762  0.55910342  1
  O  O38  1  0.03508272  0.67660266  0.05910252  1
  O  O39  1  0.94880965  0.65075245  0.43392596  1
  O  O40  1  0.06940990  0.85697703  0.73760107  1
  O  O41  1  0.91361967  0.85891855  0.75183178  1
  O  O42  1  0.91361975  0.14108136  0.25183179  1
  O  O43  1  0.06941025  0.14302304  0.23760137  1
  O  O44  1  0.56941011  0.35697721  0.73760179  1
  O  O45  1  0.41361956  0.35891856  0.75183174  1
  O  O46  1  0.41361963  0.64108152  0.25183191  1
  O  O47  1  0.56941011  0.64302267  0.23760150  1
loop_
_geom_bond_atom_site_label_1
_geom_bond_atom_site_label_2
_geom_bond_distance
_geom_bond_site_symmetry_2
Na0 O46 2.332846 1_556
Na0 O0 2.334979 1_555
Na0 O22 2.422242 1_556
Na0 O6 2.572865 1_556
Na0 O16 2.581198 1_555
Na0 O40 2.720258 1_555
Na1 O41 2.332845 1_555
Na1 O7 2.334978 1_555
Na1 O17 2.422244 1_555
Na1 O1 2.572869 1_555
Na1 O23 2.581193 1_555
Na1 O47 2.720255 1_555
Na2 O42 2.332847 1_556
Na2 O4 2.334980 1_555
Na2 O18 2.422243 1_556
Na2 O2 2.572866 1_556
Na2 O20 2.581201 1_555
Na2 O44 2.720255 1_555
Na3 O45 2.332844 1_555
Na3 O3 2.334978 1_555
Na3 O21 2.422245 1_555
Na3 O5 2.572868 1_555
Na3 O19 2.581192 1_555
Na3 O43 2.720253 1_555
Na4 O5 2.393369 1_555
Na4 O4 2.400792 1_555
Na4 O35 2.515926 1_555
Na4 O44 2.570789 1_555
Na4 O34 2.596444 1_556
Na4 O45 2.728493 1_555
Na4 O24 2.921510 1_545
Na4 O25 2.976221 1_545
Na5 O6 2.393371 1_555
Na5 O7 2.400789 1_555
Na5 O32 2.515926 1_554
Na5 O47 2.570790 1_555
Na5 O33 2.596448 1_555
Na5 O46 2.728493 1_555
Na5 O27 2.921514 1_565
Na5 O26 2.976220 1_565
Na6 O1 2.393370 1_455
Na6 O0 2.400792 1_555
Na6 O39 2.515925 1_455
Na6 O40 2.570789 1_555
Na6 O38 2.596443 1_556
Na6 O41 2.728493 1_455
Na6 O28 2.921509 1_455
Na6 O29 2.976222 1_555
Na7 O2 2.393368 1_455
Na7 O3 2.400791 1_555
Na7 O36 2.515925 1_454
Na7 O43 2.570790 1_555
Na7 O37 2.596446 1_555
Na7 O42 2.728492 1_455
Na7 O31 2.921512 1_455
Na7 O30 2.976220 1_555
Na8 O19 2.332410 1_565
Na8 O22 2.437820 1_555
Na8 O24 2.465059 1_555
Na8 O43 2.522312 1_565
Na8 O6 2.769272 1_555
Na8 O13 2.851171 1_564
Na8 O14 2.859946 1_555
Na8 O30 2.944038 1_555
Na9 O16 2.332412 1_545
Na9 O21 2.437818 1_555
Na9 O27 2.465055 1_556
Na9 O40 2.522316 1_545
Na9 O5 2.769271 1_555
Na9 O14 2.851167 1_545
Na9 O13 2.859947 1_555
Na9 O29 2.944034 1_555
Na10 O23 2.332411 1_555
Na10 O18 2.437815 1_555
Na10 O28 2.465058 1_555
Na10 O47 2.522313 1_555
Na10 O2 2.769273 1_555
Na10 O9 2.851173 1_554
Na10 O10 2.859948 1_555
Na10 O26 2.944036 1_555
Na11 O20 2.332413 1_555
Na11 O17 2.437817 1_555
Na11 O31 2.465056 1_556
Na11 O44 2.522313 1_555
Na11 O1 2.769271 1_555
Na11 O10 2.851174 1_555
Na11 O9 2.859947 1_555
Na11 O25 2.944037 1_555
In0 O30 2.004254 1_555
In0 O0 2.117297 1_555
In0 O14 2.137875 1_555
In0 O39 2.149573 1_455
In0 O40 2.193640 1_555
In0 O16 2.218343 1_555
In1 O29 2.004257 1_554
In1 O3 2.117286 1_555
In1 O13 2.137887 1_554
In1 O36 2.149581 1_454
In1 O43 2.193640 1_555
In1 O19 2.218342 1_555
In2 O26 2.004253 1_555
In2 O4 2.117293 1_555
In2 O10 2.137884 1_555
In2 O35 2.149572 1_555
In2 O44 2.193645 1_555
In2 O20 2.218354 1_555
In3 O25 2.004261 1_554
In3 O7 2.117285 1_555
In3 O9 2.137884 1_554
In3 O32 2.149575 1_554
In3 O47 2.193644 1_555
In3 O23 2.218345 1_555
O0 Si2 1.621728 1_555
O1 P6 1.575595 1_555
O1 Ti0 2.129168 1_555
O2 P7 1.575591 1_555
O2 Ti1 2.129169 1_555
O3 Si3 1.621731 1_555
O4 Si0 1.621729 1_545
O5 P4 1.575594 1_545
O5 Ti2 2.129167 1_555
O6 P5 1.575600 1_565
O6 Ti3 2.129168 1_555
O7 Si1 1.621737 1_565
O8 P2 1.568012 1_555
O8 Ti3 1.930316 1_555
O9 P2 1.530595 1_555
O10 P3 1.530592 1_555
O11 P3 1.568008 1_555
O11 Ti2 1.930321 1_554
O12 P0 1.567999 1_545
O12 Ti1 1.930331 1_555
O13 P0 1.530591 1_445
O14 P1 1.530598 1_465
O15 P1 1.568021 1_565
O15 Ti0 1.930313 1_554
O16 P4 1.540756 1_555
O17 Si0 1.661097 1_555
O17 Ti0 1.973060 1_555
O18 Si1 1.661082 1_555
O18 Ti1 1.973068 1_555
O19 P5 1.540759 1_555
O20 P6 1.540750 1_555
O21 Si2 1.661092 1_555
O21 Ti2 1.973055 1_555
O22 Si3 1.661091 1_555
O22 Ti3 1.973057 1_555
O23 P7 1.540760 1_555
O24 P4 1.570563 1_555
O24 Ti3 2.115868 1_555
O25 Si0 1.593734 1_555
O26 Si1 1.593740 1_555
O27 P5 1.570569 1_555
O27 Ti2 2.115866 1_554
O28 P6 1.570561 1_555
O28 Ti1 2.115872 1_555
O29 Si2 1.593737 1_555
O30 Si3 1.593739 1_555
O31 P7 1.570569 1_555
O31 Ti0 2.115865 1_554
O32 P4 1.532368 1_555
O33 Si0 1.700030 1_555
O33 Ti3 1.916094 1_555
O34 Si1 1.700037 1_555
O34 Ti2 1.916089 1_554
O35 P5 1.532365 1_555
O36 P6 1.532362 1_555
O37 Si2 1.700032 1_555
O37 Ti1 1.916086 1_455
O38 Si3 1.700047 1_555
O38 Ti0 1.916078 1_454
O39 P7 1.532369 1_555
O40 P0 1.544998 1_455
O41 P0 1.555425 1_555
O41 Ti0 2.040256 1_555
O42 P1 1.555418 1_555
O42 Ti1 2.040255 1_555
O43 P1 1.545001 1_455
O44 P2 1.544995 1_555
O45 P2 1.555422 1_555
O45 Ti2 2.040254 1_555
O46 P3 1.555423 1_555
O46 Ti3 2.040252 1_555
O47 P3 1.544997 1_555
