# generated using pymatgen
data_MgFe6(OF)6
_symmetry_space_group_name_H-M   'P 1'
_cell_length_a   5.13613633
_cell_length_b   14.73274944
_cell_length_c   3.13556824
_cell_angle_alpha   89.23815207
_cell_angle_beta   89.99945408
_cell_angle_gamma   92.50102634
_symmetry_Int_Tables_number   1
_chemical_formula_structural   MgFe6(OF)6
_chemical_formula_sum   'Mg1 Fe6 O6 F6'
_cell_volume   237.01959149
_cell_formula_units_Z   1
loop_
 _symmetry_equiv_pos_site_id
 _symmetry_equiv_pos_as_xyz
  1  'x, y, z'
loop_
 _atom_site_type_symbol
 _atom_site_label
 _atom_site_symmetry_multiplicity
 _atom_site_fract_x
 _atom_site_fract_y
 _atom_site_fract_z
 _atom_site_occupancy
  Mg  Mg0  1  0.50388961  0.33918239  0.54190530  1
  Fe  Fe0  1  0.02796406  0.98574297  0.99227866  1
  Fe  Fe1  1  0.02221088  0.35973332  0.03893359  1
  Fe  Fe2  1  0.01022169  0.66967235  0.00140843  1
  Fe  Fe3  1  0.48259731  0.05379285  0.48794723  1
  Fe  Fe4  1  0.44308778  0.52696965  0.51625073  1
  Fe  Fe5  1  0.46571028  0.82031797  0.49590782  1
  O  O0  1  0.14455821  0.61226973  0.50616879  1
  O  O1  1  0.25990657  0.93712963  0.49438800  1
  O  O2  1  0.31116241  0.08899349  0.98602394  1
  O  O3  1  0.29289412  0.77077279  0.99959633  1
  O  O4  1  0.36626128  0.42658774  0.02802099  1
  O  O5  1  0.84043040  0.03530004  0.48905697  1
  F  F0  1  0.16517900  0.27605364  0.54303382  1
  F  F1  1  0.67310926  0.27751303  0.04861075  1
  F  F2  1  0.67024285  0.59434167  0.01035068  1
  F  F3  1  0.70759252  0.88654699  0.99520475  1
  F  F4  1  0.81813533  0.42443584  0.53375229  1
  F  F5  1  0.79484843  0.74334492  0.49949393  1
loop_
_geom_bond_atom_site_label_1
_geom_bond_atom_site_label_2
_geom_bond_distance
_geom_bond_site_symmetry_2
Mg0 O4 2.147756 1_556
Mg0 O4 2.185987 1_555
Fe0 O5 1.994688 1_466
Fe0 O5 1.995321 1_465
Fe0 O2 2.058186 1_565
Fe0 O1 2.110774 1_556
Fe0 O1 2.115074 1_555
Fe1 O4 1.985221 1_555
Fe2 O0 1.920536 1_554
Fe2 O0 1.926549 1_555
Fe2 O3 2.034085 1_554
Fe3 O5 1.869684 1_555
Fe3 O2 1.881308 1_554
Fe3 O2 1.882735 1_555
Fe3 O1 2.022447 1_545
Fe4 O0 2.024449 1_555
Fe4 O4 2.166962 1_555
Fe4 O4 2.191765 1_556
Fe5 O3 1.927734 1_554
Fe5 O3 1.930744 1_555
Fe5 O1 2.058539 1_555
F0 Mg0 1.936532 1_555
F0 Fe1 2.141194 1_555
F0 Fe1 2.146355 1_556
F1 Mg0 2.019802 1_555
F1 Mg0 2.033654 1_554
F1 Fe1 2.119594 1_655
F2 Fe2 2.027727 1_655
F2 Fe4 2.164841 1_554
F2 Fe4 2.172491 1_555
F3 Fe0 2.152489 1_655
F3 Fe5 2.194029 1_556
F3 Fe5 2.209383 1_555
F4 Mg0 2.001369 1_555
F4 Fe1 2.130983 1_655
F4 Fe1 2.136246 1_656
F4 Fe4 2.499462 1_555
F5 Fe5 2.076270 1_555
F5 Fe2 2.222148 1_656
F5 Fe2 2.233995 1_655
