# generated using pymatgen
data_CsScCl3
_symmetry_space_group_name_H-M   'P 1'
_cell_length_a   7.52482662
_cell_length_b   7.52482297
_cell_length_c   5.96927696
_cell_angle_alpha   89.99970901
_cell_angle_beta   90.00015791
_cell_angle_gamma   119.99977723
_symmetry_Int_Tables_number   1
_chemical_formula_structural   CsScCl3
_chemical_formula_sum   'Cs2 Sc2 Cl6'
_cell_volume   292.71577012
_cell_formula_units_Z   2
loop_
 _symmetry_equiv_pos_site_id
 _symmetry_equiv_pos_as_xyz
  1  'x, y, z'
loop_
 _atom_site_type_symbol
 _atom_site_label
 _atom_site_symmetry_multiplicity
 _atom_site_fract_x
 _atom_site_fract_y
 _atom_site_fract_z
 _atom_site_occupancy
  Cs  Cs0  1  0.66666637  0.33333369  0.25000072  1
  Cs  Cs1  1  0.33333356  0.66666668  0.75000018  1
  Sc  Sc0  1  0.00000071  0.00000144  0.00000004  1
  Sc  Sc1  1  0.00000008  0.00000005  0.49999958  1
  Cl  Cl0  1  0.16289982  0.32579954  0.25000077  1
  Cl  Cl1  1  0.67419979  0.83710014  0.25000008  1
  Cl  Cl2  1  0.16290005  0.83709987  0.25000036  1
  Cl  Cl3  1  0.83710035  0.16289955  0.75000067  1
  Cl  Cl4  1  0.83709983  0.67420002  0.74999921  1
  Cl  Cl5  1  0.32580045  0.16290002  0.74999938  1
loop_
_geom_bond_atom_site_label_1
_geom_bond_atom_site_label_2
_geom_bond_distance
_geom_bond_site_symmetry_2
Cl0 Sc1 2.595127 1_555
Cl0 Sc0 2.595137 1_555
Cl0 Cs1 3.720529 1_554
Cl0 Cs1 3.720539 1_555
Cl0 Cs0 3.762730 1_555
Cl0 Cs0 3.762737 1_455
Cl1 Sc1 2.595140 1_665
Cl1 Sc0 2.595145 1_665
Cl1 Cs1 3.720530 1_554
Cl1 Cs1 3.720532 1_555
Cl1 Cs0 3.762730 1_555
Cl1 Cs0 3.762734 1_565
Cl2 Sc0 2.595134 1_565
Cl2 Sc1 2.595137 1_565
Cl2 Cs1 3.720519 1_555
Cl2 Cs1 3.720537 1_554
Cl2 Cs0 3.762745 1_455
Cl2 Cs0 3.762746 1_565
Cl3 Sc0 2.595118 1_656
Cl3 Sc1 2.595139 1_655
Cl3 Cs0 3.720525 1_555
Cl3 Cs0 3.720542 1_556
Cl3 Cs1 3.762744 1_545
Cl3 Cs1 3.762747 1_655
Cl4 Sc1 2.595133 1_665
Cl4 Sc0 2.595155 1_666
Cl4 Cs0 3.720530 1_556
Cl4 Cs0 3.720531 1_555
Cl4 Cs1 3.762731 1_555
Cl4 Cs1 3.762736 1_655
Cl5 Sc1 2.595141 1_555
Cl5 Sc0 2.595141 1_556
Cl5 Cs0 3.720524 1_555
Cl5 Cs0 3.720536 1_556
Cl5 Cs1 3.762731 1_545
Cl5 Cs1 3.762733 1_555
