# generated using pymatgen
data_MgCd2(CoO3)2
_symmetry_space_group_name_H-M   'P 1'
_cell_length_a   5.92185965
_cell_length_b   5.91439742
_cell_length_c   5.92820366
_cell_angle_alpha   54.07198916
_cell_angle_beta   54.04158213
_cell_angle_gamma   54.12476562
_symmetry_Int_Tables_number   1
_chemical_formula_structural   MgCd2(CoO3)2
_chemical_formula_sum   'Mg1 Cd2 Co2 O6'
_cell_volume   126.51964227
_cell_formula_units_Z   1
loop_
 _symmetry_equiv_pos_site_id
 _symmetry_equiv_pos_as_xyz
  1  'x, y, z'
loop_
 _atom_site_type_symbol
 _atom_site_label
 _atom_site_symmetry_multiplicity
 _atom_site_fract_x
 _atom_site_fract_y
 _atom_site_fract_z
 _atom_site_occupancy
  Mg  Mg0  1  0.00000000  0.00000000  0.00000000  1
  Cd  Cd0  1  0.37666300  0.37679300  0.37684100  1
  Cd  Cd1  1  0.62333700  0.62320700  0.62315900  1
  Co  Co0  1  0.17699300  0.17632600  0.17628800  1
  Co  Co1  1  0.82300700  0.82367400  0.82371200  1
  O  O0  1  0.03033000  0.81829800  0.41342500  1
  O  O1  1  0.58541400  0.96970500  0.18265300  1
  O  O2  1  0.18230500  0.58534400  0.96988400  1
  O  O3  1  0.81769500  0.41465600  0.03011600  1
  O  O4  1  0.41458600  0.03029500  0.81734700  1
  O  O5  1  0.96967000  0.18170300  0.58657500  1
loop_
_geom_bond_atom_site_label_1
_geom_bond_atom_site_label_2
_geom_bond_distance
_geom_bond_site_symmetry_2
Mg0 O5 2.096122 1_454
Mg0 O0 2.096123 1_545
Mg0 O3 2.096708 1_455
Mg0 O2 2.096708 1_544
Mg0 O1 2.097154 1_445
Mg0 O4 2.097154 1_554
Cd0 O3 2.221934 1_555
Cd0 O0 2.222002 1_555
Cd0 O4 2.222301 1_555
Cd0 O5 2.596659 1_455
Cd0 O1 2.596788 1_545
Cd0 O2 2.602177 1_554
Cd1 O2 2.221934 1_555
Cd1 O5 2.221998 1_555
Cd1 O1 2.222301 1_555
Cd1 O0 2.596663 1_655
Cd1 O4 2.596788 1_565
Cd1 O3 2.602177 1_556
Co0 O2 1.980030 1_554
Co0 O1 1.983283 1_545
Co0 O5 1.990556 1_455
Co0 O0 2.107774 1_545
Co0 O4 2.114209 1_554
Co0 O3 2.116992 1_455
Co1 O3 1.980030 1_556
Co1 O4 1.983283 1_565
Co1 O0 1.990554 1_655
Co1 O5 2.107779 1_565
Co1 O1 2.114209 1_556
Co1 O2 2.116992 1_655
