# generated using pymatgen
data_Ba4UCr2S9
_symmetry_space_group_name_H-M   'P 1'
_cell_length_a   12.07909154
_cell_length_b   12.07909154
_cell_length_c   9.66305100
_cell_angle_alpha   90.00000000
_cell_angle_beta   90.00000000
_cell_angle_gamma   119.99999750
_symmetry_Int_Tables_number   1
_chemical_formula_structural   Ba4UCr2S9
_chemical_formula_sum   'Ba12 U3 Cr6 S27'
_cell_volume   1220.99380274
_cell_formula_units_Z   3
loop_
 _symmetry_equiv_pos_site_id
 _symmetry_equiv_pos_as_xyz
  1  'x, y, z'
loop_
 _atom_site_type_symbol
 _atom_site_label
 _atom_site_symmetry_multiplicity
 _atom_site_fract_x
 _atom_site_fract_y
 _atom_site_fract_z
 _atom_site_occupancy
  Ba  Ba0  1  0.95716500  0.29697900  0.75036400  1
  Ba  Ba1  1  0.00000000  0.68123200  0.00000000  1
  Ba  Ba2  1  0.68123200  0.00000000  0.00000000  1
  Ba  Ba3  1  0.29697900  0.95716500  0.24963600  1
  Ba  Ba4  1  0.70302100  0.66018600  0.75036400  1
  Ba  Ba5  1  0.66018600  0.70302100  0.24963600  1
  Ba  Ba6  1  0.37457100  0.37457100  0.50000000  1
  Ba  Ba7  1  0.04283500  0.33981400  0.24963600  1
  Ba  Ba8  1  0.31876800  0.31876800  0.00000000  1
  Ba  Ba9  1  0.33981400  0.04283500  0.75036400  1
  Ba  Ba10  1  0.62542900  0.00000000  0.50000000  1
  Ba  Ba11  1  0.00000000  0.62542900  0.50000000  1
  U  U0  1  0.33333300  0.66666700  0.74385700  1
  U  U1  1  0.66666700  0.33333300  0.25614300  1
  U  U2  1  0.00000000  0.00000000  0.50000000  1
  Cr  Cr0  1  0.33333300  0.66666700  0.39845700  1
  Cr  Cr1  1  0.66666700  0.33333300  0.60154300  1
  Cr  Cr2  1  0.00000000  0.00000000  0.15935700  1
  Cr  Cr3  1  0.33333300  0.66666700  0.08195300  1
  Cr  Cr4  1  0.66666700  0.33333300  0.91804700  1
  Cr  Cr5  1  0.00000000  0.00000000  0.84064300  1
  S  S0  1  0.50643500  0.68730000  0.55006700  1
  S  S1  1  0.31987000  0.82061800  0.93265600  1
  S  S2  1  0.64697500  0.16489100  0.76058100  1
  S  S3  1  0.68730000  0.50643500  0.44993300  1
  S  S4  1  0.84688700  0.84688700  0.00000000  1
  S  S5  1  0.68013000  0.50074800  0.06734400  1
  S  S6  1  0.31270000  0.81913500  0.55006700  1
  S  S7  1  0.15311300  0.00000000  0.00000000  1
  S  S8  1  0.17938200  0.49925200  0.93265600  1
  S  S9  1  0.82061800  0.31987000  0.06734400  1
  S  S10  1  0.18086500  0.49356500  0.55006700  1
  S  S11  1  0.48208500  0.83510900  0.23941900  1
  S  S12  1  0.49356500  0.18086500  0.44993300  1
  S  S13  1  0.16489100  0.64697500  0.23941900  1
  S  S14  1  0.83031000  0.98590400  0.68992800  1
  S  S15  1  0.49925200  0.17938200  0.06734400  1
  S  S16  1  0.00000000  0.15311300  0.00000000  1
  S  S17  1  0.01409600  0.84440700  0.68992800  1
  S  S18  1  0.50074800  0.68013000  0.93265600  1
  S  S19  1  0.35302500  0.51791500  0.23941900  1
  S  S20  1  0.16969000  0.15559300  0.31007200  1
  S  S21  1  0.84440700  0.01409600  0.31007200  1
  S  S22  1  0.15559300  0.16969000  0.68992800  1
  S  S23  1  0.51791500  0.35302500  0.76058100  1
  S  S24  1  0.83510900  0.48208500  0.76058100  1
  S  S25  1  0.98590400  0.83031000  0.31007200  1
  S  S26  1  0.81913500  0.31270000  0.44993300  1
loop_
_geom_bond_atom_site_label_1
_geom_bond_atom_site_label_2
_geom_bond_distance
_geom_bond_site_symmetry_2
Ba0 S8 3.117546 1_655
Ba0 S16 3.163166 1_656
Ba0 S10 3.204635 1_655
Ba0 S24 3.237151 1_555
Ba0 S2 3.258211 1_555
Ba0 S14 3.324186 1_545
Ba0 S26 3.400052 1_555
Ba0 S22 3.483543 1_655
Ba0 S9 3.554552 1_556
Ba1 S24 3.211655 1_454
Ba1 S13 3.211660 1_555
Ba1 S4 3.335429 1_455
Ba1 S7 3.335429 1_565
Ba1 S1 3.417813 1_554
Ba1 S5 3.417813 1_455
Ba1 S25 3.543399 1_455
Ba1 S17 3.543405 1_554
Ba1 S8 3.835772 1_554
Ba1 S9 3.835772 1_455
Ba2 S11 3.211655 1_545
Ba2 S2 3.211660 1_554
Ba2 S4 3.335429 1_545
Ba2 S16 3.335429 1_655
Ba2 S9 3.417813 1_555
Ba2 S18 3.417813 1_544
Ba2 S14 3.543399 1_544
Ba2 S21 3.543405 1_555
Ba2 S15 3.835772 1_555
Ba2 S1 3.835772 1_544
Ba3 S15 3.117546 1_565
Ba3 S7 3.163166 1_565
Ba3 S12 3.204635 1_565
Ba3 S11 3.237151 1_555
Ba3 S13 3.258211 1_555
Ba3 S25 3.324186 1_455
Ba3 S6 3.400052 1_555
Ba3 S20 3.483543 1_565
Ba3 S1 3.554552 1_554
Ba4 S18 3.117546 1_555
Ba4 S4 3.163166 1_556
Ba4 S0 3.204635 1_555
Ba4 S23 3.237142 1_555
Ba4 S24 3.258200 1_555
Ba4 S17 3.324187 1_655
Ba4 S3 3.400052 1_555
Ba4 S14 3.483554 1_555
Ba4 S5 3.554552 1_556
Ba5 S5 3.117546 1_555
Ba5 S4 3.163166 1_555
Ba5 S3 3.204635 1_555
Ba5 S19 3.237142 1_555
Ba5 S11 3.258200 1_555
Ba5 S21 3.324187 1_565
Ba5 S0 3.400052 1_555
Ba5 S25 3.483554 1_555
Ba5 S18 3.554552 1_554
Ba6 S23 3.139537 1_555
Ba6 S19 3.139537 1_555
Ba6 S22 3.153281 1_555
Ba6 S20 3.153281 1_555
Ba6 S0 3.320192 1_555
Ba6 S3 3.320192 1_555
Ba6 S10 3.337321 1_555
Ba6 S12 3.337321 1_555
Ba7 S9 3.117546 1_455
Ba7 S16 3.163166 1_555
Ba7 S26 3.204635 1_455
Ba7 S13 3.237140 1_555
Ba7 S19 3.258210 1_555
Ba7 S20 3.324196 1_555
Ba7 S10 3.400052 1_555
Ba7 S21 3.483553 1_455
Ba7 S8 3.554552 1_554
Ba8 S19 3.211652 1_555
Ba8 S23 3.211652 1_554
Ba8 S16 3.335429 1_555
Ba8 S7 3.335429 1_555
Ba8 S15 3.417813 1_555
Ba8 S8 3.417813 1_554
Ba8 S20 3.543403 1_555
Ba8 S22 3.543403 1_554
Ba8 S5 3.835772 1_555
Ba8 S18 3.835772 1_554
Ba9 S1 3.117546 1_545
Ba9 S7 3.163166 1_556
Ba9 S6 3.204635 1_545
Ba9 S2 3.237140 1_555
Ba9 S23 3.258210 1_555
Ba9 S22 3.324196 1_555
Ba9 S12 3.400052 1_555
Ba9 S17 3.483553 1_545
Ba9 S15 3.554552 1_556
Ba10 S11 3.139541 1_545
Ba10 S2 3.139544 1_555
Ba10 S14 3.153276 1_545
Ba10 S21 3.153286 1_555
Ba10 S12 3.320192 1_555
Ba10 S6 3.320192 1_545
Ba10 S0 3.337321 1_545
Ba10 S26 3.337321 1_555
Ba11 S24 3.139541 1_455
Ba11 S13 3.139544 1_555
Ba11 S25 3.153276 1_455
Ba11 S17 3.153286 1_555
Ba11 S10 3.320192 1_555
Ba11 S26 3.320192 1_455
Ba11 S3 3.337321 1_455
Ba11 S6 3.337321 1_555
Cr0 S6 2.461534 1_555
Cr0 S10 2.461539 1_555
Cr0 S0 2.461543 1_555
Cr0 S13 2.464560 1_555
Cr0 S11 2.464567 1_555
Cr0 S19 2.464578 1_555
Cr1 S26 2.461534 1_555
Cr1 S12 2.461539 1_555
Cr1 S3 2.461543 1_555
Cr1 S2 2.464560 1_555
Cr1 S24 2.464567 1_555
Cr1 S23 2.464578 1_555
Cr2 S16 2.406603 1_555
Cr2 S7 2.406603 1_555
Cr2 S4 2.406603 1_445
Cr2 S21 2.449944 1_455
Cr2 S20 2.449950 1_555
Cr2 S25 2.449954 1_445
Cr3 S1 2.422437 1_554
Cr3 S8 2.422443 1_554
Cr3 S18 2.422447 1_554
Cr3 S13 2.455116 1_555
Cr3 S11 2.455124 1_555
Cr3 S19 2.455135 1_555
Cr4 S9 2.422437 1_556
Cr4 S15 2.422443 1_556
Cr4 S5 2.422447 1_556
Cr4 S2 2.455116 1_555
Cr4 S24 2.455124 1_555
Cr4 S23 2.455135 1_555
Cr5 S16 2.406603 1_556
Cr5 S7 2.406603 1_556
Cr5 S4 2.406603 1_446
Cr5 S17 2.449944 1_545
Cr5 S22 2.449950 1_555
Cr5 S14 2.449954 1_445
S0 U0 2.723888 1_555
S1 U0 2.667445 1_555
S3 U1 2.723888 1_555
S5 U1 2.667454 1_555
S6 U0 2.723879 1_555
S8 U0 2.667450 1_555
S9 U1 2.667445 1_555
S10 U0 2.723885 1_555
S12 U1 2.723885 1_555
S14 U2 2.692496 1_665
S15 U1 2.667450 1_555
S17 U2 2.692487 1_565
S18 U0 2.667454 1_555
S20 U2 2.692492 1_555
S21 U2 2.692487 1_655
S22 U2 2.692492 1_555
S25 U2 2.692496 1_665
S26 U1 2.723879 1_555
