# generated using pymatgen
data_Sm2MgTi3(BiO6)2
_symmetry_space_group_name_H-M   'P 1'
_cell_length_a   3.89986618
_cell_length_b   3.89986428
_cell_length_c   18.38251938
_cell_angle_alpha   96.17055960
_cell_angle_beta   96.17090148
_cell_angle_gamma   89.99189794
_symmetry_Int_Tables_number   1
_chemical_formula_structural   Sm2MgTi3(BiO6)2
_chemical_formula_sum   'Sm2 Mg1 Ti3 Bi2 O12'
_cell_volume   276.33000403
_cell_formula_units_Z   1
loop_
 _symmetry_equiv_pos_site_id
 _symmetry_equiv_pos_as_xyz
  1  'x, y, z'
loop_
 _atom_site_type_symbol
 _atom_site_label
 _atom_site_symmetry_multiplicity
 _atom_site_fract_x
 _atom_site_fract_y
 _atom_site_fract_z
 _atom_site_occupancy
  Sm  Sm0  1  0.08435500  0.08435800  0.17205400  1
  Sm  Sm1  1  0.91567700  0.91567700  0.82802300  1
  Mg  Mg0  1  0.00001000  0.00000800  0.00002100  1
  Ti  Ti0  1  0.36366500  0.36366200  0.72614900  1
  Ti  Ti1  1  0.49999800  0.49999700  0.99999600  1
  Ti  Ti2  1  0.63629600  0.63629500  0.27374600  1
  Bi  Bi0  1  0.21553300  0.21553100  0.43191300  1
  Bi  Bi1  1  0.78443900  0.78443400  0.56806800  1
  O  O0  1  0.68495000  0.68495200  0.37029700  1
  O  O1  1  0.12078500  0.62058100  0.24283100  1
  O  O2  1  0.24999200  0.74999300  0.49998400  1
  O  O3  1  0.74999500  0.24999100  0.49998400  1
  O  O4  1  0.00000200  0.50000000  0.00000100  1
  O  O5  1  0.62058000  0.12078500  0.24283100  1
  O  O6  1  0.87923200  0.37944500  0.75720600  1
  O  O7  1  0.37944200  0.87923500  0.75720600  1
  O  O8  1  0.31502900  0.31503000  0.62965400  1
  O  O9  1  0.55756300  0.55756100  0.11397200  1
  O  O10  1  0.44246200  0.44246500  0.88606500  1
  O  O11  1  0.50000000  0.00000100  0.00000100  1
loop_
_geom_bond_atom_site_label_1
_geom_bond_atom_site_label_2
_geom_bond_distance
_geom_bond_site_symmetry_2
Mg0 O4 1.949924 1_545
Mg0 O11 1.949933 1_455
Mg0 O11 1.949934 1_555
Mg0 O4 1.949940 1_555
Bi0 O3 2.309002 1_555
Bi0 O2 2.309007 1_555
Bi0 O2 2.309152 1_545
Bi0 O3 2.309160 1_455
Bi1 O3 2.309049 1_555
Bi1 O2 2.309057 1_555
Bi1 O2 2.309357 1_655
Bi1 O3 2.309363 1_565
O0 Ti2 1.754227 1_555
O1 Ti2 2.028655 1_555
O1 Ti2 2.029787 1_455
O1 Sm0 2.334585 1_565
O1 Sm0 2.336982 1_555
O4 Ti1 1.949927 1_554
O4 Ti1 1.949939 1_454
O5 Ti2 2.028653 1_555
O5 Ti2 2.029786 1_545
O5 Sm0 2.334586 1_655
O5 Sm0 2.336983 1_555
O6 Ti0 2.029311 1_555
O6 Ti0 2.030562 1_655
O6 Sm1 2.335022 1_545
O6 Sm1 2.337346 1_555
O7 Ti0 2.029336 1_555
O7 Ti0 2.030535 1_565
O7 Sm1 2.335019 1_455
O7 Sm1 2.337350 1_555
O8 Ti0 1.753209 1_555
O9 Ti1 2.070820 1_554
O10 Ti1 2.070002 1_555
O11 Ti1 1.949926 1_554
O11 Ti1 1.949938 1_544
