# generated using pymatgen
data_Na6Ca4La4SiS11O48
_symmetry_space_group_name_H-M   'P 1'
_cell_length_a   18.71144780
_cell_length_b   9.36198329
_cell_length_c   24.76072879
_cell_angle_alpha   89.99041079
_cell_angle_beta   89.97024771
_cell_angle_gamma   119.97897881
_symmetry_Int_Tables_number   1
_chemical_formula_structural   Na6Ca4La4SiS11O48
_chemical_formula_sum   'Na18 Ca12 La12 Si3 S33 O144'
_cell_volume   3757.17265037
_cell_formula_units_Z   3
loop_
 _symmetry_equiv_pos_site_id
 _symmetry_equiv_pos_as_xyz
  1  'x, y, z'
loop_
 _atom_site_type_symbol
 _atom_site_label
 _atom_site_symmetry_multiplicity
 _atom_site_fract_x
 _atom_site_fract_y
 _atom_site_fract_z
 _atom_site_occupancy
  Na  Na0  1  0.81975072  0.99236353  0.24499552  1
  Na  Na1  1  0.99237222  0.63577197  0.25585233  1
  Na  Na2  1  0.31745122  0.65386265  0.74885052  1
  Na  Na3  1  0.81676659  0.65423867  0.74397767  1
  Na  Na4  1  0.98842860  0.34791104  0.75175529  1
  Na  Na5  1  0.69282269  0.00244667  0.74786337  1
  Na  Na6  1  0.99676105  0.99709764  0.49773610  1
  Na  Na7  1  0.50575270  0.00382181  0.49013067  1
  Na  Na8  1  0.00352791  0.00365789  0.00200806  1
  Na  Na9  1  0.50099174  0.00052050  0.00160100  1
  Na  Na10  1  0.33492330  0.29357975  0.83905275  1
  Na  Na11  1  0.83416640  0.31101205  0.83728943  1
  Na  Na12  1  0.33494576  0.33619118  0.32534478  1
  Na  Na13  1  0.82425496  0.35907306  0.33550918  1
  Na  Na14  1  0.18039855  0.67134099  0.17244911  1
  Na  Na15  1  0.66735508  0.64759147  0.17338470  1
  Na  Na16  1  0.17777071  0.70285669  0.66484990  1
  Na  Na17  1  0.67515375  0.68100293  0.65989938  1
  Ca  Ca0  1  0.49922204  0.99956999  0.34994621  1
  Ca  Ca1  1  0.83345046  0.32604045  0.67489136  1
  Ca  Ca2  1  0.33336941  0.33519280  0.18298633  1
  Ca  Ca3  1  0.82888658  0.34195394  0.18214619  1
  Ca  Ca4  1  0.33343934  0.33420065  0.98423292  1
  Ca  Ca5  1  0.83286338  0.33294547  0.98370011  1
  Ca  Ca6  1  0.83391628  0.33275790  0.48448891  1
  Ca  Ca7  1  0.16659161  0.66484100  0.51442542  1
  Ca  Ca8  1  0.66914578  0.67017005  0.51454351  1
  Ca  Ca9  1  0.17104140  0.67001881  0.32077127  1
  Ca  Ca10  1  0.17020545  0.68285873  0.81955848  1
  Ca  Ca11  1  0.66670904  0.66615397  0.82062681  1
  La  La0  1  0.99853022  0.99321427  0.35163362  1
  La  La1  1  0.99652502  0.00105187  0.85059214  1
  La  La2  1  0.49607857  0.01078301  0.85123592  1
  La  La3  1  0.99275286  0.99660067  0.64781909  1
  La  La4  1  0.49660319  0.00446711  0.64787154  1
  La  La5  1  0.99866390  0.99831416  0.14956408  1
  La  La6  1  0.49834466  0.99557037  0.15096075  1
  La  La7  1  0.33394066  0.31155865  0.68301331  1
  La  La8  1  0.33223833  0.33141329  0.48013532  1
  La  La9  1  0.16784861  0.66825201  0.01775071  1
  La  La10  1  0.66756280  0.67143221  0.01819722  1
  La  La11  1  0.66690899  0.65316562  0.31947229  1
  Si  Si0  1  0.84940802  0.69780963  0.24931849  1
  Si  Si1  1  0.34293375  0.98812219  0.75050466  1
  Si  Si2  1  0.84534654  0.00004193  0.75073861  1
  S  S0  1  0.15323995  0.99544800  0.25013422  1
  S  S1  1  0.65283033  0.00283387  0.25135061  1
  S  S2  1  0.34798113  0.69465583  0.25203794  1
  S  S3  1  0.99982288  0.30922936  0.24957446  1
  S  S4  1  0.49523530  0.29565422  0.25076200  1
  S  S5  1  0.15085130  0.31036589  0.75088118  1
  S  S6  1  0.65656494  0.30830665  0.74947136  1
  S  S7  1  0.99735449  0.68904000  0.74926377  1
  S  S8  1  0.50198938  0.70261780  0.75118710  1
  S  S9  1  0.49035611  0.34498829  0.58037674  1
  S  S10  1  0.98684255  0.34359423  0.58331433  1
  S  S11  1  0.17967272  0.02042123  0.58113993  1
  S  S12  1  0.68355132  0.02688604  0.58387907  1
  S  S13  1  0.32924156  0.63133244  0.58485887  1
  S  S14  1  0.82888408  0.62683629  0.58381817  1
  S  S15  1  0.47958226  0.62720928  0.08317099  1
  S  S16  1  0.98080474  0.62663071  0.08365939  1
  S  S17  1  0.33398831  0.04144247  0.08349192  1
  S  S18  1  0.83361433  0.04108586  0.08457380  1
  S  S19  1  0.18710430  0.33399833  0.08288963  1
  S  S20  1  0.68321671  0.32981818  0.08182682  1
  S  S21  1  0.31605629  0.65628221  0.91473979  1
  S  S22  1  0.81571306  0.65593885  0.91510984  1
  S  S23  1  0.01409913  0.37010798  0.91447680  1
  S  S24  1  0.51414545  0.37193585  0.91755509  1
  S  S25  1  0.16972568  0.97559902  0.91739131  1
  S  S26  1  0.66998791  0.97455422  0.91438998  1
  S  S27  1  0.31779270  0.96165399  0.41684630  1
  S  S28  1  0.81646413  0.97360101  0.41749663  1
  S  S29  1  0.16615423  0.37116823  0.41709372  1
  S  S30  1  0.66541736  0.35613114  0.42030437  1
  S  S31  1  0.01643160  0.65917939  0.41599417  1
  S  S32  1  0.51798106  0.67534106  0.41788910  1
  O  O0  1  0.11368257  0.01851869  0.29895021  1
  O  O1  1  0.61038687  0.01739592  0.29900617  1
  O  O2  1  0.39837978  0.78302486  0.29929914  1
  O  O3  1  0.90745478  0.79520093  0.30198518  1
  O  O4  1  0.49235068  0.20178364  0.29913427  1
  O  O5  1  0.99197825  0.20782340  0.29771729  1
  O  O6  1  0.11513066  0.20544813  0.79943653  1
  O  O7  1  0.61713746  0.20200053  0.79776431  1
  O  O8  1  0.49171545  0.78563239  0.79933436  1
  O  O9  1  0.98901573  0.77356251  0.79798229  1
  O  O10  1  0.39865658  0.00637005  0.80419766  1
  O  O11  1  0.90749628  0.03206191  0.80265679  1
  O  O12  1  0.39432978  0.97694813  0.69771481  1
  O  O13  1  0.89128588  0.96614982  0.69910740  1
  O  O14  1  0.10263311  0.22264240  0.70209258  1
  O  O15  1  0.60584897  0.22813327  0.70094047  1
  O  O16  1  0.01235889  0.79427486  0.70099669  1
  O  O17  1  0.51560464  0.80658943  0.70237403  1
  O  O18  1  0.38893908  0.79128834  0.20146114  1
  O  O19  1  0.89498486  0.81981248  0.19701581  1
  O  O20  1  0.01464634  0.23551767  0.20069603  1
  O  O21  1  0.50246838  0.21257266  0.20093903  1
  O  O22  1  0.10137344  0.97721317  0.20176769  1
  O  O23  1  0.60564919  0.99006082  0.20107201  1
  O  O24  1  0.44944155  0.35292729  0.63138544  1
  O  O25  1  0.95011624  0.35054532  0.63640213  1
  O  O26  1  0.22605268  0.10289305  0.63168740  1
  O  O27  1  0.72463840  0.10026144  0.63687823  1
  O  O28  1  0.32641398  0.54666925  0.63692731  1
  O  O29  1  0.82659668  0.54772288  0.63693382  1
  O  O30  1  0.43870077  0.53600299  0.13260206  1
  O  O31  1  0.94261055  0.54245146  0.13502855  1
  O  O32  1  0.32941966  0.12453221  0.13254016  1
  O  O33  1  0.83027144  0.11639068  0.13645543  1
  O  O34  1  0.23194498  0.34151594  0.13258845  1
  O  O35  1  0.72839898  0.34077959  0.13171507  1
  O  O36  1  0.22949431  0.32748034  0.03368613  1
  O  O37  1  0.72527429  0.32094956  0.03295956  1
  O  O38  1  0.43385565  0.54538029  0.03380649  1
  O  O39  1  0.93193072  0.53611838  0.03620216  1
  O  O40  1  0.33831241  0.13133247  0.03373655  1
  O  O41  1  0.83464146  0.13713561  0.03735372  1
  O  O42  1  0.22512645  0.12382118  0.53390332  1
  O  O43  1  0.73058604  0.13329456  0.53836200  1
  O  O44  1  0.33323762  0.53328042  0.53879520  1
  O  O45  1  0.83338553  0.53187183  0.53829621  1
  O  O46  1  0.43769427  0.33127649  0.53368209  1
  O  O47  1  0.93303953  0.32924189  0.53810095  1
  O  O48  1  0.27042105  0.67061266  0.96218005  1
  O  O49  1  0.76954971  0.66894691  0.96225641  1
  O  O50  1  0.06531423  0.46436230  0.96177680  1
  O  O51  1  0.56275854  0.46213558  0.96608405  1
  O  O52  1  0.16331342  0.87581090  0.96615572  1
  O  O53  1  0.66442052  0.87095612  0.96190854  1
  O  O54  1  0.27565827  0.86889067  0.46604975  1
  O  O55  1  0.76954619  0.86563769  0.46283299  1
  O  O56  1  0.16361663  0.45611173  0.46618221  1
  O  O57  1  0.65818965  0.44670351  0.46667903  1
  O  O58  1  0.06791033  0.66838482  0.46225342  1
  O  O59  1  0.56581128  0.68263887  0.46595128  1
  O  O60  1  0.05512606  0.65457776  0.36359884  1
  O  O61  1  0.55761425  0.65913596  0.36767800  1
  O  O62  1  0.26928138  0.88203823  0.36759518  1
  O  O63  1  0.77464121  0.89697621  0.36476670  1
  O  O64  1  0.17000770  0.46163302  0.36730071  1
  O  O65  1  0.67402295  0.45072850  0.36902486  1
  O  O66  1  0.05410903  0.45488187  0.86330220  1
  O  O67  1  0.55682014  0.45968898  0.86776554  1
  O  O68  1  0.17361396  0.89142750  0.86797942  1
  O  O69  1  0.67332172  0.89378634  0.86355499  1
  O  O70  1  0.27221883  0.64930569  0.86403911  1
  O  O71  1  0.77293747  0.65003634  0.86402995  1
  O  O72  1  0.00920204  0.81305926  0.41734974  1
  O  O73  1  0.50907702  0.82387762  0.41499958  1
  O  O74  1  0.40154363  0.98126992  0.41379351  1
  O  O75  1  0.90073880  0.99023068  0.41755120  1
  O  O76  1  0.09177804  0.20233910  0.41667898  1
  O  O77  1  0.58977725  0.19120933  0.41617411  1
  O  O78  1  0.00723624  0.20336784  0.91696790  1
  O  O79  1  0.50734490  0.20515603  0.91957223  1
  O  O80  1  0.09416734  0.99219828  0.91704397  1
  O  O81  1  0.59469316  0.99122805  0.91567617  1
  O  O82  1  0.40027788  0.80748571  0.91588568  1
  O  O83  1  0.89983649  0.80696409  0.91636642  1
  O  O84  1  0.49761559  0.19333472  0.58091980  1
  O  O85  1  0.99570804  0.19133155  0.58313725  1
  O  O86  1  0.09694258  0.00630710  0.58258180  1
  O  O87  1  0.59918492  0.00943321  0.58404389  1
  O  O88  1  0.40591808  0.79653189  0.58289607  1
  O  O89  1  0.90552950  0.79556608  0.58219120  1
  O  O90  1  0.48973426  0.79762160  0.08459743  1
  O  O91  1  0.99139442  0.79676156  0.08268747  1
  O  O92  1  0.40875531  0.02021032  0.08502563  1
  O  O93  1  0.90908004  0.02367744  0.08214535  1
  O  O94  1  0.10218654  0.18527530  0.08299519  1
  O  O95  1  0.59837907  0.17977734  0.08352342  1
  O  O96  1  0.33164651  0.15215751  0.74855483  1
  O  O97  1  0.83854285  0.16760057  0.74517272  1
  O  O98  1  0.23907003  0.35252857  0.74554017  1
  O  O99  1  0.74016147  0.32590739  0.74375018  1
  O  O100  1  0.42347158  0.54172618  0.74544290  1
  O  O101  1  0.91785025  0.52926945  0.74370300  1
  O  O102  1  0.34027214  0.52868603  0.24822249  1
  O  O103  1  0.84748201  0.52267685  0.24649521  1
  O  O104  1  0.42032567  0.31135817  0.24766147  1
  O  O105  1  0.92032898  0.30982250  0.24409553  1
  O  O106  1  0.23715105  0.13835932  0.24466977  1
  O  O107  1  0.73856977  0.14639161  0.24759283  1
  O  O108  1  0.32358182  0.50727550  0.91939451  1
  O  O109  1  0.82332594  0.50672095  0.91942595  1
  O  O110  1  0.43073410  0.35274224  0.91939316  1
  O  O111  1  0.93081278  0.35189539  0.91808364  1
  O  O112  1  0.24483271  0.14036228  0.92032707  1
  O  O113  1  0.74541918  0.13895679  0.91812166  1
  O  O114  1  0.32696399  0.13167269  0.41922462  1
  O  O115  1  0.82447271  0.13800925  0.42110773  1
  O  O116  1  0.24140250  0.35182067  0.41743819  1
  O  O117  1  0.74037652  0.34042907  0.42324707  1
  O  O118  1  0.43342471  0.52425301  0.41976453  1
  O  O119  1  0.93254361  0.51223142  0.41907650  1
  O  O120  1  0.17772703  0.48506199  0.08197695  1
  O  O121  1  0.67304119  0.47950433  0.08018359  1
  O  O122  1  0.06529638  0.64500943  0.08103610  1
  O  O123  1  0.56475238  0.64842649  0.08152832  1
  O  O124  1  0.25906772  0.87089889  0.08242146  1
  O  O125  1  0.75904484  0.87071808  0.08237335  1
  O  O126  1  0.17273214  0.85640755  0.57860218  1
  O  O127  1  0.67509646  0.86035833  0.58015615  1
  O  O128  1  0.25517024  0.64914139  0.58116258  1
  O  O129  1  0.75503159  0.64709641  0.58083680  1
  O  O130  1  0.06982030  0.49159523  0.57904586  1
  O  O131  1  0.57225642  0.49374210  0.57754810  1
  O  O132  1  0.15371314  0.83646246  0.25454691  1
  O  O133  1  0.66127803  0.85113568  0.25351940  1
  O  O134  1  0.26439530  0.67823426  0.25397532  1
  O  O135  1  0.75962676  0.69229903  0.25324656  1
  O  O136  1  0.06863546  0.48270394  0.25529656  1
  O  O137  1  0.57054109  0.46434027  0.25125379  1
  O  O138  1  0.14876735  0.46649924  0.75621170  1
  O  O139  1  0.66651564  0.47510657  0.75604010  1
  O  O140  1  0.06556393  0.65254075  0.75553065  1
  O  O141  1  0.57435401  0.68025001  0.75704474  1
  O  O142  1  0.25557945  0.81448785  0.75121893  1
  O  O143  1  0.75409464  0.83427378  0.75569367  1
loop_
_geom_bond_atom_site_label_1
_geom_bond_atom_site_label_2
_geom_bond_distance
_geom_bond_site_symmetry_2
Na0 O135 2.457679 1_555
Na0 O107 2.565130 1_565
Na0 O133 2.581973 1_555
Na0 O105 2.604908 1_565
Na0 O19 2.876498 1_555
Na0 O33 2.894788 1_565
Na1 O103 2.378418 1_555
Na1 O136 2.476621 1_655
Na1 O132 2.641288 1_655
Na1 O105 2.665247 1_555
Na1 O60 2.885166 1_655
Na1 O3 2.902764 1_555
Na2 O142 2.311891 1_555
Na2 O98 2.445728 1_555
Na2 O100 2.669427 1_555
Na2 O138 2.745679 1_555
Na2 O12 2.910310 1_555
Na2 O70 2.968888 1_555
Na2 O28 2.980599 1_555
Na3 O139 2.468362 1_555
Na3 O143 2.505054 1_555
Na3 O99 2.664563 1_555
Na3 O101 2.675406 1_555
Na3 O13 2.762941 1_555
Na3 O29 2.870015 1_555
Na4 O97 2.451746 1_555
Na4 O140 2.472256 1_655
Na4 O101 2.628224 1_555
Na4 O138 2.630102 1_655
Na4 O11 2.854326 1_555
Na4 O25 2.948277 1_555
Na4 O66 2.986020 1_655
Na5 O97 2.369859 1_555
Na5 O143 2.373796 1_545
Na5 O99 2.698952 1_555
Na5 O141 2.716833 1_545
Na5 O27 2.863134 1_555
Na6 O75 2.657553 1_555
Na6 O72 2.717736 1_655
Na6 O76 2.731694 1_665
Na6 O89 2.760994 1_555
Na6 O86 2.788818 1_665
Na6 O85 2.795636 1_565
Na7 O77 2.478383 1_555
Na7 O73 2.531449 1_545
Na7 O74 2.648009 1_545
Na7 O87 2.894637 1_555
Na7 O84 2.914704 1_555
Na7 O88 2.983752 1_545
Na8 O94 2.681097 1_555
Na8 O91 2.711613 1_445
Na8 O93 2.724536 1_455
Na8 O80 2.737148 1_544
Na8 O78 2.793419 1_554
Na8 O83 2.843789 1_444
Na9 O95 2.683362 1_555
Na9 O90 2.733902 1_545
Na9 O79 2.753286 1_554
Na9 O92 2.755708 1_555
Na9 O81 2.785090 1_544
Na9 O82 2.814907 1_544
Na10 O110 2.547501 1_555
Na10 O112 2.555003 1_555
Na10 O96 2.588027 1_555
Na10 O108 2.903460 1_555
Na11 O113 2.584638 1_555
Na11 O111 2.594450 1_555
Na11 O97 2.668788 1_555
Na11 O109 2.811868 1_555
Na11 O99 2.954148 1_555
Na11 O101 2.965455 1_555
Na12 O104 2.583465 1_555
Na12 O102 2.592945 1_555
Na12 O106 2.717921 1_555
Na12 O116 2.921772 1_555
Na12 O118 2.953763 1_555
Na12 O114 2.967188 1_555
Na13 O103 2.593322 1_555
Na13 O117 2.633605 1_555
Na13 O119 2.746814 1_555
Na13 O107 2.844053 1_555
Na13 O115 2.963514 1_555
Na13 O105 3.064642 1_555
Na14 O134 2.539946 1_555
Na14 O132 2.746396 1_555
Na14 O124 2.805916 1_555
Na14 O120 2.824258 1_555
Na14 O136 2.829086 1_555
Na14 O122 3.049130 1_555
Na15 O135 2.519526 1_555
Na15 O137 2.613780 1_555
Na15 O133 2.792626 1_555
Na15 O121 2.825158 1_555
Na15 O125 2.966165 1_555
Na15 O123 2.979669 1_555
Na16 O142 2.503742 1_555
Na16 O126 2.602045 1_555
Na16 O128 2.714637 1_555
Na16 O130 2.918733 1_555
Na16 O140 2.945819 1_555
Na16 O138 3.017502 1_555
Na17 O129 2.576505 1_555
Na17 O127 2.592064 1_555
Na17 O131 2.751423 1_555
Na17 O143 2.784511 1_555
Ca0 O2 2.328823 1_555
Ca0 O4 2.329372 1_565
Ca0 O74 2.356501 1_555
Ca0 O1 2.365519 1_565
Ca0 O73 2.374148 1_555
Ca0 O77 2.396842 1_565
Ca1 O27 2.280568 1_555
Ca1 O25 2.285516 1_555
Ca1 O97 2.319096 1_555
Ca1 O29 2.339331 1_555
Ca1 O99 2.439009 1_555
Ca1 O101 2.453181 1_555
Ca2 O30 2.295414 1_555
Ca2 O34 2.297188 1_555
Ca2 O32 2.304453 1_555
Ca2 O104 2.372148 1_555
Ca2 O106 2.377077 1_555
Ca2 O102 2.382162 1_555
Ca3 O103 2.221604 1_555
Ca3 O35 2.253130 1_555
Ca3 O31 2.327561 1_555
Ca3 O107 2.395430 1_555
Ca3 O33 2.407365 1_555
Ca3 O105 2.426500 1_555
Ca4 O36 2.271880 1_556
Ca4 O38 2.288376 1_556
Ca4 O40 2.300069 1_556
Ca4 O108 2.352667 1_555
Ca4 O112 2.354301 1_555
Ca4 O110 2.367080 1_555
Ca5 O41 2.277436 1_556
Ca5 O39 2.285563 1_556
Ca5 O37 2.307489 1_556
Ca5 O109 2.345414 1_555
Ca5 O113 2.376169 1_555
Ca5 O111 2.387906 1_555
Ca6 O47 2.294969 1_555
Ca6 O45 2.295503 1_555
Ca6 O43 2.322289 1_555
Ca6 O117 2.344434 1_555
Ca6 O115 2.344694 1_555
Ca6 O119 2.397779 1_555
Ca7 O56 2.267321 1_555
Ca7 O58 2.267824 1_555
Ca7 O54 2.312902 1_555
Ca7 O130 2.351736 1_555
Ca7 O126 2.355838 1_555
Ca7 O128 2.396985 1_555
Ca8 O55 2.253555 1_555
Ca8 O57 2.322915 1_555
Ca8 O59 2.329757 1_555
Ca8 O131 2.335012 1_555
Ca8 O127 2.371735 1_555
Ca8 O129 2.381856 1_555
Ca9 O62 2.240475 1_555
Ca9 O64 2.257268 1_555
Ca9 O60 2.352439 1_555
Ca9 O134 2.378090 1_555
Ca9 O132 2.393050 1_555
Ca9 O136 2.453830 1_555
Ca10 O142 2.227778 1_555
Ca10 O68 2.265092 1_555
Ca10 O70 2.357238 1_555
Ca10 O66 2.410556 1_555
Ca10 O140 2.423984 1_555
Ca10 O138 2.431814 1_555
Ca11 O143 2.271641 1_555
Ca11 O67 2.313274 1_555
Ca11 O69 2.328961 1_555
Ca11 O71 2.330352 1_555
Ca11 O141 2.390175 1_555
Ca11 O139 2.398129 1_555
La0 O3 2.167430 1_555
La0 O72 2.422443 1_655
La0 O0 2.426364 1_665
La0 O75 2.441064 1_555
La0 O76 2.462006 1_665
La0 O5 2.465656 1_565
La1 O11 2.180225 1_555
La1 O83 2.436774 1_545
La1 O6 2.437942 1_655
La1 O78 2.439435 1_655
La1 O9 2.440197 1_545
La1 O80 2.491315 1_645
La2 O10 2.146668 1_555
La2 O79 2.415967 1_555
La2 O8 2.435220 1_545
La2 O82 2.446352 1_545
La2 O7 2.456085 1_555
La2 O81 2.514918 1_545
La3 O13 2.180627 1_555
La3 O89 2.404276 1_555
La3 O85 2.406209 1_565
La3 O16 2.479985 1_655
La3 O14 2.483362 1_665
La3 O86 2.497573 1_665
La4 O12 2.180923 1_545
La4 O84 2.416719 1_555
La4 O88 2.441311 1_545
La4 O15 2.452740 1_555
La4 O17 2.457108 1_545
La4 O87 2.468163 1_555
La5 O19 2.166511 1_555
La5 O22 2.405251 1_655
La5 O20 2.441616 1_665
La5 O93 2.460367 1_565
La5 O91 2.462893 1_555
La5 O94 2.477923 1_665
La6 O18 2.344322 1_555
La6 O21 2.347110 1_565
La6 O23 2.383200 1_555
La6 O90 2.421428 1_555
La6 O92 2.432675 1_565
La6 O95 2.456771 1_565
La7 O96 2.190341 1_555
La7 O26 2.359876 1_555
La7 O24 2.369679 1_555
La7 O100 2.497092 1_555
La7 O98 2.524497 1_555
La7 O28 2.544792 1_555
La8 O114 2.365975 1_555
La8 O44 2.376396 1_555
La8 O46 2.378401 1_555
La8 O118 2.378811 1_555
La8 O116 2.379616 1_555
La8 O42 2.381203 1_555
La9 O48 2.352078 1_554
La9 O52 2.362041 1_554
La9 O50 2.364133 1_554
La9 O122 2.400932 1_555
La9 O120 2.412608 1_555
La9 O124 2.417533 1_555
La10 O51 2.348078 1_554
La10 O53 2.354605 1_554
La10 O49 2.366955 1_554
La10 O125 2.397555 1_555
La10 O121 2.403768 1_555
La10 O123 2.405999 1_555
La11 O135 2.279172 1_555
La11 O65 2.316567 1_555
La11 O61 2.392035 1_555
La11 O63 2.436454 1_555
La11 O137 2.459322 1_555
La11 O133 2.511436 1_555
O0 S0 1.488099 1_545
O1 S1 1.465932 1_555
O2 S2 1.471379 1_555
O3 Si0 1.650395 1_555
O4 S4 1.470363 1_555
O5 S3 1.484586 1_555
O6 S5 1.483121 1_555
O7 S6 1.493167 1_555
O8 S8 1.487144 1_555
O9 S7 1.493045 1_555
O10 Si1 1.645397 1_545
O11 Si2 1.657744 1_555
O12 Si1 1.656391 1_555
O13 Si2 1.656960 1_565
O14 S5 1.486212 1_555
O15 S6 1.482418 1_555
O16 S7 1.483448 1_455
O17 S8 1.491531 1_555
O18 S2 1.509906 1_555
O19 Si0 1.653465 1_555
O20 S3 1.486309 1_455
O21 S4 1.500184 1_555
O22 S0 1.496975 1_555
O23 S1 1.496408 1_565
O24 S9 1.497570 1_555
O25 S10 1.499385 1_555
O26 S11 1.499194 1_555
O27 S12 1.502874 1_555
O28 S13 1.500296 1_555
O29 S14 1.499349 1_555
O30 S15 1.469089 1_555
O31 S16 1.478348 1_555
O32 S17 1.467656 1_555
O33 S18 1.481721 1_555
O34 S19 1.471511 1_555
O35 S20 1.471594 1_555
O36 S19 1.471237 1_555
O37 S20 1.467860 1_555
O38 S15 1.469462 1_555
O39 S16 1.470435 1_555
O40 S17 1.471063 1_555
O41 S18 1.469132 1_555
O42 S11 1.484665 1_555
O43 S12 1.469551 1_555
O44 S13 1.489295 1_555
O45 S14 1.463923 1_555
O46 S9 1.482921 1_555
O47 S10 1.466600 1_555
O48 S21 1.496817 1_555
O49 S22 1.492602 1_555
O50 S23 1.491676 1_555
O51 S24 1.489366 1_555
O52 S25 1.494163 1_555
O53 S26 1.494797 1_555
O54 S27 1.474605 1_555
O55 S28 1.471154 1_555
O56 S29 1.466294 1_555
O57 S30 1.473289 1_555
O58 S31 1.471547 1_555
O59 S32 1.470340 1_555
O60 S31 1.496462 1_555
O61 S32 1.493394 1_555
O62 S27 1.480535 1_555
O63 S28 1.507329 1_555
O64 S29 1.476851 1_555
O65 S30 1.509745 1_555
O66 S23 1.483522 1_555
O67 S24 1.474941 1_555
O68 S25 1.476710 1_555
O69 S26 1.485726 1_555
O70 S21 1.483457 1_555
O71 S22 1.483312 1_555
O72 S31 1.513137 1_555
O73 S32 1.482617 1_555
O74 S27 1.485770 1_555
O75 S28 1.505162 1_555
O76 S29 1.495616 1_555
O77 S30 1.487910 1_555
O78 S23 1.502233 1_555
O79 S24 1.502676 1_555
O80 S25 1.497549 1_555
O81 S26 1.493334 1_555
O82 S21 1.502928 1_555
O83 S22 1.501225 1_555
O84 S9 1.492358 1_555
O85 S10 1.515207 1_555
O86 S11 1.486797 1_555
O87 S12 1.503652 1_555
O88 S13 1.495036 1_555
O89 S14 1.513141 1_555
O90 S15 1.509895 1_555
O91 S16 1.503766 1_555
O92 S17 1.508679 1_555
O93 S18 1.501343 1_555
O94 S19 1.500799 1_555
O95 S20 1.505434 1_555
O96 Si1 1.652095 1_545
O97 Si2 1.641793 1_555
O98 S5 1.498901 1_555
O99 S6 1.495379 1_555
O100 S8 1.495418 1_555
O101 S7 1.498628 1_555
O102 S2 1.490007 1_555
O103 Si0 1.623401 1_555
O104 S4 1.482643 1_555
O105 S3 1.496461 1_555
O106 S0 1.474431 1_545
O107 S1 1.494579 1_555
O108 S21 1.474925 1_555
O109 S22 1.477190 1_555
O110 S24 1.479845 1_555
O111 S23 1.483235 1_655
O112 S25 1.481013 1_545
O113 S26 1.482831 1_545
O114 S27 1.514440 1_545
O115 S28 1.472788 1_545
O116 S29 1.506732 1_555
O117 S30 1.483356 1_555
O118 S32 1.506505 1_555
O119 S31 1.484614 1_655
O120 S19 1.509768 1_555
O121 S20 1.506105 1_555
O122 S16 1.503763 1_455
O123 S15 1.504801 1_555
O124 S17 1.509428 1_565
O125 S18 1.506600 1_565
O126 S11 1.476248 1_565
O127 S12 1.489186 1_565
O128 S13 1.479250 1_555
O129 S14 1.487643 1_555
O130 S10 1.480381 1_455
O131 S9 1.469640 1_555
O132 S0 1.496839 1_555
O133 S1 1.506371 1_565
O134 S2 1.493885 1_555
O135 Si0 1.657566 1_555
O136 S3 1.491982 1_455
O137 S4 1.501935 1_555
O138 S5 1.487475 1_555
O139 S6 1.486336 1_555
O140 S7 1.485195 1_455
O141 S8 1.477123 1_555
O142 Si1 1.630664 1_555
O143 Si2 1.640268 1_565
