# generated using pymatgen
data_TbInAu
_symmetry_space_group_name_H-M   'P 1'
_cell_length_a   7.68428032
_cell_length_b   7.68428032
_cell_length_c   4.02879601
_cell_angle_alpha   90.00000000
_cell_angle_beta   90.00000000
_cell_angle_gamma   119.99999401
_symmetry_Int_Tables_number   1
_chemical_formula_structural   TbInAu
_chemical_formula_sum   'Tb3 In3 Au3'
_cell_volume   206.02140069
_cell_formula_units_Z   3
loop_
 _symmetry_equiv_pos_site_id
 _symmetry_equiv_pos_as_xyz
  1  'x, y, z'
loop_
 _atom_site_type_symbol
 _atom_site_label
 _atom_site_symmetry_multiplicity
 _atom_site_fract_x
 _atom_site_fract_y
 _atom_site_fract_z
 _atom_site_occupancy
  Tb  Tb0  1  0.59380288  -0.00000000  0.50000000  1
  Tb  Tb1  1  0.40619712  0.40619712  0.50000000  1
  Tb  Tb2  1  -0.00000000  0.59380288  0.50000000  1
  In  In0  1  0.74179185  0.74179185  -0.00000000  1
  In  In1  1  -0.00000000  0.25820815  0.00000000  1
  In  In2  1  0.25820815  -0.00000000  0.00000000  1
  Au  Au0  1  0.33333300  0.66666700  -0.00000000  1
  Au  Au1  1  0.66666700  0.33333300  0.00000000  1
  Au  Au2  1  -0.00000000  -0.00000000  0.50000000  1
loop_
_geom_bond_atom_site_label_1
_geom_bond_atom_site_label_2
_geom_bond_distance
_geom_bond_site_symmetry_2
In0 Tb1 3.272313 1_554
In0 Tb1 3.272313 1_555
In0 Tb2 3.397671 1_654
In0 Tb0 3.397671 1_564
In0 Tb0 3.397671 1_565
In0 Tb2 3.397671 1_655
In1 Tb2 3.272313 1_554
In1 Tb2 3.272313 1_555
In1 Tb1 3.397671 1_554
In1 Tb1 3.397671 1_555
In1 Tb0 3.397671 1_454
In1 Tb0 3.397671 1_455
In2 Tb0 3.272313 1_555
In2 Tb0 3.272313 1_554
In2 Tb1 3.397671 1_554
In2 Tb1 3.397671 1_555
In2 Tb2 3.397671 1_544
In2 Tb2 3.397671 1_545
Au0 In2 2.893580 1_565
Au0 In1 2.893585 1_555
Au0 In0 2.893588 1_555
Au0 Tb2 3.081887 1_555
Au0 Tb2 3.081887 1_554
Au0 Tb0 3.081889 1_564
Au0 Tb0 3.081889 1_565
Au0 Tb1 3.081893 1_555
Au0 Tb1 3.081893 1_554
Au1 In1 2.893580 1_655
Au1 In2 2.893585 1_555
Au1 In0 2.893588 1_555
Au1 Tb0 3.081887 1_555
Au1 Tb0 3.081887 1_554
Au1 Tb2 3.081889 1_654
Au1 Tb2 3.081889 1_655
Au1 Tb1 3.081893 1_554
Au1 Tb1 3.081893 1_555
Au2 In1 2.827477 1_555
Au2 In1 2.827477 1_556
Au2 In2 2.827477 1_556
Au2 In2 2.827477 1_555
Au2 In0 2.827477 1_445
Au2 In0 2.827477 1_446
Au2 Tb0 3.121333 1_455
Au2 Tb2 3.121333 1_545
Au2 Tb1 3.121333 1_555
